
     RDKit          3D

 37 41  0  0  0  0  0  0  0  0999 V2000
  202.7608  138.5553  133.3584 C   0  0  1  0  0  0  0  0  0  0  0  0
  202.9301  139.6977  134.3402 C   0  0  0  0  0  0  0  0  0  0  0  0
  202.8742  140.9799  133.4933 C   0  0  0  0  0  0  0  0  0  0  0  0
  202.0046  140.5419  132.3901 C   0  0  1  0  0  0  0  0  0  0  0  0
  202.0238  141.3739  131.1431 C   0  0  2  0  0  0  0  0  0  0  0  0
  201.8715  142.8287  131.3648 C   0  0  0  0  0  0  0  0  0  0  0  0
  200.6690  143.4926  130.8324 C   0  0  0  0  0  0  0  0  0  0  0  0
  200.0008  142.8589  129.6535 C   0  0  1  0  0  0  0  0  0  0  0  0
  199.7232  143.7800  128.5845 N   0  0  0  0  0  0  0  0  0  0  0  0
  198.9481  143.2224  127.5078 C   0  0  0  0  0  0  0  0  0  0  0  0
  198.1709  143.9179  126.8234 O   0  0  0  0  0  0  0  0  0  0  0  0
  199.1499  141.8013  127.2917 C   0  0  0  0  0  0  0  0  0  0  0  0
  199.9729  141.0746  128.0089 C   0  0  0  0  0  0  0  0  0  0  0  0
  200.7545  141.6828  129.0920 C   0  0  1  0  0  0  0  0  0  0  0  0
  202.0725  142.1266  128.4651 C   0  0  0  0  0  0  0  0  0  0  0  0
  200.9799  140.7466  130.2441 C   0  0  1  0  0  0  0  0  0  0  0  0
  201.3493  139.3566  129.8763 C   0  0  0  0  0  0  0  0  0  0  0  0
  201.6483  138.5327  131.1028 C   0  0  0  0  0  0  0  0  0  0  0  0
  202.6357  139.1946  132.0027 C   0  0  2  0  0  0  0  0  0  0  0  0
  203.9440  139.3627  131.3135 C   0  0  0  0  0  0  0  0  0  0  0  0
  203.9318  137.6577  133.4897 C   0  0  0  0  0  0  0  0  0  0  0  0
  204.7475  137.8568  134.4254 O   0  0  0  0  0  0  0  0  0  0  0  0
  204.2197  136.5735  132.6382 N   0  0  0  0  0  0  0  0  0  0  0  0
  204.0497  135.1990  133.0113 C   0  0  0  0  0  0  0  0  0  0  0  0
  202.8094  134.6759  133.3062 C   0  0  0  0  0  0  0  0  0  0  0  0
  202.6833  133.3520  133.6635 C   0  0  0  0  0  0  0  0  0  0  0  0
  203.8183  132.5706  133.7182 C   0  0  0  0  0  0  0  0  0  0  0  0
  205.0617  133.0878  133.4245 C   0  0  0  0  0  0  0  0  0  0  0  0
  205.1923  134.4281  133.0625 C   0  0  0  0  0  0  0  0  0  0  0  0
  206.5296  135.0040  132.7443 C   0  0  0  0  0  0  0  0  0  0  0  0
  207.4292  134.7998  133.7944 F   0  0  0  0  0  0  0  0  0  0  0  0
  207.0628  134.2721  131.6760 F   0  0  0  0  0  0  0  0  0  0  0  0
  206.4855  136.3144  132.3627 F   0  0  0  0  0  0  0  0  0  0  0  0
  201.3503  132.7485  133.9911 C   0  0  0  0  0  0  0  0  0  0  0  0
  200.3241  133.4106  133.3361 F   0  0  0  0  0  0  0  0  0  0  0  0
  201.3613  131.3962  133.7106 F   0  0  0  0  0  0  0  0  0  0  0  0
  201.1176  132.8892  135.3452 F   0  0  0  0  0  0  0  0  0  0  0  0
  1  2  1  0
  2  3  1  0
  4  3  1  1
  4  5  1  0
  5  6  1  1
  6  7  1  0
  8  7  1  1
  8  9  1  0
  9 10  1  0
 10 11  2  0
 10 12  1  0
 12 13  2  0
 13 14  1  0
 14 15  1  6
 14 16  1  0
 16 17  1  6
 17 18  1  0
 18 19  1  0
 19 20  1  6
  1 21  1  6
 21 22  2  0
 21 23  1  0
 23 24  1  0
 24 25  2  0
 25 26  1  0
 26 27  2  0
 27 28  1  0
 28 29  2  0
 29 30  1  0
 30 31  1  0
 30 32  1  0
 30 33  1  0
 26 34  1  0
 34 35  1  0
 34 36  1  0
 34 37  1  0
 19  1  1  0
 29 24  1  0
 19  4  1  0
 16  5  1  0
 14  8  1  0
M  END
$$$$
