
     RDKit          3D

 37 41  0  0  0  0  0  0  0  0999 V2000
  189.1018  164.3152  122.0714 C   0  0  1  0  0  0  0  0  0  0  0  0
  187.6144  164.3455  122.3617 C   0  0  0  0  0  0  0  0  0  0  0  0
  187.2079  162.8789  122.5814 C   0  0  0  0  0  0  0  0  0  0  0  0
  188.4634  162.3229  123.1103 C   0  0  1  0  0  0  0  0  0  0  0  0
  188.6086  160.8311  123.0780 C   0  0  2  0  0  0  0  0  0  0  0  0
  187.4525  160.0828  123.6188 C   0  0  0  0  0  0  0  0  0  0  0  0
  187.6519  159.2760  124.8352 C   0  0  0  0  0  0  0  0  0  0  0  0
  189.0366  158.7814  125.1108 C   0  0  1  0  0  0  0  0  0  0  0  0
  189.0969  157.3770  125.4145 N   0  0  0  0  0  0  0  0  0  0  0  0
  190.3956  156.9153  125.8286 C   0  0  0  0  0  0  0  0  0  0  0  0
  190.5368  155.9619  126.6206 O   0  0  0  0  0  0  0  0  0  0  0  0
  191.5086  157.6455  125.2499 C   0  0  0  0  0  0  0  0  0  0  0  0
  191.3565  158.6431  124.4122 C   0  0  0  0  0  0  0  0  0  0  0  0
  190.0150  159.0774  124.0055 C   0  0  1  0  0  0  0  0  0  0  0  0
  189.6761  158.2831  122.7479 C   0  0  0  0  0  0  0  0  0  0  0  0
  189.9306  160.5568  123.7624 C   0  0  1  0  0  0  0  0  0  0  0  0
  191.0630  161.1464  123.0050 C   0  0  0  0  0  0  0  0  0  0  0  0
  190.8288  162.6103  122.7323 C   0  0  0  0  0  0  0  0  0  0  0  0
  189.4979  162.8647  122.1104 C   0  0  2  0  0  0  0  0  0  0  0  0
  189.4021  162.1974  120.7835 C   0  0  0  0  0  0  0  0  0  0  0  0
  189.3279  164.9609  120.7576 C   0  0  0  0  0  0  0  0  0  0  0  0
  190.5074  165.1989  120.3931 O   0  0  0  0  0  0  0  0  0  0  0  0
  188.3136  165.3412  119.8576 N   0  0  0  0  0  0  0  0  0  0  0  0
  187.6564  166.6156  119.8883 C   0  0  0  0  0  0  0  0  0  0  0  0
  188.3329  167.7727  120.2090 C   0  0  0  0  0  0  0  0  0  0  0  0
  187.6694  168.9791  120.2314 C   0  0  0  0  0  0  0  0  0  0  0  0
  186.3244  169.0002  119.9279 C   0  0  0  0  0  0  0  0  0  0  0  0
  185.6421  167.8466  119.6064 C   0  0  0  0  0  0  0  0  0  0  0  0
  186.3114  166.6234  119.5830 C   0  0  0  0  0  0  0  0  0  0  0  0
  185.5882  165.3661  119.2400 C   0  0  0  0  0  0  0  0  0  0  0  0
  186.1423  164.7581  118.1099 F   0  0  0  0  0  0  0  0  0  0  0  0
  185.8119  164.4523  120.2774 F   0  0  0  0  0  0  0  0  0  0  0  0
  184.2376  165.5263  119.1181 F   0  0  0  0  0  0  0  0  0  0  0  0
  188.3726  170.2580  120.5756 C   0  0  0  0  0  0  0  0  0  0  0  0
  187.4890  171.3251  120.6056 F   0  0  0  0  0  0  0  0  0  0  0  0
  189.0587  170.1152  121.7657 F   0  0  0  0  0  0  0  0  0  0  0  0
  189.3018  170.5349  119.5920 F   0  0  0  0  0  0  0  0  0  0  0  0
  1  2  1  0
  2  3  1  0
  4  3  1  6
  4  5  1  0
  5  6  1  1
  6  7  1  0
  8  7  1  6
  8  9  1  0
  9 10  1  0
 10 11  2  0
 10 12  1  0
 12 13  2  0
 13 14  1  0
 14 15  1  6
 14 16  1  0
 16 17  1  6
 17 18  1  0
 18 19  1  0
 19 20  1  6
  1 21  1  6
 21 22  2  0
 21 23  1  0
 23 24  1  0
 24 25  2  0
 25 26  1  0
 26 27  2  0
 27 28  1  0
 28 29  2  0
 29 30  1  0
 30 31  1  0
 30 32  1  0
 30 33  1  0
 26 34  1  0
 34 35  1  0
 34 36  1  0
 34 37  1  0
 19  1  1  0
 29 24  1  0
 19  4  1  0
 16  5  1  0
 14  8  1  0
M  END
$$$$
