
     RDKit          3D

 37 41  0  0  0  0  0  0  0  0999 V2000
  192.8544  157.4186  120.8096 C   0  0  1  0  0  0  0  0  0  0  0  0
  193.3551  156.5715  121.9625 C   0  0  0  0  0  0  0  0  0  0  0  0
  192.2948  156.7117  123.0672 C   0  0  0  0  0  0  0  0  0  0  0  0
  191.0864  156.9413  122.2596 C   0  0  1  0  0  0  0  0  0  0  0  0
  189.9006  157.5239  122.9681 C   0  0  2  0  0  0  0  0  0  0  0  0
  189.5446  156.8532  124.2379 C   0  0  0  0  0  0  0  0  0  0  0  0
  188.2473  156.1603  124.3202 C   0  0  0  0  0  0  0  0  0  0  0  0
  187.1562  156.6373  123.4146 C   0  0  1  0  0  0  0  0  0  0  0  0
  185.9077  156.8696  124.0893 N   0  0  0  0  0  0  0  0  0  0  0  0
  184.8098  157.1830  123.2132 C   0  0  0  0  0  0  0  0  0  0  0  0
  183.6328  156.8791  123.4934 O   0  0  0  0  0  0  0  0  0  0  0  0
  185.1884  157.8751  121.9948 C   0  0  0  0  0  0  0  0  0  0  0  0
  186.4261  158.1991  121.7067 C   0  0  0  0  0  0  0  0  0  0  0  0
  187.5174  157.8715  122.6317 C   0  0  1  0  0  0  0  0  0  0  0  0
  187.6684  159.0784  123.5525 C   0  0  0  0  0  0  0  0  0  0  0  0
  188.8036  157.5528  121.9255 C   0  0  1  0  0  0  0  0  0  0  0  0
  189.1543  158.4524  120.7978 C   0  0  0  0  0  0  0  0  0  0  0  0
  190.5057  158.1049  120.2275 C   0  0  0  0  0  0  0  0  0  0  0  0
  191.5605  158.0257  121.2783 C   0  0  2  0  0  0  0  0  0  0  0  0
  191.7413  159.3457  121.9415 C   0  0  0  0  0  0  0  0  0  0  0  0
  193.8990  158.4170  120.4837 C   0  0  0  0  0  0  0  0  0  0  0  0
  195.1060  158.0676  120.5228 O   0  0  0  0  0  0  0  0  0  0  0  0
  193.6541  159.7566  120.1248 N   0  0  0  0  0  0  0  0  0  0  0  0
  194.6204  160.6000  119.4828 C   0  0  0  0  0  0  0  0  0  0  0  0
  195.9252  160.6711  119.9204 C   0  0  0  0  0  0  0  0  0  0  0  0
  196.8260  161.4937  119.2817 C   0  0  0  0  0  0  0  0  0  0  0  0
  196.3938  162.2374  118.2038 C   0  0  0  0  0  0  0  0  0  0  0  0
  195.0901  162.1710  117.7613 C   0  0  0  0  0  0  0  0  0  0  0  0
  194.1758  161.3387  118.4063 C   0  0  0  0  0  0  0  0  0  0  0  0
  192.7618  161.2568  117.9423 C   0  0  0  0  0  0  0  0  0  0  0  0
  192.5591  162.0400  116.8024 F   0  0  0  0  0  0  0  0  0  0  0  0
  192.5320  159.9437  117.5133 F   0  0  0  0  0  0  0  0  0  0  0  0
  191.8477  161.5360  118.9176 F   0  0  0  0  0  0  0  0  0  0  0  0
  198.2533  161.5966  119.7298 C   0  0  0  0  0  0  0  0  0  0  0  0
  198.5398  160.6634  120.7135 F   0  0  0  0  0  0  0  0  0  0  0  0
  199.0993  161.4863  118.6438 F   0  0  0  0  0  0  0  0  0  0  0  0
  198.4565  162.8431  120.2888 F   0  0  0  0  0  0  0  0  0  0  0  0
  1  2  1  0
  2  3  1  0
  4  3  1  1
  4  5  1  0
  5  6  1  1
  6  7  1  0
  8  7  1  1
  8  9  1  0
  9 10  1  0
 10 11  2  0
 10 12  1  0
 12 13  2  0
 13 14  1  0
 14 15  1  1
 14 16  1  0
 16 17  1  6
 17 18  1  0
 18 19  1  0
 19 20  1  1
  1 21  1  1
 21 22  2  0
 21 23  1  0
 23 24  1  0
 24 25  2  0
 25 26  1  0
 26 27  2  0
 27 28  1  0
 28 29  2  0
 29 30  1  0
 30 31  1  0
 30 32  1  0
 30 33  1  0
 26 34  1  0
 34 35  1  0
 34 36  1  0
 34 37  1  0
 19  1  1  0
 29 24  1  0
 19  4  1  0
 16  5  1  0
 14  8  1  0
M  END
$$$$
