
     RDKit          3D

 37 41  0  0  0  0  0  0  0  0999 V2000
  201.7244  135.7308  133.8827 C   0  0  1  0  0  0  0  0  0  0  0  0
  203.2194  135.6220  134.1081 C   0  0  0  0  0  0  0  0  0  0  0  0
  203.8664  136.4450  132.9819 C   0  0  0  0  0  0  0  0  0  0  0  0
  202.8184  137.4489  132.7393 C   0  0  1  0  0  0  0  0  0  0  0  0
  202.8875  138.1985  131.4428 C   0  0  2  0  0  0  0  0  0  0  0  0
  204.2170  138.7624  131.1215 C   0  0  0  0  0  0  0  0  0  0  0  0
  204.3551  140.2276  131.0557 C   0  0  0  0  0  0  0  0  0  0  0  0
  203.1276  141.0183  130.7301 C   0  0  1  0  0  0  0  0  0  0  0  0
  203.3261  141.9862  129.6852 N   0  0  0  0  0  0  0  0  0  0  0  0
  202.2020  142.8568  129.4623 C   0  0  0  0  0  0  0  0  0  0  0  0
  202.3429  144.0269  129.0531 O   0  0  0  0  0  0  0  0  0  0  0  0
  200.9103  142.2605  129.7498 C   0  0  0  0  0  0  0  0  0  0  0  0
  200.7656  141.0278  130.1734 C   0  0  0  0  0  0  0  0  0  0  0  0
  201.9366  140.1672  130.3781 C   0  0  1  0  0  0  0  0  0  0  0  0
  202.1590  139.4342  129.0589 C   0  0  0  0  0  0  0  0  0  0  0  0
  201.7614  139.2072  131.5193 C   0  0  1  0  0  0  0  0  0  0  0  0
  200.4395  138.5357  131.5935 C   0  0  0  0  0  0  0  0  0  0  0  0
  200.4071  137.5247  132.7111 C   0  0  0  0  0  0  0  0  0  0  0  0
  201.5558  136.5762  132.6501 C   0  0  2  0  0  0  0  0  0  0  0  0
  201.5108  135.7769  131.3955 C   0  0  0  0  0  0  0  0  0  0  0  0
  201.1781  134.3607  133.7464 C   0  0  0  0  0  0  0  0  0  0  0  0
  200.3239  134.1339  132.8522 O   0  0  0  0  0  0  0  0  0  0  0  0
  201.5399  133.2617  134.5494 N   0  0  0  0  0  0  0  0  0  0  0  0
  201.8873  133.3675  135.9369 C   0  0  0  0  0  0  0  0  0  0  0  0
  203.0902  133.9025  136.3443 C   0  0  0  0  0  0  0  0  0  0  0  0
  203.3921  133.9863  137.6852 C   0  0  0  0  0  0  0  0  0  0  0  0
  202.4695  133.5260  138.6010 C   0  0  0  0  0  0  0  0  0  0  0  0
  201.2648  132.9899  138.2000 C   0  0  0  0  0  0  0  0  0  0  0  0
  200.9565  132.9038  136.8428 C   0  0  0  0  0  0  0  0  0  0  0  0
  199.6594  132.3244  136.3919 C   0  0  0  0  0  0  0  0  0  0  0  0
  198.8622  133.2927  135.7747 F   0  0  0  0  0  0  0  0  0  0  0  0
  199.9382  131.3990  135.3784 F   0  0  0  0  0  0  0  0  0  0  0  0
  198.9822  131.6635  137.3764 F   0  0  0  0  0  0  0  0  0  0  0  0
  204.6907  134.5621  138.1653 C   0  0  0  0  0  0  0  0  0  0  0  0
  204.4814  135.6615  138.9827 F   0  0  0  0  0  0  0  0  0  0  0  0
  205.4405  133.5840  138.7885 F   0  0  0  0  0  0  0  0  0  0  0  0
  205.4124  135.0057  137.0745 F   0  0  0  0  0  0  0  0  0  0  0  0
  1  2  1  0
  2  3  1  0
  4  3  1  6
  4  5  1  0
  5  6  1  1
  6  7  1  0
  8  7  1  6
  8  9  1  0
  9 10  1  0
 10 11  2  0
 10 12  1  0
 12 13  2  0
 13 14  1  0
 14 15  1  6
 14 16  1  0
 16 17  1  6
 17 18  1  0
 18 19  1  0
 19 20  1  6
  1 21  1  6
 21 22  2  0
 21 23  1  0
 23 24  1  0
 24 25  2  0
 25 26  1  0
 26 27  2  0
 27 28  1  0
 28 29  2  0
 29 30  1  0
 30 31  1  0
 30 32  1  0
 30 33  1  0
 26 34  1  0
 34 35  1  0
 34 36  1  0
 34 37  1  0
 19  1  1  0
 29 24  1  0
 19  4  1  0
 16  5  1  0
 14  8  1  0
M  END
$$$$
