
     RDKit          3D

 37 41  0  0  0  0  0  0  0  0999 V2000
  108.0863  166.8786  154.0509 C   0  0  1  0  0  0  0  0  0  0  0  0
  106.7125  166.2955  153.7858 C   0  0  0  0  0  0  0  0  0  0  0  0
  106.4617  165.2971  154.9280 C   0  0  0  0  0  0  0  0  0  0  0  0
  107.2532  165.9100  156.0065 C   0  0  1  0  0  0  0  0  0  0  0  0
  107.5960  165.0349  157.1744 C   0  0  2  0  0  0  0  0  0  0  0  0
  106.4556  164.2837  157.7435 C   0  0  0  0  0  0  0  0  0  0  0  0
  106.0347  164.5936  159.1208 C   0  0  0  0  0  0  0  0  0  0  0  0
  107.0668  165.1640  160.0415 C   0  0  1  0  0  0  0  0  0  0  0  0
  107.1372  164.4956  161.3129 N   0  0  0  0  0  0  0  0  0  0  0  0
  108.0161  165.1228  162.2644 C   0  0  0  0  0  0  0  0  0  0  0  0
  107.8107  165.0632  163.4935 O   0  0  0  0  0  0  0  0  0  0  0  0
  109.1459  165.8182  161.6755 C   0  0  0  0  0  0  0  0  0  0  0  0
  109.3624  165.8731  160.3832 C   0  0  0  0  0  0  0  0  0  0  0  0
  108.4484  165.2109  159.4451 C   0  0  1  0  0  0  0  0  0  0  0  0
  109.0020  163.8048  159.2362 C   0  0  0  0  0  0  0  0  0  0  0  0
  108.3135  165.9490  158.1445 C   0  0  1  0  0  0  0  0  0  0  0  0
  109.5806  166.4624  157.5657 C   0  0  0  0  0  0  0  0  0  0  0  0
  109.3435  167.0958  156.2185 C   0  0  0  0  0  0  0  0  0  0  0  0
  108.5859  166.2011  155.2974 C   0  0  2  0  0  0  0  0  0  0  0  0
  109.3582  164.9599  155.0179 C   0  0  0  0  0  0  0  0  0  0  0  0
  108.9295  166.6319  152.8583 C   0  0  0  0  0  0  0  0  0  0  0  0
  108.8665  167.4355  151.8935 O   0  0  0  0  0  0  0  0  0  0  0  0
  109.8181  165.5501  152.7053 N   0  0  0  0  0  0  0  0  0  0  0  0
  109.8648  164.7145  151.5405 C   0  0  0  0  0  0  0  0  0  0  0  0
  108.9676  163.6861  151.3497 C   0  0  0  0  0  0  0  0  0  0  0  0
  109.0433  162.9017  150.2204 C   0  0  0  0  0  0  0  0  0  0  0  0
  110.0297  163.1686  149.2945 C   0  0  0  0  0  0  0  0  0  0  0  0
  110.9301  164.1957  149.4795 C   0  0  0  0  0  0  0  0  0  0  0  0
  110.8558  164.9915  150.6221 C   0  0  0  0  0  0  0  0  0  0  0  0
  111.8230  166.1045  150.8391 C   0  0  0  0  0  0  0  0  0  0  0  0
  111.3460  167.3002  150.2944 F   0  0  0  0  0  0  0  0  0  0  0  0
  111.8887  166.3463  152.2169 F   0  0  0  0  0  0  0  0  0  0  0  0
  113.0887  165.8224  150.4110 F   0  0  0  0  0  0  0  0  0  0  0  0
  108.0845  161.7743  149.9793 C   0  0  0  0  0  0  0  0  0  0  0  0
  108.7368  160.6574  149.4819 F   0  0  0  0  0  0  0  0  0  0  0  0
  107.3809  161.4962  151.1347 F   0  0  0  0  0  0  0  0  0  0  0  0
  107.1698  162.1640  149.0205 F   0  0  0  0  0  0  0  0  0  0  0  0
  1  2  1  0
  2  3  1  0
  4  3  1  6
  4  5  1  0
  5  6  1  1
  6  7  1  0
  8  7  1  6
  8  9  1  0
  9 10  1  0
 10 11  2  0
 10 12  1  0
 12 13  2  0
 13 14  1  0
 14 15  1  6
 14 16  1  0
 16 17  1  6
 17 18  1  0
 18 19  1  0
 19 20  1  6
  1 21  1  6
 21 22  2  0
 21 23  1  0
 23 24  1  0
 24 25  2  0
 25 26  1  0
 26 27  2  0
 27 28  1  0
 28 29  2  0
 29 30  1  0
 30 31  1  0
 30 32  1  0
 30 33  1  0
 26 34  1  0
 34 35  1  0
 34 36  1  0
 34 37  1  0
 19  1  1  0
 29 24  1  0
 19  4  1  0
 16  5  1  0
 14  8  1  0
M  END
$$$$
