
     RDKit          3D

 37 41  0  0  0  0  0  0  0  0999 V2000
  204.6387  131.9854  133.2313 C   0  0  1  0  0  0  0  0  0  0  0  0
  203.4980  131.7504  134.2014 C   0  0  0  0  0  0  0  0  0  0  0  0
  202.9561  133.1476  134.5457 C   0  0  0  0  0  0  0  0  0  0  0  0
  203.2690  133.8760  133.3062 C   0  0  1  0  0  0  0  0  0  0  0  0
  203.2621  135.3732  133.3820 C   0  0  2  0  0  0  0  0  0  0  0  0
  202.0656  135.9569  134.0275 C   0  0  0  0  0  0  0  0  0  0  0  0
  201.1690  136.7911  133.2086 C   0  0  0  0  0  0  0  0  0  0  0  0
  201.7650  137.4752  132.0191 C   0  0  1  0  0  0  0  0  0  0  0  0
  201.4495  138.8762  131.9422 N   0  0  0  0  0  0  0  0  0  0  0  0
  201.8867  139.5165  130.7298 C   0  0  0  0  0  0  0  0  0  0  0  0
  201.2750  140.4853  130.2361 O   0  0  0  0  0  0  0  0  0  0  0  0
  203.0849  138.9446  130.1433 C   0  0  0  0  0  0  0  0  0  0  0  0
  203.7293  137.9305  130.6688 C   0  0  0  0  0  0  0  0  0  0  0  0
  203.2578  137.3112  131.9130 C   0  0  1  0  0  0  0  0  0  0  0  0
  203.9702  138.0428  133.0463 C   0  0  0  0  0  0  0  0  0  0  0  0
  203.5169  135.8330  131.9624 C   0  0  1  0  0  0  0  0  0  0  0  0
  204.8558  135.4019  131.4877 C   0  0  0  0  0  0  0  0  0  0  0  0
  205.0447  133.9180  131.6735 C   0  0  0  0  0  0  0  0  0  0  0  0
  204.7337  133.4771  133.0634 C   0  0  2  0  0  0  0  0  0  0  0  0
  205.6606  134.1163  134.0368 C   0  0  0  0  0  0  0  0  0  0  0  0
  205.8605  131.3693  133.7987 C   0  0  0  0  0  0  0  0  0  0  0  0
  206.7403  132.1151  134.2990 O   0  0  0  0  0  0  0  0  0  0  0  0
  206.1307  129.9875  133.8287 N   0  0  0  0  0  0  0  0  0  0  0  0
  207.0279  129.3302  132.9230 C   0  0  0  0  0  0  0  0  0  0  0  0
  208.1591  129.9538  132.4428 C   0  0  0  0  0  0  0  0  0  0  0  0
  208.9972  129.2936  131.5723 C   0  0  0  0  0  0  0  0  0  0  0  0
  208.6793  128.0053  131.1969 C   0  0  0  0  0  0  0  0  0  0  0  0
  207.5494  127.3760  131.6735 C   0  0  0  0  0  0  0  0  0  0  0  0
  206.6989  128.0423  132.5551 C   0  0  0  0  0  0  0  0  0  0  0  0
  205.4717  127.3774  133.0780 C   0  0  0  0  0  0  0  0  0  0  0  0
  204.3191  127.9305  132.5128 F   0  0  0  0  0  0  0  0  0  0  0  0
  205.4837  126.0514  132.6279 F   0  0  0  0  0  0  0  0  0  0  0  0
  205.4029  127.3476  134.4415 F   0  0  0  0  0  0  0  0  0  0  0  0
  210.2364  129.9403  131.0295 C   0  0  0  0  0  0  0  0  0  0  0  0
  211.0107  129.0316  130.3259 F   0  0  0  0  0  0  0  0  0  0  0  0
  209.9001  131.0408  130.2658 F   0  0  0  0  0  0  0  0  0  0  0  0
  211.0051  130.3881  132.0859 F   0  0  0  0  0  0  0  0  0  0  0  0
  1  2  1  0
  2  3  1  0
  4  3  1  1
  4  5  1  0
  5  6  1  6
  6  7  1  0
  8  7  1  1
  8  9  1  0
  9 10  1  0
 10 11  2  0
 10 12  1  0
 12 13  2  0
 13 14  1  0
 14 15  1  1
 14 16  1  0
 16 17  1  1
 17 18  1  0
 18 19  1  0
 19 20  1  1
  1 21  1  1
 21 22  2  0
 21 23  1  0
 23 24  1  0
 24 25  2  0
 25 26  1  0
 26 27  2  0
 27 28  1  0
 28 29  2  0
 29 30  1  0
 30 31  1  0
 30 32  1  0
 30 33  1  0
 26 34  1  0
 34 35  1  0
 34 36  1  0
 34 37  1  0
 19  1  1  0
 29 24  1  0
 19  4  1  0
 16  5  1  0
 14  8  1  0
M  END
$$$$
