
     RDKit          3D

 37 41  0  0  0  0  0  0  0  0999 V2000
  204.0242  131.6932  136.4031 C   0  0  1  0  0  0  0  0  0  0  0  0
  203.0662  131.1843  135.3445 C   0  0  0  0  0  0  0  0  0  0  0  0
  202.9475  132.3212  134.3160 C   0  0  0  0  0  0  0  0  0  0  0  0
  204.2702  132.9517  134.4507 C   0  0  1  0  0  0  0  0  0  0  0  0
  204.4150  134.3413  133.9071 C   0  0  2  0  0  0  0  0  0  0  0  0
  203.8998  134.5275  132.5328 C   0  0  0  0  0  0  0  0  0  0  0  0
  204.8597  134.8698  131.4691 C   0  0  0  0  0  0  0  0  0  0  0  0
  206.1175  135.5683  131.8791 C   0  0  1  0  0  0  0  0  0  0  0  0
  206.4089  136.7380  131.0948 N   0  0  0  0  0  0  0  0  0  0  0  0
  207.6879  137.3356  131.3743 C   0  0  0  0  0  0  0  0  0  0  0  0
  208.3372  137.9464  130.5015 O   0  0  0  0  0  0  0  0  0  0  0  0
  208.1465  137.1684  132.7413 C   0  0  0  0  0  0  0  0  0  0  0  0
  207.4581  136.5314  133.6579 C   0  0  0  0  0  0  0  0  0  0  0  0
  206.1518  135.9449  133.3363 C   0  0  1  0  0  0  0  0  0  0  0  0
  205.1165  137.0212  133.6476 C   0  0  0  0  0  0  0  0  0  0  0  0
  205.8781  134.6801  134.0979 C   0  0  1  0  0  0  0  0  0  0  0  0
  206.2424  134.7079  135.5367 C   0  0  0  0  0  0  0  0  0  0  0  0
  205.8352  133.4294  136.2237 C   0  0  0  0  0  0  0  0  0  0  0  0
  204.4060  133.0840  135.9764 C   0  0  2  0  0  0  0  0  0  0  0  0
  203.5085  134.1326  136.5331 C   0  0  0  0  0  0  0  0  0  0  0  0
  203.3347  131.6385  137.7130 C   0  0  0  0  0  0  0  0  0  0  0  0
  203.7150  132.4077  138.6318 O   0  0  0  0  0  0  0  0  0  0  0  0
  202.2638  130.7800  138.0285 N   0  0  0  0  0  0  0  0  0  0  0  0
  201.4669  130.1041  137.0460 C   0  0  0  0  0  0  0  0  0  0  0  0
  201.9379  129.0043  136.3622 C   0  0  0  0  0  0  0  0  0  0  0  0
  201.1463  128.3814  135.4232 C   0  0  0  0  0  0  0  0  0  0  0  0
  199.8829  128.8809  135.1868 C   0  0  0  0  0  0  0  0  0  0  0  0
  199.4060  129.9806  135.8673 C   0  0  0  0  0  0  0  0  0  0  0  0
  200.2055  130.6133  136.8186 C   0  0  0  0  0  0  0  0  0  0  0  0
  199.7063  131.8051  137.5616 C   0  0  0  0  0  0  0  0  0  0  0  0
  200.2880  131.8884  138.8299 F   0  0  0  0  0  0  0  0  0  0  0  0
  200.1626  132.9454  136.8889 F   0  0  0  0  0  0  0  0  0  0  0  0
  198.3444  131.8820  137.6230 F   0  0  0  0  0  0  0  0  0  0  0  0
  201.6252  127.1828  134.6600 C   0  0  0  0  0  0  0  0  0  0  0  0
  202.4479  127.5526  133.6079 F   0  0  0  0  0  0  0  0  0  0  0  0
  202.2422  126.2920  135.5164 F   0  0  0  0  0  0  0  0  0  0  0  0
  200.5342  126.5399  134.1087 F   0  0  0  0  0  0  0  0  0  0  0  0
  1  2  1  0
  2  3  1  0
  4  3  1  1
  4  5  1  0
  5  6  1  6
  6  7  1  0
  8  7  1  6
  8  9  1  0
  9 10  1  0
 10 11  2  0
 10 12  1  0
 12 13  2  0
 13 14  1  0
 14 15  1  6
 14 16  1  0
 16 17  1  1
 17 18  1  0
 18 19  1  0
 19 20  1  1
  1 21  1  1
 21 22  2  0
 21 23  1  0
 23 24  1  0
 24 25  2  0
 25 26  1  0
 26 27  2  0
 27 28  1  0
 28 29  2  0
 29 30  1  0
 30 31  1  0
 30 32  1  0
 30 33  1  0
 26 34  1  0
 34 35  1  0
 34 36  1  0
 34 37  1  0
 19  1  1  0
 29 24  1  0
 19  4  1  0
 16  5  1  0
 14  8  1  0
M  END
$$$$
