
     RDKit          3D

 37 41  0  0  0  0  0  0  0  0999 V2000
  168.3439  147.6519  125.4951 C   0  0  1  0  0  0  0  0  0  0  0  0
  167.7411  147.8703  124.1217 C   0  0  0  0  0  0  0  0  0  0  0  0
  166.6033  148.8837  124.3279 C   0  0  0  0  0  0  0  0  0  0  0  0
  167.1140  149.6377  125.4836 C   0  0  1  0  0  0  0  0  0  0  0  0
  166.1196  150.4593  126.2476 C   0  0  2  0  0  0  0  0  0  0  0  0
  165.2593  151.3270  125.4134 C   0  0  0  0  0  0  0  0  0  0  0  0
  165.3839  152.7868  125.5673 C   0  0  0  0  0  0  0  0  0  0  0  0
  165.8813  153.2978  126.8824 C   0  0  1  0  0  0  0  0  0  0  0  0
  165.0684  154.3461  127.4379 N   0  0  0  0  0  0  0  0  0  0  0  0
  165.6121  154.9521  128.6246 C   0  0  0  0  0  0  0  0  0  0  0  0
  165.3968  156.1460  128.9153 O   0  0  0  0  0  0  0  0  0  0  0  0
  166.4190  154.0634  129.4407 C   0  0  0  0  0  0  0  0  0  0  0  0
  166.6377  152.8069  129.1354 C   0  0  0  0  0  0  0  0  0  0  0  0
  166.0562  152.2224  127.9213 C   0  0  1  0  0  0  0  0  0  0  0  0
  164.7092  151.6384  128.3360 C   0  0  0  0  0  0  0  0  0  0  0  0
  166.9391  151.1814  127.2957 C   0  0  1  0  0  0  0  0  0  0  0  0
  167.5698  150.2256  128.2404 C   0  0  0  0  0  0  0  0  0  0  0  0
  168.3503  149.1686  127.5016 C   0  0  0  0  0  0  0  0  0  0  0  0
  167.5425  148.5093  126.4359 C   0  0  2  0  0  0  0  0  0  0  0  0
  166.3767  147.7967  127.0258 C   0  0  0  0  0  0  0  0  0  0  0  0
  168.2772  146.2045  125.8027 C   0  0  0  0  0  0  0  0  0  0  0  0
  168.8011  145.7850  126.8659 O   0  0  0  0  0  0  0  0  0  0  0  0
  167.6634  145.2319  124.9899 N   0  0  0  0  0  0  0  0  0  0  0  0
  168.2512  144.7074  123.7913 C   0  0  0  0  0  0  0  0  0  0  0  0
  167.6476  144.8581  122.5617 C   0  0  0  0  0  0  0  0  0  0  0  0
  168.2391  144.3392  121.4316 C   0  0  0  0  0  0  0  0  0  0  0  0
  169.4388  143.6714  121.5601 C   0  0  0  0  0  0  0  0  0  0  0  0
  170.0476  143.5172  122.7870 C   0  0  0  0  0  0  0  0  0  0  0  0
  169.4508  144.0417  123.9330 C   0  0  0  0  0  0  0  0  0  0  0  0
  170.0943  143.8817  125.2679 C   0  0  0  0  0  0  0  0  0  0  0  0
  171.1604  142.9796  125.2086 F   0  0  0  0  0  0  0  0  0  0  0  0
  170.6866  145.1059  125.6021 F   0  0  0  0  0  0  0  0  0  0  0  0
  169.2171  143.5642  126.2650 F   0  0  0  0  0  0  0  0  0  0  0  0
  167.6115  144.4838  120.0775 C   0  0  0  0  0  0  0  0  0  0  0  0
  166.2342  144.3460  120.1444 F   0  0  0  0  0  0  0  0  0  0  0  0
  167.9887  145.6836  119.5068 F   0  0  0  0  0  0  0  0  0  0  0  0
  168.0760  143.4718  119.2603 F   0  0  0  0  0  0  0  0  0  0  0  0
  1  2  1  0
  2  3  1  0
  4  3  1  6
  4  5  1  0
  5  6  1  6
  6  7  1  0
  8  7  1  6
  8  9  1  0
  9 10  1  0
 10 11  2  0
 10 12  1  0
 12 13  2  0
 13 14  1  0
 14 15  1  1
 14 16  1  0
 16 17  1  1
 17 18  1  0
 18 19  1  0
 19 20  1  1
  1 21  1  1
 21 22  2  0
 21 23  1  0
 23 24  1  0
 24 25  2  0
 25 26  1  0
 26 27  2  0
 27 28  1  0
 28 29  2  0
 29 30  1  0
 30 31  1  0
 30 32  1  0
 30 33  1  0
 26 34  1  0
 34 35  1  0
 34 36  1  0
 34 37  1  0
 19  1  1  0
 29 24  1  0
 19  4  1  0
 16  5  1  0
 14  8  1  0
M  END
$$$$
