
     RDKit          3D

 37 41  0  0  0  0  0  0  0  0999 V2000
  182.3584  175.9936  134.2327 C   0  0  1  0  0  0  0  0  0  0  0  0
  183.5364  175.7794  133.3032 C   0  0  0  0  0  0  0  0  0  0  0  0
  184.7771  175.7504  134.2111 C   0  0  0  0  0  0  0  0  0  0  0  0
  184.1939  175.2241  135.4553 C   0  0  1  0  0  0  0  0  0  0  0  0
  184.9902  175.4194  136.7104 C   0  0  2  0  0  0  0  0  0  0  0  0
  186.4136  175.0286  136.6101 C   0  0  0  0  0  0  0  0  0  0  0  0
  186.8873  173.9038  137.4351 C   0  0  0  0  0  0  0  0  0  0  0  0
  186.1372  173.6151  138.6968 C   0  0  1  0  0  0  0  0  0  0  0  0
  186.9838  173.4714  139.8504 N   0  0  0  0  0  0  0  0  0  0  0  0
  186.2963  173.0459  141.0410 C   0  0  0  0  0  0  0  0  0  0  0  0
  186.8580  172.3620  141.9202 O   0  0  0  0  0  0  0  0  0  0  0  0
  184.9134  173.4787  141.1267 C   0  0  0  0  0  0  0  0  0  0  0  0
  184.3281  174.2034  140.2036 C   0  0  0  0  0  0  0  0  0  0  0  0
  185.0668  174.6269  139.0082 C   0  0  1  0  0  0  0  0  0  0  0  0
  185.6780  175.9830  139.3467 C   0  0  0  0  0  0  0  0  0  0  0  0
  184.1998  174.7031  137.7846 C   0  0  1  0  0  0  0  0  0  0  0  0
  182.8679  175.3282  137.9820 C   0  0  0  0  0  0  0  0  0  0  0  0
  182.1243  175.4434  136.6758 C   0  0  0  0  0  0  0  0  0  0  0  0
  182.9409  176.1004  135.6153 C   0  0  2  0  0  0  0  0  0  0  0  0
  183.2763  177.4981  136.0013 C   0  0  0  0  0  0  0  0  0  0  0  0
  181.6394  177.2114  133.7919 C   0  0  0  0  0  0  0  0  0  0  0  0
  180.4976  177.4461  134.2629 O   0  0  0  0  0  0  0  0  0  0  0  0
  182.1336  178.1535  132.8692 N   0  0  0  0  0  0  0  0  0  0  0  0
  182.4075  179.5229  133.1963 C   0  0  0  0  0  0  0  0  0  0  0  0
  181.6263  180.2254  134.0882 C   0  0  0  0  0  0  0  0  0  0  0  0
  181.9168  181.5401  134.3770 C   0  0  0  0  0  0  0  0  0  0  0  0
  182.9984  182.1301  133.7576 C   0  0  0  0  0  0  0  0  0  0  0  0
  183.7836  181.4330  132.8647 C   0  0  0  0  0  0  0  0  0  0  0  0
  183.4916  180.1015  132.5703 C   0  0  0  0  0  0  0  0  0  0  0  0
  184.3288  179.3339  131.6052 C   0  0  0  0  0  0  0  0  0  0  0  0
  183.5392  178.7288  130.6232 F   0  0  0  0  0  0  0  0  0  0  0  0
  185.1190  180.2538  130.9047 F   0  0  0  0  0  0  0  0  0  0  0  0
  185.1708  178.4389  132.2006 F   0  0  0  0  0  0  0  0  0  0  0  0
  181.0893  182.3354  135.3419 C   0  0  0  0  0  0  0  0  0  0  0  0
  179.7392  182.0614  135.1911 F   0  0  0  0  0  0  0  0  0  0  0  0
  181.5253  182.1145  136.6335 F   0  0  0  0  0  0  0  0  0  0  0  0
  181.2577  183.6794  135.0716 F   0  0  0  0  0  0  0  0  0  0  0  0
  1  2  1  0
  2  3  1  0
  4  3  1  6
  4  5  1  0
  5  6  1  6
  6  7  1  0
  8  7  1  6
  8  9  1  0
  9 10  1  0
 10 11  2  0
 10 12  1  0
 12 13  2  0
 13 14  1  0
 14 15  1  1
 14 16  1  0
 16 17  1  1
 17 18  1  0
 18 19  1  0
 19 20  1  1
  1 21  1  6
 21 22  2  0
 21 23  1  0
 23 24  1  0
 24 25  2  0
 25 26  1  0
 26 27  2  0
 27 28  1  0
 28 29  2  0
 29 30  1  0
 30 31  1  0
 30 32  1  0
 30 33  1  0
 26 34  1  0
 34 35  1  0
 34 36  1  0
 34 37  1  0
 19  1  1  0
 29 24  1  0
 19  4  1  0
 16  5  1  0
 14  8  1  0
M  END
$$$$
