
     RDKit          3D

 37 41  0  0  0  0  0  0  0  0999 V2000
  196.7260  165.9861  132.0739 C   0  0  1  0  0  0  0  0  0  0  0  0
  197.4192  165.6683  130.7639 C   0  0  0  0  0  0  0  0  0  0  0  0
  196.4259  164.8018  129.9722 C   0  0  0  0  0  0  0  0  0  0  0  0
  195.1459  165.3067  130.4934 C   0  0  1  0  0  0  0  0  0  0  0  0
  193.9385  164.4467  130.2695 C   0  0  2  0  0  0  0  0  0  0  0  0
  193.7683  163.9643  128.8813 C   0  0  0  0  0  0  0  0  0  0  0  0
  192.5926  164.4251  128.1227 C   0  0  0  0  0  0  0  0  0  0  0  0
  191.3863  164.8329  128.9079 C   0  0  1  0  0  0  0  0  0  0  0  0
  190.1651  164.2341  128.4406 N   0  0  0  0  0  0  0  0  0  0  0  0
  188.9776  164.7290  129.0855 C   0  0  0  0  0  0  0  0  0  0  0  0
  187.8779  164.7778  128.4984 O   0  0  0  0  0  0  0  0  0  0  0  0
  189.1705  165.1578  130.4587 C   0  0  0  0  0  0  0  0  0  0  0  0
  190.3267  165.0988  131.0749 C   0  0  0  0  0  0  0  0  0  0  0  0
  191.5130  164.5771  130.3861 C   0  0  1  0  0  0  0  0  0  0  0  0
  191.5498  163.0808  130.6810 C   0  0  0  0  0  0  0  0  0  0  0  0
  192.7816  165.2551  130.8168 C   0  0  1  0  0  0  0  0  0  0  0  0
  192.9232  165.4794  132.2775 C   0  0  0  0  0  0  0  0  0  0  0  0
  194.2694  166.0723  132.6068 C   0  0  0  0  0  0  0  0  0  0  0  0
  195.3924  165.2934  132.0108 C   0  0  2  0  0  0  0  0  0  0  0  0
  195.4252  163.9121  132.5641 C   0  0  0  0  0  0  0  0  0  0  0  0
  197.5919  165.5151  133.1795 C   0  0  0  0  0  0  0  0  0  0  0  0
  197.0662  165.2428  134.2886 O   0  0  0  0  0  0  0  0  0  0  0  0
  198.9870  165.3405  133.0966 N   0  0  0  0  0  0  0  0  0  0  0  0
  199.9257  165.9947  133.9615 C   0  0  0  0  0  0  0  0  0  0  0  0
  199.9003  165.8144  135.3275 C   0  0  0  0  0  0  0  0  0  0  0  0
  200.8154  166.4605  136.1284 C   0  0  0  0  0  0  0  0  0  0  0  0
  201.7486  167.2844  135.5349 C   0  0  0  0  0  0  0  0  0  0  0  0
  201.7792  167.4689  134.1693 C   0  0  0  0  0  0  0  0  0  0  0  0
  200.8537  166.8159  133.3560 C   0  0  0  0  0  0  0  0  0  0  0  0
  200.8711  167.0063  131.8779 C   0  0  0  0  0  0  0  0  0  0  0  0
  200.7330  165.7857  131.2107 F   0  0  0  0  0  0  0  0  0  0  0  0
  199.7234  167.7297  131.5303 F   0  0  0  0  0  0  0  0  0  0  0  0
  201.9516  167.7098  131.4283 F   0  0  0  0  0  0  0  0  0  0  0  0
  200.8180  166.2884  137.6180 C   0  0  0  0  0  0  0  0  0  0  0  0
  200.5729  167.4901  138.2632 F   0  0  0  0  0  0  0  0  0  0  0  0
  199.9170  165.3073  137.9825 F   0  0  0  0  0  0  0  0  0  0  0  0
  202.0720  165.8685  138.0162 F   0  0  0  0  0  0  0  0  0  0  0  0
  1  2  1  0
  2  3  1  0
  4  3  1  6
  4  5  1  0
  5  6  1  6
  6  7  1  0
  8  7  1  6
  8  9  1  0
  9 10  1  0
 10 11  2  0
 10 12  1  0
 12 13  2  0
 13 14  1  0
 14 15  1  6
 14 16  1  0
 16 17  1  1
 17 18  1  0
 18 19  1  0
 19 20  1  1
  1 21  1  1
 21 22  2  0
 21 23  1  0
 23 24  1  0
 24 25  2  0
 25 26  1  0
 26 27  2  0
 27 28  1  0
 28 29  2  0
 29 30  1  0
 30 31  1  0
 30 32  1  0
 30 33  1  0
 26 34  1  0
 34 35  1  0
 34 36  1  0
 34 37  1  0
 19  1  1  0
 29 24  1  0
 19  4  1  0
 16  5  1  0
 14  8  1  0
M  END
$$$$
