
     RDKit          3D

 37 41  0  0  0  0  0  0  0  0999 V2000
  191.4095  161.1203  117.0151 C   0  0  1  0  0  0  0  0  0  0  0  0
  191.3175  160.0791  115.9173 C   0  0  0  0  0  0  0  0  0  0  0  0
  192.0494  158.8412  116.4616 C   0  0  0  0  0  0  0  0  0  0  0  0
  191.8200  159.0005  117.9063 C   0  0  1  0  0  0  0  0  0  0  0  0
  192.7098  158.2155  118.8226 C   0  0  2  0  0  0  0  0  0  0  0  0
  192.8410  156.7816  118.4828 C   0  0  0  0  0  0  0  0  0  0  0  0
  192.3213  155.7886  119.4389 C   0  0  0  0  0  0  0  0  0  0  0  0
  192.2448  156.1952  120.8766 C   0  0  1  0  0  0  0  0  0  0  0  0
  192.8230  155.2356  121.7783 N   0  0  0  0  0  0  0  0  0  0  0  0
  192.6253  155.5374  123.1715 C   0  0  0  0  0  0  0  0  0  0  0  0
  192.5381  154.6422  124.0359 O   0  0  0  0  0  0  0  0  0  0  0  0
  192.5398  156.9540  123.4761 C   0  0  0  0  0  0  0  0  0  0  0  0
  192.6387  157.8926  122.5655 C   0  0  0  0  0  0  0  0  0  0  0  0
  192.8512  157.5446  121.1557 C   0  0  1  0  0  0  0  0  0  0  0  0
  194.3624  157.5183  120.9494 C   0  0  0  0  0  0  0  0  0  0  0  0
  192.1827  158.5026  120.2123 C   0  0  1  0  0  0  0  0  0  0  0  0
  192.3211  159.9402  120.5557 C   0  0  0  0  0  0  0  0  0  0  0  0
  191.7014  160.8130  119.4943 C   0  0  0  0  0  0  0  0  0  0  0  0
  192.1912  160.4761  118.1269 C   0  0  2  0  0  0  0  0  0  0  0  0
  193.6572  160.7100  118.0218 C   0  0  0  0  0  0  0  0  0  0  0  0
  192.0568  162.3277  116.4518 C   0  0  0  0  0  0  0  0  0  0  0  0
  193.0103  162.1849  115.6448 O   0  0  0  0  0  0  0  0  0  0  0  0
  191.6898  163.6549  116.7470 N   0  0  0  0  0  0  0  0  0  0  0  0
  190.5919  164.0082  117.5996 C   0  0  0  0  0  0  0  0  0  0  0  0
  189.3491  163.4297  117.4586 C   0  0  0  0  0  0  0  0  0  0  0  0
  188.3165  163.7948  118.2933 C   0  0  0  0  0  0  0  0  0  0  0  0
  188.5551  164.7444  119.2644 C   0  0  0  0  0  0  0  0  0  0  0  0
  189.7958  165.3267  119.4106 C   0  0  0  0  0  0  0  0  0  0  0  0
  190.8431  164.9590  118.5666 C   0  0  0  0  0  0  0  0  0  0  0  0
  192.1902  165.5807  118.7094 C   0  0  0  0  0  0  0  0  0  0  0  0
  192.1443  166.6952  119.5517 F   0  0  0  0  0  0  0  0  0  0  0  0
  193.0105  164.6652  119.3803 F   0  0  0  0  0  0  0  0  0  0  0  0
  192.7891  165.8714  117.5170 F   0  0  0  0  0  0  0  0  0  0  0  0
  186.9515  163.1868  118.1693 C   0  0  0  0  0  0  0  0  0  0  0  0
  185.9599  164.1435  118.3172 F   0  0  0  0  0  0  0  0  0  0  0  0
  186.8440  162.5048  116.9732 F   0  0  0  0  0  0  0  0  0  0  0  0
  186.7777  162.2692  119.1869 F   0  0  0  0  0  0  0  0  0  0  0  0
  1  2  1  0
  2  3  1  0
  4  3  1  6
  4  5  1  0
  5  6  1  6
  6  7  1  0
  8  7  1  6
  8  9  1  0
  9 10  1  0
 10 11  2  0
 10 12  1  0
 12 13  2  0
 13 14  1  0
 14 15  1  6
 14 16  1  0
 16 17  1  1
 17 18  1  0
 18 19  1  0
 19 20  1  1
  1 21  1  6
 21 22  2  0
 21 23  1  0
 23 24  1  0
 24 25  2  0
 25 26  1  0
 26 27  2  0
 27 28  1  0
 28 29  2  0
 29 30  1  0
 30 31  1  0
 30 32  1  0
 30 33  1  0
 26 34  1  0
 34 35  1  0
 34 36  1  0
 34 37  1  0
 19  1  1  0
 29 24  1  0
 19  4  1  0
 16  5  1  0
 14  8  1  0
M  END
$$$$
