
     RDKit          3D

 37 41  0  0  0  0  0  0  0  0999 V2000
  203.6227  136.0953  132.2509 C   0  0  1  0  0  0  0  0  0  0  0  0
  202.2106  135.5480  132.3156 C   0  0  0  0  0  0  0  0  0  0  0  0
  201.2901  136.7793  132.2864 C   0  0  0  0  0  0  0  0  0  0  0  0
  202.1157  137.7203  131.5129 C   0  0  1  0  0  0  0  0  0  0  0  0
  201.7488  139.1712  131.6006 C   0  0  2  0  0  0  0  0  0  0  0  0
  200.3134  139.4626  131.3919 C   0  0  0  0  0  0  0  0  0  0  0  0
  199.9281  140.2587  130.2138 C   0  0  0  0  0  0  0  0  0  0  0  0
  200.9529  141.1927  129.6521 C   0  0  1  0  0  0  0  0  0  0  0  0
  200.4577  142.5243  129.4283 N   0  0  0  0  0  0  0  0  0  0  0  0
  201.3822  143.3943  128.7504 C   0  0  0  0  0  0  0  0  0  0  0  0
  200.9962  144.3185  128.0066 O   0  0  0  0  0  0  0  0  0  0  0  0
  202.7814  143.1060  129.0071 C   0  0  0  0  0  0  0  0  0  0  0  0
  203.1834  142.1379  129.7951 C   0  0  0  0  0  0  0  0  0  0  0  0
  202.2090  141.2785  130.4776 C   0  0  1  0  0  0  0  0  0  0  0  0
  201.9337  141.9382  131.8253 C   0  0  0  0  0  0  0  0  0  0  0  0
  202.6931  139.8669  130.6436 C   0  0  1  0  0  0  0  0  0  0  0  0
  204.1053  139.7216  131.0777 C   0  0  0  0  0  0  0  0  0  0  0  0
  204.4550  138.2736  131.3085 C   0  0  0  0  0  0  0  0  0  0  0  0
  203.4809  137.5921  132.2082 C   0  0  2  0  0  0  0  0  0  0  0  0
  203.4864  138.2179  133.5585 C   0  0  0  0  0  0  0  0  0  0  0  0
  204.3637  135.5992  133.4337 C   0  0  0  0  0  0  0  0  0  0  0  0
  204.5576  136.3797  134.4000 O   0  0  0  0  0  0  0  0  0  0  0  0
  204.8831  134.2979  133.5758 N   0  0  0  0  0  0  0  0  0  0  0  0
  206.2802  134.0081  133.7216 C   0  0  0  0  0  0  0  0  0  0  0  0
  207.0718  134.6887  134.6212 C   0  0  0  0  0  0  0  0  0  0  0  0
  208.4105  134.3861  134.7331 C   0  0  0  0  0  0  0  0  0  0  0  0
  208.9339  133.3946  133.9302 C   0  0  0  0  0  0  0  0  0  0  0  0
  208.1476  132.7101  133.0285 C   0  0  0  0  0  0  0  0  0  0  0  0
  206.7917  133.0146  132.9131 C   0  0  0  0  0  0  0  0  0  0  0  0
  205.9277  132.2860  131.9414 C   0  0  0  0  0  0  0  0  0  0  0  0
  206.6837  131.4225  131.1435 F   0  0  0  0  0  0  0  0  0  0  0  0
  205.0847  131.4414  132.6743 F   0  0  0  0  0  0  0  0  0  0  0  0
  205.1352  133.1060  131.1902 F   0  0  0  0  0  0  0  0  0  0  0  0
  209.3020  135.1055  135.7005 C   0  0  0  0  0  0  0  0  0  0  0  0
  209.4197  134.4063  136.8912 F   0  0  0  0  0  0  0  0  0  0  0  0
  210.5294  135.3540  135.1181 F   0  0  0  0  0  0  0  0  0  0  0  0
  208.7339  136.3264  136.0075 F   0  0  0  0  0  0  0  0  0  0  0  0
  1  2  1  0
  2  3  1  0
  4  3  1  1
  4  5  1  0
  5  6  1  6
  6  7  1  0
  8  7  1  1
  8  9  1  0
  9 10  1  0
 10 11  2  0
 10 12  1  0
 12 13  2  0
 13 14  1  0
 14 15  1  1
 14 16  1  0
 16 17  1  1
 17 18  1  0
 18 19  1  0
 19 20  1  1
  1 21  1  1
 21 22  2  0
 21 23  1  0
 23 24  1  0
 24 25  2  0
 25 26  1  0
 26 27  2  0
 27 28  1  0
 28 29  2  0
 29 30  1  0
 30 31  1  0
 30 32  1  0
 30 33  1  0
 26 34  1  0
 34 35  1  0
 34 36  1  0
 34 37  1  0
 19  1  1  0
 29 24  1  0
 19  4  1  0
 16  5  1  0
 14  8  1  0
M  END
$$$$
