
     RDKit          3D

 37 41  0  0  0  0  0  0  0  0999 V2000
  203.7697  132.8599  137.0411 C   0  0  1  0  0  0  0  0  0  0  0  0
  202.3384  133.1714  137.4310 C   0  0  0  0  0  0  0  0  0  0  0  0
  201.9361  134.3886  136.5819 C   0  0  0  0  0  0  0  0  0  0  0  0
  202.7760  134.1821  135.3916 C   0  0  1  0  0  0  0  0  0  0  0  0
  202.9776  135.3651  134.4931 C   0  0  2  0  0  0  0  0  0  0  0  0
  201.7377  136.0825  134.1232 C   0  0  0  0  0  0  0  0  0  0  0  0
  201.3301  136.0853  132.7075 C   0  0  0  0  0  0  0  0  0  0  0  0
  202.4066  135.9102  131.6835 C   0  0  1  0  0  0  0  0  0  0  0  0
  202.3624  136.8864  130.6284 N   0  0  0  0  0  0  0  0  0  0  0  0
  203.2935  136.6448  129.5580 C   0  0  0  0  0  0  0  0  0  0  0  0
  203.0552  136.9914  128.3835 O   0  0  0  0  0  0  0  0  0  0  0  0
  204.5161  135.9743  129.9613 C   0  0  0  0  0  0  0  0  0  0  0  0
  204.7662  135.6175  131.1982 C   0  0  0  0  0  0  0  0  0  0  0  0
  203.7955  135.8914  132.2642 C   0  0  1  0  0  0  0  0  0  0  0  0
  204.1678  137.2561  132.8353 C   0  0  0  0  0  0  0  0  0  0  0  0
  203.7853  134.8326  133.3288 C   0  0  1  0  0  0  0  0  0  0  0  0
  205.1203  134.3569  133.7709 C   0  0  0  0  0  0  0  0  0  0  0  0
  204.9964  133.3730  134.9061 C   0  0  0  0  0  0  0  0  0  0  0  0
  204.1504  133.8943  136.0176 C   0  0  2  0  0  0  0  0  0  0  0  0
  204.7624  135.1113  136.6171 C   0  0  0  0  0  0  0  0  0  0  0  0
  204.6001  132.8989  138.2670 C   0  0  0  0  0  0  0  0  0  0  0  0
  204.8988  134.0150  138.7627 O   0  0  0  0  0  0  0  0  0  0  0  0
  205.0970  131.7684  138.9441 N   0  0  0  0  0  0  0  0  0  0  0  0
  204.3463  130.5621  139.1403 C   0  0  0  0  0  0  0  0  0  0  0  0
  204.1363  129.6642  138.1161 C   0  0  0  0  0  0  0  0  0  0  0  0
  203.4083  128.5170  138.3394 C   0  0  0  0  0  0  0  0  0  0  0  0
  202.8997  128.2913  139.6012 C   0  0  0  0  0  0  0  0  0  0  0  0
  203.1061  129.1853  140.6297 C   0  0  0  0  0  0  0  0  0  0  0  0
  203.8429  130.3480  140.4063 C   0  0  0  0  0  0  0  0  0  0  0  0
  204.0734  131.3266  141.5067 C   0  0  0  0  0  0  0  0  0  0  0  0
  203.8598  132.6368  141.0690 F   0  0  0  0  0  0  0  0  0  0  0  0
  203.0860  131.1136  142.4768 F   0  0  0  0  0  0  0  0  0  0  0  0
  205.2864  131.1883  142.1183 F   0  0  0  0  0  0  0  0  0  0  0  0
  203.1596  127.5177  137.2494 C   0  0  0  0  0  0  0  0  0  0  0  0
  202.4869  128.0936  136.1835 F   0  0  0  0  0  0  0  0  0  0  0  0
  204.3499  126.9347  136.8613 F   0  0  0  0  0  0  0  0  0  0  0  0
  202.3474  126.5145  137.7407 F   0  0  0  0  0  0  0  0  0  0  0  0
  1  2  1  0
  2  3  1  0
  4  3  1  1
  4  5  1  0
  5  6  1  6
  6  7  1  0
  8  7  1  1
  8  9  1  0
  9 10  1  0
 10 11  2  0
 10 12  1  0
 12 13  2  0
 13 14  1  0
 14 15  1  1
 14 16  1  0
 16 17  1  1
 17 18  1  0
 18 19  1  0
 19 20  1  1
  1 21  1  1
 21 22  2  0
 21 23  1  0
 23 24  1  0
 24 25  2  0
 25 26  1  0
 26 27  2  0
 27 28  1  0
 28 29  2  0
 29 30  1  0
 30 31  1  0
 30 32  1  0
 30 33  1  0
 26 34  1  0
 34 35  1  0
 34 36  1  0
 34 37  1  0
 19  1  1  0
 29 24  1  0
 19  4  1  0
 16  5  1  0
 14  8  1  0
M  END
$$$$
