
     RDKit          3D

 37 41  0  0  0  0  0  0  0  0999 V2000
  127.5555  147.2833  134.7182 C   0  0  1  0  0  0  0  0  0  0  0  0
  126.6830  147.2340  133.4797 C   0  0  0  0  0  0  0  0  0  0  0  0
  127.1753  146.0182  132.6774 C   0  0  0  0  0  0  0  0  0  0  0  0
  127.6672  145.1548  133.7625 C   0  0  1  0  0  0  0  0  0  0  0  0
  128.5922  144.0410  133.3735 C   0  0  2  0  0  0  0  0  0  0  0  0
  128.1270  143.2156  132.2371 C   0  0  0  0  0  0  0  0  0  0  0  0
  127.8149  141.7978  132.4874 C   0  0  0  0  0  0  0  0  0  0  0  0
  128.5066  141.1358  133.6368 C   0  0  1  0  0  0  0  0  0  0  0  0
  129.1096  139.8750  133.2977 N   0  0  0  0  0  0  0  0  0  0  0  0
  129.6480  139.1542  134.4209 C   0  0  0  0  0  0  0  0  0  0  0  0
  129.6904  137.9077  134.4477 O   0  0  0  0  0  0  0  0  0  0  0  0
  130.1311  139.9940  135.5017 C   0  0  0  0  0  0  0  0  0  0  0  0
  130.0910  141.3044  135.4672 C   0  0  0  0  0  0  0  0  0  0  0  0
  129.5441  142.0033  134.2983 C   0  0  1  0  0  0  0  0  0  0  0  0
  130.7241  142.2533  133.3643 C   0  0  0  0  0  0  0  0  0  0  0  0
  128.8459  143.2828  134.6589 C   0  0  1  0  0  0  0  0  0  0  0  0
  129.5419  144.1320  135.6580 C   0  0  0  0  0  0  0  0  0  0  0  0
  128.8074  145.4311  135.8707 C   0  0  0  0  0  0  0  0  0  0  0  0
  128.5173  146.1341  134.5883 C   0  0  2  0  0  0  0  0  0  0  0  0
  129.7810  146.5058  133.8956 C   0  0  0  0  0  0  0  0  0  0  0  0
  128.2130  148.6098  134.7661 C   0  0  0  0  0  0  0  0  0  0  0  0
  129.3970  148.6858  135.1819 O   0  0  0  0  0  0  0  0  0  0  0  0
  127.6147  149.8239  134.3771 N   0  0  0  0  0  0  0  0  0  0  0  0
  126.9393  150.7069  135.2835 C   0  0  0  0  0  0  0  0  0  0  0  0
  125.5773  150.6393  135.4817 C   0  0  0  0  0  0  0  0  0  0  0  0
  124.9612  151.5047  136.3579 C   0  0  0  0  0  0  0  0  0  0  0  0
  125.7339  152.4317  137.0253 C   0  0  0  0  0  0  0  0  0  0  0  0
  127.0966  152.5045  136.8313 C   0  0  0  0  0  0  0  0  0  0  0  0
  127.7230  151.6293  135.9447 C   0  0  0  0  0  0  0  0  0  0  0  0
  129.1952  151.6962  135.7213 C   0  0  0  0  0  0  0  0  0  0  0  0
  129.8114  150.4874  136.0575 F   0  0  0  0  0  0  0  0  0  0  0  0
  129.4091  151.8297  134.3438 F   0  0  0  0  0  0  0  0  0  0  0  0
  129.7952  152.7584  136.3348 F   0  0  0  0  0  0  0  0  0  0  0  0
  123.4819  151.4604  136.5988 C   0  0  0  0  0  0  0  0  0  0  0  0
  123.0752  150.1970  136.9974 F   0  0  0  0  0  0  0  0  0  0  0  0
  123.1210  152.4356  137.5077 F   0  0  0  0  0  0  0  0  0  0  0  0
  122.8285  151.7361  135.4136 F   0  0  0  0  0  0  0  0  0  0  0  0
  1  2  1  0
  2  3  1  0
  4  3  1  6
  4  5  1  0
  5  6  1  6
  6  7  1  0
  8  7  1  6
  8  9  1  0
  9 10  1  0
 10 11  2  0
 10 12  1  0
 12 13  2  0
 13 14  1  0
 14 15  1  6
 14 16  1  0
 16 17  1  1
 17 18  1  0
 18 19  1  0
 19 20  1  6
  1 21  1  6
 21 22  2  0
 21 23  1  0
 23 24  1  0
 24 25  2  0
 25 26  1  0
 26 27  2  0
 27 28  1  0
 28 29  2  0
 29 30  1  0
 30 31  1  0
 30 32  1  0
 30 33  1  0
 26 34  1  0
 34 35  1  0
 34 36  1  0
 34 37  1  0
 19  1  1  0
 29 24  1  0
 19  4  1  0
 16  5  1  0
 14  8  1  0
M  END
$$$$
