
     RDKit          3D

 37 41  0  0  0  0  0  0  0  0999 V2000
  192.5285  158.9768  117.5835 C   0  0  1  0  0  0  0  0  0  0  0  0
  192.6897  157.4852  117.3674 C   0  0  0  0  0  0  0  0  0  0  0  0
  191.9826  157.1835  116.0357 C   0  0  0  0  0  0  0  0  0  0  0  0
  192.1608  158.4647  115.3344 C   0  0  1  0  0  0  0  0  0  0  0  0
  191.2692  158.7203  114.1566 C   0  0  2  0  0  0  0  0  0  0  0  0
  191.1965  157.6111  113.1803 C   0  0  0  0  0  0  0  0  0  0  0  0
  191.7186  157.8427  111.8223 C   0  0  0  0  0  0  0  0  0  0  0  0
  191.7361  159.2537  111.3257 C   0  0  1  0  0  0  0  0  0  0  0  0
  191.1619  159.4109  110.0165 N   0  0  0  0  0  0  0  0  0  0  0  0
  191.3054  160.7307  109.4610 C   0  0  0  0  0  0  0  0  0  0  0  0
  191.3950  160.9245  108.2318 O   0  0  0  0  0  0  0  0  0  0  0  0
  191.3341  161.7992  110.4430 C   0  0  0  0  0  0  0  0  0  0  0  0
  191.2328  161.5924  111.7340 C   0  0  0  0  0  0  0  0  0  0  0  0
  191.0766  160.2317  112.2613 C   0  0  1  0  0  0  0  0  0  0  0  0
  189.5743  159.9802  112.3452 C   0  0  0  0  0  0  0  0  0  0  0  0
  191.7423  160.0436  113.5940 C   0  0  1  0  0  0  0  0  0  0  0  0
  191.5454  161.1458  114.5688 C   0  0  0  0  0  0  0  0  0  0  0  0
  192.1689  160.8102  115.8996 C   0  0  0  0  0  0  0  0  0  0  0  0
  191.7340  159.4781  116.4089 C   0  0  2  0  0  0  0  0  0  0  0  0
  190.2650  159.4611  116.6475 C   0  0  0  0  0  0  0  0  0  0  0  0
  191.8595  159.1836  118.8889 C   0  0  0  0  0  0  0  0  0  0  0  0
  190.6996  158.7280  119.0555 O   0  0  0  0  0  0  0  0  0  0  0  0
  192.4215  159.8619  119.9877 N   0  0  0  0  0  0  0  0  0  0  0  0
  191.8901  159.8026  121.3186 C   0  0  0  0  0  0  0  0  0  0  0  0
  192.0664  158.6961  122.1209 C   0  0  0  0  0  0  0  0  0  0  0  0
  191.5401  158.6723  123.3932 C   0  0  0  0  0  0  0  0  0  0  0  0
  190.8391  159.7727  123.8397 C   0  0  0  0  0  0  0  0  0  0  0  0
  190.6592  160.8824  123.0422 C   0  0  0  0  0  0  0  0  0  0  0  0
  191.1911  160.9091  121.7535 C   0  0  0  0  0  0  0  0  0  0  0  0
  191.0037  162.1000  120.8770 C   0  0  0  0  0  0  0  0  0  0  0  0
  190.2154  161.7887  119.7654 F   0  0  0  0  0  0  0  0  0  0  0  0
  190.2494  163.0382  121.5925 F   0  0  0  0  0  0  0  0  0  0  0  0
  192.1737  162.7039  120.5149 F   0  0  0  0  0  0  0  0  0  0  0  0
  191.7118  157.4861  124.2941 C   0  0  0  0  0  0  0  0  0  0  0  0
  191.5806  157.8436  125.6266 F   0  0  0  0  0  0  0  0  0  0  0  0
  190.8302  156.4861  123.9332 F   0  0  0  0  0  0  0  0  0  0  0  0
  192.9904  156.9881  124.1371 F   0  0  0  0  0  0  0  0  0  0  0  0
  1  2  1  0
  2  3  1  0
  4  3  1  1
  4  5  1  0
  5  6  1  6
  6  7  1  0
  8  7  1  1
  8  9  1  0
  9 10  1  0
 10 11  2  0
 10 12  1  0
 12 13  2  0
 13 14  1  0
 14 15  1  1
 14 16  1  0
 16 17  1  1
 17 18  1  0
 18 19  1  0
 19 20  1  1
  1 21  1  1
 21 22  2  0
 21 23  1  0
 23 24  1  0
 24 25  2  0
 25 26  1  0
 26 27  2  0
 27 28  1  0
 28 29  2  0
 29 30  1  0
 30 31  1  0
 30 32  1  0
 30 33  1  0
 26 34  1  0
 34 35  1  0
 34 36  1  0
 34 37  1  0
 19  1  1  0
 29 24  1  0
 19  4  1  0
 16  5  1  0
 14  8  1  0
M  END
$$$$
