
     RDKit          3D

 37 41  0  0  0  0  0  0  0  0999 V2000
  147.8825  166.9122  133.3465 C   0  0  1  0  0  0  0  0  0  0  0  0
  148.7664  166.2340  132.3188 C   0  0  0  0  0  0  0  0  0  0  0  0
  149.6287  167.3543  131.7140 C   0  0  0  0  0  0  0  0  0  0  0  0
  149.7069  168.2843  132.8516 C   0  0  1  0  0  0  0  0  0  0  0  0
  150.1262  169.6910  132.5470 C   0  0  2  0  0  0  0  0  0  0  0  0
  151.3389  169.8098  131.7079 C   0  0  0  0  0  0  0  0  0  0  0  0
  152.5378  170.4286  132.2994 C   0  0  0  0  0  0  0  0  0  0  0  0
  152.3279  171.3953  133.4217 C   0  0  1  0  0  0  0  0  0  0  0  0
  153.0338  172.6368  133.2524 N   0  0  0  0  0  0  0  0  0  0  0  0
  152.9654  173.5172  134.3887 C   0  0  0  0  0  0  0  0  0  0  0  0
  153.8874  174.3102  134.6671 O   0  0  0  0  0  0  0  0  0  0  0  0
  151.7463  173.4031  135.1683 C   0  0  0  0  0  0  0  0  0  0  0  0
  150.7762  172.5732  134.8687 C   0  0  0  0  0  0  0  0  0  0  0  0
  150.8787  171.6987  133.6945 C   0  0  1  0  0  0  0  0  0  0  0  0
  150.2541  172.4703  132.5362 C   0  0  0  0  0  0  0  0  0  0  0  0
  150.2083  170.3705  133.8972 C   0  0  1  0  0  0  0  0  0  0  0  0
  148.8801  170.4186  134.5588 C   0  0  0  0  0  0  0  0  0  0  0  0
  148.2560  169.0479  134.6215 C   0  0  0  0  0  0  0  0  0  0  0  0
  148.2367  168.3730  133.2922 C   0  0  2  0  0  0  0  0  0  0  0  0
  147.4043  169.1401  132.3259 C   0  0  0  0  0  0  0  0  0  0  0  0
  146.4708  166.6267  133.0002 C   0  0  0  0  0  0  0  0  0  0  0  0
  145.6863  167.5900  132.8072 O   0  0  0  0  0  0  0  0  0  0  0  0
  145.9154  165.3397  132.8640 N   0  0  0  0  0  0  0  0  0  0  0  0
  145.9912  164.5611  131.6618 C   0  0  0  0  0  0  0  0  0  0  0  0
  145.9413  165.1459  130.4150 C   0  0  0  0  0  0  0  0  0  0  0  0
  146.0142  164.3673  129.2816 C   0  0  0  0  0  0  0  0  0  0  0  0
  146.1373  163.0013  129.4242 C   0  0  0  0  0  0  0  0  0  0  0  0
  146.1878  162.4102  130.6683 C   0  0  0  0  0  0  0  0  0  0  0  0
  146.1141  163.1963  131.8178 C   0  0  0  0  0  0  0  0  0  0  0  0
  146.1646  162.5732  133.1708 C   0  0  0  0  0  0  0  0  0  0  0  0
  147.0674  163.2436  134.0011 F   0  0  0  0  0  0  0  0  0  0  0  0
  144.9167  162.7704  133.7749 F   0  0  0  0  0  0  0  0  0  0  0  0
  146.4012  161.2285  133.1468 F   0  0  0  0  0  0  0  0  0  0  0  0
  145.9630  164.9686  127.9089 C   0  0  0  0  0  0  0  0  0  0  0  0
  145.0840  166.0389  127.8614 F   0  0  0  0  0  0  0  0  0  0  0  0
  147.2342  165.3188  127.4979 F   0  0  0  0  0  0  0  0  0  0  0  0
  145.4877  164.0205  127.0241 F   0  0  0  0  0  0  0  0  0  0  0  0
  1  2  1  0
  2  3  1  0
  4  3  1  6
  4  5  1  0
  5  6  1  1
  6  7  1  0
  8  7  1  6
  8  9  1  0
  9 10  1  0
 10 11  2  0
 10 12  1  0
 12 13  2  0
 13 14  1  0
 14 15  1  6
 14 16  1  0
 16 17  1  6
 17 18  1  0
 18 19  1  0
 19 20  1  6
  1 21  1  6
 21 22  2  0
 21 23  1  0
 23 24  1  0
 24 25  2  0
 25 26  1  0
 26 27  2  0
 27 28  1  0
 28 29  2  0
 29 30  1  0
 30 31  1  0
 30 32  1  0
 30 33  1  0
 26 34  1  0
 34 35  1  0
 34 36  1  0
 34 37  1  0
 19  1  1  0
 29 24  1  0
 19  4  1  0
 16  5  1  0
 14  8  1  0
M  END
$$$$
