
     RDKit          3D

 37 41  0  0  0  0  0  0  0  0999 V2000
  113.5257  166.6230  142.0997 C   0  0  1  0  0  0  0  0  0  0  0  0
  113.2369  166.0177  140.7404 C   0  0  0  0  0  0  0  0  0  0  0  0
  114.5969  165.5407  140.2048 C   0  0  0  0  0  0  0  0  0  0  0  0
  115.2967  165.2391  141.4636 C   0  0  1  0  0  0  0  0  0  0  0  0
  116.7899  165.1246  141.3961 C   0  0  2  0  0  0  0  0  0  0  0  0
  117.2979  164.2572  140.3106 C   0  0  0  0  0  0  0  0  0  0  0  0
  118.0194  163.0273  140.6812 C   0  0  0  0  0  0  0  0  0  0  0  0
  118.7007  163.0067  142.0129 C   0  0  1  0  0  0  0  0  0  0  0  0
  120.0660  162.5586  141.9547 N   0  0  0  0  0  0  0  0  0  0  0  0
  120.6895  162.3889  143.2406 C   0  0  0  0  0  0  0  0  0  0  0  0
  121.5823  161.5396  143.4356 O   0  0  0  0  0  0  0  0  0  0  0  0
  120.1957  163.2814  144.2733 C   0  0  0  0  0  0  0  0  0  0  0  0
  119.2618  164.1777  144.0630 C   0  0  0  0  0  0  0  0  0  0  0  0
  118.6578  164.3277  142.7339 C   0  0  1  0  0  0  0  0  0  0  0  0
  119.4930  165.3758  142.0052 C   0  0  0  0  0  0  0  0  0  0  0  0
  117.2098  164.7206  142.7933 C   0  0  1  0  0  0  0  0  0  0  0  0
  116.8727  165.7737  143.7838 C   0  0  0  0  0  0  0  0  0  0  0  0
  115.4188  166.1606  143.6899 C   0  0  0  0  0  0  0  0  0  0  0  0
  115.0118  166.4997  142.2962 C   0  0  2  0  0  0  0  0  0  0  0  0
  115.7663  167.6836  141.8022 C   0  0  0  0  0  0  0  0  0  0  0  0
  113.0381  168.0217  142.0943 C   0  0  0  0  0  0  0  0  0  0  0  0
  113.4061  168.7893  141.1691 O   0  0  0  0  0  0  0  0  0  0  0  0
  112.1769  168.5821  143.0574 N   0  0  0  0  0  0  0  0  0  0  0  0
  110.8879  169.1318  142.7516 C   0  0  0  0  0  0  0  0  0  0  0  0
  110.5063  169.4082  141.4566 C   0  0  0  0  0  0  0  0  0  0  0  0
  109.2616  169.9382  141.1996 C   0  0  0  0  0  0  0  0  0  0  0  0
  108.4150  170.1831  142.2603 C   0  0  0  0  0  0  0  0  0  0  0  0
  108.7907  169.9090  143.5578 C   0  0  0  0  0  0  0  0  0  0  0  0
  110.0506  169.3722  143.8209 C   0  0  0  0  0  0  0  0  0  0  0  0
  110.4737  169.0723  145.2182 C   0  0  0  0  0  0  0  0  0  0  0  0
  110.9143  167.7512  145.3389 F   0  0  0  0  0  0  0  0  0  0  0  0
  111.6066  169.8483  145.4936 F   0  0  0  0  0  0  0  0  0  0  0  0
  109.5287  169.3786  146.1550 F   0  0  0  0  0  0  0  0  0  0  0  0
  108.8123  170.2515  139.8038 C   0  0  0  0  0  0  0  0  0  0  0  0
  107.5068  169.8381  139.5912 F   0  0  0  0  0  0  0  0  0  0  0  0
  108.9825  171.5970  139.5427 F   0  0  0  0  0  0  0  0  0  0  0  0
  109.6037  169.5530  138.9131 F   0  0  0  0  0  0  0  0  0  0  0  0
  1  2  1  0
  2  3  1  0
  4  3  1  6
  4  5  1  0
  5  6  1  6
  6  7  1  0
  8  7  1  6
  8  9  1  0
  9 10  1  0
 10 11  2  0
 10 12  1  0
 12 13  2  0
 13 14  1  0
 14 15  1  6
 14 16  1  0
 16 17  1  1
 17 18  1  0
 18 19  1  0
 19 20  1  6
  1 21  1  6
 21 22  2  0
 21 23  1  0
 23 24  1  0
 24 25  2  0
 25 26  1  0
 26 27  2  0
 27 28  1  0
 28 29  2  0
 29 30  1  0
 30 31  1  0
 30 32  1  0
 30 33  1  0
 26 34  1  0
 34 35  1  0
 34 36  1  0
 34 37  1  0
 19  1  1  0
 29 24  1  0
 19  4  1  0
 16  5  1  0
 14  8  1  0
M  END
$$$$
