
     RDKit          3D

 37 41  0  0  0  0  0  0  0  0999 V2000
  186.7737  162.6725  139.1254 C   0  0  1  0  0  0  0  0  0  0  0  0
  186.3010  161.3263  138.6139 C   0  0  0  0  0  0  0  0  0  0  0  0
  185.1190  160.9351  139.5161 C   0  0  0  0  0  0  0  0  0  0  0  0
  184.6019  162.2633  139.8816 C   0  0  1  0  0  0  0  0  0  0  0  0
  183.6934  162.3308  141.0722 C   0  0  2  0  0  0  0  0  0  0  0  0
  182.5955  161.3391  141.0727 C   0  0  0  0  0  0  0  0  0  0  0  0
  181.2101  161.8331  140.9897 C   0  0  0  0  0  0  0  0  0  0  0  0
  180.9446  163.2179  141.4897 C   0  0  1  0  0  0  0  0  0  0  0  0
  179.8270  163.3007  142.3909 N   0  0  0  0  0  0  0  0  0  0  0  0
  179.4639  164.6425  142.7632 C   0  0  0  0  0  0  0  0  0  0  0  0
  178.2886  164.9571  143.0389 O   0  0  0  0  0  0  0  0  0  0  0  0
  180.5703  165.5817  142.7907 C   0  0  0  0  0  0  0  0  0  0  0  0
  181.8058  165.2459  142.5069 C   0  0  0  0  0  0  0  0  0  0  0  0
  182.1380  163.8637  142.1420 C   0  0  1  0  0  0  0  0  0  0  0  0
  182.4982  163.1569  143.4450 C   0  0  0  0  0  0  0  0  0  0  0  0
  183.2543  163.7778  141.1414 C   0  0  1  0  0  0  0  0  0  0  0  0
  184.4067  164.6802  141.3895 C   0  0  0  0  0  0  0  0  0  0  0  0
  185.5073  164.4416  140.3874 C   0  0  0  0  0  0  0  0  0  0  0  0
  185.8855  163.0024  140.2935 C   0  0  2  0  0  0  0  0  0  0  0  0
  186.4241  162.5152  141.5925 C   0  0  0  0  0  0  0  0  0  0  0  0
  188.2070  162.5532  139.4800 C   0  0  0  0  0  0  0  0  0  0  0  0
  188.5813  162.9144  140.6246 O   0  0  0  0  0  0  0  0  0  0  0  0
  189.2130  162.0584  138.6276 N   0  0  0  0  0  0  0  0  0  0  0  0
  189.0180  161.7975  137.2308 C   0  0  0  0  0  0  0  0  0  0  0  0
  188.3996  160.6487  136.7872 C   0  0  0  0  0  0  0  0  0  0  0  0
  188.2314  160.4295  135.4382 C   0  0  0  0  0  0  0  0  0  0  0  0
  188.6928  161.3791  134.5511 C   0  0  0  0  0  0  0  0  0  0  0  0
  189.3122  162.5301  134.9883 C   0  0  0  0  0  0  0  0  0  0  0  0
  189.4839  162.7547  136.3539 C   0  0  0  0  0  0  0  0  0  0  0  0
  190.1538  163.9928  136.8436 C   0  0  0  0  0  0  0  0  0  0  0  0
  189.3641  165.1212  136.6053 F   0  0  0  0  0  0  0  0  0  0  0  0
  190.2345  163.9072  138.2391 F   0  0  0  0  0  0  0  0  0  0  0  0
  191.4237  164.1537  136.3680 F   0  0  0  0  0  0  0  0  0  0  0  0
  187.5633  159.1914  134.9191 C   0  0  0  0  0  0  0  0  0  0  0  0
  187.8506  158.9897  133.5786 F   0  0  0  0  0  0  0  0  0  0  0  0
  187.9115  158.1044  135.6966 F   0  0  0  0  0  0  0  0  0  0  0  0
  186.1946  159.3491  135.0161 F   0  0  0  0  0  0  0  0  0  0  0  0
  1  2  1  0
  2  3  1  0
  4  3  1  1
  4  5  1  0
  5  6  1  6
  6  7  1  0
  8  7  1  1
  8  9  1  0
  9 10  1  0
 10 11  2  0
 10 12  1  0
 12 13  2  0
 13 14  1  0
 14 15  1  1
 14 16  1  0
 16 17  1  1
 17 18  1  0
 18 19  1  0
 19 20  1  1
  1 21  1  1
 21 22  2  0
 21 23  1  0
 23 24  1  0
 24 25  2  0
 25 26  1  0
 26 27  2  0
 27 28  1  0
 28 29  2  0
 29 30  1  0
 30 31  1  0
 30 32  1  0
 30 33  1  0
 26 34  1  0
 34 35  1  0
 34 36  1  0
 34 37  1  0
 19  1  1  0
 29 24  1  0
 19  4  1  0
 16  5  1  0
 14  8  1  0
M  END
$$$$
