
     RDKit          3D

 37 41  0  0  0  0  0  0  0  0999 V2000
  189.9671  159.2188  113.6364 C   0  0  1  0  0  0  0  0  0  0  0  0
  190.5321  157.9748  112.9800 C   0  0  0  0  0  0  0  0  0  0  0  0
  191.7853  157.6128  113.7942 C   0  0  0  0  0  0  0  0  0  0  0  0
  191.4127  158.1364  115.1179 C   0  0  1  0  0  0  0  0  0  0  0  0
  192.5252  158.3399  116.1019 C   0  0  2  0  0  0  0  0  0  0  0  0
  193.4423  157.1883  116.2494 C   0  0  0  0  0  0  0  0  0  0  0  0
  193.4906  156.4981  117.5500 C   0  0  0  0  0  0  0  0  0  0  0  0
  193.1105  157.2897  118.7611 C   0  0  1  0  0  0  0  0  0  0  0  0
  194.0598  157.1888  119.8367 N   0  0  0  0  0  0  0  0  0  0  0  0
  193.6390  157.8196  121.0599 C   0  0  0  0  0  0  0  0  0  0  0  0
  194.0004  157.4009  122.1781 O   0  0  0  0  0  0  0  0  0  0  0  0
  192.7717  158.9694  120.8788 C   0  0  0  0  0  0  0  0  0  0  0  0
  192.3993  159.4109  119.7014 C   0  0  0  0  0  0  0  0  0  0  0  0
  192.8589  158.7464  118.4762 C   0  0  1  0  0  0  0  0  0  0  0  0
  194.1472  159.4544  118.0686 C   0  0  0  0  0  0  0  0  0  0  0  0
  191.8380  158.7832  117.3757 C   0  0  1  0  0  0  0  0  0  0  0  0
  191.1435  160.0821  117.1903 C   0  0  0  0  0  0  0  0  0  0  0  0
  190.2176  160.0367  116.0016 C   0  0  0  0  0  0  0  0  0  0  0  0
  190.8996  159.5435  114.7710 C   0  0  2  0  0  0  0  0  0  0  0  0
  192.0010  160.4634  114.3765 C   0  0  0  0  0  0  0  0  0  0  0  0
  189.8822  160.2832  112.6098 C   0  0  0  0  0  0  0  0  0  0  0  0
  190.2823  161.4393  112.8995 O   0  0  0  0  0  0  0  0  0  0  0  0
  189.3807  160.1110  111.3051 N   0  0  0  0  0  0  0  0  0  0  0  0
  189.8634  160.8323  110.1632 C   0  0  0  0  0  0  0  0  0  0  0  0
  190.7374  160.2630  109.2625 C   0  0  0  0  0  0  0  0  0  0  0  0
  191.1826  160.9858  108.1783 C   0  0  0  0  0  0  0  0  0  0  0  0
  190.7364  162.2807  108.0181 C   0  0  0  0  0  0  0  0  0  0  0  0
  189.8623  162.8558  108.9153 C   0  0  0  0  0  0  0  0  0  0  0  0
  189.4098  162.1262  110.0142 C   0  0  0  0  0  0  0  0  0  0  0  0
  188.4666  162.7337  110.9954 C   0  0  0  0  0  0  0  0  0  0  0  0
  187.5304  161.7964  111.4414 F   0  0  0  0  0  0  0  0  0  0  0  0
  189.2024  163.0686  112.1389 F   0  0  0  0  0  0  0  0  0  0  0  0
  187.8661  163.8744  110.5448 F   0  0  0  0  0  0  0  0  0  0  0  0
  192.1335  160.3994  107.1781 C   0  0  0  0  0  0  0  0  0  0  0  0
  193.1686  161.2762  106.8946 F   0  0  0  0  0  0  0  0  0  0  0  0
  192.5936  159.1757  107.6234 F   0  0  0  0  0  0  0  0  0  0  0  0
  191.4571  160.1821  105.9937 F   0  0  0  0  0  0  0  0  0  0  0  0
  1  2  1  0
  2  3  1  0
  4  3  1  6
  4  5  1  0
  5  6  1  1
  6  7  1  0
  8  7  1  6
  8  9  1  0
  9 10  1  0
 10 11  2  0
 10 12  1  0
 12 13  2  0
 13 14  1  0
 14 15  1  6
 14 16  1  0
 16 17  1  6
 17 18  1  0
 18 19  1  0
 19 20  1  6
  1 21  1  6
 21 22  2  0
 21 23  1  0
 23 24  1  0
 24 25  2  0
 25 26  1  0
 26 27  2  0
 27 28  1  0
 28 29  2  0
 29 30  1  0
 30 31  1  0
 30 32  1  0
 30 33  1  0
 26 34  1  0
 34 35  1  0
 34 36  1  0
 34 37  1  0
 19  1  1  0
 29 24  1  0
 19  4  1  0
 16  5  1  0
 14  8  1  0
M  END
$$$$
