
     RDKit          3D

 37 41  0  0  0  0  0  0  0  0999 V2000
  189.3572  159.7693  130.2228 C   0  0  1  0  0  0  0  0  0  0  0  0
  189.1697  161.1733  130.7625 C   0  0  0  0  0  0  0  0  0  0  0  0
  187.9618  161.0919  131.7106 C   0  0  0  0  0  0  0  0  0  0  0  0
  188.0660  159.6973  132.1680 C   0  0  1  0  0  0  0  0  0  0  0  0
  186.8439  159.0993  132.7976 C   0  0  2  0  0  0  0  0  0  0  0  0
  186.2136  159.9330  133.8448 C   0  0  0  0  0  0  0  0  0  0  0  0
  186.1989  159.4227  135.2267 C   0  0  0  0  0  0  0  0  0  0  0  0
  186.2585  157.9393  135.4108 C   0  0  1  0  0  0  0  0  0  0  0  0
  185.2567  157.4293  136.3077 N   0  0  0  0  0  0  0  0  0  0  0  0
  185.3924  156.0296  136.6137 C   0  0  0  0  0  0  0  0  0  0  0  0
  185.0294  155.5540  137.7084 O   0  0  0  0  0  0  0  0  0  0  0  0
  185.9782  155.2334  135.5508 C   0  0  0  0  0  0  0  0  0  0  0  0
  186.3524  155.7357  134.3987 C   0  0  0  0  0  0  0  0  0  0  0  0
  186.1874  157.1671  134.1203 C   0  0  1  0  0  0  0  0  0  0  0  0
  184.8162  157.3163  133.4686 C   0  0  0  0  0  0  0  0  0  0  0  0
  187.2761  157.7197  133.2462 C   0  0  1  0  0  0  0  0  0  0  0  0
  187.6603  156.8719  132.0896 C   0  0  0  0  0  0  0  0  0  0  0  0
  188.6853  157.5636  131.2275 C   0  0  0  0  0  0  0  0  0  0  0  0
  188.2655  158.9418  130.8439 C   0  0  2  0  0  0  0  0  0  0  0  0
  187.0238  158.9036  130.0244 C   0  0  0  0  0  0  0  0  0  0  0  0
  189.2917  159.8316  128.7443 C   0  0  0  0  0  0  0  0  0  0  0  0
  188.8689  158.8301  128.1127 O   0  0  0  0  0  0  0  0  0  0  0  0
  189.6701  160.9409  127.9635 N   0  0  0  0  0  0  0  0  0  0  0  0
  190.9114  161.6417  128.1218 C   0  0  0  0  0  0  0  0  0  0  0  0
  191.2847  162.1916  129.3291 C   0  0  0  0  0  0  0  0  0  0  0  0
  192.4830  162.8602  129.4445 C   0  0  0  0  0  0  0  0  0  0  0  0
  193.2920  162.9647  128.3326 C   0  0  0  0  0  0  0  0  0  0  0  0
  192.9244  162.4170  127.1223 C   0  0  0  0  0  0  0  0  0  0  0  0
  191.7115  161.7394  127.0026 C   0  0  0  0  0  0  0  0  0  0  0  0
  191.2975  161.1435  125.7007 C   0  0  0  0  0  0  0  0  0  0  0  0
  190.1344  160.3812  125.8424 F   0  0  0  0  0  0  0  0  0  0  0  0
  190.9290  162.1945  124.8518 F   0  0  0  0  0  0  0  0  0  0  0  0
  192.2901  160.4418  125.0786 F   0  0  0  0  0  0  0  0  0  0  0  0
  192.9218  163.4711  130.7416 C   0  0  0  0  0  0  0  0  0  0  0  0
  191.8743  163.5360  131.6465 F   0  0  0  0  0  0  0  0  0  0  0  0
  194.0058  162.7807  131.2471 F   0  0  0  0  0  0  0  0  0  0  0  0
  193.3300  164.7697  130.5076 F   0  0  0  0  0  0  0  0  0  0  0  0
  1  2  1  0
  2  3  1  0
  4  3  1  6
  4  5  1  0
  5  6  1  1
  6  7  1  0
  8  7  1  6
  8  9  1  0
  9 10  1  0
 10 11  2  0
 10 12  1  0
 12 13  2  0
 13 14  1  0
 14 15  1  6
 14 16  1  0
 16 17  1  6
 17 18  1  0
 18 19  1  0
 19 20  1  6
  1 21  1  6
 21 22  2  0
 21 23  1  0
 23 24  1  0
 24 25  2  0
 25 26  1  0
 26 27  2  0
 27 28  1  0
 28 29  2  0
 29 30  1  0
 30 31  1  0
 30 32  1  0
 30 33  1  0
 26 34  1  0
 34 35  1  0
 34 36  1  0
 34 37  1  0
 19  1  1  0
 29 24  1  0
 19  4  1  0
 16  5  1  0
 14  8  1  0
M  END
$$$$
