REMARK  Name = 
REMARK  4 active torsions:
REMARK  status: ('A' for Active; 'I' for Inactive)
REMARK    1  A    between atoms: C_2  and  C_3
REMARK    2  A    between atoms: C_4  and  N_5
REMARK    3  A    between atoms: C_6  and  C_8
REMARK    4  A    between atoms: N_22  and  C_23
REMARK                            x       y       z     vdW  Elec       q    Type
REMARK                         _______ _______ _______ _____ _____    ______ ____
ROOT
ATOM      1  N   UNL     1       3.815   2.387  -0.220  0.00  0.00    +0.000 N 
ATOM      2  C   UNL     1       4.441   3.638  -0.245  0.00  0.00    +0.000 C 
ATOM      3  O   UNL     1       5.646   3.838  -0.114  0.00  0.00    +0.000 OA
ATOM      4  H   UNL     1       2.807   2.418  -0.350  0.00  0.00    +0.000 HD
ENDROOT
BRANCH   2   5
ATOM      5  C   UNL     1       3.523   4.827  -0.421  0.00  0.00    +0.000 A 
ATOM      6  C   UNL     1       4.094   6.045  -0.419  0.00  0.00    +0.000 A 
ATOM      7  C   UNL     1       3.249   7.248  -0.467  0.00  0.00    +0.000 A 
ATOM      8  O   UNL     1       3.735   8.368  -0.525  0.00  0.00    +0.000 OA
ATOM      9  C   UNL     1       1.801   7.022  -0.395  0.00  0.00    +0.000 A 
ATOM     10  C   UNL     1       0.920   8.095  -0.223  0.00  0.00    +0.000 A 
ATOM     11  C   UNL     1      -0.440   7.832  -0.141  0.00  0.00    +0.000 A 
ATOM     12  F   UNL     1      -1.295   8.839   0.075  0.00  0.00    +0.000 F 
ATOM     13  C   UNL     1      -0.928   6.533  -0.259  0.00  0.00    +0.000 A 
ATOM     14  C   UNL     1      -0.041   5.468  -0.435  0.00  0.00    +0.000 A 
ATOM     15  C   UNL     1       1.327   5.705  -0.471  0.00  0.00    +0.000 A 
ATOM     16  O   UNL     1       2.159   4.611  -0.545  0.00  0.00    +0.000 OA
ENDBRANCH   2   5
BRANCH   1  18
ATOM     17  C   UNL     1       3.723  -0.057  -0.059  0.00  0.00    +0.000 A 
ATOM     18  C   UNL     1       4.416   1.118  -0.076  0.00  0.00    +0.000 A 
ATOM     19  C   UNL     1       5.857   1.027   0.077  0.00  0.00    +0.000 A 
ATOM     20  C   UNL     1       6.484  -0.149   0.123  0.00  0.00    +0.000 A 
ATOM     21  N   UNL     1       5.801  -1.348   0.067  0.00  0.00    +0.000 N 
ATOM     22  C   UNL     1       4.398  -1.382   0.007  0.00  0.00    +0.000 A 
ATOM     23  O   UNL     1       3.709  -2.398  -0.059  0.00  0.00    +0.000 OA
BRANCH  21  24
ATOM     24  C   UNL     1       6.517  -2.578  -0.013  0.00  0.00    +0.000 A 
ATOM     25  C   UNL     1       7.577  -2.704  -0.921  0.00  0.00    +0.000 A 
ATOM     26  C   UNL     1       8.211  -3.933  -1.091  0.00  0.00    +0.000 A 
ATOM     27  C   UNL     1       7.822  -5.028  -0.322  0.00  0.00    +0.000 A 
ATOM     28  C   UNL     1       6.802  -4.897   0.618  0.00  0.00    +0.000 A 
ATOM     29  C   UNL     1       6.143  -3.678   0.766  0.00  0.00    +0.000 A 
ENDBRANCH  21  24
BRANCH  17  31
ATOM     30  N   UNL     1       0.942  -0.057  -0.059  0.00  0.00    +0.000 NA
ATOM     31  C   UNL     1       2.203  -0.057  -0.059  0.00  0.00    +0.000 C 
ENDBRANCH  17  31
ENDBRANCH   1  18
TORSDOF 4
