REMARK  Name = 
REMARK  6 active torsions:
REMARK  status: ('A' for Active; 'I' for Inactive)
REMARK    1  A    between atoms: C_2  and  C_16
REMARK    2  A    between atoms: N_3  and  C_4
REMARK    3  A    between atoms: C_7  and  C_8
REMARK    4  A    between atoms: C_19  and  C_20
REMARK    5  A    between atoms: C_20  and  C_22
REMARK    6  A    between atoms: C_24  and  O_25
REMARK                            x       y       z     vdW  Elec       q    Type
REMARK                         _______ _______ _______ _____ _____    ______ ____
ROOT
ATOM      1  O   UNL     1       1.040   0.067  -0.006  0.00  0.00    +0.000 OA
ATOM      2  C   UNL     1       2.255  -0.100  -0.000  0.00  0.00    +0.000 C 
ATOM      3  N   UNL     1       2.943  -1.151   0.586  0.00  0.00    +0.000 N 
ATOM      4  H   UNL     1       3.945  -1.060   0.695  0.00  0.00    +0.000 HD
ENDROOT
BRANCH   2   5
ATOM      5  C   UNL     1       3.069   0.957  -0.646  0.00  0.00    +0.000 A 
ATOM      6  C   UNL     1       2.589   2.273  -0.582  0.00  0.00    +0.000 A 
ATOM      7  C   UNL     1       3.224   3.292  -1.290  0.00  0.00    +0.000 A 
ATOM      8  C   UNL     1       4.341   2.999  -2.077  0.00  0.00    +0.000 A 
ATOM      9  C   UNL     1       4.859   1.694  -2.091  0.00  0.00    +0.000 A 
ATOM     10  C   UNL     1       4.213   0.666  -1.394  0.00  0.00    +0.000 A 
BRANCH   8  11
ATOM     11  C   UNL     1       4.933   4.098  -2.888  0.00  0.00    +0.000 C 
ATOM     12  O   UNL     1       4.841   5.256  -2.490  0.00  0.00    +0.000 OA
BRANCH  11  13
ATOM     13  C   UNL     1       5.634   3.824  -4.170  0.00  0.00    +0.000 A 
ATOM     14  C   UNL     1       5.249   2.769  -5.009  0.00  0.00    +0.000 A 
ATOM     15  C   UNL     1       5.994   2.501  -6.152  0.00  0.00    +0.000 A 
ATOM     16  C   UNL     1       7.080   3.297  -6.498  0.00  0.00    +0.000 A 
ATOM     17  C   UNL     1       7.426   4.385  -5.697  0.00  0.00    +0.000 A 
ATOM     18  C   UNL     1       6.704   4.650  -4.533  0.00  0.00    +0.000 A 
BRANCH  15  19
ATOM     19  O   UNL     1       5.696   1.446  -6.962  0.00  0.00    +0.000 OA
ATOM     20  H   UNL     1       4.912   0.987  -6.617  0.00  0.00    +0.000 HD
ENDBRANCH  15  19
ENDBRANCH  11  13
ENDBRANCH   8  11
ENDBRANCH   2   5
BRANCH   3  21
ATOM     21  C   UNL     1       2.325  -2.239   1.244  0.00  0.00    +0.000 A 
ATOM     22  C   UNL     1       0.972  -2.542   1.087  0.00  0.00    +0.000 A 
ATOM     23  C   UNL     1       0.375  -3.574   1.810  0.00  0.00    +0.000 A 
ATOM     24  C   UNL     1       1.120  -4.347   2.706  0.00  0.00    +0.000 A 
ATOM     25  C   UNL     1       2.490  -4.074   2.834  0.00  0.00    +0.000 A 
ATOM     26  C   UNL     1       3.091  -3.037   2.100  0.00  0.00    +0.000 A 
BRANCH  24  27
ATOM     27  C   UNL     1       0.448  -5.374   3.501  0.00  0.00    +0.000 A 
ATOM     28  C   UNL     1      -0.633  -6.108   3.180  0.00  0.00    +0.000 A 
ATOM     29  N   UNL     1      -0.960  -6.904   4.246  0.00  0.00    +0.000 N 
ATOM     30  C   UNL     1      -0.060  -6.666   5.291  0.00  0.00    +0.000 A 
ATOM     31  O   UNL     1      -0.056  -7.170   6.398  0.00  0.00    +0.000 OA
ATOM     32  N   UNL     1       0.823  -5.708   4.781  0.00  0.00    +0.000 N 
ATOM     33  H   UNL     1      -1.739  -7.541   4.315  0.00  0.00    +0.000 HD
ATOM     34  H   UNL     1       1.562  -5.294   5.323  0.00  0.00    +0.000 HD
ENDBRANCH  24  27
ENDBRANCH   3  21
TORSDOF 6
