REMARK  Name = 
REMARK  6 active torsions:
REMARK  status: ('A' for Active; 'I' for Inactive)
REMARK    1  A    between atoms: C_2  and  C_3
REMARK    2  A    between atoms: C_5  and  C_6
REMARK    3  A    between atoms: C_6  and  O_7
REMARK    4  A    between atoms: O_7  and  C_8
REMARK    5  A    between atoms: C_11  and  N_12
REMARK    6  A    between atoms: C_13  and  C_15
REMARK                            x       y       z     vdW  Elec       q    Type
REMARK                         _______ _______ _______ _____ _____    ______ ____
ROOT
ATOM      1  C   UNL     1       1.767  -4.916  -0.101  0.00  0.00    +0.000 A 
ATOM      2  C   UNL     1       2.680  -5.241   0.904  0.00  0.00    +0.000 A 
ATOM      3  C   UNL     1       3.053  -6.574   1.120  0.00  0.00    +0.000 A 
ATOM      4  C   UNL     1       2.514  -7.581   0.321  0.00  0.00    +0.000 A 
ATOM      5  C   UNL     1       1.599  -7.250  -0.682  0.00  0.00    +0.000 A 
ATOM      6  C   UNL     1       1.200  -5.929  -0.869  0.00  0.00    +0.000 A 
ENDROOT
BRANCH   4   7
ATOM      7  N   UNL     1       2.863  -8.937   0.418  0.00  0.00    +0.000 N 
ATOM      8  C   UNL     1       3.487  -9.573   1.473  0.00  0.00    +0.000 C 
ATOM      9  O   UNL     1       3.727  -9.108   2.575  0.00  0.00    +0.000 OA
ATOM     10  H   UNL     1       2.643  -9.484  -0.404  0.00  0.00    +0.000 HD
BRANCH   8  11
ATOM     11  C   UNL     1       3.965 -10.938   1.112  0.00  0.00    +0.000 A 
ATOM     12  C   UNL     1       3.174 -11.776   0.312  0.00  0.00    +0.000 A 
ATOM     13  C   UNL     1       3.767 -12.780  -0.445  0.00  0.00    +0.000 A 
ATOM     14  C   UNL     1       5.164 -12.880  -0.493  0.00  0.00    +0.000 A 
ATOM     15  C   UNL     1       5.941 -12.042   0.330  0.00  0.00    +0.000 A 
ATOM     16  C   UNL     1       5.333 -11.181   1.224  0.00  0.00    +0.000 A 
ATOM     17  C   UNL     1       6.199 -10.501   2.186  0.00  0.00    +0.000 A 
ATOM     18  N   UNL     1       7.468 -10.329   1.989  0.00  0.00    +0.000 NA
ATOM     19  N   UNL     1       7.990 -10.874   0.855  0.00  0.00    +0.000 N 
ATOM     20  C   UNL     1       7.380 -11.854   0.092  0.00  0.00    +0.000 A 
ATOM     21  O   UNL     1       7.964 -12.466  -0.793  0.00  0.00    +0.000 OA
ATOM     22  H   UNL     1       8.964 -10.656   0.658  0.00  0.00    +0.000 HD
ENDBRANCH   8  11
ENDBRANCH   4   7
BRANCH   1  23
ATOM     23  O   UNL     1       1.496  -3.584  -0.254  0.00  0.00    +0.000 OA
BRANCH  23  24
ATOM     24  C   UNL     1       1.002  -3.216  -1.545  0.00  0.00    +0.000 C 
BRANCH  24  27
ATOM     25  C   UNL     1       0.409   0.462  -2.342  0.00  0.00    +0.000 A 
ATOM     26  C   UNL     1       0.175  -0.898  -2.104  0.00  0.00    +0.000 A 
ATOM     27  C   UNL     1       1.235  -1.748  -1.762  0.00  0.00    +0.000 A 
ATOM     28  C   UNL     1       2.530  -1.222  -1.666  0.00  0.00    +0.000 A 
ATOM     29  C   UNL     1       2.768   0.134  -1.906  0.00  0.00    +0.000 A 
ATOM     30  C   UNL     1       1.707   0.970  -2.240  0.00  0.00    +0.000 A 
BRANCH  25  32
ATOM     31  N   UNL     1      -1.567   2.011  -2.978  0.00  0.00    +0.000 NA
ATOM     32  C   UNL     1      -0.678   1.321  -2.689  0.00  0.00    +0.000 C 
ENDBRANCH  25  32
ENDBRANCH  24  27
ENDBRANCH  23  24
ENDBRANCH   1  23
TORSDOF 6
