REMARK  Name = 
REMARK  6 active torsions:
REMARK  status: ('A' for Active; 'I' for Inactive)
REMARK    1  A    between atoms: C_2  and  C_4
REMARK    2  A    between atoms: C_4  and  N_5
REMARK    3  A    between atoms: N_5  and  C_6
REMARK    4  A    between atoms: C_6  and  C_7
REMARK    5  A    between atoms: C_10  and  C_11
REMARK    6  A    between atoms: C_19  and  C_21
REMARK                            x       y       z     vdW  Elec       q    Type
REMARK                         _______ _______ _______ _____ _____    ______ ____
ROOT
ATOM      1  N   UNL     1       4.964   1.040   0.323  0.00  0.00    +0.000 N 
ATOM      2  C   UNL     1       5.834   1.974   0.886  0.00  0.00    +0.000 C 
ATOM      3  O   UNL     1       5.374   2.848   1.629  0.00  0.00    +0.000 OA
ENDROOT
BRANCH   2   4
ATOM      4  C   UNL     1       7.251   2.036   0.576  0.00  0.00    +0.000 A 
ATOM      5  C   UNL     1       8.273   1.119   0.386  0.00  0.00    +0.000 A 
ATOM      6  C   UNL     1       9.509   1.826   0.257  0.00  0.00    +0.000 A 
ATOM      7  C   UNL     1      10.852   1.441   0.083  0.00  0.00    +0.000 A 
ATOM      8  C   UNL     1      11.835   2.433   0.072  0.00  0.00    +0.000 A 
ATOM      9  F   UNL     1      13.119   2.077  -0.070  0.00  0.00    +0.000 F 
ATOM     10  C   UNL     1      11.521   3.779   0.219  0.00  0.00    +0.000 A 
ATOM     11  C   UNL     1      10.194   4.182   0.375  0.00  0.00    +0.000 A 
ATOM     12  C   UNL     1       9.217   3.179   0.390  0.00  0.00    +0.000 A 
ATOM     13  N   UNL     1       7.862   3.277   0.560  0.00  0.00    +0.000 N 
ATOM     14  H   UNL     1       7.361   4.140   0.722  0.00  0.00    +0.000 HD
ENDBRANCH   2   4
BRANCH   1  15
ATOM     15  C   UNL     1       3.584   1.020   0.848  0.00  0.00    +0.000 C 
BRANCH  15  17
ATOM     16  N   UNL     1       3.126   3.408   0.314  0.00  0.00    +0.000 N 
ATOM     17  C   UNL     1       2.611   2.160   0.495  0.00  0.00    +0.000 C 
ATOM     18  O   UNL     1       1.390   2.008   0.526  0.00  0.00    +0.000 OA
ATOM     19  H   UNL     1       2.445   4.156   0.298  0.00  0.00    +0.000 HD
ATOM     20  H   UNL     1       4.002   3.615   0.790  0.00  0.00    +0.000 HD
ENDBRANCH  15  17
ENDBRANCH   1  15
BRANCH   1  21
ATOM     21  C   UNL     1       5.346  -0.088  -0.518  0.00  0.00    +0.000 C 
BRANCH  21  22
ATOM     22  C   UNL     1       5.171   0.098  -2.004  0.00  0.00    +0.000 A 
ATOM     23  C   UNL     1       6.173   0.684  -2.785  0.00  0.00    +0.000 A 
ATOM     24  C   UNL     1       6.100   0.661  -4.187  0.00  0.00    +0.000 A 
ATOM     25  C   UNL     1       5.027   0.053  -4.862  0.00  0.00    +0.000 A 
ATOM     26  C   UNL     1       3.997  -0.471  -4.060  0.00  0.00    +0.000 A 
ATOM     27  C   UNL     1       4.058  -0.440  -2.659  0.00  0.00    +0.000 A 
BRANCH  25  28
ATOM     28  C   UNL     1       4.995  -0.068  -6.345  0.00  0.00    +0.000 A 
ATOM     29  C   UNL     1       6.174  -0.222  -7.101  0.00  0.00    +0.000 A 
ATOM     30  C   UNL     1       6.141  -0.365  -8.495  0.00  0.00    +0.000 A 
ATOM     31  C   UNL     1       4.926  -0.371  -9.168  0.00  0.00    +0.000 A 
ATOM     32  C   UNL     1       3.743  -0.224  -8.450  0.00  0.00    +0.000 A 
ATOM     33  C   UNL     1       3.781  -0.068  -7.059  0.00  0.00    +0.000 A 
ENDBRANCH  25  28
ENDBRANCH  21  22
ENDBRANCH   1  21
TORSDOF 6
