REMARK  Name = 
REMARK  7 active torsions:
REMARK  status: ('A' for Active; 'I' for Inactive)
REMARK    1  A    between atoms: C_2  and  O_3
REMARK    2  A    between atoms: C_2  and  C_21
REMARK    3  A    between atoms: O_3  and  C_4
REMARK    4  A    between atoms: C_4  and  C_5
REMARK    5  A    between atoms: C_7  and  O_8
REMARK    6  A    between atoms: O_8  and  C_9
REMARK    7  A    between atoms: C_9  and  C_10
REMARK                            x       y       z     vdW  Elec       q    Type
REMARK                         _______ _______ _______ _____ _____    ______ ____
ROOT
ATOM      1  C   UNL     1       4.793   1.296  -2.223  0.00  0.00    +0.000 A 
ATOM      2  C   UNL     1       4.463   2.653  -2.369  0.00  0.00    +0.000 A 
ATOM      3  C   UNL     1       4.921   3.374  -3.472  0.00  0.00    +0.000 A 
ATOM      4  C   UNL     1       5.645   2.724  -4.475  0.00  0.00    +0.000 A 
ATOM      5  C   UNL     1       5.966   1.381  -4.344  0.00  0.00    +0.000 A 
ATOM      6  C   UNL     1       5.549   0.668  -3.223  0.00  0.00    +0.000 A 
ENDROOT
BRANCH   1   7
ATOM      7  C   UNL     1       4.389   0.533  -0.986  0.00  0.00    +0.000 C 
BRANCH   7   8
ATOM      8  O   UNL     1       4.922   1.168   0.184  0.00  0.00    +0.000 OA
BRANCH   8  10
ATOM      9  O   UNL     1       6.920   0.052  -0.085  0.00  0.00    +0.000 OA
ATOM     10  C   UNL     1       6.191   0.840   0.494  0.00  0.00    +0.000 C 
BRANCH  10  11
ATOM     11  C   UNL     1       6.690   1.659   1.687  0.00  0.00    +0.000 A 
ATOM     12  N   UNL     1       5.855   1.996   2.631  0.00  0.00    +0.000 NA
ATOM     13  C   UNL     1       6.362   2.759   3.645  0.00  0.00    +0.000 A 
ATOM     14  N   UNL     1       5.740   3.272   4.687  0.00  0.00    +0.000 NA
ATOM     15  C   UNL     1       6.681   3.992   5.378  0.00  0.00    +0.000 A 
ATOM     16  C   UNL     1       7.910   3.908   4.770  0.00  0.00    +0.000 A 
ATOM     17  N   UNL     1       7.707   3.128   3.663  0.00  0.00    +0.000 N 
ATOM     18  C   UNL     1       8.598   2.741   2.675  0.00  0.00    +0.000 A 
ATOM     19  C   UNL     1       8.153   2.002   1.649  0.00  0.00    +0.000 A 
ENDBRANCH  10  11
ENDBRANCH   8  10
ENDBRANCH   7   8
ENDBRANCH   1   7
BRANCH   3  20
ATOM     20  O   UNL     1       4.642   4.717  -3.481  0.00  0.00    +0.000 OA
BRANCH  20  21
ATOM     21  C   UNL     1       5.586   5.499  -4.225  0.00  0.00    +0.000 C 
BRANCH  21  22
ATOM     22  C   UNL     1       5.601   6.916  -3.726  0.00  0.00    +0.000 A 
ATOM     23  C   UNL     1       4.436   7.552  -3.279  0.00  0.00    +0.000 A 
ATOM     24  C   UNL     1       4.500   8.860  -2.796  0.00  0.00    +0.000 A 
ATOM     25  C   UNL     1       5.720   9.530  -2.781  0.00  0.00    +0.000 A 
ATOM     26  F   UNL     1       5.778  10.779  -2.298  0.00  0.00    +0.000 F 
ATOM     27  C   UNL     1       6.874   8.930  -3.256  0.00  0.00    +0.000 A 
ATOM     28  C   UNL     1       6.803   7.630  -3.735  0.00  0.00    +0.000 A 
ATOM     29  F   UNL     1       7.920   7.054  -4.204  0.00  0.00    +0.000 F 
ENDBRANCH  21  22
ENDBRANCH  20  21
ENDBRANCH   3  20
TORSDOF 7
