REMARK  Name = 
REMARK  6 active torsions:
REMARK  status: ('A' for Active; 'I' for Inactive)
REMARK    1  A    between atoms: C_2  and  O_3
REMARK    2  A    between atoms: C_2  and  C_23
REMARK    3  A    between atoms: O_3  and  C_4
REMARK    4  A    between atoms: C_4  and  C_5
REMARK    5  A    between atoms: C_8  and  C_9
REMARK    6  A    between atoms: C_28  and  O_29
REMARK                            x       y       z     vdW  Elec       q    Type
REMARK                         _______ _______ _______ _____ _____    ______ ____
ROOT
ATOM      1  C   UNL     1       4.773   1.962  -1.844  0.00  0.00    +0.000 A 
ATOM      2  C   UNL     1       4.093   3.159  -1.655  0.00  0.00    +0.000 A 
ATOM      3  C   UNL     1       4.458   4.283  -2.385  0.00  0.00    +0.000 A 
ATOM      4  C   UNL     1       5.546   4.289  -3.288  0.00  0.00    +0.000 A 
ATOM      5  C   UNL     1       6.180   3.065  -3.526  0.00  0.00    +0.000 A 
ATOM      6  C   UNL     1       5.791   1.911  -2.811  0.00  0.00    +0.000 A 
ENDROOT
BRANCH   4   7
ATOM      7  C   UNL     1       5.973   5.605  -3.827  0.00  0.00    +0.000 A 
ATOM      8  C   UNL     1       5.899   6.700  -2.935  0.00  0.00    +0.000 A 
ATOM      9  C   UNL     1       5.997   8.014  -3.358  0.00  0.00    +0.000 A 
ATOM     10  C   UNL     1       6.312   8.256  -4.677  0.00  0.00    +0.000 A 
ATOM     11  O   UNL     1       6.384   9.601  -5.037  0.00  0.00    +0.000 OA
ATOM     12  C   UNL     1       7.049   9.948  -6.202  0.00  0.00    +0.000 A 
ATOM     13  O   UNL     1       7.300  11.115  -6.467  0.00  0.00    +0.000 OA
ATOM     14  N   UNL     1       7.407   8.919  -7.032  0.00  0.00    +0.000 N 
ATOM     15  C   UNL     1       7.138   7.580  -6.860  0.00  0.00    +0.000 A 
ATOM     16  O   UNL     1       7.393   6.745  -7.715  0.00  0.00    +0.000 OA
ATOM     17  C   UNL     1       6.574   7.211  -5.553  0.00  0.00    +0.000 A 
ATOM     18  C   UNL     1       6.375   5.873  -5.148  0.00  0.00    +0.000 A 
ATOM     19  H   UNL     1       7.884   9.197  -7.878  0.00  0.00    +0.000 HD
ENDBRANCH   4   7
BRANCH   1  20
ATOM     20  C   UNL     1       4.427   0.775  -0.981  0.00  0.00    +0.000 C 
BRANCH  20  21
ATOM     21  O   UNL     1       3.791  -0.233  -1.766  0.00  0.00    +0.000 OA
BRANCH  21  23
ATOM     22  O   UNL     1       5.408  -1.752  -1.173  0.00  0.00    +0.000 OA
ATOM     23  C   UNL     1       4.383  -1.447  -1.763  0.00  0.00    +0.000 C 
BRANCH  23  24
ATOM     24  C   UNL     1       3.529  -2.443  -2.454  0.00  0.00    +0.000 A 
ATOM     25  C   UNL     1       3.536  -3.749  -1.938  0.00  0.00    +0.000 A 
ATOM     26  C   UNL     1       2.721  -4.734  -2.497  0.00  0.00    +0.000 A 
ATOM     27  C   UNL     1       1.894  -4.422  -3.573  0.00  0.00    +0.000 A 
ATOM     28  C   UNL     1       1.904  -3.135  -4.115  0.00  0.00    +0.000 A 
ATOM     29  C   UNL     1       2.732  -2.152  -3.567  0.00  0.00    +0.000 A 
BRANCH  29  30
ATOM     30  O   UNL     1       2.778  -0.921  -4.158  0.00  0.00    +0.000 OA
ATOM     31  H   UNL     1       2.218  -0.913  -4.950  0.00  0.00    +0.000 HD
ENDBRANCH  29  30
ENDBRANCH  23  24
ENDBRANCH  21  23
ENDBRANCH  20  21
ENDBRANCH   1  20
TORSDOF 6
