REMARK  Name = 
REMARK  5 active torsions:
REMARK  status: ('A' for Active; 'I' for Inactive)
REMARK    1  A    between atoms: C_1  and  N_2
REMARK    2  A    between atoms: C_7  and  N_8
REMARK    3  A    between atoms: C_9  and  C_11
REMARK    4  A    between atoms: C_13  and  C_14
REMARK    5  A    between atoms: C_23  and  O_24
REMARK                            x       y       z     vdW  Elec       q    Type
REMARK                         _______ _______ _______ _____ _____    ______ ____
ROOT
ATOM      1  N   UNL     1       4.476  -0.284  -0.243  0.00  0.00    +0.000 N 
ATOM      2  C   UNL     1       5.505   0.635  -0.323  0.00  0.00    +0.000 C 
ATOM      3  O   UNL     1       5.375   1.848  -0.472  0.00  0.00    +0.000 OA
ATOM      4  H   UNL     1       4.744  -1.259  -0.116  0.00  0.00    +0.000 HD
ENDROOT
BRANCH   1  11
ATOM      5  C   UNL     1      -2.939   2.345  -0.038  0.00  0.00    +0.000 C 
ATOM      6  N   UNL     1      -1.529   2.049  -0.209  0.00  0.00    +0.000 N 
ATOM      7  C   UNL     1      -0.634   3.078  -0.415  0.00  0.00    +0.000 A 
ATOM      8  C   UNL     1       0.681   2.871  -0.507  0.00  0.00    +0.000 A 
ATOM      9  C   UNL     1       1.200   1.514  -0.373  0.00  0.00    +0.000 A 
ATOM     10  C   UNL     1       2.578   1.285  -0.399  0.00  0.00    +0.000 A 
ATOM     11  C   UNL     1       3.094  -0.007  -0.267  0.00  0.00    +0.000 A 
ATOM     12  C   UNL     1       2.208  -1.083  -0.133  0.00  0.00    +0.000 A 
ATOM     13  C   UNL     1       0.826  -0.864  -0.100  0.00  0.00    +0.000 A 
ATOM     14  C   UNL     1       0.327   0.439  -0.208  0.00  0.00    +0.000 A 
ATOM     15  C   UNL     1      -1.133   0.707  -0.112  0.00  0.00    +0.000 A 
ATOM     16  O   UNL     1      -1.916  -0.224   0.062  0.00  0.00    +0.000 OA
ENDBRANCH   1  11
BRANCH   2  17
ATOM     17  C   UNL     1       6.891   0.117  -0.206  0.00  0.00    +0.000 A 
ATOM     18  C   UNL     1       7.948   1.028  -0.352  0.00  0.00    +0.000 A 
ATOM     19  C   UNL     1       9.288   0.632  -0.224  0.00  0.00    +0.000 A 
ATOM     20  C   UNL     1       9.482  -0.722   0.060  0.00  0.00    +0.000 A 
ATOM     21  N   UNL     1       8.492  -1.647   0.194  0.00  0.00    +0.000 NA
ATOM     22  C   UNL     1       7.235  -1.196   0.050  0.00  0.00    +0.000 A 
BRANCH  19  23
ATOM     23  C   UNL     1      10.393   1.596  -0.424  0.00  0.00    +0.000 A 
ATOM     24  C   UNL     1      10.245   2.959  -0.093  0.00  0.00    +0.000 A 
ATOM     25  C   UNL     1      11.244   3.898  -0.379  0.00  0.00    +0.000 A 
ATOM     26  C   UNL     1      12.430   3.493  -0.983  0.00  0.00    +0.000 A 
ATOM     27  C   UNL     1      12.621   2.149  -1.284  0.00  0.00    +0.000 A 
ATOM     28  C   UNL     1      11.616   1.222  -1.008  0.00  0.00    +0.000 A 
ATOM     29  F   UNL     1      11.843  -0.055  -1.351  0.00  0.00    +0.000 F 
ENDBRANCH  19  23
BRANCH  22  30
ATOM     30  O   UNL     1       6.318  -2.190   0.176  0.00  0.00    +0.000 OA
ATOM     31  H   UNL     1       6.923  -2.944   0.328  0.00  0.00    +0.000 HD
ENDBRANCH  22  30
ENDBRANCH   2  17
TORSDOF 4
