REMARK  Name = 
REMARK  11 active torsions:
REMARK  status: ('A' for Active; 'I' for Inactive)
REMARK    1  A    between atoms: C_1  and  O_2
REMARK    2  A    between atoms: O_2  and  C_3
REMARK    3  A    between atoms: C_3  and  C_5
REMARK    4  A    between atoms: C_7  and  C_8
REMARK    5  A    between atoms: C_8  and  C_9
REMARK    6  A    between atoms: C_8  and  N_10
REMARK    7  A    between atoms: C_11  and  C_13
REMARK    8  A    between atoms: C_16  and  C_17
REMARK    9  A    between atoms: C_22  and  C_23
REMARK   10  A    between atoms: C_32  and  O_33
REMARK   11  A    between atoms: O_33  and  C_34
REMARK                            x       y       z     vdW  Elec       q    Type
REMARK                         _______ _______ _______ _____ _____    ______ ____
ROOT
ATOM      1  N   UNL     1       6.475  -2.905   0.428  0.00  0.00    +0.000 N 
ATOM      2  C   UNL     1       6.830  -4.223   0.608  0.00  0.00    +0.000 C 
ATOM      3  O   UNL     1       7.897  -4.702   0.241  0.00  0.00    +0.000 OA
ATOM      4  H   UNL     1       5.542  -2.597   0.662  0.00  0.00    +0.000 HD
ENDROOT
BRANCH   2   5
ATOM      5  C   UNL     1       5.834  -5.091   1.286  0.00  0.00    +0.000 A 
ATOM      6  C   UNL     1       5.797  -6.452   0.972  0.00  0.00    +0.000 A 
ATOM      7  C   UNL     1       4.871  -7.297   1.599  0.00  0.00    +0.000 A 
ATOM      8  C   UNL     1       3.993  -6.819   2.589  0.00  0.00    +0.000 A 
ATOM      9  C   UNL     1       4.113  -5.459   2.937  0.00  0.00    +0.000 A 
ATOM     10  C   UNL     1       4.984  -4.593   2.270  0.00  0.00    +0.000 A 
BRANCH   8  11
ATOM     11  C   UNL     1       3.013  -7.714   3.274  0.00  0.00    +0.000 A 
ATOM     12  C   UNL     1       3.406  -9.036   3.597  0.00  0.00    +0.000 A 
ATOM     13  C   UNL     1       2.586  -9.900   4.327  0.00  0.00    +0.000 A 
ATOM     14  C   UNL     1       1.355  -9.461   4.789  0.00  0.00    +0.000 A 
ATOM     15  C   UNL     1       0.922  -8.175   4.471  0.00  0.00    +0.000 A 
ATOM     16  C   UNL     1       1.712  -7.309   3.685  0.00  0.00    +0.000 A 
BRANCH  16  17
ATOM     17  C   UNL     1       1.126  -6.023   3.316  0.00  0.00    +0.000 A 
ATOM     18  N   UNL     1       0.394  -5.255   4.146  0.00  0.00    +0.000 NA
ATOM     19  N   UNL     1       0.186  -4.188   3.360  0.00  0.00    +0.000 N 
ATOM     20  N   UNL     1       0.711  -4.248   2.133  0.00  0.00    +0.000 NA
ATOM     21  N   UNL     1       1.292  -5.438   2.079  0.00  0.00    +0.000 NA
ATOM     22  H   UNL     1      -0.330  -3.373   3.678  0.00  0.00    +0.000 HD
ENDBRANCH  16  17
ENDBRANCH   8  11
ENDBRANCH   2   5
BRANCH   1  23
ATOM     23  C   UNL     1       7.376  -1.947  -0.182  0.00  0.00    +0.000 C 
ATOM     24  C   UNL     1       6.806  -1.484  -1.526  0.00  0.00    +0.000 C 
BRANCH  23  27
ATOM     25  C   UNL     1       7.240   1.408   1.735  0.00  0.00    +0.000 A 
ATOM     26  C   UNL     1       6.924   0.361   0.842  0.00  0.00    +0.000 A 
ATOM     27  C   UNL     1       7.664  -0.829   0.807  0.00  0.00    +0.000 A 
ATOM     28  C   UNL     1       8.712  -0.971   1.725  0.00  0.00    +0.000 A 
ATOM     29  C   UNL     1       9.008   0.044   2.642  0.00  0.00    +0.000 A 
ATOM     30  C   UNL     1       8.267   1.233   2.673  0.00  0.00    +0.000 A 
BRANCH  25  31
ATOM     31  C   UNL     1       6.580   2.716   1.498  0.00  0.00    +0.000 C 
ATOM     32  O   UNL     1       7.135   3.792   1.598  0.00  0.00    +0.000 OA
BRANCH  31  34
ATOM     33  C   UNL     1       4.619   3.720   0.713  0.00  0.00    +0.000 C 
ATOM     34  O   UNL     1       5.294   2.524   1.107  0.00  0.00    +0.000 OA
ENDBRANCH  31  34
ENDBRANCH  25  31
BRANCH  30  35
ATOM     35  O   UNL     1       8.712   2.125   3.611  0.00  0.00    +0.000 OA
ATOM     36  C   UNL     1       7.720   2.837   4.345  0.00  0.00    +0.000 C 
ENDBRANCH  30  35
ENDBRANCH  23  27
ENDBRANCH   1  23
TORSDOF 8
