REMARK  Name = 
REMARK  10 active torsions:
REMARK  status: ('A' for Active; 'I' for Inactive)
REMARK    1  A    between atoms: C_1  and  O_2
REMARK    2  A    between atoms: O_2  and  C_3
REMARK    3  A    between atoms: C_7  and  C_8
REMARK    4  A    between atoms: C_8  and  O_9
REMARK    5  A    between atoms: C_8  and  C_10
REMARK    6  A    between atoms: C_10  and  N_11
REMARK    7  A    between atoms: N_11  and  C_12
REMARK    8  A    between atoms: C_12  and  C_13
REMARK    9  A    between atoms: C_19  and  C_21
REMARK   10  A    between atoms: N_27  and  C_28
REMARK                            x       y       z     vdW  Elec       q    Type
REMARK                         _______ _______ _______ _____ _____    ______ ____
ROOT
ATOM      1  N   UNL     1       8.538  -2.854  -2.931  0.00  0.00    +0.000 N 
ATOM      2  C   UNL     1       9.418  -2.937  -4.025  0.00  0.00    +0.000 C 
ATOM      3  O   UNL     1       9.133  -2.485  -5.133  0.00  0.00    +0.000 OA
ENDROOT
BRANCH   2   4
ATOM      4  C   UNL     1      10.664  -3.747  -3.922  0.00  0.00    +0.000 A 
ATOM      5  C   UNL     1      10.746  -4.787  -4.864  0.00  0.00    +0.000 A 
ATOM      6  C   UNL     1      11.654  -5.807  -4.678  0.00  0.00    +0.000 A 
ATOM      7  C   UNL     1      12.523  -5.696  -3.612  0.00  0.00    +0.000 A 
ATOM      8  C   UNL     1      13.506  -6.718  -3.328  0.00  0.00    +0.000 A 
ATOM      9  O   UNL     1      13.201  -7.813  -2.885  0.00  0.00    +0.000 OA
ATOM     10  N   UNL     1      14.751  -6.250  -3.622  0.00  0.00    +0.000 N 
ATOM     11  C   UNL     1      15.398  -6.939  -4.712  0.00  0.00    +0.000 C 
ATOM     12  C   UNL     1      15.121  -4.989  -3.175  0.00  0.00    +0.000 A 
ATOM     13  O   UNL     1      16.244  -4.513  -3.310  0.00  0.00    +0.000 OA
ATOM     14  N   UNL     1      14.085  -4.228  -2.599  0.00  0.00    +0.000 N 
ATOM     15  C   UNL     1      12.747  -4.477  -3.001  0.00  0.00    +0.000 A 
ATOM     16  C   UNL     1      11.746  -3.518  -3.039  0.00  0.00    +0.000 A 
ATOM     17  H   UNL     1      14.350  -3.293  -2.317  0.00  0.00    +0.000 HD
ENDBRANCH   2   4
BRANCH   1  18
ATOM     18  C   UNL     1       8.848  -3.281  -1.565  0.00  0.00    +0.000 C 
BRANCH  18  19
ATOM     19  C   UNL     1       9.647  -2.266  -0.763  0.00  0.00    +0.000 A 
ATOM     20  C   UNL     1       9.874  -0.953  -1.208  0.00  0.00    +0.000 A 
ATOM     21  C   UNL     1      10.681  -0.079  -0.475  0.00  0.00    +0.000 A 
ATOM     22  C   UNL     1      11.247  -0.494   0.726  0.00  0.00    +0.000 A 
ATOM     23  C   UNL     1      10.996  -1.776   1.205  0.00  0.00    +0.000 A 
ATOM     24  C   UNL     1      10.200  -2.655   0.466  0.00  0.00    +0.000 A 
ENDBRANCH  18  19
ENDBRANCH   1  18
BRANCH   1  25
ATOM     25  C   UNL     1       7.152  -2.397  -3.207  0.00  0.00    +0.000 C 
BRANCH  25  26
ATOM     26  C   UNL     1       6.103  -3.544  -3.413  0.00  0.00    +0.000 C 
BRANCH  26  31
ATOM     27  C   UNL     1       2.269  -3.724  -3.871  0.00  0.00    +0.000 A 
ATOM     28  C   UNL     1       1.950  -2.404  -4.168  0.00  0.00    +0.000 A 
ATOM     29  C   UNL     1       2.975  -1.457  -4.284  0.00  0.00    +0.000 A 
ATOM     30  C   UNL     1       4.312  -1.804  -4.057  0.00  0.00    +0.000 A 
ATOM     31  C   UNL     1       4.665  -3.112  -3.707  0.00  0.00    +0.000 A 
ATOM     32  C   UNL     1       3.614  -4.061  -3.632  0.00  0.00    +0.000 A 
BRANCH  27  34
ATOM     33  C   UNL     1      -0.003  -4.421  -3.732  0.00  0.00    +0.000 C 
ATOM     34  O   UNL     1       1.378  -4.753  -3.701  0.00  0.00    +0.000 OA
ENDBRANCH  27  34
ENDBRANCH  26  31
BRANCH  26  35
ATOM     35  O   UNL     1       6.520  -4.432  -4.457  0.00  0.00    +0.000 OA
ATOM     36  H   UNL     1       6.489  -3.928  -5.290  0.00  0.00    +0.000 HD
ENDBRANCH  26  35
ENDBRANCH  25  26
ENDBRANCH   1  25
TORSDOF 8
