REMARK  Name = 
REMARK  3 active torsions:
REMARK  status: ('A' for Active; 'I' for Inactive)
REMARK    1  A    between atoms: C_2  and  C_17
REMARK    2  A    between atoms: C_8  and  C_9
REMARK    3  A    between atoms: N_21  and  C_22
REMARK                            x       y       z     vdW  Elec       q    Type
REMARK                         _______ _______ _______ _____ _____    ______ ____
ROOT
ATOM      1  O   UNL     1       0.996  -0.044  -0.135  0.00  0.00    +0.000 OA
ATOM      2  C   UNL     1       2.213   0.098  -0.090  0.00  0.00    +0.000 C 
ATOM      3  N   UNL     1       2.908   0.944   0.740  0.00  0.00    +0.000 N 
ATOM      4  C   UNL     1       2.265   1.736   1.677  0.00  0.00    +0.000 A 
ATOM      5  N   UNL     1       0.937   1.758   1.844  0.00  0.00    +0.000 NA
ATOM      6  O   UNL     1       0.671   2.647   2.850  0.00  0.00    +0.000 OA
ATOM      7  C   UNL     1       1.829   3.170   3.295  0.00  0.00    +0.000 A 
ATOM      8  C   UNL     1       2.888   2.650   2.582  0.00  0.00    +0.000 A 
ATOM      9  H   UNL     1       3.914   1.027   0.695  0.00  0.00    +0.000 HD
ENDROOT
BRANCH   8  10
ATOM     10  C   UNL     1       4.270   3.026   2.829  0.00  0.00    +0.000 A 
ATOM     11  C   UNL     1       4.586   4.349   3.185  0.00  0.00    +0.000 A 
ATOM     12  C   UNL     1       5.904   4.713   3.468  0.00  0.00    +0.000 A 
ATOM     13  C   UNL     1       6.911   3.759   3.394  0.00  0.00    +0.000 A 
ATOM     14  F   UNL     1       8.170   4.107   3.685  0.00  0.00    +0.000 F 
ATOM     15  C   UNL     1       6.630   2.450   3.027  0.00  0.00    +0.000 A 
ATOM     16  C   UNL     1       5.315   2.094   2.746  0.00  0.00    +0.000 A 
ATOM     17  F   UNL     1       5.070   0.824   2.391  0.00  0.00    +0.000 F 
ENDBRANCH   8  10
BRANCH   2  18
ATOM     18  C   UNL     1       3.042  -0.669  -1.042  0.00  0.00    +0.000 A 
ATOM     19  C   UNL     1       2.453  -0.995  -2.191  0.00  0.00    +0.000 A 
ATOM     20  C   UNL     1       3.148  -1.776  -3.215  0.00  0.00    +0.000 A 
ATOM     21  O   UNL     1       2.492  -2.033  -4.226  0.00  0.00    +0.000 OA
ATOM     22  N   UNL     1       4.458  -2.163  -2.911  0.00  0.00    +0.000 N 
ATOM     23  N   UNL     1       5.070  -1.891  -1.692  0.00  0.00    +0.000 NA
ATOM     24  C   UNL     1       4.396  -1.186  -0.840  0.00  0.00    +0.000 A 
BRANCH  22  25
ATOM     25  C   UNL     1       5.223  -2.969  -3.813  0.00  0.00    +0.000 A 
ATOM     26  C   UNL     1       4.926  -2.990  -5.184  0.00  0.00    +0.000 A 
ATOM     27  C   UNL     1       5.563  -3.872  -6.054  0.00  0.00    +0.000 A 
ATOM     28  C   UNL     1       6.530  -4.743  -5.564  0.00  0.00    +0.000 A 
ATOM     29  C   UNL     1       6.887  -4.698  -4.218  0.00  0.00    +0.000 A 
ATOM     30  C   UNL     1       6.252  -3.802  -3.350  0.00  0.00    +0.000 A 
ENDBRANCH  22  25
ENDBRANCH   2  18
TORSDOF 3
