REMARK  Name = 
REMARK  6 active torsions:
REMARK  status: ('A' for Active; 'I' for Inactive)
REMARK    1  A    between atoms: C_1  and  C_2
REMARK    2  A    between atoms: N_7  and  C_8
REMARK    3  A    between atoms: C_12  and  C_13
REMARK    4  A    between atoms: N_15  and  C_16
REMARK    5  A    between atoms: C_16  and  C_17
REMARK    6  A    between atoms: C_20  and  C_21
REMARK                            x       y       z     vdW  Elec       q    Type
REMARK                         _______ _______ _______ _____ _____    ______ ____
ROOT
ATOM      1  C   UNL     1       3.628  -5.601   1.788  0.00  0.00    +0.000 C 
ATOM      2  O   UNL     1       4.245  -5.154   2.747  0.00  0.00    +0.000 OA
ATOM      3  N   UNL     1       3.509  -6.945   1.511  0.00  0.00    +0.000 N 
ATOM      4  H   UNL     1       3.107  -7.242   0.633  0.00  0.00    +0.000 HD
ENDROOT
BRANCH   1   9
ATOM      5  C   UNL     1       2.956  -2.485  -0.226  0.00  0.00    +0.000 A 
ATOM      6  C   UNL     1       1.740  -2.804  -0.840  0.00  0.00    +0.000 A 
ATOM      7  C   UNL     1       1.153  -4.055  -0.638  0.00  0.00    +0.000 A 
ATOM      8  C   UNL     1       1.761  -4.985   0.207  0.00  0.00    +0.000 A 
ATOM      9  C   UNL     1       2.973  -4.669   0.832  0.00  0.00    +0.000 A 
ATOM     10  C   UNL     1       3.576  -3.425   0.602  0.00  0.00    +0.000 A 
BRANCH   5  17
ATOM     11  C   UNL     1       1.710   0.353   0.177  0.00  0.00    +0.000 C 
ATOM     12  C   UNL     1       3.037   0.039  -0.414  0.00  0.00    +0.000 A 
ATOM     13  C   UNL     1       3.961   0.913  -0.845  0.00  0.00    +0.000 A 
ATOM     14  N   UNL     1       5.095   0.230  -1.192  0.00  0.00    +0.000 N 
ATOM     15  C   UNL     1       4.912  -1.144  -0.960  0.00  0.00    +0.000 A 
ATOM     16  O   UNL     1       5.733  -2.019  -1.189  0.00  0.00    +0.000 OA
ATOM     17  N   UNL     1       3.573  -1.245  -0.471  0.00  0.00    +0.000 N 
ATOM     18  H   UNL     1       5.952   0.614  -1.558  0.00  0.00    +0.000 HD
ENDBRANCH   5  17
ENDBRANCH   1   9
BRANCH   3  19
ATOM     19  C   UNL     1       4.167  -7.943   2.323  0.00  0.00    +0.000 C 
BRANCH  19  20
ATOM     20  C   UNL     1       3.171  -8.852   2.995  0.00  0.00    +0.000 A 
ATOM     21  C   UNL     1       2.666  -8.534   4.259  0.00  0.00    +0.000 A 
ATOM     22  C   UNL     1       1.772  -9.394   4.912  0.00  0.00    +0.000 A 
ATOM     23  C   UNL     1       1.330 -10.593   4.320  0.00  0.00    +0.000 A 
ATOM     24  C   UNL     1       1.829 -10.873   3.036  0.00  0.00    +0.000 A 
ATOM     25  F   UNL     1       1.447 -11.981   2.382  0.00  0.00    +0.000 F 
ATOM     26  C   UNL     1       2.731 -10.028   2.381  0.00  0.00    +0.000 A 
BRANCH  23  27
ATOM     27  C   UNL     1       0.402 -11.503   5.033  0.00  0.00    +0.000 A 
ATOM     28  C   UNL     1      -0.568 -11.030   5.933  0.00  0.00    +0.000 A 
ATOM     29  C   UNL     1      -1.406 -11.912   6.617  0.00  0.00    +0.000 A 
ATOM     30  C   UNL     1      -1.266 -13.266   6.381  0.00  0.00    +0.000 A 
ATOM     31  N   UNL     1      -0.361 -13.779   5.526  0.00  0.00    +0.000 NA
ATOM     32  C   UNL     1       0.442 -12.893   4.882  0.00  0.00    +0.000 A 
ENDBRANCH  23  27
ENDBRANCH  19  20
ENDBRANCH   3  19
TORSDOF 5
