REMARK  Name = 
REMARK  8 active torsions:
REMARK  status: ('A' for Active; 'I' for Inactive)
REMARK    1  A    between atoms: C_1  and  O_2
REMARK    2  A    between atoms: O_2  and  C_3
REMARK    3  A    between atoms: C_6  and  C_7
REMARK    4  A    between atoms: N_9  and  C_10
REMARK    5  A    between atoms: C_10  and  C_11
REMARK    6  A    between atoms: C_10  and  C_25
REMARK    7  A    between atoms: N_13  and  C_14
REMARK    8  A    between atoms: C_17  and  C_18
REMARK                            x       y       z     vdW  Elec       q    Type
REMARK                         _______ _______ _______ _____ _____    ______ ____
ROOT
ATOM      1  C   UNL     1       5.823  -6.883   1.855  0.00  0.00    +0.000 C 
ENDROOT
BRANCH   1   2
ATOM      2  C   UNL     1       5.277  -8.213   1.355  0.00  0.00    +0.000 A 
ATOM      3  C   UNL     1       6.162  -9.293   1.205  0.00  0.00    +0.000 A 
ATOM      4  C   UNL     1       5.684 -10.567   0.903  0.00  0.00    +0.000 A 
ATOM      5  C   UNL     1       4.316 -10.780   0.755  0.00  0.00    +0.000 A 
ATOM      6  C   UNL     1       3.425  -9.715   0.879  0.00  0.00    +0.000 A 
ATOM      7  C   UNL     1       3.903  -8.436   1.166  0.00  0.00    +0.000 A 
ENDBRANCH   1   2
BRANCH   1   8
ATOM      8  C   UNL     1       5.955  -6.833   3.405  0.00  0.00    +0.000 C 
ATOM      9  O   UNL     1       6.825  -6.133   3.925  0.00  0.00    +0.000 OA
ATOM     10  N   UNL     1       4.961  -7.512   4.105  0.00  0.00    +0.000 N 
ATOM     11  H   UNL     1       4.382  -8.152   3.576  0.00  0.00    +0.000 HD
BRANCH  10  12
ATOM     12  C   UNL     1       4.805  -7.586   5.503  0.00  0.00    +0.000 A 
ATOM     13  C   UNL     1       5.481  -6.758   6.396  0.00  0.00    +0.000 A 
ATOM     14  C   UNL     1       5.330  -6.925   7.774  0.00  0.00    +0.000 A 
ATOM     15  C   UNL     1       4.493  -7.923   8.287  0.00  0.00    +0.000 A 
ATOM     16  C   UNL     1       3.773  -8.722   7.392  0.00  0.00    +0.000 A 
ATOM     17  C   UNL     1       3.926  -8.552   6.010  0.00  0.00    +0.000 A 
BRANCH  15  18
ATOM     18  C   UNL     1       4.398  -8.133   9.726  0.00  0.00    +0.000 A 
ATOM     19  N   UNL     1       3.317  -8.660  10.326  0.00  0.00    +0.000 NA
ATOM     20  N   UNL     1       3.681  -8.649  11.619  0.00  0.00    +0.000 N 
ATOM     21  N   UNL     1       4.902  -8.191  11.932  0.00  0.00    +0.000 NA
ATOM     22  C   UNL     1       5.367  -7.864  10.725  0.00  0.00    +0.000 A 
ATOM     23  H   UNL     1       3.049  -8.981  12.344  0.00  0.00    +0.000 HD
ENDBRANCH  15  18
ENDBRANCH  10  12
ENDBRANCH   1   8
BRANCH   1  26
ATOM     24  C   UNL     1       5.416  -5.040   0.271  0.00  0.00    +0.000 C 
ATOM     25  O   UNL     1       6.318  -5.403  -0.475  0.00  0.00    +0.000 OA
ATOM     26  N   UNL     1       5.044  -5.731   1.406  0.00  0.00    +0.000 N 
ATOM     27  H   UNL     1       4.456  -5.272   2.088  0.00  0.00    +0.000 HD
BRANCH  24  31
ATOM     28  C   UNL     1       3.388  -1.353  -0.628  0.00  0.00    +0.000 A 
ATOM     29  C   UNL     1       2.711  -2.360   0.062  0.00  0.00    +0.000 A 
ATOM     30  C   UNL     1       3.356  -3.568   0.368  0.00  0.00    +0.000 A 
ATOM     31  C   UNL     1       4.688  -3.771  -0.011  0.00  0.00    +0.000 A 
ATOM     32  C   UNL     1       5.362  -2.764  -0.711  0.00  0.00    +0.000 A 
ATOM     33  C   UNL     1       4.715  -1.562  -1.010  0.00  0.00    +0.000 A 
BRANCH  28  35
ATOM     34  C   UNL     1       1.511   0.111  -0.687  0.00  0.00    +0.000 C 
ATOM     35  O   UNL     1       2.877  -0.139  -0.995  0.00  0.00    +0.000 OA
ENDBRANCH  28  35
ENDBRANCH  24  31
ENDBRANCH   1  26
TORSDOF 7
