REMARK  Name = 
REMARK  5 active torsions:
REMARK  status: ('A' for Active; 'I' for Inactive)
REMARK    1  A    between atoms: C_2  and  C_26
REMARK    2  A    between atoms: N_3  and  C_4
REMARK    3  A    between atoms: C_4  and  C_5
REMARK    4  A    between atoms: C_4  and  C_20
REMARK    5  A    between atoms: N_7  and  C_8
REMARK                            x       y       z     vdW  Elec       q    Type
REMARK                         _______ _______ _______ _____ _____    ______ ____
ROOT
ATOM      1  C   UNL     1       2.329  -1.938   1.598  0.00  0.00    +0.000 C 
ENDROOT
BRANCH   1   2
ATOM      2  C   UNL     1       3.288  -2.640   2.555  0.00  0.00    +0.000 A 
ATOM      3  C   UNL     1       4.531  -2.042   2.853  0.00  0.00    +0.000 A 
ATOM      4  C   UNL     1       5.402  -2.600   3.789  0.00  0.00    +0.000 A 
ATOM      5  C   UNL     1       5.048  -3.765   4.458  0.00  0.00    +0.000 A 
ATOM      6  C   UNL     1       3.821  -4.369   4.194  0.00  0.00    +0.000 A 
ATOM      7  C   UNL     1       2.942  -3.804   3.265  0.00  0.00    +0.000 A 
ENDBRANCH   1   2
BRANCH   1  10
ATOM      8  O   UNL     1       3.903  -2.937  -0.519  0.00  0.00    +0.000 OA
ATOM      9  C   UNL     1       3.752  -1.720  -0.419  0.00  0.00    +0.000 C 
ATOM     10  N   UNL     1       2.985  -1.140   0.564  0.00  0.00    +0.000 N 
ATOM     11  H   UNL     1       2.691  -0.175   0.461  0.00  0.00    +0.000 HD
BRANCH   9  12
ATOM     12  C   UNL     1       4.413  -0.811  -1.386  0.00  0.00    +0.000 A 
ATOM     13  C   UNL     1       4.597  -1.260  -2.698  0.00  0.00    +0.000 A 
ATOM     14  C   UNL     1       5.313  -0.486  -3.611  0.00  0.00    +0.000 A 
ATOM     15  C   UNL     1       5.854   0.736  -3.214  0.00  0.00    +0.000 A 
ATOM     16  C   UNL     1       5.668   1.193  -1.908  0.00  0.00    +0.000 A 
ATOM     17  C   UNL     1       4.943   0.425  -0.991  0.00  0.00    +0.000 A 
ENDBRANCH   9  12
ENDBRANCH   1  10
BRANCH   1  18
ATOM     18  C   UNL     1       1.178  -2.757   0.969  0.00  0.00    +0.000 C 
ATOM     19  O   UNL     1       0.060  -2.244   0.865  0.00  0.00    +0.000 OA
ATOM     20  N   UNL     1       1.515  -4.017   0.498  0.00  0.00    +0.000 N 
ATOM     21  H   UNL     1       2.473  -4.339   0.628  0.00  0.00    +0.000 HD
BRANCH  20  22
ATOM     22  C   UNL     1       0.614  -4.888  -0.083  0.00  0.00    +0.000 A 
ATOM     23  C   UNL     1      -0.596  -4.582  -0.650  0.00  0.00    +0.000 A 
ATOM     24  N   UNL     1      -1.213  -5.768  -0.981  0.00  0.00    +0.000 N 
ATOM     25  C   UNL     1      -2.513  -5.871  -1.559  0.00  0.00    +0.000 A 
ATOM     26  N   UNL     1      -2.938  -4.781  -2.275  0.00  0.00    +0.000 NA
ATOM     27  C   UNL     1      -4.141  -4.851  -2.879  0.00  0.00    +0.000 A 
ATOM     28  C   UNL     1      -4.979  -5.944  -2.777  0.00  0.00    +0.000 A 
ATOM     29  C   UNL     1      -4.559  -7.025  -2.006  0.00  0.00    +0.000 A 
ATOM     30  C   UNL     1      -3.305  -7.008  -1.385  0.00  0.00    +0.000 A 
ATOM     31 CL   UNL     1      -2.952  -8.336  -0.341  0.00  0.00    +0.000 Cl
ATOM     32  N   UNL     1      -0.394  -6.829  -0.745  0.00  0.00    +0.000 NA
ATOM     33  C   UNL     1       0.717  -6.284  -0.239  0.00  0.00    +0.000 A 
ENDBRANCH  20  22
ENDBRANCH   1  18
TORSDOF 5
