REMARK  Name = 
REMARK  7 active torsions:
REMARK  status: ('A' for Active; 'I' for Inactive)
REMARK    1  A    between atoms: C_1  and  C_2
REMARK    2  A    between atoms: C_9  and  C_10
REMARK    3  A    between atoms: C_10  and  O_12
REMARK    4  A    between atoms: O_12  and  C_13
REMARK    5  A    between atoms: C_13  and  C_14
REMARK    6  A    between atoms: C_17  and  C_18
REMARK    7  A    between atoms: C_23  and  C_24
REMARK                            x       y       z     vdW  Elec       q    Type
REMARK                         _______ _______ _______ _____ _____    ______ ____
ROOT
ATOM      1  C   UNL     1       5.238  -7.175  -0.071  0.00  0.00    +0.000 C 
ENDROOT
BRANCH   1   2
ATOM      2  C   UNL     1       4.300  -8.289  -0.370  0.00  0.00    +0.000 A 
ATOM      3  C   UNL     1       4.051  -8.920  -1.567  0.00  0.00    +0.000 A 
ATOM      4  O   UNL     1       3.112  -9.880  -1.352  0.00  0.00    +0.000 OA
ATOM      5  C   UNL     1       2.829  -9.779  -0.014  0.00  0.00    +0.000 A 
ATOM      6  N   UNL     1       3.485  -8.821   0.603  0.00  0.00    +0.000 NA
BRANCH   5   7
ATOM      7  C   UNL     1       1.833 -10.708   0.502  0.00  0.00    +0.000 A 
ATOM      8  C   UNL     1       0.725 -11.011  -0.319  0.00  0.00    +0.000 A 
ATOM      9  C   UNL     1      -0.294 -11.860   0.112  0.00  0.00    +0.000 A 
ATOM     10  C   UNL     1      -0.226 -12.425   1.377  0.00  0.00    +0.000 A 
ATOM     11  C   UNL     1       0.861 -12.142   2.201  0.00  0.00    +0.000 A 
ATOM     12  C   UNL     1       1.911 -11.290   1.783  0.00  0.00    +0.000 A 
BRANCH  12  13
ATOM     13  C   UNL     1       3.046 -11.100   2.767  0.00  0.00    +0.000 C 
ATOM     14  F   UNL     1       4.148 -10.435   2.341  0.00  0.00    +0.000 F 
ATOM     15  F   UNL     1       2.632 -10.461   3.900  0.00  0.00    +0.000 F 
ATOM     16  F   UNL     1       3.525 -12.307   3.198  0.00  0.00    +0.000 F 
ENDBRANCH  12  13
ENDBRANCH   5   7
ENDBRANCH   1   2
BRANCH   1  17
ATOM     17  O   UNL     1       4.587  -5.895  -0.111  0.00  0.00    +0.000 OA
BRANCH  17  18
ATOM     18  C   UNL     1       4.363  -5.430  -1.370  0.00  0.00    +0.000 C 
ATOM     19  O   UNL     1       4.723  -6.006  -2.388  0.00  0.00    +0.000 OA
BRANCH  18  28
ATOM     20  C   UNL     1       0.679  -0.158  -0.005  0.00  0.00    +0.000 C 
ATOM     21  C   UNL     1       1.286  -0.596  -1.300  0.00  0.00    +0.000 A 
ATOM     22  C   UNL     1       1.162   0.100  -2.441  0.00  0.00    +0.000 A 
ATOM     23  C   UNL     1       1.829  -0.316  -3.642  0.00  0.00    +0.000 A 
ATOM     24  C   UNL     1       2.609  -1.398  -3.628  0.00  0.00    +0.000 A 
ATOM     25  N   UNL     1       2.758  -2.182  -2.488  0.00  0.00    +0.000 N 
ATOM     26  C   UNL     1       3.614  -3.277  -2.546  0.00  0.00    +0.000 A 
ATOM     27  O   UNL     1       4.350  -3.509  -3.506  0.00  0.00    +0.000 OA
ATOM     28  C   UNL     1       3.626  -4.155  -1.354  0.00  0.00    +0.000 A 
ATOM     29  C   UNL     1       2.896  -3.754  -0.304  0.00  0.00    +0.000 A 
ATOM     30  N   UNL     1       2.162  -2.600  -0.236  0.00  0.00    +0.000 NA
ATOM     31  C   UNL     1       2.097  -1.865  -1.304  0.00  0.00    +0.000 A 
ENDBRANCH  18  28
ENDBRANCH  17  18
ENDBRANCH   1  17
TORSDOF 6
