REMARK  Name = 
REMARK  6 active torsions:
REMARK  status: ('A' for Active; 'I' for Inactive)
REMARK    1  A    between atoms: C_2  and  C_17
REMARK    2  A    between atoms: N_3  and  C_4
REMARK    3  A    between atoms: C_4  and  C_5
REMARK    4  A    between atoms: N_9  and  C_10
REMARK    5  A    between atoms: C_10  and  C_11
REMARK    6  A    between atoms: N_19  and  C_20
REMARK                            x       y       z     vdW  Elec       q    Type
REMARK                         _______ _______ _______ _____ _____    ______ ____
ROOT
ATOM      1  O   UNL     1       1.094  -0.009   0.136  0.00  0.00    +0.000 OA
ATOM      2  C   UNL     1       2.315   0.007   0.259  0.00  0.00    +0.000 C 
ATOM      3  N   UNL     1       3.072  -1.141   0.360  0.00  0.00    +0.000 N 
ATOM      4  H   UNL     1       4.067  -1.107   0.187  0.00  0.00    +0.000 HD
ENDROOT
BRANCH   2   5
ATOM      5  C   UNL     1       3.083   1.295   0.250  0.00  0.00    +0.000 A 
ATOM      6  C   UNL     1       2.469   2.397  -0.241  0.00  0.00    +0.000 A 
ATOM      7  N   UNL     1       3.126   3.622  -0.314  0.00  0.00    +0.000 N 
ATOM      8  C   UNL     1       4.430   3.797   0.176  0.00  0.00    +0.000 A 
ATOM      9  O   UNL     1       5.055   4.853   0.232  0.00  0.00    +0.000 OA
ATOM     10  C   UNL     1       5.073   2.583   0.746  0.00  0.00    +0.000 A 
ATOM     11  C   UNL     1       4.424   1.415   0.777  0.00  0.00    +0.000 A 
BRANCH   7  12
ATOM     12  C   UNL     1       2.509   4.760  -0.922  0.00  0.00    +0.000 A 
ATOM     13  C   UNL     1       1.305   5.276  -0.430  0.00  0.00    +0.000 A 
ATOM     14  C   UNL     1       0.797   6.469  -0.955  0.00  0.00    +0.000 A 
ATOM     15  C   UNL     1       1.461   7.125  -1.996  0.00  0.00    +0.000 A 
ATOM     16  C   UNL     1       2.626   6.580  -2.530  0.00  0.00    +0.000 A 
ATOM     17  C   UNL     1       3.145   5.410  -1.989  0.00  0.00    +0.000 A 
ATOM     18  F   UNL     1       4.241   4.873  -2.549  0.00  0.00    +0.000 F 
ENDBRANCH   7  12
ENDBRANCH   2   5
BRANCH   3  19
ATOM     19  C   UNL     1       2.407  -2.415   0.245  0.00  0.00    +0.000 C 
BRANCH  19  20
ATOM     20  C   UNL     1       3.366  -3.534   0.420  0.00  0.00    +0.000 A 
ATOM     21  C   UNL     1       4.078  -4.220  -0.549  0.00  0.00    +0.000 A 
ATOM     22  C   UNL     1       4.729  -5.259   0.128  0.00  0.00    +0.000 A 
ATOM     23  N   UNL     1       4.471  -5.248   1.433  0.00  0.00    +0.000 NA
ATOM     24  N   UNL     1       3.643  -4.187   1.606  0.00  0.00    +0.000 N 
BRANCH  24  25
ATOM     25  C   UNL     1       3.101  -3.965   2.948  0.00  0.00    +0.000 C 
BRANCH  25  26
ATOM     26  C   UNL     1       3.954  -3.025   3.765  0.00  0.00    +0.000 A 
ATOM     27  C   UNL     1       3.401  -1.847   4.287  0.00  0.00    +0.000 A 
ATOM     28  C   UNL     1       4.208  -0.914   4.941  0.00  0.00    +0.000 A 
ATOM     29  C   UNL     1       5.566  -1.166   5.119  0.00  0.00    +0.000 A 
ATOM     30  C   UNL     1       6.111  -2.373   4.687  0.00  0.00    +0.000 A 
ATOM     31  C   UNL     1       5.308  -3.301   4.020  0.00  0.00    +0.000 A 
ENDBRANCH  25  26
ENDBRANCH  24  25
ENDBRANCH  19  20
ENDBRANCH   3  19
TORSDOF 6
