REMARK  Name = 
REMARK  8 active torsions:
REMARK  status: ('A' for Active; 'I' for Inactive)
REMARK    1  A    between atoms: C_1  and  O_2
REMARK    2  A    between atoms: O_2  and  C_3
REMARK    3  A    between atoms: C_6  and  C_7
REMARK    4  A    between atoms: C_7  and  C_9
REMARK    5  A    between atoms: C_14  and  C_15
REMARK    6  A    between atoms: N_17  and  C_18
REMARK    7  A    between atoms: C_20  and  C_21
REMARK    8  A    between atoms: C_21  and  O_22
REMARK                            x       y       z     vdW  Elec       q    Type
REMARK                         _______ _______ _______ _____ _____    ______ ____
ROOT
ATOM      1  C   UNL     1       5.212   4.716  -3.666  0.00  0.00    +0.000 A 
ATOM      2  C   UNL     1       5.231   5.701  -2.656  0.00  0.00    +0.000 A 
ATOM      3  C   UNL     1       4.937   7.036  -2.941  0.00  0.00    +0.000 A 
ATOM      4  C   UNL     1       4.659   7.417  -4.245  0.00  0.00    +0.000 A 
ATOM      5  C   UNL     1       4.680   6.462  -5.261  0.00  0.00    +0.000 A 
ATOM      6  C   UNL     1       4.953   5.103  -4.988  0.00  0.00    +0.000 A 
ENDROOT
BRANCH   6   7
ATOM      7  C   UNL     1       4.972   4.222  -6.194  0.00  0.00    +0.000 C 
ATOM      8  O   UNL     1       5.464   4.702  -7.213  0.00  0.00    +0.000 OA
ATOM      9  N   UNL     1       4.311   3.009  -6.108  0.00  0.00    +0.000 N 
ATOM     10  H   UNL     1       3.896   2.756  -5.222  0.00  0.00    +0.000 HD
BRANCH   9  11
ATOM     11  C   UNL     1       4.116   2.091  -7.166  0.00  0.00    +0.000 A 
ATOM     12  C   UNL     1       4.760   2.195  -8.406  0.00  0.00    +0.000 A 
ATOM     13  C   UNL     1       4.484   1.307  -9.462  0.00  0.00    +0.000 A 
ATOM     14  C   UNL     1       3.524   0.311  -9.264  0.00  0.00    +0.000 A 
ATOM     15  C   UNL     1       2.916   0.180  -8.021  0.00  0.00    +0.000 A 
ATOM     16  F   UNL     1       2.007  -0.787  -7.836  0.00  0.00    +0.000 F 
ATOM     17  C   UNL     1       3.213   1.045  -6.969  0.00  0.00    +0.000 A 
BRANCH  13  18
ATOM     18  C   UNL     1       5.169   1.508 -10.788  0.00  0.00    +0.000 C 
BRANCH  18  19
ATOM     19  O   UNL     1       5.337   0.278 -11.479  0.00  0.00    +0.000 OA
ATOM     20  H   UNL     1       5.825  -0.311 -10.879  0.00  0.00    +0.000 HD
ENDBRANCH  18  19
ENDBRANCH  13  18
ENDBRANCH   9  11
ENDBRANCH   6   7
BRANCH   1  21
ATOM     21  C   UNL     1       5.565   3.322  -3.291  0.00  0.00    +0.000 C 
ATOM     22  O   UNL     1       6.231   2.638  -4.060  0.00  0.00    +0.000 OA
BRANCH  21  26
ATOM     23  C   UNL     1       4.500   1.618   0.518  0.00  0.00    +0.000 A 
ATOM     24  C   UNL     1       5.621   1.172  -0.187  0.00  0.00    +0.000 A 
ATOM     25  C   UNL     1       5.946   1.720  -1.432  0.00  0.00    +0.000 A 
ATOM     26  C   UNL     1       5.151   2.730  -1.987  0.00  0.00    +0.000 A 
ATOM     27  C   UNL     1       4.002   3.144  -1.309  0.00  0.00    +0.000 A 
ATOM     28  C   UNL     1       3.696   2.602  -0.061  0.00  0.00    +0.000 A 
ATOM     29  F   UNL     1       2.607   3.077   0.560  0.00  0.00    +0.000 F 
BRANCH  23  31
ATOM     30  C   UNL     1       3.207   1.436   2.509  0.00  0.00    +0.000 C 
ATOM     31  O   UNL     1       4.322   1.014   1.733  0.00  0.00    +0.000 OA
ENDBRANCH  23  31
ENDBRANCH  21  26
ENDBRANCH   1  21
TORSDOF 7
