REMARK  Name = 
REMARK  6 active torsions:
REMARK  status: ('A' for Active; 'I' for Inactive)
REMARK    1  A    between atoms: C_2  and  C_17
REMARK    2  A    between atoms: N_3  and  C_4
REMARK    3  A    between atoms: C_4  and  C_5
REMARK    4  A    between atoms: C_10  and  C_11
REMARK    5  A    between atoms: N_19  and  C_20
REMARK    6  A    between atoms: C_28  and  O_29
REMARK                            x       y       z     vdW  Elec       q    Type
REMARK                         _______ _______ _______ _____ _____    ______ ____
ROOT
ATOM      1  O   UNL     1       1.118   0.119   0.230  0.00  0.00    +0.000 OA
ATOM      2  C   UNL     1       2.347   0.130   0.257  0.00  0.00    +0.000 C 
ATOM      3  N   UNL     1       3.087  -1.013   0.473  0.00  0.00    +0.000 N 
ATOM      4  H   UNL     1       4.096  -0.979   0.347  0.00  0.00    +0.000 HD
ENDROOT
BRANCH   2   5
ATOM      5  C   UNL     1       3.156   1.334   0.059  0.00  0.00    +0.000 A 
ATOM      6  N   UNL     1       4.503   1.282   0.042  0.00  0.00    +0.000 NA
ATOM      7  N   UNL     1       4.908   2.571  -0.073  0.00  0.00    +0.000 N 
ATOM      8  C   UNL     1       3.842   3.432  -0.213  0.00  0.00    +0.000 A 
ATOM      9  C   UNL     1       2.716   2.659  -0.130  0.00  0.00    +0.000 A 
BRANCH   7  10
ATOM     10  C   UNL     1       6.291   2.894  -0.015  0.00  0.00    +0.000 A 
ATOM     11  C   UNL     1       6.727   4.227  -0.024  0.00  0.00    +0.000 A 
ATOM     12  C   UNL     1       8.091   4.517   0.071  0.00  0.00    +0.000 A 
ATOM     13  C   UNL     1       9.021   3.484   0.166  0.00  0.00    +0.000 A 
ATOM     14  C   UNL     1       8.584   2.164   0.166  0.00  0.00    +0.000 A 
ATOM     15  F   UNL     1       9.482   1.175   0.256  0.00  0.00    +0.000 F 
ATOM     16  C   UNL     1       7.233   1.858   0.077  0.00  0.00    +0.000 A 
ENDBRANCH   7  10
BRANCH   9  17
ATOM     17  O   UNL     1       1.462   3.131  -0.197  0.00  0.00    +0.000 OA
ATOM     18  H   UNL     1       1.452   4.087  -0.336  0.00  0.00    +0.000 HD
ENDBRANCH   9  17
ENDBRANCH   2   5
BRANCH   3  19
ATOM     19  C   UNL     1       2.422  -2.284   0.524  0.00  0.00    +0.000 C 
BRANCH  19  20
ATOM     20  C   UNL     1       3.329  -3.489   0.657  0.00  0.00    +0.000 A 
ATOM     21  N   UNL     1       4.670  -3.225   0.547  0.00  0.00    +0.000 NA
ATOM     22  C   UNL     1       5.529  -4.249   0.699  0.00  0.00    +0.000 A 
ATOM     23  C   UNL     1       5.128  -5.545   0.945  0.00  0.00    +0.000 A 
ATOM     24  C   UNL     1       3.761  -5.809   1.025  0.00  0.00    +0.000 A 
ATOM     25  C   UNL     1       2.802  -4.786   0.883  0.00  0.00    +0.000 A 
BRANCH  25  26
ATOM     26  C   UNL     1       1.348  -5.098   1.039  0.00  0.00    +0.000 A 
ATOM     27  C   UNL     1       0.903  -6.028   2.000  0.00  0.00    +0.000 A 
ATOM     28  C   UNL     1      -0.461  -6.261   2.228  0.00  0.00    +0.000 A 
ATOM     29  C   UNL     1      -1.421  -5.544   1.525  0.00  0.00    +0.000 A 
ATOM     30  C   UNL     1      -1.018  -4.653   0.542  0.00  0.00    +0.000 A 
ATOM     31  C   UNL     1       0.344  -4.478   0.273  0.00  0.00    +0.000 A 
ENDBRANCH  25  26
ENDBRANCH  19  20
ENDBRANCH   3  19
TORSDOF 6
