REMARK  Name = 
REMARK  6 active torsions:
REMARK  status: ('A' for Active; 'I' for Inactive)
REMARK    1  A    between atoms: C_1  and  N_2
REMARK    2  A    between atoms: C_4  and  C_5
REMARK    3  A    between atoms: C_9  and  C_10
REMARK    4  A    between atoms: N_12  and  C_13
REMARK    5  A    between atoms: C_14  and  C_15
REMARK    6  A    between atoms: N_19  and  C_20
REMARK                            x       y       z     vdW  Elec       q    Type
REMARK                         _______ _______ _______ _____ _____    ______ ____
ROOT
ATOM      1  C   UNL     1       6.223  -1.337   1.296  0.00  0.00    +0.000 C 
ATOM      2  O   UNL     1       5.974  -0.581   2.228  0.00  0.00    +0.000 OA
ATOM      3  N   UNL     1       7.488  -1.872   1.041  0.00  0.00    +0.000 N 
ATOM      4  H   UNL     1       7.674  -2.020   0.056  0.00  0.00    +0.000 HD
ENDROOT
BRANCH   3   5
ATOM      5  C   UNL     1       8.579  -1.618   1.868  0.00  0.00    +0.000 A 
ATOM      6  C   UNL     1       8.607  -1.808   3.206  0.00  0.00    +0.000 A 
ATOM      7  C   UNL     1       9.751  -1.341   4.035  0.00  0.00    +0.000 A 
ATOM      8  O   UNL     1       9.742  -1.544   5.248  0.00  0.00    +0.000 OA
ATOM      9  N   UNL     1      10.797  -0.710   3.325  0.00  0.00    +0.000 N 
ATOM     10  C   UNL     1      10.765  -0.602   1.940  0.00  0.00    +0.000 A 
ATOM     11  C   UNL     1       9.734  -1.049   1.214  0.00  0.00    +0.000 A 
BRANCH   9  12
ATOM     12  C   UNL     1      11.922  -0.211   4.056  0.00  0.00    +0.000 A 
ATOM     13  C   UNL     1      13.221  -0.485   3.607  0.00  0.00    +0.000 A 
ATOM     14  C   UNL     1      14.328  -0.015   4.314  0.00  0.00    +0.000 A 
ATOM     15  C   UNL     1      14.147   0.766   5.453  0.00  0.00    +0.000 A 
ATOM     16  C   UNL     1      12.860   1.062   5.897  0.00  0.00    +0.000 A 
ATOM     17  C   UNL     1      11.750   0.564   5.210  0.00  0.00    +0.000 A 
ENDBRANCH   9  12
BRANCH   6  18
ATOM     18  C   UNL     1       7.402  -2.412   3.908  0.00  0.00    +0.000 C 
ATOM     19  N   UNL     1       6.402  -2.913   4.490  0.00  0.00    +0.000 NA
ENDBRANCH   6  18
ENDBRANCH   3   5
BRANCH   1  24
ATOM     20  C   UNL     1       3.331  -0.722  -1.052  0.00  0.00    +0.000 A 
ATOM     21  C   UNL     1       3.223  -1.968  -1.685  0.00  0.00    +0.000 A 
ATOM     22  C   UNL     1       4.068  -3.027  -1.329  0.00  0.00    +0.000 A 
ATOM     23  C   UNL     1       5.053  -2.841  -0.357  0.00  0.00    +0.000 A 
ATOM     24  C   UNL     1       5.178  -1.598   0.271  0.00  0.00    +0.000 A 
ATOM     25  C   UNL     1       4.302  -0.553  -0.058  0.00  0.00    +0.000 A 
BRANCH  20  29
ATOM     26  C   UNL     1       0.543   3.395  -1.032  0.00  0.00    +0.000 C 
ATOM     27  N   UNL     1       1.257   2.208  -1.435  0.00  0.00    +0.000 N 
ATOM     28  C   UNL     1       2.011   1.388  -0.644  0.00  0.00    +0.000 A 
ATOM     29  C   UNL     1       2.479   0.380  -1.463  0.00  0.00    +0.000 A 
ATOM     30  C   UNL     1       1.943   0.700  -2.733  0.00  0.00    +0.000 A 
ATOM     31  N   UNL     1       1.202   1.811  -2.719  0.00  0.00    +0.000 NA
ENDBRANCH  20  29
ENDBRANCH   1  24
TORSDOF 5
