REMARK  Name = 
REMARK  5 active torsions:
REMARK  status: ('A' for Active; 'I' for Inactive)
REMARK    1  A    between atoms: C_2  and  C_14
REMARK    2  A    between atoms: N_3  and  C_4
REMARK    3  A    between atoms: C_4  and  C_5
REMARK    4  A    between atoms: C_21  and  C_22
REMARK    5  A    between atoms: C_22  and  C_24
REMARK                            x       y       z     vdW  Elec       q    Type
REMARK                         _______ _______ _______ _____ _____    ______ ____
ROOT
ATOM      1  C   UNL     1       3.019   1.165  -0.014  0.00  0.00    +0.000 A 
ATOM      2  C   UNL     1       2.584   2.291   0.720  0.00  0.00    +0.000 A 
ATOM      3  C   UNL     1       3.183   3.532   0.544  0.00  0.00    +0.000 A 
ATOM      4  F   UNL     1       2.767   4.574   1.274  0.00  0.00    +0.000 F 
ATOM      5  C   UNL     1       4.208   3.685  -0.371  0.00  0.00    +0.000 A 
ATOM      6  F   UNL     1       4.794   4.878  -0.540  0.00  0.00    +0.000 F 
ATOM      7  C   UNL     1       4.637   2.604  -1.132  0.00  0.00    +0.000 A 
ATOM      8  C   UNL     1       4.066   1.328  -0.949  0.00  0.00    +0.000 A 
ENDROOT
BRANCH   1  10
ATOM      9  O   UNL     1       1.120  -0.020   0.696  0.00  0.00    +0.000 OA
ATOM     10  C   UNL     1       2.288  -0.097   0.328  0.00  0.00    +0.000 C 
ATOM     11  N   UNL     1       2.983  -1.282   0.323  0.00  0.00    +0.000 N 
ATOM     12  H   UNL     1       3.878  -1.348  -0.140  0.00  0.00    +0.000 HD
BRANCH  11  13
ATOM     13  C   UNL     1       2.351  -2.540   0.664  0.00  0.00    +0.000 C 
BRANCH  13  14
ATOM     14  C   UNL     1       2.562  -2.882   2.108  0.00  0.00    +0.000 A 
ATOM     15  C   UNL     1       1.641  -2.494   3.116  0.00  0.00    +0.000 A 
ATOM     16  C   UNL     1       1.807  -2.781   4.498  0.00  0.00    +0.000 A 
ATOM     17  C   UNL     1       2.917  -3.476   5.008  0.00  0.00    +0.000 A 
ATOM     18  C   UNL     1       3.851  -3.871   4.035  0.00  0.00    +0.000 A 
ATOM     19  N   UNL     1       5.001  -4.538   4.193  0.00  0.00    +0.000 NA
ATOM     20  O   UNL     1       5.537  -4.672   2.925  0.00  0.00    +0.000 OA
ATOM     21  N   UNL     1       4.737  -4.083   1.961  0.00  0.00    +0.000 NA
ATOM     22  C   UNL     1       3.680  -3.581   2.615  0.00  0.00    +0.000 A 
ENDBRANCH  13  14
ENDBRANCH  11  13
ENDBRANCH   1  10
BRANCH   8  23
ATOM     23  C   UNL     1       4.542   0.239  -1.842  0.00  0.00    +0.000 C 
ATOM     24  O   UNL     1       3.741  -0.593  -2.253  0.00  0.00    +0.000 OA
BRANCH  23  25
ATOM     25  C   UNL     1       5.968   0.128  -2.262  0.00  0.00    +0.000 A 
ATOM     26  C   UNL     1       6.254  -0.407  -3.525  0.00  0.00    +0.000 A 
ATOM     27  C   UNL     1       7.579  -0.562  -3.938  0.00  0.00    +0.000 A 
ATOM     28  C   UNL     1       8.621  -0.187  -3.092  0.00  0.00    +0.000 A 
ATOM     29  C   UNL     1       8.342   0.348  -1.835  0.00  0.00    +0.000 A 
ATOM     30  C   UNL     1       7.019   0.498  -1.414  0.00  0.00    +0.000 A 
ENDBRANCH  23  25
ENDBRANCH   8  23
TORSDOF 5
