REMARK  Name = 
REMARK  4 active torsions:
REMARK  status: ('A' for Active; 'I' for Inactive)
REMARK    1  A    between atoms: C_2  and  C_16
REMARK    2  A    between atoms: N_3  and  C_4
REMARK    3  A    between atoms: N_12  and  C_13
REMARK    4  A    between atoms: N_18  and  C_19
REMARK                            x       y       z     vdW  Elec       q    Type
REMARK                         _______ _______ _______ _____ _____    ______ ____
ROOT
ATOM      1  O   UNL     1       0.948   0.104   0.351  0.00  0.00    +0.000 OA
ATOM      2  C   UNL     1       2.158   0.104   0.137  0.00  0.00    +0.000 C 
ATOM      3  N   UNL     1       2.796  -0.622  -0.852  0.00  0.00    +0.000 N 
ATOM      4  H   UNL     1       3.800  -0.710  -0.802  0.00  0.00    +0.000 HD
ENDROOT
BRANCH   3   5
ATOM      5  C   UNL     1       2.123  -1.446  -1.791  0.00  0.00    +0.000 A 
ATOM      6  C   UNL     1       0.749  -1.337  -2.034  0.00  0.00    +0.000 A 
ATOM      7  C   UNL     1       0.063  -2.227  -2.864  0.00  0.00    +0.000 A 
ATOM      8  C   UNL     1       0.809  -3.234  -3.467  0.00  0.00    +0.000 A 
ATOM      9  C   UNL     1       2.188  -3.338  -3.309  0.00  0.00    +0.000 A 
ATOM     10  C   UNL     1       2.866  -2.418  -2.480  0.00  0.00    +0.000 A 
ATOM     11  C   UNL     1       2.547  -4.463  -4.088  0.00  0.00    +0.000 A 
ATOM     12  N   UNL     1       1.501  -5.042  -4.683  0.00  0.00    +0.000 NA
ATOM     13  N   UNL     1       0.447  -4.286  -4.279  0.00  0.00    +0.000 N 
BRANCH  13  14
ATOM     14  C   UNL     1      -0.915  -4.625  -4.677  0.00  0.00    +0.000 C 
ATOM     15  F   UNL     1      -1.705  -4.869  -3.595  0.00  0.00    +0.000 F 
ATOM     16  F   UNL     1      -1.502  -3.602  -5.359  0.00  0.00    +0.000 F 
ENDBRANCH  13  14
ENDBRANCH   3   5
BRANCH   2  17
ATOM     17  C   UNL     1       3.040   0.912   1.034  0.00  0.00    +0.000 A 
ATOM     18  C   UNL     1       2.542   1.160   2.259  0.00  0.00    +0.000 A 
ATOM     19  N   UNL     1       3.131   2.041   3.168  0.00  0.00    +0.000 N 
ATOM     20  C   UNL     1       4.321   2.712   2.810  0.00  0.00    +0.000 A 
ATOM     21  O   UNL     1       4.981   3.477   3.510  0.00  0.00    +0.000 OA
ATOM     22  C   UNL     1       4.851   2.438   1.440  0.00  0.00    +0.000 A 
ATOM     23  C   UNL     1       4.244   1.579   0.611  0.00  0.00    +0.000 A 
BRANCH  19  24
ATOM     24  C   UNL     1       2.494   2.312   4.445  0.00  0.00    +0.000 A 
ATOM     25  C   UNL     1       2.628   3.562   5.073  0.00  0.00    +0.000 A 
ATOM     26  C   UNL     1       1.994   3.845   6.291  0.00  0.00    +0.000 A 
ATOM     27  C   UNL     1       1.199   2.886   6.910  0.00  0.00    +0.000 A 
ATOM     28  C   UNL     1       1.039   1.644   6.309  0.00  0.00    +0.000 A 
ATOM     29  C   UNL     1       1.680   1.365   5.098  0.00  0.00    +0.000 A 
ATOM     30  F   UNL     1       1.527   0.123   4.612  0.00  0.00    +0.000 F 
ENDBRANCH  19  24
ENDBRANCH   2  17
TORSDOF 4
