REMARK  Name = 
REMARK  4 active torsions:
REMARK  status: ('A' for Active; 'I' for Inactive)
REMARK    1  A    between atoms: C_2  and  C_16
REMARK    2  A    between atoms: N_3  and  C_4
REMARK    3  A    between atoms: N_8  and  C_9
REMARK    4  A    between atoms: N_18  and  C_19
REMARK                            x       y       z     vdW  Elec       q    Type
REMARK                         _______ _______ _______ _____ _____    ______ ____
ROOT
ATOM      1  O   UNL     1       0.902  -0.109   0.205  0.00  0.00    +0.000 OA
ATOM      2  C   UNL     1       2.109  -0.015  -0.010  0.00  0.00    +0.000 C 
ATOM      3  N   UNL     1       2.793  -0.659  -1.025  0.00  0.00    +0.000 N 
ATOM      4  H   UNL     1       3.802  -0.698  -0.969  0.00  0.00    +0.000 HD
ENDROOT
BRANCH   3   5
ATOM      5  C   UNL     1       2.184  -1.398  -2.076  0.00  0.00    +0.000 A 
ATOM      6  C   UNL     1       0.803  -1.276  -2.351  0.00  0.00    +0.000 A 
ATOM      7  C   UNL     1       0.336  -2.083  -3.398  0.00  0.00    +0.000 A 
ATOM      8  N   UNL     1      -0.904  -2.201  -3.898  0.00  0.00    +0.000 NA
ATOM      9  N   UNL     1      -0.794  -3.122  -4.888  0.00  0.00    +0.000 N 
ATOM     10  C   UNL     1       0.481  -3.607  -5.052  0.00  0.00    +0.000 A 
ATOM     11  C   UNL     1       1.230  -2.947  -4.117  0.00  0.00    +0.000 A 
ATOM     12  C   UNL     1       2.595  -3.091  -3.910  0.00  0.00    +0.000 A 
ATOM     13  C   UNL     1       3.039  -2.258  -2.852  0.00  0.00    +0.000 A 
BRANCH   9  14
ATOM     14  C   UNL     1      -1.966  -3.493  -5.673  0.00  0.00    +0.000 C 
ATOM     15  F   UNL     1      -1.764  -3.254  -6.998  0.00  0.00    +0.000 F 
ATOM     16  F   UNL     1      -2.236  -4.822  -5.557  0.00  0.00    +0.000 F 
ENDBRANCH   9  14
ENDBRANCH   3   5
BRANCH   2  17
ATOM     17  C   UNL     1       2.947   0.811   0.918  0.00  0.00    +0.000 A 
ATOM     18  C   UNL     1       2.434   1.025   2.143  0.00  0.00    +0.000 A 
ATOM     19  N   UNL     1       3.012   1.890   3.079  0.00  0.00    +0.000 N 
ATOM     20  C   UNL     1       4.202   2.578   2.748  0.00  0.00    +0.000 A 
ATOM     21  O   UNL     1       4.858   3.324   3.472  0.00  0.00    +0.000 OA
ATOM     22  C   UNL     1       4.742   2.344   1.376  0.00  0.00    +0.000 A 
ATOM     23  C   UNL     1       4.146   1.506   0.521  0.00  0.00    +0.000 A 
BRANCH  19  24
ATOM     24  C   UNL     1       2.384   2.105   4.370  0.00  0.00    +0.000 A 
ATOM     25  C   UNL     1       2.532   3.316   5.069  0.00  0.00    +0.000 A 
ATOM     26  C   UNL     1       1.922   3.522   6.312  0.00  0.00    +0.000 A 
ATOM     27  C   UNL     1       1.150   2.518   6.873  0.00  0.00    +0.000 A 
ATOM     28  F   UNL     1       0.574   2.710   8.067  0.00  0.00    +0.000 F 
ATOM     29  C   UNL     1       0.967   1.316   6.207  0.00  0.00    +0.000 A 
ATOM     30  C   UNL     1       1.576   1.112   4.962  0.00  0.00    +0.000 A 
ENDBRANCH  19  24
ENDBRANCH   2  17
TORSDOF 4
