REMARK  Name = 
REMARK  4 active torsions:
REMARK  status: ('A' for Active; 'I' for Inactive)
REMARK    1  A    between atoms: C_2  and  C_24
REMARK    2  A    between atoms: N_3  and  C_4
REMARK    3  A    between atoms: C_9  and  C_10
REMARK    4  A    between atoms: N_12  and  C_13
REMARK                            x       y       z     vdW  Elec       q    Type
REMARK                         _______ _______ _______ _____ _____    ______ ____
ROOT
ATOM      1  C   UNL     1       2.173  -1.821   1.606  0.00  0.00    +0.000 A 
ATOM      2  C   UNL     1       1.066  -2.531   1.125  0.00  0.00    +0.000 A 
ATOM      3  C   UNL     1       0.454  -3.518   1.890  0.00  0.00    +0.000 A 
ATOM      4  C   UNL     1       0.948  -3.803   3.151  0.00  0.00    +0.000 A 
ATOM      5  F   UNL     1       0.321  -4.755   3.860  0.00  0.00    +0.000 F 
ATOM      6  C   UNL     1       2.062  -3.125   3.666  0.00  0.00    +0.000 A 
ATOM      7  C   UNL     1       2.696  -2.153   2.866  0.00  0.00    +0.000 A 
ENDROOT
BRANCH   6   8
ATOM      8  C   UNL     1       2.520  -3.385   5.016  0.00  0.00    +0.000 A 
ATOM      9  C   UNL     1       1.734  -3.807   6.062  0.00  0.00    +0.000 A 
ATOM     10  N   UNL     1       2.578  -3.917   7.142  0.00  0.00    +0.000 N 
ATOM     11  N   UNL     1       3.820  -3.525   6.756  0.00  0.00    +0.000 NA
ATOM     12  N   UNL     1       3.792  -3.199   5.468  0.00  0.00    +0.000 NA
BRANCH  10  13
ATOM     13  C   UNL     1       2.283  -4.355   8.455  0.00  0.00    +0.000 A 
ATOM     14  C   UNL     1       1.012  -4.829   8.799  0.00  0.00    +0.000 A 
ATOM     15  F   UNL     1       0.007  -4.886   7.915  0.00  0.00    +0.000 F 
ATOM     16  C   UNL     1       0.728  -5.281  10.090  0.00  0.00    +0.000 A 
ATOM     17  C   UNL     1       1.716  -5.264  11.068  0.00  0.00    +0.000 A 
ATOM     18  C   UNL     1       2.983  -4.787  10.747  0.00  0.00    +0.000 A 
ATOM     19  C   UNL     1       3.262  -4.338   9.452  0.00  0.00    +0.000 A 
ATOM     20  F   UNL     1       4.501  -3.882   9.224  0.00  0.00    +0.000 F 
ENDBRANCH  10  13
ENDBRANCH   6   8
BRANCH   1  23
ATOM     21  O   UNL     1       0.981  -0.271  -0.550  0.00  0.00    +0.000 OA
ATOM     22  C   UNL     1       2.144  -0.105  -0.185  0.00  0.00    +0.000 C 
ATOM     23  N   UNL     1       2.766  -0.775   0.861  0.00  0.00    +0.000 N 
ATOM     24  H   UNL     1       3.664  -0.403   1.158  0.00  0.00    +0.000 HD
BRANCH  22  25
ATOM     25  C   UNL     1       2.947   0.929  -0.897  0.00  0.00    +0.000 A 
ATOM     26  C   UNL     1       2.315   1.679  -1.871  0.00  0.00    +0.000 A 
ATOM     27  C   UNL     1       3.106   2.580  -2.534  0.00  0.00    +0.000 A 
ATOM     28  N   UNL     1       4.412   2.737  -2.269  0.00  0.00    +0.000 NA
ATOM     29  C   UNL     1       4.922   1.960  -1.296  0.00  0.00    +0.000 A 
ATOM     30  N   UNL     1       4.255   1.050  -0.569  0.00  0.00    +0.000 NA
ENDBRANCH  22  25
ENDBRANCH   1  23
TORSDOF 4
