REMARK  Name = 
REMARK  6 active torsions:
REMARK  status: ('A' for Active; 'I' for Inactive)
REMARK    1  A    between atoms: C_2  and  C_18
REMARK    2  A    between atoms: N_3  and  C_4
REMARK    3  A    between atoms: C_4  and  C_5
REMARK    4  A    between atoms: C_10  and  O_11
REMARK    5  A    between atoms: O_11  and  C_12
REMARK    6  A    between atoms: C_24  and  N_25
REMARK                            x       y       z     vdW  Elec       q    Type
REMARK                         _______ _______ _______ _____ _____    ______ ____
ROOT
ATOM      1  O   UNL     1       0.723   0.926  -1.208  0.00  0.00    +0.000 OA
ATOM      2  C   UNL     1       1.932   0.790  -1.448  0.00  0.00    +0.000 C 
ATOM      3  N   UNL     1       2.802   1.529  -0.630  0.00  0.00    +0.000 N 
ATOM      4  H   UNL     1       3.783   1.324  -0.560  0.00  0.00    +0.000 HD
ENDROOT
BRANCH   2   5
ATOM      5  C   UNL     1       2.280  -0.130  -2.659  0.00  0.00    +0.000 A 
ATOM      6  C   UNL     1       1.079  -0.359  -3.427  0.00  0.00    +0.000 A 
ATOM      7  C   UNL     1       1.011  -1.081  -4.623  0.00  0.00    +0.000 A 
ATOM      8  F   UNL     1      -0.166  -1.230  -5.253  0.00  0.00    +0.000 F 
ATOM      9  C   UNL     1       2.130  -1.622  -5.173  0.00  0.00    +0.000 A 
ATOM     10  C   UNL     1       3.316  -1.464  -4.469  0.00  0.00    +0.000 A 
ATOM     11  C   UNL     1       3.432  -0.756  -3.212  0.00  0.00    +0.000 A 
BRANCH  11  12
ATOM     12  N   UNL     1       4.761  -0.849  -2.697  0.00  0.00    +0.000 N 
ATOM     13  C   UNL     1       5.279  -0.573  -1.459  0.00  0.00    +0.000 A 
ATOM     14  C   UNL     1       6.642  -0.780  -1.514  0.00  0.00    +0.000 A 
ATOM     15  C   UNL     1       6.865  -1.334  -2.771  0.00  0.00    +0.000 A 
ATOM     16  N   UNL     1       5.743  -1.400  -3.480  0.00  0.00    +0.000 NA
ENDBRANCH  11  12
ENDBRANCH   2   5
BRANCH   3  17
ATOM     17  C   UNL     1       2.203   2.356   0.459  0.00  0.00    +0.000 C 
BRANCH  17  18
ATOM     18  C   UNL     1       3.027   3.389   1.240  0.00  0.00    +0.000 A 
ATOM     19  C   UNL     1       2.337   4.465   1.857  0.00  0.00    +0.000 A 
ATOM     20  C   UNL     1       2.985   5.404   2.687  0.00  0.00    +0.000 A 
ATOM     21  C   UNL     1       4.350   5.304   2.924  0.00  0.00    +0.000 A 
ATOM     22  C   UNL     1       5.045   4.239   2.365  0.00  0.00    +0.000 A 
ATOM     23  C   UNL     1       4.378   3.265   1.582  0.00  0.00    +0.000 A 
BRANCH  23  24
ATOM     24  O   UNL     1       5.134   2.195   1.212  0.00  0.00    +0.000 OA
BRANCH  24  25
ATOM     25  C   UNL     1       4.997   1.046   1.965  0.00  0.00    +0.000 A 
ATOM     26  C   UNL     1       3.989   0.825   2.899  0.00  0.00    +0.000 A 
ATOM     27  C   UNL     1       3.785  -0.469   3.367  0.00  0.00    +0.000 A 
ATOM     28  C   UNL     1       4.626  -1.485   2.944  0.00  0.00    +0.000 A 
ATOM     29  C   UNL     1       5.665  -1.157   2.089  0.00  0.00    +0.000 A 
ATOM     30  N   UNL     1       5.856   0.077   1.588  0.00  0.00    +0.000 NA
ENDBRANCH  24  25
ENDBRANCH  23  24
ENDBRANCH  17  18
ENDBRANCH   3  17
TORSDOF 6
