REMARK  Name = 
REMARK  7 active torsions:
REMARK  status: ('A' for Active; 'I' for Inactive)
REMARK    1  A    between atoms: C_1  and  O_2
REMARK    2  A    between atoms: O_2  and  C_3
REMARK    3  A    between atoms: C_6  and  C_7
REMARK    4  A    between atoms: C_7  and  N_8
REMARK    5  A    between atoms: C_7  and  C_22
REMARK    6  A    between atoms: C_9  and  C_11
REMARK    7  A    between atoms: N_15  and  C_16
REMARK                            x       y       z     vdW  Elec       q    Type
REMARK                         _______ _______ _______ _____ _____    ______ ____
ROOT
ATOM      1  C   UNL     1       5.452   3.545   3.257  0.00  0.00    +0.000 C 
ENDROOT
BRANCH   1   2
ATOM      2  C   UNL     1       4.860   3.759   4.670  0.00  0.00    +0.000 A 
ATOM      3  C   UNL     1       4.149   2.717   5.298  0.00  0.00    +0.000 A 
ATOM      4  C   UNL     1       3.529   2.899   6.537  0.00  0.00    +0.000 A 
ATOM      5  C   UNL     1       3.658   4.111   7.196  0.00  0.00    +0.000 A 
ATOM      6  F   UNL     1       3.044   4.292   8.373  0.00  0.00    +0.000 F 
ATOM      7  C   UNL     1       4.412   5.137   6.644  0.00  0.00    +0.000 A 
ATOM      8  C   UNL     1       5.021   4.962   5.393  0.00  0.00    +0.000 A 
ENDBRANCH   1   2
BRANCH   1  12
ATOM      9  C   UNL     1       2.972   0.885   0.828  0.00  0.00    +0.000 A 
ATOM     10  C   UNL     1       4.280   0.526   1.151  0.00  0.00    +0.000 A 
ATOM     11  C   UNL     1       5.081   1.377   1.930  0.00  0.00    +0.000 A 
ATOM     12  C   UNL     1       4.598   2.620   2.372  0.00  0.00    +0.000 A 
ATOM     13  C   UNL     1       3.290   2.984   2.005  0.00  0.00    +0.000 A 
ATOM     14  C   UNL     1       2.483   2.117   1.262  0.00  0.00    +0.000 A 
BRANCH   9  16
ATOM     15  C   UNL     1       2.566  -1.115  -0.387  0.00  0.00    +0.000 C 
ATOM     16  O   UNL     1       2.091   0.137   0.094  0.00  0.00    +0.000 OA
ENDBRANCH   9  16
ENDBRANCH   1  12
BRANCH   1  17
ATOM     17  N   UNL     1       5.622   4.820   2.573  0.00  0.00    +0.000 N 
ATOM     18  C   UNL     1       6.684   5.069   1.737  0.00  0.00    +0.000 C 
ATOM     19  O   UNL     1       7.557   4.243   1.532  0.00  0.00    +0.000 OA
ATOM     20  H   UNL     1       4.827   5.436   2.540  0.00  0.00    +0.000 HD
BRANCH  18  21
ATOM     21  C   UNL     1       6.679   6.404   1.171  0.00  0.00    +0.000 A 
ATOM     22  C   UNL     1       6.154   7.571   1.698  0.00  0.00    +0.000 A 
ATOM     23  C   UNL     1       6.661   8.602   0.897  0.00  0.00    +0.000 A 
ATOM     24  N   UNL     1       7.435   8.142  -0.083  0.00  0.00    +0.000 NA
ATOM     25  N   UNL     1       7.352   6.787   0.019  0.00  0.00    +0.000 N 
BRANCH  25  26
ATOM     26  C   UNL     1       7.875   5.976  -1.011  0.00  0.00    +0.000 A 
ATOM     27  C   UNL     1       7.331   4.723  -1.302  0.00  0.00    +0.000 A 
ATOM     28  C   UNL     1       7.915   3.943  -2.293  0.00  0.00    +0.000 A 
ATOM     29  C   UNL     1       9.020   4.447  -2.955  0.00  0.00    +0.000 A 
ATOM     30  N   UNL     1       9.543   5.673  -2.727  0.00  0.00    +0.000 NA
ATOM     31  C   UNL     1       8.948   6.423  -1.768  0.00  0.00    +0.000 A 
ENDBRANCH  25  26
ENDBRANCH  18  21
ENDBRANCH   1  17
TORSDOF 6
