REMARK  Name = 
REMARK  7 active torsions:
REMARK  status: ('A' for Active; 'I' for Inactive)
REMARK    1  A    between atoms: C_2  and  C_4
REMARK    2  A    between atoms: C_4  and  N_5
REMARK    3  A    between atoms: N_5  and  C_6
REMARK    4  A    between atoms: C_6  and  C_7
REMARK    5  A    between atoms: C_10  and  C_11
REMARK    6  A    between atoms: C_19  and  C_21
REMARK    7  A    between atoms: C_27  and  O_28
REMARK                            x       y       z     vdW  Elec       q    Type
REMARK                         _______ _______ _______ _____ _____    ______ ____
ROOT
ATOM      1  N   UNL     1       4.762  -1.042   0.568  0.00  0.00    +0.000 N 
ATOM      2  C   UNL     1       5.540  -2.100   1.057  0.00  0.00    +0.000 C 
ATOM      3  O   UNL     1       5.167  -2.664   2.090  0.00  0.00    +0.000 OA
ENDROOT
BRANCH   2   4
ATOM      4  C   UNL     1       6.664  -2.669   0.300  0.00  0.00    +0.000 A 
ATOM      5  C   UNL     1       7.076  -2.412  -0.995  0.00  0.00    +0.000 A 
ATOM      6  O   UNL     1       7.917  -3.368  -1.460  0.00  0.00    +0.000 OA
ATOM      7  C   UNL     1       8.063  -4.277  -0.470  0.00  0.00    +0.000 A 
ATOM      8  C   UNL     1       8.700  -5.506  -0.615  0.00  0.00    +0.000 A 
ATOM      9  C   UNL     1       8.746  -6.322   0.515  0.00  0.00    +0.000 A 
ATOM     10  C   UNL     1       8.237  -5.868   1.730  0.00  0.00    +0.000 A 
ATOM     11  C   UNL     1       7.581  -4.633   1.845  0.00  0.00    +0.000 A 
ATOM     12  C   UNL     1       7.438  -3.834   0.689  0.00  0.00    +0.000 A 
BRANCH  10  13
ATOM     13  O   UNL     1       8.328  -6.644   2.852  0.00  0.00    +0.000 OA
ATOM     14  H   UNL     1       8.786  -7.471   2.625  0.00  0.00    +0.000 HD
ENDBRANCH  10  13
ENDBRANCH   2   4
BRANCH   1  15
ATOM     15  C   UNL     1       5.188   0.072  -0.271  0.00  0.00    +0.000 C 
BRANCH  15  16
ATOM     16  C   UNL     1       5.706   1.294   0.445  0.00  0.00    +0.000 A 
ATOM     17  C   UNL     1       7.068   1.427   0.741  0.00  0.00    +0.000 A 
ATOM     18  C   UNL     1       7.588   2.655   1.178  0.00  0.00    +0.000 A 
ATOM     19  C   UNL     1       6.772   3.789   1.338  0.00  0.00    +0.000 A 
ATOM     20  C   UNL     1       5.396   3.612   1.106  0.00  0.00    +0.000 A 
ATOM     21  C   UNL     1       4.867   2.387   0.677  0.00  0.00    +0.000 A 
BRANCH  19  22
ATOM     22  C   UNL     1       7.335   5.119   1.697  0.00  0.00    +0.000 A 
ATOM     23  C   UNL     1       8.620   5.517   1.278  0.00  0.00    +0.000 A 
ATOM     24  C   UNL     1       9.140   6.777   1.599  0.00  0.00    +0.000 A 
ATOM     25  C   UNL     1       8.383   7.679   2.338  0.00  0.00    +0.000 A 
ATOM     26  C   UNL     1       7.107   7.320   2.758  0.00  0.00    +0.000 A 
ATOM     27  C   UNL     1       6.595   6.055   2.445  0.00  0.00    +0.000 A 
ENDBRANCH  19  22
ENDBRANCH  15  16
ENDBRANCH   1  15
BRANCH   1  28
ATOM     28  C   UNL     1       3.317  -1.133   0.853  0.00  0.00    +0.000 C 
BRANCH  28  30
ATOM     29  N   UNL     1       3.690   0.022   2.996  0.00  0.00    +0.000 N 
ATOM     30  C   UNL     1       2.780  -0.531   2.150  0.00  0.00    +0.000 C 
ATOM     31  O   UNL     1       1.581  -0.522   2.428  0.00  0.00    +0.000 OA
ATOM     32  H   UNL     1       3.354   0.288   3.912  0.00  0.00    +0.000 HD
ATOM     33  H   UNL     1       4.665  -0.238   2.912  0.00  0.00    +0.000 HD
ENDBRANCH  28  30
ENDBRANCH   1  28
TORSDOF 7
