REMARK  Name = 
REMARK  7 active torsions:
REMARK  status: ('A' for Active; 'I' for Inactive)
REMARK    1  A    between atoms: C_1  and  C_2
REMARK    2  A    between atoms: C_2  and  N_3
REMARK    3  A    between atoms: C_2  and  C_21
REMARK    4  A    between atoms: C_4  and  C_6
REMARK    5  A    between atoms: C_9  and  N_10
REMARK    6  A    between atoms: C_24  and  O_25
REMARK    7  A    between atoms: C_26  and  C_27
REMARK                            x       y       z     vdW  Elec       q    Type
REMARK                         _______ _______ _______ _____ _____    ______ ____
ROOT
ATOM      1  N   UNL     1       2.667  -1.307  -0.467  0.00  0.00    +0.000 N 
ATOM      2  C   UNL     1       2.327  -2.435   0.258  0.00  0.00    +0.000 C 
ATOM      3  O   UNL     1       1.509  -2.432   1.169  0.00  0.00    +0.000 OA
ATOM      4  H   UNL     1       3.145  -1.415  -1.349  0.00  0.00    +0.000 HD
ENDROOT
BRANCH   2   5
ATOM      5  C   UNL     1       3.064  -3.691  -0.092  0.00  0.00    +0.000 A 
ATOM      6  C   UNL     1       4.282  -3.620  -0.772  0.00  0.00    +0.000 A 
ATOM      7  C   UNL     1       5.058  -4.758  -0.928  0.00  0.00    +0.000 A 
ATOM      8  C   UNL     1       4.623  -5.969  -0.391  0.00  0.00    +0.000 A 
ATOM      9  C   UNL     1       3.381  -6.085   0.239  0.00  0.00    +0.000 A 
ATOM     10  C   UNL     1       2.611  -4.922   0.387  0.00  0.00    +0.000 A 
BRANCH   8  11
ATOM     11  N   UNL     1       5.579  -6.998  -0.277  0.00  0.00    +0.000 N 
ATOM     12  C   UNL     1       6.769  -6.819   0.405  0.00  0.00    +0.000 A 
ATOM     13  C   UNL     1       7.558  -7.918   0.183  0.00  0.00    +0.000 A 
ATOM     14  C   UNL     1       7.056  -8.480  -1.015  0.00  0.00    +0.000 A 
ATOM     15  C   UNL     1       7.622  -9.257  -2.036  0.00  0.00    +0.000 A 
ATOM     16  C   UNL     1       6.799  -9.713  -3.067  0.00  0.00    +0.000 A 
ATOM     17  C   UNL     1       5.420  -9.514  -3.012  0.00  0.00    +0.000 A 
ATOM     18  C   UNL     1       4.843  -8.700  -2.029  0.00  0.00    +0.000 A 
ATOM     19  C   UNL     1       5.714  -8.097  -1.112  0.00  0.00    +0.000 A 
ENDBRANCH   8  11
ENDBRANCH   2   5
BRANCH   1  21
ATOM     20  C   UNL     1       0.790   0.195  -0.869  0.00  0.00    +0.000 C 
ATOM     21  C   UNL     1       2.125   0.002  -0.170  0.00  0.00    +0.000 C 
BRANCH  21  22
ATOM     22  C   UNL     1       3.131   1.087  -0.499  0.00  0.00    +0.000 A 
ATOM     23  C   UNL     1       3.645   1.885   0.531  0.00  0.00    +0.000 A 
ATOM     24  C   UNL     1       4.505   2.952   0.268  0.00  0.00    +0.000 A 
ATOM     25  C   UNL     1       4.883   3.231  -1.042  0.00  0.00    +0.000 A 
ATOM     26  C   UNL     1       4.448   2.416  -2.098  0.00  0.00    +0.000 A 
ATOM     27  C   UNL     1       3.551   1.357  -1.811  0.00  0.00    +0.000 A 
BRANCH  26  28
ATOM     28  C   UNL     1       4.870   2.597  -3.523  0.00  0.00    +0.000 C 
ATOM     29  N   UNL     1       5.716   3.627  -3.818  0.00  0.00    +0.000 N 
ATOM     30  O   UNL     1       4.489   1.837  -4.407  0.00  0.00    +0.000 OA
ATOM     31  H   UNL     1       6.042   4.257  -3.091  0.00  0.00    +0.000 HD
ATOM     32  H   UNL     1       6.017   3.761  -4.771  0.00  0.00    +0.000 HD
ENDBRANCH  26  28
BRANCH  25  33
ATOM     33  O   UNL     1       5.687   4.321  -1.268  0.00  0.00    +0.000 OA
ATOM     34  H   UNL     1       5.780   4.812  -0.434  0.00  0.00    +0.000 HD
ENDBRANCH  25  33
ENDBRANCH  21  22
ENDBRANCH   1  21
TORSDOF 6
