REMARK  Name = 
REMARK  6 active torsions:
REMARK  status: ('A' for Active; 'I' for Inactive)
REMARK    1  A    between atoms: C_2  and  C_18
REMARK    2  A    between atoms: N_3  and  C_4
REMARK    3  A    between atoms: C_7  and  O_8
REMARK    4  A    between atoms: O_8  and  C_9
REMARK    5  A    between atoms: C_9  and  C_10
REMARK    6  A    between atoms: N_22  and  C_23
REMARK                            x       y       z     vdW  Elec       q    Type
REMARK                         _______ _______ _______ _____ _____    ______ ____
ROOT
ATOM      1  O   UNL     1       0.948  -0.314  -0.364  0.00  0.00    +0.000 OA
ATOM      2  C   UNL     1       2.132  -0.085  -0.142  0.00  0.00    +0.000 C 
ATOM      3  N   UNL     1       2.783  -0.259   1.060  0.00  0.00    +0.000 N 
ATOM      4  H   UNL     1       3.701   0.149   1.182  0.00  0.00    +0.000 HD
ENDROOT
BRANCH   2   5
ATOM      5  C   UNL     1       2.960   0.500  -1.215  0.00  0.00    +0.000 A 
ATOM      6  C   UNL     1       2.343   1.245  -2.134  0.00  0.00    +0.000 A 
ATOM      7  C   UNL     1       3.068   1.832  -3.270  0.00  0.00    +0.000 A 
ATOM      8  O   UNL     1       2.399   2.483  -4.068  0.00  0.00    +0.000 OA
ATOM      9  N   UNL     1       4.439   1.551  -3.332  0.00  0.00    +0.000 N 
ATOM     10  N   UNL     1       5.092   0.749  -2.405  0.00  0.00    +0.000 NA
ATOM     11  C   UNL     1       4.391   0.279  -1.426  0.00  0.00    +0.000 A 
BRANCH   9  12
ATOM     12  C   UNL     1       5.293   2.072  -4.357  0.00  0.00    +0.000 A 
ATOM     13  C   UNL     1       4.963   3.230  -5.076  0.00  0.00    +0.000 A 
ATOM     14  C   UNL     1       5.810   3.735  -6.066  0.00  0.00    +0.000 A 
ATOM     15  C   UNL     1       7.000   3.080  -6.366  0.00  0.00    +0.000 A 
ATOM     16  C   UNL     1       7.347   1.926  -5.668  0.00  0.00    +0.000 A 
ATOM     17  C   UNL     1       6.507   1.435  -4.664  0.00  0.00    +0.000 A 
ENDBRANCH   9  12
ENDBRANCH   2   5
BRANCH   3  18
ATOM     18  C   UNL     1       2.196  -0.794   2.227  0.00  0.00    +0.000 A 
ATOM     19  C   UNL     1       0.980  -1.483   2.232  0.00  0.00    +0.000 A 
ATOM     20  C   UNL     1       0.435  -1.953   3.426  0.00  0.00    +0.000 A 
ATOM     21  C   UNL     1       1.111  -1.760   4.626  0.00  0.00    +0.000 A 
ATOM     22  C   UNL     1       2.325  -1.072   4.632  0.00  0.00    +0.000 A 
ATOM     23  C   UNL     1       2.875  -0.610   3.434  0.00  0.00    +0.000 A 
BRANCH  21  24
ATOM     24  O   UNL     1       0.494  -2.269   5.733  0.00  0.00    +0.000 OA
BRANCH  24  25
ATOM     25  C   UNL     1       1.372  -2.584   6.816  0.00  0.00    +0.000 C 
BRANCH  25  26
ATOM     26  C   UNL     1       0.752  -3.602   7.734  0.00  0.00    +0.000 A 
ATOM     27  C   UNL     1      -0.156  -4.546   7.264  0.00  0.00    +0.000 A 
ATOM     28  N   UNL     1      -0.671  -5.524   8.046  0.00  0.00    +0.000 NA
ATOM     29  C   UNL     1      -0.234  -5.529   9.323  0.00  0.00    +0.000 A 
ATOM     30  C   UNL     1       0.677  -4.604   9.800  0.00  0.00    +0.000 A 
ATOM     31  N   UNL     1       1.193  -3.627   9.021  0.00  0.00    +0.000 NA
ENDBRANCH  25  26
ENDBRANCH  24  25
ENDBRANCH  21  24
ENDBRANCH   3  18
TORSDOF 6
