REMARK  Name = 
REMARK  5 active torsions:
REMARK  status: ('A' for Active; 'I' for Inactive)
REMARK    1  A    between atoms: C_6  and  C_7
REMARK    2  A    between atoms: C_11  and  C_12
REMARK    3  A    between atoms: N_14  and  C_15
REMARK    4  A    between atoms: C_15  and  C_16
REMARK    5  A    between atoms: C_19  and  C_20
REMARK                            x       y       z     vdW  Elec       q    Type
REMARK                         _______ _______ _______ _____ _____    ______ ____
ROOT
ATOM      1  C   UNL     1       7.600   4.532  -2.287  0.00  0.00    +0.000 C 
ATOM      2  O   UNL     1       8.224   5.585  -2.220  0.00  0.00    +0.000 OA
ATOM      3  N   UNL     1       7.499   3.777  -3.432  0.00  0.00    +0.000 N 
ATOM      4  H   UNL     1       6.908   2.958  -3.454  0.00  0.00    +0.000 HD
ENDROOT
BRANCH   1   9
ATOM      5  C   UNL     1       5.977   2.242   0.319  0.00  0.00    +0.000 A 
ATOM      6  C   UNL     1       5.435   3.235   1.161  0.00  0.00    +0.000 A 
ATOM      7  C   UNL     1       5.625   4.595   0.905  0.00  0.00    +0.000 A 
ATOM      8  C   UNL     1       6.345   4.996  -0.215  0.00  0.00    +0.000 A 
ATOM      9  C   UNL     1       6.853   4.040  -1.099  0.00  0.00    +0.000 A 
ATOM     10  C   UNL     1       6.675   2.673  -0.829  0.00  0.00    +0.000 A 
BRANCH   5  16
ATOM     11  N   UNL     1       5.772  -2.252  -1.167  0.00  0.00    +0.000 N 
ATOM     12  C   UNL     1       5.774  -1.356  -0.114  0.00  0.00    +0.000 A 
ATOM     13  N   UNL     1       5.661  -1.840   1.141  0.00  0.00    +0.000 NA
ATOM     14  N   UNL     1       5.653  -0.989   2.191  0.00  0.00    +0.000 NA
ATOM     15  C   UNL     1       5.757   0.326   1.932  0.00  0.00    +0.000 A 
ATOM     16  C   UNL     1       5.849   0.803   0.637  0.00  0.00    +0.000 A 
ATOM     17  N   UNL     1       5.851  -0.053  -0.412  0.00  0.00    +0.000 NA
ATOM     18  H   UNL     1       5.330  -3.119  -0.896  0.00  0.00    +0.000 HD
ATOM     19  H   UNL     1       5.441  -1.804  -2.010  0.00  0.00    +0.000 HD
ENDBRANCH   5  16
ENDBRANCH   1   9
BRANCH   3  20
ATOM     20  C   UNL     1       8.140   4.180  -4.663  0.00  0.00    +0.000 C 
BRANCH  20  21
ATOM     21  C   UNL     1       9.140   3.145  -5.100  0.00  0.00    +0.000 A 
ATOM     22  C   UNL     1      10.470   3.215  -4.671  0.00  0.00    +0.000 A 
ATOM     23  C   UNL     1      11.396   2.241  -5.066  0.00  0.00    +0.000 A 
ATOM     24  C   UNL     1      11.029   1.165  -5.898  0.00  0.00    +0.000 A 
ATOM     25  C   UNL     1       9.683   1.104  -6.287  0.00  0.00    +0.000 A 
ATOM     26  F   UNL     1       9.232   0.090  -7.042  0.00  0.00    +0.000 F 
ATOM     27  C   UNL     1       8.752   2.071  -5.902  0.00  0.00    +0.000 A 
BRANCH  24  28
ATOM     28  C   UNL     1      12.029   0.162  -6.320  0.00  0.00    +0.000 A 
ATOM     29  C   UNL     1      11.963  -0.517  -7.538  0.00  0.00    +0.000 A 
ATOM     30  C   UNL     1      12.954  -1.442  -7.865  0.00  0.00    +0.000 A 
ATOM     31  C   UNL     1      13.994  -1.667  -6.977  0.00  0.00    +0.000 A 
ATOM     32  C   UNL     1      14.002  -0.951  -5.794  0.00  0.00    +0.000 A 
ATOM     33  N   UNL     1      13.055  -0.048  -5.453  0.00  0.00    +0.000 NA
ENDBRANCH  24  28
ENDBRANCH  20  21
ENDBRANCH   3  20
TORSDOF 5
