REMARK  Name = 
REMARK  7 active torsions:
REMARK  status: ('A' for Active; 'I' for Inactive)
REMARK    1  A    between atoms: C_2  and  C_19
REMARK    2  A    between atoms: N_3  and  C_4
REMARK    3  A    between atoms: C_7  and  O_8
REMARK    4  A    between atoms: O_8  and  C_9
REMARK    5  A    between atoms: C_12  and  C_13
REMARK    6  A    between atoms: C_13  and  O_14
REMARK    7  A    between atoms: C_26  and  O_27
REMARK                            x       y       z     vdW  Elec       q    Type
REMARK                         _______ _______ _______ _____ _____    ______ ____
ROOT
ATOM      1  O   UNL     1       1.115  -0.629  -0.316  0.00  0.00    +0.000 OA
ATOM      2  C   UNL     1       2.257  -0.211  -0.129  0.00  0.00    +0.000 C 
ATOM      3  N   UNL     1       2.861   0.012   1.099  0.00  0.00    +0.000 N 
ATOM      4  H   UNL     1       3.771   0.466   1.073  0.00  0.00    +0.000 HD
ENDROOT
BRANCH   2   5
ATOM      5  C   UNL     1       3.055   0.147  -1.337  0.00  0.00    +0.000 A 
ATOM      6  C   UNL     1       2.410   0.134  -2.568  0.00  0.00    +0.000 A 
ATOM      7  C   UNL     1       3.131   0.474  -3.698  0.00  0.00    +0.000 A 
ATOM      8  C   UNL     1       4.482   0.806  -3.573  0.00  0.00    +0.000 A 
ATOM      9  C   UNL     1       5.229   1.152  -4.707  0.00  0.00    +0.000 A 
ATOM     10  C   UNL     1       6.571   1.448  -4.552  0.00  0.00    +0.000 A 
ATOM     11  N   UNL     1       7.204   1.411  -3.366  0.00  0.00    +0.000 NA
ATOM     12  C   UNL     1       6.441   1.082  -2.298  0.00  0.00    +0.000 A 
ATOM     13  C   UNL     1       5.078   0.775  -2.292  0.00  0.00    +0.000 A 
ATOM     14  N   UNL     1       4.363   0.465  -1.170  0.00  0.00    +0.000 NA
BRANCH  12  15
ATOM     15  O   UNL     1       7.171   1.043  -1.147  0.00  0.00    +0.000 OA
ATOM     16  H   UNL     1       8.054   1.242  -1.506  0.00  0.00    +0.000 HD
ENDBRANCH  12  15
ENDBRANCH   2   5
BRANCH   3  17
ATOM     17  C   UNL     1       2.246  -0.227   2.349  0.00  0.00    +0.000 A 
ATOM     18  C   UNL     1       1.074  -0.977   2.471  0.00  0.00    +0.000 A 
ATOM     19  C   UNL     1       0.436  -1.134   3.699  0.00  0.00    +0.000 A 
ATOM     20  C   UNL     1       1.010  -0.617   4.857  0.00  0.00    +0.000 A 
ATOM     21  C   UNL     1       2.183   0.136   4.754  0.00  0.00    +0.000 A 
ATOM     22  C   UNL     1       2.805   0.324   3.507  0.00  0.00    +0.000 A 
BRANCH  20  23
ATOM     23  O   UNL     1       0.465  -0.769   6.115  0.00  0.00    +0.000 OA
BRANCH  23  24
ATOM     24  C   UNL     1      -0.266  -1.905   6.401  0.00  0.00    +0.000 A 
ATOM     25  C   UNL     1       0.050  -3.176   5.910  0.00  0.00    +0.000 A 
ATOM     26  C   UNL     1      -0.771  -4.269   6.196  0.00  0.00    +0.000 A 
ATOM     27  C   UNL     1      -1.885  -4.120   7.030  0.00  0.00    +0.000 A 
ATOM     28  C   UNL     1      -2.150  -2.860   7.586  0.00  0.00    +0.000 A 
ATOM     29  C   UNL     1      -1.348  -1.757   7.269  0.00  0.00    +0.000 A 
BRANCH  27  30
ATOM     30  C   UNL     1      -2.788  -5.290   7.315  0.00  0.00    +0.000 C 
BRANCH  30  31
ATOM     31  O   UNL     1      -2.758  -5.622   8.695  0.00  0.00    +0.000 OA
ATOM     32  H   UNL     1      -1.826  -5.594   8.970  0.00  0.00    +0.000 HD
ENDBRANCH  30  31
ENDBRANCH  27  30
ENDBRANCH  23  24
ENDBRANCH  20  23
ENDBRANCH   3  17
TORSDOF 7
