REMARK  Name = 
REMARK  6 active torsions:
REMARK  status: ('A' for Active; 'I' for Inactive)
REMARK    1  A    between atoms: C_2  and  C_18
REMARK    2  A    between atoms: N_3  and  C_4
REMARK    3  A    between atoms: C_4  and  C_5
REMARK    4  A    between atoms: C_10  and  C_11
REMARK    5  A    between atoms: C_18  and  C_19
REMARK    6  A    between atoms: C_18  and  N_25
REMARK                            x       y       z     vdW  Elec       q    Type
REMARK                         _______ _______ _______ _____ _____    ______ ____
ROOT
ATOM      1  O   UNL     1       1.002   0.207   0.289  0.00  0.00    +0.000 OA
ATOM      2  C   UNL     1       2.224   0.084   0.141  0.00  0.00    +0.000 C 
ATOM      3  N   UNL     1       2.893   0.804  -0.829  0.00  0.00    +0.000 N 
ATOM      4  H   UNL     1       3.899   0.736  -0.974  0.00  0.00    +0.000 HD
ENDROOT
BRANCH   2   5
ATOM      5  C   UNL     1       3.092  -0.841   1.000  0.00  0.00    +0.000 C 
BRANCH   5   6
ATOM      6  C   UNL     1       2.955  -0.622   2.508  0.00  0.00    +0.000 A 
ATOM      7  C   UNL     1       1.716  -0.653   3.171  0.00  0.00    +0.000 A 
ATOM      8  C   UNL     1       1.628  -0.420   4.547  0.00  0.00    +0.000 A 
ATOM      9  C   UNL     1       2.776  -0.154   5.288  0.00  0.00    +0.000 A 
ATOM     10  C   UNL     1       4.016  -0.132   4.654  0.00  0.00    +0.000 A 
ATOM     11  C   UNL     1       4.106  -0.367   3.279  0.00  0.00    +0.000 A 
ENDBRANCH   5   6
BRANCH   5  12
ATOM     12  N   UNL     1       2.896  -2.246   0.615  0.00  0.00    +0.000 N 
ATOM     13  C   UNL     1       1.736  -2.975   0.604  0.00  0.00    +0.000 A 
ATOM     14  C   UNL     1       2.061  -4.223   0.124  0.00  0.00    +0.000 A 
ATOM     15  C   UNL     1       3.436  -4.150  -0.149  0.00  0.00    +0.000 A 
ATOM     16  N   UNL     1       3.953  -2.955   0.143  0.00  0.00    +0.000 NA
ENDBRANCH   5  12
ENDBRANCH   2   5
BRANCH   3  17
ATOM     17  C   UNL     1       2.216   1.819  -1.619  0.00  0.00    +0.000 C 
BRANCH  17  18
ATOM     18  C   UNL     1       3.140   2.606  -2.532  0.00  0.00    +0.000 A 
ATOM     19  N   UNL     1       4.468   2.274  -2.403  0.00  0.00    +0.000 NA
ATOM     20  C   UNL     1       5.361   2.890  -3.201  0.00  0.00    +0.000 A 
ATOM     21  C   UNL     1       5.013   3.844  -4.130  0.00  0.00    +0.000 A 
ATOM     22  C   UNL     1       3.670   4.196  -4.238  0.00  0.00    +0.000 A 
ATOM     23  C   UNL     1       2.671   3.586  -3.446  0.00  0.00    +0.000 A 
BRANCH  23  24
ATOM     24  C   UNL     1       1.238   3.972  -3.651  0.00  0.00    +0.000 A 
ATOM     25  C   UNL     1       0.753   4.324  -4.934  0.00  0.00    +0.000 A 
ATOM     26  C   UNL     1      -0.595   4.640  -5.156  0.00  0.00    +0.000 A 
ATOM     27  C   UNL     1      -1.496   4.576  -4.107  0.00  0.00    +0.000 A 
ATOM     28  F   UNL     1      -2.792   4.829  -4.323  0.00  0.00    +0.000 F 
ATOM     29  C   UNL     1      -1.060   4.266  -2.832  0.00  0.00    +0.000 A 
ATOM     30  C   UNL     1       0.298   4.017  -2.607  0.00  0.00    +0.000 A 
ENDBRANCH  23  24
ENDBRANCH  17  18
ENDBRANCH   3  17
TORSDOF 6
