REMARK  Name = 
REMARK  8 active torsions:
REMARK  status: ('A' for Active; 'I' for Inactive)
REMARK    1  A    between atoms: C_1  and  N_2
REMARK    2  A    between atoms: N_2  and  C_3
REMARK    3  A    between atoms: C_3  and  C_4
REMARK    4  A    between atoms: N_6  and  C_7
REMARK    5  A    between atoms: C_7  and  C_8
REMARK    6  A    between atoms: C_7  and  C_14
REMARK    7  A    between atoms: C_20  and  C_22
REMARK    8  A    between atoms: C_26  and  C_27
REMARK                            x       y       z     vdW  Elec       q    Type
REMARK                         _______ _______ _______ _____ _____    ______ ____
ROOT
ATOM      1  C   UNL     1       2.977   1.044  -0.936  0.00  0.00    +0.000 C 
ENDROOT
BRANCH   1   2
ATOM      2  C   UNL     1       2.170   2.082  -1.734  0.00  0.00    +0.000 C 
ATOM      3  O   UNL     1       1.120   1.777  -2.303  0.00  0.00    +0.000 OA
ATOM      4  N   UNL     1       2.602   3.374  -1.800  0.00  0.00    +0.000 N 
ATOM      5  H   UNL     1       2.045   3.965  -2.403  0.00  0.00    +0.000 HD
BRANCH   4   6
ATOM      6  C   UNL     1       3.857   3.909  -1.307  0.00  0.00    +0.000 C 
BRANCH   6   7
ATOM      7  C   UNL     1       5.012   3.647  -2.271  0.00  0.00    +0.000 A 
ATOM      8  C   UNL     1       4.843   3.643  -3.667  0.00  0.00    +0.000 A 
ATOM      9  C   UNL     1       5.923   3.398  -4.519  0.00  0.00    +0.000 A 
ATOM     10  C   UNL     1       7.188   3.156  -3.989  0.00  0.00    +0.000 A 
ATOM     11  C   UNL     1       7.376   3.163  -2.609  0.00  0.00    +0.000 A 
ATOM     12  C   UNL     1       6.299   3.412  -1.756  0.00  0.00    +0.000 A 
ENDBRANCH   6   7
BRANCH   6  13
ATOM     13  C   UNL     1       3.696   5.345  -0.842  0.00  0.00    +0.000 A 
ATOM     14  C   UNL     1       3.211   5.570   0.462  0.00  0.00    +0.000 A 
ATOM     15  C   UNL     1       3.178   6.854   1.003  0.00  0.00    +0.000 A 
ATOM     16  C   UNL     1       3.600   7.937   0.238  0.00  0.00    +0.000 A 
ATOM     17  C   UNL     1       4.008   7.741  -1.080  0.00  0.00    +0.000 A 
ATOM     18  C   UNL     1       4.045   6.455  -1.623  0.00  0.00    +0.000 A 
ENDBRANCH   6  13
ENDBRANCH   4   6
ENDBRANCH   1   2
BRANCH   1  20
ATOM     19  C   UNL     1       1.067   0.671   0.649  0.00  0.00    +0.000 C 
ATOM     20  N   UNL     1       2.484   0.512   0.336  0.00  0.00    +0.000 N 
ATOM     21  C   UNL     1       3.193  -0.401   1.140  0.00  0.00    +0.000 C 
ATOM     22  O   UNL     1       2.649  -0.962   2.096  0.00  0.00    +0.000 OA
BRANCH  21  23
ATOM     23  C   UNL     1       4.649  -0.695   0.936  0.00  0.00    +0.000 A 
ATOM     24  C   UNL     1       5.277  -0.802  -0.304  0.00  0.00    +0.000 A 
ATOM     25  C   UNL     1       6.642  -1.026  -0.349  0.00  0.00    +0.000 A 
ATOM     26  N   UNL     1       7.397  -1.210   0.744  0.00  0.00    +0.000 NA
ATOM     27  C   UNL     1       6.771  -1.201   1.948  0.00  0.00    +0.000 A 
ATOM     28  C   UNL     1       5.412  -0.939   2.084  0.00  0.00    +0.000 A 
BRANCH  27  29
ATOM     29  C   UNL     1       7.617  -1.517   3.105  0.00  0.00    +0.000 A 
ATOM     30  N   UNL     1       7.166  -1.535   4.372  0.00  0.00    +0.000 NA
ATOM     31  N   UNL     1       8.235  -1.887   5.106  0.00  0.00    +0.000 N 
ATOM     32  C   UNL     1       9.363  -2.086   4.372  0.00  0.00    +0.000 A 
ATOM     33  C   UNL     1       8.999  -1.860   3.068  0.00  0.00    +0.000 A 
ATOM     34  H   UNL     1       8.122  -1.970   6.111  0.00  0.00    +0.000 HD
ENDBRANCH  27  29
ENDBRANCH  21  23
ENDBRANCH   1  20
TORSDOF 7
