REMARK  Name = 
REMARK  8 active torsions:
REMARK  status: ('A' for Active; 'I' for Inactive)
REMARK    1  A    between atoms: C_2  and  C_4
REMARK    2  A    between atoms: C_4  and  N_5
REMARK    3  A    between atoms: N_5  and  C_6
REMARK    4  A    between atoms: C_6  and  C_7
REMARK    5  A    between atoms: C_10  and  C_11
REMARK    6  A    between atoms: C_19  and  C_21
REMARK    7  A    between atoms: C_21  and  C_22
REMARK    8  A    between atoms: C_22  and  C_23
REMARK                            x       y       z     vdW  Elec       q    Type
REMARK                         _______ _______ _______ _____ _____    ______ ____
ROOT
ATOM      1  N   UNL     1       4.934   0.592  -0.968  0.00  0.00    +0.000 N 
ATOM      2  C   UNL     1       5.833   1.294  -1.760  0.00  0.00    +0.000 C 
ATOM      3  O   UNL     1       5.424   2.050  -2.645  0.00  0.00    +0.000 OA
ENDROOT
BRANCH   1   4
ATOM      4  C   UNL     1       3.496   0.887  -1.156  0.00  0.00    +0.000 C 
BRANCH   4   6
ATOM      5  N   UNL     1       3.447  -0.598  -3.147  0.00  0.00    +0.000 N 
ATOM      6  C   UNL     1       2.791   0.336  -2.405  0.00  0.00    +0.000 C 
ATOM      7  O   UNL     1       1.635   0.642  -2.695  0.00  0.00    +0.000 OA
ATOM      8  H   UNL     1       2.984  -0.943  -3.977  0.00  0.00    +0.000 HD
ATOM      9  H   UNL     1       4.369  -0.929  -2.909  0.00  0.00    +0.000 HD
ENDBRANCH   4   6
ENDBRANCH   1   4
BRANCH   1  10
ATOM     10  C   UNL     1       5.314  -0.164   0.229  0.00  0.00    +0.000 C 
BRANCH  10  11
ATOM     11  C   UNL     1       4.937   0.478   1.551  0.00  0.00    +0.000 A 
ATOM     12  C   UNL     1       4.747  -0.343   2.670  0.00  0.00    +0.000 A 
ATOM     13  C   UNL     1       4.339   0.191   3.902  0.00  0.00    +0.000 A 
ATOM     14  C   UNL     1       4.122   1.568   4.075  0.00  0.00    +0.000 A 
ATOM     15  C   UNL     1       4.380   2.388   2.962  0.00  0.00    +0.000 A 
ATOM     16  C   UNL     1       4.787   1.858   1.726  0.00  0.00    +0.000 A 
BRANCH  14  17
ATOM     17  C   UNL     1       3.637   2.129   5.364  0.00  0.00    +0.000 A 
ATOM     18  C   UNL     1       3.980   1.553   6.602  0.00  0.00    +0.000 A 
ATOM     19  C   UNL     1       3.523   2.086   7.814  0.00  0.00    +0.000 A 
ATOM     20  C   UNL     1       2.715   3.217   7.820  0.00  0.00    +0.000 A 
ATOM     21  C   UNL     1       2.353   3.806   6.614  0.00  0.00    +0.000 A 
ATOM     22  C   UNL     1       2.800   3.262   5.404  0.00  0.00    +0.000 A 
ENDBRANCH  14  17
ENDBRANCH  10  11
ENDBRANCH   1  10
BRANCH   2  23
ATOM     23  C   UNL     1       7.337   1.091  -1.547  0.00  0.00    +0.000 C 
BRANCH  23  24
ATOM     24  C   UNL     1       8.090   1.935  -2.570  0.00  0.00    +0.000 C 
BRANCH  24  25
ATOM     25  C   UNL     1       9.583   1.897  -2.557  0.00  0.00    +0.000 A 
ATOM     26  N   UNL     1      10.433   1.252  -1.783  0.00  0.00    +0.000 NA
ATOM     27  C   UNL     1      11.699   1.684  -2.169  0.00  0.00    +0.000 A 
ATOM     28  C   UNL     1      12.991   1.376  -1.697  0.00  0.00    +0.000 A 
ATOM     29  F   UNL     1      13.181   0.486  -0.713  0.00  0.00    +0.000 F 
ATOM     30  C   UNL     1      14.105   2.020  -2.253  0.00  0.00    +0.000 A 
ATOM     31  C   UNL     1      13.953   2.952  -3.281  0.00  0.00    +0.000 A 
ATOM     32  C   UNL     1      12.693   3.246  -3.798  0.00  0.00    +0.000 A 
ATOM     33  C   UNL     1      11.598   2.598  -3.212  0.00  0.00    +0.000 A 
ATOM     34  N   UNL     1      10.260   2.675  -3.469  0.00  0.00    +0.000 N 
ATOM     35  H   UNL     1       9.827   3.235  -4.184  0.00  0.00    +0.000 HD
ENDBRANCH  24  25
ENDBRANCH  23  24
ENDBRANCH   2  23
TORSDOF 8
