REMARK  Name = 
REMARK  9 active torsions:
REMARK  status: ('A' for Active; 'I' for Inactive)
REMARK    1  A    between atoms: C_2  and  C_4
REMARK    2  A    between atoms: C_4  and  N_5
REMARK    3  A    between atoms: N_5  and  C_6
REMARK    4  A    between atoms: C_6  and  C_7
REMARK    5  A    between atoms: C_10  and  C_11
REMARK    6  A    between atoms: C_19  and  C_21
REMARK    7  A    between atoms: C_21  and  C_22
REMARK    8  A    between atoms: C_26  and  O_27
REMARK    9  A    between atoms: O_27  and  C_28
REMARK                            x       y       z     vdW  Elec       q    Type
REMARK                         _______ _______ _______ _____ _____    ______ ____
ROOT
ATOM      1  N   UNL     1       4.577  -0.305  -1.133  0.00  0.00    +0.000 N 
ATOM      2  C   UNL     1       5.393  -0.388  -2.260  0.00  0.00    +0.000 C 
ATOM      3  O   UNL     1       4.908  -0.678  -3.360  0.00  0.00    +0.000 OA
ENDROOT
BRANCH   1   4
ATOM      4  C   UNL     1       5.039  -0.138   0.256  0.00  0.00    +0.000 C 
BRANCH   4   5
ATOM      5  C   UNL     1       5.806  -1.296   0.871  0.00  0.00    +0.000 A 
ATOM      6  C   UNL     1       6.472  -2.253   0.103  0.00  0.00    +0.000 A 
ATOM      7  C   UNL     1       7.362  -3.163   0.653  0.00  0.00    +0.000 A 
ATOM      8  C   UNL     1       7.486  -3.290   2.033  0.00  0.00    +0.000 A 
ATOM      9  C   UNL     1       6.762  -2.387   2.830  0.00  0.00    +0.000 A 
ATOM     10  C   UNL     1       5.967  -1.381   2.257  0.00  0.00    +0.000 A 
BRANCH   8  11
ATOM     11  C   UNL     1       8.246  -4.429   2.579  0.00  0.00    +0.000 A 
ATOM     12  C   UNL     1       9.444  -4.876   1.987  0.00  0.00    +0.000 A 
ATOM     13  C   UNL     1      10.075  -6.043   2.426  0.00  0.00    +0.000 A 
ATOM     14  C   UNL     1       9.533  -6.771   3.479  0.00  0.00    +0.000 A 
ATOM     15  C   UNL     1       8.357  -6.343   4.087  0.00  0.00    +0.000 A 
ATOM     16  C   UNL     1       7.721  -5.188   3.634  0.00  0.00    +0.000 A 
ENDBRANCH   8  11
ENDBRANCH   4   5
ENDBRANCH   1   4
BRANCH   2  17
ATOM     17  C   UNL     1       6.906  -0.244  -2.097  0.00  0.00    +0.000 C 
BRANCH  17  18
ATOM     18  C   UNL     1       7.588   0.726  -3.012  0.00  0.00    +0.000 A 
ATOM     19  C   UNL     1       7.623   0.518  -4.392  0.00  0.00    +0.000 A 
ATOM     20  C   UNL     1       8.385   1.348  -5.200  0.00  0.00    +0.000 A 
ATOM     21  C   UNL     1       9.114   2.401  -4.640  0.00  0.00    +0.000 A 
ATOM     22  C   UNL     1       9.059   2.627  -3.264  0.00  0.00    +0.000 A 
ATOM     23  C   UNL     1       8.322   1.778  -2.452  0.00  0.00    +0.000 A 
BRANCH  22  24
ATOM     24  O   UNL     1       9.729   3.616  -2.604  0.00  0.00    +0.000 OA
BRANCH  24  25
ATOM     25  C   UNL     1       9.795   4.835  -3.317  0.00  0.00    +0.000 C 
ATOM     26  F   UNL     1       9.858   5.834  -2.400  0.00  0.00    +0.000 F 
ATOM     27  F   UNL     1      10.958   4.861  -4.010  0.00  0.00    +0.000 F 
ENDBRANCH  24  25
ENDBRANCH  22  24
ENDBRANCH  17  18
ENDBRANCH   2  17
BRANCH   1  28
ATOM     28  C   UNL     1       3.122  -0.261  -1.353  0.00  0.00    +0.000 C 
BRANCH  28  30
ATOM     29  N   UNL     1       3.078  -2.694  -1.803  0.00  0.00    +0.000 N 
ATOM     30  C   UNL     1       2.393  -1.612  -1.305  0.00  0.00    +0.000 C 
ATOM     31  O   UNL     1       1.215  -1.718  -0.986  0.00  0.00    +0.000 OA
ATOM     32  H   UNL     1       2.516  -3.528  -1.931  0.00  0.00    +0.000 HD
ATOM     33  H   UNL     1       3.803  -2.513  -2.488  0.00  0.00    +0.000 HD
ENDBRANCH  28  30
ENDBRANCH   1  28
TORSDOF 9
