REMARK  Name = 
REMARK  5 active torsions:
REMARK  status: ('A' for Active; 'I' for Inactive)
REMARK    1  A    between atoms: C_2  and  C_3
REMARK    2  A    between atoms: C_3  and  C_4
REMARK    3  A    between atoms: N_6  and  C_7
REMARK    4  A    between atoms: N_16  and  C_17
REMARK    5  A    between atoms: N_19  and  C_20
REMARK                            x       y       z     vdW  Elec       q    Type
REMARK                         _______ _______ _______ _____ _____    ______ ____
ROOT
ATOM      1  O   UNL     1       0.988  -0.025   0.072  0.00  0.00    +0.000 OA
ATOM      2  C   UNL     1       2.218  -0.053   0.014  0.00  0.00    +0.000 C 
ATOM      3  N   UNL     1       3.068   0.841   0.642  0.00  0.00    +0.000 N 
ATOM      4  H   UNL     1       4.059   0.781   0.404  0.00  0.00    +0.000 HD
ENDROOT
BRANCH   3   5
ATOM      5  C   UNL     1       2.669   1.899   1.431  0.00  0.00    +0.000 A 
ATOM      6  C   UNL     1       1.442   2.116   2.001  0.00  0.00    +0.000 A 
ATOM      7  N   UNL     1       1.496   3.329   2.650  0.00  0.00    +0.000 N 
ATOM      8  N   UNL     1       2.725   3.895   2.534  0.00  0.00    +0.000 NA
ATOM      9  C   UNL     1       3.437   3.006   1.838  0.00  0.00    +0.000 A 
BRANCH   7  10
ATOM     10  C   UNL     1       0.454   3.959   3.360  0.00  0.00    +0.000 A 
ATOM     11  C   UNL     1      -0.532   3.202   3.995  0.00  0.00    +0.000 A 
ATOM     12  F   UNL     1      -0.475   1.863   4.029  0.00  0.00    +0.000 F 
ATOM     13  C   UNL     1      -1.579   3.818   4.681  0.00  0.00    +0.000 A 
ATOM     14  C   UNL     1      -1.663   5.208   4.719  0.00  0.00    +0.000 A 
ATOM     15  C   UNL     1      -0.685   5.973   4.085  0.00  0.00    +0.000 A 
ATOM     16  C   UNL     1       0.375   5.350   3.423  0.00  0.00    +0.000 A 
ATOM     17  F   UNL     1       1.251   6.138   2.783  0.00  0.00    +0.000 F 
ENDBRANCH   7  10
ENDBRANCH   3   5
BRANCH   2  18
ATOM     18  C   UNL     1       2.913  -1.173  -0.749  0.00  0.00    +0.000 C 
BRANCH  18  19
ATOM     19  C   UNL     1       4.192  -0.767  -1.406  0.00  0.00    +0.000 A 
ATOM     20  N   UNL     1       5.218  -0.319  -0.670  0.00  0.00    +0.000 NA
ATOM     21  N   UNL     1       6.190  -0.001  -1.568  0.00  0.00    +0.000 N 
ATOM     22  C   UNL     1       5.787  -0.287  -2.852  0.00  0.00    +0.000 A 
ATOM     23  C   UNL     1       4.505  -0.777  -2.778  0.00  0.00    +0.000 A 
BRANCH  21  24
ATOM     24  C   UNL     1       7.403   0.605  -1.135  0.00  0.00    +0.000 A 
ATOM     25  C   UNL     1       7.651   0.758   0.241  0.00  0.00    +0.000 A 
ATOM     26  C   UNL     1       8.815   1.394   0.679  0.00  0.00    +0.000 A 
ATOM     27  C   UNL     1       9.725   1.876  -0.254  0.00  0.00    +0.000 A 
ATOM     28  F   UNL     1      10.833   2.501   0.165  0.00  0.00    +0.000 F 
ATOM     29  C   UNL     1       9.500   1.723  -1.617  0.00  0.00    +0.000 A 
ATOM     30  C   UNL     1       8.341   1.082  -2.064  0.00  0.00    +0.000 A 
ENDBRANCH  21  24
ENDBRANCH  18  19
ENDBRANCH   2  18
TORSDOF 5
