REMARK  Name = 
REMARK  6 active torsions:
REMARK  status: ('A' for Active; 'I' for Inactive)
REMARK    1  A    between atoms: C_2  and  C_20
REMARK    2  A    between atoms: N_3  and  C_4
REMARK    3  A    between atoms: C_4  and  C_5
REMARK    4  A    between atoms: C_4  and  C_14
REMARK    5  A    between atoms: C_5  and  C_7
REMARK    6  A    between atoms: C_7  and  C_8
REMARK                            x       y       z     vdW  Elec       q    Type
REMARK                         _______ _______ _______ _____ _____    ______ ____
ROOT
ATOM      1  O   UNL     1       1.684  -0.008   1.897  0.00  0.00    +0.000 OA
ATOM      2  C   UNL     1       2.577   0.041   1.055  0.00  0.00    +0.000 C 
ATOM      3  N   UNL     1       2.936  -1.044   0.292  0.00  0.00    +0.000 N 
ATOM      4  H   UNL     1       3.633  -0.900  -0.434  0.00  0.00    +0.000 HD
ENDROOT
BRANCH   2   5
ATOM      5  C   UNL     1       3.313   1.322   0.799  0.00  0.00    +0.000 A 
ATOM      6  C   UNL     1       2.999   2.426   1.593  0.00  0.00    +0.000 A 
ATOM      7  C   UNL     1       3.670   3.622   1.371  0.00  0.00    +0.000 A 
ATOM      8  C   UNL     1       4.629   3.673   0.364  0.00  0.00    +0.000 A 
ATOM      9  C   UNL     1       5.384   4.913   0.086  0.00  0.00    +0.000 A 
ATOM     10  O   UNL     1       5.201   5.936   0.737  0.00  0.00    +0.000 OA
ATOM     11  N   UNL     1       6.296   4.849  -0.944  0.00  0.00    +0.000 N 
ATOM     12  C   UNL     1       6.534   3.728  -1.699  0.00  0.00    +0.000 A 
ATOM     13  C   UNL     1       5.870   2.587  -1.470  0.00  0.00    +0.000 A 
ATOM     14  C   UNL     1       4.877   2.529  -0.395  0.00  0.00    +0.000 A 
ATOM     15  N   UNL     1       4.239   1.340  -0.204  0.00  0.00    +0.000 NA
ATOM     16  H   UNL     1       6.809   5.707  -1.127  0.00  0.00    +0.000 HD
ENDBRANCH   2   5
BRANCH   3  17
ATOM     17  C   UNL     1       2.269  -2.337   0.421  0.00  0.00    +0.000 C 
BRANCH  17  18
ATOM     18  C   UNL     1       3.221  -3.427   0.897  0.00  0.00    +0.000 A 
ATOM     19  C   UNL     1       2.748  -4.452   1.735  0.00  0.00    +0.000 A 
ATOM     20  C   UNL     1       3.608  -5.452   2.206  0.00  0.00    +0.000 A 
ATOM     21  C   UNL     1       4.952  -5.446   1.841  0.00  0.00    +0.000 A 
ATOM     22  C   UNL     1       5.434  -4.450   0.998  0.00  0.00    +0.000 A 
ATOM     23  C   UNL     1       4.576  -3.454   0.523  0.00  0.00    +0.000 A 
ENDBRANCH  17  18
BRANCH  17  24
ATOM     24  C   UNL     1       1.615  -2.627  -0.936  0.00  0.00    +0.000 C 
ATOM     25  O   UNL     1       2.179  -3.263  -1.833  0.00  0.00    +0.000 OA
BRANCH  24  26
ATOM     26  C   UNL     1       0.268  -1.971  -1.191  0.00  0.00    +0.000 C 
BRANCH  26  27
ATOM     27  C   UNL     1      -0.909  -2.777  -0.711  0.00  0.00    +0.000 A 
ATOM     28  C   UNL     1      -1.797  -2.250   0.238  0.00  0.00    +0.000 A 
ATOM     29  C   UNL     1      -2.904  -2.990   0.660  0.00  0.00    +0.000 A 
ATOM     30  C   UNL     1      -3.137  -4.260   0.136  0.00  0.00    +0.000 A 
ATOM     31  C   UNL     1      -2.271  -4.787  -0.819  0.00  0.00    +0.000 A 
ATOM     32  C   UNL     1      -1.164  -4.049  -1.244  0.00  0.00    +0.000 A 
ENDBRANCH  26  27
ENDBRANCH  24  26
ENDBRANCH  17  24
ENDBRANCH   3  17
TORSDOF 6
