REMARK  Name = 
REMARK  3 active torsions:
REMARK  status: ('A' for Active; 'I' for Inactive)
REMARK    1  A    between atoms: C_2  and  C_17
REMARK    2  A    between atoms: N_6  and  C_7
REMARK    3  A    between atoms: C_20  and  N_21
REMARK                            x       y       z     vdW  Elec       q    Type
REMARK                         _______ _______ _______ _____ _____    ______ ____
ROOT
ATOM      1  O   UNL     1       0.895  -0.013  -0.165  0.00  0.00    +0.000 OA
ATOM      2  C   UNL     1       2.109  -0.107  -0.030  0.00  0.00    +0.000 C 
ATOM      3  N   UNL     1       2.787  -0.985   0.782  0.00  0.00    +0.000 N 
ATOM      4  C   UNL     1       2.153  -1.950   1.514  0.00  0.00    +0.000 A 
ATOM      5  N   UNL     1       0.896  -2.361   1.366  0.00  0.00    +0.000 NA
ATOM      6  N   UNL     1       0.735  -3.227   2.378  0.00  0.00    +0.000 N 
ATOM      7  C   UNL     1       1.927  -3.350   3.053  0.00  0.00    +0.000 A 
ATOM      8  N   UNL     1       2.841  -2.577   2.508  0.00  0.00    +0.000 NA
ATOM      9  H   UNL     1       3.762  -0.863   1.005  0.00  0.00    +0.000 HD
ENDROOT
BRANCH   6  10
ATOM     10  C   UNL     1      -0.512  -3.850   2.626  0.00  0.00    +0.000 A 
ATOM     11  C   UNL     1      -1.580  -3.638   1.734  0.00  0.00    +0.000 A 
ATOM     12  C   UNL     1      -2.806  -4.254   1.970  0.00  0.00    +0.000 A 
ATOM     13  F   UNL     1      -3.815  -4.064   1.111  0.00  0.00    +0.000 F 
ATOM     14  C   UNL     1      -3.001  -5.064   3.079  0.00  0.00    +0.000 A 
ATOM     15  C   UNL     1      -1.947  -5.254   3.960  0.00  0.00    +0.000 A 
ATOM     16  F   UNL     1      -2.124  -6.023   5.042  0.00  0.00    +0.000 F 
ATOM     17  C   UNL     1      -0.703  -4.662   3.748  0.00  0.00    +0.000 A 
ENDBRANCH   6  10
BRANCH   2  18
ATOM     18  C   UNL     1       2.939   0.862  -0.779  0.00  0.00    +0.000 A 
ATOM     19  C   UNL     1       2.437   2.159  -0.943  0.00  0.00    +0.000 A 
ATOM     20  C   UNL     1       3.102   3.077  -1.760  0.00  0.00    +0.000 A 
ATOM     21  C   UNL     1       4.253   2.680  -2.451  0.00  0.00    +0.000 A 
ATOM     22  C   UNL     1       4.757   1.387  -2.261  0.00  0.00    +0.000 A 
ATOM     23  F   UNL     1       5.887   0.980  -2.856  0.00  0.00    +0.000 F 
ATOM     24  C   UNL     1       4.117   0.479  -1.417  0.00  0.00    +0.000 A 
BRANCH  21  25
ATOM     25  N   UNL     1       4.855   3.572  -3.377  0.00  0.00    +0.000 N 
ATOM     26  C   UNL     1       4.784   4.953  -3.344  0.00  0.00    +0.000 A 
ATOM     27  C   UNL     1       5.444   5.465  -4.440  0.00  0.00    +0.000 A 
ATOM     28  C   UNL     1       5.918   4.370  -5.190  0.00  0.00    +0.000 A 
ATOM     29  C   UNL     1       5.562   3.225  -4.511  0.00  0.00    +0.000 A 
ENDBRANCH  21  25
ENDBRANCH   2  18
TORSDOF 3
