REMARK  Name = 
REMARK  3 active torsions:
REMARK  status: ('A' for Active; 'I' for Inactive)
REMARK    1  A    between atoms: C_2  and  C_15
REMARK    2  A    between atoms: N_3  and  C_4
REMARK    3  A    between atoms: C_18  and  C_19
REMARK                            x       y       z     vdW  Elec       q    Type
REMARK                         _______ _______ _______ _____ _____    ______ ____
ROOT
ATOM      1  O   UNL     1       1.120  -0.191  -0.368  0.00  0.00    +0.000 OA
ATOM      2  C   UNL     1       2.307  -0.099  -0.066  0.00  0.00    +0.000 C 
ATOM      3  N   UNL     1       2.929   1.052   0.390  0.00  0.00    +0.000 N 
ATOM      4  H   UNL     1       3.938   1.057   0.354  0.00  0.00    +0.000 HD
ENDROOT
BRANCH   3   5
ATOM      5  C   UNL     1       2.268   2.248   0.644  0.00  0.00    +0.000 A 
ATOM      6  C   UNL     1       0.965   2.285   0.982  0.00  0.00    +0.000 A 
ATOM      7  C   UNL     1       0.224   3.542   1.198  0.00  0.00    +0.000 A 
ATOM      8  O   UNL     1      -0.962   3.538   1.509  0.00  0.00    +0.000 OA
ATOM      9  N   UNL     1       0.926   4.699   1.030  0.00  0.00    +0.000 N 
ATOM     10  C   UNL     1       2.288   4.734   0.718  0.00  0.00    +0.000 A 
ATOM     11  C   UNL     1       2.912   5.971   0.588  0.00  0.00    +0.000 A 
ATOM     12  C   UNL     1       4.258   5.980   0.280  0.00  0.00    +0.000 A 
ATOM     13  N   UNL     1       4.987   4.862   0.089  0.00  0.00    +0.000 NA
ATOM     14  C   UNL     1       4.339   3.675   0.211  0.00  0.00    +0.000 A 
ATOM     15  C   UNL     1       2.993   3.535   0.537  0.00  0.00    +0.000 A 
ATOM     16  H   UNL     1       0.396   5.549   1.161  0.00  0.00    +0.000 HD
ENDBRANCH   3   5
BRANCH   2  17
ATOM     17  C   UNL     1       3.145  -1.295  -0.268  0.00  0.00    +0.000 A 
ATOM     18  C   UNL     1       2.806  -2.142  -1.325  0.00  0.00    +0.000 A 
ATOM     19  C   UNL     1       3.437  -3.377  -1.464  0.00  0.00    +0.000 A 
ATOM     20  C   UNL     1       4.423  -3.804  -0.554  0.00  0.00    +0.000 A 
ATOM     21  C   UNL     1       4.782  -2.893   0.461  0.00  0.00    +0.000 A 
ATOM     22  F   UNL     1       5.732  -3.208   1.356  0.00  0.00    +0.000 F 
ATOM     23  C   UNL     1       4.157  -1.654   0.616  0.00  0.00    +0.000 A 
BRANCH  20  24
ATOM     24  C   UNL     1       4.963  -5.182  -0.636  0.00  0.00    +0.000 A 
ATOM     25  C   UNL     1       5.079  -5.857  -1.867  0.00  0.00    +0.000 A 
ATOM     26  C   UNL     1       5.481  -7.195  -1.935  0.00  0.00    +0.000 A 
ATOM     27  C   UNL     1       5.801  -7.885  -0.771  0.00  0.00    +0.000 A 
ATOM     28  C   UNL     1       5.723  -7.238   0.456  0.00  0.00    +0.000 A 
ATOM     29  C   UNL     1       5.303  -5.906   0.521  0.00  0.00    +0.000 A 
ENDBRANCH  20  24
ENDBRANCH   2  17
TORSDOF 3
