REMARK  Name = 
REMARK  3 active torsions:
REMARK  status: ('A' for Active; 'I' for Inactive)
REMARK    1  A    between atoms: C_2  and  C_4
REMARK    2  A    between atoms: C_8  and  C_10
REMARK    3  A    between atoms: C_14  and  C_15
REMARK                            x       y       z     vdW  Elec       q    Type
REMARK                         _______ _______ _______ _____ _____    ______ ____
ROOT
ATOM      1  C   UNL     1       3.140  -0.485  -1.232  0.00  0.00    +0.000 A 
ATOM      2  C   UNL     1       4.276  -1.311  -1.206  0.00  0.00    +0.000 A 
ATOM      3  C   UNL     1       5.002  -1.470  -2.368  0.00  0.00    +0.000 A 
ATOM      4  N   UNL     1       6.159  -2.258  -2.344  0.00  0.00    +0.000 N 
ATOM      5  C   UNL     1       6.939  -2.517  -3.457  0.00  0.00    +0.000 C 
ATOM      6  O   UNL     1       6.739  -2.111  -4.597  0.00  0.00    +0.000 OA
ATOM      7  N   UNL     1       4.635  -0.884  -3.513  0.00  0.00    +0.000 NA
ATOM      8  C   UNL     1       3.555  -0.099  -3.558  0.00  0.00    +0.000 A 
ATOM      9  C   UNL     1       3.253   0.479  -4.783  0.00  0.00    +0.000 A 
ATOM     10  C   UNL     1       2.167   1.336  -4.944  0.00  0.00    +0.000 A 
ATOM     11  C   UNL     1       1.363   1.621  -3.854  0.00  0.00    +0.000 A 
ATOM     12  C   UNL     1       1.646   1.042  -2.614  0.00  0.00    +0.000 A 
ATOM     13  C   UNL     1       2.748   0.161  -2.438  0.00  0.00    +0.000 A 
ATOM     14  H   UNL     1       6.465  -2.667  -1.471  0.00  0.00    +0.000 HD
ENDROOT
BRANCH   1  16
ATOM     15  N   UNL     1       3.039  -0.400   1.207  0.00  0.00    +0.000 N 
ATOM     16  C   UNL     1       2.350  -0.339   0.022  0.00  0.00    +0.000 C 
ATOM     17  O   UNL     1       1.137  -0.175   0.035  0.00  0.00    +0.000 OA
ATOM     18  H   UNL     1       2.501  -0.230   2.049  0.00  0.00    +0.000 HD
ATOM     19  H   UNL     1       4.044  -0.342   1.276  0.00  0.00    +0.000 HD
ENDBRANCH   1  16
BRANCH   5  20
ATOM     20  C   UNL     1       8.082  -3.394  -3.172  0.00  0.00    +0.000 A 
ATOM     21  N   UNL     1       8.586  -3.483  -1.926  0.00  0.00    +0.000 NA
ATOM     22  O   UNL     1       9.697  -4.298  -2.030  0.00  0.00    +0.000 OA
ATOM     23  C   UNL     1       9.824  -4.733  -3.306  0.00  0.00    +0.000 A 
ATOM     24  C   UNL     1       8.814  -4.219  -4.084  0.00  0.00    +0.000 A 
BRANCH  24  25
ATOM     25  C   UNL     1       8.629  -4.515  -5.498  0.00  0.00    +0.000 A 
ATOM     26  C   UNL     1       7.338  -4.622  -6.043  0.00  0.00    +0.000 A 
ATOM     27  C   UNL     1       7.154  -4.834  -7.413  0.00  0.00    +0.000 A 
ATOM     28  C   UNL     1       8.260  -4.973  -8.241  0.00  0.00    +0.000 A 
ATOM     29  F   UNL     1       8.082  -5.164  -9.554  0.00  0.00    +0.000 F 
ATOM     30  C   UNL     1       9.545  -4.916  -7.725  0.00  0.00    +0.000 A 
ATOM     31  C   UNL     1       9.721  -4.688  -6.362  0.00  0.00    +0.000 A 
ATOM     32  F   UNL     1      10.978  -4.623  -5.896  0.00  0.00    +0.000 F 
ENDBRANCH  24  25
ENDBRANCH   5  20
TORSDOF 3
