REMARK  Name = 
REMARK  6 active torsions:
REMARK  status: ('A' for Active; 'I' for Inactive)
REMARK    1  A    between atoms: C_2  and  O_3
REMARK    2  A    between atoms: C_2  and  C_11
REMARK    3  A    between atoms: O_3  and  C_4
REMARK    4  A    between atoms: C_4  and  C_5
REMARK    5  A    between atoms: C_11  and  C_14
REMARK    6  A    between atoms: C_18  and  C_19
REMARK                            x       y       z     vdW  Elec       q    Type
REMARK                         _______ _______ _______ _____ _____    ______ ____
ROOT
ATOM      1  C   UNL     1       4.704  -0.419  -0.964  0.00  0.00    +0.000 A 
ATOM      2  C   UNL     1       5.198   0.856  -1.236  0.00  0.00    +0.000 A 
ATOM      3  C   UNL     1       6.548   1.113  -1.029  0.00  0.00    +0.000 A 
ATOM      4  C   UNL     1       7.384   0.087  -0.602  0.00  0.00    +0.000 A 
ATOM      5  C   UNL     1       6.865  -1.197  -0.472  0.00  0.00    +0.000 A 
ATOM      6  N   UNL     1       5.531  -1.443  -0.604  0.00  0.00    +0.000 NA
ENDROOT
BRANCH   5   7
ATOM      7  C   UNL     1       7.706  -2.406  -0.453  0.00  0.00    +0.000 A 
ATOM      8  C   UNL     1       7.346  -3.556   0.285  0.00  0.00    +0.000 A 
ATOM      9  C   UNL     1       7.928  -4.820   0.026  0.00  0.00    +0.000 A 
ATOM     10  C   UNL     1       8.836  -4.994  -1.022  0.00  0.00    +0.000 A 
ATOM     11  C   UNL     1       9.198  -3.866  -1.714  0.00  0.00    +0.000 A 
ATOM     12  C   UNL     1       8.717  -2.597  -1.387  0.00  0.00    +0.000 A 
ATOM     13  N   UNL     1       9.348  -1.690  -2.244  0.00  0.00    +0.000 N 
ATOM     14  C   UNL     1      10.107  -2.393  -3.180  0.00  0.00    +0.000 A 
ATOM     15  O   UNL     1      10.714  -1.915  -4.119  0.00  0.00    +0.000 OA
ATOM     16  N   UNL     1      10.010  -3.745  -2.838  0.00  0.00    +0.000 N 
ATOM     17  H   UNL     1       9.285  -0.686  -2.241  0.00  0.00    +0.000 HD
ATOM     18  H   UNL     1      10.402  -4.489  -3.391  0.00  0.00    +0.000 HD
ENDBRANCH   5   7
BRANCH   1  19
ATOM     19  C   UNL     1       3.201  -0.685  -1.067  0.00  0.00    +0.000 C 
ATOM     20  F   UNL     1       2.932  -1.728  -1.922  0.00  0.00    +0.000 F 
ATOM     21  F   UNL     1       2.537   0.382  -1.633  0.00  0.00    +0.000 F 
BRANCH  19  23
ATOM     22  O   UNL     1       3.117  -0.573   1.397  0.00  0.00    +0.000 OA
ATOM     23  C   UNL     1       2.622  -0.951   0.337  0.00  0.00    +0.000 C 
BRANCH  23  24
ATOM     24  O   UNL     1       1.415  -1.593   0.254  0.00  0.00    +0.000 OA
BRANCH  24  25
ATOM     25  C   UNL     1       0.800  -1.940   1.502  0.00  0.00    +0.000 C 
BRANCH  25  26
ATOM     26  C   UNL     1      -0.531  -1.243   1.654  0.00  0.00    +0.000 A 
ATOM     27  C   UNL     1      -1.719  -1.897   1.300  0.00  0.00    +0.000 A 
ATOM     28  C   UNL     1      -2.956  -1.266   1.482  0.00  0.00    +0.000 A 
ATOM     29  C   UNL     1      -3.010   0.023   2.012  0.00  0.00    +0.000 A 
ATOM     30  C   UNL     1      -1.830   0.690   2.347  0.00  0.00    +0.000 A 
ATOM     31  C   UNL     1      -0.597   0.066   2.173  0.00  0.00    +0.000 A 
ENDBRANCH  25  26
ENDBRANCH  24  25
ENDBRANCH  23  24
ENDBRANCH  19  23
ENDBRANCH   1  19
TORSDOF 6
