REMARK  Name = 
REMARK  6 active torsions:
REMARK  status: ('A' for Active; 'I' for Inactive)
REMARK    1  A    between atoms: C_2  and  O_3
REMARK    2  A    between atoms: C_2  and  C_4
REMARK    3  A    between atoms: N_6  and  C_7
REMARK    4  A    between atoms: C_11  and  C_12
REMARK    5  A    between atoms: C_14  and  C_15
REMARK    6  A    between atoms: C_15  and  N_16
REMARK                            x       y       z     vdW  Elec       q    Type
REMARK                         _______ _______ _______ _____ _____    ______ ____
ROOT
ATOM      1  C   UNL     1       2.258   4.629  -1.339  0.00  0.00    +0.000 A 
ATOM      2  C   UNL     1       2.342   5.479  -0.237  0.00  0.00    +0.000 A 
ATOM      3  C   UNL     1       1.615   6.669  -0.214  0.00  0.00    +0.000 A 
ATOM      4  C   UNL     1       0.817   7.031  -1.305  0.00  0.00    +0.000 A 
ATOM      5  C   UNL     1       0.714   6.205  -2.437  0.00  0.00    +0.000 A 
ATOM      6  C   UNL     1       1.445   5.005  -2.423  0.00  0.00    +0.000 A 
ENDROOT
BRANCH   5   7
ATOM      7  C   UNL     1      -0.167   6.526  -3.582  0.00  0.00    +0.000 A 
ATOM      8  C   UNL     1       0.190   6.192  -4.909  0.00  0.00    +0.000 A 
ATOM      9  C   UNL     1      -0.690   6.379  -5.992  0.00  0.00    +0.000 A 
ATOM     10  C   UNL     1      -1.945   6.944  -5.742  0.00  0.00    +0.000 A 
ATOM     11  C   UNL     1      -2.293   7.308  -4.447  0.00  0.00    +0.000 A 
ATOM     12  F   UNL     1      -3.498   7.849  -4.221  0.00  0.00    +0.000 F 
ATOM     13  C   UNL     1      -1.429   7.103  -3.379  0.00  0.00    +0.000 A 
BRANCH   9  14
ATOM     14  C   UNL     1      -0.304   5.954  -7.385  0.00  0.00    +0.000 C 
BRANCH  14  15
ATOM     15  N   UNL     1      -0.689   4.576  -7.660  0.00  0.00    +0.000 N 
ATOM     16  C   UNL     1       0.105   3.468  -7.545  0.00  0.00    +0.000 A 
ATOM     17  C   UNL     1      -0.662   2.430  -8.020  0.00  0.00    +0.000 A 
ATOM     18  N   UNL     1      -1.892   2.880  -8.423  0.00  0.00    +0.000 NA
ATOM     19  C   UNL     1      -1.881   4.172  -8.193  0.00  0.00    +0.000 A 
ENDBRANCH  14  15
ENDBRANCH   9  14
ENDBRANCH   5   7
BRANCH   1  22
ATOM     20  C   UNL     1       2.901   1.056  -2.031  0.00  0.00    +0.000 A 
ATOM     21  C   UNL     1       2.296   2.246  -1.900  0.00  0.00    +0.000 A 
ATOM     22  N   UNL     1       2.941   3.370  -1.382  0.00  0.00    +0.000 N 
ATOM     23  C   UNL     1       4.282   3.304  -0.958  0.00  0.00    +0.000 A 
ATOM     24  O   UNL     1       4.965   4.227  -0.523  0.00  0.00    +0.000 OA
ATOM     25  C   UNL     1       4.949   1.980  -1.139  0.00  0.00    +0.000 A 
ATOM     26  C   UNL     1       4.291   0.933  -1.657  0.00  0.00    +0.000 A 
BRANCH  20  28
ATOM     27  O   UNL     1       1.112   0.166  -3.337  0.00  0.00    +0.000 OA
ATOM     28  C   UNL     1       2.081  -0.035  -2.622  0.00  0.00    +0.000 C 
BRANCH  28  29
ATOM     29  O   UNL     1       2.488  -1.276  -2.292  0.00  0.00    +0.000 OA
ATOM     30  H   UNL     1       3.162  -1.326  -1.591  0.00  0.00    +0.000 HD
ENDBRANCH  28  29
ENDBRANCH  20  28
ENDBRANCH   1  22
TORSDOF 6
