REMARK  Name = 
REMARK  6 active torsions:
REMARK  status: ('A' for Active; 'I' for Inactive)
REMARK    1  A    between atoms: C_1  and  O_2
REMARK    2  A    between atoms: O_2  and  C_3
REMARK    3  A    between atoms: C_3  and  C_5
REMARK    4  A    between atoms: C_5  and  C_6
REMARK    5  A    between atoms: C_12  and  C_13
REMARK    6  A    between atoms: C_22  and  C_23
REMARK                            x       y       z     vdW  Elec       q    Type
REMARK                         _______ _______ _______ _____ _____    ______ ____
ROOT
ATOM      1  C   UNL     1       4.115  -3.630  -0.023  0.00  0.00    +0.000 A 
ATOM      2  C   UNL     1       2.800  -4.104  -0.090  0.00  0.00    +0.000 A 
ATOM      3  C   UNL     1       2.153  -4.360  -1.303  0.00  0.00    +0.000 A 
ATOM      4  C   UNL     1       2.756  -4.019  -2.509  0.00  0.00    +0.000 A 
ATOM      5  N   UNL     1       1.984  -4.216  -3.660  0.00  0.00    +0.000 N 
ATOM      6  C   UNL     1       1.983  -3.428  -4.778  0.00  0.00    +0.000 C 
ATOM      7  O   UNL     1       1.209  -3.678  -5.699  0.00  0.00    +0.000 OA
ATOM      8  C   UNL     1       2.857  -2.183  -4.749  0.00  0.00    +0.000 C 
ATOM      9  N   UNL     1       4.265  -2.556  -4.768  0.00  0.00    +0.000 NA
ATOM     10  C   UNL     1       4.791  -3.149  -3.748  0.00  0.00    +0.000 C 
ATOM     11  C   UNL     1       4.052  -3.491  -2.493  0.00  0.00    +0.000 A 
ATOM     12  C   UNL     1       4.715  -3.316  -1.259  0.00  0.00    +0.000 A 
ATOM     13  H   UNL     1       1.206  -4.862  -3.638  0.00  0.00    +0.000 HD
ENDROOT
BRANCH   1  20
ATOM     14  C   UNL     1       4.716  -4.240   2.424  0.00  0.00    +0.000 A 
ATOM     15  C   UNL     1       5.405  -3.898   3.614  0.00  0.00    +0.000 A 
ATOM     16  C   UNL     1       6.261  -2.805   3.668  0.00  0.00    +0.000 A 
ATOM     17  C   UNL     1       6.432  -2.037   2.534  0.00  0.00    +0.000 A 
ATOM     18  F   UNL     1       7.280  -1.000   2.559  0.00  0.00    +0.000 F 
ATOM     19  C   UNL     1       5.730  -2.318   1.366  0.00  0.00    +0.000 A 
ATOM     20  C   UNL     1       4.839  -3.414   1.268  0.00  0.00    +0.000 A 
BRANCH  14  21
ATOM     21  C   UNL     1       3.878  -5.508   2.492  0.00  0.00    +0.000 C 
BRANCH  21  22
ATOM     22  C   UNL     1       2.465  -5.276   2.990  0.00  0.00    +0.000 C 
ATOM     23  O   UNL     1       2.029  -4.230   3.450  0.00  0.00    +0.000 OA
BRANCH  22  25
ATOM     24  C   UNL     1       0.335  -6.234   3.113  0.00  0.00    +0.000 C 
ATOM     25  O   UNL     1       1.719  -6.403   2.797  0.00  0.00    +0.000 OA
ENDBRANCH  22  25
ENDBRANCH  21  22
ENDBRANCH  14  21
ENDBRANCH   1  20
BRANCH  10  26
ATOM     26  C   UNL     1       6.245  -3.498  -3.860  0.00  0.00    +0.000 A 
ATOM     27  C   UNL     1       7.083  -2.664  -4.611  0.00  0.00    +0.000 A 
ATOM     28  C   UNL     1       8.435  -2.975  -4.758  0.00  0.00    +0.000 A 
ATOM     29  C   UNL     1       8.955  -4.119  -4.152  0.00  0.00    +0.000 A 
ATOM     30  C   UNL     1       8.127  -4.953  -3.402  0.00  0.00    +0.000 A 
ATOM     31  C   UNL     1       6.771  -4.652  -3.265  0.00  0.00    +0.000 A 
ENDBRANCH  10  26
TORSDOF 5
