REMARK  Name = 
REMARK  5 active torsions:
REMARK  status: ('A' for Active; 'I' for Inactive)
REMARK    1  A    between atoms: N_1  and  C_2
REMARK    2  A    between atoms: C_2  and  C_3
REMARK    3  A    between atoms: C_8  and  C_9
REMARK    4  A    between atoms: C_13  and  C_14
REMARK    5  A    between atoms: N_16  and  C_17
REMARK                            x       y       z     vdW  Elec       q    Type
REMARK                         _______ _______ _______ _____ _____    ______ ____
ROOT
ATOM      1  C   UNL     1       2.246  -2.528  -1.490  0.00  0.00    +0.000 A 
ATOM      2  C   UNL     1       0.855  -2.487  -1.262  0.00  0.00    +0.000 A 
ATOM      3  C   UNL     1       0.152  -3.598  -0.788  0.00  0.00    +0.000 A 
ATOM      4  C   UNL     1       0.835  -4.778  -0.508  0.00  0.00    +0.000 A 
ATOM      5  C   UNL     1       2.209  -4.862  -0.774  0.00  0.00    +0.000 A 
ATOM      6  C   UNL     1       2.891  -3.751  -1.279  0.00  0.00    +0.000 A 
ENDROOT
BRANCH   1  12
ATOM      7  C   UNL     1       4.235  -0.893  -1.428  0.00  0.00    +0.000 A 
ATOM      8  C   UNL     1       4.793   0.312  -1.912  0.00  0.00    +0.000 A 
ATOM      9  C   UNL     1       4.146   1.090  -2.870  0.00  0.00    +0.000 A 
ATOM     10  C   UNL     1       2.943   0.660  -3.405  0.00  0.00    +0.000 A 
ATOM     11  C   UNL     1       2.378  -0.532  -2.954  0.00  0.00    +0.000 A 
ATOM     12  C   UNL     1       2.980  -1.321  -1.947  0.00  0.00    +0.000 A 
BRANCH   7  13
ATOM     13  C   UNL     1       5.058  -1.724  -0.455  0.00  0.00    +0.000 C 
BRANCH  13  14
ATOM     14  N   UNL     1       5.963  -0.953   0.401  0.00  0.00    +0.000 NA
ATOM     15  H   UNL     1       6.511  -1.612   0.954  0.00  0.00    +0.000 HD
ATOM     16  H   UNL     1       5.397  -0.431   1.067  0.00  0.00    +0.000 HD
ENDBRANCH  13  14
ENDBRANCH   7  13
ENDBRANCH   1  12
BRANCH   5  17
ATOM     17  C   UNL     1       3.017  -6.096  -0.550  0.00  0.00    +0.000 C 
ATOM     18  O   UNL     1       4.204  -6.003  -0.263  0.00  0.00    +0.000 OA
ATOM     19  N   UNL     1       2.307  -7.255  -0.710  0.00  0.00    +0.000 N 
ATOM     20  H   UNL     1       1.316  -7.176  -0.911  0.00  0.00    +0.000 HD
BRANCH  19  21
ATOM     21  C   UNL     1       2.685  -8.559  -0.356  0.00  0.00    +0.000 A 
ATOM     22  C   UNL     1       3.960  -8.982  -0.011  0.00  0.00    +0.000 A 
ATOM     23  C   UNL     1       4.135 -10.278   0.497  0.00  0.00    +0.000 A 
ATOM     24  C   UNL     1       3.026 -11.104   0.764  0.00  0.00    +0.000 A 
ATOM     25  C   UNL     1       1.751 -10.655   0.446  0.00  0.00    +0.000 A 
ATOM     26  C   UNL     1       1.617  -9.444  -0.228  0.00  0.00    +0.000 A 
ATOM     27  N   UNL     1       0.324  -9.019  -0.656  0.00  0.00    +0.000 N 
ATOM     28  C   UNL     1      -0.688  -9.256   0.251  0.00  0.00    +0.000 A 
ATOM     29  O   UNL     1      -1.600  -8.463   0.446  0.00  0.00    +0.000 OA
ATOM     30  C   UNL     1      -0.633 -10.594   0.901  0.00  0.00    +0.000 A 
ATOM     31  C   UNL     1       0.523 -11.292   0.930  0.00  0.00    +0.000 A 
ATOM     32  H   UNL     1       0.102  -9.616  -1.456  0.00  0.00    +0.000 HD
ENDBRANCH  19  21
ENDBRANCH   5  17
TORSDOF 5
