REMARK  Name = 
REMARK  6 active torsions:
REMARK  status: ('A' for Active; 'I' for Inactive)
REMARK    1  A    between atoms: C_2  and  C_4
REMARK    2  A    between atoms: C_4  and  N_5
REMARK    3  A    between atoms: N_5  and  C_6
REMARK    4  A    between atoms: C_6  and  C_7
REMARK    5  A    between atoms: C_10  and  C_11
REMARK    6  A    between atoms: C_19  and  C_21
REMARK                            x       y       z     vdW  Elec       q    Type
REMARK                         _______ _______ _______ _____ _____    ______ ____
ROOT
ATOM      1  N   UNL     1       4.763  -1.010  -0.445  0.00  0.00    +0.000 N 
ATOM      2  C   UNL     1       5.708  -1.872  -1.012  0.00  0.00    +0.000 C 
ATOM      3  O   UNL     1       6.919  -1.671  -0.896  0.00  0.00    +0.000 OA
ENDROOT
BRANCH   2   4
ATOM      4  C   UNL     1       5.237  -3.039  -1.781  0.00  0.00    +0.000 A 
ATOM      5  C   UNL     1       5.955  -3.696  -2.767  0.00  0.00    +0.000 A 
ATOM      6  N   UNL     1       5.146  -4.699  -3.228  0.00  0.00    +0.000 N 
ATOM      7  C   UNL     1       5.375  -5.640  -4.231  0.00  0.00    +0.000 A 
ATOM      8  C   UNL     1       4.410  -6.534  -4.519  0.00  0.00    +0.000 A 
ATOM      9  C   UNL     1       3.164  -6.481  -3.773  0.00  0.00    +0.000 A 
ATOM     10  F   UNL     1       2.210  -7.380  -4.088  0.00  0.00    +0.000 F 
ATOM     11  C   UNL     1       2.946  -5.575  -2.805  0.00  0.00    +0.000 A 
ATOM     12  C   UNL     1       3.967  -4.632  -2.494  0.00  0.00    +0.000 A 
ATOM     13  N   UNL     1       4.010  -3.655  -1.615  0.00  0.00    +0.000 NA
ENDBRANCH   2   4
BRANCH   1  14
ATOM     14  C   UNL     1       3.316  -1.085  -0.724  0.00  0.00    +0.000 C 
BRANCH  14  16
ATOM     15  N   UNL     1       3.077  -2.547   1.260  0.00  0.00    +0.000 N 
ATOM     16  C   UNL     1       2.466  -1.998   0.174  0.00  0.00    +0.000 C 
ATOM     17  O   UNL     1       1.265  -2.174  -0.018  0.00  0.00    +0.000 OA
ATOM     18  H   UNL     1       2.552  -3.211   1.809  0.00  0.00    +0.000 HD
ATOM     19  H   UNL     1       4.086  -2.554   1.332  0.00  0.00    +0.000 HD
ENDBRANCH  14  16
ENDBRANCH   1  14
BRANCH   1  20
ATOM     20  C   UNL     1       5.248   0.161   0.289  0.00  0.00    +0.000 C 
BRANCH  20  21
ATOM     21  C   UNL     1       5.338  -0.078   1.775  0.00  0.00    +0.000 A 
ATOM     22  C   UNL     1       6.497  -0.621   2.342  0.00  0.00    +0.000 A 
ATOM     23  C   UNL     1       6.545  -0.942   3.705  0.00  0.00    +0.000 A 
ATOM     24  C   UNL     1       5.441  -0.730   4.550  0.00  0.00    +0.000 A 
ATOM     25  C   UNL     1       4.311  -0.121   3.975  0.00  0.00    +0.000 A 
ATOM     26  C   UNL     1       4.254   0.195   2.612  0.00  0.00    +0.000 A 
BRANCH  24  27
ATOM     27  C   UNL     1       5.444  -1.162   5.972  0.00  0.00    +0.000 A 
ATOM     28  C   UNL     1       6.615  -1.170   6.752  0.00  0.00    +0.000 A 
ATOM     29  C   UNL     1       6.603  -1.592   8.087  0.00  0.00    +0.000 A 
ATOM     30  C   UNL     1       5.414  -2.008   8.681  0.00  0.00    +0.000 A 
ATOM     31  C   UNL     1       4.242  -2.015   7.934  0.00  0.00    +0.000 A 
ATOM     32  C   UNL     1       4.261  -1.607   6.598  0.00  0.00    +0.000 A 
ENDBRANCH  24  27
ENDBRANCH  20  21
ENDBRANCH   1  20
TORSDOF 6
