REMARK  Name = 
REMARK  8 active torsions:
REMARK  status: ('A' for Active; 'I' for Inactive)
REMARK    1  A    between atoms: C_2  and  C_20
REMARK    2  A    between atoms: N_3  and  C_4
REMARK    3  A    between atoms: C_4  and  C_5
REMARK    4  A    between atoms: C_4  and  C_12
REMARK    5  A    between atoms: C_5  and  C_6
REMARK    6  A    between atoms: C_12  and  O_13
REMARK    7  A    between atoms: C_12  and  C_14
REMARK    8  A    between atoms: C_27  and  O_28
REMARK                            x       y       z     vdW  Elec       q    Type
REMARK                         _______ _______ _______ _____ _____    ______ ____
ROOT
ATOM      1  C   UNL     1       2.222  -0.890  -2.240  0.00  0.00    +0.000 C 
ENDROOT
BRANCH   1   4
ATOM      2  O   UNL     1       3.237  -2.463  -0.154  0.00  0.00    +0.000 OA
ATOM      3  C   UNL     1       3.403  -1.250  -0.084  0.00  0.00    +0.000 C 
ATOM      4  N   UNL     1       2.914  -0.387  -1.044  0.00  0.00    +0.000 N 
ATOM      5  H   UNL     1       3.134   0.602  -0.946  0.00  0.00    +0.000 HD
BRANCH   3   6
ATOM      6  C   UNL     1       4.189  -0.649   1.039  0.00  0.00    +0.000 A 
ATOM      7  C   UNL     1       4.700  -1.515   1.995  0.00  0.00    +0.000 A 
ATOM      8  C   UNL     1       5.562  -1.007   2.955  0.00  0.00    +0.000 A 
ATOM      9  C   UNL     1       5.887   0.350   2.947  0.00  0.00    +0.000 A 
ATOM     10  C   UNL     1       6.818   0.854   3.870  0.00  0.00    +0.000 A 
ATOM     11  C   UNL     1       7.107   2.204   3.852  0.00  0.00    +0.000 A 
ATOM     12  N   UNL     1       6.503   3.073   3.023  0.00  0.00    +0.000 NA
ATOM     13  C   UNL     1       5.617   2.539   2.146  0.00  0.00    +0.000 A 
ATOM     14  C   UNL     1       5.270   1.189   1.995  0.00  0.00    +0.000 A 
ATOM     15  N   UNL     1       4.430   0.690   1.032  0.00  0.00    +0.000 NA
BRANCH  13  16
ATOM     16  O   UNL     1       5.030   3.504   1.383  0.00  0.00    +0.000 OA
ATOM     17  H   UNL     1       5.421   4.296   1.793  0.00  0.00    +0.000 HD
ENDBRANCH  13  16
ENDBRANCH   3   6
ENDBRANCH   1   4
BRANCH   1  18
ATOM     18  C   UNL     1       1.230   0.141  -2.806  0.00  0.00    +0.000 C 
BRANCH  18  19
ATOM     19  C   UNL     1       0.139   0.585  -1.865  0.00  0.00    +0.000 A 
ATOM     20  C   UNL     1       0.002   1.945  -1.558  0.00  0.00    +0.000 A 
ATOM     21  C   UNL     1      -1.088   2.390  -0.814  0.00  0.00    +0.000 A 
ATOM     22  C   UNL     1      -2.042   1.481  -0.362  0.00  0.00    +0.000 A 
ATOM     23  C   UNL     1      -1.894   0.121  -0.627  0.00  0.00    +0.000 A 
ATOM     24  C   UNL     1      -0.807  -0.328  -1.376  0.00  0.00    +0.000 A 
ENDBRANCH  18  19
ENDBRANCH   1  18
BRANCH   1  25
ATOM     25  C   UNL     1       3.196  -1.431  -3.342  0.00  0.00    +0.000 C 
BRANCH  25  26
ATOM     26  C   UNL     1       4.175  -0.418  -3.920  0.00  0.00    +0.000 A 
ATOM     27  C   UNL     1       5.436  -0.244  -3.321  0.00  0.00    +0.000 A 
ATOM     28  C   UNL     1       6.385   0.616  -3.884  0.00  0.00    +0.000 A 
ATOM     29  C   UNL     1       6.090   1.312  -5.053  0.00  0.00    +0.000 A 
ATOM     30  C   UNL     1       4.835   1.180  -5.638  0.00  0.00    +0.000 A 
ATOM     31  C   UNL     1       3.881   0.333  -5.069  0.00  0.00    +0.000 A 
ENDBRANCH  25  26
BRANCH  25  32
ATOM     32  O   UNL     1       2.472  -2.074  -4.407  0.00  0.00    +0.000 OA
ATOM     33  H   UNL     1       1.817  -1.456  -4.762  0.00  0.00    +0.000 HD
ENDBRANCH  25  32
ENDBRANCH   1  25
TORSDOF 8
