REMARK  Name = 
REMARK  5 active torsions:
REMARK  status: ('A' for Active; 'I' for Inactive)
REMARK    1  A    between atoms: C_1  and  C_2
REMARK    2  A    between atoms: C_4  and  C_5
REMARK    3  A    between atoms: N_7  and  C_8
REMARK    4  A    between atoms: N_12  and  C_13
REMARK    5  A    between atoms: N_22  and  C_23
REMARK                            x       y       z     vdW  Elec       q    Type
REMARK                         _______ _______ _______ _____ _____    ______ ____
ROOT
ATOM      1  C   UNL     1       5.904   1.415   0.133  0.00  0.00    +0.000 C 
ATOM      2  O   UNL     1       6.929   0.752   0.000  0.00  0.00    +0.000 OA
ATOM      3  N   UNL     1       5.869   2.782   0.324  0.00  0.00    +0.000 N 
ATOM      4  H   UNL     1       4.972   3.169   0.623  0.00  0.00    +0.000 HD
ENDROOT
BRANCH   3   5
ATOM      5  C   UNL     1       6.951   3.641   0.341  0.00  0.00    +0.000 A 
ATOM      6  C   UNL     1       8.157   3.366  -0.182  0.00  0.00    +0.000 A 
ATOM      7  C   UNL     1       9.252   4.287  -0.088  0.00  0.00    +0.000 A 
ATOM      8  C   UNL     1       9.111   5.426   0.594  0.00  0.00    +0.000 A 
ATOM      9  N   UNL     1       7.900   5.790   1.171  0.00  0.00    +0.000 N 
ATOM     10  C   UNL     1       6.750   4.979   1.031  0.00  0.00    +0.000 A 
ATOM     11  O   UNL     1       5.632   5.228   1.490  0.00  0.00    +0.000 OA
BRANCH   9  12
ATOM     12  C   UNL     1       7.825   6.967   1.982  0.00  0.00    +0.000 A 
ATOM     13  C   UNL     1       8.800   7.198   2.966  0.00  0.00    +0.000 A 
ATOM     14  C   UNL     1       8.703   8.303   3.815  0.00  0.00    +0.000 A 
ATOM     15  C   UNL     1       7.658   9.210   3.659  0.00  0.00    +0.000 A 
ATOM     16  C   UNL     1       6.708   9.012   2.658  0.00  0.00    +0.000 A 
ATOM     17  C   UNL     1       6.782   7.887   1.832  0.00  0.00    +0.000 A 
ENDBRANCH   9  12
ENDBRANCH   3   5
BRANCH   1  21
ATOM     18  C   UNL     1       2.288  -2.114  -0.054  0.00  0.00    +0.000 C 
ATOM     19  C   UNL     1       3.023  -0.833   0.115  0.00  0.00    +0.000 A 
ATOM     20  C   UNL     1       4.383  -0.644   0.187  0.00  0.00    +0.000 A 
ATOM     21  C   UNL     1       4.587   0.753   0.149  0.00  0.00    +0.000 A 
ATOM     22  N   UNL     1       3.417   1.410   0.092  0.00  0.00    +0.000 NA
ATOM     23  N   UNL     1       2.459   0.439   0.089  0.00  0.00    +0.000 N 
BRANCH  23  24
ATOM     24  C   UNL     1       1.083   0.778   0.067  0.00  0.00    +0.000 A 
ATOM     25  C   UNL     1       0.143  -0.004   0.759  0.00  0.00    +0.000 A 
ATOM     26  C   UNL     1      -1.221   0.289   0.671  0.00  0.00    +0.000 A 
ATOM     27  C   UNL     1      -1.655   1.364  -0.097  0.00  0.00    +0.000 A 
ATOM     28  C   UNL     1      -0.724   2.167  -0.758  0.00  0.00    +0.000 A 
ATOM     29  C   UNL     1       0.639   1.881  -0.664  0.00  0.00    +0.000 A 
ATOM     30  F   UNL     1       1.484   2.644  -1.373  0.00  0.00    +0.000 F 
ENDBRANCH  23  24
ENDBRANCH   1  21
TORSDOF 4
