REMARK  Name = 
REMARK  9 active torsions:
REMARK  status: ('A' for Active; 'I' for Inactive)
REMARK    1  A    between atoms: C_1  and  O_2
REMARK    2  A    between atoms: O_2  and  C_3
REMARK    3  A    between atoms: C_6  and  C_7
REMARK    4  A    between atoms: C_7  and  C_8
REMARK    5  A    between atoms: C_8  and  N_9
REMARK    6  A    between atoms: C_10  and  C_12
REMARK    7  A    between atoms: C_17  and  O_18
REMARK    8  A    between atoms: O_18  and  C_19
REMARK    9  A    between atoms: C_19  and  C_20
REMARK                            x       y       z     vdW  Elec       q    Type
REMARK                         _______ _______ _______ _____ _____    ______ ____
ROOT
ATOM      1  N   UNL     1       5.681  -3.793  -6.104  0.00  0.00    +0.000 N 
ATOM      2  C   UNL     1       5.585  -5.171  -6.008  0.00  0.00    +0.000 C 
ATOM      3  O   UNL     1       6.045  -5.845  -6.928  0.00  0.00    +0.000 OA
ATOM      4  H   UNL     1       6.085  -3.511  -6.989  0.00  0.00    +0.000 HD
ENDROOT
BRANCH   2   5
ATOM      5  C   UNL     1       4.928  -5.847  -4.839  0.00  0.00    +0.000 A 
ATOM      6  N   UNL     1       5.706  -6.811  -4.263  0.00  0.00    +0.000 NA
ATOM      7  C   UNL     1       5.256  -7.377  -3.122  0.00  0.00    +0.000 A 
ATOM      8  C   UNL     1       4.090  -6.990  -2.488  0.00  0.00    +0.000 A 
ATOM      9  C   UNL     1       3.294  -6.031  -3.109  0.00  0.00    +0.000 A 
ATOM     10  C   UNL     1       3.675  -5.491  -4.342  0.00  0.00    +0.000 A 
BRANCH  10  11
ATOM     11  O   UNL     1       2.748  -4.656  -4.902  0.00  0.00    +0.000 OA
BRANCH  11  12
ATOM     12  C   UNL     1       2.711  -4.623  -6.330  0.00  0.00    +0.000 C 
BRANCH  12  13
ATOM     13  C   UNL     1       1.310  -4.451  -6.814  0.00  0.00    +0.000 A 
ATOM     14  C   UNL     1       0.316  -3.809  -6.065  0.00  0.00    +0.000 A 
ATOM     15  C   UNL     1      -0.929  -3.681  -6.638  0.00  0.00    +0.000 A 
ATOM     16  N   UNL     1      -1.239  -4.114  -7.881  0.00  0.00    +0.000 NA
ATOM     17  C   UNL     1      -0.247  -4.687  -8.595  0.00  0.00    +0.000 A 
ATOM     18  C   UNL     1       1.030  -4.862  -8.119  0.00  0.00    +0.000 A 
ENDBRANCH  12  13
ENDBRANCH  11  12
ENDBRANCH  10  11
ENDBRANCH   2   5
BRANCH   1  19
ATOM     19  C   UNL     1       5.141  -2.735  -5.261  0.00  0.00    +0.000 C 
BRANCH  19  20
ATOM     20  C   UNL     1       5.615  -2.771  -3.825  0.00  0.00    +0.000 C 
BRANCH  20  24
ATOM     21  C   UNL     1       3.263  -0.656  -0.858  0.00  0.00    +0.000 A 
ATOM     22  C   UNL     1       2.792  -0.756  -2.165  0.00  0.00    +0.000 A 
ATOM     23  C   UNL     1       3.539  -1.432  -3.124  0.00  0.00    +0.000 A 
ATOM     24  C   UNL     1       4.765  -2.040  -2.801  0.00  0.00    +0.000 A 
ATOM     25  C   UNL     1       5.224  -2.003  -1.463  0.00  0.00    +0.000 A 
ATOM     26  C   UNL     1       6.405  -2.673  -1.066  0.00  0.00    +0.000 A 
ATOM     27  C   UNL     1       6.867  -2.619   0.241  0.00  0.00    +0.000 A 
ATOM     28  C   UNL     1       6.167  -1.893   1.183  0.00  0.00    +0.000 A 
ATOM     29  C   UNL     1       4.983  -1.244   0.827  0.00  0.00    +0.000 A 
ATOM     30  C   UNL     1       4.481  -1.289  -0.489  0.00  0.00    +0.000 A 
BRANCH  21  32
ATOM     31  C   UNL     1       1.430   0.751  -0.239  0.00  0.00    +0.000 C 
ATOM     32  O   UNL     1       2.590   0.017   0.136  0.00  0.00    +0.000 OA
ENDBRANCH  21  32
ENDBRANCH  20  24
ENDBRANCH  19  20
ENDBRANCH   1  19
TORSDOF 8
