REMARK  Name = 
REMARK  7 active torsions:
REMARK  status: ('A' for Active; 'I' for Inactive)
REMARK    1  A    between atoms: C_1  and  O_2
REMARK    2  A    between atoms: O_2  and  C_3
REMARK    3  A    between atoms: C_3  and  C_5
REMARK    4  A    between atoms: C_10  and  C_11
REMARK    5  A    between atoms: C_11  and  N_12
REMARK    6  A    between atoms: C_13  and  C_15
REMARK    7  A    between atoms: C_18  and  C_19
REMARK                            x       y       z     vdW  Elec       q    Type
REMARK                         _______ _______ _______ _____ _____    ______ ____
ROOT
ATOM      1  N   UNL     1       9.783  -2.203   0.297  0.00  0.00    +0.000 N 
ATOM      2  C   UNL     1      10.700  -1.319  -0.228  0.00  0.00    +0.000 C 
ATOM      3  O   UNL     1      11.054  -1.330  -1.396  0.00  0.00    +0.000 OA
ATOM      4  H   UNL     1       9.495  -2.154   1.265  0.00  0.00    +0.000 HD
ENDROOT
BRANCH   2   5
ATOM      5  C   UNL     1      11.207  -0.264   0.662  0.00  0.00    +0.000 A 
ATOM      6  C   UNL     1      11.380  -0.385   2.023  0.00  0.00    +0.000 A 
ATOM      7  N   UNL     1      11.771   0.633   2.817  0.00  0.00    +0.000 NA
ATOM      8  C   UNL     1      12.019   1.823   2.217  0.00  0.00    +0.000 A 
ATOM      9  N   UNL     1      11.946   2.020   0.880  0.00  0.00    +0.000 NA
ATOM     10  C   UNL     1      11.536   0.967   0.136  0.00  0.00    +0.000 A 
BRANCH   8  11
ATOM     11  C   UNL     1      12.377   2.989   3.058  0.00  0.00    +0.000 A 
ATOM     12  C   UNL     1      13.168   4.029   2.560  0.00  0.00    +0.000 A 
ATOM     13  C   UNL     1      13.473   5.116   3.377  0.00  0.00    +0.000 A 
ATOM     14  C   UNL     1      12.973   5.153   4.671  0.00  0.00    +0.000 A 
ATOM     15  C   UNL     1      12.187   4.096   5.097  0.00  0.00    +0.000 A 
ATOM     16  N   UNL     1      11.885   3.025   4.330  0.00  0.00    +0.000 NA
ENDBRANCH   8  11
ENDBRANCH   2   5
BRANCH   1  17
ATOM     17  C   UNL     1       9.141  -3.209  -0.531  0.00  0.00    +0.000 C 
BRANCH  17  23
ATOM     18  C   UNL     1       4.658  -0.912  -1.175  0.00  0.00    +0.000 A 
ATOM     19  C   UNL     1       5.296   0.215  -1.717  0.00  0.00    +0.000 A 
ATOM     20  C   UNL     1       6.660   0.196  -1.958  0.00  0.00    +0.000 A 
ATOM     21  C   UNL     1       7.413  -0.924  -1.600  0.00  0.00    +0.000 A 
ATOM     22  C   UNL     1       6.840  -2.044  -0.954  0.00  0.00    +0.000 A 
ATOM     23  C   UNL     1       7.622  -3.148  -0.482  0.00  0.00    +0.000 A 
ATOM     24  C   UNL     1       6.972  -4.274   0.054  0.00  0.00    +0.000 A 
ATOM     25  C   UNL     1       5.592  -4.318   0.157  0.00  0.00    +0.000 A 
ATOM     26  C   UNL     1       4.834  -3.224  -0.245  0.00  0.00    +0.000 A 
ATOM     27  C   UNL     1       5.420  -2.055  -0.784  0.00  0.00    +0.000 A 
BRANCH  18  28
ATOM     28  C   UNL     1       3.169  -0.840  -1.009  0.00  0.00    +0.000 C 
ATOM     29  O   UNL     1       2.521  -1.399  -0.142  0.00  0.00    +0.000 OA
BRANCH  28  31
ATOM     30  C   UNL     1       1.226   0.077  -1.948  0.00  0.00    +0.000 C 
ATOM     31  O   UNL     1       2.646  -0.065  -1.998  0.00  0.00    +0.000 OA
ENDBRANCH  28  31
ENDBRANCH  18  28
ENDBRANCH  17  23
ENDBRANCH   1  17
TORSDOF 6
