REMARK  Name = 
REMARK  7 active torsions:
REMARK  status: ('A' for Active; 'I' for Inactive)
REMARK    1  A    between atoms: C_1  and  C_2
REMARK    2  A    between atoms: N_10  and  C_11
REMARK    3  A    between atoms: C_11  and  C_12
REMARK    4  A    between atoms: C_12  and  N_13
REMARK    5  A    between atoms: C_14  and  C_16
REMARK    6  A    between atoms: C_20  and  N_21
REMARK    7  A    between atoms: C_25  and  C_26
REMARK                            x       y       z     vdW  Elec       q    Type
REMARK                         _______ _______ _______ _____ _____    ______ ____
ROOT
ATOM      1  N   UNL     1       4.875  -5.064   0.045  0.00  0.00    +0.000 N 
ATOM      2  C   UNL     1       5.626  -5.417   1.148  0.00  0.00    +0.000 C 
ATOM      3  O   UNL     1       5.766  -4.699   2.126  0.00  0.00    +0.000 OA
ATOM      4  H   UNL     1       4.603  -5.769  -0.623  0.00  0.00    +0.000 HD
ENDROOT
BRANCH   2   5
ATOM      5  C   UNL     1       6.267  -6.759   1.110  0.00  0.00    +0.000 A 
ATOM      6  C   UNL     1       6.572  -7.387   2.320  0.00  0.00    +0.000 A 
ATOM      7  C   UNL     1       7.184  -8.643   2.321  0.00  0.00    +0.000 A 
ATOM      8  C   UNL     1       7.480  -9.281   1.114  0.00  0.00    +0.000 A 
ATOM      9  C   UNL     1       7.151  -8.672  -0.101  0.00  0.00    +0.000 A 
ATOM     10  C   UNL     1       6.588  -7.385  -0.100  0.00  0.00    +0.000 A 
BRANCH   9  11
ATOM     11  N   UNL     1       7.384  -9.301  -1.357  0.00  0.00    +0.000 N 
ATOM     12  N   UNL     1       7.610  -8.502  -2.438  0.00  0.00    +0.000 NA
ATOM     13  C   UNL     1       7.949  -9.331  -3.421  0.00  0.00    +0.000 A 
ATOM     14  C   UNL     1       7.834 -10.667  -3.037  0.00  0.00    +0.000 A 
ATOM     15  C   UNL     1       7.396 -10.632  -1.723  0.00  0.00    +0.000 A 
BRANCH  15  16
ATOM     16  C   UNL     1       6.915 -11.757  -0.907  0.00  0.00    +0.000 C 
ATOM     17  F   UNL     1       6.251 -11.415   0.220  0.00  0.00    +0.000 F 
ATOM     18  F   UNL     1       6.052 -12.529  -1.618  0.00  0.00    +0.000 F 
ATOM     19  F   UNL     1       7.939 -12.565  -0.536  0.00  0.00    +0.000 F 
ENDBRANCH  15  16
ENDBRANCH   9  11
ENDBRANCH   2   5
BRANCH   1  20
ATOM     20  C   UNL     1       4.211  -3.774  -0.023  0.00  0.00    +0.000 C 
BRANCH  20  21
ATOM     21  C   UNL     1       5.197  -2.596  -0.064  0.00  0.00    +0.000 C 
BRANCH  21  31
ATOM     22  C   UNL     1       3.315   1.326  -2.546  0.00  0.00    +0.000 C 
ATOM     23  C   UNL     1       3.553   0.645  -1.229  0.00  0.00    +0.000 A 
ATOM     24  N   UNL     1       3.205   1.232  -0.126  0.00  0.00    +0.000 NA
ATOM     25  C   UNL     1       3.508   0.593   1.086  0.00  0.00    +0.000 A 
ATOM     26  C   UNL     1       3.168   1.267   2.265  0.00  0.00    +0.000 A 
ATOM     27  C   UNL     1       3.490   0.736   3.511  0.00  0.00    +0.000 A 
ATOM     28  C   UNL     1       4.138  -0.492   3.588  0.00  0.00    +0.000 A 
ATOM     29  C   UNL     1       4.461  -1.190   2.420  0.00  0.00    +0.000 A 
ATOM     30  C   UNL     1       4.166  -0.650   1.158  0.00  0.00    +0.000 A 
ATOM     31  N   UNL     1       4.526  -1.301  -0.058  0.00  0.00    +0.000 N 
ATOM     32  C   UNL     1       4.224  -0.717  -1.281  0.00  0.00    +0.000 A 
ATOM     33  O   UNL     1       4.457  -1.214  -2.377  0.00  0.00    +0.000 OA
ENDBRANCH  21  31
ENDBRANCH  20  21
ENDBRANCH   1  20
TORSDOF 6
