REMARK  Name = 
REMARK  7 active torsions:
REMARK  status: ('A' for Active; 'I' for Inactive)
REMARK    1  A    between atoms: C_1  and  O_2
REMARK    2  A    between atoms: O_2  and  C_3
REMARK    3  A    between atoms: C_3  and  C_5
REMARK    4  A    between atoms: C_9  and  O_10
REMARK    5  A    between atoms: C_11  and  N_12
REMARK    6  A    between atoms: C_13  and  C_15
REMARK    7  A    between atoms: C_18  and  N_19
REMARK                            x       y       z     vdW  Elec       q    Type
REMARK                         _______ _______ _______ _____ _____    ______ ____
ROOT
ATOM      1  N   UNL     1       4.519   1.864   1.661  0.00  0.00    +0.000 N 
ATOM      2  C   UNL     1       3.267   1.571   1.128  0.00  0.00    +0.000 C 
ATOM      3  O   UNL     1       2.824   0.451   0.971  0.00  0.00    +0.000 OA
ATOM      4  H   UNL     1       4.586   2.713   2.207  0.00  0.00    +0.000 HD
ENDROOT
BRANCH   2   5
ATOM      5  C   UNL     1       2.369   2.708   0.922  0.00  0.00    +0.000 A 
ATOM      6  C   UNL     1       2.852   3.896   0.391  0.00  0.00    +0.000 A 
ATOM      7  C   UNL     1       2.120   5.057   0.564  0.00  0.00    +0.000 A 
ATOM      8  C   UNL     1       0.965   5.000   1.337  0.00  0.00    +0.000 A 
ATOM      9  C   UNL     1       0.325   3.780   1.590  0.00  0.00    +0.000 A 
ATOM     10  C   UNL     1       1.058   2.619   1.398  0.00  0.00    +0.000 A 
BRANCH   8  11
ATOM     11  N   UNL     1       0.805   6.053   2.295  0.00  0.00    +0.000 N 
ATOM     12  C   UNL     1       1.119   7.369   2.083  0.00  0.00    +0.000 A 
ATOM     13  C   UNL     1       0.729   7.991   3.271  0.00  0.00    +0.000 A 
ATOM     14  C   UNL     1       1.165   7.073   4.237  0.00  0.00    +0.000 A 
ATOM     15  C   UNL     1       1.698   7.127   5.535  0.00  0.00    +0.000 A 
ATOM     16  C   UNL     1       1.874   5.930   6.241  0.00  0.00    +0.000 A 
ATOM     17  C   UNL     1       1.375   4.734   5.738  0.00  0.00    +0.000 A 
ATOM     18  C   UNL     1       0.814   4.681   4.462  0.00  0.00    +0.000 A 
ATOM     19  C   UNL     1       0.841   5.841   3.672  0.00  0.00    +0.000 A 
ENDBRANCH   8  11
ENDBRANCH   2   5
BRANCH   1  25
ATOM     20  C   UNL     1       6.143   0.749   3.168  0.00  0.00    +0.000 A 
ATOM     21  C   UNL     1       6.952  -0.389   3.403  0.00  0.00    +0.000 A 
ATOM     22  C   UNL     1       7.059  -1.355   2.432  0.00  0.00    +0.000 A 
ATOM     23  N   UNL     1       6.469  -1.270   1.230  0.00  0.00    +0.000 NA
ATOM     24  C   UNL     1       5.696  -0.197   1.010  0.00  0.00    +0.000 A 
ATOM     25  C   UNL     1       5.442   0.829   1.947  0.00  0.00    +0.000 A 
BRANCH  20  26
ATOM     26  C   UNL     1       6.022   1.683   4.290  0.00  0.00    +0.000 C 
ATOM     27  O   UNL     1       6.257   1.420   5.464  0.00  0.00    +0.000 OA
BRANCH  26  29
ATOM     28  C   UNL     1       5.582   3.926   4.875  0.00  0.00    +0.000 C 
ATOM     29  O   UNL     1       5.665   2.939   3.843  0.00  0.00    +0.000 OA
ENDBRANCH  26  29
ENDBRANCH  20  26
BRANCH  24  30
ATOM     30  O   UNL     1       5.235  -0.121  -0.250  0.00  0.00    +0.000 OA
ATOM     31  H   UNL     1       5.482  -1.010  -0.575  0.00  0.00    +0.000 HD
ENDBRANCH  24  30
ENDBRANCH   1  25
TORSDOF 6
