REMARK  Name = 
REMARK  7 active torsions:
REMARK  status: ('A' for Active; 'I' for Inactive)
REMARK    1  A    between atoms: C_2  and  C_18
REMARK    2  A    between atoms: N_3  and  C_4
REMARK    3  A    between atoms: C_4  and  C_5
REMARK    4  A    between atoms: C_8  and  O_9
REMARK    5  A    between atoms: O_9  and  C_10
REMARK    6  A    between atoms: N_20  and  C_21
REMARK    7  A    between atoms: C_23  and  O_24
REMARK                            x       y       z     vdW  Elec       q    Type
REMARK                         _______ _______ _______ _____ _____    ______ ____
ROOT
ATOM      1  O   UNL     1       3.051  -1.079   2.456  0.00  0.00    +0.000 OA
ATOM      2  C   UNL     1       3.253  -0.589   1.351  0.00  0.00    +0.000 C 
ATOM      3  N   UNL     1       2.863   0.685   1.011  0.00  0.00    +0.000 N 
ATOM      4  H   UNL     1       3.210   1.110   0.166  0.00  0.00    +0.000 HD
ENDROOT
BRANCH   2   5
ATOM      5  C   UNL     1       3.907  -1.331   0.288  0.00  0.00    +0.000 A 
ATOM      6  C   UNL     1       4.202  -0.926  -0.999  0.00  0.00    +0.000 A 
ATOM      7  N   UNL     1       4.747  -2.000  -1.666  0.00  0.00    +0.000 N 
ATOM      8  N   UNL     1       4.861  -3.077  -0.846  0.00  0.00    +0.000 NA
ATOM      9  C   UNL     1       4.360  -2.665   0.322  0.00  0.00    +0.000 A 
BRANCH   7  10
ATOM     10  C   UNL     1       5.137  -2.059  -3.033  0.00  0.00    +0.000 A 
ATOM     11  C   UNL     1       5.577  -3.273  -3.579  0.00  0.00    +0.000 A 
ATOM     12  C   UNL     1       5.929  -3.327  -4.926  0.00  0.00    +0.000 A 
ATOM     13  C   UNL     1       5.869  -2.196  -5.731  0.00  0.00    +0.000 A 
ATOM     14  C   UNL     1       5.438  -0.987  -5.192  0.00  0.00    +0.000 A 
ATOM     15  C   UNL     1       5.067  -0.915  -3.847  0.00  0.00    +0.000 A 
BRANCH  12  16
ATOM     16  O   UNL     1       6.335  -4.493  -5.510  0.00  0.00    +0.000 OA
ATOM     17  H   UNL     1       6.247  -5.208  -4.858  0.00  0.00    +0.000 HD
ENDBRANCH  12  16
ENDBRANCH   7  10
ENDBRANCH   2   5
BRANCH   3  18
ATOM     18  C   UNL     1       2.208   1.565   1.951  0.00  0.00    +0.000 C 
BRANCH  18  19
ATOM     19  C   UNL     1       3.202   2.394   2.728  0.00  0.00    +0.000 A 
ATOM     20  C   UNL     1       3.749   1.894   3.907  0.00  0.00    +0.000 A 
ATOM     21  C   UNL     1       4.682   2.662   4.597  0.00  0.00    +0.000 A 
ATOM     22  C   UNL     1       5.013   3.928   4.122  0.00  0.00    +0.000 A 
ATOM     23  C   UNL     1       4.456   4.331   2.916  0.00  0.00    +0.000 A 
ATOM     24  N   UNL     1       3.564   3.595   2.205  0.00  0.00    +0.000 NA
BRANCH  22  25
ATOM     25  O   UNL     1       5.889   4.784   4.740  0.00  0.00    +0.000 OA
BRANCH  25  26
ATOM     26  C   UNL     1       5.893   4.849   6.115  0.00  0.00    +0.000 A 
ATOM     27  C   UNL     1       7.121   5.122   6.723  0.00  0.00    +0.000 A 
ATOM     28  C   UNL     1       7.214   5.190   8.115  0.00  0.00    +0.000 A 
ATOM     29  C   UNL     1       6.079   4.989   8.901  0.00  0.00    +0.000 A 
ATOM     30  C   UNL     1       4.845   4.757   8.297  0.00  0.00    +0.000 A 
ATOM     31  C   UNL     1       4.746   4.716   6.906  0.00  0.00    +0.000 A 
ENDBRANCH  25  26
ENDBRANCH  22  25
ENDBRANCH  18  19
ENDBRANCH   3  18
TORSDOF 7
