REMARK  Name = 
REMARK  4 active torsions:
REMARK  status: ('A' for Active; 'I' for Inactive)
REMARK    1  A    between atoms: C_2  and  C_4
REMARK    2  A    between atoms: C_10  and  N_11
REMARK    3  A    between atoms: C_12  and  C_14
REMARK    4  A    between atoms: C_16  and  C_17
REMARK                            x       y       z     vdW  Elec       q    Type
REMARK                         _______ _______ _______ _____ _____    ______ ____
ROOT
ATOM      1  N   UNL     1       2.972   3.832  -4.349  0.00  0.00    +0.000 N 
ATOM      2  C   UNL     1       2.949   4.757  -5.391  0.00  0.00    +0.000 C 
ATOM      3  O   UNL     1       3.668   4.768  -6.384  0.00  0.00    +0.000 OA
ATOM      4  H   UNL     1       2.405   4.023  -3.537  0.00  0.00    +0.000 HD
ENDROOT
BRANCH   1  11
ATOM      5  C   UNL     1       3.388   0.727  -1.182  0.00  0.00    +0.000 A 
ATOM      6  C   UNL     1       4.333   0.005  -1.880  0.00  0.00    +0.000 A 
ATOM      7  C   UNL     1       4.574   0.655  -3.112  0.00  0.00    +0.000 A 
ATOM      8  C   UNL     1       5.419   0.333  -4.182  0.00  0.00    +0.000 A 
ATOM      9  C   UNL     1       5.440   1.157  -5.298  0.00  0.00    +0.000 A 
ATOM     10  C   UNL     1       4.637   2.293  -5.346  0.00  0.00    +0.000 A 
ATOM     11  C   UNL     1       3.782   2.669  -4.289  0.00  0.00    +0.000 A 
ATOM     12  C   UNL     1       3.769   1.802  -3.172  0.00  0.00    +0.000 A 
ATOM     13  N   UNL     1       3.062   1.812  -1.979  0.00  0.00    +0.000 N 
ATOM     14  H   UNL     1       2.378   2.504  -1.706  0.00  0.00    +0.000 HD
BRANCH   5  16
ATOM     15  N   UNL     1       3.290  -0.596   0.791  0.00  0.00    +0.000 N 
ATOM     16  C   UNL     1       2.787   0.474   0.105  0.00  0.00    +0.000 C 
ATOM     17  O   UNL     1       1.890   1.157   0.584  0.00  0.00    +0.000 OA
ATOM     18  H   UNL     1       2.922  -0.789   1.710  0.00  0.00    +0.000 HD
ATOM     19  H   UNL     1       4.095  -1.117   0.479  0.00  0.00    +0.000 HD
ENDBRANCH   5  16
ENDBRANCH   1  11
BRANCH   2  20
ATOM     20  C   UNL     1       1.958   5.863  -5.291  0.00  0.00    +0.000 A 
ATOM     21  C   UNL     1       2.262   7.088  -5.924  0.00  0.00    +0.000 A 
ATOM     22  C   UNL     1       1.351   8.162  -5.944  0.00  0.00    +0.000 A 
ATOM     23  C   UNL     1       0.119   7.961  -5.300  0.00  0.00    +0.000 A 
ATOM     24  C   UNL     1      -0.182   6.746  -4.688  0.00  0.00    +0.000 A 
ATOM     25  F   UNL     1      -1.379   6.581  -4.110  0.00  0.00    +0.000 F 
ATOM     26  C   UNL     1       0.718   5.689  -4.682  0.00  0.00    +0.000 A 
BRANCH  22  27
ATOM     27  C   UNL     1       1.650   9.449  -6.613  0.00  0.00    +0.000 A 
ATOM     28  C   UNL     1       2.489   9.562  -7.724  0.00  0.00    +0.000 A 
ATOM     29  C   UNL     1       2.707  10.817  -8.294  0.00  0.00    +0.000 A 
ATOM     30  C   UNL     1       2.086  11.931  -7.748  0.00  0.00    +0.000 A 
ATOM     31  C   UNL     1       1.266  11.742  -6.652  0.00  0.00    +0.000 A 
ATOM     32  N   UNL     1       1.035  10.537  -6.081  0.00  0.00    +0.000 NA
ENDBRANCH  22  27
ENDBRANCH   2  20
TORSDOF 4
