REMARK  Name = 
REMARK  5 active torsions:
REMARK  status: ('A' for Active; 'I' for Inactive)
REMARK    1  A    between atoms: C_1  and  C_2
REMARK    2  A    between atoms: C_4  and  O_5
REMARK    3  A    between atoms: C_8  and  N_9
REMARK    4  A    between atoms: C_10  and  C_12
REMARK    5  A    between atoms: C_14  and  C_15
REMARK                            x       y       z     vdW  Elec       q    Type
REMARK                         _______ _______ _______ _____ _____    ______ ____
ROOT
ATOM      1  N   UNL     1       8.640  -1.299  -0.210  0.00  0.00    +0.000 N 
ATOM      2  C   UNL     1       9.444  -2.407  -0.432  0.00  0.00    +0.000 C 
ATOM      3  O   UNL     1       9.032  -3.546  -0.631  0.00  0.00    +0.000 OA
ATOM      4  H   UNL     1       9.111  -0.401  -0.196  0.00  0.00    +0.000 HD
ENDROOT
BRANCH   1  11
ATOM      5  C   UNL     1       0.873  -2.075   0.317  0.00  0.00    +0.000 C 
ATOM      6  C   UNL     1       2.363  -2.195   0.246  0.00  0.00    +0.000 A 
ATOM      7  N   UNL     1       2.898  -3.415   0.406  0.00  0.00    +0.000 NA
ATOM      8  C   UNL     1       4.231  -3.455   0.343  0.00  0.00    +0.000 A 
ATOM      9  C   UNL     1       5.066  -2.368   0.134  0.00  0.00    +0.000 A 
ATOM     10  C   UNL     1       6.474  -2.442   0.065  0.00  0.00    +0.000 A 
ATOM     11  C   UNL     1       7.236  -1.292  -0.121  0.00  0.00    +0.000 A 
ATOM     12  C   UNL     1       6.576  -0.066  -0.214  0.00  0.00    +0.000 A 
ATOM     13  C   UNL     1       5.175  -0.011  -0.173  0.00  0.00    +0.000 A 
ATOM     14  C   UNL     1       4.401  -1.153  -0.003  0.00  0.00    +0.000 A 
ATOM     15  N   UNL     1       3.064  -1.060   0.043  0.00  0.00    +0.000 NA
BRANCH   8  16
ATOM     16  O   UNL     1       4.735  -4.705   0.531  0.00  0.00    +0.000 OA
ATOM     17  H   UNL     1       3.915  -5.208   0.671  0.00  0.00    +0.000 HD
ENDBRANCH   8  16
ENDBRANCH   1  11
BRANCH   2  18
ATOM     18  C   UNL     1      10.857  -2.117  -0.456  0.00  0.00    +0.000 A 
ATOM     19  C   UNL     1      11.937  -2.930  -0.697  0.00  0.00    +0.000 A 
ATOM     20  C   UNL     1      13.069  -2.084  -0.594  0.00  0.00    +0.000 A 
ATOM     21  N   UNL     1      12.680  -0.831  -0.305  0.00  0.00    +0.000 NA
ATOM     22  O   UNL     1      11.303  -0.857  -0.217  0.00  0.00    +0.000 OA
BRANCH  20  23
ATOM     23  C   UNL     1      14.472  -2.441  -0.774  0.00  0.00    +0.000 A 
ATOM     24  C   UNL     1      14.847  -3.455  -1.665  0.00  0.00    +0.000 A 
ATOM     25  F   UNL     1      13.924  -4.108  -2.387  0.00  0.00    +0.000 F 
ATOM     26  C   UNL     1      16.180  -3.814  -1.844  0.00  0.00    +0.000 A 
ATOM     27  C   UNL     1      17.160  -3.150  -1.122  0.00  0.00    +0.000 A 
ATOM     28  F   UNL     1      18.444  -3.489  -1.286  0.00  0.00    +0.000 F 
ATOM     29  C   UNL     1      16.828  -2.142  -0.229  0.00  0.00    +0.000 A 
ATOM     30  C   UNL     1      15.489  -1.796  -0.060  0.00  0.00    +0.000 A 
ATOM     31  F   UNL     1      15.206  -0.839   0.836  0.00  0.00    +0.000 F 
ENDBRANCH  20  23
ENDBRANCH   2  18
TORSDOF 4
