REMARK  Name = 
REMARK  5 active torsions:
REMARK  status: ('A' for Active; 'I' for Inactive)
REMARK    1  A    between atoms: C_1  and  N_2
REMARK    2  A    between atoms: C_8  and  C_9
REMARK    3  A    between atoms: N_11  and  C_12
REMARK    4  A    between atoms: C_18  and  S_19
REMARK    5  A    between atoms: S_19  and  C_20
REMARK                            x       y       z     vdW  Elec       q    Type
REMARK                         _______ _______ _______ _____ _____    ______ ____
ROOT
ATOM      1  C   UNL     1       8.616  -0.948  -0.925  0.00  0.00    +0.000 C 
ATOM      2  O   UNL     1       9.099   0.183  -0.848  0.00  0.00    +0.000 OA
ATOM      3  N   UNL     1       9.362  -2.115  -0.870  0.00  0.00    +0.000 N 
ATOM      4  H   UNL     1       9.062  -2.885  -1.459  0.00  0.00    +0.000 HD
ENDROOT
BRANCH   1  12
ATOM      5  C   UNL     1       0.833   0.397  -0.973  0.00  0.00    +0.000 C 
ATOM      6  N   UNL     1       2.277   0.315  -1.074  0.00  0.00    +0.000 N 
ATOM      7  C   UNL     1       2.987   1.474  -1.346  0.00  0.00    +0.000 A 
ATOM      8  O   UNL     1       2.479   2.579  -1.502  0.00  0.00    +0.000 OA
ATOM      9  N   UNL     1       4.346   1.349  -1.432  0.00  0.00    +0.000 N 
ATOM     10  C   UNL     1       5.032   0.153  -1.247  0.00  0.00    +0.000 A 
ATOM     11  C   UNL     1       6.424   0.131  -1.319  0.00  0.00    +0.000 A 
ATOM     12  C   UNL     1       7.134  -1.057  -1.061  0.00  0.00    +0.000 A 
ATOM     13  C   UNL     1       6.423  -2.233  -0.786  0.00  0.00    +0.000 A 
ATOM     14  C   UNL     1       5.023  -2.206  -0.732  0.00  0.00    +0.000 A 
ATOM     15  C   UNL     1       4.333  -1.005  -0.945  0.00  0.00    +0.000 A 
ATOM     16  C   UNL     1       2.862  -0.923  -0.812  0.00  0.00    +0.000 A 
ATOM     17  O   UNL     1       2.233  -1.921  -0.470  0.00  0.00    +0.000 OA
ATOM     18  H   UNL     1       4.848   2.209  -1.620  0.00  0.00    +0.000 HD
ENDBRANCH   1  12
BRANCH   3  19
ATOM     19  C   UNL     1      10.743  -2.082  -0.528  0.00  0.00    +0.000 A 
ATOM     20  C   UNL     1      11.134  -1.316   0.587  0.00  0.00    +0.000 A 
ATOM     21  C   UNL     1      12.459  -1.290   1.015  0.00  0.00    +0.000 A 
ATOM     22  C   UNL     1      13.415  -2.012   0.312  0.00  0.00    +0.000 A 
ATOM     23  C   UNL     1      13.047  -2.768  -0.811  0.00  0.00    +0.000 A 
ATOM     24 CL   UNL     1      14.330  -3.607  -1.622  0.00  0.00    +0.000 Cl
ATOM     25  C   UNL     1      11.703  -2.834  -1.240  0.00  0.00    +0.000 A 
BRANCH  25  26
ATOM     26  S   UNL     1      11.215  -3.875  -2.629  0.00  0.00    +0.000 S 
BRANCH  26  27
ATOM     27  C   UNL     1      11.414  -2.764  -4.016  0.00  0.00    +0.000 A 
ATOM     28  C   UNL     1      12.373  -3.010  -4.995  0.00  0.00    +0.000 A 
ATOM     29  C   UNL     1      12.425  -2.171  -6.117  0.00  0.00    +0.000 A 
ATOM     30  C   UNL     1      11.517  -1.128  -6.222  0.00  0.00    +0.000 A 
ATOM     31  C   UNL     1      10.593  -0.962  -5.206  0.00  0.00    +0.000 A 
ATOM     32  N   UNL     1      10.517  -1.759  -4.113  0.00  0.00    +0.000 NA
ENDBRANCH  26  27
ENDBRANCH  25  26
ENDBRANCH   3  19
TORSDOF 4
