REMARK  Name = 
REMARK  5 active torsions:
REMARK  status: ('A' for Active; 'I' for Inactive)
REMARK    1  A    between atoms: C_2  and  C_3
REMARK    2  A    between atoms: C_4  and  N_5
REMARK    3  A    between atoms: C_6  and  C_8
REMARK    4  A    between atoms: C_12  and  C_13
REMARK    5  A    between atoms: N_21  and  C_22
REMARK                            x       y       z     vdW  Elec       q    Type
REMARK                         _______ _______ _______ _____ _____    ______ ____
ROOT
ATOM      1  C   UNL     1       3.758  -0.097   0.010  0.00  0.00    +0.000 A 
ATOM      2  C   UNL     1       4.439   1.066   0.190  0.00  0.00    +0.000 A 
ATOM      3  C   UNL     1       5.886   0.966   0.278  0.00  0.00    +0.000 A 
ATOM      4  C   UNL     1       6.515  -0.211   0.222  0.00  0.00    +0.000 A 
ATOM      5  N   UNL     1       5.831  -1.402   0.089  0.00  0.00    +0.000 N 
ATOM      6  C   UNL     1       4.432  -1.425  -0.026  0.00  0.00    +0.000 A 
ATOM      7  O   UNL     1       3.743  -2.433  -0.177  0.00  0.00    +0.000 OA
ENDROOT
BRANCH   5   8
ATOM      8  C   UNL     1       6.543  -2.635   0.013  0.00  0.00    +0.000 A 
ATOM      9  C   UNL     1       7.644  -2.752  -0.844  0.00  0.00    +0.000 A 
ATOM     10  C   UNL     1       8.290  -3.981  -0.991  0.00  0.00    +0.000 A 
ATOM     11  C   UNL     1       7.867  -5.082  -0.247  0.00  0.00    +0.000 A 
ATOM     12  C   UNL     1       6.804  -4.960   0.644  0.00  0.00    +0.000 A 
ATOM     13  C   UNL     1       6.136  -3.742   0.767  0.00  0.00    +0.000 A 
ENDBRANCH   5   8
BRANCH   2  14
ATOM     14  N   UNL     1       3.808   2.319   0.326  0.00  0.00    +0.000 N 
ATOM     15  C   UNL     1       4.417   3.558   0.528  0.00  0.00    +0.000 C 
ATOM     16  O   UNL     1       5.628   3.724   0.642  0.00  0.00    +0.000 OA
ATOM     17  H   UNL     1       2.792   2.316   0.296  0.00  0.00    +0.000 HD
BRANCH  15  18
ATOM     18  C   UNL     1       3.586   4.800   0.600  0.00  0.00    +0.000 A 
ATOM     19  C   UNL     1       4.272   5.990   0.852  0.00  0.00    +0.000 A 
ATOM     20  N   UNL     1       3.709   7.220   0.892  0.00  0.00    +0.000 NA
ATOM     21  C   UNL     1       2.382   7.276   0.663  0.00  0.00    +0.000 A 
ATOM     22  C   UNL     1       1.579   6.161   0.424  0.00  0.00    +0.000 A 
ATOM     23  C   UNL     1       2.204   4.896   0.397  0.00  0.00    +0.000 A 
BRANCH  22  24
ATOM     24  C   UNL     1       0.152   6.307   0.175  0.00  0.00    +0.000 A 
ATOM     25  C   UNL     1      -0.614   7.376   0.605  0.00  0.00    +0.000 A 
ATOM     26  O   UNL     1      -1.903   7.242   0.203  0.00  0.00    +0.000 OA
ATOM     27  C   UNL     1      -1.979   6.078  -0.489  0.00  0.00    +0.000 A 
ATOM     28  C   UNL     1      -0.750   5.465  -0.535  0.00  0.00    +0.000 A 
ENDBRANCH  22  24
ENDBRANCH  15  18
ENDBRANCH   2  14
BRANCH   1  30
ATOM     29  N   UNL     1       0.977  -0.097   0.010  0.00  0.00    +0.000 NA
ATOM     30  C   UNL     1       2.238  -0.097   0.010  0.00  0.00    +0.000 C 
ENDBRANCH   1  30
TORSDOF 5
