REMARK  Name = 
REMARK  8 active torsions:
REMARK  status: ('A' for Active; 'I' for Inactive)
REMARK    1  A    between atoms: C_1  and  O_2
REMARK    2  A    between atoms: O_2  and  C_3
REMARK    3  A    between atoms: C_5  and  C_6
REMARK    4  A    between atoms: C_9  and  C_10
REMARK    5  A    between atoms: C_10  and  N_11
REMARK    6  A    between atoms: C_17  and  O_18
REMARK    7  A    between atoms: O_18  and  C_19
REMARK    8  A    between atoms: C_19  and  C_20
REMARK                            x       y       z     vdW  Elec       q    Type
REMARK                         _______ _______ _______ _____ _____    ______ ____
ROOT
ATOM      1  N   UNL     1       3.784  -2.099   0.109  0.00  0.00    +0.000 N 
ATOM      2  C   UNL     1       2.481  -2.540  -0.043  0.00  0.00    +0.000 A 
ATOM      3  O   UNL     1       1.921  -2.719  -1.125  0.00  0.00    +0.000 OA
ATOM      4  N   UNL     1       1.770  -2.756   1.108  0.00  0.00    +0.000 N 
ATOM      5  C   UNL     1       2.317  -2.631   2.375  0.00  0.00    +0.000 A 
ATOM      6  C   UNL     1       1.523  -2.746   3.494  0.00  0.00    +0.000 A 
ATOM      7  C   UNL     1       2.054  -2.656   4.776  0.00  0.00    +0.000 A 
ATOM      8  C   UNL     1       3.441  -2.434   4.933  0.00  0.00    +0.000 A 
ATOM      9  C   UNL     1       4.249  -2.308   3.790  0.00  0.00    +0.000 A 
ATOM     10  C   UNL     1       3.696  -2.382   2.518  0.00  0.00    +0.000 A 
ATOM     11  C   UNL     1       4.480  -2.142   1.313  0.00  0.00    +0.000 A 
ATOM     12  O   UNL     1       5.690  -1.982   1.432  0.00  0.00    +0.000 OA
ATOM     13  H   UNL     1       0.789  -2.968   0.981  0.00  0.00    +0.000 HD
ENDROOT
BRANCH   1  14
ATOM     14  C   UNL     1       4.501  -1.616  -1.067  0.00  0.00    +0.000 C 
BRANCH  14  21
ATOM     15  C   UNL     1       5.175   0.899  -0.840  0.00  0.00    +0.000 A 
ATOM     16  C   UNL     1       4.896   2.233  -1.148  0.00  0.00    +0.000 A 
ATOM     17  C   UNL     1       3.788   2.600  -1.911  0.00  0.00    +0.000 A 
ATOM     18  C   UNL     1       3.477   4.042  -2.166  0.00  0.00    +0.000 C 
ATOM     19  C   UNL     1       2.979   1.593  -2.432  0.00  0.00    +0.000 A 
ATOM     20  C   UNL     1       3.257   0.253  -2.150  0.00  0.00    +0.000 A 
ATOM     21  C   UNL     1       4.337  -0.125  -1.333  0.00  0.00    +0.000 A 
BRANCH  15  23
ATOM     22  C   UNL     1       6.677   1.636   0.792  0.00  0.00    +0.000 C 
ATOM     23  O   UNL     1       6.287   0.592  -0.100  0.00  0.00    +0.000 OA
ENDBRANCH  15  23
ENDBRANCH  14  21
ENDBRANCH   1  14
BRANCH   7  24
ATOM     24  O   UNL     1       1.225  -2.759   5.875  0.00  0.00    +0.000 OA
BRANCH  24  25
ATOM     25  C   UNL     1       0.046  -3.581   5.647  0.00  0.00    +0.000 C 
BRANCH  25  26
ATOM     26  C   UNL     1      -0.479  -4.213   6.918  0.00  0.00    +0.000 A 
ATOM     27  C   UNL     1       0.136  -4.018   8.162  0.00  0.00    +0.000 A 
ATOM     28  C   UNL     1      -0.345  -4.662   9.305  0.00  0.00    +0.000 A 
ATOM     29  C   UNL     1      -1.446  -5.511   9.220  0.00  0.00    +0.000 A 
ATOM     30  C   UNL     1      -2.068  -5.717   7.991  0.00  0.00    +0.000 A 
ATOM     31  C   UNL     1      -1.591  -5.071   6.848  0.00  0.00    +0.000 A 
ENDBRANCH  25  26
ENDBRANCH  24  25
ENDBRANCH   7  24
TORSDOF 6
