REMARK  Name = 
REMARK  6 active torsions:
REMARK  status: ('A' for Active; 'I' for Inactive)
REMARK    1  A    between atoms: C_2  and  C_19
REMARK    2  A    between atoms: N_3  and  C_4
REMARK    3  A    between atoms: C_4  and  C_5
REMARK    4  A    between atoms: C_4  and  C_13
REMARK    5  A    between atoms: C_5  and  N_6
REMARK    6  A    between atoms: C_28  and  O_29
REMARK                            x       y       z     vdW  Elec       q    Type
REMARK                         _______ _______ _______ _____ _____    ______ ____
ROOT
ATOM      1  O   UNL     1       1.742  -1.170   0.552  0.00  0.00    +0.000 OA
ATOM      2  C   UNL     1       2.891  -0.747   0.558  0.00  0.00    +0.000 C 
ATOM      3  N   UNL     1       3.286   0.366   1.252  0.00  0.00    +0.000 N 
ATOM      4  H   UNL     1       4.163   0.763   0.959  0.00  0.00    +0.000 HD
ENDROOT
BRANCH   2   5
ATOM      5  C   UNL     1       3.942  -1.501  -0.091  0.00  0.00    +0.000 A 
ATOM      6  C   UNL     1       5.296  -1.321  -0.353  0.00  0.00    +0.000 A 
ATOM      7  C   UNL     1       5.831  -2.577  -0.803  0.00  0.00    +0.000 A 
ATOM      8  C   UNL     1       4.778  -3.487  -0.750  0.00  0.00    +0.000 A 
ATOM      9  N   UNL     1       3.638  -2.765  -0.547  0.00  0.00    +0.000 N 
ATOM     10  C   UNL     1       4.953  -4.859  -0.894  0.00  0.00    +0.000 A 
ATOM     11  F   UNL     1       3.926  -5.701  -0.729  0.00  0.00    +0.000 F 
ATOM     12  C   UNL     1       6.225  -5.342  -1.173  0.00  0.00    +0.000 A 
ATOM     13  C   UNL     1       7.283  -4.454  -1.368  0.00  0.00    +0.000 A 
ATOM     14  C   UNL     1       7.095  -3.072  -1.190  0.00  0.00    +0.000 A 
ATOM     15  H   UNL     1       2.700  -3.146  -0.542  0.00  0.00    +0.000 HD
BRANCH  14  16
ATOM     16  O   UNL     1       8.147  -2.213  -1.384  0.00  0.00    +0.000 OA
ATOM     17  H   UNL     1       8.845  -2.695  -1.860  0.00  0.00    +0.000 HD
ENDBRANCH  14  16
ENDBRANCH   2   5
BRANCH   3  18
ATOM     18  C   UNL     1       2.439   1.138   2.198  0.00  0.00    +0.000 C 
BRANCH  18  19
ATOM     19  C   UNL     1       3.289   1.961   3.198  0.00  0.00    +0.000 A 
ATOM     20  C   UNL     1       4.626   2.314   2.943  0.00  0.00    +0.000 A 
ATOM     21  C   UNL     1       5.405   2.966   3.907  0.00  0.00    +0.000 A 
ATOM     22  C   UNL     1       4.861   3.309   5.138  0.00  0.00    +0.000 A 
ATOM     23  C   UNL     1       3.525   3.034   5.395  0.00  0.00    +0.000 A 
ATOM     24  C   UNL     1       2.747   2.387   4.431  0.00  0.00    +0.000 A 
ENDBRANCH  18  19
BRANCH  18  25
ATOM     25  C   UNL     1       1.342   0.292   2.940  0.00  0.00    +0.000 C 
BRANCH  25  26
ATOM     26  N   UNL     1       1.770  -0.681   3.961  0.00  0.00    +0.000 N 
ATOM     27  C   UNL     1       2.999  -1.324   3.899  0.00  0.00    +0.000 A 
ATOM     28  C   UNL     1       3.333  -2.308   4.743  0.00  0.00    +0.000 A 
ATOM     29  C   UNL     1       2.400  -2.744   5.739  0.00  0.00    +0.000 A 
ATOM     30  C   UNL     1       1.208  -2.146   5.856  0.00  0.00    +0.000 A 
ATOM     31  C   UNL     1       0.827  -1.044   4.926  0.00  0.00    +0.000 A 
ATOM     32  O   UNL     1      -0.280  -0.519   5.061  0.00  0.00    +0.000 OA
ENDBRANCH  25  26
ENDBRANCH  18  25
ENDBRANCH   3  18
TORSDOF 6
