REMARK  Name = 
REMARK  6 active torsions:
REMARK  status: ('A' for Active; 'I' for Inactive)
REMARK    1  A    between atoms: C_2  and  C_16
REMARK    2  A    between atoms: N_3  and  C_4
REMARK    3  A    between atoms: C_4  and  C_5
REMARK    4  A    between atoms: C_8  and  N_9
REMARK    5  A    between atoms: C_18  and  C_19
REMARK    6  A    between atoms: C_28  and  O_29
REMARK                            x       y       z     vdW  Elec       q    Type
REMARK                         _______ _______ _______ _____ _____    ______ ____
ROOT
ATOM      1  O   UNL     1       0.995   0.045   0.544  0.00  0.00    +0.000 OA
ATOM      2  C   UNL     1       2.170  -0.005   0.195  0.00  0.00    +0.000 C 
ATOM      3  N   UNL     1       2.857  -1.182   0.022  0.00  0.00    +0.000 N 
ATOM      4  H   UNL     1       3.763  -1.157  -0.440  0.00  0.00    +0.000 HD
ENDROOT
BRANCH   2   5
ATOM      5  C   UNL     1       2.934   1.251   0.006  0.00  0.00    +0.000 A 
ATOM      6  C   UNL     1       2.531   2.398   0.706  0.00  0.00    +0.000 A 
ATOM      7  C   UNL     1       3.255   3.599   0.611  0.00  0.00    +0.000 A 
ATOM      8  C   UNL     1       4.364   3.563  -0.243  0.00  0.00    +0.000 A 
ATOM      9  N   UNL     1       4.778   2.482  -0.953  0.00  0.00    +0.000 NA
ATOM     10  C   UNL     1       4.053   1.363  -0.799  0.00  0.00    +0.000 A 
BRANCH   7  11
ATOM     11  C   UNL     1       2.874   4.818   1.363  0.00  0.00    +0.000 A 
ATOM     12  C   UNL     1       1.527   5.117   1.647  0.00  0.00    +0.000 A 
ATOM     13  C   UNL     1       1.163   6.277   2.344  0.00  0.00    +0.000 A 
ATOM     14  C   UNL     1       2.137   7.175   2.769  0.00  0.00    +0.000 A 
ATOM     15  C   UNL     1       3.476   6.905   2.511  0.00  0.00    +0.000 A 
ATOM     16  C   UNL     1       3.830   5.742   1.827  0.00  0.00    +0.000 A 
ATOM     17  F   UNL     1       5.140   5.520   1.633  0.00  0.00    +0.000 F 
ENDBRANCH   7  11
BRANCH  10  18
ATOM     18  O   UNL     1       4.547   0.333  -1.530  0.00  0.00    +0.000 OA
ATOM     19  H   UNL     1       5.282   0.790  -1.981  0.00  0.00    +0.000 HD
ENDBRANCH  10  18
ENDBRANCH   2   5
BRANCH   3  20
ATOM     20  C   UNL     1       2.219  -2.473   0.152  0.00  0.00    +0.000 C 
BRANCH  20  21
ATOM     21  C   UNL     1       3.181  -3.512   0.685  0.00  0.00    +0.000 A 
ATOM     22  C   UNL     1       3.312  -3.710   2.056  0.00  0.00    +0.000 A 
ATOM     23  C   UNL     1       4.210  -4.672   2.524  0.00  0.00    +0.000 A 
ATOM     24  C   UNL     1       4.972  -5.408   1.613  0.00  0.00    +0.000 A 
ATOM     25  C   UNL     1       4.794  -5.128   0.262  0.00  0.00    +0.000 A 
ATOM     26  N   UNL     1       3.927  -4.200  -0.215  0.00  0.00    +0.000 NA
BRANCH  24  27
ATOM     27  N   UNL     1       5.890  -6.400   2.046  0.00  0.00    +0.000 N 
ATOM     28  C   UNL     1       6.131  -6.808   3.341  0.00  0.00    +0.000 A 
ATOM     29  C   UNL     1       7.097  -7.784   3.268  0.00  0.00    +0.000 A 
ATOM     30  N   UNL     1       7.464  -8.000   1.969  0.00  0.00    +0.000 NA
ATOM     31  C   UNL     1       6.733  -7.167   1.265  0.00  0.00    +0.000 A 
ENDBRANCH  24  27
ENDBRANCH  20  21
ENDBRANCH   3  20
TORSDOF 6
