REMARK  Name = 
REMARK  6 active torsions:
REMARK  status: ('A' for Active; 'I' for Inactive)
REMARK    1  A    between atoms: C_1  and  N_2
REMARK    2  A    between atoms: C_4  and  C_5
REMARK    3  A    between atoms: N_7  and  C_8
REMARK    4  A    between atoms: C_8  and  C_9
REMARK    5  A    between atoms: C_11  and  C_12
REMARK    6  A    between atoms: C_14  and  O_15
REMARK                            x       y       z     vdW  Elec       q    Type
REMARK                         _______ _______ _______ _____ _____    ______ ____
ROOT
ATOM      1  C   UNL     1       5.151  -2.688  -0.726  0.00  0.00    +0.000 C 
ATOM      2  O   UNL     1       6.195  -2.748  -1.359  0.00  0.00    +0.000 OA
ATOM      3  N   UNL     1       4.486  -3.782  -0.208  0.00  0.00    +0.000 N 
ATOM      4  H   UNL     1       3.611  -3.629   0.280  0.00  0.00    +0.000 HD
ENDROOT
BRANCH   1   8
ATOM      5  C   UNL     1       1.045  -0.225  -0.400  0.00  0.00    +0.000 C 
ATOM      6  N   UNL     1       2.501  -0.146  -0.292  0.00  0.00    +0.000 N 
ATOM      7  N   UNL     1       3.168  -1.332  -0.463  0.00  0.00    +0.000 NA
ATOM      8  C   UNL     1       4.474  -1.345  -0.494  0.00  0.00    +0.000 A 
ATOM      9  C   UNL     1       5.269  -0.081  -0.324  0.00  0.00    +0.000 A 
ATOM     10  O   UNL     1       6.467  -0.115  -0.088  0.00  0.00    +0.000 OA
ATOM     11  C   UNL     1       4.535   1.180  -0.413  0.00  0.00    +0.000 A 
ATOM     12  C   UNL     1       5.227   2.397  -0.497  0.00  0.00    +0.000 A 
ATOM     13  C   UNL     1       4.513   3.588  -0.545  0.00  0.00    +0.000 A 
ATOM     14  C   UNL     1       3.123   3.553  -0.494  0.00  0.00    +0.000 A 
ATOM     15  C   UNL     1       2.447   2.327  -0.407  0.00  0.00    +0.000 A 
ATOM     16  C   UNL     1       3.139   1.104  -0.379  0.00  0.00    +0.000 A 
ENDBRANCH   1   8
BRANCH   3  17
ATOM     17  C   UNL     1       5.073  -5.101  -0.255  0.00  0.00    +0.000 C 
BRANCH  17  18
ATOM     18  C   UNL     1       4.024  -6.171  -0.384  0.00  0.00    +0.000 A 
ATOM     19  C   UNL     1       3.558  -6.550  -1.657  0.00  0.00    +0.000 A 
ATOM     20  C   UNL     1       2.542  -7.510  -1.831  0.00  0.00    +0.000 A 
ATOM     21  C   UNL     1       2.031  -8.113  -0.668  0.00  0.00    +0.000 A 
ATOM     22  C   UNL     1       2.494  -7.761   0.604  0.00  0.00    +0.000 A 
ATOM     23  C   UNL     1       3.476  -6.784   0.747  0.00  0.00    +0.000 A 
BRANCH  20  24
ATOM     24  C   UNL     1       1.999  -7.835  -3.175  0.00  0.00    +0.000 A 
ATOM     25  C   UNL     1       1.915  -6.851  -4.181  0.00  0.00    +0.000 A 
ATOM     26  C   UNL     1       1.349  -7.138  -5.423  0.00  0.00    +0.000 A 
ATOM     27  C   UNL     1       0.849  -8.400  -5.703  0.00  0.00    +0.000 A 
ATOM     28  C   UNL     1       0.929  -9.395  -4.734  0.00  0.00    +0.000 A 
ATOM     29  C   UNL     1       1.506  -9.116  -3.489  0.00  0.00    +0.000 A 
BRANCH  26  30
ATOM     30  O   UNL     1       1.254  -6.186  -6.395  0.00  0.00    +0.000 OA
ATOM     31  H   UNL     1       1.640  -5.360  -6.060  0.00  0.00    +0.000 HD
ENDBRANCH  26  30
ENDBRANCH  20  24
ENDBRANCH  17  18
ENDBRANCH   3  17
TORSDOF 5
