REMARK  Name = 
REMARK  6 active torsions:
REMARK  status: ('A' for Active; 'I' for Inactive)
REMARK    1  A    between atoms: C_2  and  O_3
REMARK    2  A    between atoms: C_2  and  C_16
REMARK    3  A    between atoms: O_3  and  C_4
REMARK    4  A    between atoms: C_4  and  C_5
REMARK    5  A    between atoms: C_11  and  C_12
REMARK    6  A    between atoms: C_20  and  C_21
REMARK                            x       y       z     vdW  Elec       q    Type
REMARK                         _______ _______ _______ _____ _____    ______ ____
ROOT
ATOM      1  O   UNL     1       2.540   1.246  -0.191  0.00  0.00    +0.000 OA
ATOM      2  C   UNL     1       2.263   0.128   0.207  0.00  0.00    +0.000 C 
ENDROOT
BRANCH   2   3
ATOM      3  C   UNL     1       3.047  -0.596   1.247  0.00  0.00    +0.000 A 
ATOM      4  C   UNL     1       2.629  -1.826   1.778  0.00  0.00    +0.000 A 
ATOM      5  C   UNL     1       3.419  -2.496   2.715  0.00  0.00    +0.000 A 
ATOM      6  C   UNL     1       4.647  -1.961   3.100  0.00  0.00    +0.000 A 
ATOM      7  C   UNL     1       5.087  -0.749   2.551  0.00  0.00    +0.000 A 
ATOM      8  C   UNL     1       4.265  -0.042   1.666  0.00  0.00    +0.000 A 
BRANCH   7   9
ATOM      9  C   UNL     1       6.463  -0.243   2.810  0.00  0.00    +0.000 A 
ATOM     10  N   UNL     1       6.667   1.029   2.966  0.00  0.00    +0.000 NA
ATOM     11  N   UNL     1       7.969   1.421   3.152  0.00  0.00    +0.000 N 
ATOM     12  C   UNL     1       9.066   0.598   3.152  0.00  0.00    +0.000 A 
ATOM     13  O   UNL     1      10.213   0.998   3.302  0.00  0.00    +0.000 OA
ATOM     14  C   UNL     1       8.792  -0.837   2.955  0.00  0.00    +0.000 A 
ATOM     15  C   UNL     1       7.538  -1.265   2.795  0.00  0.00    +0.000 A 
ATOM     16  H   UNL     1       8.132   2.415   3.267  0.00  0.00    +0.000 HD
ENDBRANCH   7   9
ENDBRANCH   2   3
BRANCH   2  17
ATOM     17  O   UNL     1       1.248  -0.650  -0.235  0.00  0.00    +0.000 OA
BRANCH  17  18
ATOM     18  C   UNL     1       0.364  -0.079  -1.207  0.00  0.00    +0.000 C 
BRANCH  18  19
ATOM     19  C   UNL     1       0.335  -0.965  -2.434  0.00  0.00    +0.000 A 
ATOM     20  C   UNL     1       0.758  -0.409  -3.658  0.00  0.00    +0.000 A 
ATOM     21  C   UNL     1       0.764  -1.170  -4.823  0.00  0.00    +0.000 A 
ATOM     22  F   UNL     1       1.165  -0.615  -5.973  0.00  0.00    +0.000 F 
ATOM     23  C   UNL     1       0.359  -2.495  -4.808  0.00  0.00    +0.000 A 
ATOM     24  C   UNL     1      -0.068  -3.062  -3.609  0.00  0.00    +0.000 A 
ATOM     25  C   UNL     1      -0.098  -2.313  -2.409  0.00  0.00    +0.000 A 
BRANCH  25  26
ATOM     26  C   UNL     1      -0.607  -3.034  -1.174  0.00  0.00    +0.000 C 
ATOM     27  F   UNL     1      -0.724  -2.281  -0.049  0.00  0.00    +0.000 F 
ATOM     28  F   UNL     1      -1.849  -3.563  -1.377  0.00  0.00    +0.000 F 
ATOM     29  F   UNL     1       0.187  -4.089  -0.833  0.00  0.00    +0.000 F 
ENDBRANCH  25  26
ENDBRANCH  18  19
ENDBRANCH  17  18
ENDBRANCH   2  17
TORSDOF 6
