REMARK  Name = 
REMARK  4 active torsions:
REMARK  status: ('A' for Active; 'I' for Inactive)
REMARK    1  A    between atoms: C_2  and  C_4
REMARK    2  A    between atoms: C_4  and  N_5
REMARK    3  A    between atoms: C_4  and  C_19
REMARK    4  A    between atoms: C_6  and  C_8
REMARK                            x       y       z     vdW  Elec       q    Type
REMARK                         _______ _______ _______ _____ _____    ______ ____
ROOT
ATOM      1  C   UNL     1       3.179  -0.953   0.511  0.00  0.00    +0.000 C 
ENDROOT
BRANCH   1   2
ATOM      2  C   UNL     1       4.680  -0.935   0.507  0.00  0.00    +0.000 A 
ATOM      3  C   UNL     1       5.349  -1.698   1.463  0.00  0.00    +0.000 A 
ATOM      4  C   UNL     1       6.712  -1.937   1.379  0.00  0.00    +0.000 A 
ATOM      5  C   UNL     1       7.473  -1.285   0.406  0.00  0.00    +0.000 A 
ATOM      6  C   UNL     1       8.835  -1.535   0.293  0.00  0.00    +0.000 A 
ATOM      7  C   UNL     1       9.685  -0.534  -0.134  0.00  0.00    +0.000 A 
ATOM      8  C   UNL     1       9.143   0.503  -0.880  0.00  0.00    +0.000 A 
ATOM      9  C   UNL     1       7.764   0.523  -1.145  0.00  0.00    +0.000 A 
ATOM     10  C   UNL     1       6.891  -0.323  -0.432  0.00  0.00    +0.000 A 
ATOM     11  C   UNL     1       5.479  -0.248  -0.472  0.00  0.00    +0.000 A 
ENDBRANCH   1   2
BRANCH   1  13
ATOM     12  N   UNL     1       2.291   1.339   0.506  0.00  0.00    +0.000 N 
ATOM     13  C   UNL     1       2.488   0.198  -0.223  0.00  0.00    +0.000 C 
ATOM     14  O   UNL     1       2.149   0.147  -1.404  0.00  0.00    +0.000 OA
ATOM     15  H   UNL     1       1.752   2.075   0.069  0.00  0.00    +0.000 HD
ATOM     16  H   UNL     1       2.393   1.361   1.512  0.00  0.00    +0.000 HD
ENDBRANCH   1  13
BRANCH   1  17
ATOM     17  N   UNL     1       2.726  -2.215  -0.044  0.00  0.00    +0.000 N 
ATOM     18  C   UNL     1       1.665  -2.914   0.502  0.00  0.00    +0.000 C 
ATOM     19  O   UNL     1       1.100  -2.523   1.515  0.00  0.00    +0.000 OA
ATOM     20  H   UNL     1       3.051  -2.444  -0.968  0.00  0.00    +0.000 HD
BRANCH  18  21
ATOM     21  C   UNL     1       1.290  -4.148  -0.170  0.00  0.00    +0.000 A 
ATOM     22  C   UNL     1       1.819  -4.683  -1.332  0.00  0.00    +0.000 A 
ATOM     23  O   UNL     1       1.249  -5.875  -1.636  0.00  0.00    +0.000 OA
ATOM     24  C   UNL     1       0.327  -6.136  -0.672  0.00  0.00    +0.000 A 
ATOM     25  C   UNL     1      -0.476  -7.269  -0.589  0.00  0.00    +0.000 A 
ATOM     26  F   UNL     1      -0.411  -8.255  -1.493  0.00  0.00    +0.000 F 
ATOM     27  C   UNL     1      -1.369  -7.363   0.478  0.00  0.00    +0.000 A 
ATOM     28  C   UNL     1      -1.429  -6.337   1.414  0.00  0.00    +0.000 A 
ATOM     29  F   UNL     1      -2.295  -6.439   2.431  0.00  0.00    +0.000 F 
ATOM     30  C   UNL     1      -0.615  -5.201   1.329  0.00  0.00    +0.000 A 
ATOM     31  C   UNL     1       0.295  -5.099   0.256  0.00  0.00    +0.000 A 
ENDBRANCH  18  21
ENDBRANCH   1  17
TORSDOF 4
