REMARK  Name = 
REMARK  7 active torsions:
REMARK  status: ('A' for Active; 'I' for Inactive)
REMARK    1  A    between atoms: C_1  and  N_2
REMARK    2  A    between atoms: N_2  and  C_3
REMARK    3  A    between atoms: C_3  and  C_4
REMARK    4  A    between atoms: C_11  and  C_13
REMARK    5  A    between atoms: C_18  and  C_19
REMARK    6  A    between atoms: C_22  and  C_23
REMARK    7  A    between atoms: C_23  and  N_24
REMARK                            x       y       z     vdW  Elec       q    Type
REMARK                         _______ _______ _______ _____ _____    ______ ____
ROOT
ATOM      1  C   UNL     1       4.695  -0.464   1.195  0.00  0.00    +0.000 A 
ATOM      2  C   UNL     1       5.450   0.726   1.193  0.00  0.00    +0.000 A 
ATOM      3  C   UNL     1       6.841   0.713   1.194  0.00  0.00    +0.000 A 
ATOM      4  C   UNL     1       7.504  -0.498   1.261  0.00  0.00    +0.000 A 
ATOM      5  C   UNL     1       6.773  -1.689   1.304  0.00  0.00    +0.000 A 
ATOM      6  C   UNL     1       5.354  -1.723   1.274  0.00  0.00    +0.000 A 
ENDROOT
BRANCH   6   7
ATOM      7  C   UNL     1       4.683  -3.061   1.329  0.00  0.00    +0.000 A 
ATOM      8  C   UNL     1       5.216  -4.115   2.103  0.00  0.00    +0.000 A 
ATOM      9  C   UNL     1       4.624  -5.386   2.151  0.00  0.00    +0.000 A 
ATOM     10  C   UNL     1       3.448  -5.646   1.444  0.00  0.00    +0.000 A 
ATOM     11  C   UNL     1       2.897  -4.615   0.677  0.00  0.00    +0.000 A 
ATOM     12  C   UNL     1       3.519  -3.358   0.602  0.00  0.00    +0.000 A 
BRANCH  10  13
ATOM     13  C   UNL     1       2.790  -7.000   1.509  0.00  0.00    +0.000 C 
BRANCH  13  14
ATOM     14  N   UNL     1       1.897  -7.126   2.648  0.00  0.00    +0.000 N 
ATOM     15  C   UNL     1       2.204  -7.664   3.868  0.00  0.00    +0.000 A 
ATOM     16  C   UNL     1       1.008  -7.688   4.554  0.00  0.00    +0.000 A 
ATOM     17  N   UNL     1      -0.004  -7.186   3.787  0.00  0.00    +0.000 NA
ATOM     18  C   UNL     1       0.558  -6.850   2.647  0.00  0.00    +0.000 A 
ENDBRANCH  13  14
ENDBRANCH  10  13
ENDBRANCH   6   7
BRANCH   1  21
ATOM     19  C   UNL     1       1.054   0.525   0.510  0.00  0.00    +0.000 C 
ATOM     20  N   UNL     1       2.507   0.530   0.397  0.00  0.00    +0.000 N 
ATOM     21  C   UNL     1       3.209  -0.314   1.277  0.00  0.00    +0.000 C 
ATOM     22  O   UNL     1       2.624  -0.941   2.161  0.00  0.00    +0.000 OA
BRANCH  20  23
ATOM     23  C   UNL     1       3.059   1.232  -0.774  0.00  0.00    +0.000 C 
BRANCH  23  24
ATOM     24  C   UNL     1       3.246   2.710  -0.520  0.00  0.00    +0.000 A 
ATOM     25  C   UNL     1       2.943   3.403   0.598  0.00  0.00    +0.000 A 
ATOM     26  C   UNL     1       3.244   4.813   0.726  0.00  0.00    +0.000 A 
ATOM     27  C   UNL     1       3.829   5.463  -0.284  0.00  0.00    +0.000 A 
ATOM     28  N   UNL     1       4.137   4.795  -1.440  0.00  0.00    +0.000 N 
ATOM     29  C   UNL     1       3.889   3.459  -1.651  0.00  0.00    +0.000 A 
ATOM     30  O   UNL     1       4.184   2.905  -2.707  0.00  0.00    +0.000 OA
ATOM     31  H   UNL     1       4.575   5.287  -2.210  0.00  0.00    +0.000 HD
ENDBRANCH  23  24
ENDBRANCH  20  23
ENDBRANCH   1  21
TORSDOF 6
