REMARK  Name = 
REMARK  5 active torsions:
REMARK  status: ('A' for Active; 'I' for Inactive)
REMARK    1  A    between atoms: C_2  and  C_16
REMARK    2  A    between atoms: N_3  and  C_4
REMARK    3  A    between atoms: C_6  and  C_7
REMARK    4  A    between atoms: C_21  and  O_22
REMARK    5  A    between atoms: O_22  and  C_23
REMARK                            x       y       z     vdW  Elec       q    Type
REMARK                         _______ _______ _______ _____ _____    ______ ____
ROOT
ATOM      1  O   UNL     1       1.120   0.794  -0.373  0.00  0.00    +0.000 OA
ATOM      2  C   UNL     1       2.159   0.201  -0.076  0.00  0.00    +0.000 C 
ATOM      3  N   UNL     1       2.504  -0.121   1.226  0.00  0.00    +0.000 N 
ATOM      4  H   UNL     1       3.224  -0.820   1.389  0.00  0.00    +0.000 HD
ENDROOT
BRANCH   3   5
ATOM      5  C   UNL     1       1.825   0.376   2.377  0.00  0.00    +0.000 A 
ATOM      6  C   UNL     1       0.960   1.480   2.320  0.00  0.00    +0.000 A 
ATOM      7  C   UNL     1       0.261   1.950   3.445  0.00  0.00    +0.000 A 
ATOM      8  C   UNL     1       0.504   1.336   4.678  0.00  0.00    +0.000 A 
ATOM      9  C   UNL     1       1.387   0.254   4.767  0.00  0.00    +0.000 A 
ATOM     10  C   UNL     1       2.033  -0.221   3.621  0.00  0.00    +0.000 A 
ATOM     11  F   UNL     1       2.847  -1.281   3.724  0.00  0.00    +0.000 F 
BRANCH   7  12
ATOM     12  C   UNL     1      -0.713   3.033   3.322  0.00  0.00    +0.000 A 
ATOM     13  N   UNL     1      -1.334   3.687   4.288  0.00  0.00    +0.000 NA
ATOM     14  N   UNL     1      -2.185   4.580   3.680  0.00  0.00    +0.000 NA
ATOM     15  N   UNL     1      -2.107   4.489   2.362  0.00  0.00    +0.000 NA
ATOM     16  N   UNL     1      -1.203   3.527   2.137  0.00  0.00    +0.000 N 
ATOM     17  H   UNL     1      -0.990   3.260   1.184  0.00  0.00    +0.000 HD
ENDBRANCH   7  12
ENDBRANCH   3   5
BRANCH   2  18
ATOM     18  C   UNL     1       3.078  -0.143  -1.203  0.00  0.00    +0.000 A 
ATOM     19  C   UNL     1       2.752   0.482  -2.425  0.00  0.00    +0.000 A 
ATOM     20  C   UNL     1       3.544   0.283  -3.537  0.00  0.00    +0.000 A 
ATOM     21  N   UNL     1       4.666  -0.450  -3.508  0.00  0.00    +0.000 NA
ATOM     22  C   UNL     1       4.977  -1.036  -2.329  0.00  0.00    +0.000 A 
ATOM     23  C   UNL     1       4.199  -0.976  -1.164  0.00  0.00    +0.000 A 
BRANCH  23  24
ATOM     24  O   UNL     1       4.521  -1.710  -0.039  0.00  0.00    +0.000 OA
BRANCH  24  25
ATOM     25  C   UNL     1       5.111  -2.947  -0.249  0.00  0.00    +0.000 A 
ATOM     26  C   UNL     1       6.227  -3.287   0.517  0.00  0.00    +0.000 A 
ATOM     27  C   UNL     1       6.904  -4.485   0.263  0.00  0.00    +0.000 A 
ATOM     28  C   UNL     1       6.459  -5.331  -0.752  0.00  0.00    +0.000 A 
ATOM     29  F   UNL     1       7.133  -6.457  -1.019  0.00  0.00    +0.000 F 
ATOM     30  C   UNL     1       5.329  -5.020  -1.495  0.00  0.00    +0.000 A 
ATOM     31  C   UNL     1       4.632  -3.843  -1.223  0.00  0.00    +0.000 A 
ENDBRANCH  24  25
ENDBRANCH  23  24
ENDBRANCH   2  18
TORSDOF 5
