REMARK  Name = 
REMARK  9 active torsions:
REMARK  status: ('A' for Active; 'I' for Inactive)
REMARK    1  A    between atoms: C_2  and  C_3
REMARK    2  A    between atoms: C_2  and  O_18
REMARK    3  A    between atoms: C_3  and  O_4
REMARK    4  A    between atoms: O_4  and  C_5
REMARK    5  A    between atoms: C_9  and  O_10
REMARK    6  A    between atoms: O_10  and  C_11
REMARK    7  A    between atoms: O_18  and  C_19
REMARK    8  A    between atoms: C_19  and  C_20
REMARK    9  A    between atoms: C_23  and  N_24
REMARK                            x       y       z     vdW  Elec       q    Type
REMARK                         _______ _______ _______ _____ _____    ______ ____
ROOT
ATOM      1  O   UNL     1       2.108   1.165   0.614  0.00  0.00    +0.000 OA
ATOM      2  C   UNL     1       2.307   0.113   0.022  0.00  0.00    +0.000 C 
ENDROOT
BRANCH   2   3
ATOM      3  O   UNL     1       1.889  -1.115   0.446  0.00  0.00    +0.000 OA
BRANCH   3   4
ATOM      4  C   UNL     1       1.135  -1.163   1.670  0.00  0.00    +0.000 C 
BRANCH   4   5
ATOM      5  C   UNL     1      -0.214  -1.761   1.387  0.00  0.00    +0.000 A 
ATOM      6  C   UNL     1      -1.106  -1.120   0.526  0.00  0.00    +0.000 A 
ATOM      7  C   UNL     1      -2.346  -1.694   0.251  0.00  0.00    +0.000 A 
ATOM      8  C   UNL     1      -2.678  -2.900   0.860  0.00  0.00    +0.000 A 
ATOM      9  N   UNL     1      -1.845  -3.528   1.727  0.00  0.00    +0.000 NA
ATOM     10  C   UNL     1      -0.637  -2.952   1.965  0.00  0.00    +0.000 A 
BRANCH   8  11
ATOM     11  N   UNL     1      -3.925  -3.520   0.562  0.00  0.00    +0.000 N 
ATOM     12  C   UNL     1      -4.897  -3.113  -0.325  0.00  0.00    +0.000 A 
ATOM     13  C   UNL     1      -5.892  -4.059  -0.256  0.00  0.00    +0.000 A 
ATOM     14  N   UNL     1      -5.575  -5.034   0.646  0.00  0.00    +0.000 NA
ATOM     15  C   UNL     1      -4.394  -4.691   1.118  0.00  0.00    +0.000 A 
ENDBRANCH   8  11
ENDBRANCH   4   5
ENDBRANCH   3   4
ENDBRANCH   2   3
BRANCH   2  16
ATOM     16  C   UNL     1       3.055  -0.001  -1.299  0.00  0.00    +0.000 C 
BRANCH  16  17
ATOM     17  O   UNL     1       2.130   0.076  -2.378  0.00  0.00    +0.000 OA
BRANCH  17  18
ATOM     18  C   UNL     1       2.524  -0.506  -3.554  0.00  0.00    +0.000 A 
ATOM     19  C   UNL     1       3.849  -0.654  -3.974  0.00  0.00    +0.000 A 
ATOM     20  C   UNL     1       4.128  -1.262  -5.201  0.00  0.00    +0.000 A 
ATOM     21  C   UNL     1       3.091  -1.714  -6.011  0.00  0.00    +0.000 A 
ATOM     22  C   UNL     1       1.764  -1.603  -5.584  0.00  0.00    +0.000 A 
ATOM     23  C   UNL     1       1.484  -0.957  -4.376  0.00  0.00    +0.000 A 
BRANCH  22  24
ATOM     24  O   UNL     1       0.694  -2.057  -6.328  0.00  0.00    +0.000 OA
BRANCH  24  25
ATOM     25  C   UNL     1       0.839  -3.266  -7.008  0.00  0.00    +0.000 A 
ATOM     26  C   UNL     1       0.017  -3.473  -8.107  0.00  0.00    +0.000 A 
ATOM     27  C   UNL     1       0.152  -4.667  -8.815  0.00  0.00    +0.000 A 
ATOM     28  C   UNL     1       1.099  -5.602  -8.408  0.00  0.00    +0.000 A 
ATOM     29  C   UNL     1       1.866  -5.312  -7.294  0.00  0.00    +0.000 A 
ATOM     30  N   UNL     1       1.742  -4.178  -6.575  0.00  0.00    +0.000 NA
ENDBRANCH  24  25
ENDBRANCH  22  24
ENDBRANCH  17  18
ENDBRANCH  16  17
ENDBRANCH   2  16
TORSDOF 9
