REMARK  Name = 
REMARK  6 active torsions:
REMARK  status: ('A' for Active; 'I' for Inactive)
REMARK    1  A    between atoms: C_1  and  O_2
REMARK    2  A    between atoms: O_2  and  C_3
REMARK    3  A    between atoms: C_8  and  C_9
REMARK    4  A    between atoms: C_12  and  C_13
REMARK    5  A    between atoms: N_15  and  C_16
REMARK    6  A    between atoms: C_16  and  C_17
REMARK                            x       y       z     vdW  Elec       q    Type
REMARK                         _______ _______ _______ _____ _____    ______ ____
ROOT
ATOM      1  C   UNL     1       4.691   1.174   1.357  0.00  0.00    +0.000 A 
ATOM      2  C   UNL     1       3.850   1.994   2.001  0.00  0.00    +0.000 A 
ATOM      3  C   UNL     1       4.152   3.398   2.106  0.00  0.00    +0.000 A 
ATOM      4  C   UNL     1       5.261   3.927   1.569  0.00  0.00    +0.000 A 
ATOM      5  C   UNL     1       6.193   3.019   0.817  0.00  0.00    +0.000 A 
ATOM      6  O   UNL     1       7.209   3.434   0.274  0.00  0.00    +0.000 OA
ATOM      7  N   UNL     1       5.842   1.674   0.783  0.00  0.00    +0.000 N 
ATOM      8  H   UNL     1       6.458   1.038   0.284  0.00  0.00    +0.000 HD
ENDROOT
BRANCH   1  14
ATOM      9  C   UNL     1       3.506  -0.825   0.364  0.00  0.00    +0.000 A 
ATOM     10  C   UNL     1       3.116  -2.166   0.490  0.00  0.00    +0.000 A 
ATOM     11  C   UNL     1       3.605  -2.954   1.534  0.00  0.00    +0.000 A 
ATOM     12  C   UNL     1       4.494  -2.416   2.459  0.00  0.00    +0.000 A 
ATOM     13  C   UNL     1       4.880  -1.079   2.352  0.00  0.00    +0.000 A 
ATOM     14  C   UNL     1       4.385  -0.268   1.316  0.00  0.00    +0.000 A 
BRANCH   9  16
ATOM     15  C   UNL     1       2.278  -0.557  -1.665  0.00  0.00    +0.000 C 
ATOM     16  O   UNL     1       3.066   0.015  -0.628  0.00  0.00    +0.000 OA
ENDBRANCH   9  16
ENDBRANCH   1  14
BRANCH   4  17
ATOM     17  C   UNL     1       5.460   5.394   1.793  0.00  0.00    +0.000 C 
ATOM     18  O   UNL     1       4.684   6.024   2.510  0.00  0.00    +0.000 OA
ATOM     19  N   UNL     1       6.519   6.009   1.191  0.00  0.00    +0.000 N 
ATOM     20  H   UNL     1       7.171   5.477   0.618  0.00  0.00    +0.000 HD
BRANCH  19  21
ATOM     21  C   UNL     1       6.722   7.420   1.427  0.00  0.00    +0.000 C 
BRANCH  21  22
ATOM     22  C   UNL     1       7.826   7.937   0.584  0.00  0.00    +0.000 A 
ATOM     23  C   UNL     1       7.675   8.736  -0.536  0.00  0.00    +0.000 A 
ATOM     24  N   UNL     1       8.929   9.129  -0.908  0.00  0.00    +0.000 N 
ATOM     25  C   UNL     1       9.830   8.215  -0.423  0.00  0.00    +0.000 A 
ATOM     26  C   UNL     1      11.107   7.852  -0.858  0.00  0.00    +0.000 A 
ATOM     27  C   UNL     1      11.821   6.981  -0.034  0.00  0.00    +0.000 A 
ATOM     28  C   UNL     1      11.319   6.619   1.213  0.00  0.00    +0.000 A 
ATOM     29  F   UNL     1      12.075   5.864   2.023  0.00  0.00    +0.000 F 
ATOM     30  C   UNL     1      10.033   6.972   1.624  0.00  0.00    +0.000 A 
ATOM     31  C   UNL     1       9.228   7.681   0.716  0.00  0.00    +0.000 A 
ATOM     32  H   UNL     1       9.157   9.944  -1.461  0.00  0.00    +0.000 HD
ENDBRANCH  21  22
ENDBRANCH  19  21
ENDBRANCH   4  17
TORSDOF 5
