REMARK  Name = 
REMARK  5 active torsions:
REMARK  status: ('A' for Active; 'I' for Inactive)
REMARK    1  A    between atoms: C_2  and  C_17
REMARK    2  A    between atoms: N_3  and  C_4
REMARK    3  A    between atoms: C_6  and  C_7
REMARK    4  A    between atoms: C_7  and  C_8
REMARK    5  A    between atoms: C_20  and  C_21
REMARK                            x       y       z     vdW  Elec       q    Type
REMARK                         _______ _______ _______ _____ _____    ______ ____
ROOT
ATOM      1  O   UNL     1       0.982   0.108  -0.227  0.00  0.00    +0.000 OA
ATOM      2  C   UNL     1       2.189   0.019  -0.019  0.00  0.00    +0.000 C 
ATOM      3  N   UNL     1       2.866  -1.135   0.314  0.00  0.00    +0.000 N 
ATOM      4  H   UNL     1       3.679  -1.028   0.915  0.00  0.00    +0.000 HD
ENDROOT
BRANCH   3   5
ATOM      5  C   UNL     1       2.171  -2.328   0.514  0.00  0.00    +0.000 A 
ATOM      6  C   UNL     1       1.458  -2.900  -0.540  0.00  0.00    +0.000 A 
ATOM      7  C   UNL     1       0.828  -4.137  -0.356  0.00  0.00    +0.000 A 
ATOM      8  C   UNL     1       0.870  -4.704   0.921  0.00  0.00    +0.000 A 
ATOM      9  C   UNL     1       1.597  -4.060   1.915  0.00  0.00    +0.000 A 
ATOM     10  N   UNL     1       2.297  -2.916   1.724  0.00  0.00    +0.000 NA
BRANCH   7  11
ATOM     11  C   UNL     1       0.162  -4.850  -1.511  0.00  0.00    +0.000 C 
BRANCH  11  12
ATOM     12  C   UNL     1       1.085  -5.793  -2.257  0.00  0.00    +0.000 A 
ATOM     13  C   UNL     1       1.184  -7.142  -1.882  0.00  0.00    +0.000 A 
ATOM     14  C   UNL     1       2.103  -7.992  -2.505  0.00  0.00    +0.000 A 
ATOM     15  C   UNL     1       2.920  -7.510  -3.526  0.00  0.00    +0.000 A 
ATOM     16  C   UNL     1       2.804  -6.184  -3.937  0.00  0.00    +0.000 A 
ATOM     17  C   UNL     1       1.895  -5.330  -3.305  0.00  0.00    +0.000 A 
ENDBRANCH  11  12
ENDBRANCH   7  11
ENDBRANCH   3   5
BRANCH   2  18
ATOM     18  C   UNL     1       3.003   1.264  -0.070  0.00  0.00    +0.000 A 
ATOM     19  C   UNL     1       2.405   2.464   0.329  0.00  0.00    +0.000 A 
ATOM     20  C   UNL     1       3.103   3.670   0.212  0.00  0.00    +0.000 A 
ATOM     21  C   UNL     1       4.392   3.685  -0.332  0.00  0.00    +0.000 A 
ATOM     22  C   UNL     1       4.995   2.478  -0.718  0.00  0.00    +0.000 A 
ATOM     23  C   UNL     1       4.303   1.268  -0.587  0.00  0.00    +0.000 A 
BRANCH  21  24
ATOM     24  C   UNL     1       5.128   4.964  -0.540  0.00  0.00    +0.000 A 
ATOM     25  N   UNL     1       6.426   4.966  -0.491  0.00  0.00    +0.000 NA
ATOM     26  N   UNL     1       7.045   6.174  -0.703  0.00  0.00    +0.000 N 
ATOM     27  C   UNL     1       6.422   7.358  -0.992  0.00  0.00    +0.000 A 
ATOM     28  O   UNL     1       7.021   8.412  -1.195  0.00  0.00    +0.000 OA
ATOM     29  C   UNL     1       4.943   7.311  -1.044  0.00  0.00    +0.000 A 
ATOM     30  C   UNL     1       4.306   6.163  -0.829  0.00  0.00    +0.000 A 
ATOM     31  H   UNL     1       8.056   6.176  -0.673  0.00  0.00    +0.000 HD
ENDBRANCH  21  24
ENDBRANCH   2  18
TORSDOF 5
