REMARK  Name = 
REMARK  6 active torsions:
REMARK  status: ('A' for Active; 'I' for Inactive)
REMARK    1  A    between atoms: C_2  and  C_17
REMARK    2  A    between atoms: N_3  and  C_4
REMARK    3  A    between atoms: C_7  and  O_8
REMARK    4  A    between atoms: O_8  and  C_9
REMARK    5  A    between atoms: N_19  and  C_20
REMARK    6  A    between atoms: C_27  and  O_28
REMARK                            x       y       z     vdW  Elec       q    Type
REMARK                         _______ _______ _______ _____ _____    ______ ____
ROOT
ATOM      1  O   UNL     1       1.025   0.045   0.211  0.00  0.00    +0.000 OA
ATOM      2  C   UNL     1       2.225  -0.103  -0.011  0.00  0.00    +0.000 C 
ATOM      3  N   UNL     1       2.845   0.134  -1.223  0.00  0.00    +0.000 N 
ATOM      4  H   UNL     1       3.824  -0.140  -1.253  0.00  0.00    +0.000 HD
ENDROOT
BRANCH   3   5
ATOM      5  C   UNL     1       2.197   0.515  -2.413  0.00  0.00    +0.000 A 
ATOM      6  C   UNL     1       0.894   1.015  -2.459  0.00  0.00    +0.000 A 
ATOM      7  C   UNL     1       0.299   1.312  -3.682  0.00  0.00    +0.000 A 
ATOM      8  C   UNL     1       1.042   1.119  -4.830  0.00  0.00    +0.000 A 
ATOM      9  N   UNL     1       2.309   0.641  -4.832  0.00  0.00    +0.000 NA
ATOM     10  C   UNL     1       2.861   0.372  -3.626  0.00  0.00    +0.000 A 
BRANCH   8  11
ATOM     11  O   UNL     1       0.424   1.443  -6.032  0.00  0.00    +0.000 OA
BRANCH  11  12
ATOM     12  C   UNL     1       1.232   1.919  -7.038  0.00  0.00    +0.000 A 
ATOM     13  C   UNL     1       0.921   1.529  -8.341  0.00  0.00    +0.000 A 
ATOM     14  C   UNL     1       1.715   1.966  -9.402  0.00  0.00    +0.000 A 
ATOM     15  C   UNL     1       2.810   2.798  -9.162  0.00  0.00    +0.000 A 
ATOM     16  C   UNL     1       3.094   3.221  -7.865  0.00  0.00    +0.000 A 
ATOM     17  C   UNL     1       2.293   2.800  -6.807  0.00  0.00    +0.000 A 
ENDBRANCH  11  12
ENDBRANCH   8  11
ENDBRANCH   3   5
BRANCH   2  18
ATOM     18  C   UNL     1       3.136  -0.628   1.016  0.00  0.00    +0.000 A 
ATOM     19  N   UNL     1       4.465  -0.771   0.813  0.00  0.00    +0.000 NA
ATOM     20  N   UNL     1       4.935  -1.341   1.964  0.00  0.00    +0.000 N 
ATOM     21  C   UNL     1       3.930  -1.529   2.888  0.00  0.00    +0.000 A 
ATOM     22  C   UNL     1       2.782  -1.082   2.302  0.00  0.00    +0.000 A 
BRANCH  20  23
ATOM     23  C   UNL     1       6.308  -1.692   2.112  0.00  0.00    +0.000 A 
ATOM     24  C   UNL     1       7.227  -1.341   1.113  0.00  0.00    +0.000 A 
ATOM     25  C   UNL     1       8.573  -1.695   1.242  0.00  0.00    +0.000 A 
ATOM     26  C   UNL     1       9.008  -2.402   2.364  0.00  0.00    +0.000 A 
ATOM     27  C   UNL     1       8.100  -2.753   3.361  0.00  0.00    +0.000 A 
ATOM     28  C   UNL     1       6.755  -2.397   3.240  0.00  0.00    +0.000 A 
ENDBRANCH  20  23
BRANCH  22  29
ATOM     29  O   UNL     1       1.574  -1.111   2.879  0.00  0.00    +0.000 OA
ATOM     30  H   UNL     1       1.618  -1.483   3.776  0.00  0.00    +0.000 HD
ENDBRANCH  22  29
ENDBRANCH   2  18
TORSDOF 6
