REMARK  Name = 
REMARK  5 active torsions:
REMARK  status: ('A' for Active; 'I' for Inactive)
REMARK    1  A    between atoms: N_1  and  C_2
REMARK    2  A    between atoms: C_4  and  C_5
REMARK    3  A    between atoms: N_7  and  C_8
REMARK    4  A    between atoms: C_10  and  N_11
REMARK    5  A    between atoms: C_12  and  C_14
REMARK                            x       y       z     vdW  Elec       q    Type
REMARK                         _______ _______ _______ _____ _____    ______ ____
ROOT
ATOM      1  C   UNL     1       5.616   5.021  -0.603  0.00  0.00    +0.000 A 
ATOM      2  C   UNL     1       6.640   5.039  -1.557  0.00  0.00    +0.000 A 
ATOM      3  C   UNL     1       7.436   6.158  -1.823  0.00  0.00    +0.000 A 
ATOM      4  C   UNL     1       7.194   7.309  -1.076  0.00  0.00    +0.000 A 
ATOM      5  C   UNL     1       6.124   7.338  -0.160  0.00  0.00    +0.000 A 
ATOM      6  C   UNL     1       5.325   6.206   0.065  0.00  0.00    +0.000 A 
ENDROOT
BRANCH   1   9
ATOM      7  C   UNL     1       5.346   2.548  -0.614  0.00  0.00    +0.000 C 
ATOM      8  O   UNL     1       6.414   2.252  -1.144  0.00  0.00    +0.000 OA
ATOM      9  N   UNL     1       4.902   3.832  -0.305  0.00  0.00    +0.000 N 
ATOM     10  H   UNL     1       4.073   3.883   0.281  0.00  0.00    +0.000 HD
BRANCH   7  13
ATOM     11  C   UNL     1       4.174  -0.955   0.048  0.00  0.00    +0.000 A 
ATOM     12  C   UNL     1       4.911   0.118  -0.434  0.00  0.00    +0.000 A 
ATOM     13  C   UNL     1       4.472   1.421  -0.181  0.00  0.00    +0.000 A 
ATOM     14  N   UNL     1       3.318   1.724   0.472  0.00  0.00    +0.000 NA
ATOM     15  C   UNL     1       2.581   0.655   0.864  0.00  0.00    +0.000 A 
ATOM     16  C   UNL     1       2.957  -0.669   0.668  0.00  0.00    +0.000 A 
ATOM     17  F   UNL     1       2.168  -1.663   1.099  0.00  0.00    +0.000 F 
BRANCH  11  18
ATOM     18  N   UNL     1       4.545  -2.268  -0.280  0.00  0.00    +0.000 N 
ATOM     19  H   UNL     1       5.544  -2.411  -0.407  0.00  0.00    +0.000 HD
ATOM     20  H   UNL     1       4.122  -2.971   0.321  0.00  0.00    +0.000 HD
ENDBRANCH  11  18
ENDBRANCH   7  13
ENDBRANCH   1   9
BRANCH   3  21
ATOM     21  N   UNL     1       8.480   6.122  -2.803  0.00  0.00    +0.000 N 
ATOM     22  C   UNL     1       8.544   5.154  -3.796  0.00  0.00    +0.000 C 
ATOM     23  O   UNL     1       7.640   4.347  -4.011  0.00  0.00    +0.000 OA
ATOM     24  H   UNL     1       9.152   6.875  -2.818  0.00  0.00    +0.000 HD
BRANCH  22  25
ATOM     25  C   UNL     1       9.684   5.072  -4.682  0.00  0.00    +0.000 A 
ATOM     26  C   UNL     1      10.811   5.801  -5.022  0.00  0.00    +0.000 A 
ATOM     27  C   UNL     1      11.406   5.173  -6.180  0.00  0.00    +0.000 A 
ATOM     28  C   UNL     1      12.483   5.462  -7.048  0.00  0.00    +0.000 A 
ATOM     29  C   UNL     1      12.705   4.636  -8.165  0.00  0.00    +0.000 A 
ATOM     30  C   UNL     1      11.895   3.532  -8.421  0.00  0.00    +0.000 A 
ATOM     31  C   UNL     1      10.855   3.200  -7.561  0.00  0.00    +0.000 A 
ATOM     32  C   UNL     1      10.647   4.040  -6.463  0.00  0.00    +0.000 A 
ATOM     33  N   UNL     1       9.705   3.953  -5.490  0.00  0.00    +0.000 N 
ATOM     34  H   UNL     1       8.996   3.234  -5.420  0.00  0.00    +0.000 HD
ENDBRANCH  22  25
ENDBRANCH   3  21
TORSDOF 5
