REMARK  Name = 
REMARK  6 active torsions:
REMARK  status: ('A' for Active; 'I' for Inactive)
REMARK    1  A    between atoms: C_1  and  O_2
REMARK    2  A    between atoms: O_2  and  C_3
REMARK    3  A    between atoms: C_3  and  C_5
REMARK    4  A    between atoms: C_7  and  N_8
REMARK    5  A    between atoms: C_9  and  C_11
REMARK    6  A    between atoms: N_13  and  C_14
REMARK                            x       y       z     vdW  Elec       q    Type
REMARK                         _______ _______ _______ _____ _____    ______ ____
ROOT
ATOM      1  N   UNL     1       7.243  -3.480  -0.241  0.00  0.00    +0.000 N 
ATOM      2  C   UNL     1       6.561  -4.597  -0.693  0.00  0.00    +0.000 C 
ATOM      3  O   UNL     1       5.346  -4.706  -0.805  0.00  0.00    +0.000 OA
ATOM      4  H   UNL     1       8.245  -3.521  -0.165  0.00  0.00    +0.000 HD
ENDROOT
BRANCH   1   7
ATOM      5  C   UNL     1       4.661  -1.034   0.398  0.00  0.00    +0.000 A 
ATOM      6  N   UNL     1       5.281  -2.187   0.032  0.00  0.00    +0.000 NA
ATOM      7  C   UNL     1       6.607  -2.285   0.136  0.00  0.00    +0.000 A 
ATOM      8  C   UNL     1       7.374  -1.228   0.605  0.00  0.00    +0.000 A 
ATOM      9  C   UNL     1       6.748  -0.028   0.991  0.00  0.00    +0.000 A 
ATOM     10  C   UNL     1       7.503   1.054   1.482  0.00  0.00    +0.000 A 
ATOM     11  C   UNL     1       6.889   2.242   1.881  0.00  0.00    +0.000 A 
ATOM     12  C   UNL     1       5.509   2.369   1.798  0.00  0.00    +0.000 A 
ATOM     13  C   UNL     1       4.744   1.309   1.312  0.00  0.00    +0.000 A 
ATOM     14  C   UNL     1       5.344   0.093   0.894  0.00  0.00    +0.000 A 
BRANCH   5  15
ATOM     15  C   UNL     1       3.173  -1.052   0.220  0.00  0.00    +0.000 C 
ATOM     16  O   UNL     1       2.479  -0.082  -0.042  0.00  0.00    +0.000 OA
BRANCH  15  18
ATOM     17  C   UNL     1       1.308  -2.472   0.252  0.00  0.00    +0.000 C 
ATOM     18  O   UNL     1       2.714  -2.316   0.424  0.00  0.00    +0.000 OA
ENDBRANCH  15  18
ENDBRANCH   5  15
ENDBRANCH   1   7
BRANCH   2  19
ATOM     19  C   UNL     1       7.394  -5.734  -1.056  0.00  0.00    +0.000 A 
ATOM     20  C   UNL     1       8.766  -5.903  -1.080  0.00  0.00    +0.000 A 
ATOM     21  N   UNL     1       9.013  -7.197  -1.513  0.00  0.00    +0.000 N 
ATOM     22  N   UNL     1       7.860  -7.853  -1.783  0.00  0.00    +0.000 NA
ATOM     23  C   UNL     1       6.899  -6.979  -1.500  0.00  0.00    +0.000 A 
BRANCH  21  24
ATOM     24  C   UNL     1      10.264  -7.853  -1.678  0.00  0.00    +0.000 A 
ATOM     25  C   UNL     1      11.468  -7.218  -1.357  0.00  0.00    +0.000 A 
ATOM     26  C   UNL     1      12.666  -7.909  -1.520  0.00  0.00    +0.000 A 
ATOM     27  F   UNL     1      13.817  -7.302  -1.201  0.00  0.00    +0.000 F 
ATOM     28  C   UNL     1      12.695  -9.214  -2.000  0.00  0.00    +0.000 A 
ATOM     29  C   UNL     1      11.501  -9.849  -2.326  0.00  0.00    +0.000 A 
ATOM     30  C   UNL     1      10.289  -9.174  -2.165  0.00  0.00    +0.000 A 
ENDBRANCH  21  24
ENDBRANCH   2  19
TORSDOF 5
