REMARK  Name = 
REMARK  5 active torsions:
REMARK  status: ('A' for Active; 'I' for Inactive)
REMARK    1  A    between atoms: C_2  and  C_15
REMARK    2  A    between atoms: N_3  and  C_4
REMARK    3  A    between atoms: C_4  and  C_5
REMARK    4  A    between atoms: C_17  and  N_18
REMARK    5  A    between atoms: C_24  and  C_25
REMARK                            x       y       z     vdW  Elec       q    Type
REMARK                         _______ _______ _______ _____ _____    ______ ____
ROOT
ATOM      1  O   UNL     1       1.091   0.128  -0.318  0.00  0.00    +0.000 OA
ATOM      2  C   UNL     1       2.284   0.047  -0.051  0.00  0.00    +0.000 C 
ATOM      3  N   UNL     1       2.957   0.949   0.741  0.00  0.00    +0.000 N 
ATOM      4  H   UNL     1       3.965   1.006   0.658  0.00  0.00    +0.000 HD
ENDROOT
BRANCH   2   5
ATOM      5  C   UNL     1       3.104  -1.060  -0.619  0.00  0.00    +0.000 A 
ATOM      6  C   UNL     1       2.713  -1.628  -1.839  0.00  0.00    +0.000 A 
ATOM      7  C   UNL     1       3.454  -2.674  -2.408  0.00  0.00    +0.000 A 
ATOM      8  C   UNL     1       4.593  -3.142  -1.733  0.00  0.00    +0.000 A 
ATOM      9  C   UNL     1       5.009  -2.564  -0.522  0.00  0.00    +0.000 A 
ATOM     10  C   UNL     1       4.239  -1.538   0.044  0.00  0.00    +0.000 A 
BRANCH   7  11
ATOM     11  N   UNL     1       3.088  -3.230  -3.674  0.00  0.00    +0.000 N 
ATOM     12  C   UNL     1       3.703  -4.291  -4.315  0.00  0.00    +0.000 A 
ATOM     13  C   UNL     1       3.106  -4.495  -5.539  0.00  0.00    +0.000 A 
ATOM     14  C   UNL     1       2.077  -3.546  -5.662  0.00  0.00    +0.000 A 
ATOM     15  C   UNL     1       2.074  -2.795  -4.507  0.00  0.00    +0.000 A 
ENDBRANCH   7  11
BRANCH   9  16
ATOM     16  C   UNL     1       6.298  -2.994   0.137  0.00  0.00    +0.000 C 
ATOM     17  F   UNL     1       6.971  -3.953  -0.556  0.00  0.00    +0.000 F 
ATOM     18  F   UNL     1       7.166  -1.954   0.273  0.00  0.00    +0.000 F 
ATOM     19  F   UNL     1       6.109  -3.492   1.388  0.00  0.00    +0.000 F 
ENDBRANCH   9  16
ENDBRANCH   2   5
BRANCH   3  20
ATOM     20  C   UNL     1       2.288   2.113   1.276  0.00  0.00    +0.000 C 
BRANCH  20  21
ATOM     21  C   UNL     1       2.930   2.587   2.546  0.00  0.00    +0.000 A 
ATOM     22  C   UNL     1       2.224   2.599   3.763  0.00  0.00    +0.000 A 
ATOM     23  C   UNL     1       2.818   3.069   4.955  0.00  0.00    +0.000 A 
ATOM     24  C   UNL     1       4.132   3.538   4.964  0.00  0.00    +0.000 A 
ATOM     25  C   UNL     1       4.800   3.513   3.763  0.00  0.00    +0.000 A 
ATOM     26  C   UNL     1       4.232   3.057   2.590  0.00  0.00    +0.000 A 
ATOM     27  O   UNL     1       5.111   3.136   1.518  0.00  0.00    +0.000 OA
ATOM     28  C   UNL     1       6.257   3.688   2.106  0.00  0.00    +0.000 A 
ATOM     29  O   UNL     1       7.283   3.934   1.494  0.00  0.00    +0.000 OA
ATOM     30  N   UNL     1       6.068   3.906   3.450  0.00  0.00    +0.000 N 
ATOM     31  H   UNL     1       6.765   4.304   4.057  0.00  0.00    +0.000 HD
ENDBRANCH  20  21
ENDBRANCH   3  20
TORSDOF 5
