REMARK  Name = 
REMARK  6 active torsions:
REMARK  status: ('A' for Active; 'I' for Inactive)
REMARK    1  A    between atoms: C_2  and  C_15
REMARK    2  A    between atoms: N_3  and  CA_4
REMARK    3  A    between atoms: CA_4  and  C_5
REMARK    4  A    between atoms: CA_4  and  C_7
REMARK    5  A    between atoms: C_5  and  O_6
REMARK    6  A    between atoms: C_17  and  C_18
REMARK                            x       y       z     vdW  Elec       q    Type
REMARK                         _______ _______ _______ _____ _____    ______ ____
ROOT
ATOM      1  O   UNL     1       1.172  -0.412   0.526  0.00  0.00    +0.000 OA
ATOM      2  C   UNL     1       2.281  -0.082   0.114  0.00  0.00    +0.000 C 
ATOM      3  N   UNL     1       2.906  -0.744  -0.909  0.00  0.00    +0.000 N 
ATOM      4  H   UNL     1       3.732  -0.310  -1.323  0.00  0.00    +0.000 HD
ENDROOT
BRANCH   2   5
ATOM      5  C   UNL     1       3.022   1.067   0.703  0.00  0.00    +0.000 A 
ATOM      6  C   UNL     1       2.642   1.471   1.933  0.00  0.00    +0.000 A 
ATOM      7  C   UNL     1       3.409   2.615   2.526  0.00  0.00    +0.000 A 
ATOM      8  N   UNL     1       4.353   3.261   1.897  0.00  0.00    +0.000 NA
ATOM      9  C   UNL     1       4.681   2.830   0.648  0.00  0.00    +0.000 A 
ATOM     10  C   UNL     1       5.605   3.298  -0.256  0.00  0.00    +0.000 A 
ATOM     11  C   UNL     1       5.508   2.436  -1.355  0.00  0.00    +0.000 A 
ATOM     12  N   UNL     1       4.599   1.474  -1.183  0.00  0.00    +0.000 NA
ATOM     13  N   UNL     1       4.057   1.733   0.048  0.00  0.00    +0.000 N 
BRANCH   7  14
ATOM     14  C   UNL     1       3.073   3.033   3.922  0.00  0.00    +0.000 A 
ATOM     15  C   UNL     1       2.596   2.132   4.883  0.00  0.00    +0.000 A 
ATOM     16  C   UNL     1       2.380   2.558   6.198  0.00  0.00    +0.000 A 
ATOM     17  C   UNL     1       2.641   3.879   6.562  0.00  0.00    +0.000 A 
ATOM     18  C   UNL     1       3.113   4.782   5.613  0.00  0.00    +0.000 A 
ATOM     19  C   UNL     1       3.330   4.361   4.299  0.00  0.00    +0.000 A 
ENDBRANCH   7  14
ENDBRANCH   2   5
BRANCH   3  20
ATOM     20  CA  UNL     1       2.297  -1.883  -1.594  0.00  0.00    +0.000 C 
BRANCH  20  21
ATOM     21  C   UNL     1       3.359  -2.876  -2.012  0.00  0.00    +0.000 A 
ATOM     22  C   UNL     1       4.381  -2.537  -2.918  0.00  0.00    +0.000 A 
ATOM     23  C   UNL     1       5.356  -3.475  -3.281  0.00  0.00    +0.000 A 
ATOM     24  C   UNL     1       5.325  -4.761  -2.743  0.00  0.00    +0.000 A 
ATOM     25  C   UNL     1       4.317  -5.103  -1.849  0.00  0.00    +0.000 A 
ATOM     26  F   UNL     1       4.289  -6.341  -1.337  0.00  0.00    +0.000 F 
ATOM     27  C   UNL     1       3.345  -4.176  -1.489  0.00  0.00    +0.000 A 
ATOM     28  F   UNL     1       2.382  -4.540  -0.630  0.00  0.00    +0.000 F 
ENDBRANCH  20  21
BRANCH  20  29
ATOM     29  C   UNL     1       1.429  -1.426  -2.791  0.00  0.00    +0.000 C 
BRANCH  29  30
ATOM     30  O   UNL     1       0.361  -0.557  -2.410  0.00  0.00    +0.000 OA
ATOM     31  H   UNL     1       0.332  -0.515  -1.433  0.00  0.00    +0.000 HD
ENDBRANCH  29  30
ENDBRANCH  20  29
ENDBRANCH   3  20
TORSDOF 6
