REMARK  Name = 
REMARK  7 active torsions:
REMARK  status: ('A' for Active; 'I' for Inactive)
REMARK    1  A    between atoms: C_1  and  N_2
REMARK    2  A    between atoms: C_8  and  C_9
REMARK    3  A    between atoms: C_9  and  N_10
REMARK    4  A    between atoms: N_13  and  C_14
REMARK    5  A    between atoms: C_14  and  C_15
REMARK    6  A    between atoms: C_17  and  O_18
REMARK    7  A    between atoms: O_18  and  C_19
REMARK                            x       y       z     vdW  Elec       q    Type
REMARK                         _______ _______ _______ _____ _____    ______ ____
ROOT
ATOM      1  N   UNL     1       2.562  -3.700   0.168  0.00  0.00    +0.000 N 
ATOM      2  C   UNL     1       3.352  -4.810   0.100  0.00  0.00    +0.000 C 
ATOM      3  O   UNL     1       4.574  -4.771   0.034  0.00  0.00    +0.000 OA
ATOM      4  N   UNL     1       2.641  -5.977   0.147  0.00  0.00    +0.000 N 
ATOM      5  H   UNL     1       1.561  -3.796   0.140  0.00  0.00    +0.000 HD
ATOM      6  H   UNL     1       1.646  -5.954   0.299  0.00  0.00    +0.000 HD
ENDROOT
BRANCH   1   7
ATOM      7  C   UNL     1       3.122  -2.368   0.055  0.00  0.00    +0.000 C 
BRANCH   7  15
ATOM      8  C   UNL     1       3.448  -2.023   5.642  0.00  0.00    +0.000 C 
ATOM      9  N   UNL     1       2.845  -0.948   4.892  0.00  0.00    +0.000 N 
ATOM     10  N   UNL     1       2.365   0.134   5.541  0.00  0.00    +0.000 NA
ATOM     11  C   UNL     1       1.863   0.884   4.554  0.00  0.00    +0.000 A 
ATOM     12  C   UNL     1       2.011   0.286   3.282  0.00  0.00    +0.000 A 
ATOM     13  C   UNL     1       1.675   0.619   1.958  0.00  0.00    +0.000 A 
ATOM     14  C   UNL     1       2.018  -0.266   0.928  0.00  0.00    +0.000 A 
ATOM     15  C   UNL     1       2.689  -1.468   1.191  0.00  0.00    +0.000 A 
ATOM     16  C   UNL     1       3.028  -1.806   2.514  0.00  0.00    +0.000 A 
ATOM     17  C   UNL     1       2.671  -0.914   3.533  0.00  0.00    +0.000 A 
ENDBRANCH   7  15
ENDBRANCH   1   7
BRANCH   4  18
ATOM     18  C   UNL     1       3.305  -7.268   0.220  0.00  0.00    +0.000 C 
BRANCH  18  19
ATOM     19  C   UNL     1       3.572  -7.727   1.641  0.00  0.00    +0.000 A 
ATOM     20  C   UNL     1       4.349  -6.945   2.491  0.00  0.00    +0.000 A 
ATOM     21  C   UNL     1       4.680  -7.425   3.753  0.00  0.00    +0.000 A 
ATOM     22  C   UNL     1       4.157  -8.638   4.175  0.00  0.00    +0.000 A 
ATOM     23  C   UNL     1       3.371  -9.349   3.284  0.00  0.00    +0.000 A 
ATOM     24  N   UNL     1       3.074  -8.925   2.032  0.00  0.00    +0.000 NA
BRANCH  21  25
ATOM     25  O   UNL     1       5.471  -6.734   4.646  0.00  0.00    +0.000 OA
BRANCH  25  26
ATOM     26  C   UNL     1       6.516  -5.967   4.176  0.00  0.00    +0.000 A 
ATOM     27  C   UNL     1       7.288  -6.302   3.050  0.00  0.00    +0.000 A 
ATOM     28  C   UNL     1       8.321  -5.466   2.633  0.00  0.00    +0.000 A 
ATOM     29  C   UNL     1       8.619  -4.327   3.366  0.00  0.00    +0.000 A 
ATOM     30  F   UNL     1       9.627  -3.530   2.972  0.00  0.00    +0.000 F 
ATOM     31  C   UNL     1       7.890  -4.018   4.507  0.00  0.00    +0.000 A 
ATOM     32  F   UNL     1       8.191  -2.924   5.224  0.00  0.00    +0.000 F 
ATOM     33  C   UNL     1       6.840  -4.835   4.920  0.00  0.00    +0.000 A 
ENDBRANCH  25  26
ENDBRANCH  21  25
ENDBRANCH  18  19
ENDBRANCH   4  18
TORSDOF 6
