REMARK  Name = 
REMARK  5 active torsions:
REMARK  status: ('A' for Active; 'I' for Inactive)
REMARK    1  A    between atoms: C_1  and  N_2
REMARK    2  A    between atoms: C_5  and  C_6
REMARK    3  A    between atoms: C_14  and  N_15
REMARK    4  A    between atoms: C_16  and  C_18
REMARK    5  A    between atoms: C_18  and  C_19
REMARK                            x       y       z     vdW  Elec       q    Type
REMARK                         _______ _______ _______ _____ _____    ______ ____
ROOT
ATOM      1  N   UNL     1      -0.384  -2.493   0.006  0.00  0.00    +0.000 N 
ATOM      2  C   UNL     1      -1.697  -2.915  -0.402  0.00  0.00    +0.000 C 
ATOM      3  O   UNL     1      -2.491  -2.096  -0.832  0.00  0.00    +0.000 OA
ATOM      4  H   UNL     1       0.194  -3.132   0.544  0.00  0.00    +0.000 HD
ENDROOT
BRANCH   1  10
ATOM      5  C   UNL     1      -0.288  -0.510  -2.449  0.00  0.00    +0.000 C 
ATOM      6  N   UNL     1      -0.026  -0.255  -1.053  0.00  0.00    +0.000 N 
ATOM      7  N   UNL     1       0.456   0.958  -0.719  0.00  0.00    +0.000 NA
ATOM      8  C   UNL     1       0.783   0.830   0.564  0.00  0.00    +0.000 A 
ATOM      9  C   UNL     1       0.566  -0.477   1.069  0.00  0.00    +0.000 A 
ATOM     10  C   UNL     1       0.008  -1.157  -0.008  0.00  0.00    +0.000 A 
BRANCH   9  11
ATOM     11  C   UNL     1       0.732  -0.951   2.442  0.00  0.00    +0.000 A 
ATOM     12  C   UNL     1       0.590  -0.039   3.504  0.00  0.00    +0.000 A 
ATOM     13  C   UNL     1       0.728  -0.456   4.832  0.00  0.00    +0.000 A 
ATOM     14  C   UNL     1       1.002  -1.788   5.109  0.00  0.00    +0.000 A 
ATOM     15  F   UNL     1       1.127  -2.187   6.380  0.00  0.00    +0.000 F 
ATOM     16  C   UNL     1       1.152  -2.710   4.086  0.00  0.00    +0.000 A 
ATOM     17  C   UNL     1       1.028  -2.284   2.766  0.00  0.00    +0.000 A 
ATOM     18  F   UNL     1       1.202  -3.203   1.801  0.00  0.00    +0.000 F 
ENDBRANCH   9  11
ENDBRANCH   1  10
BRANCH   2  19
ATOM     19  C   UNL     1      -1.977  -4.399  -0.253  0.00  0.00    +0.000 C 
BRANCH  19  20
ATOM     20  C   UNL     1      -3.122  -4.695   0.675  0.00  0.00    +0.000 A 
ATOM     21  C   UNL     1      -4.255  -5.300   0.291  0.00  0.00    +0.000 A 
ATOM     22  C   UNL     1      -5.252  -5.649   1.294  0.00  0.00    +0.000 A 
ATOM     23  C   UNL     1      -6.420  -6.341   0.941  0.00  0.00    +0.000 A 
ATOM     24  C   UNL     1      -7.360  -6.686   1.915  0.00  0.00    +0.000 A 
ATOM     25  C   UNL     1      -7.145  -6.341   3.250  0.00  0.00    +0.000 A 
ATOM     26  C   UNL     1      -5.985  -5.656   3.611  0.00  0.00    +0.000 A 
ATOM     27  C   UNL     1      -5.036  -5.316   2.634  0.00  0.00    +0.000 A 
ATOM     28  C   UNL     1      -3.788  -4.620   3.030  0.00  0.00    +0.000 A 
ATOM     29  O   UNL     1      -3.564  -4.305   4.192  0.00  0.00    +0.000 OA
ATOM     30  O   UNL     1      -2.881  -4.363   2.031  0.00  0.00    +0.000 OA
ENDBRANCH  19  20
ENDBRANCH   2  19
TORSDOF 4
