REMARK  Name = 
REMARK  5 active torsions:
REMARK  status: ('A' for Active; 'I' for Inactive)
REMARK    1  A    between atoms: C_1  and  C_2
REMARK    2  A    between atoms: C_2  and  N_3
REMARK    3  A    between atoms: C_2  and  C_16
REMARK    4  A    between atoms: C_4  and  C_6
REMARK    5  A    between atoms: C_21  and  C_22
REMARK                            x       y       z     vdW  Elec       q    Type
REMARK                         _______ _______ _______ _____ _____    ______ ____
ROOT
ATOM      1  C   UNL     1       1.028   0.436  -0.068  0.00  0.00    +0.000 C 
ATOM      2  C   UNL     1       2.489  -0.029   0.005  0.00  0.00    +0.000 C 
ENDROOT
BRANCH   2   3
ATOM      3  C   UNL     1       2.872  -1.362  -0.658  0.00  0.00    +0.000 A 
ATOM      4  C   UNL     1       1.831  -2.142  -1.223  0.00  0.00    +0.000 A 
ATOM      5  C   UNL     1       2.066  -3.385  -1.805  0.00  0.00    +0.000 A 
ATOM      6  C   UNL     1       3.350  -3.892  -1.831  0.00  0.00    +0.000 A 
ATOM      7  C   UNL     1       4.403  -3.143  -1.298  0.00  0.00    +0.000 A 
ATOM      8  C   UNL     1       4.215  -1.869  -0.706  0.00  0.00    +0.000 A 
BRANCH   8   9
ATOM      9  C   UNL     1       5.410  -1.170  -0.126  0.00  0.00    +0.000 A 
ATOM     10  C   UNL     1       5.595   0.220  -0.254  0.00  0.00    +0.000 A 
ATOM     11  C   UNL     1       6.593   0.903   0.449  0.00  0.00    +0.000 A 
ATOM     12  C   UNL     1       7.511   0.188   1.200  0.00  0.00    +0.000 A 
ATOM     13  F   UNL     1       8.465   0.841   1.873  0.00  0.00    +0.000 F 
ATOM     14  C   UNL     1       7.458  -1.193   1.243  0.00  0.00    +0.000 A 
ATOM     15  C   UNL     1       6.410  -1.856   0.600  0.00  0.00    +0.000 A 
ATOM     16  F   UNL     1       6.390  -3.194   0.704  0.00  0.00    +0.000 F 
ENDBRANCH   8   9
ENDBRANCH   2   3
BRANCH   2  17
ATOM     17  N   UNL     1       2.974   0.098   1.377  0.00  0.00    +0.000 N 
ATOM     18  C   UNL     1       2.751  -0.846   2.354  0.00  0.00    +0.000 C 
ATOM     19  O   UNL     1       2.118  -1.879   2.166  0.00  0.00    +0.000 OA
ATOM     20  H   UNL     1       3.447   0.954   1.613  0.00  0.00    +0.000 HD
BRANCH  18  21
ATOM     21  C   UNL     1       3.329  -0.542   3.651  0.00  0.00    +0.000 A 
ATOM     22  C   UNL     1       3.373  -1.412   4.719  0.00  0.00    +0.000 A 
ATOM     23  N   UNL     1       2.982  -2.697   4.902  0.00  0.00    +0.000 N 
ATOM     24  C   UNL     1       3.116  -3.307   6.124  0.00  0.00    +0.000 A 
ATOM     25  C   UNL     1       3.641  -2.699   7.197  0.00  0.00    +0.000 A 
ATOM     26  C   UNL     1       4.117  -1.291   7.069  0.00  0.00    +0.000 A 
ATOM     27  O   UNL     1       4.606  -0.657   7.997  0.00  0.00    +0.000 OA
ATOM     28  N   UNL     1       3.944  -0.741   5.785  0.00  0.00    +0.000 N 
ATOM     29  N   UNL     1       4.316   0.529   5.440  0.00  0.00    +0.000 NA
ATOM     30  C   UNL     1       3.947   0.625   4.164  0.00  0.00    +0.000 A 
ATOM     31  H   UNL     1       2.561  -3.226   4.133  0.00  0.00    +0.000 HD
ENDBRANCH  18  21
ENDBRANCH   2  17
TORSDOF 4
