REMARK  Name = 
REMARK  6 active torsions:
REMARK  status: ('A' for Active; 'I' for Inactive)
REMARK    1  A    between atoms: N_1  and  C_2
REMARK    2  A    between atoms: C_2  and  C_3
REMARK    3  A    between atoms: C_3  and  N_4
REMARK    4  A    between atoms: C_3  and  C_21
REMARK    5  A    between atoms: C_5  and  C_7
REMARK    6  A    between atoms: N_9  and  C_10
REMARK                            x       y       z     vdW  Elec       q    Type
REMARK                         _______ _______ _______ _____ _____    ______ ____
ROOT
ATOM      1  N   UNL     1       2.460  -1.429   1.991  0.00  0.00    +0.000 N 
ATOM      2  C   UNL     1       1.286  -1.345   2.697  0.00  0.00    +0.000 C 
ATOM      3  O   UNL     1       0.654  -0.323   2.931  0.00  0.00    +0.000 OA
ATOM      4  H   UNL     1       2.945  -2.297   1.931  0.00  0.00    +0.000 HD
ENDROOT
BRANCH   2   5
ATOM      5  C   UNL     1       0.835  -2.678   3.285  0.00  0.00    +0.000 A 
ATOM      6  N   UNL     1       1.792  -3.479   3.682  0.00  0.00    +0.000 NA
ATOM      7  N   UNL     1       1.447  -4.690   4.227  0.00  0.00    +0.000 N 
ATOM      8  C   UNL     1       0.112  -5.070   4.412  0.00  0.00    +0.000 A 
ATOM      9  C   UNL     1      -0.925  -4.341   4.048  0.00  0.00    +0.000 A 
ATOM     10  C   UNL     1      -0.625  -3.058   3.417  0.00  0.00    +0.000 A 
ATOM     11  O   UNL     1      -1.515  -2.341   2.995  0.00  0.00    +0.000 OA
BRANCH   7  12
ATOM     12  C   UNL     1       2.569  -5.479   4.649  0.00  0.00    +0.000 A 
ATOM     13  C   UNL     1       3.756  -4.840   5.071  0.00  0.00    +0.000 A 
ATOM     14  C   UNL     1       4.868  -5.569   5.511  0.00  0.00    +0.000 A 
ATOM     15  C   UNL     1       4.826  -6.963   5.502  0.00  0.00    +0.000 A 
ATOM     16  C   UNL     1       3.678  -7.617   5.068  0.00  0.00    +0.000 A 
ATOM     17  C   UNL     1       2.566  -6.880   4.654  0.00  0.00    +0.000 A 
ATOM     18  F   UNL     1       1.501  -7.572   4.211  0.00  0.00    +0.000 F 
ENDBRANCH   7  12
ENDBRANCH   2   5
BRANCH   1  19
ATOM     19  C   UNL     1       3.038  -0.249   1.317  0.00  0.00    +0.000 C 
BRANCH  19  20
ATOM     20  C   UNL     1       4.559  -0.352   1.308  0.00  0.00    +0.000 A 
ATOM     21  C   UNL     1       5.197  -1.153   0.350  0.00  0.00    +0.000 A 
ATOM     22  C   UNL     1       6.577  -1.132   0.224  0.00  0.00    +0.000 A 
ATOM     23  C   UNL     1       7.354  -0.463   1.175  0.00  0.00    +0.000 A 
ATOM     24  C   UNL     1       8.739  -0.477   1.088  0.00  0.00    +0.000 A 
ATOM     25  C   UNL     1       9.485  -0.456   2.253  0.00  0.00    +0.000 A 
ATOM     26  C   UNL     1       8.895   0.040   3.407  0.00  0.00    +0.000 A 
ATOM     27  C   UNL     1       7.566   0.478   3.376  0.00  0.00    +0.000 A 
ATOM     28  C   UNL     1       6.743   0.133   2.288  0.00  0.00    +0.000 A 
ATOM     29  C   UNL     1       5.342   0.299   2.278  0.00  0.00    +0.000 A 
ENDBRANCH  19  20
BRANCH  19  30
ATOM     30  C   UNL     1       2.490  -0.055  -0.134  0.00  0.00    +0.000 C 
BRANCH  30  31
ATOM     31  N   UNL     1       1.038   0.058  -0.259  0.00  0.00    +0.000 NA
ATOM     32  H   UNL     1       0.807   0.470  -1.161  0.00  0.00    +0.000 HD
ATOM     33  H   UNL     1       0.671   0.688   0.461  0.00  0.00    +0.000 HD
ENDBRANCH  30  31
ENDBRANCH  19  30
ENDBRANCH   1  19
TORSDOF 6
