REMARK  Name = 
REMARK  4 active torsions:
REMARK  status: ('A' for Active; 'I' for Inactive)
REMARK    1  A    between atoms: C_2  and  C_15
REMARK    2  A    between atoms: N_3  and  C_4
REMARK    3  A    between atoms: C_17  and  C_18
REMARK    4  A    between atoms: C_23  and  C_24
REMARK                            x       y       z     vdW  Elec       q    Type
REMARK                         _______ _______ _______ _____ _____    ______ ____
ROOT
ATOM      1  O   UNL     1       2.785   1.074   0.077  0.00  0.00    +0.000 OA
ATOM      2  C   UNL     1       2.221  -0.015   0.071  0.00  0.00    +0.000 C 
ATOM      3  N   UNL     1       0.983  -0.274  -0.494  0.00  0.00    +0.000 N 
ATOM      4  H   UNL     1       0.553  -1.163  -0.278  0.00  0.00    +0.000 HD
ENDROOT
BRANCH   3   5
ATOM      5  C   UNL     1       0.178   0.656  -1.188  0.00  0.00    +0.000 A 
ATOM      6  C   UNL     1       0.677   1.876  -1.656  0.00  0.00    +0.000 A 
ATOM      7  C   UNL     1      -0.165   2.802  -2.267  0.00  0.00    +0.000 A 
ATOM      8  C   UNL     1      -1.514   2.496  -2.418  0.00  0.00    +0.000 A 
ATOM      9  C   UNL     1      -2.442   3.473  -3.008  0.00  0.00    +0.000 A 
ATOM     10  O   UNL     1      -2.074   4.573  -3.399  0.00  0.00    +0.000 OA
ATOM     11  N   UNL     1      -3.748   3.069  -3.084  0.00  0.00    +0.000 N 
ATOM     12  C   UNL     1      -4.169   1.841  -2.663  0.00  0.00    +0.000 A 
ATOM     13  N   UNL     1      -3.398   0.945  -2.147  0.00  0.00    +0.000 NA
ATOM     14  C   UNL     1      -2.035   1.268  -2.002  0.00  0.00    +0.000 A 
ATOM     15  C   UNL     1      -1.174   0.344  -1.396  0.00  0.00    +0.000 A 
ATOM     16  H   UNL     1      -4.396   3.736  -3.478  0.00  0.00    +0.000 HD
ENDBRANCH   3   5
BRANCH   2  17
ATOM     17  C   UNL     1       2.822  -1.131   0.743  0.00  0.00    +0.000 A 
ATOM     18  C   UNL     1       2.513  -2.470   0.830  0.00  0.00    +0.000 A 
ATOM     19  C   UNL     1       3.468  -3.029   1.721  0.00  0.00    +0.000 A 
ATOM     20  N   UNL     1       4.393  -2.121   2.055  0.00  0.00    +0.000 NA
ATOM     21  N   UNL     1       3.949  -0.981   1.504  0.00  0.00    +0.000 N 
ATOM     22  H   UNL     1       4.446  -0.113   1.689  0.00  0.00    +0.000 HD
BRANCH  19  23
ATOM     23  C   UNL     1       3.519  -4.403   2.205  0.00  0.00    +0.000 A 
ATOM     24  C   UNL     1       3.203  -5.426   1.288  0.00  0.00    +0.000 A 
ATOM     25  C   UNL     1       3.242  -6.768   1.663  0.00  0.00    +0.000 A 
ATOM     26  C   UNL     1       3.625  -7.111   2.950  0.00  0.00    +0.000 A 
ATOM     27  C   UNL     1       3.928  -6.109   3.872  0.00  0.00    +0.000 A 
ATOM     28  C   UNL     1       3.842  -4.739   3.533  0.00  0.00    +0.000 A 
BRANCH  28  29
ATOM     29  C   UNL     1       4.058  -3.752   4.662  0.00  0.00    +0.000 C 
ATOM     30  F   UNL     1       3.647  -2.472   4.473  0.00  0.00    +0.000 F 
ATOM     31  F   UNL     1       3.364  -4.150   5.777  0.00  0.00    +0.000 F 
ATOM     32  F   UNL     1       5.359  -3.694   5.068  0.00  0.00    +0.000 F 
ENDBRANCH  28  29
ENDBRANCH  19  23
ENDBRANCH   2  17
TORSDOF 4
