REMARK  Name = 
REMARK  7 active torsions:
REMARK  status: ('A' for Active; 'I' for Inactive)
REMARK    1  A    between atoms: C_1  and  C_2
REMARK    2  A    between atoms: C_5  and  S_6
REMARK    3  A    between atoms: S_6  and  N_9
REMARK    4  A    between atoms: N_9  and  C_10
REMARK    5  A    between atoms: C_12  and  N_13
REMARK    6  A    between atoms: C_14  and  C_16
REMARK    7  A    between atoms: C_19  and  C_20
REMARK                            x       y       z     vdW  Elec       q    Type
REMARK                         _______ _______ _______ _____ _____    ______ ____
ROOT
ATOM      1  C   UNL     1      -5.655   1.883  -0.118  0.00  0.00    +0.000 A 
ATOM      2  C   UNL     1      -6.182   2.853  -0.970  0.00  0.00    +0.000 A 
ATOM      3  C   UNL     1      -7.555   3.126  -1.004  0.00  0.00    +0.000 A 
ATOM      4  C   UNL     1      -8.399   2.408  -0.144  0.00  0.00    +0.000 A 
ATOM      5  C   UNL     1      -7.870   1.451   0.736  0.00  0.00    +0.000 A 
ATOM      6  C   UNL     1      -6.502   1.196   0.746  0.00  0.00    +0.000 A 
ATOM      7  F   UNL     1      -6.011   0.310   1.625  0.00  0.00    +0.000 F 
ENDROOT
BRANCH   3   8
ATOM      8  N   UNL     1      -8.132   4.104  -1.858  0.00  0.00    +0.000 N 
ATOM      9  C   UNL     1      -7.439   4.912  -2.742  0.00  0.00    +0.000 C 
ATOM     10  O   UNL     1      -6.229   4.867  -2.952  0.00  0.00    +0.000 OA
ATOM     11  H   UNL     1      -9.138   4.197  -1.818  0.00  0.00    +0.000 HD
BRANCH   9  12
ATOM     12  C   UNL     1      -8.253   5.916  -3.506  0.00  0.00    +0.000 A 
ATOM     13  C   UNL     1      -7.704   6.364  -4.656  0.00  0.00    +0.000 A 
ATOM     14  N   UNL     1      -8.303   7.407  -5.357  0.00  0.00    +0.000 N 
ATOM     15  C   UNL     1      -7.926   8.063  -6.519  0.00  0.00    +0.000 A 
ATOM     16  C   UNL     1      -6.714   7.746  -7.320  0.00  0.00    +0.000 C 
ATOM     17  N   UNL     1      -8.781   9.025  -6.819  0.00  0.00    +0.000 NA
ATOM     18  C   UNL     1      -9.731   9.010  -5.832  0.00  0.00    +0.000 A 
ATOM     19  C   UNL     1      -9.467   8.021  -4.917  0.00  0.00    +0.000 A 
ATOM     20  C   UNL     1     -10.062   7.556  -3.712  0.00  0.00    +0.000 A 
ATOM     21  C   UNL     1      -9.481   6.548  -3.028  0.00  0.00    +0.000 A 
ENDBRANCH   9  12
ENDBRANCH   3   8
BRANCH   1  22
ATOM     22  N   UNL     1      -4.254   1.662  -0.125  0.00  0.00    +0.000 N 
ATOM     23  H   UNL     1      -3.622   2.319   0.326  0.00  0.00    +0.000 HD
BRANCH  22  24
ATOM     24  S   UNL     1      -3.568   0.469  -1.074  0.00  0.00    +0.000 S 
ATOM     25  O   UNL     1      -4.235  -0.789  -0.807  0.00  0.00    +0.000 OA
ATOM     26  O   UNL     1      -2.135   0.602  -0.915  0.00  0.00    +0.000 OA
BRANCH  24  31
ATOM     27  C   UNL     1      -4.879   1.901  -6.842  0.00  0.00    +0.000 C 
ATOM     28  C   UNL     1      -4.546   1.573  -5.415  0.00  0.00    +0.000 A 
ATOM     29  C   UNL     1      -3.400   2.093  -4.798  0.00  0.00    +0.000 A 
ATOM     30  C   UNL     1      -3.103   1.778  -3.467  0.00  0.00    +0.000 A 
ATOM     31  C   UNL     1      -3.965   0.946  -2.746  0.00  0.00    +0.000 A 
ATOM     32  C   UNL     1      -5.099   0.405  -3.359  0.00  0.00    +0.000 A 
ATOM     33  C   UNL     1      -5.390   0.725  -4.686  0.00  0.00    +0.000 A 
ENDBRANCH  24  31
ENDBRANCH  22  24
ENDBRANCH   1  22
TORSDOF 5
