REMARK  Name = 
REMARK  6 active torsions:
REMARK  status: ('A' for Active; 'I' for Inactive)
REMARK    1  A    between atoms: C_2  and  C_3
REMARK    2  A    between atoms: C_3  and  C_4
REMARK    3  A    between atoms: N_13  and  C_14
REMARK    4  A    between atoms: C_14  and  C_15
REMARK    5  A    between atoms: C_17  and  O_18
REMARK    6  A    between atoms: O_18  and  C_19
REMARK                            x       y       z     vdW  Elec       q    Type
REMARK                         _______ _______ _______ _____ _____    ______ ____
ROOT
ATOM      1  C   UNL     1       4.438  -0.953   0.827  0.00  0.00    +0.000 C 
ENDROOT
BRANCH   1   2
ATOM      2  C   UNL     1       4.926  -1.923   1.877  0.00  0.00    +0.000 A 
ATOM      3  C   UNL     1       5.047  -3.274   1.570  0.00  0.00    +0.000 A 
ATOM      4  C   UNL     1       5.637  -4.125   2.497  0.00  0.00    +0.000 A 
ATOM      5  C   UNL     1       5.973  -3.635   3.753  0.00  0.00    +0.000 A 
ATOM      6  C   UNL     1       5.759  -2.291   4.004  0.00  0.00    +0.000 A 
ATOM      7  N   UNL     1       5.262  -1.423   3.093  0.00  0.00    +0.000 NA
BRANCH   4   8
ATOM      8  O   UNL     1       5.892  -5.462   2.274  0.00  0.00    +0.000 OA
BRANCH   8   9
ATOM      9  C   UNL     1       6.221  -5.894   1.007  0.00  0.00    +0.000 A 
ATOM     10  C   UNL     1       6.909  -5.119   0.060  0.00  0.00    +0.000 A 
ATOM     11  C   UNL     1       7.138  -5.617  -1.224  0.00  0.00    +0.000 A 
ATOM     12  C   UNL     1       6.750  -6.912  -1.535  0.00  0.00    +0.000 A 
ATOM     13  F   UNL     1       6.979  -7.389  -2.765  0.00  0.00    +0.000 F 
ATOM     14  C   UNL     1       6.140  -7.712  -0.573  0.00  0.00    +0.000 A 
ATOM     15  F   UNL     1       5.800  -8.974  -0.868  0.00  0.00    +0.000 F 
ATOM     16  C   UNL     1       5.871  -7.210   0.697  0.00  0.00    +0.000 A 
ENDBRANCH   8   9
ENDBRANCH   4   8
ENDBRANCH   1   2
BRANCH   1  19
ATOM     17  O   UNL     1       2.581  -2.506  -0.619  0.00  0.00    +0.000 OA
ATOM     18  C   UNL     1       2.170  -1.603   0.105  0.00  0.00    +0.000 C 
ATOM     19  N   UNL     1       3.000  -0.790   0.841  0.00  0.00    +0.000 N 
ATOM     20  H   UNL     1       2.615  -0.257   1.605  0.00  0.00    +0.000 HD
BRANCH  18  21
ATOM     21  C   UNL     1       0.687  -1.274   0.240  0.00  0.00    +0.000 C 
BRANCH  21  22
ATOM     22  C   UNL     1       0.009  -2.052   1.339  0.00  0.00    +0.000 A 
ATOM     23  C   UNL     1      -0.597  -1.433   2.384  0.00  0.00    +0.000 A 
ATOM     24  C   UNL     1      -1.250  -2.204   3.381  0.00  0.00    +0.000 A 
ATOM     25  C   UNL     1      -1.956  -1.954   4.537  0.00  0.00    +0.000 A 
ATOM     26  N   UNL     1      -2.364  -3.129   5.123  0.00  0.00    +0.000 NA
ATOM     27  C   UNL     1      -1.920  -4.082   4.333  0.00  0.00    +0.000 A 
ATOM     28  N   UNL     1      -1.243  -3.582   3.248  0.00  0.00    +0.000 N 
ATOM     29  C   UNL     1      -0.642  -4.239   2.180  0.00  0.00    +0.000 A 
ATOM     30  C   UNL     1      -0.029  -3.515   1.227  0.00  0.00    +0.000 A 
ENDBRANCH  21  22
ENDBRANCH  18  21
ENDBRANCH   1  19
TORSDOF 6
