REMARK  Name = 
REMARK  5 active torsions:
REMARK  status: ('A' for Active; 'I' for Inactive)
REMARK    1  A    between atoms: C_2  and  C_14
REMARK    2  A    between atoms: N_3  and  C_4
REMARK    3  A    between atoms: C_18  and  O_19
REMARK    4  A    between atoms: O_19  and  C_20
REMARK    5  A    between atoms: C_20  and  C_21
REMARK                            x       y       z     vdW  Elec       q    Type
REMARK                         _______ _______ _______ _____ _____    ______ ____
ROOT
ATOM      1  C   UNL     1       3.030  -1.344  -0.044  0.00  0.00    +0.000 A 
ATOM      2  C   UNL     1       2.509  -2.276  -0.850  0.00  0.00    +0.000 A 
ATOM      3  C   UNL     1       3.046  -3.645  -0.810  0.00  0.00    +0.000 A 
ATOM      4  O   UNL     1       2.479  -4.520  -1.448  0.00  0.00    +0.000 OA
ATOM      5  C   UNL     1       4.250  -3.873   0.043  0.00  0.00    +0.000 A 
ATOM      6  C   UNL     1       4.687  -2.827   0.754  0.00  0.00    +0.000 A 
ATOM      7  O   UNL     1       4.117  -1.569   0.778  0.00  0.00    +0.000 OA
ENDROOT
BRANCH   1   9
ATOM      8  O   UNL     1       1.450   0.217  -0.893  0.00  0.00    +0.000 OA
ATOM      9  C   UNL     1       2.290  -0.037  -0.031  0.00  0.00    +0.000 C 
ATOM     10  N   UNL     1       2.659   0.839   0.969  0.00  0.00    +0.000 N 
ATOM     11  H   UNL     1       3.606   0.765   1.320  0.00  0.00    +0.000 HD
BRANCH  10  12
ATOM     12  C   UNL     1       2.010   2.091   1.083  0.00  0.00    +0.000 A 
ATOM     13  C   UNL     1       2.751   3.258   1.088  0.00  0.00    +0.000 A 
ATOM     14  O   UNL     1       4.104   3.351   0.971  0.00  0.00    +0.000 OA
ATOM     15  C   UNL     1       4.272   4.785   0.896  0.00  0.00    +0.000 C 
ATOM     16  O   UNL     1       3.039   5.514   1.044  0.00  0.00    +0.000 OA
ATOM     17  C   UNL     1       2.142   4.495   1.126  0.00  0.00    +0.000 A 
ATOM     18  C   UNL     1       0.771   4.644   1.212  0.00  0.00    +0.000 A 
ATOM     19  C   UNL     1      -0.002   3.481   1.249  0.00  0.00    +0.000 A 
ATOM     20  C   UNL     1       0.615   2.220   1.172  0.00  0.00    +0.000 A 
ATOM     21  F   UNL     1      -0.162   1.133   1.267  0.00  0.00    +0.000 F 
ENDBRANCH  10  12
ENDBRANCH   1   9
BRANCH   5  22
ATOM     22  O   UNL     1       4.901  -5.100   0.127  0.00  0.00    +0.000 OA
BRANCH  22  23
ATOM     23  C   UNL     1       4.662  -6.010  -0.951  0.00  0.00    +0.000 C 
BRANCH  23  24
ATOM     24  C   UNL     1       5.787  -7.015  -0.979  0.00  0.00    +0.000 A 
ATOM     25  C   UNL     1       5.979  -7.900   0.092  0.00  0.00    +0.000 A 
ATOM     26  C   UNL     1       7.081  -8.755   0.104  0.00  0.00    +0.000 A 
ATOM     27  C   UNL     1       7.966  -8.749  -0.968  0.00  0.00    +0.000 A 
ATOM     28  F   UNL     1       9.043  -9.545  -0.940  0.00  0.00    +0.000 F 
ATOM     29  C   UNL     1       7.758  -7.922  -2.065  0.00  0.00    +0.000 A 
ATOM     30  C   UNL     1       6.673  -7.049  -2.068  0.00  0.00    +0.000 A 
ENDBRANCH  23  24
ENDBRANCH  22  23
ENDBRANCH   5  22
TORSDOF 5
