REMARK  Name = 
REMARK  6 active torsions:
REMARK  status: ('A' for Active; 'I' for Inactive)
REMARK    1  A    between atoms: C_2  and  C_3
REMARK    2  A    between atoms: C_6  and  C_7
REMARK    3  A    between atoms: C_11  and  C_12
REMARK    4  A    between atoms: C_12  and  O_13
REMARK    5  A    between atoms: O_13  and  C_14
REMARK    6  A    between atoms: C_14  and  C_16
REMARK                            x       y       z     vdW  Elec       q    Type
REMARK                         _______ _______ _______ _____ _____    ______ ____
ROOT
ATOM      1  C   UNL     1       3.888  -0.137   0.035  0.00  0.00    +0.000 A 
ATOM      2  C   UNL     1       4.633   0.420   1.087  0.00  0.00    +0.000 A 
ATOM      3  C   UNL     1       6.002   0.185   1.214  0.00  0.00    +0.000 A 
ATOM      4  C   UNL     1       6.653  -0.644   0.307  0.00  0.00    +0.000 A 
ATOM      5  C   UNL     1       5.940  -1.237  -0.739  0.00  0.00    +0.000 A 
ATOM      6  C   UNL     1       4.575  -0.946  -0.885  0.00  0.00    +0.000 A 
ENDROOT
BRANCH   1  10
ATOM      7  C   UNL     1      -0.340   0.574  -0.334  0.00  0.00    +0.000 A 
ATOM      8  C   UNL     1       0.205  -0.626  -0.788  0.00  0.00    +0.000 A 
ATOM      9  C   UNL     1       1.577  -0.860  -0.656  0.00  0.00    +0.000 A 
ATOM     10  C   UNL     1       2.434   0.099  -0.082  0.00  0.00    +0.000 A 
ATOM     11  C   UNL     1       1.855   1.293   0.379  0.00  0.00    +0.000 A 
ATOM     12  C   UNL     1       0.489   1.522   0.251  0.00  0.00    +0.000 A 
ATOM     13  F   UNL     1      -0.008   2.686   0.694  0.00  0.00    +0.000 F 
BRANCH   7  15
ATOM     14  N   UNL     1      -2.871   1.010  -0.608  0.00  0.00    +0.000 NA
ATOM     15  C   UNL     1      -1.735   0.829  -0.475  0.00  0.00    +0.000 C 
ENDBRANCH   7  15
ENDBRANCH   1  10
BRANCH   5  16
ATOM     16  C   UNL     1       6.601  -2.212  -1.679  0.00  0.00    +0.000 C 
BRANCH  16  17
ATOM     17  O   UNL     1       7.713  -1.617  -2.349  0.00  0.00    +0.000 OA
BRANCH  17  18
ATOM     18  C   UNL     1       7.376  -0.858  -3.421  0.00  0.00    +0.000 C 
ATOM     19  O   UNL     1       6.242  -0.679  -3.842  0.00  0.00    +0.000 OA
BRANCH  18  20
ATOM     20  C   UNL     1       8.597  -0.259  -4.030  0.00  0.00    +0.000 A 
ATOM     21  C   UNL     1       8.399   0.578  -5.075  0.00  0.00    +0.000 A 
ATOM     22  C   UNL     1       9.514   1.173  -5.721  0.00  0.00    +0.000 A 
ATOM     23  N   UNL     1       9.624   2.006  -6.732  0.00  0.00    +0.000 NA
ATOM     24  N   UNL     1      10.966   2.237  -6.944  0.00  0.00    +0.000 NA
ATOM     25  C   UNL     1      11.639   1.539  -6.056  0.00  0.00    +0.000 A 
ATOM     26  N   UNL     1      10.777   0.853  -5.251  0.00  0.00    +0.000 N 
ATOM     27  C   UNL     1      11.007  -0.001  -4.178  0.00  0.00    +0.000 A 
ATOM     28  C   UNL     1       9.953  -0.557  -3.554  0.00  0.00    +0.000 A 
ENDBRANCH  18  20
ENDBRANCH  17  18
ENDBRANCH  16  17
ENDBRANCH   5  16
TORSDOF 6
