REMARK  Name = 
REMARK  4 active torsions:
REMARK  status: ('A' for Active; 'I' for Inactive)
REMARK    1  A    between atoms: C_2  and  C_16
REMARK    2  A    between atoms: N_3  and  C_4
REMARK    3  A    between atoms: C_10  and  N_11
REMARK    4  A    between atoms: N_20  and  C_21
REMARK                            x       y       z     vdW  Elec       q    Type
REMARK                         _______ _______ _______ _____ _____    ______ ____
ROOT
ATOM      1  O   UNL     1       0.876   0.143   0.045  0.00  0.00    +0.000 OA
ATOM      2  C   UNL     1       2.102   0.121  -0.017  0.00  0.00    +0.000 C 
ATOM      3  N   UNL     1       2.838  -0.013  -1.176  0.00  0.00    +0.000 N 
ATOM      4  H   UNL     1       3.691  -0.571  -1.086  0.00  0.00    +0.000 HD
ENDROOT
BRANCH   3   5
ATOM      5  C   UNL     1       2.202  -0.133  -2.443  0.00  0.00    +0.000 A 
ATOM      6  C   UNL     1       1.211   0.790  -2.821  0.00  0.00    +0.000 A 
ATOM      7  F   UNL     1       0.919   1.840  -2.038  0.00  0.00    +0.000 F 
ATOM      8  C   UNL     1       0.549   0.689  -4.041  0.00  0.00    +0.000 A 
ATOM      9  C   UNL     1       0.877  -0.337  -4.918  0.00  0.00    +0.000 A 
ATOM     10  C   UNL     1       1.875  -1.254  -4.577  0.00  0.00    +0.000 A 
ATOM     11  C   UNL     1       2.551  -1.164  -3.344  0.00  0.00    +0.000 A 
BRANCH  11  12
ATOM     12  N   UNL     1       3.514  -2.165  -2.999  0.00  0.00    +0.000 N 
ATOM     13  C   UNL     1       3.898  -3.268  -3.737  0.00  0.00    +0.000 A 
ATOM     14  C   UNL     1       4.767  -3.999  -2.964  0.00  0.00    +0.000 A 
ATOM     15  C   UNL     1       4.894  -3.261  -1.782  0.00  0.00    +0.000 A 
ATOM     16  N   UNL     1       4.180  -2.134  -1.804  0.00  0.00    +0.000 NA
ENDBRANCH  11  12
ENDBRANCH   3   5
BRANCH   2  17
ATOM     17  C   UNL     1       2.907   0.083   1.224  0.00  0.00    +0.000 A 
ATOM     18  C   UNL     1       2.373  -0.499   2.301  0.00  0.00    +0.000 A 
ATOM     19  C   UNL     1       3.083  -0.533   3.596  0.00  0.00    +0.000 A 
ATOM     20  O   UNL     1       2.486  -1.079   4.521  0.00  0.00    +0.000 OA
ATOM     21  N   UNL     1       4.332   0.098   3.631  0.00  0.00    +0.000 N 
ATOM     22  N   UNL     1       4.893   0.724   2.526  0.00  0.00    +0.000 NA
ATOM     23  C   UNL     1       4.225   0.692   1.417  0.00  0.00    +0.000 A 
BRANCH  21  24
ATOM     24  C   UNL     1       5.112   0.201   4.837  0.00  0.00    +0.000 A 
ATOM     25  C   UNL     1       4.926  -0.673   5.921  0.00  0.00    +0.000 A 
ATOM     26  C   UNL     1       5.639  -0.521   7.115  0.00  0.00    +0.000 A 
ATOM     27  C   UNL     1       6.559   0.512   7.251  0.00  0.00    +0.000 A 
ATOM     28  C   UNL     1       6.785   1.373   6.181  0.00  0.00    +0.000 A 
ATOM     29  C   UNL     1       6.080   1.209   4.980  0.00  0.00    +0.000 A 
ENDBRANCH  21  24
ENDBRANCH   2  17
TORSDOF 4
