REMARK  Name = 
REMARK  9 active torsions:
REMARK  status: ('A' for Active; 'I' for Inactive)
REMARK    1  A    between atoms: N_1  and  CA_2
REMARK    2  A    between atoms: CA_2  and  C_3
REMARK    3  A    between atoms: CA_2  and  C_31
REMARK    4  A    between atoms: C_3  and  C_4
REMARK    5  A    between atoms: C_8  and  N_9
REMARK    6  A    between atoms: C_10  and  C_12
REMARK    7  A    between atoms: C_15  and  C_16
REMARK    8  A    between atoms: C_23  and  C_24
REMARK    9  A    between atoms: C_31  and  OXT_33
REMARK                            x       y       z     vdW  Elec       q    Type
REMARK                         _______ _______ _______ _____ _____    ______ ____
ROOT
ATOM      1  N   UNL     1       1.677  -3.649   3.698  0.00  0.00    +0.000 N 
ATOM      2  C   UNL     1       1.703  -4.748   4.534  0.00  0.00    +0.000 C 
ATOM      3  O   UNL     1       1.908  -5.905   4.174  0.00  0.00    +0.000 OA
ATOM      4  H   UNL     1       1.628  -2.737   4.142  0.00  0.00    +0.000 HD
ENDROOT
BRANCH   2   5
ATOM      5  C   UNL     1       1.514  -4.496   5.952  0.00  0.00    +0.000 A 
ATOM      6  C   UNL     1       1.310  -3.327   6.665  0.00  0.00    +0.000 A 
ATOM      7  N   UNL     1       1.212  -2.011   6.284  0.00  0.00    +0.000 NA
ATOM      8  C   UNL     1       0.957  -1.143   7.229  0.00  0.00    +0.000 A 
ATOM      9  C   UNL     1       0.825  -1.485   8.683  0.00  0.00    +0.000 A 
ATOM     10  C   UNL     1       0.941  -2.781   9.008  0.00  0.00    +0.000 A 
ATOM     11  N   UNL     1       1.182  -3.718   8.013  0.00  0.00    +0.000 N 
ATOM     12  N   UNL     1       1.304  -5.054   8.165  0.00  0.00    +0.000 NA
ATOM     13  C   UNL     1       1.509  -5.508   6.935  0.00  0.00    +0.000 A 
BRANCH   8  14
ATOM     14  C   UNL     1       0.805   0.304   6.899  0.00  0.00    +0.000 A 
ATOM     15  C   UNL     1      -0.068   1.133   7.621  0.00  0.00    +0.000 A 
ATOM     16  C   UNL     1      -0.153   2.494   7.326  0.00  0.00    +0.000 A 
ATOM     17  C   UNL     1       0.619   3.031   6.298  0.00  0.00    +0.000 A 
ATOM     18  C   UNL     1       1.465   2.207   5.556  0.00  0.00    +0.000 A 
ATOM     19  C   UNL     1       1.557   0.846   5.851  0.00  0.00    +0.000 A 
ENDBRANCH   8  14
BRANCH  10  20
ATOM     20  C   UNL     1       0.805  -3.290  10.401  0.00  0.00    +0.000 C 
ATOM     21  F   UNL     1       2.013  -3.311  11.027  0.00  0.00    +0.000 F 
ATOM     22  F   UNL     1       0.029  -2.445  11.142  0.00  0.00    +0.000 F 
ENDBRANCH  10  20
ENDBRANCH   2   5
BRANCH   1  27
ATOM     23  C   UNL     1       2.567  -2.544   0.247  0.00  0.00    +0.000 A 
ATOM     24  C   UNL     1       2.451  -3.745  -0.466  0.00  0.00    +0.000 A 
ATOM     25  C   UNL     1       2.030  -4.901   0.182  0.00  0.00    +0.000 A 
ATOM     26  C   UNL     1       1.747  -4.875   1.548  0.00  0.00    +0.000 A 
ATOM     27  C   UNL     1       1.878  -3.699   2.292  0.00  0.00    +0.000 A 
ATOM     28  C   UNL     1       2.250  -2.527   1.622  0.00  0.00    +0.000 A 
BRANCH  23  29
ATOM     29  C   UNL     1       3.069  -1.296  -0.442  0.00  0.00    +0.000 C 
BRANCH  29  30
ATOM     30  CA  UNL     1       2.025  -0.533  -1.271  0.00  0.00    +0.000 C 
BRANCH  30  31
ATOM     31  N   UNL     1       2.686   0.575  -2.047  0.00  0.00    +0.000 NA
ATOM     32  H1  UNL     1       3.410   0.159  -2.640  0.00  0.00    +0.000 HD
ATOM     33  H2  UNL     1       3.214   1.153  -1.381  0.00  0.00    +0.000 HD
ENDBRANCH  30  31
BRANCH  30  34
ATOM     34  C   UNL     1       0.913   0.121  -0.421  0.00  0.00    +0.000 C 
ATOM     35  O   UNL     1       0.420  -0.311   0.606  0.00  0.00    +0.000 OA
BRANCH  34  36
ATOM     36  OXT UNL     1       0.509   1.293  -0.988  0.00  0.00    +0.000 OA
ATOM     37  HXT UNL     1       1.082   1.426  -1.784  0.00  0.00    +0.000 HD
ENDBRANCH  34  36
ENDBRANCH  30  34
ENDBRANCH  29  30
ENDBRANCH  23  29
ENDBRANCH   1  27
TORSDOF 9
