REMARK  Name = 
REMARK  7 active torsions:
REMARK  status: ('A' for Active; 'I' for Inactive)
REMARK    1  A    between atoms: C_2  and  C_3
REMARK    2  A    between atoms: C_3  and  C_4
REMARK    3  A    between atoms: C_7  and  O_8
REMARK    4  A    between atoms: O_8  and  C_9
REMARK    5  A    between atoms: C_9  and  C_10
REMARK    6  A    between atoms: C_12  and  N_13
REMARK    7  A    between atoms: C_14  and  C_16
REMARK                            x       y       z     vdW  Elec       q    Type
REMARK                         _______ _______ _______ _____ _____    ______ ____
ROOT
ATOM      1  C   UNL     1       6.678  -6.536  -3.088  0.00  0.00    +0.000 A 
ATOM      2  C   UNL     1       7.867  -6.854  -3.756  0.00  0.00    +0.000 A 
ATOM      3  C   UNL     1       8.148  -8.161  -4.143  0.00  0.00    +0.000 A 
ATOM      4  C   UNL     1       7.206  -9.161  -3.878  0.00  0.00    +0.000 A 
ATOM      5  C   UNL     1       5.999  -8.850  -3.244  0.00  0.00    +0.000 A 
ATOM      6  C   UNL     1       5.734  -7.539  -2.852  0.00  0.00    +0.000 A 
ENDROOT
BRANCH   3   7
ATOM      7  N   UNL     1       9.346  -8.529  -4.778  0.00  0.00    +0.000 N 
ATOM      8  C   UNL     1      10.415  -7.716  -5.109  0.00  0.00    +0.000 C 
ATOM      9  O   UNL     1      10.484  -6.505  -4.922  0.00  0.00    +0.000 OA
ATOM     10  H   UNL     1       9.449  -9.519  -5.000  0.00  0.00    +0.000 HD
BRANCH   8  11
ATOM     11  C   UNL     1      11.599  -8.377  -5.738  0.00  0.00    +0.000 A 
ATOM     12  C   UNL     1      12.667  -7.542  -6.086  0.00  0.00    +0.000 A 
ATOM     13  C   UNL     1      13.783  -8.115  -6.636  0.00  0.00    +0.000 A 
ATOM     14  N   UNL     1      13.893  -9.438  -6.853  0.00  0.00    +0.000 NA
ATOM     15  C   UNL     1      12.873 -10.236  -6.525  0.00  0.00    +0.000 A 
ATOM     16  N   UNL     1      13.031 -11.545  -6.750  0.00  0.00    +0.000 NA
ATOM     17  C   UNL     1      12.017 -12.375  -6.424  0.00  0.00    +0.000 A 
ATOM     18  C   UNL     1      10.842 -11.919  -5.881  0.00  0.00    +0.000 A 
ATOM     19  N   UNL     1      10.646 -10.611  -5.638  0.00  0.00    +0.000 NA
ATOM     20  C   UNL     1      11.669  -9.758  -5.956  0.00  0.00    +0.000 A 
ENDBRANCH   8  11
ENDBRANCH   3   7
BRANCH   1  21
ATOM     21  C   UNL     1       6.451  -5.112  -2.662  0.00  0.00    +0.000 C 
BRANCH  21  22
ATOM     22  O   UNL     1       5.830  -4.417  -3.737  0.00  0.00    +0.000 OA
BRANCH  22  26
ATOM     23  C   UNL     1       5.120  -0.319  -3.437  0.00  0.00    +0.000 A 
ATOM     24  C   UNL     1       5.739  -0.973  -2.365  0.00  0.00    +0.000 A 
ATOM     25  C   UNL     1       5.995  -2.344  -2.424  0.00  0.00    +0.000 A 
ATOM     26  C   UNL     1       5.641  -3.075  -3.558  0.00  0.00    +0.000 A 
ATOM     27  C   UNL     1       5.037  -2.424  -4.634  0.00  0.00    +0.000 A 
ATOM     28  C   UNL     1       4.777  -1.055  -4.578  0.00  0.00    +0.000 A 
BRANCH  23  29
ATOM     29  C   UNL     1       4.894   1.167  -3.388  0.00  0.00    +0.000 C 
BRANCH  29  31
ATOM     30  N   UNL     1       7.090   2.546  -4.391  0.00  0.00    +0.000 NA
ATOM     31  C   UNL     1       6.094   1.921  -3.936  0.00  0.00    +0.000 C 
ENDBRANCH  29  31
ENDBRANCH  23  29
ENDBRANCH  22  26
ENDBRANCH  21  22
ENDBRANCH   1  21
TORSDOF 7
