REMARK  Name = 
REMARK  3 active torsions:
REMARK  status: ('A' for Active; 'I' for Inactive)
REMARK    1  A    between atoms: N_3  and  C_4
REMARK    2  A    between atoms: C_7  and  C_8
REMARK    3  A    between atoms: N_17  and  C_18
REMARK                            x       y       z     vdW  Elec       q    Type
REMARK                         _______ _______ _______ _____ _____    ______ ____
ROOT
ATOM      1  O   UNL     1       1.092   0.376   0.248  0.00  0.00    +0.000 OA
ATOM      2  C   UNL     1       2.254  -0.021   0.188  0.00  0.00    +0.000 C 
ATOM      3  N   UNL     1       2.768  -0.885  -0.740  0.00  0.00    +0.000 N 
ATOM      4  N   UNL     1       3.107   0.390   1.175  0.00  0.00    +0.000 N 
ATOM      5  H   UNL     1       3.723  -1.181  -0.553  0.00  0.00    +0.000 HD
ATOM      6  H   UNL     1       2.640   0.954   1.872  0.00  0.00    +0.000 HD
ENDROOT
BRANCH   4   7
ATOM      7  C   UNL     1       4.477   0.169   1.295  0.00  0.00    +0.000 A 
ATOM      8  C   UNL     1       5.120   0.649   2.433  0.00  0.00    +0.000 A 
ATOM      9  C   UNL     1       6.496   0.465   2.554  0.00  0.00    +0.000 A 
ATOM     10  C   UNL     1       7.179  -0.164   1.518  0.00  0.00    +0.000 A 
ATOM     11  C   UNL     1       8.634  -0.358   1.530  0.00  0.00    +0.000 A 
ATOM     12  O   UNL     1       9.313  -0.023   2.489  0.00  0.00    +0.000 OA
ATOM     13  N   UNL     1       9.172  -0.932   0.403  0.00  0.00    +0.000 N 
ATOM     14  C   UNL     1       8.479  -1.321  -0.709  0.00  0.00    +0.000 A 
ATOM     15  O   UNL     1       9.041  -1.778  -1.698  0.00  0.00    +0.000 OA
ATOM     16  N   UNL     1       7.131  -1.171  -0.659  0.00  0.00    +0.000 N 
ATOM     17  C   UNL     1       6.467  -0.600   0.418  0.00  0.00    +0.000 A 
ATOM     18  N   UNL     1       5.132  -0.474   0.302  0.00  0.00    +0.000 NA
ATOM     19  H   UNL     1      10.175  -1.049   0.374  0.00  0.00    +0.000 HD
ATOM     20  H   UNL     1       6.590  -1.433  -1.472  0.00  0.00    +0.000 HD
ENDBRANCH   4   7
BRANCH   3  21
ATOM     21  C   UNL     1       2.093  -1.502  -1.805  0.00  0.00    +0.000 A 
ATOM     22  C   UNL     1       0.850  -1.077  -2.256  0.00  0.00    +0.000 A 
ATOM     23  C   UNL     1       0.180  -1.782  -3.257  0.00  0.00    +0.000 A 
ATOM     24  C   UNL     1       0.733  -2.929  -3.851  0.00  0.00    +0.000 A 
ATOM     25  C   UNL     1       2.018  -3.308  -3.428  0.00  0.00    +0.000 A 
ATOM     26  C   UNL     1       2.695  -2.601  -2.422  0.00  0.00    +0.000 A 
BRANCH  24  27
ATOM     27  C   UNL     1      -0.034  -3.705  -4.853  0.00  0.00    +0.000 A 
ATOM     28  C   UNL     1      -0.930  -3.074  -5.734  0.00  0.00    +0.000 A 
ATOM     29  C   UNL     1      -1.697  -3.814  -6.629  0.00  0.00    +0.000 A 
ATOM     30  F   UNL     1      -2.562  -3.180  -7.433  0.00  0.00    +0.000 F 
ATOM     31  C   UNL     1      -1.589  -5.195  -6.695  0.00  0.00    +0.000 A 
ATOM     32  C   UNL     1      -0.700  -5.846  -5.846  0.00  0.00    +0.000 A 
ATOM     33  C   UNL     1       0.063  -5.108  -4.933  0.00  0.00    +0.000 A 
ENDBRANCH  24  27
ENDBRANCH   3  21
TORSDOF 3
