REMARK  Name = 
REMARK  6 active torsions:
REMARK  status: ('A' for Active; 'I' for Inactive)
REMARK    1  A    between atoms: C_2  and  C_18
REMARK    2  A    between atoms: N_3  and  C_4
REMARK    3  A    between atoms: C_4  and  C_5
REMARK    4  A    between atoms: C_8  and  C_9
REMARK    5  A    between atoms: C_20  and  C_21
REMARK    6  A    between atoms: C_28  and  O_29
REMARK                            x       y       z     vdW  Elec       q    Type
REMARK                         _______ _______ _______ _____ _____    ______ ____
ROOT
ATOM      1  O   UNL     1       1.005   0.179  -0.152  0.00  0.00    +0.000 OA
ATOM      2  C   UNL     1       2.221   0.059  -0.054  0.00  0.00    +0.000 C 
ATOM      3  N   UNL     1       2.914   0.208   1.125  0.00  0.00    +0.000 N 
ATOM      4  H   UNL     1       3.924   0.242   1.127  0.00  0.00    +0.000 HD
ENDROOT
BRANCH   2   5
ATOM      5  C   UNL     1       3.020  -0.228  -1.268  0.00  0.00    +0.000 A 
ATOM      6  C   UNL     1       2.538   0.240  -2.492  0.00  0.00    +0.000 A 
ATOM      7  C   UNL     1       3.256  -0.028  -3.655  0.00  0.00    +0.000 A 
ATOM      8  N   UNL     1       4.401  -0.758  -3.624  0.00  0.00    +0.000 NA
ATOM      9  C   UNL     1       4.814  -1.199  -2.425  0.00  0.00    +0.000 A 
ATOM     10  C   UNL     1       4.188  -0.975  -1.223  0.00  0.00    +0.000 A 
BRANCH   7  11
ATOM     11  C   UNL     1       2.821   0.465  -4.980  0.00  0.00    +0.000 A 
ATOM     12  C   UNL     1       2.114   1.675  -5.123  0.00  0.00    +0.000 A 
ATOM     13  C   UNL     1       1.687   2.130  -6.373  0.00  0.00    +0.000 A 
ATOM     14  C   UNL     1       1.965   1.387  -7.515  0.00  0.00    +0.000 A 
ATOM     15  C   UNL     1       2.671   0.192  -7.406  0.00  0.00    +0.000 A 
ATOM     16  C   UNL     1       3.095  -0.262  -6.152  0.00  0.00    +0.000 A 
ENDBRANCH   7  11
BRANCH   9  17
ATOM     17  O   UNL     1       5.959  -1.927  -2.464  0.00  0.00    +0.000 OA
ATOM     18  H   UNL     1       6.146  -1.908  -3.421  0.00  0.00    +0.000 HD
ENDBRANCH   9  17
ENDBRANCH   2   5
BRANCH   3  19
ATOM     19  C   UNL     1       2.230   0.532   2.357  0.00  0.00    +0.000 C 
BRANCH  19  20
ATOM     20  C   UNL     1       2.457  -0.512   3.422  0.00  0.00    +0.000 A 
ATOM     21  C   UNL     1       3.046  -0.171   4.647  0.00  0.00    +0.000 A 
ATOM     22  C   UNL     1       3.196  -1.128   5.658  0.00  0.00    +0.000 A 
ATOM     23  C   UNL     1       2.754  -2.441   5.463  0.00  0.00    +0.000 A 
ATOM     24  C   UNL     1       2.165  -2.787   4.242  0.00  0.00    +0.000 A 
ATOM     25  C   UNL     1       2.020  -1.831   3.230  0.00  0.00    +0.000 A 
BRANCH  23  26
ATOM     26  C   UNL     1       2.920  -3.452   6.523  0.00  0.00    +0.000 A 
ATOM     27  C   UNL     1       1.946  -3.598   7.441  0.00  0.00    +0.000 A 
ATOM     28  N   UNL     1       2.054  -4.531   8.443  0.00  0.00    +0.000 N 
ATOM     29  C   UNL     1       3.128  -5.378   8.598  0.00  0.00    +0.000 A 
ATOM     30  O   UNL     1       3.203  -6.203   9.497  0.00  0.00    +0.000 OA
ATOM     31  C   UNL     1       4.210  -5.227   7.593  0.00  0.00    +0.000 A 
ATOM     32  C   UNL     1       4.092  -4.310   6.621  0.00  0.00    +0.000 A 
ATOM     33  H   UNL     1       1.315  -4.635   9.127  0.00  0.00    +0.000 HD
ENDBRANCH  23  26
ENDBRANCH  19  20
ENDBRANCH   3  19
TORSDOF 6
