REMARK  Name = 
REMARK  10 active torsions:
REMARK  status: ('A' for Active; 'I' for Inactive)
REMARK    1  A    between atoms: C_1  and  O_2
REMARK    2  A    between atoms: O_2  and  C_3
REMARK    3  A    between atoms: C_7  and  C_8
REMARK    4  A    between atoms: C_8  and  C_9
REMARK    5  A    between atoms: C_9  and  N_10
REMARK    6  A    between atoms: C_9  and  C_27
REMARK    7  A    between atoms: C_11  and  C_13
REMARK    8  A    between atoms: C_17  and  N_18
REMARK    9  A    between atoms: C_21  and  C_22
REMARK   10  A    between atoms: C_24  and  N_25
REMARK                            x       y       z     vdW  Elec       q    Type
REMARK                         _______ _______ _______ _____ _____    ______ ____
ROOT
ATOM      1  N   UNL     1       6.940   2.127  -3.345  0.00  0.00    +0.000 N 
ATOM      2  C   UNL     1       7.072   3.326  -4.012  0.00  0.00    +0.000 C 
ATOM      3  O   UNL     1       6.960   3.489  -5.216  0.00  0.00    +0.000 OA
ATOM      4  H   UNL     1       7.222   2.087  -2.378  0.00  0.00    +0.000 HD
ENDROOT
BRANCH   2   5
ATOM      5  C   UNL     1       7.477   4.455  -3.116  0.00  0.00    +0.000 A 
ATOM      6  C   UNL     1       6.967   4.516  -1.812  0.00  0.00    +0.000 A 
ATOM      7  C   UNL     1       7.552   5.360  -0.876  0.00  0.00    +0.000 A 
ATOM      8  C   UNL     1       8.634   6.157  -1.247  0.00  0.00    +0.000 A 
ATOM      9  C   UNL     1       9.070   6.189  -2.580  0.00  0.00    +0.000 A 
ATOM     10  C   UNL     1       8.473   5.352  -3.538  0.00  0.00    +0.000 A 
BRANCH   9  11
ATOM     11  N   UNL     1      10.187   7.008  -2.903  0.00  0.00    +0.000 N 
ATOM     12  N   UNL     1      11.167   7.184  -1.970  0.00  0.00    +0.000 NA
ATOM     13  C   UNL     1      12.125   7.849  -2.615  0.00  0.00    +0.000 A 
ATOM     14  C   UNL     1      11.734   8.236  -3.909  0.00  0.00    +0.000 A 
ATOM     15  C   UNL     1      10.463   7.723  -4.076  0.00  0.00    +0.000 A 
BRANCH  15  16
ATOM     16  N   UNL     1       9.577   7.899  -5.094  0.00  0.00    +0.000 N 
ATOM     17  H   UNL     1       9.738   8.626  -5.793  0.00  0.00    +0.000 HD
ATOM     18  H   UNL     1       8.581   7.729  -4.955  0.00  0.00    +0.000 HD
ENDBRANCH  15  16
BRANCH  14  19
ATOM     19  C   UNL     1      12.478   9.047  -4.814  0.00  0.00    +0.000 C 
ATOM     20  N   UNL     1      13.085   9.731  -5.530  0.00  0.00    +0.000 NA
ENDBRANCH  14  19
ENDBRANCH   9  11
ENDBRANCH   2   5
BRANCH   1  21
ATOM     21  C   UNL     1       6.784   0.836  -4.010  0.00  0.00    +0.000 C 
BRANCH  21  22
ATOM     22  C   UNL     1       8.155   0.293  -4.394  0.00  0.00    +0.000 A 
ATOM     23  C   UNL     1       8.494   0.161  -5.750  0.00  0.00    +0.000 A 
ATOM     24  C   UNL     1       9.761  -0.287  -6.128  0.00  0.00    +0.000 A 
ATOM     25  C   UNL     1      10.708  -0.605  -5.158  0.00  0.00    +0.000 A 
ATOM     26  C   UNL     1      10.386  -0.484  -3.808  0.00  0.00    +0.000 A 
ATOM     27  C   UNL     1       9.119  -0.038  -3.427  0.00  0.00    +0.000 A 
ENDBRANCH  21  22
BRANCH  21  28
ATOM     28  C   UNL     1       6.005  -0.166  -3.108  0.00  0.00    +0.000 C 
BRANCH  28  33
ATOM     29  C   UNL     1       3.033   1.139  -1.078  0.00  0.00    +0.000 A 
ATOM     30  C   UNL     1       2.188   1.564  -2.103  0.00  0.00    +0.000 A 
ATOM     31  C   UNL     1       2.509   1.293  -3.432  0.00  0.00    +0.000 A 
ATOM     32  C   UNL     1       3.704   0.653  -3.745  0.00  0.00    +0.000 A 
ATOM     33  C   UNL     1       4.623   0.335  -2.738  0.00  0.00    +0.000 A 
ATOM     34  C   UNL     1       4.259   0.545  -1.397  0.00  0.00    +0.000 A 
BRANCH  29  36
ATOM     35  C   UNL     1       1.381   1.361   0.585  0.00  0.00    +0.000 C 
ATOM     36  O   UNL     1       2.768   1.296   0.257  0.00  0.00    +0.000 OA
ENDBRANCH  29  36
ENDBRANCH  28  33
ENDBRANCH  21  28
ENDBRANCH   1  21
TORSDOF 9
