REMARK  Name = 
REMARK  8 active torsions:
REMARK  status: ('A' for Active; 'I' for Inactive)
REMARK    1  A    between atoms: C_1  and  N_2
REMARK    2  A    between atoms: C_8  and  C_9
REMARK    3  A    between atoms: N_11  and  C_12
REMARK    4  A    between atoms: N_11  and  C_16
REMARK    5  A    between atoms: C_12  and  C_13
REMARK    6  A    between atoms: C_16  and  C_17
REMARK    7  A    between atoms: C_21  and  O_22
REMARK    8  A    between atoms: O_22  and  C_23
REMARK                            x       y       z     vdW  Elec       q    Type
REMARK                         _______ _______ _______ _____ _____    ______ ____
ROOT
ATOM      1  C   UNL     1       8.632  -1.021   0.131  0.00  0.00    +0.000 C 
ATOM      2  O   UNL     1       7.412  -1.058  -0.064  0.00  0.00    +0.000 OA
ATOM      3  N   UNL     1       9.430  -2.168  -0.143  0.00  0.00    +0.000 N 
ENDROOT
BRANCH   1  11
ATOM      4  C   UNL     1      10.475   6.152   3.036  0.00  0.00    +0.000 C 
ATOM      5  N   UNL     1       9.983   5.007   2.289  0.00  0.00    +0.000 N 
ATOM      6  C   UNL     1       8.674   4.995   1.836  0.00  0.00    +0.000 A 
ATOM      7  O   UNL     1       7.873   5.910   2.020  0.00  0.00    +0.000 OA
ATOM      8  N   UNL     1       8.258   3.871   1.161  0.00  0.00    +0.000 N 
ATOM      9  C   UNL     1       9.019   2.706   1.042  0.00  0.00    +0.000 A 
ATOM     10  C   UNL     1       8.472   1.518   0.500  0.00  0.00    +0.000 A 
ATOM     11  C   UNL     1       9.173   0.305   0.611  0.00  0.00    +0.000 A 
ATOM     12  C   UNL     1      10.337   0.359   1.350  0.00  0.00    +0.000 A 
ATOM     13  C   UNL     1      10.986   1.530   1.718  0.00  0.00    +0.000 A 
ATOM     14  C   UNL     1      10.304   2.716   1.572  0.00  0.00    +0.000 A 
ATOM     15  C   UNL     1      10.858   3.944   2.160  0.00  0.00    +0.000 A 
ATOM     16  O   UNL     1      12.042   3.972   2.523  0.00  0.00    +0.000 OA
ATOM     17  H   UNL     1       7.286   3.876   0.882  0.00  0.00    +0.000 HD
ENDBRANCH   1  11
BRANCH   3  18
ATOM     18  C   UNL     1       8.693  -3.406  -0.489  0.00  0.00    +0.000 C 
BRANCH  18  19
ATOM     19  C   UNL     1       8.174  -3.610  -1.919  0.00  0.00    +0.000 C 
ATOM     20  N   UNL     1       7.763  -2.508  -2.601  0.00  0.00    +0.000 N 
ATOM     21  O   UNL     1       8.002  -4.729  -2.401  0.00  0.00    +0.000 OA
ATOM     22  H   UNL     1       7.465  -1.712  -2.045  0.00  0.00    +0.000 HD
ATOM     23  H   UNL     1       7.230  -2.704  -3.439  0.00  0.00    +0.000 HD
ENDBRANCH  18  19
ENDBRANCH   3  18
BRANCH   3  24
ATOM     24  C   UNL     1      10.918  -2.326  -0.086  0.00  0.00    +0.000 C 
BRANCH  24  25
ATOM     25  C   UNL     1      11.416  -2.946   1.230  0.00  0.00    +0.000 A 
ATOM     26  C   UNL     1      11.129  -4.266   1.591  0.00  0.00    +0.000 A 
ATOM     27  C   UNL     1      11.285  -4.699   2.912  0.00  0.00    +0.000 A 
ATOM     28  C   UNL     1      11.717  -3.812   3.897  0.00  0.00    +0.000 A 
ATOM     29  C   UNL     1      12.137  -2.538   3.538  0.00  0.00    +0.000 A 
ATOM     30  C   UNL     1      12.085  -2.164   2.188  0.00  0.00    +0.000 A 
BRANCH  29  31
ATOM     31  O   UNL     1      12.464  -1.695   4.585  0.00  0.00    +0.000 OA
BRANCH  31  32
ATOM     32  C   UNL     1      13.241  -0.585   4.346  0.00  0.00    +0.000 A 
ATOM     33  C   UNL     1      12.880   0.621   4.950  0.00  0.00    +0.000 A 
ATOM     34  C   UNL     1      13.634   1.773   4.700  0.00  0.00    +0.000 A 
ATOM     35  C   UNL     1      14.736   1.712   3.845  0.00  0.00    +0.000 A 
ATOM     36  C   UNL     1      15.119   0.499   3.286  0.00  0.00    +0.000 A 
ATOM     37  C   UNL     1      14.394  -0.656   3.564  0.00  0.00    +0.000 A 
ENDBRANCH  31  32
ENDBRANCH  29  31
ENDBRANCH  24  25
ENDBRANCH   3  24
TORSDOF 7
