REMARK  Name = 
REMARK  7 active torsions:
REMARK  status: ('A' for Active; 'I' for Inactive)
REMARK    1  A    between atoms: C_2  and  C_20
REMARK    2  A    between atoms: N_3  and  C_4
REMARK    3  A    between atoms: C_4  and  C_5
REMARK    4  A    between atoms: C_4  and  C_15
REMARK    5  A    between atoms: C_9  and  C_10
REMARK    6  A    between atoms: N_22  and  C_23
REMARK    7  A    between atoms: C_31  and  O_32
REMARK                            x       y       z     vdW  Elec       q    Type
REMARK                         _______ _______ _______ _____ _____    ______ ____
ROOT
ATOM      1  O   UNL     1       1.137   0.342  -0.354  0.00  0.00    +0.000 OA
ATOM      2  C   UNL     1       2.352   0.219  -0.223  0.00  0.00    +0.000 C 
ATOM      3  N   UNL     1       3.031   0.780   0.832  0.00  0.00    +0.000 N 
ATOM      4  H   UNL     1       4.036   0.643   0.877  0.00  0.00    +0.000 HD
ENDROOT
BRANCH   2   5
ATOM      5  C   UNL     1       3.211  -0.501  -1.179  0.00  0.00    +0.000 A 
ATOM      6  N   UNL     1       4.556  -0.554  -1.046  0.00  0.00    +0.000 NA
ATOM      7  N   UNL     1       5.001  -1.250  -2.138  0.00  0.00    +0.000 N 
ATOM      8  C   UNL     1       3.950  -1.665  -2.927  0.00  0.00    +0.000 A 
ATOM      9  C   UNL     1       2.811  -1.204  -2.334  0.00  0.00    +0.000 A 
BRANCH   7  10
ATOM     10  C   UNL     1       6.395  -1.468  -2.342  0.00  0.00    +0.000 A 
ATOM     11  C   UNL     1       7.317  -0.985  -1.399  0.00  0.00    +0.000 A 
ATOM     12  C   UNL     1       8.691  -1.198  -1.580  0.00  0.00    +0.000 A 
ATOM     13  C   UNL     1       9.158  -1.888  -2.695  0.00  0.00    +0.000 A 
ATOM     14  C   UNL     1       8.250  -2.363  -3.638  0.00  0.00    +0.000 A 
ATOM     15  C   UNL     1       6.882  -2.153  -3.460  0.00  0.00    +0.000 A 
ATOM     16  F   UNL     1       6.074  -2.635  -4.414  0.00  0.00    +0.000 F 
ENDBRANCH   7  10
BRANCH   9  17
ATOM     17  O   UNL     1       1.577  -1.410  -2.816  0.00  0.00    +0.000 OA
ATOM     18  H   UNL     1       1.607  -1.947  -3.626  0.00  0.00    +0.000 HD
ENDBRANCH   9  17
ENDBRANCH   2   5
BRANCH   3  19
ATOM     19  C   UNL     1       2.364   1.571   1.836  0.00  0.00    +0.000 C 
BRANCH  19  20
ATOM     20  C   UNL     1       3.291   2.651   2.308  0.00  0.00    +0.000 A 
ATOM     21  N   UNL     1       4.610   2.640   2.351  0.00  0.00    +0.000 NA
ATOM     22  N   UNL     1       5.024   3.796   2.971  0.00  0.00    +0.000 NA
ATOM     23  C   UNL     1       3.954   4.485   3.288  0.00  0.00    +0.000 A 
ATOM     24  N   UNL     1       2.844   3.821   2.868  0.00  0.00    +0.000 N 
ATOM     25  H   UNL     1       1.883   4.106   2.990  0.00  0.00    +0.000 HD
ENDBRANCH  19  20
BRANCH  19  26
ATOM     26  C   UNL     1       1.888   0.725   3.009  0.00  0.00    +0.000 A 
ATOM     27  C   UNL     1       2.801  -0.012   3.782  0.00  0.00    +0.000 A 
ATOM     28  C   UNL     1       2.378  -0.713   4.911  0.00  0.00    +0.000 A 
ATOM     29  C   UNL     1       1.038  -0.678   5.293  0.00  0.00    +0.000 A 
ATOM     30  C   UNL     1       0.104   0.051   4.545  0.00  0.00    +0.000 A 
ATOM     31  C   UNL     1       0.535   0.732   3.392  0.00  0.00    +0.000 A 
BRANCH  30  32
ATOM     32  C   UNL     1      -1.337   0.147   4.985  0.00  0.00    +0.000 C 
ATOM     33  F   UNL     1      -1.597  -0.496   6.157  0.00  0.00    +0.000 F 
ATOM     34  F   UNL     1      -1.723   1.441   5.182  0.00  0.00    +0.000 F 
ATOM     35  F   UNL     1      -2.207  -0.365   4.072  0.00  0.00    +0.000 F 
ENDBRANCH  30  32
ENDBRANCH  19  26
ENDBRANCH   3  19
TORSDOF 7
