REMARK  Name = 
REMARK  7 active torsions:
REMARK  status: ('A' for Active; 'I' for Inactive)
REMARK    1  A    between atoms: C_2  and  C_3
REMARK    2  A    between atoms: C_5  and  C_6
REMARK    3  A    between atoms: C_6  and  O_7
REMARK    4  A    between atoms: O_7  and  C_8
REMARK    5  A    between atoms: C_8  and  C_10
REMARK    6  A    between atoms: N_17  and  C_18
REMARK    7  A    between atoms: C_18  and  C_19
REMARK                            x       y       z     vdW  Elec       q    Type
REMARK                         _______ _______ _______ _____ _____    ______ ____
ROOT
ATOM      1  C   UNL     1       1.887   6.313   0.217  0.00  0.00    +0.000 A 
ATOM      2  C   UNL     1       0.694   6.399   0.977  0.00  0.00    +0.000 A 
ATOM      3  C   UNL     1      -0.096   7.558   0.948  0.00  0.00    +0.000 A 
ATOM      4  C   UNL     1       0.333   8.588   0.140  0.00  0.00    +0.000 A 
ATOM      5  N   UNL     1      -0.265   9.818  -0.099  0.00  0.00    +0.000 N 
ATOM      6  C   UNL     1       0.491  10.523  -1.048  0.00  0.00    +0.000 A 
ATOM      7  O   UNL     1       0.212  11.618  -1.505  0.00  0.00    +0.000 OA
ATOM      8  N   UNL     1       1.600   9.707  -1.359  0.00  0.00    +0.000 N 
ATOM      9  C   UNL     1       1.495   8.512  -0.626  0.00  0.00    +0.000 A 
ATOM     10  C   UNL     1       2.298   7.394  -0.589  0.00  0.00    +0.000 A 
ATOM     11  H   UNL     1      -1.134  10.158   0.284  0.00  0.00    +0.000 HD
ENDROOT
BRANCH   1  12
ATOM     12  C   UNL     1       2.743   5.093   0.205  0.00  0.00    +0.000 C 
ATOM     13  O   UNL     1       3.806   5.050  -0.393  0.00  0.00    +0.000 OA
BRANCH  12  14
ATOM     14  O   UNL     1       2.170   4.064   0.880  0.00  0.00    +0.000 OA
BRANCH  14  15
ATOM     15  C   UNL     1       2.845   2.801   0.769  0.00  0.00    +0.000 C 
BRANCH  15  18
ATOM     16  C   UNL     1       2.729   1.526   4.372  0.00  0.00    +0.000 A 
ATOM     17  C   UNL     1       2.326   2.006   3.118  0.00  0.00    +0.000 A 
ATOM     18  C   UNL     1       3.278   2.312   2.131  0.00  0.00    +0.000 A 
ATOM     19  C   UNL     1       4.639   2.128   2.421  0.00  0.00    +0.000 A 
ATOM     20  C   UNL     1       5.041   1.648   3.669  0.00  0.00    +0.000 A 
ATOM     21  C   UNL     1       4.085   1.351   4.635  0.00  0.00    +0.000 A 
ATOM     22  F   UNL     1       4.495   0.889   5.825  0.00  0.00    +0.000 F 
BRANCH  16  24
ATOM     23  N   UNL     1       0.940   0.973   6.162  0.00  0.00    +0.000 NA
ATOM     24  C   UNL     1       1.757   1.215   5.373  0.00  0.00    +0.000 C 
ENDBRANCH  16  24
ENDBRANCH  15  18
ENDBRANCH  14  15
ENDBRANCH  12  14
ENDBRANCH   1  12
BRANCH   8  25
ATOM     25  C   UNL     1       2.528   9.986  -2.428  0.00  0.00    +0.000 C 
BRANCH  25  26
ATOM     26  C   UNL     1       2.049   9.421  -3.748  0.00  0.00    +0.000 A 
ATOM     27  C   UNL     1       1.181  10.162  -4.566  0.00  0.00    +0.000 A 
ATOM     28  C   UNL     1       0.633   9.594  -5.718  0.00  0.00    +0.000 A 
ATOM     29  C   UNL     1       0.945   8.281  -6.065  0.00  0.00    +0.000 A 
ATOM     30  C   UNL     1       1.833   7.548  -5.282  0.00  0.00    +0.000 A 
ATOM     31  C   UNL     1       2.389   8.117  -4.136  0.00  0.00    +0.000 A 
ENDBRANCH  25  26
ENDBRANCH   8  25
TORSDOF 7
