REMARK  Name = 
REMARK  5 active torsions:
REMARK  status: ('A' for Active; 'I' for Inactive)
REMARK    1  A    between atoms: C_2  and  C_17
REMARK    2  A    between atoms: N_3  and  C_4
REMARK    3  A    between atoms: N_6  and  C_7
REMARK    4  A    between atoms: C_19  and  O_20
REMARK    5  A    between atoms: N_22  and  C_23
REMARK                            x       y       z     vdW  Elec       q    Type
REMARK                         _______ _______ _______ _____ _____    ______ ____
ROOT
ATOM      1  O   UNL     1       1.039  -0.083   0.678  0.00  0.00    +0.000 OA
ATOM      2  C   UNL     1       2.175   0.061   0.254  0.00  0.00    +0.000 C 
ATOM      3  N   UNL     1       2.754   1.279  -0.092  0.00  0.00    +0.000 N 
ATOM      4  H   UNL     1       3.643   1.225  -0.573  0.00  0.00    +0.000 HD
ENDROOT
BRANCH   3   5
ATOM      5  C   UNL     1       2.104   2.493  -0.128  0.00  0.00    +0.000 A 
ATOM      6  C   UNL     1       0.953   2.754   0.511  0.00  0.00    +0.000 A 
ATOM      7  N   UNL     1       0.253   3.947   0.365  0.00  0.00    +0.000 N 
ATOM      8  C   UNL     1       0.734   4.964  -0.476  0.00  0.00    +0.000 A 
ATOM      9  O   UNL     1       0.173   6.023  -0.750  0.00  0.00    +0.000 OA
ATOM     10  C   UNL     1       2.043   4.692  -1.137  0.00  0.00    +0.000 A 
ATOM     11  C   UNL     1       2.683   3.530  -0.953  0.00  0.00    +0.000 A 
BRANCH   7  12
ATOM     12  C   UNL     1      -1.037   4.091   0.971  0.00  0.00    +0.000 A 
ATOM     13  C   UNL     1      -1.940   3.014   0.970  0.00  0.00    +0.000 A 
ATOM     14  C   UNL     1      -3.215   3.152   1.517  0.00  0.00    +0.000 A 
ATOM     15  C   UNL     1      -3.590   4.356   2.107  0.00  0.00    +0.000 A 
ATOM     16  C   UNL     1      -2.691   5.421   2.146  0.00  0.00    +0.000 A 
ATOM     17  C   UNL     1      -1.425   5.294   1.570  0.00  0.00    +0.000 A 
ENDBRANCH   7  12
ENDBRANCH   3   5
BRANCH   2  18
ATOM     18  C   UNL     1       3.034  -1.065   0.014  0.00  0.00    +0.000 A 
ATOM     19  C   UNL     1       4.357  -1.243   0.380  0.00  0.00    +0.000 A 
ATOM     20  C   UNL     1       4.599  -2.586   0.109  0.00  0.00    +0.000 A 
ATOM     21  N   UNL     1       3.558  -3.237  -0.374  0.00  0.00    +0.000 NA
ATOM     22  N   UNL     1       2.620  -2.265  -0.556  0.00  0.00    +0.000 N 
BRANCH  22  23
ATOM     23  C   UNL     1       1.467  -2.554  -1.334  0.00  0.00    +0.000 A 
ATOM     24  C   UNL     1       0.991  -3.873  -1.402  0.00  0.00    +0.000 A 
ATOM     25  C   UNL     1      -0.117  -4.180  -2.199  0.00  0.00    +0.000 A 
ATOM     26  C   UNL     1      -0.743  -3.181  -2.946  0.00  0.00    +0.000 A 
ATOM     27  C   UNL     1      -0.260  -1.875  -2.898  0.00  0.00    +0.000 A 
ATOM     28  C   UNL     1       0.843  -1.570  -2.103  0.00  0.00    +0.000 A 
ATOM     29  F   UNL     1       1.344  -0.330  -2.197  0.00  0.00    +0.000 F 
ENDBRANCH  22  23
BRANCH  20  30
ATOM     30  O   UNL     1       5.715  -3.292   0.298  0.00  0.00    +0.000 OA
ATOM     31  H   UNL     1       6.422  -2.716   0.625  0.00  0.00    +0.000 HD
ENDBRANCH  20  30
ENDBRANCH   2  18
TORSDOF 5
