REMARK  Name = 
REMARK  4 active torsions:
REMARK  status: ('A' for Active; 'I' for Inactive)
REMARK    1  A    between atoms: C_11  and  C_12
REMARK    2  A    between atoms: N_19  and  C_20
REMARK    3  A    between atoms: C_23  and  C_24
REMARK    4  A    between atoms: C_24  and  O_25
REMARK                            x       y       z     vdW  Elec       q    Type
REMARK                         _______ _______ _______ _____ _____    ______ ____
ROOT
ATOM      1  O   UNL     1       1.024   0.016  -0.120  0.00  0.00    +0.000 OA
ATOM      2  C   UNL     1       2.249  -0.071  -0.080  0.00  0.00    +0.000 A 
ATOM      3  C   UNL     1       2.983   1.205  -0.076  0.00  0.00    +0.000 A 
ATOM      4  C   UNL     1       4.376   1.222  -0.158  0.00  0.00    +0.000 A 
ATOM      5  C   UNL     1       5.024   2.457  -0.302  0.00  0.00    +0.000 A 
ATOM      6  C   UNL     1       4.304   3.644  -0.205  0.00  0.00    +0.000 A 
ATOM      7  F   UNL     1       4.964   4.809  -0.239  0.00  0.00    +0.000 F 
ATOM      8  C   UNL     1       2.928   3.622  -0.058  0.00  0.00    +0.000 A 
ATOM      9  F   UNL     1       2.238   4.768   0.030  0.00  0.00    +0.000 F 
ATOM     10  C   UNL     1       2.256   2.411  -0.028  0.00  0.00    +0.000 A 
ATOM     11  C   UNL     1       5.065  -0.097  -0.087  0.00  0.00    +0.000 A 
ATOM     12  N   UNL     1       4.402  -1.218  -0.073  0.00  0.00    +0.000 NA
ATOM     13  N   UNL     1       3.024  -1.232  -0.082  0.00  0.00    +0.000 N 
ENDROOT
BRANCH  13  14
ATOM     14  C   UNL     1       2.408  -2.533   0.010  0.00  0.00    +0.000 A 
ATOM     15  C   UNL     1       3.137  -3.716  -0.177  0.00  0.00    +0.000 A 
ATOM     16  F   UNL     1       4.436  -3.706  -0.517  0.00  0.00    +0.000 F 
ATOM     17  C   UNL     1       2.509  -4.962  -0.038  0.00  0.00    +0.000 A 
ATOM     18  C   UNL     1       1.148  -4.997   0.269  0.00  0.00    +0.000 A 
ATOM     19  C   UNL     1       0.484  -3.800   0.431  0.00  0.00    +0.000 A 
ATOM     20  N   UNL     1       1.082  -2.598   0.310  0.00  0.00    +0.000 NA
BRANCH  17  21
ATOM     21  C   UNL     1       3.265  -6.242  -0.238  0.00  0.00    +0.000 C 
BRANCH  21  22
ATOM     22  O   UNL     1       3.157  -7.062   0.921  0.00  0.00    +0.000 OA
ATOM     23  H   UNL     1       3.201  -6.476   1.697  0.00  0.00    +0.000 HD
ENDBRANCH  21  22
ENDBRANCH  17  21
ENDBRANCH  13  14
BRANCH  11  24
ATOM     24  C   UNL     1       6.567  -0.207  -0.008  0.00  0.00    +0.000 A 
ATOM     25  C   UNL     1       7.356   0.720   0.686  0.00  0.00    +0.000 A 
ATOM     26  C   UNL     1       8.751   0.639   0.653  0.00  0.00    +0.000 A 
ATOM     27  C   UNL     1       9.370  -0.426   0.007  0.00  0.00    +0.000 A 
ATOM     28  C   UNL     1       8.595  -1.414  -0.597  0.00  0.00    +0.000 A 
ATOM     29  C   UNL     1       7.200  -1.302  -0.614  0.00  0.00    +0.000 A 
ENDBRANCH  11  24
TORSDOF 4
