REMARK  Name = 
REMARK  7 active torsions:
REMARK  status: ('A' for Active; 'I' for Inactive)
REMARK    1  A    between atoms: C_1  and  N_2
REMARK    2  A    between atoms: C_5  and  C_6
REMARK    3  A    between atoms: C_6  and  N_7
REMARK    4  A    between atoms: C_6  and  C_24
REMARK    5  A    between atoms: C_8  and  C_10
REMARK    6  A    between atoms: C_12  and  C_13
REMARK    7  A    between atoms: C_22  and  O_23
REMARK                            x       y       z     vdW  Elec       q    Type
REMARK                         _______ _______ _______ _____ _____    ______ ____
ROOT
ATOM      1  N   UNL     1       2.465   2.549   1.112  0.00  0.00    +0.000 N 
ATOM      2  C   UNL     1       1.566   3.584   1.187  0.00  0.00    +0.000 C 
ATOM      3  O   UNL     1       0.822   3.895   0.260  0.00  0.00    +0.000 OA
ATOM      4  H   UNL     1       2.800   2.158   1.987  0.00  0.00    +0.000 HD
ENDROOT
BRANCH   2   5
ATOM      5  C   UNL     1       1.568   4.397   2.422  0.00  0.00    +0.000 A 
ATOM      6  C   UNL     1       1.110   5.717   2.333  0.00  0.00    +0.000 A 
ATOM      7  C   UNL     1       1.109   6.575   3.446  0.00  0.00    +0.000 A 
ATOM      8  C   UNL     1       1.581   6.008   4.634  0.00  0.00    +0.000 A 
ATOM      9  N   UNL     1       2.030   4.731   4.771  0.00  0.00    +0.000 NA
ATOM     10  C   UNL     1       2.015   3.972   3.658  0.00  0.00    +0.000 A 
BRANCH   7  11
ATOM     11  C   UNL     1       0.658   7.981   3.336  0.00  0.00    +0.000 A 
ATOM     12  C   UNL     1      -0.365   8.347   2.436  0.00  0.00    +0.000 A 
ATOM     13  C   UNL     1      -0.765   9.678   2.278  0.00  0.00    +0.000 A 
ATOM     14  C   UNL     1      -0.164  10.683   3.030  0.00  0.00    +0.000 A 
ATOM     15  C   UNL     1       0.834  10.351   3.940  0.00  0.00    +0.000 A 
ATOM     16  C   UNL     1       1.236   9.023   4.085  0.00  0.00    +0.000 A 
ATOM     17  F   UNL     1       2.224   8.767   4.954  0.00  0.00    +0.000 F 
ENDBRANCH   7  11
BRANCH  10  18
ATOM     18  O   UNL     1       2.501   2.726   3.884  0.00  0.00    +0.000 OA
ATOM     19  H   UNL     1       2.681   2.792   4.841  0.00  0.00    +0.000 HD
ENDBRANCH  10  18
ENDBRANCH   2   5
BRANCH   1  20
ATOM     20  C   UNL     1       2.459   1.648  -0.020  0.00  0.00    +0.000 C 
BRANCH  20  25
ATOM     21  C   UNL     1       0.139  -1.835   2.480  0.00  0.00    +0.000 C 
ATOM     22  N   UNL     1       0.564  -1.075   1.330  0.00  0.00    +0.000 N 
ATOM     23  C   UNL     1       0.230  -1.298   0.029  0.00  0.00    +0.000 A 
ATOM     24  C   UNL     1       0.871  -0.326  -0.699  0.00  0.00    +0.000 A 
ATOM     25  C   UNL     1       1.583   0.445   0.258  0.00  0.00    +0.000 A 
ATOM     26  N   UNL     1       1.385  -0.026   1.504  0.00  0.00    +0.000 NA
ENDBRANCH  20  25
BRANCH  20  27
ATOM     27  C   UNL     1       3.845   1.106  -0.334  0.00  0.00    +0.000 A 
ATOM     28  C   UNL     1       4.439   1.407  -1.572  0.00  0.00    +0.000 A 
ATOM     29  C   UNL     1       5.687   0.883  -1.915  0.00  0.00    +0.000 A 
ATOM     30  C   UNL     1       6.366   0.059  -1.022  0.00  0.00    +0.000 A 
ATOM     31  C   UNL     1       5.812  -0.222   0.223  0.00  0.00    +0.000 A 
ATOM     32  C   UNL     1       4.568   0.306   0.571  0.00  0.00    +0.000 A 
ENDBRANCH  20  27
ENDBRANCH   1  20
TORSDOF 6
