REMARK  Name = 
REMARK  7 active torsions:
REMARK  status: ('A' for Active; 'I' for Inactive)
REMARK    1  A    between atoms: C_1  and  N_2
REMARK    2  A    between atoms: C_3  and  C_4
REMARK    3  A    between atoms: N_6  and  C_7
REMARK    4  A    between atoms: C_8  and  C_9
REMARK    5  A    between atoms: C_9  and  C_10
REMARK    6  A    between atoms: C_21  and  C_22
REMARK    7  A    between atoms: C_22  and  C_24
REMARK                            x       y       z     vdW  Elec       q    Type
REMARK                         _______ _______ _______ _____ _____    ______ ____
ROOT
ATOM      1  C   UNL     1       0.462  -2.546   0.662  0.00  0.00    +0.000 C 
ATOM      2  O   UNL     1      -0.442  -3.351   0.856  0.00  0.00    +0.000 OA
ATOM      3  N   UNL     1       1.806  -2.897   0.494  0.00  0.00    +0.000 N 
ATOM      4  H   UNL     1       2.393  -2.199   0.936  0.00  0.00    +0.000 HD
ENDROOT
BRANCH   1   7
ATOM      5  C   UNL     1      -1.835  -0.816   2.008  0.00  0.00    +0.000 C 
ATOM      6  N   UNL     1      -0.758  -0.334   1.161  0.00  0.00    +0.000 N 
ATOM      7  C   UNL     1       0.270  -1.092   0.605  0.00  0.00    +0.000 A 
ATOM      8  C   UNL     1       1.091  -0.194  -0.060  0.00  0.00    +0.000 A 
ATOM      9  C   UNL     1       0.570   1.097   0.092  0.00  0.00    +0.000 A 
ATOM     10  C   UNL     1      -0.618   1.008   0.798  0.00  0.00    +0.000 A 
BRANCH  10  11
ATOM     11  C   UNL     1      -1.543   2.094   1.129  0.00  0.00    +0.000 C 
ATOM     12  O   UNL     1      -2.229   2.095   2.150  0.00  0.00    +0.000 OA
BRANCH  11  13
ATOM     13  C   UNL     1      -1.658   3.276   0.224  0.00  0.00    +0.000 A 
ATOM     14  C   UNL     1      -1.901   4.545   0.774  0.00  0.00    +0.000 A 
ATOM     15  C   UNL     1      -2.050   5.661  -0.059  0.00  0.00    +0.000 A 
ATOM     16  C   UNL     1      -1.957   5.522  -1.444  0.00  0.00    +0.000 A 
ATOM     17  C   UNL     1      -1.724   4.265  -1.997  0.00  0.00    +0.000 A 
ATOM     18  C   UNL     1      -1.591   3.152  -1.166  0.00  0.00    +0.000 A 
ATOM     19  F   UNL     1      -1.428   1.959  -1.754  0.00  0.00    +0.000 F 
ENDBRANCH  11  13
ENDBRANCH  10  11
ENDBRANCH   1   7
BRANCH   3  20
ATOM     20  C   UNL     1       2.241  -4.189   0.741  0.00  0.00    +0.000 A 
ATOM     21  C   UNL     1       2.471  -5.179  -0.194  0.00  0.00    +0.000 A 
ATOM     22  N   UNL     1       2.998  -6.227   0.517  0.00  0.00    +0.000 N 
ATOM     23  N   UNL     1       3.211  -5.955   1.814  0.00  0.00    +0.000 NA
ATOM     24  C   UNL     1       2.763  -4.705   1.946  0.00  0.00    +0.000 A 
ATOM     25  H   UNL     1       3.288  -7.134   0.165  0.00  0.00    +0.000 HD
BRANCH  21  26
ATOM     26  C   UNL     1       2.327  -5.258  -1.677  0.00  0.00    +0.000 C 
BRANCH  26  27
ATOM     27  C   UNL     1       3.612  -4.910  -2.405  0.00  0.00    +0.000 A 
ATOM     28  C   UNL     1       4.569  -5.893  -2.705  0.00  0.00    +0.000 A 
ATOM     29  C   UNL     1       5.768  -5.551  -3.339  0.00  0.00    +0.000 A 
ATOM     30  C   UNL     1       6.021  -4.225  -3.686  0.00  0.00    +0.000 A 
ATOM     31  C   UNL     1       5.077  -3.241  -3.400  0.00  0.00    +0.000 A 
ATOM     32  C   UNL     1       3.881  -3.581  -2.762  0.00  0.00    +0.000 A 
ENDBRANCH  26  27
ENDBRANCH  21  26
ENDBRANCH   3  20
TORSDOF 6
