REMARK  Name = 
REMARK  7 active torsions:
REMARK  status: ('A' for Active; 'I' for Inactive)
REMARK    1  A    between atoms: C_2  and  C_18
REMARK    2  A    between atoms: N_3  and  C_4
REMARK    3  A    between atoms: C_4  and  C_5
REMARK    4  A    between atoms: C_8  and  C_9
REMARK    5  A    between atoms: C_9  and  C_10
REMARK    6  A    between atoms: C_21  and  O_22
REMARK    7  A    between atoms: C_24  and  C_25
REMARK                            x       y       z     vdW  Elec       q    Type
REMARK                         _______ _______ _______ _____ _____    ______ ____
ROOT
ATOM      1  O   UNL     1       0.986  -0.152   0.136  0.00  0.00    +0.000 OA
ATOM      2  C   UNL     1       2.186   0.087   0.028  0.00  0.00    +0.000 C 
ATOM      3  N   UNL     1       2.867   0.821   0.973  0.00  0.00    +0.000 N 
ATOM      4  H   UNL     1       3.819   1.117   0.810  0.00  0.00    +0.000 HD
ENDROOT
BRANCH   2   5
ATOM      5  C   UNL     1       2.986  -0.386  -1.152  0.00  0.00    +0.000 A 
ATOM      6  C   UNL     1       4.292  -0.856  -0.872  0.00  0.00    +0.000 A 
ATOM      7  C   UNL     1       5.097  -1.401  -1.872  0.00  0.00    +0.000 A 
ATOM      8  C   UNL     1       4.594  -1.493  -3.156  0.00  0.00    +0.000 A 
ATOM      9  C   UNL     1       3.320  -1.017  -3.457  0.00  0.00    +0.000 A 
ATOM     10  C   UNL     1       2.471  -0.441  -2.477  0.00  0.00    +0.000 A 
BRANCH  10  11
ATOM     11  C   UNL     1       1.142   0.083  -2.918  0.00  0.00    +0.000 A 
ATOM     12  C   UNL     1       0.405  -0.547  -3.943  0.00  0.00    +0.000 A 
ATOM     13  C   UNL     1      -0.830  -0.052  -4.381  0.00  0.00    +0.000 A 
ATOM     14  C   UNL     1      -1.384   1.069  -3.777  0.00  0.00    +0.000 A 
ATOM     15  C   UNL     1      -0.683   1.718  -2.768  0.00  0.00    +0.000 A 
ATOM     16  C   UNL     1       0.577   1.251  -2.374  0.00  0.00    +0.000 A 
ENDBRANCH  10  11
BRANCH   8  17
ATOM     17  O   UNL     1       5.317  -2.052  -4.167  0.00  0.00    +0.000 OA
ATOM     18  H   UNL     1       6.162  -2.375  -3.813  0.00  0.00    +0.000 HD
ENDBRANCH   8  17
ENDBRANCH   2   5
BRANCH   3  19
ATOM     19  C   UNL     1       2.178   1.442   2.085  0.00  0.00    +0.000 C 
BRANCH  19  20
ATOM     20  C   UNL     1       1.795   2.829   1.718  0.00  0.00    +0.000 A 
ATOM     21  N   UNL     1       2.510   3.929   1.852  0.00  0.00    +0.000 NA
ATOM     22  N   UNL     1       1.729   4.990   1.452  0.00  0.00    +0.000 NA
ATOM     23  C   UNL     1       0.556   4.523   1.085  0.00  0.00    +0.000 A 
ATOM     24  N   UNL     1       0.572   3.156   1.191  0.00  0.00    +0.000 N 
ATOM     25  H   UNL     1      -0.170   2.510   0.959  0.00  0.00    +0.000 HD
BRANCH  23  26
ATOM     26  C   UNL     1      -0.631   5.315   0.646  0.00  0.00    +0.000 C 
BRANCH  26  27
ATOM     27  C   UNL     1      -1.589   5.616   1.782  0.00  0.00    +0.000 A 
ATOM     28  C   UNL     1      -1.166   6.379   2.885  0.00  0.00    +0.000 A 
ATOM     29  C   UNL     1      -2.033   6.631   3.950  0.00  0.00    +0.000 A 
ATOM     30  C   UNL     1      -3.328   6.131   3.910  0.00  0.00    +0.000 A 
ATOM     31  F   UNL     1      -4.156   6.354   4.940  0.00  0.00    +0.000 F 
ATOM     32  C   UNL     1      -3.777   5.398   2.817  0.00  0.00    +0.000 A 
ATOM     33  C   UNL     1      -2.911   5.142   1.752  0.00  0.00    +0.000 A 
ENDBRANCH  26  27
ENDBRANCH  23  26
ENDBRANCH  19  20
ENDBRANCH   3  19
TORSDOF 7
