REMARK  Name = 
REMARK  4 active torsions:
REMARK  status: ('A' for Active; 'I' for Inactive)
REMARK    1  A    between atoms: C_2  and  C_18
REMARK    2  A    between atoms: N_3  and  C_4
REMARK    3  A    between atoms: C_6  and  C_7
REMARK    4  A    between atoms: C_21  and  N_22
REMARK                            x       y       z     vdW  Elec       q    Type
REMARK                         _______ _______ _______ _____ _____    ______ ____
ROOT
ATOM      1  O   UNL     1       0.961  -0.285  -0.057  0.00  0.00    +0.000 OA
ATOM      2  C   UNL     1       2.138   0.057  -0.093  0.00  0.00    +0.000 C 
ATOM      3  N   UNL     1       2.781   0.916   0.779  0.00  0.00    +0.000 N 
ATOM      4  H   UNL     1       3.692   1.260   0.505  0.00  0.00    +0.000 HD
ENDROOT
BRANCH   3   5
ATOM      5  C   UNL     1       2.237   1.462   1.961  0.00  0.00    +0.000 A 
ATOM      6  C   UNL     1       1.059   0.988   2.552  0.00  0.00    +0.000 A 
ATOM      7  C   UNL     1       0.564   1.505   3.766  0.00  0.00    +0.000 A 
ATOM      8  C   UNL     1       1.271   2.575   4.338  0.00  0.00    +0.000 A 
ATOM      9  C   UNL     1       2.441   3.069   3.754  0.00  0.00    +0.000 A 
ATOM     10  C   UNL     1       2.936   2.497   2.583  0.00  0.00    +0.000 A 
BRANCH   7  11
ATOM     11  C   UNL     1      -0.611   0.891   4.436  0.00  0.00    +0.000 A 
ATOM     12  C   UNL     1      -0.832  -0.503   4.361  0.00  0.00    +0.000 A 
ATOM     13  C   UNL     1      -1.896  -1.114   5.031  0.00  0.00    +0.000 A 
ATOM     14  C   UNL     1      -2.756  -0.342   5.796  0.00  0.00    +0.000 A 
ATOM     15  F   UNL     1      -3.760  -0.930   6.458  0.00  0.00    +0.000 F 
ATOM     16  C   UNL     1      -2.584   1.030   5.887  0.00  0.00    +0.000 A 
ATOM     17  C   UNL     1      -1.527   1.632   5.206  0.00  0.00    +0.000 A 
ATOM     18  F   UNL     1      -1.408   2.965   5.312  0.00  0.00    +0.000 F 
ENDBRANCH   7  11
ENDBRANCH   3   5
BRANCH   2  19
ATOM     19  C   UNL     1       2.970  -0.459  -1.208  0.00  0.00    +0.000 A 
ATOM     20  C   UNL     1       2.373  -0.618  -2.462  0.00  0.00    +0.000 A 
ATOM     21  C   UNL     1       3.100  -1.161  -3.524  0.00  0.00    +0.000 A 
ATOM     22  C   UNL     1       4.426  -1.577  -3.346  0.00  0.00    +0.000 A 
ATOM     23  C   UNL     1       5.013  -1.418  -2.078  0.00  0.00    +0.000 A 
ATOM     24  C   UNL     1       4.296  -0.856  -1.015  0.00  0.00    +0.000 A 
BRANCH  22  25
ATOM     25  N   UNL     1       5.154  -2.153  -4.400  0.00  0.00    +0.000 N 
ATOM     26  N   UNL     1       6.384  -2.725  -4.181  0.00  0.00    +0.000 NA
ATOM     27  N   UNL     1       6.831  -3.189  -5.276  0.00  0.00    +0.000 NA
ATOM     28  N   UNL     1       5.925  -2.945  -6.256  0.00  0.00    +0.000 N 
ATOM     29  C   UNL     1       4.832  -2.278  -5.745  0.00  0.00    +0.000 A 
ATOM     30  O   UNL     1       3.866  -1.901  -6.383  0.00  0.00    +0.000 OA
ATOM     31  H   UNL     1       6.080  -3.197  -7.218  0.00  0.00    +0.000 HD
ENDBRANCH  22  25
ENDBRANCH   2  19
TORSDOF 4
