REMARK  Name = 
REMARK  4 active torsions:
REMARK  status: ('A' for Active; 'I' for Inactive)
REMARK    1  A    between atoms: C_2  and  C_21
REMARK    2  A    between atoms: N_3  and  C_4
REMARK    3  A    between atoms: N_10  and  C_11
REMARK    4  A    between atoms: C_21  and  C_24
REMARK                            x       y       z     vdW  Elec       q    Type
REMARK                         _______ _______ _______ _____ _____    ______ ____
ROOT
ATOM      1  C   UNL     1       2.127  -1.851  -1.655  0.00  0.00    +0.000 A 
ATOM      2  C   UNL     1       1.187  -1.493  -2.628  0.00  0.00    +0.000 A 
ATOM      3  C   UNL     1       0.535  -2.467  -3.388  0.00  0.00    +0.000 A 
ATOM      4  C   UNL     1       0.796  -3.817  -3.185  0.00  0.00    +0.000 A 
ATOM      5  N   UNL     1       0.089  -4.750  -3.941  0.00  0.00    +0.000 NA
ATOM      6  C   UNL     1       0.272  -6.001  -3.674  0.00  0.00    +0.000 A 
ATOM      7  N   UNL     1       1.133  -6.514  -2.724  0.00  0.00    +0.000 N 
ATOM      8  C   UNL     1       1.949  -5.631  -1.996  0.00  0.00    +0.000 A 
ATOM      9  O   UNL     1       2.846  -5.940  -1.214  0.00  0.00    +0.000 OA
ATOM     10  C   UNL     1       1.735  -4.183  -2.227  0.00  0.00    +0.000 A 
ATOM     11  C   UNL     1       2.426  -3.206  -1.482  0.00  0.00    +0.000 A 
ENDROOT
BRANCH   7  12
ATOM     12  C   UNL     1       1.185  -7.942  -2.502  0.00  0.00    +0.000 A 
ATOM     13  C   UNL     1       1.577  -8.476  -1.264  0.00  0.00    +0.000 A 
ATOM     14  C   UNL     1       1.614  -9.857  -1.040  0.00  0.00    +0.000 A 
ATOM     15  C   UNL     1       1.253 -10.741  -2.050  0.00  0.00    +0.000 A 
ATOM     16  C   UNL     1       0.850 -10.242  -3.282  0.00  0.00    +0.000 A 
ATOM     17  C   UNL     1       0.817  -8.860  -3.505  0.00  0.00    +0.000 A 
ENDBRANCH   7  12
BRANCH   1  20
ATOM     18  O   UNL     1       1.358   0.932  -1.142  0.00  0.00    +0.000 OA
ATOM     19  C   UNL     1       2.382   0.437  -0.666  0.00  0.00    +0.000 C 
ATOM     20  N   UNL     1       2.781  -0.892  -0.845  0.00  0.00    +0.000 N 
ATOM     21  H   UNL     1       3.532  -1.223  -0.243  0.00  0.00    +0.000 HD
BRANCH  19  22
ATOM     22  C   UNL     1       3.327   1.266   0.253  0.00  0.00    +0.000 C 
ATOM     23  F   UNL     1       2.682   1.561   1.427  0.00  0.00    +0.000 F 
ATOM     24  F   UNL     1       4.394   0.492   0.645  0.00  0.00    +0.000 F 
BRANCH  22  25
ATOM     25  C   UNL     1       3.771   2.521  -0.461  0.00  0.00    +0.000 A 
ATOM     26  C   UNL     1       2.982   3.677  -0.495  0.00  0.00    +0.000 A 
ATOM     27  C   UNL     1       3.403   4.782  -1.229  0.00  0.00    +0.000 A 
ATOM     28  C   UNL     1       4.606   4.697  -1.907  0.00  0.00    +0.000 A 
ATOM     29  N   UNL     1       5.402   3.606  -1.885  0.00  0.00    +0.000 NA
ATOM     30  C   UNL     1       4.970   2.546  -1.164  0.00  0.00    +0.000 A 
ENDBRANCH  22  25
ENDBRANCH  19  22
ENDBRANCH   1  20
TORSDOF 4
