REMARK  Name = 
REMARK  8 active torsions:
REMARK  status: ('A' for Active; 'I' for Inactive)
REMARK    1  A    between atoms: C_1  and  O_2
REMARK    2  A    between atoms: O_2  and  C_3
REMARK    3  A    between atoms: C_3  and  C_5
REMARK    4  A    between atoms: N_13  and  C_14
REMARK    5  A    between atoms: C_14  and  C_15
REMARK    6  A    between atoms: C_20  and  O_21
REMARK    7  A    between atoms: O_21  and  C_22
REMARK    8  A    between atoms: C_22  and  C_23
REMARK                            x       y       z     vdW  Elec       q    Type
REMARK                         _______ _______ _______ _____ _____    ______ ____
ROOT
ATOM      1  C   UNL     1       4.982   1.095  -0.835  0.00  0.00    +0.000 A 
ATOM      2  C   UNL     1       5.081   1.208  -2.234  0.00  0.00    +0.000 A 
ATOM      3  C   UNL     1       5.663   2.337  -2.811  0.00  0.00    +0.000 A 
ATOM      4  C   UNL     1       6.140   3.363  -1.998  0.00  0.00    +0.000 A 
ATOM      5  C   UNL     1       6.085   3.238  -0.603  0.00  0.00    +0.000 A 
ATOM      6  C   UNL     1       5.523   2.105  -0.022  0.00  0.00    +0.000 A 
ATOM      7  C   UNL     1       5.625   2.009   1.435  0.00  0.00    +0.000 A 
ATOM      8  N   UNL     1       6.213   2.886   2.192  0.00  0.00    +0.000 NA
ATOM      9  N   UNL     1       6.736   4.027   1.612  0.00  0.00    +0.000 N 
ATOM     10  C   UNL     1       6.663   4.296   0.250  0.00  0.00    +0.000 A 
ATOM     11  O   UNL     1       7.075   5.325  -0.283  0.00  0.00    +0.000 OA
ENDROOT
BRANCH   1  12
ATOM     12  C   UNL     1       4.234  -0.049  -0.258  0.00  0.00    +0.000 C 
ATOM     13  O   UNL     1       3.549   0.037   0.746  0.00  0.00    +0.000 OA
BRANCH  12  15
ATOM     14  C   UNL     1       3.693  -2.302  -0.521  0.00  0.00    +0.000 C 
ATOM     15  O   UNL     1       4.415  -1.165  -1.006  0.00  0.00    +0.000 OA
ENDBRANCH  12  15
ENDBRANCH   1  12
BRANCH   9  16
ATOM     16  C   UNL     1       7.414   4.984   2.508  0.00  0.00    +0.000 C 
BRANCH  16  17
ATOM     17  C   UNL     1       6.465   5.939   3.207  0.00  0.00    +0.000 A 
ATOM     18  C   UNL     1       5.453   5.389   4.021  0.00  0.00    +0.000 A 
ATOM     19  C   UNL     1       4.524   6.193   4.676  0.00  0.00    +0.000 A 
ATOM     20  C   UNL     1       4.577   7.568   4.518  0.00  0.00    +0.000 A 
ATOM     21  C   UNL     1       5.587   8.136   3.740  0.00  0.00    +0.000 A 
ATOM     22  C   UNL     1       6.569   7.342   3.122  0.00  0.00    +0.000 A 
BRANCH  22  23
ATOM     23  O   UNL     1       7.650   7.881   2.454  0.00  0.00    +0.000 OA
BRANCH  23  24
ATOM     24  C   UNL     1       7.902   9.269   2.730  0.00  0.00    +0.000 C 
BRANCH  24  25
ATOM     25  C   UNL     1       9.291   9.719   2.334  0.00  0.00    +0.000 A 
ATOM     26  C   UNL     1       9.904   9.275   1.158  0.00  0.00    +0.000 A 
ATOM     27  C   UNL     1      11.186   9.719   0.822  0.00  0.00    +0.000 A 
ATOM     28  C   UNL     1      11.859  10.622   1.647  0.00  0.00    +0.000 A 
ATOM     29  C   UNL     1      11.242  11.103   2.797  0.00  0.00    +0.000 A 
ATOM     30  C   UNL     1       9.962  10.663   3.133  0.00  0.00    +0.000 A 
ENDBRANCH  24  25
ENDBRANCH  23  24
ENDBRANCH  22  23
ENDBRANCH  16  17
ENDBRANCH   9  16
TORSDOF 7
