REMARK  Name = 
REMARK  8 active torsions:
REMARK  status: ('A' for Active; 'I' for Inactive)
REMARK    1  A    between atoms: C_1  and  C_2
REMARK    2  A    between atoms: C_5  and  C_6
REMARK    3  A    between atoms: C_9  and  C_10
REMARK    4  A    between atoms: C_10  and  O_11
REMARK    5  A    between atoms: O_11  and  C_12
REMARK    6  A    between atoms: C_12  and  C_14
REMARK    7  A    between atoms: C_19  and  O_20
REMARK    8  A    between atoms: N_29  and  C_30
REMARK                            x       y       z     vdW  Elec       q    Type
REMARK                         _______ _______ _______ _____ _____    ______ ____
ROOT
ATOM      1  C   UNL     1       4.703   3.697   0.293  0.00  0.00    +0.000 A 
ATOM      2  C   UNL     1       4.774   4.810  -0.564  0.00  0.00    +0.000 A 
ATOM      3  C   UNL     1       4.295   6.065  -0.184  0.00  0.00    +0.000 A 
ATOM      4  C   UNL     1       3.693   6.241   1.062  0.00  0.00    +0.000 A 
ATOM      5  C   UNL     1       3.535   5.131   1.897  0.00  0.00    +0.000 A 
ATOM      6  C   UNL     1       4.041   3.881   1.520  0.00  0.00    +0.000 A 
ENDROOT
BRANCH   1  11
ATOM      7  C   UNL     1       9.261   4.602  -1.780  0.00  0.00    +0.000 C 
ATOM      8  C   UNL     1       8.447   3.339  -1.619  0.00  0.00    +0.000 A 
ATOM      9  N   UNL     1       7.319   3.432  -1.000  0.00  0.00    +0.000 NA
ATOM     10  C   UNL     1       6.529   2.288  -0.791  0.00  0.00    +0.000 A 
ATOM     11  C   UNL     1       5.292   2.387  -0.100  0.00  0.00    +0.000 A 
ATOM     12  C   UNL     1       4.607   1.189   0.204  0.00  0.00    +0.000 A 
ATOM     13  C   UNL     1       5.092  -0.057  -0.197  0.00  0.00    +0.000 A 
ATOM     14  C   UNL     1       6.264  -0.133  -0.939  0.00  0.00    +0.000 A 
ATOM     15  C   UNL     1       6.974   1.037  -1.225  0.00  0.00    +0.000 A 
ATOM     16  C   UNL     1       8.231   0.975  -1.994  0.00  0.00    +0.000 A 
ATOM     17  O   UNL     1       8.586  -0.101  -2.475  0.00  0.00    +0.000 OA
ATOM     18  N   UNL     1       8.942   2.161  -2.130  0.00  0.00    +0.000 N 
ATOM     19  C   UNL     1      10.211   2.116  -2.838  0.00  0.00    +0.000 C 
ENDBRANCH   1  11
BRANCH   4  20
ATOM     20  C   UNL     1       3.233   7.610   1.489  0.00  0.00    +0.000 C 
BRANCH  20  21
ATOM     21  O   UNL     1       1.818   7.633   1.697  0.00  0.00    +0.000 OA
BRANCH  21  22
ATOM     22  C   UNL     1       1.082   7.814   0.571  0.00  0.00    +0.000 C 
ATOM     23  O   UNL     1       1.526   7.954  -0.555  0.00  0.00    +0.000 OA
BRANCH  22  24
ATOM     24  C   UNL     1      -0.358   7.847   0.944  0.00  0.00    +0.000 A 
ATOM     25  C   UNL     1      -0.812   7.145   2.072  0.00  0.00    +0.000 A 
ATOM     26  C   UNL     1      -2.164   7.170   2.427  0.00  0.00    +0.000 A 
ATOM     27  C   UNL     1      -3.072   7.886   1.651  0.00  0.00    +0.000 A 
ATOM     28  C   UNL     1      -2.634   8.580   0.522  0.00  0.00    +0.000 A 
ATOM     29  C   UNL     1      -1.282   8.563   0.172  0.00  0.00    +0.000 A 
BRANCH  29  30
ATOM     30  O   UNL     1      -0.874   9.280  -0.916  0.00  0.00    +0.000 OA
ATOM     31  H   UNL     1      -1.643   9.614  -1.403  0.00  0.00    +0.000 HD
ENDBRANCH  29  30
ENDBRANCH  22  24
ENDBRANCH  21  22
ENDBRANCH  20  21
ENDBRANCH   4  20
TORSDOF 6
