REMARK  Name = 
REMARK  6 active torsions:
REMARK  status: ('A' for Active; 'I' for Inactive)
REMARK    1  A    between atoms: C_2  and  C_3
REMARK    2  A    between atoms: C_4  and  N_5
REMARK    3  A    between atoms: C_6  and  C_8
REMARK    4  A    between atoms: C_8  and  C_11
REMARK    5  A    between atoms: C_12  and  C_13
REMARK    6  A    between atoms: N_21  and  C_22
REMARK                            x       y       z     vdW  Elec       q    Type
REMARK                         _______ _______ _______ _____ _____    ______ ____
ROOT
ATOM      1  C   UNL     1       3.806   0.082  -0.051  0.00  0.00    +0.000 A 
ATOM      2  C   UNL     1       4.479   1.257   0.077  0.00  0.00    +0.000 A 
ATOM      3  C   UNL     1       5.924   1.183   0.175  0.00  0.00    +0.000 A 
ATOM      4  C   UNL     1       6.562   0.008   0.130  0.00  0.00    +0.000 A 
ATOM      5  N   UNL     1       5.887  -1.195   0.011  0.00  0.00    +0.000 N 
ATOM      6  C   UNL     1       4.491  -1.235  -0.086  0.00  0.00    +0.000 A 
ATOM      7  O   UNL     1       3.806  -2.246  -0.233  0.00  0.00    +0.000 OA
ENDROOT
BRANCH   5   8
ATOM      8  C   UNL     1       6.600  -2.426  -0.064  0.00  0.00    +0.000 A 
ATOM      9  C   UNL     1       7.687  -2.555  -0.937  0.00  0.00    +0.000 A 
ATOM     10  C   UNL     1       8.308  -3.794  -1.097  0.00  0.00    +0.000 A 
ATOM     11  C   UNL     1       7.879  -4.894  -0.354  0.00  0.00    +0.000 A 
ATOM     12  C   UNL     1       6.832  -4.759   0.554  0.00  0.00    +0.000 A 
ATOM     13  C   UNL     1       6.190  -3.531   0.694  0.00  0.00    +0.000 A 
ENDBRANCH   5   8
BRANCH   2  14
ATOM     14  N   UNL     1       3.833   2.501   0.161  0.00  0.00    +0.000 N 
ATOM     15  C   UNL     1       4.393   3.791   0.219  0.00  0.00    +0.000 C 
ATOM     16  O   UNL     1       5.601   4.033   0.190  0.00  0.00    +0.000 OA
ATOM     17  H   UNL     1       2.811   2.507   0.164  0.00  0.00    +0.000 HD
BRANCH  15  18
ATOM     18  C   UNL     1       3.338   4.939   0.366  0.00  0.00    +0.000 C 
ATOM     19  F   UNL     1       2.070   4.441   0.226  0.00  0.00    +0.000 F 
ATOM     20  F   UNL     1       3.378   5.454   1.633  0.00  0.00    +0.000 F 
BRANCH  18  21
ATOM     21  C   UNL     1       3.595   6.053  -0.616  0.00  0.00    +0.000 C 
ATOM     22  C   UNL     1       2.721   6.530  -1.526  0.00  0.00    +0.000 C 
BRANCH  22  23
ATOM     23  C   UNL     1       2.966   7.678  -2.424  0.00  0.00    +0.000 A 
ATOM     24  C   UNL     1       4.239   8.022  -2.897  0.00  0.00    +0.000 A 
ATOM     25  C   UNL     1       4.416   9.121  -3.747  0.00  0.00    +0.000 A 
ATOM     26  C   UNL     1       3.320   9.884  -4.146  0.00  0.00    +0.000 A 
ATOM     27  C   UNL     1       2.045   9.541  -3.703  0.00  0.00    +0.000 A 
ATOM     28  C   UNL     1       1.869   8.443  -2.854  0.00  0.00    +0.000 A 
ENDBRANCH  22  23
ENDBRANCH  18  21
ENDBRANCH  15  18
ENDBRANCH   2  14
BRANCH   1  30
ATOM     29  N   UNL     1       1.025   0.082  -0.051  0.00  0.00    +0.000 NA
ATOM     30  C   UNL     1       2.286   0.082  -0.051  0.00  0.00    +0.000 C 
ENDBRANCH   1  30
TORSDOF 6
