REMARK  Name = 
REMARK  5 active torsions:
REMARK  status: ('A' for Active; 'I' for Inactive)
REMARK    1  A    between atoms: C_2  and  C_18
REMARK    2  A    between atoms: N_3  and  C_4
REMARK    3  A    between atoms: C_4  and  C_5
REMARK    4  A    between atoms: C_8  and  C_9
REMARK    5  A    between atoms: N_21  and  C_22
REMARK                            x       y       z     vdW  Elec       q    Type
REMARK                         _______ _______ _______ _____ _____    ______ ____
ROOT
ATOM      1  O   UNL     1       1.238  -0.409   1.158  0.00  0.00    +0.000 OA
ATOM      2  C   UNL     1       2.345  -0.197   0.683  0.00  0.00    +0.000 C 
ATOM      3  N   UNL     1       2.995   1.014   0.801  0.00  0.00    +0.000 N 
ATOM      4  H   UNL     1       3.834   1.182   0.258  0.00  0.00    +0.000 HD
ENDROOT
BRANCH   2   5
ATOM      5  C   UNL     1       3.048  -1.217  -0.064  0.00  0.00    +0.000 A 
ATOM      6  C   UNL     1       4.280  -1.151  -0.660  0.00  0.00    +0.000 A 
ATOM      7  F   UNL     1       5.059  -0.102  -0.627  0.00  0.00    +0.000 F 
ATOM      8  N   UNL     1       4.532  -2.357  -1.279  0.00  0.00    +0.000 N 
ATOM      9  N   UNL     1       3.499  -3.224  -1.085  0.00  0.00    +0.000 NA
ATOM     10  C   UNL     1       2.621  -2.531  -0.351  0.00  0.00    +0.000 A 
BRANCH   8  11
ATOM     11  C   UNL     1       5.689  -2.729  -2.015  0.00  0.00    +0.000 A 
ATOM     12  C   UNL     1       6.747  -1.824  -2.189  0.00  0.00    +0.000 A 
ATOM     13  C   UNL     1       7.900  -2.212  -2.868  0.00  0.00    +0.000 A 
ATOM     14  C   UNL     1       8.003  -3.498  -3.392  0.00  0.00    +0.000 A 
ATOM     15  C   UNL     1       6.945  -4.396  -3.249  0.00  0.00    +0.000 A 
ATOM     16  C   UNL     1       5.789  -4.017  -2.562  0.00  0.00    +0.000 A 
ENDBRANCH   8  11
ENDBRANCH   2   5
BRANCH   3  17
ATOM     17  C   UNL     1       2.318   2.149   1.381  0.00  0.00    +0.000 C 
BRANCH  17  18
ATOM     18  C   UNL     1       3.262   3.153   1.994  0.00  0.00    +0.000 A 
ATOM     19  C   UNL     1       3.283   4.480   1.540  0.00  0.00    +0.000 A 
ATOM     20  C   UNL     1       4.078   5.440   2.178  0.00  0.00    +0.000 A 
ATOM     21  C   UNL     1       4.863   5.092   3.282  0.00  0.00    +0.000 A 
ATOM     22  C   UNL     1       4.861   3.765   3.727  0.00  0.00    +0.000 A 
ATOM     23  C   UNL     1       4.067   2.804   3.088  0.00  0.00    +0.000 A 
BRANCH  21  24
ATOM     24  C   UNL     1       5.675   6.112   3.968  0.00  0.00    +0.000 A 
ATOM     25  C   UNL     1       5.127   6.795   4.991  0.00  0.00    +0.000 A 
ATOM     26  N   UNL     1       5.841   7.763   5.660  0.00  0.00    +0.000 N 
ATOM     27  C   UNL     1       7.133   8.114   5.352  0.00  0.00    +0.000 A 
ATOM     28  O   UNL     1       7.749   8.983   5.955  0.00  0.00    +0.000 OA
ATOM     29  C   UNL     1       7.751   7.369   4.227  0.00  0.00    +0.000 A 
ATOM     30  C   UNL     1       7.044   6.426   3.586  0.00  0.00    +0.000 A 
ATOM     31  H   UNL     1       5.417   8.271   6.425  0.00  0.00    +0.000 HD
ENDBRANCH  21  24
ENDBRANCH  17  18
ENDBRANCH   3  17
TORSDOF 5
