REMARK  Name = 
REMARK  6 active torsions:
REMARK  status: ('A' for Active; 'I' for Inactive)
REMARK    1  A    between atoms: C_1  and  O_2
REMARK    2  A    between atoms: O_2  and  C_3
REMARK    3  A    between atoms: C_4  and  C_5
REMARK    4  A    between atoms: N_7  and  C_8
REMARK    5  A    between atoms: C_11  and  N_12
REMARK    6  A    between atoms: C_13  and  C_15
REMARK                            x       y       z     vdW  Elec       q    Type
REMARK                         _______ _______ _______ _____ _____    ______ ____
ROOT
ATOM      1  C   UNL     1       4.163   1.632  -1.167  0.00  0.00    +0.000 C 
ATOM      2  O   UNL     1       3.128   1.401  -1.780  0.00  0.00    +0.000 OA
ATOM      3  N   UNL     1       5.383   1.993  -1.721  0.00  0.00    +0.000 N 
ATOM      4  H   UNL     1       6.164   2.172  -1.098  0.00  0.00    +0.000 HD
ENDROOT
BRANCH   1   6
ATOM      5  C   UNL     1       3.578   0.386   0.955  0.00  0.00    +0.000 A 
ATOM      6  C   UNL     1       4.119   1.499   0.299  0.00  0.00    +0.000 A 
ATOM      7  C   UNL     1       4.441   2.607   1.064  0.00  0.00    +0.000 A 
ATOM      8  N   UNL     1       4.258   2.684   2.403  0.00  0.00    +0.000 NA
ATOM      9  C   UNL     1       3.675   1.645   3.024  0.00  0.00    +0.000 A 
ATOM     10  C   UNL     1       3.407   1.752   4.383  0.00  0.00    +0.000 A 
ATOM     11  C   UNL     1       2.793   0.722   5.101  0.00  0.00    +0.000 A 
ATOM     12  C   UNL     1       2.439  -0.451   4.450  0.00  0.00    +0.000 A 
ATOM     13  C   UNL     1       2.697  -0.583   3.085  0.00  0.00    +0.000 A 
ATOM     14  C   UNL     1       3.313   0.459   2.348  0.00  0.00    +0.000 A 
BRANCH   5  16
ATOM     15  C   UNL     1       4.085  -1.302  -0.654  0.00  0.00    +0.000 C 
ATOM     16  O   UNL     1       3.204  -0.790   0.344  0.00  0.00    +0.000 OA
ENDBRANCH   5  16
ENDBRANCH   1   6
BRANCH   3  17
ATOM     17  C   UNL     1       5.678   2.009  -3.110  0.00  0.00    +0.000 A 
ATOM     18  C   UNL     1       4.757   1.719  -4.113  0.00  0.00    +0.000 A 
ATOM     19  C   UNL     1       5.160   1.667  -5.455  0.00  0.00    +0.000 A 
ATOM     20  C   UNL     1       6.485   1.920  -5.779  0.00  0.00    +0.000 A 
ATOM     21  N   UNL     1       7.379   2.246  -4.829  0.00  0.00    +0.000 NA
ATOM     22  C   UNL     1       6.972   2.284  -3.535  0.00  0.00    +0.000 A 
BRANCH  20  23
ATOM     23  N   UNL     1       6.868   1.816  -7.129  0.00  0.00    +0.000 N 
ATOM     24  C   UNL     1       8.165   2.001  -7.576  0.00  0.00    +0.000 C 
ATOM     25  O   UNL     1       9.136   2.257  -6.875  0.00  0.00    +0.000 OA
ATOM     26  H   UNL     1       6.160   1.524  -7.782  0.00  0.00    +0.000 HD
BRANCH  24  27
ATOM     27  C   UNL     1       8.412   1.860  -9.042  0.00  0.00    +0.000 A 
ATOM     28  C   UNL     1       7.438   2.054 -10.027  0.00  0.00    +0.000 A 
ATOM     29  C   UNL     1       7.792   1.994 -11.381  0.00  0.00    +0.000 A 
ATOM     30  C   UNL     1       9.114   1.745 -11.757  0.00  0.00    +0.000 A 
ATOM     31  C   UNL     1      10.086   1.538 -10.784  0.00  0.00    +0.000 A 
ATOM     32  C   UNL     1       9.736   1.593  -9.436  0.00  0.00    +0.000 A 
ENDBRANCH  24  27
ENDBRANCH  20  23
ENDBRANCH   3  17
TORSDOF 5
