REMARK  Name = 
REMARK  7 active torsions:
REMARK  status: ('A' for Active; 'I' for Inactive)
REMARK    1  A    between atoms: C_1  and  O_2
REMARK    2  A    between atoms: O_2  and  C_3
REMARK    3  A    between atoms: C_9  and  C_10
REMARK    4  A    between atoms: C_14  and  C_15
REMARK    5  A    between atoms: C_15  and  O_16
REMARK    6  A    between atoms: O_16  and  C_17
REMARK    7  A    between atoms: C_20  and  N_21
REMARK                            x       y       z     vdW  Elec       q    Type
REMARK                         _______ _______ _______ _____ _____    ______ ____
ROOT
ATOM      1  C   UNL     1       4.576  -1.131  -1.647  0.00  0.00    +0.000 A 
ATOM      2  C   UNL     1       5.895  -1.435  -1.297  0.00  0.00    +0.000 A 
ATOM      3  N   UNL     1       6.405  -2.686  -1.144  0.00  0.00    +0.000 NA
ATOM      4  C   UNL     1       5.551  -3.713  -1.325  0.00  0.00    +0.000 A 
ATOM      5  C   UNL     1       4.213  -3.555  -1.651  0.00  0.00    +0.000 A 
ATOM      6  C   UNL     1       3.740  -2.245  -1.826  0.00  0.00    +0.000 A 
ENDROOT
BRANCH   1  13
ATOM      7  C   UNL     1       4.856   1.341  -2.289  0.00  0.00    +0.000 A 
ATOM      8  C   UNL     1       4.307   2.629  -2.427  0.00  0.00    +0.000 A 
ATOM      9  C   UNL     1       2.986   2.879  -2.065  0.00  0.00    +0.000 A 
ATOM     10  C   UNL     1       2.217   1.845  -1.566  0.00  0.00    +0.000 A 
ATOM     11  F   UNL     1       0.943   2.075  -1.224  0.00  0.00    +0.000 F 
ATOM     12  C   UNL     1       2.743   0.564  -1.424  0.00  0.00    +0.000 A 
ATOM     13  C   UNL     1       4.073   0.265  -1.795  0.00  0.00    +0.000 A 
BRANCH   7  15
ATOM     14  C   UNL     1       7.087   2.117  -2.539  0.00  0.00    +0.000 C 
ATOM     15  O   UNL     1       6.137   1.066  -2.707  0.00  0.00    +0.000 OA
ENDBRANCH   7  15
ENDBRANCH   1  13
BRANCH   5  16
ATOM     16  C   UNL     1       3.318  -4.750  -1.806  0.00  0.00    +0.000 C 
BRANCH  16  17
ATOM     17  O   UNL     1       3.324  -5.472  -0.574  0.00  0.00    +0.000 OA
BRANCH  17  18
ATOM     18  C   UNL     1       2.589  -6.622  -0.525  0.00  0.00    +0.000 A 
ATOM     19  C   UNL     1       1.811  -7.140  -1.556  0.00  0.00    +0.000 A 
ATOM     20  C   UNL     1       1.108  -8.339  -1.375  0.00  0.00    +0.000 A 
ATOM     21  C   UNL     1       1.153  -9.037  -0.162  0.00  0.00    +0.000 A 
ATOM     22  C   UNL     1       1.933  -8.498   0.870  0.00  0.00    +0.000 A 
ATOM     23  C   UNL     1       2.648  -7.308   0.686  0.00  0.00    +0.000 A 
BRANCH  21  24
ATOM     24  N   UNL     1       0.428 -10.243   0.025  0.00  0.00    +0.000 N 
ATOM     25  C   UNL     1       0.138 -10.877   1.227  0.00  0.00    +0.000 A 
ATOM     26  C   UNL     1      -0.567 -11.990   0.994  0.00  0.00    +0.000 A 
ATOM     27  N   UNL     1      -0.747 -12.119  -0.353  0.00  0.00    +0.000 N 
ATOM     28  C   UNL     1      -0.140 -11.041  -1.024  0.00  0.00    +0.000 A 
ATOM     29  O   UNL     1      -0.127 -10.904  -2.235  0.00  0.00    +0.000 OA
ATOM     30  H   UNL     1      -1.227 -12.861  -0.839  0.00  0.00    +0.000 HD
ENDBRANCH  21  24
ENDBRANCH  17  18
ENDBRANCH  16  17
ENDBRANCH   5  16
TORSDOF 6
