REMARK  Name = 
REMARK  6 active torsions:
REMARK  status: ('A' for Active; 'I' for Inactive)
REMARK    1  A    between atoms: C_2  and  C_18
REMARK    2  A    between atoms: N_3  and  C_4
REMARK    3  A    between atoms: C_4  and  C_5
REMARK    4  A    between atoms: C_4  and  C_12
REMARK    5  A    between atoms: C_5  and  C_6
REMARK    6  A    between atoms: N_20  and  C_21
REMARK                            x       y       z     vdW  Elec       q    Type
REMARK                         _______ _______ _______ _____ _____    ______ ____
ROOT
ATOM      1  O   UNL     1       3.121   2.539  -0.548  0.00  0.00    +0.000 OA
ATOM      2  C   UNL     1       3.442   1.395  -0.253  0.00  0.00    +0.000 C 
ATOM      3  N   UNL     1       3.115   0.758   0.922  0.00  0.00    +0.000 N 
ATOM      4  H   UNL     1       3.537  -0.150   1.083  0.00  0.00    +0.000 HD
ENDROOT
BRANCH   2   5
ATOM      5  C   UNL     1       4.298   0.568  -1.220  0.00  0.00    +0.000 A 
ATOM      6  N   UNL     1       4.558  -0.668  -0.922  0.00  0.00    +0.000 NA
ATOM      7  N   UNL     1       5.383  -1.386  -1.789  0.00  0.00    +0.000 N 
ATOM      8  C   UNL     1       5.933  -0.834  -2.956  0.00  0.00    +0.000 A 
ATOM      9  O   UNL     1       6.656  -1.389  -3.783  0.00  0.00    +0.000 OA
ATOM     10  C   UNL     1       5.561   0.568  -3.245  0.00  0.00    +0.000 A 
ATOM     11  C   UNL     1       4.774   1.264  -2.426  0.00  0.00    +0.000 A 
BRANCH   7  12
ATOM     12  C   UNL     1       5.655  -2.725  -1.346  0.00  0.00    +0.000 A 
ATOM     13  C   UNL     1       6.771  -3.450  -1.787  0.00  0.00    +0.000 A 
ATOM     14  C   UNL     1       7.033  -4.741  -1.312  0.00  0.00    +0.000 A 
ATOM     15  C   UNL     1       6.173  -5.337  -0.396  0.00  0.00    +0.000 A 
ATOM     16  C   UNL     1       5.051  -4.645   0.045  0.00  0.00    +0.000 A 
ATOM     17  C   UNL     1       4.799  -3.350  -0.420  0.00  0.00    +0.000 A 
ENDBRANCH   7  12
ENDBRANCH   2   5
BRANCH   3  18
ATOM     18  C   UNL     1       2.409   1.449   1.994  0.00  0.00    +0.000 C 
BRANCH  18  19
ATOM     19  C   UNL     1       3.413   2.145   2.900  0.00  0.00    +0.000 A 
ATOM     20  C   UNL     1       3.384   3.536   3.047  0.00  0.00    +0.000 A 
ATOM     21  C   UNL     1       4.317   4.139   3.876  0.00  0.00    +0.000 A 
ATOM     22  N   UNL     1       5.263   3.463   4.562  0.00  0.00    +0.000 NA
ATOM     23  C   UNL     1       5.281   2.123   4.406  0.00  0.00    +0.000 A 
ATOM     24  C   UNL     1       4.391   1.428   3.601  0.00  0.00    +0.000 A 
ENDBRANCH  18  19
BRANCH  18  25
ATOM     25  C   UNL     1       1.484   0.525   2.820  0.00  0.00    +0.000 C 
BRANCH  25  26
ATOM     26  C   UNL     1       0.418  -0.154   1.992  0.00  0.00    +0.000 A 
ATOM     27  C   UNL     1       0.642  -1.437   1.475  0.00  0.00    +0.000 A 
ATOM     28  C   UNL     1      -0.312  -2.048   0.661  0.00  0.00    +0.000 A 
ATOM     29  C   UNL     1      -1.501  -1.386   0.363  0.00  0.00    +0.000 A 
ATOM     30  C   UNL     1      -1.742  -0.117   0.888  0.00  0.00    +0.000 A 
ATOM     31  C   UNL     1      -0.788   0.498   1.699  0.00  0.00    +0.000 A 
ENDBRANCH  25  26
ENDBRANCH  18  25
ENDBRANCH   3  18
TORSDOF 6
