REMARK  Name = 
REMARK  4 active torsions:
REMARK  status: ('A' for Active; 'I' for Inactive)
REMARK    1  A    between atoms: C_2  and  C_17
REMARK    2  A    between atoms: N_3  and  C_4
REMARK    3  A    between atoms: N_8  and  C_9
REMARK    4  A    between atoms: C_23  and  O_24
REMARK                            x       y       z     vdW  Elec       q    Type
REMARK                         _______ _______ _______ _____ _____    ______ ____
ROOT
ATOM      1  O   UNL     1       1.308  -0.575  -0.320  0.00  0.00    +0.000 OA
ATOM      2  C   UNL     1       2.392  -0.069  -0.047  0.00  0.00    +0.000 C 
ATOM      3  N   UNL     1       2.723   0.548   1.151  0.00  0.00    +0.000 N 
ATOM      4  H   UNL     1       3.693   0.852   1.282  0.00  0.00    +0.000 HD
ENDROOT
BRANCH   2   5
ATOM      5  C   UNL     1       3.567  -0.308  -0.941  0.00  0.00    +0.000 A 
ATOM      6  C   UNL     1       3.662  -1.625  -1.405  0.00  0.00    +0.000 A 
ATOM      7  C   UNL     1       4.908  -2.227  -1.455  0.00  0.00    +0.000 A 
ATOM      8  C   UNL     1       6.039  -1.492  -1.110  0.00  0.00    +0.000 A 
ATOM      9  C   UNL     1       5.965  -0.099  -0.964  0.00  0.00    +0.000 A 
ATOM     10  C   UNL     1       7.136   0.668  -0.880  0.00  0.00    +0.000 A 
ATOM     11  C   UNL     1       7.059   2.056  -0.833  0.00  0.00    +0.000 A 
ATOM     12  C   UNL     1       5.833   2.701  -0.785  0.00  0.00    +0.000 A 
ATOM     13  C   UNL     1       4.659   1.946  -0.804  0.00  0.00    +0.000 A 
ATOM     14  C   UNL     1       4.707   0.532  -0.908  0.00  0.00    +0.000 A 
BRANCH  11  15
ATOM     15  O   UNL     1       8.186   2.823  -0.867  0.00  0.00    +0.000 OA
ATOM     16  H   UNL     1       8.944   2.249  -1.071  0.00  0.00    +0.000 HD
ENDBRANCH  11  15
ENDBRANCH   2   5
BRANCH   3  17
ATOM     17  C   UNL     1       1.996   0.627   2.321  0.00  0.00    +0.000 A 
ATOM     18  C   UNL     1       0.724   0.228   2.477  0.00  0.00    +0.000 A 
ATOM     19  C   UNL     1       0.078   0.326   3.758  0.00  0.00    +0.000 A 
ATOM     20  C   UNL     1       0.726   0.843   4.808  0.00  0.00    +0.000 A 
ATOM     21  N   UNL     1       2.042   1.280   4.713  0.00  0.00    +0.000 N 
ATOM     22  C   UNL     1       2.758   1.178   3.509  0.00  0.00    +0.000 A 
ATOM     23  O   UNL     1       3.922   1.534   3.323  0.00  0.00    +0.000 OA
BRANCH  21  24
ATOM     24  C   UNL     1       2.674   1.898   5.839  0.00  0.00    +0.000 A 
ATOM     25  C   UNL     1       1.999   2.896   6.557  0.00  0.00    +0.000 A 
ATOM     26  C   UNL     1       2.633   3.573   7.604  0.00  0.00    +0.000 A 
ATOM     27  C   UNL     1       3.929   3.227   7.974  0.00  0.00    +0.000 A 
ATOM     28  C   UNL     1       4.595   2.207   7.300  0.00  0.00    +0.000 A 
ATOM     29  C   UNL     1       3.977   1.554   6.229  0.00  0.00    +0.000 A 
ENDBRANCH  21  24
ENDBRANCH   3  17
TORSDOF 4
