REMARK  Name = 
REMARK  6 active torsions:
REMARK  status: ('A' for Active; 'I' for Inactive)
REMARK    1  A    between atoms: C_2  and  C_3
REMARK    2  A    between atoms: C_5  and  C_6
REMARK    3  A    between atoms: C_13  and  N_14
REMARK    4  A    between atoms: C_15  and  C_17
REMARK    5  A    between atoms: C_17  and  N_18
REMARK    6  A    between atoms: C_19  and  C_21
REMARK                            x       y       z     vdW  Elec       q    Type
REMARK                         _______ _______ _______ _____ _____    ______ ____
ROOT
ATOM      1  N   UNL     1       2.527   2.385   0.075  0.00  0.00    +0.000 N 
ATOM      2  C   UNL     1       3.914   2.468   0.081  0.00  0.00    +0.000 C 
ATOM      3  O   UNL     1       4.708   1.532   0.161  0.00  0.00    +0.000 OA
ATOM      4  H   UNL     1       2.025   3.269   0.120  0.00  0.00    +0.000 HD
ENDROOT
BRANCH   1   9
ATOM      5  C   UNL     1      -0.429   0.148  -0.029  0.00  0.00    +0.000 A 
ATOM      6  C   UNL     1       0.170  -1.126  -0.009  0.00  0.00    +0.000 A 
ATOM      7  C   UNL     1       1.564  -1.259   0.061  0.00  0.00    +0.000 A 
ATOM      8  C   UNL     1       2.322  -0.072   0.111  0.00  0.00    +0.000 A 
ATOM      9  C   UNL     1       1.752   1.202   0.065  0.00  0.00    +0.000 A 
ATOM     10  C   UNL     1       0.362   1.304   0.003  0.00  0.00    +0.000 A 
BRANCH   7  11
ATOM     11  C   UNL     1       2.254  -2.572   0.106  0.00  0.00    +0.000 A 
ATOM     12  C   UNL     1       3.532  -2.737  -0.468  0.00  0.00    +0.000 A 
ATOM     13  C   UNL     1       4.242  -3.934  -0.356  0.00  0.00    +0.000 A 
ATOM     14  C   UNL     1       3.677  -5.012   0.312  0.00  0.00    +0.000 A 
ATOM     15  C   UNL     1       2.404  -4.891   0.861  0.00  0.00    +0.000 A 
ATOM     16  C   UNL     1       1.701  -3.684   0.762  0.00  0.00    +0.000 A 
ENDBRANCH   7  11
BRANCH   5  18
ATOM     17  N   UNL     1      -3.017   0.343  -0.122  0.00  0.00    +0.000 NA
ATOM     18  C   UNL     1      -1.860   0.255  -0.083  0.00  0.00    +0.000 C 
ENDBRANCH   5  18
ENDBRANCH   1   9
BRANCH   2  19
ATOM     19  C   UNL     1       4.442   3.899   0.079  0.00  0.00    +0.000 C 
BRANCH  19  20
ATOM     20  N   UNL     1       4.644   4.331   1.444  0.00  0.00    +0.000 N 
ATOM     21  C   UNL     1       3.650   4.956   2.157  0.00  0.00    +0.000 C 
ATOM     22  O   UNL     1       2.564   5.230   1.654  0.00  0.00    +0.000 OA
ATOM     23  H   UNL     1       5.449   3.951   1.934  0.00  0.00    +0.000 HD
BRANCH  21  24
ATOM     24  C   UNL     1       3.930   5.272   3.588  0.00  0.00    +0.000 A 
ATOM     25  C   UNL     1       2.961   5.971   4.325  0.00  0.00    +0.000 A 
ATOM     26  C   UNL     1       3.178   6.261   5.676  0.00  0.00    +0.000 A 
ATOM     27  C   UNL     1       4.360   5.854   6.287  0.00  0.00    +0.000 A 
ATOM     28  F   UNL     1       4.558   6.121   7.583  0.00  0.00    +0.000 F 
ATOM     29  C   UNL     1       5.335   5.174   5.573  0.00  0.00    +0.000 A 
ATOM     30  C   UNL     1       5.116   4.890   4.229  0.00  0.00    +0.000 A 
ATOM     31  F   UNL     1       6.078   4.229   3.567  0.00  0.00    +0.000 F 
ENDBRANCH  21  24
ENDBRANCH  19  20
ENDBRANCH   2  19
TORSDOF 6
