REMARK  Name = 
REMARK  10 active torsions:
REMARK  status: ('A' for Active; 'I' for Inactive)
REMARK    1  A    between atoms: C_2  and  C_3
REMARK    2  A    between atoms: C_3  and  O_4
REMARK    3  A    between atoms: O_4  and  C_5
REMARK    4  A    between atoms: C_9  and  O_10
REMARK    5  A    between atoms: O_10  and  C_11
REMARK    6  A    between atoms: N_18  and  C_19
REMARK    7  A    between atoms: C_19  and  C_20
REMARK    8  A    between atoms: N_24  and  C_25
REMARK    9  A    between atoms: C_25  and  C_26
REMARK   10  A    between atoms: C_26  and  C_27
REMARK                            x       y       z     vdW  Elec       q    Type
REMARK                         _______ _______ _______ _____ _____    ______ ____
ROOT
ATOM      1  O   UNL     1       2.865   0.694  -0.740  0.00  0.00    +0.000 OA
ATOM      2  C   UNL     1       2.325   0.185   0.243  0.00  0.00    +0.000 C 
ATOM      3  N   UNL     1       3.032  -0.387   1.280  0.00  0.00    +0.000 N 
ATOM      4  H   UNL     1       2.538  -0.977   1.938  0.00  0.00    +0.000 HD
ENDROOT
BRANCH   2   5
ATOM      5  C   UNL     1       0.818   0.221   0.473  0.00  0.00    +0.000 C 
BRANCH   5   6
ATOM      6  O   UNL     1       0.174  -0.935  -0.041  0.00  0.00    +0.000 OA
BRANCH   6   7
ATOM      7  C   UNL     1      -0.606  -1.648   0.828  0.00  0.00    +0.000 A 
ATOM      8  C   UNL     1      -1.185  -1.142   1.994  0.00  0.00    +0.000 A 
ATOM      9  C   UNL     1      -1.843  -1.993   2.880  0.00  0.00    +0.000 A 
ATOM     10  C   UNL     1      -1.985  -3.340   2.568  0.00  0.00    +0.000 A 
ATOM     11  C   UNL     1      -1.541  -3.823   1.335  0.00  0.00    +0.000 A 
ATOM     12  C   UNL     1      -0.824  -2.984   0.479  0.00  0.00    +0.000 A 
BRANCH  11  13
ATOM     13  O   UNL     1      -1.716  -5.132   0.941  0.00  0.00    +0.000 OA
BRANCH  13  14
ATOM     14  C   UNL     1      -2.945  -5.727   1.219  0.00  0.00    +0.000 A 
ATOM     15  C   UNL     1      -2.959  -7.110   1.313  0.00  0.00    +0.000 A 
ATOM     16  C   UNL     1      -4.167  -7.737   1.612  0.00  0.00    +0.000 A 
ATOM     17  C   UNL     1      -5.310  -6.965   1.801  0.00  0.00    +0.000 A 
ATOM     18  C   UNL     1      -5.202  -5.592   1.670  0.00  0.00    +0.000 A 
ATOM     19  N   UNL     1      -4.050  -4.959   1.369  0.00  0.00    +0.000 NA
ENDBRANCH  13  14
ENDBRANCH  11  13
ENDBRANCH   6   7
ENDBRANCH   5   6
ENDBRANCH   2   5
BRANCH   3  20
ATOM     20  C   UNL     1       4.472  -0.431   1.274  0.00  0.00    +0.000 C 
BRANCH  20  21
ATOM     21  C   UNL     1       4.926  -0.550   2.680  0.00  0.00    +0.000 A 
ATOM     22  C   UNL     1       5.141  -1.686   3.439  0.00  0.00    +0.000 A 
ATOM     23  C   UNL     1       5.615  -1.221   4.673  0.00  0.00    +0.000 A 
ATOM     24  N   UNL     1       5.694   0.107   4.715  0.00  0.00    +0.000 NA
ATOM     25  N   UNL     1       5.236   0.506   3.508  0.00  0.00    +0.000 N 
BRANCH  25  26
ATOM     26  C   UNL     1       5.236   1.932   3.228  0.00  0.00    +0.000 C 
BRANCH  26  27
ATOM     27  C   UNL     1       3.872   2.567   2.941  0.00  0.00    +0.000 C 
BRANCH  27  28
ATOM     28  C   UNL     1       2.765   2.367   3.953  0.00  0.00    +0.000 A 
ATOM     29  C   UNL     1       3.002   2.282   5.330  0.00  0.00    +0.000 A 
ATOM     30  C   UNL     1       1.942   2.120   6.226  0.00  0.00    +0.000 A 
ATOM     31  C   UNL     1       0.631   2.048   5.760  0.00  0.00    +0.000 A 
ATOM     32  C   UNL     1       0.377   2.156   4.396  0.00  0.00    +0.000 A 
ATOM     33  C   UNL     1       1.435   2.334   3.504  0.00  0.00    +0.000 A 
ENDBRANCH  27  28
ENDBRANCH  26  27
ENDBRANCH  25  26
ENDBRANCH  20  21
ENDBRANCH   3  20
TORSDOF 10
