REMARK  Name = 
REMARK  4 active torsions:
REMARK  status: ('A' for Active; 'I' for Inactive)
REMARK    1  A    between atoms: C_2  and  C_3
REMARK    2  A    between atoms: C_3  and  C_4
REMARK    3  A    between atoms: C_7  and  N_8
REMARK    4  A    between atoms: C_18  and  C_19
REMARK                            x       y       z     vdW  Elec       q    Type
REMARK                         _______ _______ _______ _____ _____    ______ ____
ROOT
ATOM      1  O   UNL     1       1.060   0.089  -0.095  0.00  0.00    +0.000 OA
ATOM      2  C   UNL     1       2.287   0.114  -0.015  0.00  0.00    +0.000 C 
ATOM      3  N   UNL     1       3.136   0.859  -0.800  0.00  0.00    +0.000 N 
ATOM      4  C   UNL     1       2.724   1.810  -1.725  0.00  0.00    +0.000 A 
ATOM      5  N   UNL     1       3.660   2.188  -2.608  0.00  0.00    +0.000 NA
ATOM      6  C   UNL     1       3.295   3.079  -3.562  0.00  0.00    +0.000 A 
ATOM      7  C   UNL     1       2.022   3.618  -3.604  0.00  0.00    +0.000 A 
ATOM      8  C   UNL     1       1.155   3.201  -2.628  0.00  0.00    +0.000 A 
ATOM      9  N   UNL     1       1.485   2.306  -1.687  0.00  0.00    +0.000 NA
ATOM     10  H   UNL     1       4.118   0.639  -0.848  0.00  0.00    +0.000 HD
ENDROOT
BRANCH   6  11
ATOM     11  C   UNL     1       4.324   3.400  -4.574  0.00  0.00    +0.000 A 
ATOM     12  C   UNL     1       5.297   2.450  -4.937  0.00  0.00    +0.000 A 
ATOM     13  C   UNL     1       6.255   2.738  -5.908  0.00  0.00    +0.000 A 
ATOM     14  F   UNL     1       7.160   1.807  -6.234  0.00  0.00    +0.000 F 
ATOM     15  C   UNL     1       6.285   3.968  -6.546  0.00  0.00    +0.000 A 
ATOM     16  C   UNL     1       5.338   4.914  -6.194  0.00  0.00    +0.000 A 
ATOM     17  F   UNL     1       5.346   6.111  -6.796  0.00  0.00    +0.000 F 
ATOM     18  C   UNL     1       4.371   4.647  -5.225  0.00  0.00    +0.000 A 
ENDBRANCH   6  11
BRANCH   2  19
ATOM     19  C   UNL     1       3.000  -0.742   1.016  0.00  0.00    +0.000 C 
BRANCH  19  20
ATOM     20  C   UNL     1       3.324  -2.160   0.598  0.00  0.00    +0.000 A 
ATOM     21  C   UNL     1       4.418  -2.801   1.198  0.00  0.00    +0.000 A 
ATOM     22  C   UNL     1       4.712  -4.142   0.927  0.00  0.00    +0.000 A 
ATOM     23  C   UNL     1       3.909  -4.873   0.045  0.00  0.00    +0.000 A 
ATOM     24  C   UNL     1       2.811  -4.244  -0.556  0.00  0.00    +0.000 A 
ATOM     25  C   UNL     1       2.515  -2.902  -0.272  0.00  0.00    +0.000 A 
BRANCH  23  26
ATOM     26  N   UNL     1       4.193  -6.239  -0.243  0.00  0.00    +0.000 N 
ATOM     27  C   UNL     1       5.189  -7.032   0.294  0.00  0.00    +0.000 A 
ATOM     28  C   UNL     1       5.111  -8.259  -0.317  0.00  0.00    +0.000 A 
ATOM     29  C   UNL     1       4.029  -8.141  -1.198  0.00  0.00    +0.000 A 
ATOM     30  N   UNL     1       3.459  -6.936  -1.151  0.00  0.00    +0.000 NA
ENDBRANCH  23  26
ENDBRANCH  19  20
ENDBRANCH   2  19
TORSDOF 4
