REMARK  Name = 
REMARK  6 active torsions:
REMARK  status: ('A' for Active; 'I' for Inactive)
REMARK    1  A    between atoms: C_2  and  C_3
REMARK    2  A    between atoms: C_3  and  C_4
REMARK    3  A    between atoms: C_7  and  O_8
REMARK    4  A    between atoms: N_15  and  C_16
REMARK    5  A    between atoms: C_18  and  N_19
REMARK    6  A    between atoms: C_20  and  C_22
REMARK                            x       y       z     vdW  Elec       q    Type
REMARK                         _______ _______ _______ _____ _____    ______ ____
ROOT
ATOM      1  O   UNL     1       2.702  -0.579  -0.963  0.00  0.00    +0.000 OA
ATOM      2  C   UNL     1       2.261   0.014   0.019  0.00  0.00    +0.000 C 
ATOM      3  N   UNL     1       3.039   0.678   0.961  0.00  0.00    +0.000 N 
ATOM      4  H   UNL     1       2.606   0.916   1.843  0.00  0.00    +0.000 HD
ENDROOT
BRANCH   3   5
ATOM      5  C   UNL     1       4.441   0.870   0.854  0.00  0.00    +0.000 A 
ATOM      6  C   UNL     1       5.127   0.725  -0.357  0.00  0.00    +0.000 A 
ATOM      7  C   UNL     1       6.517   0.841  -0.447  0.00  0.00    +0.000 A 
ATOM      8  C   UNL     1       7.239   1.109   0.716  0.00  0.00    +0.000 A 
ATOM      9  C   UNL     1       6.564   1.325   1.925  0.00  0.00    +0.000 A 
ATOM     10  C   UNL     1       5.169   1.219   1.992  0.00  0.00    +0.000 A 
BRANCH   7  11
ATOM     11  N   UNL     1       7.215   0.664  -1.670  0.00  0.00    +0.000 N 
ATOM     12  C   UNL     1       6.631   0.751  -2.928  0.00  0.00    +0.000 C 
ATOM     13  O   UNL     1       5.491   1.140  -3.166  0.00  0.00    +0.000 OA
ATOM     14  H   UNL     1       8.222   0.604  -1.602  0.00  0.00    +0.000 HD
BRANCH  12  15
ATOM     15  C   UNL     1       7.466   0.431  -4.098  0.00  0.00    +0.000 A 
ATOM     16  C   UNL     1       8.560  -0.403  -4.096  0.00  0.00    +0.000 A 
ATOM     17  N   UNL     1       9.285  -0.686  -5.206  0.00  0.00    +0.000 NA
ATOM     18  C   UNL     1       8.860  -0.119  -6.348  0.00  0.00    +0.000 A 
ATOM     19  N   UNL     1       7.800   0.692  -6.475  0.00  0.00    +0.000 NA
ATOM     20  C   UNL     1       7.117   0.943  -5.335  0.00  0.00    +0.000 A 
ENDBRANCH  12  15
ENDBRANCH   7  11
ENDBRANCH   3   5
BRANCH   2  21
ATOM     21  C   UNL     1       0.761   0.087   0.255  0.00  0.00    +0.000 C 
BRANCH  21  22
ATOM     22  C   UNL     1       0.142  -1.091   0.991  0.00  0.00    +0.000 A 
ATOM     23  C   UNL     1      -0.476  -0.815   2.226  0.00  0.00    +0.000 A 
ATOM     24  C   UNL     1      -1.126  -1.813   2.944  0.00  0.00    +0.000 A 
ATOM     25  C   UNL     1      -1.157  -3.109   2.443  0.00  0.00    +0.000 A 
ATOM     26  C   UNL     1      -0.557  -3.438   1.214  0.00  0.00    +0.000 A 
ATOM     27  C   UNL     1      -0.604  -4.759   0.715  0.00  0.00    +0.000 A 
ATOM     28  C   UNL     1      -0.032  -5.102  -0.507  0.00  0.00    +0.000 A 
ATOM     29  C   UNL     1       0.583  -4.120  -1.263  0.00  0.00    +0.000 A 
ATOM     30  C   UNL     1       0.626  -2.803  -0.793  0.00  0.00    +0.000 A 
ATOM     31  C   UNL     1       0.090  -2.421   0.460  0.00  0.00    +0.000 A 
BRANCH  25  32
ATOM     32  O   UNL     1      -1.804  -4.086   3.159  0.00  0.00    +0.000 OA
ATOM     33  H   UNL     1      -2.179  -3.694   3.962  0.00  0.00    +0.000 HD
ENDBRANCH  25  32
ENDBRANCH  21  22
ENDBRANCH   2  21
TORSDOF 6
