REMARK  Name = 
REMARK  4 active torsions:
REMARK  status: ('A' for Active; 'I' for Inactive)
REMARK    1  A    between atoms: C_2  and  C_15
REMARK    2  A    between atoms: N_3  and  C_4
REMARK    3  A    between atoms: C_9  and  C_10
REMARK    4  A    between atoms: N_17  and  C_18
REMARK                            x       y       z     vdW  Elec       q    Type
REMARK                         _______ _______ _______ _____ _____    ______ ____
ROOT
ATOM      1  O   UNL     1       0.981  -0.300   0.043  0.00  0.00    +0.000 OA
ATOM      2  C   UNL     1       2.198  -0.136  -0.045  0.00  0.00    +0.000 C 
ATOM      3  N   UNL     1       2.853   1.067   0.068  0.00  0.00    +0.000 N 
ATOM      4  H   UNL     1       3.811   1.139  -0.281  0.00  0.00    +0.000 HD
ENDROOT
BRANCH   2   5
ATOM      5  C   UNL     1       3.074  -1.315  -0.341  0.00  0.00    +0.000 A 
ATOM      6  C   UNL     1       2.476  -2.364  -0.936  0.00  0.00    +0.000 A 
ATOM      7  N   UNL     1       3.131  -3.565  -1.173  0.00  0.00    +0.000 N 
ATOM      8  C   UNL     1       4.457  -3.763  -0.744  0.00  0.00    +0.000 A 
ATOM      9  O   UNL     1       5.103  -4.804  -0.836  0.00  0.00    +0.000 OA
ATOM     10  C   UNL     1       5.104  -2.598  -0.075  0.00  0.00    +0.000 A 
ATOM     11  C   UNL     1       4.444  -1.444   0.101  0.00  0.00    +0.000 A 
BRANCH   7  12
ATOM     12  C   UNL     1       2.431  -4.672  -1.750  0.00  0.00    +0.000 A 
ATOM     13  C   UNL     1       2.998  -5.391  -2.810  0.00  0.00    +0.000 A 
ATOM     14  C   UNL     1       2.316  -6.471  -3.378  0.00  0.00    +0.000 A 
ATOM     15  C   UNL     1       1.076  -6.864  -2.874  0.00  0.00    +0.000 A 
ATOM     16  C   UNL     1       0.503  -6.160  -1.817  0.00  0.00    +0.000 A 
ATOM     17  C   UNL     1       1.171  -5.064  -1.275  0.00  0.00    +0.000 A 
ATOM     18  F   UNL     1       0.603  -4.430  -0.237  0.00  0.00    +0.000 F 
ENDBRANCH   7  12
ENDBRANCH   2   5
BRANCH   3  19
ATOM     19  C   UNL     1       2.284   2.311   0.454  0.00  0.00    +0.000 A 
ATOM     20  C   UNL     1       1.015   2.375   1.052  0.00  0.00    +0.000 A 
ATOM     21  C   UNL     1       0.450   3.594   1.425  0.00  0.00    +0.000 A 
ATOM     22  C   UNL     1       1.160   4.769   1.236  0.00  0.00    +0.000 A 
ATOM     23  C   UNL     1       2.432   4.726   0.663  0.00  0.00    +0.000 A 
ATOM     24  C   UNL     1       3.012   3.510   0.249  0.00  0.00    +0.000 A 
BRANCH  24  25
ATOM     25  C   UNL     1       4.303   3.518  -0.447  0.00  0.00    +0.000 A 
ATOM     26  C   UNL     1       5.034   4.629  -0.817  0.00  0.00    +0.000 A 
ATOM     27  N   UNL     1       6.089   4.150  -1.544  0.00  0.00    +0.000 N 
ATOM     28  C   UNL     1       5.983   2.790  -1.578  0.00  0.00    +0.000 A 
ATOM     29  N   UNL     1       4.937   2.372  -0.902  0.00  0.00    +0.000 NA
ATOM     30  H   UNL     1       6.801   4.702  -2.002  0.00  0.00    +0.000 HD
ENDBRANCH  24  25
ENDBRANCH   3  19
TORSDOF 4
