REMARK  Name = 
REMARK  7 active torsions:
REMARK  status: ('A' for Active; 'I' for Inactive)
REMARK    1  A    between atoms: C_1  and  N_2
REMARK    2  A    between atoms: C_8  and  C_9
REMARK    3  A    between atoms: C_9  and  N_10
REMARK    4  A    between atoms: N_10  and  C_11
REMARK    5  A    between atoms: C_15  and  C_16
REMARK    6  A    between atoms: C_16  and  S_17
REMARK    7  A    between atoms: S_17  and  C_20
REMARK                            x       y       z     vdW  Elec       q    Type
REMARK                         _______ _______ _______ _____ _____    ______ ____
ROOT
ATOM      1  C   UNL     1       6.784  -6.381   0.091  0.00  0.00    +0.000 A 
ATOM      2  C   UNL     1       7.875  -6.502   0.954  0.00  0.00    +0.000 A 
ATOM      3  C   UNL     1       8.787  -7.549   0.808  0.00  0.00    +0.000 A 
ATOM      4  C   UNL     1       8.602  -8.505  -0.192  0.00  0.00    +0.000 A 
ATOM      5  C   UNL     1       7.490  -8.437  -1.041  0.00  0.00    +0.000 A 
ATOM      6  C   UNL     1       6.580  -7.383  -0.867  0.00  0.00    +0.000 A 
ENDROOT
BRANCH   1   7
ATOM      7  N   UNL     1       5.905  -5.300   0.270  0.00  0.00    +0.000 N 
ATOM      8  H   UNL     1       5.279  -5.504   1.048  0.00  0.00    +0.000 HD
BRANCH   7   9
ATOM      9  C   UNL     1       5.147  -4.889  -0.910  0.00  0.00    +0.000 C 
BRANCH   9  17
ATOM     10  C   UNL     1       2.858   1.417  -0.686  0.00  0.00    +0.000 C 
ATOM     11  N   UNL     1       4.036   0.601  -0.654  0.00  0.00    +0.000 N 
ATOM     12  C   UNL     1       5.340   1.038  -0.508  0.00  0.00    +0.000 A 
ATOM     13  O   UNL     1       5.699   2.201  -0.398  0.00  0.00    +0.000 OA
ATOM     14  O   UNL     1       6.229  -0.045  -0.502  0.00  0.00    +0.000 OA
ATOM     15  C   UNL     1       5.382  -1.134  -0.637  0.00  0.00    +0.000 A 
ATOM     16  C   UNL     1       5.770  -2.455  -0.672  0.00  0.00    +0.000 A 
ATOM     17  C   UNL     1       4.766  -3.433  -0.807  0.00  0.00    +0.000 A 
ATOM     18  C   UNL     1       3.409  -3.040  -0.918  0.00  0.00    +0.000 A 
ATOM     19  C   UNL     1       3.042  -1.691  -0.881  0.00  0.00    +0.000 A 
ATOM     20  C   UNL     1       4.056  -0.770  -0.736  0.00  0.00    +0.000 A 
ENDBRANCH   9  17
ENDBRANCH   7   9
ENDBRANCH   1   7
BRANCH   5  21
ATOM     21  C   UNL     1       7.333  -9.406  -2.186  0.00  0.00    +0.000 C 
BRANCH  21  22
ATOM     22  S   UNL     1       5.827 -10.364  -2.025  0.00  0.00    +0.000 S 
ATOM     23  O   UNL     1       5.886 -11.109  -0.777  0.00  0.00    +0.000 OA
ATOM     24  O   UNL     1       4.671  -9.545  -2.348  0.00  0.00    +0.000 OA
BRANCH  22  25
ATOM     25  C   UNL     1       5.956 -11.568  -3.321  0.00  0.00    +0.000 A 
ATOM     26  C   UNL     1       5.972 -12.934  -3.015  0.00  0.00    +0.000 A 
ATOM     27  C   UNL     1       6.060 -13.866  -4.051  0.00  0.00    +0.000 A 
ATOM     28  C   UNL     1       6.120 -13.425  -5.371  0.00  0.00    +0.000 A 
ATOM     29  F   UNL     1       6.203 -14.323  -6.360  0.00  0.00    +0.000 F 
ATOM     30  C   UNL     1       6.099 -12.070  -5.678  0.00  0.00    +0.000 A 
ATOM     31  C   UNL     1       6.019 -11.143  -4.644  0.00  0.00    +0.000 A 
ATOM     32  F   UNL     1       6.024  -9.839  -4.948  0.00  0.00    +0.000 F 
ENDBRANCH  22  25
ENDBRANCH  21  22
ENDBRANCH   5  21
TORSDOF 6
