REMARK  Name = 
REMARK  6 active torsions:
REMARK  status: ('A' for Active; 'I' for Inactive)
REMARK    1  A    between atoms: C_2  and  C_21
REMARK    2  A    between atoms: N_3  and  C_4
REMARK    3  A    between atoms: C_4  and  C_5
REMARK    4  A    between atoms: C_8  and  N_9
REMARK    5  A    between atoms: C_10  and  C_12
REMARK    6  A    between atoms: C_17  and  O_18
REMARK                            x       y       z     vdW  Elec       q    Type
REMARK                         _______ _______ _______ _____ _____    ______ ____
ROOT
ATOM      1  C   UNL     1       3.201  -1.973  -3.013  0.00  0.00    +0.000 A 
ATOM      2  C   UNL     1       4.086  -1.094  -3.644  0.00  0.00    +0.000 A 
ATOM      3  C   UNL     1       5.016  -1.563  -4.574  0.00  0.00    +0.000 A 
ATOM      4  C   UNL     1       5.077  -2.918  -4.899  0.00  0.00    +0.000 A 
ATOM      5  C   UNL     1       4.189  -3.801  -4.273  0.00  0.00    +0.000 A 
ATOM      6  C   UNL     1       3.252  -3.333  -3.342  0.00  0.00    +0.000 A 
ENDROOT
BRANCH   4   7
ATOM      7  N   UNL     1       5.996  -3.454  -5.824  0.00  0.00    +0.000 N 
ATOM      8  C   UNL     1       6.937  -2.767  -6.567  0.00  0.00    +0.000 C 
ATOM      9  O   UNL     1       7.099  -1.549  -6.566  0.00  0.00    +0.000 OA
ATOM     10  H   UNL     1       5.977  -4.462  -5.960  0.00  0.00    +0.000 HD
BRANCH   8  11
ATOM     11  C   UNL     1       7.840  -3.593  -7.436  0.00  0.00    +0.000 A 
ATOM     12  C   UNL     1       8.804  -2.898  -8.189  0.00  0.00    +0.000 A 
ATOM     13  C   UNL     1       9.725  -3.579  -8.985  0.00  0.00    +0.000 A 
ATOM     14  C   UNL     1       9.695  -4.969  -9.041  0.00  0.00    +0.000 A 
ATOM     15  C   UNL     1       8.732  -5.677  -8.321  0.00  0.00    +0.000 A 
ATOM     16  C   UNL     1       7.804  -4.993  -7.527  0.00  0.00    +0.000 A 
BRANCH  16  17
ATOM     17  O   UNL     1       6.864  -5.721  -6.843  0.00  0.00    +0.000 OA
ATOM     18  H   UNL     1       6.976  -6.662  -7.069  0.00  0.00    +0.000 HD
ENDBRANCH  16  17
ENDBRANCH   8  11
ENDBRANCH   4   7
BRANCH   1  19
ATOM     19  C   UNL     1       2.199  -1.440  -2.029  0.00  0.00    +0.000 C 
BRANCH  19  22
ATOM     20  O   UNL     1       0.064  -0.202  -0.766  0.00  0.00    +0.000 OA
ATOM     21  C   UNL     1      -0.028  -0.451  -1.962  0.00  0.00    +0.000 C 
ATOM     22  N   UNL     1       0.967  -1.067  -2.684  0.00  0.00    +0.000 N 
ATOM     23  H   UNL     1       0.941  -1.082  -3.696  0.00  0.00    +0.000 HD
BRANCH  21  24
ATOM     24  C   UNL     1      -1.247  -0.056  -2.694  0.00  0.00    +0.000 A 
ATOM     25  C   UNL     1      -1.976   1.028  -2.233  0.00  0.00    +0.000 A 
ATOM     26  N   UNL     1      -3.134   1.446  -2.796  0.00  0.00    +0.000 NA
ATOM     27  C   UNL     1      -3.601   0.737  -3.842  0.00  0.00    +0.000 A 
ATOM     28  C   UNL     1      -4.803   1.093  -4.431  0.00  0.00    +0.000 A 
ATOM     29  C   UNL     1      -5.322   0.361  -5.496  0.00  0.00    +0.000 A 
ATOM     30  C   UNL     1      -4.596  -0.722  -5.952  0.00  0.00    +0.000 A 
ATOM     31  N   UNL     1      -3.416  -1.107  -5.420  0.00  0.00    +0.000 NA
ATOM     32  C   UNL     1      -2.937  -0.389  -4.384  0.00  0.00    +0.000 A 
ATOM     33  C   UNL     1      -1.742  -0.764  -3.789  0.00  0.00    +0.000 A 
ENDBRANCH  21  24
ENDBRANCH  19  22
ENDBRANCH   1  19
TORSDOF 6
