REMARK  Name = 
REMARK  6 active torsions:
REMARK  status: ('A' for Active; 'I' for Inactive)
REMARK    1  A    between atoms: C_1  and  O_2
REMARK    2  A    between atoms: O_2  and  C_3
REMARK    3  A    between atoms: C_4  and  C_5
REMARK    4  A    between atoms: N_7  and  C_8
REMARK    5  A    between atoms: C_8  and  C_9
REMARK    6  A    between atoms: C_12  and  C_13
REMARK                            x       y       z     vdW  Elec       q    Type
REMARK                         _______ _______ _______ _____ _____    ______ ____
ROOT
ATOM      1  C   UNL     1       4.374   1.349   3.105  0.00  0.00    +0.000 C 
ENDROOT
BRANCH   1   2
ATOM      2  C   UNL     1       3.465   2.540   3.259  0.00  0.00    +0.000 A 
ATOM      3  C   UNL     1       2.129   2.329   3.588  0.00  0.00    +0.000 A 
ATOM      4  C   UNL     1       1.272   3.410   3.765  0.00  0.00    +0.000 A 
ATOM      5  C   UNL     1       1.706   4.756   3.678  0.00  0.00    +0.000 A 
ATOM      6  C   UNL     1       3.034   4.957   3.282  0.00  0.00    +0.000 A 
ATOM      7  C   UNL     1       3.901   3.862   3.071  0.00  0.00    +0.000 A 
BRANCH   5   8
ATOM      8  C   UNL     1       0.755   5.837   4.055  0.00  0.00    +0.000 A 
ATOM      9  C   UNL     1      -0.237   5.524   5.003  0.00  0.00    +0.000 A 
ATOM     10  C   UNL     1      -1.332   6.342   5.217  0.00  0.00    +0.000 A 
ATOM     11  C   UNL     1      -1.358   7.606   4.647  0.00  0.00    +0.000 A 
ATOM     12  C   UNL     1      -2.462   8.425   4.847  0.00  0.00    +0.000 A 
ATOM     13  C   UNL     1      -2.287   9.789   4.950  0.00  0.00    +0.000 A 
ATOM     14  C   UNL     1      -1.138  10.333   4.399  0.00  0.00    +0.000 A 
ATOM     15  C   UNL     1      -0.192   9.498   3.776  0.00  0.00    +0.000 A 
ATOM     16  C   UNL     1      -0.239   8.097   3.963  0.00  0.00    +0.000 A 
ATOM     17  C   UNL     1       0.757   7.159   3.559  0.00  0.00    +0.000 A 
ENDBRANCH   5   8
ENDBRANCH   1   2
BRANCH   1  20
ATOM     18  C   UNL     1       4.581  -0.532   1.524  0.00  0.00    +0.000 C 
ATOM     19  O   UNL     1       4.923  -1.316   2.399  0.00  0.00    +0.000 OA
ATOM     20  N   UNL     1       4.280   0.794   1.776  0.00  0.00    +0.000 N 
ATOM     21  H   UNL     1       3.913   1.389   1.052  0.00  0.00    +0.000 HD
BRANCH  18  23
ATOM     22  C   UNL     1       4.276  -2.174  -0.336  0.00  0.00    +0.000 A 
ATOM     23  C   UNL     1       4.508  -0.908   0.057  0.00  0.00    +0.000 A 
ATOM     24  N   UNL     1       4.724   0.099  -0.856  0.00  0.00    +0.000 N 
ATOM     25  C   UNL     1       4.714  -0.088  -2.210  0.00  0.00    +0.000 A 
ATOM     26  O   UNL     1       4.912   0.846  -2.931  0.00  0.00    +0.000 OA
ATOM     27  N   UNL     1       4.500  -1.340  -2.636  0.00  0.00    +0.000 N 
ATOM     28  C   UNL     1       4.235  -2.414  -1.824  0.00  0.00    +0.000 A 
ATOM     29  O   UNL     1       3.988  -3.489  -2.326  0.00  0.00    +0.000 OA
ATOM     30  H   UNL     1       4.962   1.034  -0.543  0.00  0.00    +0.000 HD
ATOM     31  H   UNL     1       4.466  -1.498  -3.625  0.00  0.00    +0.000 HD
BRANCH  22  33
ATOM     32  C   UNL     1       4.505  -4.475   0.233  0.00  0.00    +0.000 C 
ATOM     33  O   UNL     1       4.014  -3.184   0.576  0.00  0.00    +0.000 OA
ENDBRANCH  22  33
ENDBRANCH  18  23
ENDBRANCH   1  20
TORSDOF 5
