REMARK  Name = 
REMARK  4 active torsions:
REMARK  status: ('A' for Active; 'I' for Inactive)
REMARK    1  A    between atoms: C_2  and  C_16
REMARK    2  A    between atoms: N_3  and  C_4
REMARK    3  A    between atoms: C_7  and  C_8
REMARK    4  A    between atoms: N_22  and  C_23
REMARK                            x       y       z     vdW  Elec       q    Type
REMARK                         _______ _______ _______ _____ _____    ______ ____
ROOT
ATOM      1  O   UNL     1       0.953  -0.407   0.021  0.00  0.00    +0.000 OA
ATOM      2  C   UNL     1       2.141  -0.184  -0.200  0.00  0.00    +0.000 C 
ATOM      3  N   UNL     1       2.656   0.880  -0.928  0.00  0.00    +0.000 N 
ATOM      4  H   UNL     1       3.661   0.992  -0.947  0.00  0.00    +0.000 HD
ENDROOT
BRANCH   2   5
ATOM      5  C   UNL     1       3.147  -1.142   0.340  0.00  0.00    +0.000 A 
ATOM      6  C   UNL     1       4.345  -1.371  -0.362  0.00  0.00    +0.000 A 
ATOM      7  C   UNL     1       5.278  -2.275   0.129  0.00  0.00    +0.000 A 
ATOM      8  C   UNL     1       4.970  -2.947   1.290  0.00  0.00    +0.000 A 
ATOM      9  N   UNL     1       3.824  -2.762   1.974  0.00  0.00    +0.000 NA
ATOM     10  C   UNL     1       2.905  -1.869   1.521  0.00  0.00    +0.000 A 
ATOM     11  N   UNL     1       1.759  -1.627   2.311  0.00  0.00    +0.000 N 
ATOM     12  H   UNL     1       0.927  -1.477   1.734  0.00  0.00    +0.000 HD
BRANCH  11  13
ATOM     13  C   UNL     1       1.464  -2.077   3.619  0.00  0.00    +0.000 A 
ATOM     14  C   UNL     1       2.460  -2.401   4.552  0.00  0.00    +0.000 A 
ATOM     15  C   UNL     1       2.144  -2.790   5.859  0.00  0.00    +0.000 A 
ATOM     16  C   UNL     1       0.816  -2.845   6.270  0.00  0.00    +0.000 A 
ATOM     17  C   UNL     1      -0.194  -2.515   5.370  0.00  0.00    +0.000 A 
ATOM     18  C   UNL     1       0.134  -2.134   4.066  0.00  0.00    +0.000 A 
ATOM     19  F   UNL     1      -0.863  -1.821   3.222  0.00  0.00    +0.000 F 
ENDBRANCH  11  13
ENDBRANCH   2   5
BRANCH   3  20
ATOM     20  C   UNL     1       1.937   1.893  -1.601  0.00  0.00    +0.000 A 
ATOM     21  C   UNL     1       0.547   1.970  -1.631  0.00  0.00    +0.000 A 
ATOM     22  C   UNL     1      -0.096   3.030  -2.284  0.00  0.00    +0.000 A 
ATOM     23  C   UNL     1       0.635   4.032  -2.935  0.00  0.00    +0.000 A 
ATOM     24  C   UNL     1       2.031   3.935  -2.931  0.00  0.00    +0.000 A 
ATOM     25  C   UNL     1       2.675   2.877  -2.272  0.00  0.00    +0.000 A 
BRANCH  23  26
ATOM     26  C   UNL     1      -0.052   5.130  -3.615  0.00  0.00    +0.000 A 
ATOM     27  C   UNL     1      -1.229   5.707  -3.311  0.00  0.00    +0.000 A 
ATOM     28  N   UNL     1      -1.494   6.686  -4.236  0.00  0.00    +0.000 N 
ATOM     29  C   UNL     1      -0.451   6.735  -5.166  0.00  0.00    +0.000 A 
ATOM     30  O   UNL     1      -0.348   7.465  -6.133  0.00  0.00    +0.000 OA
ATOM     31  N   UNL     1       0.445   5.750  -4.738  0.00  0.00    +0.000 N 
ATOM     32  H   UNL     1      -2.308   7.280  -4.280  0.00  0.00    +0.000 HD
ATOM     33  H   UNL     1       1.292   5.522  -5.231  0.00  0.00    +0.000 HD
ENDBRANCH  23  26
ENDBRANCH   3  20
TORSDOF 4
