REMARK  Name = 
REMARK  7 active torsions:
REMARK  status: ('A' for Active; 'I' for Inactive)
REMARK    1  A    between atoms: N_1  and  C_2
REMARK    2  A    between atoms: C_2  and  C_3
REMARK    3  A    between atoms: C_3  and  N_4
REMARK    4  A    between atoms: C_3  and  C_24
REMARK    5  A    between atoms: C_5  and  C_7
REMARK    6  A    between atoms: N_9  and  C_10
REMARK    7  A    between atoms: C_17  and  C_18
REMARK                            x       y       z     vdW  Elec       q    Type
REMARK                         _______ _______ _______ _____ _____    ______ ____
ROOT
ATOM      1  C   UNL     1       0.626   3.427   2.030  0.00  0.00    +0.000 A 
ATOM      2  C   UNL     1       1.033   4.665   2.493  0.00  0.00    +0.000 A 
ATOM      3  N   UNL     1       0.234   4.990   3.562  0.00  0.00    +0.000 N 
ATOM      4  N   UNL     1      -0.583   3.963   3.894  0.00  0.00    +0.000 NA
ATOM      5  C   UNL     1      -0.405   3.032   2.939  0.00  0.00    +0.000 A 
ENDROOT
BRANCH   5   6
ATOM      6  C   UNL     1      -1.261   1.838   2.912  0.00  0.00    +0.000 A 
ATOM      7  C   UNL     1      -1.657   1.258   1.704  0.00  0.00    +0.000 A 
ATOM      8  C   UNL     1      -2.456   0.126   1.734  0.00  0.00    +0.000 A 
ATOM      9  N   UNL     1      -2.913  -0.439   2.868  0.00  0.00    +0.000 NA
ATOM     10  C   UNL     1      -2.546   0.152   4.025  0.00  0.00    +0.000 A 
ATOM     11  C   UNL     1      -1.733   1.273   4.099  0.00  0.00    +0.000 A 
ENDBRANCH   5   6
BRANCH   3  12
ATOM     12  C   UNL     1       0.174   6.239   4.248  0.00  0.00    +0.000 A 
ATOM     13  C   UNL     1       0.942   7.334   3.824  0.00  0.00    +0.000 A 
ATOM     14  C   UNL     1       0.829   8.567   4.471  0.00  0.00    +0.000 A 
ATOM     15  C   UNL     1      -0.042   8.716   5.548  0.00  0.00    +0.000 A 
ATOM     16  C   UNL     1      -0.801   7.631   5.983  0.00  0.00    +0.000 A 
ATOM     17  C   UNL     1      -0.698   6.395   5.337  0.00  0.00    +0.000 A 
ENDBRANCH   3  12
BRANCH   1  19
ATOM     18  N   UNL     1       1.527   3.554  -0.168  0.00  0.00    +0.000 N 
ATOM     19  C   UNL     1       1.146   2.727   0.865  0.00  0.00    +0.000 C 
ATOM     20  O   UNL     1       1.165   1.503   0.775  0.00  0.00    +0.000 OA
ATOM     21  H   UNL     1       1.579   4.551  -0.018  0.00  0.00    +0.000 HD
BRANCH  18  22
ATOM     22  C   UNL     1       2.005   3.030  -1.437  0.00  0.00    +0.000 C 
BRANCH  22  23
ATOM     23  C   UNL     1       1.501   3.890  -2.581  0.00  0.00    +0.000 A 
ATOM     24  C   UNL     1       0.563   3.372  -3.491  0.00  0.00    +0.000 A 
ATOM     25  C   UNL     1       0.084   4.155  -4.546  0.00  0.00    +0.000 A 
ATOM     26  C   UNL     1       0.531   5.465  -4.706  0.00  0.00    +0.000 A 
ATOM     27  C   UNL     1       1.453   5.996  -3.807  0.00  0.00    +0.000 A 
ATOM     28  C   UNL     1       1.925   5.212  -2.757  0.00  0.00    +0.000 A 
ATOM     29  F   UNL     1       2.788   5.759  -1.889  0.00  0.00    +0.000 F 
ENDBRANCH  22  23
BRANCH  22  30
ATOM     30  C   UNL     1       3.550   2.842  -1.460  0.00  0.00    +0.000 C 
BRANCH  30  31
ATOM     31  N   UNL     1       4.059   1.955  -0.407  0.00  0.00    +0.000 NA
ATOM     32  H   UNL     1       4.976   1.596  -0.665  0.00  0.00    +0.000 HD
ATOM     33  H   UNL     1       3.440   1.146  -0.301  0.00  0.00    +0.000 HD
ENDBRANCH  30  31
ENDBRANCH  22  30
ENDBRANCH  18  22
ENDBRANCH   1  19
TORSDOF 7
