REMARK  Name = 
REMARK  5 active torsions:
REMARK  status: ('A' for Active; 'I' for Inactive)
REMARK    1  A    between atoms: C_2  and  C_3
REMARK    2  A    between atoms: C_4  and  N_5
REMARK    3  A    between atoms: N_8  and  C_9
REMARK    4  A    between atoms: C_9  and  C_10
REMARK    5  A    between atoms: C_13  and  C_14
REMARK                            x       y       z     vdW  Elec       q    Type
REMARK                         _______ _______ _______ _____ _____    ______ ____
ROOT
ATOM      1  N   UNL     1      -1.386  -2.327  -0.263  0.00  0.00    +0.000 N 
ATOM      2  C   UNL     1      -2.688  -2.757  -0.149  0.00  0.00    +0.000 C 
ATOM      3  O   UNL     1      -3.664  -2.031  -0.026  0.00  0.00    +0.000 OA
ATOM      4  N   UNL     1      -2.847  -4.129  -0.177  0.00  0.00    +0.000 N 
ATOM      5  H   UNL     1      -0.687  -3.051  -0.200  0.00  0.00    +0.000 HD
ATOM      6  H   UNL     1      -2.159  -4.684   0.311  0.00  0.00    +0.000 HD
ENDROOT
BRANCH   1   8
ATOM      7  C   UNL     1      -1.735   0.147  -0.681  0.00  0.00    +0.000 A 
ATOM      8  C   UNL     1      -0.925  -0.956  -0.328  0.00  0.00    +0.000 A 
ATOM      9  C   UNL     1       0.473  -0.693  -0.034  0.00  0.00    +0.000 A 
ATOM     10  C   UNL     1       1.465  -1.643   0.349  0.00  0.00    +0.000 A 
ATOM     11  C   UNL     1       2.794  -1.269   0.606  0.00  0.00    +0.000 A 
ATOM     12  C   UNL     1       3.180   0.056   0.494  0.00  0.00    +0.000 A 
ATOM     13  C   UNL     1       2.230   1.004   0.139  0.00  0.00    +0.000 A 
ATOM     14  C   UNL     1       0.913   0.658  -0.111  0.00  0.00    +0.000 A 
ATOM     15  N   UNL     1       0.123   1.681  -0.417  0.00  0.00    +0.000 NA
ATOM     16  C   UNL     1      -1.162   1.410  -0.692  0.00  0.00    +0.000 A 
BRANCH   7  18
ATOM     17  N   UNL     1      -4.157   0.370  -1.560  0.00  0.00    +0.000 NA
ATOM     18  C   UNL     1      -3.087   0.168  -1.140  0.00  0.00    +0.000 C 
ENDBRANCH   7  18
ENDBRANCH   1   8
BRANCH   4  19
ATOM     19  C   UNL     1      -4.224  -4.596  -0.090  0.00  0.00    +0.000 C 
BRANCH  19  20
ATOM     20  C   UNL     1      -4.376  -6.092  -0.109  0.00  0.00    +0.000 A 
ATOM     21  C   UNL     1      -4.441  -6.821   1.087  0.00  0.00    +0.000 A 
ATOM     22  C   UNL     1      -4.658  -8.202   1.066  0.00  0.00    +0.000 A 
ATOM     23  C   UNL     1      -4.808  -8.875  -0.151  0.00  0.00    +0.000 A 
ATOM     24  C   UNL     1      -4.726  -8.155  -1.348  0.00  0.00    +0.000 A 
ATOM     25  C   UNL     1      -4.510  -6.774  -1.326  0.00  0.00    +0.000 A 
BRANCH  23  26
ATOM     26  C   UNL     1      -5.024 -10.329  -0.172  0.00  0.00    +0.000 A 
ATOM     27  C   UNL     1      -6.284 -10.800  -0.122  0.00  0.00    +0.000 A 
ATOM     28  N   UNL     1      -6.533 -12.151  -0.158  0.00  0.00    +0.000 N 
ATOM     29  C   UNL     1      -5.555 -13.111  -0.253  0.00  0.00    +0.000 A 
ATOM     30  O   UNL     1      -5.799 -14.310  -0.298  0.00  0.00    +0.000 OA
ATOM     31  C   UNL     1      -4.159 -12.606  -0.298  0.00  0.00    +0.000 A 
ATOM     32  C   UNL     1      -3.930 -11.285  -0.253  0.00  0.00    +0.000 A 
ATOM     33  H   UNL     1      -7.484 -12.495  -0.127  0.00  0.00    +0.000 HD
ENDBRANCH  23  26
ENDBRANCH  19  20
ENDBRANCH   4  19
TORSDOF 5
