REMARK  Name = 
REMARK  5 active torsions:
REMARK  status: ('A' for Active; 'I' for Inactive)
REMARK    1  A    between atoms: C_1  and  C_2
REMARK    2  A    between atoms: C_7  and  C_8
REMARK    3  A    between atoms: N_10  and  C_11
REMARK    4  A    between atoms: C_15  and  N_16
REMARK    5  A    between atoms: C_17  and  C_19
REMARK                            x       y       z     vdW  Elec       q    Type
REMARK                         _______ _______ _______ _____ _____    ______ ____
ROOT
ATOM      1  C   UNL     1       0.471  -3.783   0.248  0.00  0.00    +0.000 A 
ATOM      2  C   UNL     1       0.721  -4.782   1.195  0.00  0.00    +0.000 A 
ATOM      3  C   UNL     1      -0.052  -5.941   1.225  0.00  0.00    +0.000 A 
ATOM      4  C   UNL     1      -1.097  -6.112   0.312  0.00  0.00    +0.000 A 
ATOM      5  C   UNL     1      -1.389  -5.127  -0.634  0.00  0.00    +0.000 A 
ATOM      6  C   UNL     1      -0.597  -3.964  -0.661  0.00  0.00    +0.000 A 
ENDROOT
BRANCH   1   9
ATOM      7  C   UNL     1       2.453  -2.345   0.733  0.00  0.00    +0.000 C 
ATOM      8  O   UNL     1       3.064  -3.094   1.489  0.00  0.00    +0.000 OA
ATOM      9  N   UNL     1       1.229  -2.610   0.140  0.00  0.00    +0.000 N 
ATOM     10  H   UNL     1       0.893  -1.891  -0.498  0.00  0.00    +0.000 HD
BRANCH   7  17
ATOM     11  C   UNL     1       5.342  -1.512   1.320  0.00  0.00    +0.000 C 
ATOM     12  C   UNL     1       4.359  -0.637   0.611  0.00  0.00    +0.000 A 
ATOM     13  C   UNL     1       4.752   0.640   0.175  0.00  0.00    +0.000 A 
ATOM     14  C   UNL     1       3.830   1.430  -0.478  0.00  0.00    +0.000 A 
ATOM     15  N   UNL     1       2.563   1.029  -0.728  0.00  0.00    +0.000 NA
ATOM     16  N   UNL     1       2.170  -0.209  -0.328  0.00  0.00    +0.000 NA
ATOM     17  C   UNL     1       3.044  -1.012   0.338  0.00  0.00    +0.000 A 
ENDBRANCH   7  17
ENDBRANCH   1   9
BRANCH   5  18
ATOM     18  N   UNL     1      -2.424  -5.251  -1.592  0.00  0.00    +0.000 N 
ATOM     19  C   UNL     1      -3.441  -6.206  -1.581  0.00  0.00    +0.000 C 
ATOM     20  O   UNL     1      -3.687  -6.993  -0.689  0.00  0.00    +0.000 OA
ATOM     21  H   UNL     1      -2.428  -4.609  -2.375  0.00  0.00    +0.000 HD
BRANCH  19  22
ATOM     22  C   UNL     1      -4.243  -6.240  -2.858  0.00  0.00    +0.000 A 
ATOM     23  C   UNL     1      -5.249  -7.200  -2.956  0.00  0.00    +0.000 A 
ATOM     24  C   UNL     1      -5.644  -7.608  -4.232  0.00  0.00    +0.000 A 
ATOM     25  C   UNL     1      -6.506  -8.689  -4.401  0.00  0.00    +0.000 A 
ATOM     26  C   UNL     1      -6.348  -9.472  -5.530  0.00  0.00    +0.000 A 
ATOM     27  F   UNL     1      -6.793 -10.733  -5.521  0.00  0.00    +0.000 F 
ATOM     28  C   UNL     1      -5.671  -8.983  -6.640  0.00  0.00    +0.000 A 
ATOM     29  C   UNL     1      -5.133  -7.696  -6.597  0.00  0.00    +0.000 A 
ATOM     30  C   UNL     1      -5.016  -7.039  -5.357  0.00  0.00    +0.000 A 
ATOM     31  C   UNL     1      -4.217  -5.914  -5.136  0.00  0.00    +0.000 A 
ATOM     32  N   UNL     1      -3.796  -5.505  -3.924  0.00  0.00    +0.000 NA
ENDBRANCH  19  22
ENDBRANCH   5  18
TORSDOF 4
