REMARK  Name = 
REMARK  7 active torsions:
REMARK  status: ('A' for Active; 'I' for Inactive)
REMARK    1  A    between atoms: C_1  and  C_2
REMARK    2  A    between atoms: C_2  and  N_3
REMARK    3  A    between atoms: C_5  and  C_6
REMARK    4  A    between atoms: N_8  and  C_9
REMARK    5  A    between atoms: C_9  and  C_10
REMARK    6  A    between atoms: C_12  and  O_13
REMARK    7  A    between atoms: O_13  and  C_14
REMARK                            x       y       z     vdW  Elec       q    Type
REMARK                         _______ _______ _______ _____ _____    ______ ____
ROOT
ATOM      1  C   UNL     1       4.826   1.106   4.272  0.00  0.00    +0.000 C 
ATOM      2  O   UNL     1       4.895   1.833   5.252  0.00  0.00    +0.000 OA
ATOM      3  N   UNL     1       5.358  -0.162   4.205  0.00  0.00    +0.000 N 
ATOM      4  H   UNL     1       5.029  -0.769   3.461  0.00  0.00    +0.000 HD
ENDROOT
BRANCH   1   7
ATOM      5  N   UNL     1       2.616   1.057   1.309  0.00  0.00    +0.000 N 
ATOM      6  N   UNL     1       3.343   0.677   2.419  0.00  0.00    +0.000 NA
ATOM      7  C   UNL     1       4.085   1.568   3.014  0.00  0.00    +0.000 A 
ATOM      8  C   UNL     1       4.221   2.965   2.549  0.00  0.00    +0.000 A 
ATOM      9  C   UNL     1       5.036   3.921   3.168  0.00  0.00    +0.000 A 
ATOM     10  C   UNL     1       5.080   5.234   2.687  0.00  0.00    +0.000 A 
ATOM     11  C   UNL     1       4.320   5.600   1.579  0.00  0.00    +0.000 A 
ATOM     12  C   UNL     1       3.526   4.648   0.944  0.00  0.00    +0.000 A 
ATOM     13  C   UNL     1       3.482   3.332   1.429  0.00  0.00    +0.000 A 
ATOM     14  C   UNL     1       2.649   2.330   0.745  0.00  0.00    +0.000 A 
ATOM     15  O   UNL     1       2.034   2.651  -0.270  0.00  0.00    +0.000 OA
BRANCH   5  17
ATOM     16  C   UNL     1       2.523  -0.698  -0.420  0.00  0.00    +0.000 C 
ATOM     17  C   UNL     1       1.784   0.034   0.686  0.00  0.00    +0.000 C 
ENDBRANCH   5  17
ENDBRANCH   1   7
BRANCH   3  18
ATOM     18  C   UNL     1       6.046  -0.709   5.357  0.00  0.00    +0.000 C 
BRANCH  18  19
ATOM     19  C   UNL     1       6.941  -1.880   5.028  0.00  0.00    +0.000 A 
ATOM     20  C   UNL     1       6.470  -3.180   5.166  0.00  0.00    +0.000 A 
ATOM     21  C   UNL     1       7.310  -4.236   4.812  0.00  0.00    +0.000 A 
ATOM     22  C   UNL     1       8.616  -3.980   4.418  0.00  0.00    +0.000 A 
ATOM     23  C   UNL     1       9.012  -2.660   4.326  0.00  0.00    +0.000 A 
ATOM     24  N   UNL     1       8.199  -1.613   4.599  0.00  0.00    +0.000 NA
BRANCH  21  25
ATOM     25  O   UNL     1       6.931  -5.558   4.882  0.00  0.00    +0.000 OA
BRANCH  25  26
ATOM     26  C   UNL     1       5.663  -5.908   4.472  0.00  0.00    +0.000 A 
ATOM     27  C   UNL     1       5.096  -7.019   5.104  0.00  0.00    +0.000 A 
ATOM     28  C   UNL     1       3.814  -7.452   4.754  0.00  0.00    +0.000 A 
ATOM     29  C   UNL     1       3.096  -6.768   3.774  0.00  0.00    +0.000 A 
ATOM     30  C   UNL     1       3.676  -5.679   3.135  0.00  0.00    +0.000 A 
ATOM     31  F   UNL     1       2.984  -5.016   2.199  0.00  0.00    +0.000 F 
ATOM     32  C   UNL     1       4.962  -5.258   3.454  0.00  0.00    +0.000 A 
ENDBRANCH  25  26
ENDBRANCH  21  25
ENDBRANCH  18  19
ENDBRANCH   3  18
TORSDOF 6
