REMARK  Name = 
REMARK  6 active torsions:
REMARK  status: ('A' for Active; 'I' for Inactive)
REMARK    1  A    between atoms: C_1  and  N_2
REMARK    2  A    between atoms: C_3  and  C_5
REMARK    3  A    between atoms: C_8  and  C_9
REMARK    4  A    between atoms: N_11  and  C_12
REMARK    5  A    between atoms: N_16  and  C_17
REMARK    6  A    between atoms: C_17  and  C_18
REMARK                            x       y       z     vdW  Elec       q    Type
REMARK                         _______ _______ _______ _____ _____    ______ ____
ROOT
ATOM      1  C   UNL     1       8.893  -0.030  -0.833  0.00  0.00    +0.000 C 
ATOM      2  O   UNL     1       9.491   0.443  -1.784  0.00  0.00    +0.000 OA
ATOM      3  N   UNL     1       9.588  -0.638   0.275  0.00  0.00    +0.000 N 
ATOM      4  H   UNL     1       9.063  -1.119   0.993  0.00  0.00    +0.000 HD
ENDROOT
BRANCH   1   8
ATOM      5  C   UNL     1       4.599  -0.214  -0.926  0.00  0.00    +0.000 A 
ATOM      6  C   UNL     1       5.354  -0.277  -2.107  0.00  0.00    +0.000 A 
ATOM      7  C   UNL     1       6.751  -0.210  -2.059  0.00  0.00    +0.000 A 
ATOM      8  C   UNL     1       7.413  -0.092  -0.827  0.00  0.00    +0.000 A 
ATOM      9  C   UNL     1       6.673  -0.016   0.353  0.00  0.00    +0.000 A 
ATOM     10  C   UNL     1       5.277  -0.081   0.290  0.00  0.00    +0.000 A 
ATOM     11  F   UNL     1       4.608  -0.010   1.451  0.00  0.00    +0.000 F 
BRANCH   5  14
ATOM     12  C   UNL     1       0.957  -0.203   0.151  0.00  0.00    +0.000 C 
ATOM     13  N   UNL     1       2.397  -0.205   0.142  0.00  0.00    +0.000 N 
ATOM     14  C   UNL     1       3.112  -0.274  -1.033  0.00  0.00    +0.000 C 
ATOM     15  O   UNL     1       2.587  -0.375  -2.132  0.00  0.00    +0.000 OA
ATOM     16  H   UNL     1       2.878  -0.147   1.032  0.00  0.00    +0.000 HD
ENDBRANCH   5  14
ENDBRANCH   1   8
BRANCH   3  17
ATOM     17  C   UNL     1      10.982  -0.666   0.358  0.00  0.00    +0.000 A 
ATOM     18  C   UNL     1      11.880   0.099  -0.357  0.00  0.00    +0.000 A 
ATOM     19  C   UNL     1      13.152  -0.312   0.068  0.00  0.00    +0.000 A 
ATOM     20  N   UNL     1      13.090  -1.274   0.986  0.00  0.00    +0.000 NA
ATOM     21  N   UNL     1      11.763  -1.476   1.163  0.00  0.00    +0.000 N 
BRANCH  21  22
ATOM     22  C   UNL     1      11.345  -2.650   1.926  0.00  0.00    +0.000 C 
BRANCH  22  23
ATOM     23  C   UNL     1      11.192  -2.395   3.411  0.00  0.00    +0.000 A 
ATOM     24  C   UNL     1      12.333  -1.968   4.125  0.00  0.00    +0.000 A 
ATOM     25  C   UNL     1      12.318  -1.853   5.511  0.00  0.00    +0.000 A 
ATOM     26  C   UNL     1      11.168  -2.179   6.216  0.00  0.00    +0.000 A 
ATOM     27  C   UNL     1      10.007  -2.587   5.546  0.00  0.00    +0.000 A 
ATOM     28  C   UNL     1       8.861  -2.904   6.294  0.00  0.00    +0.000 A 
ATOM     29  C   UNL     1       7.680  -3.290   5.667  0.00  0.00    +0.000 A 
ATOM     30  C   UNL     1       7.634  -3.376   4.284  0.00  0.00    +0.000 A 
ATOM     31  C   UNL     1       8.775  -3.094   3.527  0.00  0.00    +0.000 A 
ATOM     32  C   UNL     1       9.993  -2.689   4.128  0.00  0.00    +0.000 A 
ENDBRANCH  22  23
ENDBRANCH  21  22
ENDBRANCH   3  17
TORSDOF 5
