REMARK  Name = 
REMARK  5 active torsions:
REMARK  status: ('A' for Active; 'I' for Inactive)
REMARK    1  A    between atoms: N_1  and  C_2
REMARK    2  A    between atoms: C_4  and  C_5
REMARK    3  A    between atoms: N_7  and  C_8
REMARK    4  A    between atoms: C_12  and  N_13
REMARK    5  A    between atoms: N_22  and  C_23
REMARK                            x       y       z     vdW  Elec       q    Type
REMARK                         _______ _______ _______ _____ _____    ______ ____
ROOT
ATOM      1  C   UNL     1       5.824   1.235  -0.114  0.00  0.00    +0.000 C 
ATOM      2  O   UNL     1       6.809   0.557  -0.389  0.00  0.00    +0.000 OA
ATOM      3  N   UNL     1       5.827   2.600   0.132  0.00  0.00    +0.000 N 
ATOM      4  H   UNL     1       4.940   2.963   0.474  0.00  0.00    +0.000 HD
ENDROOT
BRANCH   3   5
ATOM      5  C   UNL     1       6.957   3.443   0.106  0.00  0.00    +0.000 A 
ATOM      6  C   UNL     1       8.165   3.077  -0.488  0.00  0.00    +0.000 A 
ATOM      7  C   UNL     1       9.273   3.922  -0.441  0.00  0.00    +0.000 A 
ATOM      8  F   UNL     1      10.410   3.474  -0.992  0.00  0.00    +0.000 F 
ATOM      9  C   UNL     1       9.217   5.146   0.221  0.00  0.00    +0.000 A 
ATOM     10  C   UNL     1       8.001   5.523   0.792  0.00  0.00    +0.000 A 
ATOM     11  F   UNL     1       7.858   6.714   1.393  0.00  0.00    +0.000 F 
ATOM     12  C   UNL     1       6.872   4.698   0.715  0.00  0.00    +0.000 A 
BRANCH   9  13
ATOM     13  N   UNL     1      10.368   5.962   0.324  0.00  0.00    +0.000 N 
ATOM     14  C   UNL     1      11.452   5.992  -0.527  0.00  0.00    +0.000 A 
ATOM     15  C   UNL     1      12.321   6.920  -0.008  0.00  0.00    +0.000 A 
ATOM     16  N   UNL     1      11.823   7.457   1.144  0.00  0.00    +0.000 NA
ATOM     17  C   UNL     1      10.658   6.872   1.317  0.00  0.00    +0.000 A 
ENDBRANCH   9  13
ENDBRANCH   3   5
BRANCH   1  20
ATOM     18  C   UNL     1       2.933  -0.956   0.271  0.00  0.00    +0.000 A 
ATOM     19  C   UNL     1       4.270  -0.795   0.022  0.00  0.00    +0.000 A 
ATOM     20  C   UNL     1       4.507   0.600   0.058  0.00  0.00    +0.000 A 
ATOM     21  N   UNL     1       3.370   1.291   0.271  0.00  0.00    +0.000 NA
ATOM     22  N   UNL     1       2.427   0.326   0.500  0.00  0.00    +0.000 N 
BRANCH  22  23
ATOM     23  C   UNL     1       1.129   0.691   0.948  0.00  0.00    +0.000 A 
ATOM     24  C   UNL     1       0.581   1.920   0.550  0.00  0.00    +0.000 A 
ATOM     25  C   UNL     1      -0.698   2.280   0.979  0.00  0.00    +0.000 A 
ATOM     26  C   UNL     1      -1.403   1.433   1.828  0.00  0.00    +0.000 A 
ATOM     27  F   UNL     1      -2.620   1.790   2.253  0.00  0.00    +0.000 F 
ATOM     28  C   UNL     1      -0.859   0.226   2.253  0.00  0.00    +0.000 A 
ATOM     29  C   UNL     1       0.407  -0.153   1.806  0.00  0.00    +0.000 A 
ENDBRANCH  22  23
BRANCH  18  30
ATOM     30  N   UNL     1       2.208  -2.104   0.261  0.00  0.00    +0.000 N 
ATOM     31  H   UNL     1       2.623  -2.947  -0.133  0.00  0.00    +0.000 HD
ATOM     32  H   UNL     1       1.201  -2.075   0.108  0.00  0.00    +0.000 HD
ENDBRANCH  18  30
ENDBRANCH   1  20
TORSDOF 5
