REMARK  Name = 
REMARK  6 active torsions:
REMARK  status: ('A' for Active; 'I' for Inactive)
REMARK    1  A    between atoms: C_2  and  C_3
REMARK    2  A    between atoms: C_3  and  N_4
REMARK    3  A    between atoms: N_4  and  C_18
REMARK    4  A    between atoms: C_5  and  C_7
REMARK    5  A    between atoms: C_10  and  C_11
REMARK    6  A    between atoms: N_24  and  C_25
REMARK                            x       y       z     vdW  Elec       q    Type
REMARK                         _______ _______ _______ _____ _____    ______ ____
ROOT
ATOM      1  N   UNL     1       1.902  -2.197  -0.837  0.00  0.00    +0.000 N 
ATOM      2  C   UNL     1       0.545  -1.810  -0.943  0.00  0.00    +0.000 C 
ATOM      3  O   UNL     1       0.219  -0.675  -0.566  0.00  0.00    +0.000 OA
ENDROOT
BRANCH   2   4
ATOM      4  C   UNL     1      -0.430  -2.765  -1.464  0.00  0.00    +0.000 A 
ATOM      5  N   UNL     1      -1.538  -2.423  -2.094  0.00  0.00    +0.000 NA
ATOM      6  N   UNL     1      -2.174  -3.577  -2.511  0.00  0.00    +0.000 NA
ATOM      7  C   UNL     1      -1.456  -4.614  -2.128  0.00  0.00    +0.000 A 
ATOM      8  N   UNL     1      -0.394  -4.135  -1.399  0.00  0.00    +0.000 N 
ATOM      9  H   UNL     1       0.308  -4.694  -0.946  0.00  0.00    +0.000 HD
BRANCH   7  10
ATOM     10  C   UNL     1      -1.717  -6.035  -2.378  0.00  0.00    +0.000 A 
ATOM     11  C   UNL     1      -0.682  -6.985  -2.396  0.00  0.00    +0.000 A 
ATOM     12  C   UNL     1      -0.954  -8.338  -2.625  0.00  0.00    +0.000 A 
ATOM     13  C   UNL     1      -2.264  -8.760  -2.840  0.00  0.00    +0.000 A 
ATOM     14  C   UNL     1      -3.300  -7.829  -2.840  0.00  0.00    +0.000 A 
ATOM     15  C   UNL     1      -3.026  -6.475  -2.616  0.00  0.00    +0.000 A 
ENDBRANCH   7  10
ENDBRANCH   2   4
BRANCH   1  16
ATOM     16  C   UNL     1       2.447  -3.317  -1.513  0.00  0.00    +0.000 A 
ATOM     17  C   UNL     1       2.318  -3.453  -2.899  0.00  0.00    +0.000 A 
ATOM     18  C   UNL     1       2.837  -4.577  -3.540  0.00  0.00    +0.000 A 
ATOM     19  C   UNL     1       3.480  -5.570  -2.796  0.00  0.00    +0.000 A 
ATOM     20  C   UNL     1       3.609  -5.435  -1.415  0.00  0.00    +0.000 A 
ATOM     21  C   UNL     1       3.105  -4.303  -0.773  0.00  0.00    +0.000 A 
ENDBRANCH   1  16
BRANCH   1  22
ATOM     22  C   UNL     1       2.880  -1.154  -0.477  0.00  0.00    +0.000 C 
BRANCH  22  24
ATOM     23  O   UNL     1       3.832  -2.058   1.543  0.00  0.00    +0.000 OA
ATOM     24  C   UNL     1       3.248  -1.117   1.007  0.00  0.00    +0.000 C 
ATOM     25  N   UNL     1       2.830   0.034   1.663  0.00  0.00    +0.000 N 
ATOM     26  H   UNL     1       1.974   0.451   1.307  0.00  0.00    +0.000 HD
BRANCH  25  27
ATOM     27  C   UNL     1       3.139   0.277   3.019  0.00  0.00    +0.000 A 
ATOM     28  C   UNL     1       4.422   0.068   3.535  0.00  0.00    +0.000 A 
ATOM     29  C   UNL     1       4.671   0.246   4.899  0.00  0.00    +0.000 A 
ATOM     30  C   UNL     1       3.631   0.612   5.752  0.00  0.00    +0.000 A 
ATOM     31  C   UNL     1       2.361   0.858   5.233  0.00  0.00    +0.000 A 
ATOM     32  C   UNL     1       2.123   0.725   3.863  0.00  0.00    +0.000 A 
ENDBRANCH  25  27
ENDBRANCH  22  24
ENDBRANCH   1  22
TORSDOF 6
