REMARK  Name = 
REMARK  8 active torsions:
REMARK  status: ('A' for Active; 'I' for Inactive)
REMARK    1  A    between atoms: C_1  and  C_2
REMARK    2  A    between atoms: C_5  and  C_6
REMARK    3  A    between atoms: C_6  and  O_7
REMARK    4  A    between atoms: C_6  and  C_8
REMARK    5  A    between atoms: C_15  and  N_16
REMARK    6  A    between atoms: C_17  and  C_19
REMARK    7  A    between atoms: N_21  and  C_22
REMARK    8  A    between atoms: C_24  and  O_25
REMARK                            x       y       z     vdW  Elec       q    Type
REMARK                         _______ _______ _______ _____ _____    ______ ____
ROOT
ATOM      1  N   UNL     1       1.170  -2.309  -0.162  0.00  0.00    +0.000 N 
ATOM      2  C   UNL     1       0.646  -3.543  -0.532  0.00  0.00    +0.000 C 
ATOM      3  O   UNL     1      -0.485  -3.725  -0.973  0.00  0.00    +0.000 OA
ATOM      4  H   UNL     1       2.164  -2.252  -0.003  0.00  0.00    +0.000 HD
ENDROOT
BRANCH   1  11
ATOM      5  C   UNL     1       2.594   0.289   0.009  0.00  0.00    +0.000 C 
ATOM      6  C   UNL     1       1.098   0.144   0.045  0.00  0.00    +0.000 A 
ATOM      7  C   UNL     1       0.335   1.325   0.145  0.00  0.00    +0.000 A 
ATOM      8  C   UNL     1      -1.057   1.290   0.139  0.00  0.00    +0.000 A 
ATOM      9  C   UNL     1      -1.729   0.070   0.065  0.00  0.00    +0.000 A 
ATOM     10  C   UNL     1      -0.968  -1.109  -0.003  0.00  0.00    +0.000 A 
ATOM     11  C   UNL     1       0.434  -1.097  -0.047  0.00  0.00    +0.000 A 
BRANCH   9  12
ATOM     12  C   UNL     1      -3.241  -0.005  -0.033  0.00  0.00    +0.000 C 
BRANCH  12  13
ATOM     13  C   UNL     1      -3.742   0.077  -1.474  0.00  0.00    +0.000 A 
ATOM     14  C   UNL     1      -3.457  -0.934  -2.394  0.00  0.00    +0.000 A 
ATOM     15  C   UNL     1      -3.876  -0.781  -3.712  0.00  0.00    +0.000 A 
ATOM     16  C   UNL     1      -4.583   0.359  -4.075  0.00  0.00    +0.000 A 
ATOM     17  C   UNL     1      -4.853   1.302  -3.098  0.00  0.00    +0.000 A 
ATOM     18  N   UNL     1      -4.452   1.193  -1.812  0.00  0.00    +0.000 NA
ENDBRANCH  12  13
BRANCH  12  19
ATOM     19  O   UNL     1      -3.807   1.061   0.745  0.00  0.00    +0.000 OA
ATOM     20  H   UNL     1      -4.298   1.597   0.087  0.00  0.00    +0.000 HD
ENDBRANCH  12  19
ENDBRANCH   9  12
ENDBRANCH   1  11
BRANCH   2  21
ATOM     21  C   UNL     1       1.531  -4.689  -0.376  0.00  0.00    +0.000 A 
ATOM     22  C   UNL     1       2.865  -4.772  -0.030  0.00  0.00    +0.000 A 
ATOM     23  N   UNL     1       3.193  -6.116   0.044  0.00  0.00    +0.000 N 
ATOM     24  N   UNL     1       2.146  -6.897  -0.316  0.00  0.00    +0.000 NA
ATOM     25  C   UNL     1       1.153  -6.039  -0.545  0.00  0.00    +0.000 A 
BRANCH  23  26
ATOM     26  C   UNL     1       4.423  -6.697   0.467  0.00  0.00    +0.000 A 
ATOM     27  C   UNL     1       4.560  -8.095   0.488  0.00  0.00    +0.000 A 
ATOM     28  C   UNL     1       5.748  -8.662   0.946  0.00  0.00    +0.000 A 
ATOM     29  C   UNL     1       6.797  -7.865   1.387  0.00  0.00    +0.000 A 
ATOM     30  C   UNL     1       6.670  -6.478   1.355  0.00  0.00    +0.000 A 
ATOM     31  C   UNL     1       5.490  -5.892   0.892  0.00  0.00    +0.000 A 
BRANCH  28  32
ATOM     32  O   UNL     1       5.927 -10.014   0.980  0.00  0.00    +0.000 OA
ATOM     33  H   UNL     1       5.151 -10.440   0.581  0.00  0.00    +0.000 HD
ENDBRANCH  28  32
ENDBRANCH  23  26
ENDBRANCH   2  21
TORSDOF 7
