REMARK  Name = 
REMARK  9 active torsions:
REMARK  status: ('A' for Active; 'I' for Inactive)
REMARK    1  A    between atoms: C_1  and  O_2
REMARK    2  A    between atoms: O_2  and  C_3
REMARK    3  A    between atoms: C_7  and  C_8
REMARK    4  A    between atoms: C_8  and  C_9
REMARK    5  A    between atoms: C_9  and  N_10
REMARK    6  A    between atoms: C_9  and  C_27
REMARK    7  A    between atoms: N_13  and  C_14
REMARK    8  A    between atoms: C_14  and  C_15
REMARK    9  A    between atoms: C_15  and  N_16
REMARK                            x       y       z     vdW  Elec       q    Type
REMARK                         _______ _______ _______ _____ _____    ______ ____
ROOT
ATOM      1  N   UNL     1       7.371  -3.721   0.266  0.00  0.00    +0.000 N 
ATOM      2  C   UNL     1       6.901  -4.910  -0.219  0.00  0.00    +0.000 C 
ATOM      3  O   UNL     1       6.332  -5.761   0.463  0.00  0.00    +0.000 OA
ATOM      4  N   UNL     1       7.083  -5.027  -1.574  0.00  0.00    +0.000 N 
ATOM      5  H   UNL     1       7.921  -3.134  -0.335  0.00  0.00    +0.000 HD
ATOM      6  H   UNL     1       7.594  -4.309  -2.061  0.00  0.00    +0.000 HD
ENDROOT
BRANCH   1   7
ATOM      7  C   UNL     1       7.270  -3.354   1.681  0.00  0.00    +0.000 C 
BRANCH   7   8
ATOM      8  C   UNL     1       8.671  -3.148   2.243  0.00  0.00    +0.000 A 
ATOM      9  C   UNL     1       9.170  -4.038   3.208  0.00  0.00    +0.000 A 
ATOM     10  C   UNL     1      10.462  -3.891   3.714  0.00  0.00    +0.000 A 
ATOM     11  C   UNL     1      11.273  -2.850   3.264  0.00  0.00    +0.000 A 
ATOM     12  C   UNL     1      10.793  -1.959   2.305  0.00  0.00    +0.000 A 
ATOM     13  C   UNL     1       9.500  -2.106   1.798  0.00  0.00    +0.000 A 
ENDBRANCH   7   8
BRANCH   7  14
ATOM     14  C   UNL     1       6.363  -2.111   1.909  0.00  0.00    +0.000 C 
BRANCH  14  19
ATOM     15  C   UNL     1       3.047  -1.125   0.288  0.00  0.00    +0.000 A 
ATOM     16  C   UNL     1       2.424  -2.364   0.146  0.00  0.00    +0.000 A 
ATOM     17  C   UNL     1       3.015  -3.503   0.683  0.00  0.00    +0.000 A 
ATOM     18  C   UNL     1       4.249  -3.416   1.324  0.00  0.00    +0.000 A 
ATOM     19  C   UNL     1       4.950  -2.206   1.367  0.00  0.00    +0.000 A 
ATOM     20  C   UNL     1       4.310  -1.051   0.885  0.00  0.00    +0.000 A 
BRANCH  15  22
ATOM     21  C   UNL     1       1.115   0.097  -0.301  0.00  0.00    +0.000 C 
ATOM     22  O   UNL     1       2.533   0.064  -0.156  0.00  0.00    +0.000 OA
ENDBRANCH  15  22
ENDBRANCH  14  19
ENDBRANCH   7  14
ENDBRANCH   1   7
BRANCH   4  23
ATOM     23  C   UNL     1       6.602  -6.180  -2.328  0.00  0.00    +0.000 C 
BRANCH  23  24
ATOM     24  C   UNL     1       5.491  -5.786  -3.309  0.00  0.00    +0.000 C 
BRANCH  24  25
ATOM     25  N   UNL     1       4.807  -6.899  -4.005  0.00  0.00    +0.000 N 
ATOM     26  N   UNL     1       3.784  -6.406  -4.839  0.00  0.00    +0.000 NA
ATOM     27  C   UNL     1       2.585  -6.413  -4.338  0.00  0.00    +0.000 A 
ATOM     28  C   UNL     1       2.303  -6.887  -2.985  0.00  0.00    +0.000 A 
ATOM     29  C   UNL     1       1.251  -6.386  -2.228  0.00  0.00    +0.000 A 
ATOM     30  C   UNL     1       1.122  -6.809  -0.902  0.00  0.00    +0.000 A 
ATOM     31  C   UNL     1       1.999  -7.763  -0.370  0.00  0.00    +0.000 A 
ATOM     32  C   UNL     1       3.047  -8.264  -1.141  0.00  0.00    +0.000 A 
ATOM     33  C   UNL     1       3.215  -7.780  -2.436  0.00  0.00    +0.000 A 
ATOM     34  C   UNL     1       4.477  -7.984  -3.164  0.00  0.00    +0.000 A 
ATOM     35  O   UNL     1       5.232  -8.911  -2.894  0.00  0.00    +0.000 OA
ENDBRANCH  24  25
ENDBRANCH  23  24
ENDBRANCH   4  23
TORSDOF 8
