REMARK  Name = 
REMARK  6 active torsions:
REMARK  status: ('A' for Active; 'I' for Inactive)
REMARK    1  A    between atoms: C_2  and  C_19
REMARK    2  A    between atoms: N_3  and  C_4
REMARK    3  A    between atoms: C_4  and  C_5
REMARK    4  A    between atoms: C_8  and  O_9
REMARK    5  A    between atoms: O_9  and  C_10
REMARK    6  A    between atoms: C_21  and  O_22
REMARK                            x       y       z     vdW  Elec       q    Type
REMARK                         _______ _______ _______ _____ _____    ______ ____
ROOT
ATOM      1  O   UNL     1       1.261  -0.313  -0.066  0.00  0.00    +0.000 OA
ATOM      2  C   UNL     1       2.486  -0.310  -0.007  0.00  0.00    +0.000 C 
ATOM      3  N   UNL     1       3.172  -0.289   1.188  0.00  0.00    +0.000 N 
ATOM      4  H   UNL     1       4.153  -0.040   1.204  0.00  0.00    +0.000 HD
ENDROOT
BRANCH   2   5
ATOM      5  C   UNL     1       3.269  -0.241  -1.268  0.00  0.00    +0.000 A 
ATOM      6  C   UNL     1       2.706   0.580  -2.254  0.00  0.00    +0.000 A 
ATOM      7  C   UNL     1       3.354   0.663  -3.466  0.00  0.00    +0.000 A 
ATOM      8  N   UNL     1       4.482   0.007  -3.751  0.00  0.00    +0.000 NA
ATOM      9  C   UNL     1       5.005  -0.805  -2.814  0.00  0.00    +0.000 A 
ATOM     10  C   UNL     1       6.151  -1.527  -3.103  0.00  0.00    +0.000 A 
ATOM     11  N   UNL     1       6.787  -2.387  -2.266  0.00  0.00    +0.000 NA
ATOM     12  C   UNL     1       6.233  -2.553  -1.056  0.00  0.00    +0.000 A 
ATOM     13  C   UNL     1       5.082  -1.896  -0.651  0.00  0.00    +0.000 A 
ATOM     14  C   UNL     1       4.449  -0.982  -1.531  0.00  0.00    +0.000 A 
BRANCH   7  15
ATOM     15  O   UNL     1       2.871   1.440  -4.474  0.00  0.00    +0.000 OA
ATOM     16  H   UNL     1       2.014   1.802  -4.202  0.00  0.00    +0.000 HD
ENDBRANCH   7  15
ENDBRANCH   2   5
BRANCH   3  17
ATOM     17  C   UNL     1       2.418  -0.218   2.420  0.00  0.00    +0.000 C 
BRANCH  17  18
ATOM     18  C   UNL     1       3.305  -0.278   3.632  0.00  0.00    +0.000 A 
ATOM     19  C   UNL     1       3.579  -1.497   4.268  0.00  0.00    +0.000 A 
ATOM     20  C   UNL     1       4.357  -1.532   5.431  0.00  0.00    +0.000 A 
ATOM     21  C   UNL     1       4.878  -0.352   5.970  0.00  0.00    +0.000 A 
ATOM     22  C   UNL     1       4.676   0.847   5.285  0.00  0.00    +0.000 A 
ATOM     23  F   UNL     1       5.233   1.991   5.705  0.00  0.00    +0.000 F 
ATOM     24  C   UNL     1       3.879   0.893   4.143  0.00  0.00    +0.000 A 
BRANCH  21  25
ATOM     25  O   UNL     1       5.626  -0.501   7.114  0.00  0.00    +0.000 OA
BRANCH  25  26
ATOM     26  C   UNL     1       5.607   0.464   8.089  0.00  0.00    +0.000 A 
ATOM     27  C   UNL     1       4.540   1.310   8.381  0.00  0.00    +0.000 A 
ATOM     28  C   UNL     1       4.677   2.267   9.386  0.00  0.00    +0.000 A 
ATOM     29  C   UNL     1       5.862   2.306  10.104  0.00  0.00    +0.000 A 
ATOM     30  N   UNL     1       6.892   1.460   9.894  0.00  0.00    +0.000 NA
ATOM     31  C   UNL     1       6.738   0.560   8.893  0.00  0.00    +0.000 A 
ENDBRANCH  25  26
ENDBRANCH  21  25
ENDBRANCH  17  18
ENDBRANCH   3  17
TORSDOF 6
