REMARK  Name = 
REMARK  7 active torsions:
REMARK  status: ('A' for Active; 'I' for Inactive)
REMARK    1  A    between atoms: C_2  and  C_17
REMARK    2  A    between atoms: N_3  and  C_4
REMARK    3  A    between atoms: N_6  and  C_7
REMARK    4  A    between atoms: C_18  and  C_19
REMARK    5  A    between atoms: N_25  and  C_26
REMARK    6  A    between atoms: C_26  and  C_27
REMARK    7  A    between atoms: C_27  and  O_28
REMARK                            x       y       z     vdW  Elec       q    Type
REMARK                         _______ _______ _______ _____ _____    ______ ____
ROOT
ATOM      1  O   UNL     1       0.929  -0.007   0.385  0.00  0.00    +0.000 OA
ATOM      2  C   UNL     1       2.138   0.001   0.170  0.00  0.00    +0.000 C 
ATOM      3  N   UNL     1       2.780   0.840  -0.742  0.00  0.00    +0.000 N 
ATOM      4  H   UNL     1       3.737   0.606  -0.972  0.00  0.00    +0.000 HD
ENDROOT
BRANCH   3   5
ATOM      5  C   UNL     1       2.136   1.720  -1.577  0.00  0.00    +0.000 A 
ATOM      6  C   UNL     1       0.906   2.214  -1.336  0.00  0.00    +0.000 A 
ATOM      7  N   UNL     1       0.193   2.962  -2.258  0.00  0.00    +0.000 N 
ATOM      8  C   UNL     1       0.729   3.247  -3.524  0.00  0.00    +0.000 A 
ATOM      9  O   UNL     1       0.155   3.797  -4.463  0.00  0.00    +0.000 OA
ATOM     10  C   UNL     1       2.129   2.785  -3.751  0.00  0.00    +0.000 A 
ATOM     11  C   UNL     1       2.786   2.083  -2.815  0.00  0.00    +0.000 A 
BRANCH   7  12
ATOM     12  C   UNL     1      -1.173   3.301  -1.990  0.00  0.00    +0.000 A 
ATOM     13  C   UNL     1      -2.032   2.352  -1.411  0.00  0.00    +0.000 A 
ATOM     14  C   UNL     1      -3.379   2.648  -1.202  0.00  0.00    +0.000 A 
ATOM     15  C   UNL     1      -3.870   3.909  -1.531  0.00  0.00    +0.000 A 
ATOM     16  C   UNL     1      -3.017   4.872  -2.066  0.00  0.00    +0.000 A 
ATOM     17  C   UNL     1      -1.676   4.567  -2.307  0.00  0.00    +0.000 A 
ENDBRANCH   7  12
ENDBRANCH   3   5
BRANCH   2  18
ATOM     18  C   UNL     1       3.019  -0.968   0.796  0.00  0.00    +0.000 A 
ATOM     19  C   UNL     1       2.736  -2.299   1.116  0.00  0.00    +0.000 A 
ATOM     20  N   UNL     1       3.923  -2.784   1.640  0.00  0.00    +0.000 N 
ATOM     21  N   UNL     1       4.889  -1.840   1.762  0.00  0.00    +0.000 NA
ATOM     22  C   UNL     1       4.334  -0.746   1.252  0.00  0.00    +0.000 A 
BRANCH  19  23
ATOM     23  C   UNL     1       1.517  -3.112   0.900  0.00  0.00    +0.000 A 
ATOM     24  C   UNL     1       0.751  -2.954  -0.265  0.00  0.00    +0.000 A 
ATOM     25  C   UNL     1      -0.406  -3.708  -0.482  0.00  0.00    +0.000 A 
ATOM     26  C   UNL     1      -0.799  -4.668   0.444  0.00  0.00    +0.000 A 
ATOM     27  C   UNL     1      -0.051  -4.851   1.602  0.00  0.00    +0.000 A 
ATOM     28  C   UNL     1       1.079  -4.060   1.841  0.00  0.00    +0.000 A 
ENDBRANCH  19  23
BRANCH  20  29
ATOM     29  C   UNL     1       4.231  -4.149   2.043  0.00  0.00    +0.000 C 
BRANCH  29  30
ATOM     30  C   UNL     1       5.707  -4.533   1.888  0.00  0.00    +0.000 C 
BRANCH  30  31
ATOM     31  O   UNL     1       6.540  -3.803   2.775  0.00  0.00    +0.000 OA
ATOM     32  H   UNL     1       6.358  -2.855   2.576  0.00  0.00    +0.000 HD
ENDBRANCH  30  31
ENDBRANCH  29  30
ENDBRANCH  20  29
ENDBRANCH   2  18
TORSDOF 7
