REMARK  Name = 
REMARK  5 active torsions:
REMARK  status: ('A' for Active; 'I' for Inactive)
REMARK    1  A    between atoms: N_7  and  C_8
REMARK    2  A    between atoms: C_8  and  C_9
REMARK    3  A    between atoms: C_12  and  C_13
REMARK    4  A    between atoms: C_18  and  N_19
REMARK    5  A    between atoms: C_23  and  C_24
REMARK                            x       y       z     vdW  Elec       q    Type
REMARK                         _______ _______ _______ _____ _____    ______ ____
ROOT
ATOM      1  C   UNL     1      -3.321  -1.017   0.069  0.00  0.00    +0.000 A 
ATOM      2  C   UNL     1      -4.071  -0.710  -1.092  0.00  0.00    +0.000 A 
ATOM      3  C   UNL     1      -5.380  -0.226  -1.035  0.00  0.00    +0.000 A 
ATOM      4  C   UNL     1      -5.997  -0.045   0.193  0.00  0.00    +0.000 A 
ATOM      5  C   UNL     1      -5.304  -0.341   1.365  0.00  0.00    +0.000 A 
ATOM      6  C   UNL     1      -3.980  -0.825   1.323  0.00  0.00    +0.000 A 
ENDROOT
BRANCH   1  10
ATOM      7  C   UNL     1       0.862  -2.113  -0.252  0.00  0.00    +0.000 A 
ATOM      8  C   UNL     1       0.285  -1.225  -1.161  0.00  0.00    +0.000 A 
ATOM      9  C   UNL     1      -1.077  -0.916  -1.082  0.00  0.00    +0.000 A 
ATOM     10  C   UNL     1      -1.918  -1.503  -0.116  0.00  0.00    +0.000 A 
ATOM     11  C   UNL     1      -1.350  -2.517   0.674  0.00  0.00    +0.000 A 
ATOM     12  C   UNL     1       0.026  -2.784   0.644  0.00  0.00    +0.000 A 
BRANCH   7  13
ATOM     13  C   UNL     1       2.364  -2.271  -0.191  0.00  0.00    +0.000 C 
BRANCH  13  20
ATOM     14  O   UNL     1       3.288   0.259  -1.015  0.00  0.00    +0.000 OA
ATOM     15  C   UNL     1       3.413  -0.074   0.162  0.00  0.00    +0.000 A 
ATOM     16  C   UNL     1       4.083   0.863   1.111  0.00  0.00    +0.000 A 
ATOM     17  C   UNL     1       4.246   0.526   2.393  0.00  0.00    +0.000 A 
ATOM     18  C   UNL     1       3.739  -0.731   2.881  0.00  0.00    +0.000 A 
ATOM     19  C   UNL     1       3.141  -1.589   2.046  0.00  0.00    +0.000 A 
ATOM     20  N   UNL     1       2.995  -1.293   0.699  0.00  0.00    +0.000 N 
ENDBRANCH  13  20
ENDBRANCH   7  13
ENDBRANCH   1  10
BRANCH   6  21
ATOM     21  N   UNL     1      -3.316  -1.025   2.566  0.00  0.00    +0.000 N 
ATOM     22  N   UNL     1      -2.037  -0.612   2.736  0.00  0.00    +0.000 NA
ATOM     23  N   UNL     1      -1.684  -0.948   3.962  0.00  0.00    +0.000 NA
ATOM     24  N   UNL     1      -2.726  -1.516   4.625  0.00  0.00    +0.000 NA
ATOM     25  C   UNL     1      -3.745  -1.541   3.779  0.00  0.00    +0.000 A 
BRANCH  25  26
ATOM     26  C   UNL     1      -5.069  -2.106   4.070  0.00  0.00    +0.000 C 
ATOM     27  F   UNL     1      -5.801  -2.433   2.976  0.00  0.00    +0.000 F 
ATOM     28  F   UNL     1      -4.984  -3.247   4.805  0.00  0.00    +0.000 F 
ATOM     29  F   UNL     1      -5.826  -1.239   4.795  0.00  0.00    +0.000 F 
ENDBRANCH  25  26
ENDBRANCH   6  21
TORSDOF 5
