REMARK  Name = 
REMARK  6 active torsions:
REMARK  status: ('A' for Active; 'I' for Inactive)
REMARK    1  A    between atoms: C_1  and  C_2
REMARK    2  A    between atoms: C_5  and  N_6
REMARK    3  A    between atoms: C_8  and  C_9
REMARK    4  A    between atoms: N_11  and  C_12
REMARK    5  A    between atoms: N_14  and  C_15
REMARK    6  A    between atoms: C_29  and  C_30
REMARK                            x       y       z     vdW  Elec       q    Type
REMARK                         _______ _______ _______ _____ _____    ______ ____
ROOT
ATOM      1  C   UNL     1      -6.409  -2.387  -1.359  0.00  0.00    +0.000 C 
ATOM      2  O   UNL     1      -6.903  -3.516  -1.202  0.00  0.00    +0.000 OA
ATOM      3  N   UNL     1      -6.944  -1.427  -2.196  0.00  0.00    +0.000 N 
ATOM      4  H   UNL     1      -6.366  -0.632  -2.427  0.00  0.00    +0.000 HD
ENDROOT
BRANCH   1   7
ATOM      5  N   UNL     1      -3.080  -1.424  -0.121  0.00  0.00    +0.000 N 
ATOM      6  N   UNL     1      -4.185  -1.106  -0.959  0.00  0.00    +0.000 N 
ATOM      7  C   UNL     1      -5.128  -2.090  -0.666  0.00  0.00    +0.000 A 
ATOM      8  C   UNL     1      -4.766  -2.894   0.345  0.00  0.00    +0.000 A 
ATOM      9  C   UNL     1      -3.414  -2.476   0.722  0.00  0.00    +0.000 A 
ATOM     10  O   UNL     1      -2.784  -3.008   1.628  0.00  0.00    +0.000 OA
ATOM     11  H   UNL     1      -3.919  -1.081  -1.942  0.00  0.00    +0.000 HD
BRANCH   5  16
ATOM     12  C   UNL     1       1.844   1.494  -0.251  0.00  0.00    +0.000 C 
ATOM     13  C   UNL     1       0.538   0.745  -0.227  0.00  0.00    +0.000 A 
ATOM     14  C   UNL     1       0.480  -0.517   0.376  0.00  0.00    +0.000 A 
ATOM     15  C   UNL     1      -0.723  -1.222   0.442  0.00  0.00    +0.000 A 
ATOM     16  C   UNL     1      -1.879  -0.699  -0.143  0.00  0.00    +0.000 A 
ATOM     17  C   UNL     1      -1.815   0.548  -0.771  0.00  0.00    +0.000 A 
ATOM     18  C   UNL     1      -0.627   1.295  -0.796  0.00  0.00    +0.000 A 
ATOM     19  C   UNL     1      -0.629   2.662  -1.423  0.00  0.00    +0.000 C 
ENDBRANCH   5  16
ENDBRANCH   1   7
BRANCH   3  20
ATOM     20  C   UNL     1      -8.095  -1.642  -2.943  0.00  0.00    +0.000 A 
ATOM     21  C   UNL     1      -9.071  -2.491  -2.574  0.00  0.00    +0.000 A 
ATOM     22  N   UNL     1     -10.133  -2.845  -3.400  0.00  0.00    +0.000 N 
ATOM     23  C   UNL     1     -10.220  -2.354  -4.714  0.00  0.00    +0.000 A 
ATOM     24  O   UNL     1     -11.037  -2.686  -5.573  0.00  0.00    +0.000 OA
ATOM     25  C   UNL     1      -9.192  -1.333  -5.082  0.00  0.00    +0.000 A 
ATOM     26  C   UNL     1      -8.214  -0.990  -4.231  0.00  0.00    +0.000 A 
BRANCH  22  27
ATOM     27  C   UNL     1     -11.047  -3.864  -2.990  0.00  0.00    +0.000 A 
ATOM     28  C   UNL     1     -10.565  -5.081  -2.486  0.00  0.00    +0.000 A 
ATOM     29  C   UNL     1     -11.447  -6.120  -2.180  0.00  0.00    +0.000 A 
ATOM     30  C   UNL     1     -12.818  -5.940  -2.349  0.00  0.00    +0.000 A 
ATOM     31  C   UNL     1     -13.309  -4.718  -2.808  0.00  0.00    +0.000 A 
ATOM     32  C   UNL     1     -12.428  -3.682  -3.127  0.00  0.00    +0.000 A 
ENDBRANCH  22  27
ENDBRANCH   3  20
TORSDOF 4
