REMARK  Name = 
REMARK  9 active torsions:
REMARK  status: ('A' for Active; 'I' for Inactive)
REMARK    1  A    between atoms: C_1  and  O_2
REMARK    2  A    between atoms: O_2  and  C_3
REMARK    3  A    between atoms: C_6  and  N_7
REMARK    4  A    between atoms: C_8  and  C_10
REMARK    5  A    between atoms: C_10  and  C_11
REMARK    6  A    between atoms: C_10  and  N_12
REMARK    7  A    between atoms: C_13  and  C_15
REMARK    8  A    between atoms: C_18  and  C_19
REMARK    9  A    between atoms: C_24  and  C_25
REMARK                            x       y       z     vdW  Elec       q    Type
REMARK                         _______ _______ _______ _____ _____    ______ ____
ROOT
ATOM      1  N   UNL     1       4.512   7.975  -3.290  0.00  0.00    +0.000 N 
ATOM      2  C   UNL     1       5.016   9.153  -3.774  0.00  0.00    +0.000 C 
ATOM      3  O   UNL     1       6.027   9.208  -4.462  0.00  0.00    +0.000 OA
ATOM      4  H   UNL     1       3.652   7.955  -2.746  0.00  0.00    +0.000 HD
ENDROOT
BRANCH   2   5
ATOM      5  C   UNL     1       4.259  10.391  -3.444  0.00  0.00    +0.000 A 
ATOM      6  C   UNL     1       3.502  10.550  -2.280  0.00  0.00    +0.000 A 
ATOM      7  C   UNL     1       2.826  11.760  -2.038  0.00  0.00    +0.000 A 
ATOM      8  C   UNL     1       2.907  12.847  -2.932  0.00  0.00    +0.000 A 
ATOM      9  C   UNL     1       3.728  12.670  -4.061  0.00  0.00    +0.000 A 
ATOM     10  C   UNL     1       4.361  11.455  -4.336  0.00  0.00    +0.000 A 
BRANCH   8  11
ATOM     11  C   UNL     1       2.200  14.141  -2.683  0.00  0.00    +0.000 A 
ATOM     12  C   UNL     1       2.135  14.645  -1.361  0.00  0.00    +0.000 A 
ATOM     13  C   UNL     1       1.583  15.896  -1.065  0.00  0.00    +0.000 A 
ATOM     14  C   UNL     1       1.107  16.703  -2.087  0.00  0.00    +0.000 A 
ATOM     15  C   UNL     1       1.130  16.233  -3.397  0.00  0.00    +0.000 A 
ATOM     16  C   UNL     1       1.629  14.949  -3.705  0.00  0.00    +0.000 A 
BRANCH  16  17
ATOM     17  C   UNL     1       1.497  14.506  -5.090  0.00  0.00    +0.000 A 
ATOM     18  N   UNL     1       1.726  15.287  -6.164  0.00  0.00    +0.000 NA
ATOM     19  N   UNL     1       1.515  14.401  -7.148  0.00  0.00    +0.000 N 
ATOM     20  N   UNL     1       1.157  13.171  -6.768  0.00  0.00    +0.000 NA
ATOM     21  N   UNL     1       1.122  13.230  -5.445  0.00  0.00    +0.000 NA
ATOM     22  H   UNL     1       1.622  14.643  -8.129  0.00  0.00    +0.000 HD
ENDBRANCH  16  17
ENDBRANCH   8  11
ENDBRANCH   2   5
BRANCH   1  23
ATOM     23  C   UNL     1       5.139   6.666  -3.515  0.00  0.00    +0.000 C 
ATOM     24  C   UNL     1       5.078   6.257  -4.982  0.00  0.00    +0.000 C 
BRANCH  23  26
ATOM     25  N   UNL     1       4.808   4.373  -2.645  0.00  0.00    +0.000 N 
ATOM     26  C   UNL     1       4.365   5.688  -2.613  0.00  0.00    +0.000 C 
ATOM     27  O   UNL     1       3.430   6.111  -1.929  0.00  0.00    +0.000 OA
ATOM     28  H   UNL     1       5.616   4.165  -3.219  0.00  0.00    +0.000 HD
BRANCH  25  32
ATOM     29  C   UNL     1       3.094   1.028  -0.683  0.00  0.00    +0.000 A 
ATOM     30  C   UNL     1       2.550   2.293  -0.497  0.00  0.00    +0.000 A 
ATOM     31  C   UNL     1       3.112   3.405  -1.133  0.00  0.00    +0.000 A 
ATOM     32  C   UNL     1       4.228   3.277  -1.962  0.00  0.00    +0.000 A 
ATOM     33  C   UNL     1       4.777   2.008  -2.142  0.00  0.00    +0.000 A 
ATOM     34  C   UNL     1       4.215   0.891  -1.505  0.00  0.00    +0.000 A 
BRANCH  29  36
ATOM     35  C   UNL     1       1.452   0.008   0.688  0.00  0.00    +0.000 C 
ATOM     36  O   UNL     1       2.622  -0.124  -0.115  0.00  0.00    +0.000 OA
ENDBRANCH  29  36
ENDBRANCH  25  32
ENDBRANCH  23  26
ENDBRANCH   1  23
TORSDOF 7
