REMARK  Name = 
REMARK  8 active torsions:
REMARK  status: ('A' for Active; 'I' for Inactive)
REMARK    1  A    between atoms: C_1  and  C_2
REMARK    2  A    between atoms: C_4  and  C_5
REMARK    3  A    between atoms: C_5  and  N_6
REMARK    4  A    between atoms: C_7  and  C_9
REMARK    5  A    between atoms: N_11  and  C_12
REMARK    6  A    between atoms: C_12  and  C_13
REMARK    7  A    between atoms: C_23  and  O_24
REMARK    8  A    between atoms: O_24  and  C_25
REMARK                            x       y       z     vdW  Elec       q    Type
REMARK                         _______ _______ _______ _____ _____    ______ ____
ROOT
ATOM      1  C   UNL     1      -1.896   2.641   0.065  0.00  0.00    +0.000 C 
ENDROOT
BRANCH   1   5
ATOM      2  C   UNL     1       0.587  -1.081   2.392  0.00  0.00    +0.000 C 
ATOM      3  C   UNL     1       0.116  -0.461   1.105  0.00  0.00    +0.000 A 
ATOM      4  C   UNL     1      -0.621   0.742   1.162  0.00  0.00    +0.000 A 
ATOM      5  C   UNL     1      -1.136   1.343   0.002  0.00  0.00    +0.000 A 
ATOM      6  C   UNL     1      -0.944   0.705  -1.224  0.00  0.00    +0.000 A 
ATOM      7  C   UNL     1      -0.262  -0.509  -1.285  0.00  0.00    +0.000 A 
ATOM      8  C   UNL     1       0.329  -1.067  -0.143  0.00  0.00    +0.000 A 
BRANCH   8   9
ATOM      9  O   UNL     1       1.110  -2.216  -0.205  0.00  0.00    +0.000 OA
BRANCH   9  10
ATOM     10  C   UNL     1       1.782  -2.470  -1.390  0.00  0.00    +0.000 A 
ATOM     11  C   UNL     1       2.468  -1.469  -2.091  0.00  0.00    +0.000 A 
ATOM     12  C   UNL     1       2.972  -1.728  -3.366  0.00  0.00    +0.000 A 
ATOM     13  C   UNL     1       2.863  -3.008  -3.893  0.00  0.00    +0.000 A 
ATOM     14  F   UNL     1       3.318  -3.250  -5.131  0.00  0.00    +0.000 F 
ATOM     15  C   UNL     1       2.277  -4.037  -3.164  0.00  0.00    +0.000 A 
ATOM     16  C   UNL     1       1.734  -3.772  -1.903  0.00  0.00    +0.000 A 
ENDBRANCH   9  10
ENDBRANCH   8   9
ENDBRANCH   1   5
BRANCH   1  17
ATOM     17  N   UNL     1      -1.024   3.787   0.009  0.00  0.00    +0.000 N 
ATOM     18  C   UNL     1      -1.533   5.066  -0.020  0.00  0.00    +0.000 C 
ATOM     19  O   UNL     1      -2.736   5.311  -0.022  0.00  0.00    +0.000 OA
ATOM     20  H   UNL     1      -0.017   3.668   0.045  0.00  0.00    +0.000 HD
BRANCH  18  21
ATOM     21  C   UNL     1      -0.518   6.111  -0.035  0.00  0.00    +0.000 A 
ATOM     22  C   UNL     1      -0.715   7.474  -0.012  0.00  0.00    +0.000 A 
ATOM     23  N   UNL     1       0.548   7.994  -0.021  0.00  0.00    +0.000 N 
ATOM     24  N   UNL     1       1.474   7.017  -0.041  0.00  0.00    +0.000 NA
ATOM     25  N   UNL     1       0.835   5.857  -0.057  0.00  0.00    +0.000 NA
BRANCH  23  26
ATOM     26  C   UNL     1       0.950   9.386   0.077  0.00  0.00    +0.000 C 
BRANCH  26  27
ATOM     27  C   UNL     1       1.039  10.031  -1.274  0.00  0.00    +0.000 A 
ATOM     28  C   UNL     1      -0.038  10.728  -1.830  0.00  0.00    +0.000 A 
ATOM     29  C   UNL     1       0.074  11.267  -3.110  0.00  0.00    +0.000 A 
ATOM     30  C   UNL     1       1.267  11.096  -3.791  0.00  0.00    +0.000 A 
ATOM     31  N   UNL     1       2.334  10.447  -3.280  0.00  0.00    +0.000 NA
ATOM     32  C   UNL     1       2.195   9.923  -2.041  0.00  0.00    +0.000 A 
ENDBRANCH  26  27
ENDBRANCH  23  26
ENDBRANCH  18  21
ENDBRANCH   1  17
TORSDOF 7
