REMARK  Name = 
REMARK  5 active torsions:
REMARK  status: ('A' for Active; 'I' for Inactive)
REMARK    1  A    between atoms: C_1  and  C_2
REMARK    2  A    between atoms: C_8  and  N_9
REMARK    3  A    between atoms: C_10  and  C_12
REMARK    4  A    between atoms: C_15  and  O_16
REMARK    5  A    between atoms: O_16  and  C_17
REMARK                            x       y       z     vdW  Elec       q    Type
REMARK                         _______ _______ _______ _____ _____    ______ ____
ROOT
ATOM      1  N   UNL     1       6.809  -2.493   0.451  0.00  0.00    +0.000 N 
ATOM      2  C   UNL     1       7.585  -3.642   0.424  0.00  0.00    +0.000 C 
ATOM      3  O   UNL     1       7.163  -4.784   0.263  0.00  0.00    +0.000 OA
ATOM      4  H   UNL     1       7.216  -1.714   0.978  0.00  0.00    +0.000 HD
ENDROOT
BRANCH   1  12
ATOM      5  C   UNL     1       0.825  -1.213   1.784  0.00  0.00    +0.000 C 
ATOM      6  C   UNL     1       2.326  -1.071   1.870  0.00  0.00    +0.000 A 
ATOM      7  N   UNL     1       2.805  -0.337   2.826  0.00  0.00    +0.000 NA
ATOM      8  N   UNL     1       4.153  -0.227   2.933  0.00  0.00    +0.000 N 
ATOM      9  C   UNL     1       5.087  -0.858   2.146  0.00  0.00    +0.000 A 
ATOM     10  O   UNL     1       6.292  -0.699   2.329  0.00  0.00    +0.000 OA
ATOM     11  C   UNL     1       4.566  -1.711   1.062  0.00  0.00    +0.000 A 
ATOM     12  C   UNL     1       5.414  -2.486   0.252  0.00  0.00    +0.000 A 
ATOM     13  C   UNL     1       4.860  -3.253  -0.781  0.00  0.00    +0.000 A 
ATOM     14  C   UNL     1       3.482  -3.274  -0.990  0.00  0.00    +0.000 A 
ATOM     15  C   UNL     1       2.638  -2.563  -0.140  0.00  0.00    +0.000 A 
ATOM     16  C   UNL     1       3.181  -1.791   0.895  0.00  0.00    +0.000 A 
ATOM     17  H   UNL     1       4.498   0.354   3.690  0.00  0.00    +0.000 HD
ENDBRANCH   1  12
BRANCH   2  18
ATOM     18  C   UNL     1       9.038  -3.407   0.697  0.00  0.00    +0.000 A 
ATOM     19  C   UNL     1       9.872  -4.472   1.025  0.00  0.00    +0.000 A 
ATOM     20  C   UNL     1      11.215  -4.203   1.293  0.00  0.00    +0.000 A 
ATOM     21  C   UNL     1      11.679  -2.891   1.223  0.00  0.00    +0.000 A 
ATOM     22  C   UNL     1      10.783  -1.907   0.815  0.00  0.00    +0.000 A 
ATOM     23  N   UNL     1       9.468  -2.123   0.584  0.00  0.00    +0.000 NA
BRANCH  21  24
ATOM     24  O   UNL     1      13.002  -2.682   1.529  0.00  0.00    +0.000 OA
BRANCH  24  25
ATOM     25  C   UNL     1      13.378  -1.467   2.072  0.00  0.00    +0.000 A 
ATOM     26  C   UNL     1      12.597  -0.750   2.981  0.00  0.00    +0.000 A 
ATOM     27  C   UNL     1      13.013   0.509   3.413  0.00  0.00    +0.000 A 
ATOM     28  C   UNL     1      14.239   1.008   2.990  0.00  0.00    +0.000 A 
ATOM     29  F   UNL     1      14.633   2.221   3.397  0.00  0.00    +0.000 F 
ATOM     30  C   UNL     1      15.065   0.263   2.155  0.00  0.00    +0.000 A 
ATOM     31  C   UNL     1      14.633  -0.983   1.692  0.00  0.00    +0.000 A 
ENDBRANCH  24  25
ENDBRANCH  21  24
ENDBRANCH   2  18
TORSDOF 4
