REMARK  Name = 
REMARK  8 active torsions:
REMARK  status: ('A' for Active; 'I' for Inactive)
REMARK    1  A    between atoms: C_1  and  C_2
REMARK    2  A    between atoms: N_4  and  C_5
REMARK    3  A    between atoms: C_12  and  C_13
REMARK    4  A    between atoms: N_15  and  C_16
REMARK    5  A    between atoms: N_15  and  C_20
REMARK    6  A    between atoms: C_16  and  C_17
REMARK    7  A    between atoms: C_20  and  C_21
REMARK    8  A    between atoms: C_24  and  C_25
REMARK                            x       y       z     vdW  Elec       q    Type
REMARK                         _______ _______ _______ _____ _____    ______ ____
ROOT
ATOM      1  C   UNL     1       3.500   2.731   0.870  0.00  0.00    +0.000 C 
ATOM      2  O   UNL     1       3.480   1.517   1.092  0.00  0.00    +0.000 OA
ATOM      3  N   UNL     1       2.418   3.329   0.178  0.00  0.00    +0.000 N 
ENDROOT
BRANCH   1   9
ATOM      4  C   UNL     1       5.713   2.242   3.393  0.00  0.00    +0.000 C 
ATOM      5  C   UNL     1       5.628   3.262   2.325  0.00  0.00    +0.000 A 
ATOM      6  N   UNL     1       6.606   4.168   2.292  0.00  0.00    +0.000 NA
ATOM      7  N   UNL     1       6.198   5.026   1.339  0.00  0.00    +0.000 N 
ATOM      8  N   UNL     1       5.063   4.681   0.679  0.00  0.00    +0.000 NA
ATOM      9  C   UNL     1       4.678   3.538   1.292  0.00  0.00    +0.000 A 
BRANCH   7  10
ATOM     10  C   UNL     1       6.889   6.249   1.147  0.00  0.00    +0.000 A 
ATOM     11  C   UNL     1       8.104   6.458   1.827  0.00  0.00    +0.000 A 
ATOM     12  C   UNL     1       8.772   7.676   1.717  0.00  0.00    +0.000 A 
ATOM     13  C   UNL     1       8.226   8.693   0.940  0.00  0.00    +0.000 A 
ATOM     14  C   UNL     1       7.024   8.486   0.254  0.00  0.00    +0.000 A 
ATOM     15  C   UNL     1       6.357   7.261   0.342  0.00  0.00    +0.000 A 
ENDBRANCH   7  10
ENDBRANCH   1   9
BRANCH   3  16
ATOM     16  C   UNL     1       1.212   2.516  -0.101  0.00  0.00    +0.000 C 
BRANCH  16  17
ATOM     17  C   UNL     1       1.179   1.353  -1.107  0.00  0.00    +0.000 C 
ATOM     18  N   UNL     1       2.343   0.701  -1.391  0.00  0.00    +0.000 N 
ATOM     19  O   UNL     1       0.119   0.923  -1.562  0.00  0.00    +0.000 OA
ATOM     20  H   UNL     1       3.075   0.734  -0.694  0.00  0.00    +0.000 HD
ATOM     21  H   UNL     1       2.224  -0.171  -1.886  0.00  0.00    +0.000 HD
ENDBRANCH  16  17
ENDBRANCH   3  16
BRANCH   3  22
ATOM     22  C   UNL     1       2.174   4.782   0.208  0.00  0.00    +0.000 C 
BRANCH  22  23
ATOM     23  C   UNL     1       2.375   5.507  -1.107  0.00  0.00    +0.000 A 
ATOM     24  C   UNL     1       2.922   4.890  -2.232  0.00  0.00    +0.000 A 
ATOM     25  C   UNL     1       3.126   5.609  -3.414  0.00  0.00    +0.000 A 
ATOM     26  C   UNL     1       2.781   6.969  -3.537  0.00  0.00    +0.000 A 
ATOM     27  C   UNL     1       2.226   7.581  -2.404  0.00  0.00    +0.000 A 
ATOM     28  C   UNL     1       2.031   6.866  -1.208  0.00  0.00    +0.000 A 
BRANCH  26  29
ATOM     29  C   UNL     1       3.022   7.687  -4.815  0.00  0.00    +0.000 A 
ATOM     30  C   UNL     1       2.871   7.022  -6.049  0.00  0.00    +0.000 A 
ATOM     31  C   UNL     1       3.182   7.638  -7.263  0.00  0.00    +0.000 A 
ATOM     32  C   UNL     1       3.629   8.953  -7.277  0.00  0.00    +0.000 A 
ATOM     33  C   UNL     1       3.752   9.651  -6.078  0.00  0.00    +0.000 A 
ATOM     34  C   UNL     1       3.454   9.024  -4.860  0.00  0.00    +0.000 A 
ENDBRANCH  26  29
ENDBRANCH  22  23
ENDBRANCH   3  22
TORSDOF 7
