REMARK  Name = 
REMARK  6 active torsions:
REMARK  status: ('A' for Active; 'I' for Inactive)
REMARK    1  A    between atoms: C_2  and  C_3
REMARK    2  A    between atoms: C_3  and  C_4
REMARK    3  A    between atoms: N_10  and  C_11
REMARK    4  A    between atoms: C_14  and  C_15
REMARK    5  A    between atoms: N_17  and  C_18
REMARK    6  A    between atoms: C_18  and  C_19
REMARK                            x       y       z     vdW  Elec       q    Type
REMARK                         _______ _______ _______ _____ _____    ______ ____
ROOT
ATOM      1  C   UNL     1       4.702  -1.157  -0.259  0.00  0.00    +0.000 A 
ATOM      2  C   UNL     1       5.420  -0.479   0.729  0.00  0.00    +0.000 A 
ATOM      3  C   UNL     1       6.823  -0.571   0.799  0.00  0.00    +0.000 A 
ATOM      4  C   UNL     1       7.513  -1.353  -0.130  0.00  0.00    +0.000 A 
ATOM      5  C   UNL     1       6.791  -2.063  -1.096  0.00  0.00    +0.000 A 
ATOM      6  C   UNL     1       5.402  -1.971  -1.155  0.00  0.00    +0.000 A 
ENDROOT
BRANCH   4   7
ATOM      7  C   UNL     1       8.998  -1.562  -0.117  0.00  0.00    +0.000 C 
ATOM      8  O   UNL     1       9.457  -2.546  -0.673  0.00  0.00    +0.000 OA
ATOM      9  N   UNL     1       9.796  -0.571   0.413  0.00  0.00    +0.000 N 
ATOM     10  H   UNL     1       9.407   0.312   0.705  0.00  0.00    +0.000 HD
BRANCH   9  11
ATOM     11  C   UNL     1      11.226  -0.693   0.238  0.00  0.00    +0.000 C 
BRANCH  11  12
ATOM     12  C   UNL     1      11.909   0.396   0.983  0.00  0.00    +0.000 A 
ATOM     13  C   UNL     1      12.596   0.263   2.176  0.00  0.00    +0.000 A 
ATOM     14  N   UNL     1      13.117   1.485   2.490  0.00  0.00    +0.000 N 
ATOM     15  C   UNL     1      12.448   2.447   1.770  0.00  0.00    +0.000 A 
ATOM     16  C   UNL     1      12.287   3.816   1.994  0.00  0.00    +0.000 A 
ATOM     17  C   UNL     1      11.638   4.545   0.995  0.00  0.00    +0.000 A 
ATOM     18  C   UNL     1      11.289   3.939  -0.207  0.00  0.00    +0.000 A 
ATOM     19  F   UNL     1      10.755   4.686  -1.183  0.00  0.00    +0.000 F 
ATOM     20  C   UNL     1      11.431   2.565  -0.407  0.00  0.00    +0.000 A 
ATOM     21  C   UNL     1      11.921   1.792   0.657  0.00  0.00    +0.000 A 
ATOM     22  H   UNL     1      13.822   1.667   3.192  0.00  0.00    +0.000 HD
ENDBRANCH  11  12
ENDBRANCH   9  11
ENDBRANCH   4   7
BRANCH   1  25
ATOM     23  O   UNL     1       2.703   0.668   0.959  0.00  0.00    +0.000 OA
ATOM     24  C   UNL     1       2.402  -0.271   0.209  0.00  0.00    +0.000 C 
ATOM     25  N   UNL     1       3.298  -1.121  -0.417  0.00  0.00    +0.000 N 
ATOM     26  H   UNL     1       2.924  -1.735  -1.122  0.00  0.00    +0.000 HD
BRANCH  24  27
ATOM     27  C   UNL     1       0.943  -0.619  -0.082  0.00  0.00    +0.000 C 
BRANCH  27  28
ATOM     28  C   UNL     1       0.116   0.401  -0.822  0.00  0.00    +0.000 A 
ATOM     29  C   UNL     1       0.574   1.664  -1.220  0.00  0.00    +0.000 A 
ATOM     30  C   UNL     1      -0.294   2.530  -1.895  0.00  0.00    +0.000 A 
ATOM     31  C   UNL     1      -1.583   2.103  -2.155  0.00  0.00    +0.000 A 
ATOM     32  N   UNL     1      -2.065   0.903  -1.791  0.00  0.00    +0.000 NA
ATOM     33  C   UNL     1      -1.208   0.087  -1.132  0.00  0.00    +0.000 A 
ENDBRANCH  27  28
ENDBRANCH  24  27
ENDBRANCH   1  25
TORSDOF 6
