REMARK  Name = 
REMARK  8 active torsions:
REMARK  status: ('A' for Active; 'I' for Inactive)
REMARK    1  A    between atoms: C_2  and  C_20
REMARK    2  A    between atoms: N_3  and  C_4
REMARK    3  A    between atoms: C_4  and  C_5
REMARK    4  A    between atoms: C_4  and  C_8
REMARK    5  A    between atoms: C_5  and  C_6
REMARK    6  A    between atoms: C_6  and  O_7
REMARK    7  A    between atoms: C_11  and  C_12
REMARK    8  A    between atoms: C_28  and  O_29
REMARK                            x       y       z     vdW  Elec       q    Type
REMARK                         _______ _______ _______ _____ _____    ______ ____
ROOT
ATOM      1  C   UNL     1       2.322  -1.736  -1.813  0.00  0.00    +0.000 C 
ENDROOT
BRANCH   1   2
ATOM      2  C   UNL     1       3.339  -2.603  -2.558  0.00  0.00    +0.000 A 
ATOM      3  C   UNL     1       4.723  -2.479  -2.385  0.00  0.00    +0.000 A 
ATOM      4  C   UNL     1       5.619  -3.259  -3.130  0.00  0.00    +0.000 A 
ATOM      5  C   UNL     1       5.172  -4.198  -4.073  0.00  0.00    +0.000 A 
ATOM      6  C   UNL     1       3.783  -4.348  -4.207  0.00  0.00    +0.000 A 
ATOM      7  C   UNL     1       2.885  -3.573  -3.464  0.00  0.00    +0.000 A 
BRANCH   5   8
ATOM      8  C   UNL     1       6.118  -4.983  -4.902  0.00  0.00    +0.000 A 
ATOM      9  C   UNL     1       7.378  -5.378  -4.416  0.00  0.00    +0.000 A 
ATOM     10  C   UNL     1       8.271  -6.107  -5.209  0.00  0.00    +0.000 A 
ATOM     11  C   UNL     1       7.918  -6.471  -6.504  0.00  0.00    +0.000 A 
ATOM     12  C   UNL     1       6.678  -6.098  -7.011  0.00  0.00    +0.000 A 
ATOM     13  C   UNL     1       5.795  -5.356  -6.221  0.00  0.00    +0.000 A 
ENDBRANCH   5   8
ENDBRANCH   1   2
BRANCH   1  16
ATOM     14  O   UNL     1       2.913  -2.283   0.940  0.00  0.00    +0.000 OA
ATOM     15  C   UNL     1       3.252  -1.219   0.437  0.00  0.00    +0.000 C 
ATOM     16  N   UNL     1       2.952  -0.838  -0.855  0.00  0.00    +0.000 N 
ATOM     17  H   UNL     1       3.419   0.004  -1.185  0.00  0.00    +0.000 HD
BRANCH  15  18
ATOM     18  C   UNL     1       4.059  -0.221   1.211  0.00  0.00    +0.000 A 
ATOM     19  C   UNL     1       4.435  -0.502   2.518  0.00  0.00    +0.000 A 
ATOM     20  C   UNL     1       5.162   0.461   3.228  0.00  0.00    +0.000 A 
ATOM     21  C   UNL     1       5.559   0.234   4.553  0.00  0.00    +0.000 A 
ATOM     22  C   UNL     1       6.257   1.225   5.221  0.00  0.00    +0.000 A 
ATOM     23  N   UNL     1       6.580   2.410   4.667  0.00  0.00    +0.000 NA
ATOM     24  C   UNL     1       6.189   2.611   3.386  0.00  0.00    +0.000 A 
ATOM     25  C   UNL     1       5.487   1.680   2.601  0.00  0.00    +0.000 A 
ATOM     26  C   UNL     1       5.071   1.842   1.264  0.00  0.00    +0.000 A 
ATOM     27  N   UNL     1       4.373   0.928   0.561  0.00  0.00    +0.000 NA
BRANCH  26  28
ATOM     28  O   UNL     1       5.341   2.962   0.531  0.00  0.00    +0.000 OA
ATOM     29  H   UNL     1       5.997   3.507   0.988  0.00  0.00    +0.000 HD
ENDBRANCH  26  28
ENDBRANCH  15  18
ENDBRANCH   1  16
BRANCH   1  30
ATOM     30  C   UNL     1       1.469  -0.940  -2.822  0.00  0.00    +0.000 C 
BRANCH  30  31
ATOM     31  C   UNL     1       0.374  -0.108  -2.167  0.00  0.00    +0.000 C 
BRANCH  31  32
ATOM     32  O   UNL     1      -0.404   0.528  -3.177  0.00  0.00    +0.000 OA
ATOM     33  H   UNL     1       0.161   1.194  -3.606  0.00  0.00    +0.000 HD
ENDBRANCH  31  32
ENDBRANCH  30  31
ENDBRANCH   1  30
TORSDOF 8
