REMARK  Name = 
REMARK  7 active torsions:
REMARK  status: ('A' for Active; 'I' for Inactive)
REMARK    1  A    between atoms: C_2  and  C_3
REMARK    2  A    between atoms: N_5  and  C_6
REMARK    3  A    between atoms: C_6  and  C_7
REMARK    4  A    between atoms: C_7  and  N_8
REMARK    5  A    between atoms: C_9  and  C_11
REMARK    6  A    between atoms: C_14  and  C_15
REMARK    7  A    between atoms: C_16  and  C_17
REMARK                            x       y       z     vdW  Elec       q    Type
REMARK                         _______ _______ _______ _____ _____    ______ ____
ROOT
ATOM      1  C   UNL     1       9.307   6.080   0.001  0.00  0.00    +0.000 A 
ATOM      2  C   UNL     1      10.245   5.588  -0.913  0.00  0.00    +0.000 A 
ATOM      3  C   UNL     1      11.469   6.241  -1.099  0.00  0.00    +0.000 A 
ATOM      4  C   UNL     1      11.777   7.417  -0.401  0.00  0.00    +0.000 A 
ATOM      5  C   UNL     1      10.827   7.913   0.505  0.00  0.00    +0.000 A 
ATOM      6  C   UNL     1       9.598   7.253   0.705  0.00  0.00    +0.000 A 
ENDROOT
BRANCH   1   8
ATOM      7  N   UNL     1       7.429   5.349   1.396  0.00  0.00    +0.000 N 
ATOM      8  C   UNL     1       8.023   5.336   0.151  0.00  0.00    +0.000 C 
ATOM      9  O   UNL     1       7.559   4.707  -0.794  0.00  0.00    +0.000 OA
ATOM     10  H   UNL     1       7.898   5.788   2.177  0.00  0.00    +0.000 HD
BRANCH   7  11
ATOM     11  C   UNL     1       6.166   4.664   1.661  0.00  0.00    +0.000 C 
BRANCH  11  12
ATOM     12  C   UNL     1       6.171   3.146   1.461  0.00  0.00    +0.000 C 
BRANCH  12  15
ATOM     13  C   UNL     1       8.657   1.115   3.107  0.00  0.00    +0.000 A 
ATOM     14  C   UNL     1       8.128   1.635   1.945  0.00  0.00    +0.000 A 
ATOM     15  N   UNL     1       7.093   2.442   2.333  0.00  0.00    +0.000 N 
ATOM     16  N   UNL     1       6.913   2.467   3.669  0.00  0.00    +0.000 NA
ATOM     17  C   UNL     1       7.870   1.660   4.136  0.00  0.00    +0.000 A 
BRANCH  13  19
ATOM     18  N   UNL     1      10.645  -0.528   3.316  0.00  0.00    +0.000 NA
ATOM     19  C   UNL     1       9.749   0.211   3.219  0.00  0.00    +0.000 C 
ENDBRANCH  13  19
ENDBRANCH  12  15
ENDBRANCH  11  12
ENDBRANCH   7  11
ENDBRANCH   1   8
BRANCH   4  20
ATOM     20  C   UNL     1      13.114   8.016  -0.591  0.00  0.00    +0.000 C 
ATOM     21  C   UNL     1      13.420   9.322  -0.488  0.00  0.00    +0.000 C 
BRANCH  21  22
ATOM     22  C   UNL     1      14.783   9.874  -0.651  0.00  0.00    +0.000 A 
ATOM     23  C   UNL     1      15.006  11.228  -0.431  0.00  0.00    +0.000 A 
ATOM     24  C   UNL     1      16.299  11.728  -0.561  0.00  0.00    +0.000 A 
ATOM     25  C   UNL     1      17.328  10.884  -0.985  0.00  0.00    +0.000 A 
ATOM     26  C   UNL     1      18.624  11.374  -1.236  0.00  0.00    +0.000 A 
ATOM     27  C   UNL     1      19.607  10.532  -1.747  0.00  0.00    +0.000 A 
ATOM     28  C   UNL     1      19.314   9.189  -1.956  0.00  0.00    +0.000 A 
ATOM     29  C   UNL     1      18.036   8.698  -1.661  0.00  0.00    +0.000 A 
ATOM     30  C   UNL     1      17.018   9.525  -1.200  0.00  0.00    +0.000 A 
ATOM     31  N   UNL     1      15.778   9.027  -1.010  0.00  0.00    +0.000 NA
ENDBRANCH  21  22
ENDBRANCH   4  20
TORSDOF 7
