REMARK  Name = 
REMARK  6 active torsions:
REMARK  status: ('A' for Active; 'I' for Inactive)
REMARK    1  A    between atoms: C_1  and  N_2
REMARK    2  A    between atoms: C_9  and  N_10
REMARK    3  A    between atoms: C_11  and  C_13
REMARK    4  A    between atoms: C_16  and  O_17
REMARK    5  A    between atoms: O_17  and  C_18
REMARK    6  A    between atoms: C_18  and  C_19
REMARK                            x       y       z     vdW  Elec       q    Type
REMARK                         _______ _______ _______ _____ _____    ______ ____
ROOT
ATOM      1  N   UNL     1       5.151  -4.888  -0.075  0.00  0.00    +0.000 N 
ATOM      2  C   UNL     1       4.602  -6.149  -0.236  0.00  0.00    +0.000 C 
ATOM      3  O   UNL     1       3.442  -6.398  -0.546  0.00  0.00    +0.000 OA
ATOM      4  H   UNL     1       6.161  -4.811  -0.053  0.00  0.00    +0.000 HD
ENDROOT
BRANCH   1  13
ATOM      5  C   UNL     1       3.042   1.256  -0.801  0.00  0.00    +0.000 C 
ATOM      6  N   UNL     1       2.322   0.021  -0.492  0.00  0.00    +0.000 N 
ATOM      7  C   UNL     1       0.948   0.002  -0.331  0.00  0.00    +0.000 A 
ATOM      8  C   UNL     1       0.205  -1.081  -0.088  0.00  0.00    +0.000 A 
ATOM      9  C   UNL     1       0.888  -2.382   0.015  0.00  0.00    +0.000 A 
ATOM     10  O   UNL     1       0.237  -3.397   0.232  0.00  0.00    +0.000 OA
ATOM     11  C   UNL     1       2.364  -2.394  -0.144  0.00  0.00    +0.000 A 
ATOM     12  C   UNL     1       3.037  -3.619  -0.043  0.00  0.00    +0.000 A 
ATOM     13  C   UNL     1       4.423  -3.679  -0.155  0.00  0.00    +0.000 A 
ATOM     14  C   UNL     1       5.129  -2.487  -0.344  0.00  0.00    +0.000 A 
ATOM     15  C   UNL     1       4.450  -1.262  -0.471  0.00  0.00    +0.000 A 
ATOM     16  C   UNL     1       3.051  -1.186  -0.377  0.00  0.00    +0.000 A 
ENDBRANCH   1  13
BRANCH   2  17
ATOM     17  C   UNL     1       5.521  -7.299  -0.108  0.00  0.00    +0.000 A 
ATOM     18  C   UNL     1       6.630  -7.334   0.738  0.00  0.00    +0.000 A 
ATOM     19  C   UNL     1       7.407  -8.495   0.783  0.00  0.00    +0.000 A 
ATOM     20  C   UNL     1       7.061  -9.558  -0.040  0.00  0.00    +0.000 A 
ATOM     21  N   UNL     1       5.984  -9.554  -0.850  0.00  0.00    +0.000 NA
ATOM     22  C   UNL     1       5.228  -8.435  -0.853  0.00  0.00    +0.000 A 
BRANCH  20  23
ATOM     23  O   UNL     1       7.858 -10.680   0.005  0.00  0.00    +0.000 OA
BRANCH  23  24
ATOM     24  C   UNL     1       7.722 -11.465  -1.181  0.00  0.00    +0.000 C 
BRANCH  24  25
ATOM     25  C   UNL     1       8.561 -12.709  -1.033  0.00  0.00    +0.000 A 
ATOM     26  C   UNL     1       7.976 -13.901  -0.578  0.00  0.00    +0.000 A 
ATOM     27  C   UNL     1       8.745 -15.052  -0.431  0.00  0.00    +0.000 A 
ATOM     28  C   UNL     1      10.107 -15.024  -0.728  0.00  0.00    +0.000 A 
ATOM     29  C   UNL     1      10.699 -13.842  -1.173  0.00  0.00    +0.000 A 
ATOM     30  C   UNL     1       9.931 -12.688  -1.323  0.00  0.00    +0.000 A 
ENDBRANCH  24  25
ENDBRANCH  23  24
ENDBRANCH  20  23
ENDBRANCH   2  17
TORSDOF 5
