REMARK  Name = 
REMARK  8 active torsions:
REMARK  status: ('A' for Active; 'I' for Inactive)
REMARK    1  A    between atoms: C_1  and  N_2
REMARK    2  A    between atoms: N_2  and  C_3
REMARK    3  A    between atoms: C_3  and  C_4
REMARK    4  A    between atoms: C_8  and  N_9
REMARK    5  A    between atoms: N_9  and  S_10
REMARK    6  A    between atoms: S_10  and  C_13
REMARK    7  A    between atoms: C_20  and  C_22
REMARK    8  A    between atoms: C_26  and  C_27
REMARK                            x       y       z     vdW  Elec       q    Type
REMARK                         _______ _______ _______ _____ _____    ______ ____
ROOT
ATOM      1  C   UNL     1       3.166  -0.212   1.232  0.00  0.00    +0.000 C 
ENDROOT
BRANCH   1   2
ATOM      2  C   UNL     1       2.270  -0.515   2.403  0.00  0.00    +0.000 A 
ATOM      3  C   UNL     1       2.055  -1.845   2.798  0.00  0.00    +0.000 A 
ATOM      4  C   UNL     1       1.261  -2.132   3.910  0.00  0.00    +0.000 A 
ATOM      5  C   UNL     1       0.684  -1.088   4.636  0.00  0.00    +0.000 A 
ATOM      6  C   UNL     1       0.877   0.232   4.231  0.00  0.00    +0.000 A 
ATOM      7  C   UNL     1       1.662   0.524   3.118  0.00  0.00    +0.000 A 
BRANCH   6   8
ATOM      8  N   UNL     1       0.315   1.285   5.001  0.00  0.00    +0.000 N 
ATOM      9  H   UNL     1      -0.110   2.056   4.489  0.00  0.00    +0.000 HD
BRANCH   8  10
ATOM     10  S   UNL     1       1.160   1.827   6.363  0.00  0.00    +0.000 S 
ATOM     11  O   UNL     1       0.368   2.902   6.925  0.00  0.00    +0.000 OA
ATOM     12  O   UNL     1       1.567   0.696   7.167  0.00  0.00    +0.000 OA
BRANCH  10  13
ATOM     13  C   UNL     1       2.625   2.572   5.674  0.00  0.00    +0.000 A 
ATOM     14  C   UNL     1       2.605   3.926   5.319  0.00  0.00    +0.000 A 
ATOM     15  C   UNL     1       3.767   4.531   4.840  0.00  0.00    +0.000 A 
ATOM     16  C   UNL     1       4.944   3.792   4.725  0.00  0.00    +0.000 A 
ATOM     17  C   UNL     1       4.965   2.444   5.090  0.00  0.00    +0.000 A 
ATOM     18  C   UNL     1       3.808   1.830   5.573  0.00  0.00    +0.000 A 
ENDBRANCH  10  13
ENDBRANCH   8  10
ENDBRANCH   6   8
ENDBRANCH   1   2
BRANCH   1  20
ATOM     19  C   UNL     1       1.129  -0.365  -0.271  0.00  0.00    +0.000 C 
ATOM     20  N   UNL     1       2.564  -0.150  -0.103  0.00  0.00    +0.000 N 
ATOM     21  C   UNL     1       3.220   0.379  -1.230  0.00  0.00    +0.000 C 
ATOM     22  O   UNL     1       2.611   0.618  -2.275  0.00  0.00    +0.000 OA
BRANCH  21  23
ATOM     23  C   UNL     1       4.672   0.722  -1.212  0.00  0.00    +0.000 A 
ATOM     24  C   UNL     1       5.637  -0.041  -0.559  0.00  0.00    +0.000 A 
ATOM     25  C   UNL     1       6.947   0.401  -0.573  0.00  0.00    +0.000 A 
ATOM     26  N   UNL     1       7.360   1.492  -1.242  0.00  0.00    +0.000 NA
ATOM     27  C   UNL     1       6.431   2.176  -1.959  0.00  0.00    +0.000 A 
ATOM     28  C   UNL     1       5.085   1.830  -1.959  0.00  0.00    +0.000 A 
BRANCH  27  29
ATOM     29  C   UNL     1       6.933   3.306  -2.751  0.00  0.00    +0.000 A 
ATOM     30  N   UNL     1       6.150   4.038  -3.565  0.00  0.00    +0.000 NA
ATOM     31  N   UNL     1       6.978   4.944  -4.106  0.00  0.00    +0.000 N 
ATOM     32  C   UNL     1       8.262   4.846  -3.666  0.00  0.00    +0.000 A 
ATOM     33  C   UNL     1       8.272   3.788  -2.791  0.00  0.00    +0.000 A 
ATOM     34  H   UNL     1       6.594   5.606  -4.772  0.00  0.00    +0.000 HD
ENDBRANCH  27  29
ENDBRANCH  21  23
ENDBRANCH   1  20
TORSDOF 7
