REMARK  Name = 
REMARK  5 active torsions:
REMARK  status: ('A' for Active; 'I' for Inactive)
REMARK    1  A    between atoms: C_2  and  C_17
REMARK    2  A    between atoms: N_3  and  C_4
REMARK    3  A    between atoms: C_7  and  O_8
REMARK    4  A    between atoms: O_8  and  C_9
REMARK    5  A    between atoms: C_21  and  C_22
REMARK                            x       y       z     vdW  Elec       q    Type
REMARK                         _______ _______ _______ _____ _____    ______ ____
ROOT
ATOM      1  O   UNL     1       1.171   0.633   0.630  0.00  0.00    +0.000 OA
ATOM      2  C   UNL     1       2.275   0.251   0.266  0.00  0.00    +0.000 C 
ATOM      3  N   UNL     1       2.783   0.387  -1.014  0.00  0.00    +0.000 N 
ATOM      4  H   UNL     1       3.654  -0.088  -1.227  0.00  0.00    +0.000 HD
ENDROOT
BRANCH   2   5
ATOM      5  C   UNL     1       3.134  -0.467   1.237  0.00  0.00    +0.000 A 
ATOM      6  C   UNL     1       4.148  -1.335   0.835  0.00  0.00    +0.000 A 
ATOM      7  F   UNL     1       4.417  -1.524  -0.467  0.00  0.00    +0.000 F 
ATOM      8  C   UNL     1       4.915  -2.034   1.764  0.00  0.00    +0.000 A 
ATOM      9  C   UNL     1       4.678  -1.875   3.135  0.00  0.00    +0.000 A 
ATOM     10  C   UNL     1       3.664  -1.003   3.547  0.00  0.00    +0.000 A 
ATOM     11  C   UNL     1       2.905  -0.310   2.605  0.00  0.00    +0.000 A 
ATOM     12  F   UNL     1       1.968   0.529   3.066  0.00  0.00    +0.000 F 
BRANCH   9  13
ATOM     13  C   UNL     1       5.474  -2.598   4.113  0.00  0.00    +0.000 A 
ATOM     14  N   UNL     1       6.472  -3.442   3.804  0.00  0.00    +0.000 NA
ATOM     15  N   UNL     1       6.852  -3.817   5.034  0.00  0.00    +0.000 N 
ATOM     16  N   UNL     1       6.177  -3.271   6.047  0.00  0.00    +0.000 NA
ATOM     17  N   UNL     1       5.282  -2.482   5.469  0.00  0.00    +0.000 NA
ATOM     18  H   UNL     1       7.610  -4.476   5.191  0.00  0.00    +0.000 HD
ENDBRANCH   9  13
ENDBRANCH   2   5
BRANCH   3  19
ATOM     19  C   UNL     1       2.099   0.938  -2.114  0.00  0.00    +0.000 A 
ATOM     20  C   UNL     1       0.952   1.722  -2.015  0.00  0.00    +0.000 A 
ATOM     21  C   UNL     1       0.315   2.170  -3.171  0.00  0.00    +0.000 A 
ATOM     22  C   UNL     1       0.865   1.829  -4.394  0.00  0.00    +0.000 A 
ATOM     23  N   UNL     1       1.978   1.071  -4.529  0.00  0.00    +0.000 NA
ATOM     24  C   UNL     1       2.578   0.666  -3.392  0.00  0.00    +0.000 A 
BRANCH  22  25
ATOM     25  O   UNL     1       0.225   2.309  -5.529  0.00  0.00    +0.000 OA
BRANCH  25  26
ATOM     26  C   UNL     1       1.022   2.569  -6.622  0.00  0.00    +0.000 A 
ATOM     27  C   UNL     1       0.508   2.251  -7.878  0.00  0.00    +0.000 A 
ATOM     28  C   UNL     1       1.279   2.481  -9.019  0.00  0.00    +0.000 A 
ATOM     29  C   UNL     1       2.556   3.033  -8.903  0.00  0.00    +0.000 A 
ATOM     30  C   UNL     1       3.056   3.382  -7.650  0.00  0.00    +0.000 A 
ATOM     31  C   UNL     1       2.280   3.172  -6.514  0.00  0.00    +0.000 A 
ENDBRANCH  25  26
ENDBRANCH  22  25
ENDBRANCH   3  19
TORSDOF 5
