REMARK  Name = 
REMARK  6 active torsions:
REMARK  status: ('A' for Active; 'I' for Inactive)
REMARK    1  A    between atoms: C_2  and  C_17
REMARK    2  A    between atoms: N_3  and  C_4
REMARK    3  A    between atoms: N_8  and  C_9
REMARK    4  A    between atoms: C_20  and  C_21
REMARK    5  A    between atoms: C_21  and  O_22
REMARK    6  A    between atoms: O_22  and  C_23
REMARK                            x       y       z     vdW  Elec       q    Type
REMARK                         _______ _______ _______ _____ _____    ______ ____
ROOT
ATOM      1  O   UNL     1       1.008   0.091   0.107  0.00  0.00    +0.000 OA
ATOM      2  C   UNL     1       2.238   0.086   0.156  0.00  0.00    +0.000 C 
ATOM      3  N   UNL     1       2.974  -0.765   0.952  0.00  0.00    +0.000 N 
ATOM      4  H   UNL     1       3.961  -0.545   1.103  0.00  0.00    +0.000 HD
ENDROOT
BRANCH   3   5
ATOM      5  C   UNL     1       2.434  -1.765   1.746  0.00  0.00    +0.000 A 
ATOM      6  C   UNL     1       1.212  -2.292   1.568  0.00  0.00    +0.000 A 
ATOM      7  C   UNL     1       0.674  -3.285   2.446  0.00  0.00    +0.000 A 
ATOM      8  C   UNL     1       1.374  -3.674   3.514  0.00  0.00    +0.000 A 
ATOM      9  N   UNL     1       2.644  -3.179   3.778  0.00  0.00    +0.000 N 
ATOM     10  C   UNL     1       3.271  -2.258   2.906  0.00  0.00    +0.000 A 
ATOM     11  O   UNL     1       4.394  -1.766   3.056  0.00  0.00    +0.000 OA
BRANCH   9  12
ATOM     12  C   UNL     1       3.302  -3.522   4.997  0.00  0.00    +0.000 A 
ATOM     13  C   UNL     1       2.614  -3.404   6.215  0.00  0.00    +0.000 A 
ATOM     14  C   UNL     1       3.277  -3.634   7.422  0.00  0.00    +0.000 A 
ATOM     15  C   UNL     1       4.612  -4.032   7.416  0.00  0.00    +0.000 A 
ATOM     16  C   UNL     1       5.285  -4.202   6.207  0.00  0.00    +0.000 A 
ATOM     17  C   UNL     1       4.637  -3.935   5.001  0.00  0.00    +0.000 A 
ENDBRANCH   9  12
ENDBRANCH   3   5
BRANCH   2  18
ATOM     18  C   UNL     1       2.974   1.055  -0.646  0.00  0.00    +0.000 A 
ATOM     19  N   UNL     1       4.304   1.045  -0.847  0.00  0.00    +0.000 NA
ATOM     20  O   UNL     1       4.547   2.092  -1.738  0.00  0.00    +0.000 OA
ATOM     21  C   UNL     1       3.371   2.713  -2.039  0.00  0.00    +0.000 A 
ATOM     22  C   UNL     1       2.356   2.101  -1.361  0.00  0.00    +0.000 A 
BRANCH  21  23
ATOM     23  C   UNL     1       3.387   3.841  -2.988  0.00  0.00    +0.000 C 
BRANCH  23  24
ATOM     24  O   UNL     1       3.535   5.020  -2.204  0.00  0.00    +0.000 OA
BRANCH  24  25
ATOM     25  C   UNL     1       3.502   6.208  -2.883  0.00  0.00    +0.000 A 
ATOM     26  C   UNL     1       3.345   6.357  -4.262  0.00  0.00    +0.000 A 
ATOM     27  C   UNL     1       3.345   7.630  -4.834  0.00  0.00    +0.000 A 
ATOM     28  C   UNL     1       3.498   8.757  -4.032  0.00  0.00    +0.000 A 
ATOM     29  C   UNL     1       3.646   8.616  -2.654  0.00  0.00    +0.000 A 
ATOM     30  C   UNL     1       3.647   7.343  -2.083  0.00  0.00    +0.000 A 
ENDBRANCH  24  25
ENDBRANCH  23  24
ENDBRANCH  21  23
ENDBRANCH   2  18
TORSDOF 6
