REMARK  Name = 
REMARK  6 active torsions:
REMARK  status: ('A' for Active; 'I' for Inactive)
REMARK    1  A    between atoms: C_2  and  O_3
REMARK    2  A    between atoms: C_2  and  C_16
REMARK    3  A    between atoms: O_3  and  C_4
REMARK    4  A    between atoms: C_4  and  C_5
REMARK    5  A    between atoms: N_9  and  C_10
REMARK    6  A    between atoms: C_18  and  C_19
REMARK                            x       y       z     vdW  Elec       q    Type
REMARK                         _______ _______ _______ _____ _____    ______ ____
ROOT
ATOM      1  O   UNL     1       1.139   0.101  -0.078  0.00  0.00    +0.000 OA
ATOM      2  C   UNL     1       2.341  -0.100  -0.009  0.00  0.00    +0.000 C 
ENDROOT
BRANCH   2   3
ATOM      3  C   UNL     1       3.093  -0.976  -0.945  0.00  0.00    +0.000 A 
ATOM      4  C   UNL     1       2.373  -1.632  -1.956  0.00  0.00    +0.000 A 
ATOM      5  C   UNL     1       3.021  -2.395  -2.946  0.00  0.00    +0.000 A 
ATOM      6  C   UNL     1       4.423  -2.489  -2.873  0.00  0.00    +0.000 A 
ATOM      7  C   UNL     1       5.132  -1.852  -1.859  0.00  0.00    +0.000 A 
ATOM      8  F   UNL     1       6.467  -1.954  -1.825  0.00  0.00    +0.000 F 
ATOM      9  C   UNL     1       4.484  -1.098  -0.894  0.00  0.00    +0.000 A 
BRANCH   5  10
ATOM     10  C   UNL     1       2.277  -3.074  -4.027  0.00  0.00    +0.000 A 
ATOM     11  C   UNL     1       1.067  -2.599  -4.534  0.00  0.00    +0.000 A 
ATOM     12  C   UNL     1       0.425  -3.309  -5.548  0.00  0.00    +0.000 A 
ATOM     13  C   UNL     1       1.005  -4.471  -6.037  0.00  0.00    +0.000 A 
ATOM     14  C   UNL     1       2.210  -4.873  -5.492  0.00  0.00    +0.000 A 
ATOM     15  N   UNL     1       2.853  -4.204  -4.510  0.00  0.00    +0.000 NA
ENDBRANCH   5  10
ENDBRANCH   2   3
BRANCH   2  16
ATOM     16  O   UNL     1       3.199   0.485   0.855  0.00  0.00    +0.000 OA
BRANCH  16  17
ATOM     17  C   UNL     1       2.732   1.699   1.461  0.00  0.00    +0.000 C 
BRANCH  17  18
ATOM     18  C   UNL     1       3.130   2.824   0.563  0.00  0.00    +0.000 A 
ATOM     19  N   UNL     1       3.719   2.699  -0.616  0.00  0.00    +0.000 NA
ATOM     20  C   UNL     1       3.611   3.939  -1.157  0.00  0.00    +0.000 A 
ATOM     21  N   UNL     1       2.994   4.840  -0.398  0.00  0.00    +0.000 NA
ATOM     22  N   UNL     1       2.787   4.155   0.759  0.00  0.00    +0.000 N 
BRANCH  22  23
ATOM     23  C   UNL     1       2.320   4.834   1.914  0.00  0.00    +0.000 A 
ATOM     24  C   UNL     1       1.592   6.024   1.761  0.00  0.00    +0.000 A 
ATOM     25  C   UNL     1       1.129   6.712   2.885  0.00  0.00    +0.000 A 
ATOM     26  C   UNL     1       1.410   6.234   4.163  0.00  0.00    +0.000 A 
ATOM     27  C   UNL     1       2.164   5.075   4.322  0.00  0.00    +0.000 A 
ATOM     28  C   UNL     1       2.623   4.377   3.202  0.00  0.00    +0.000 A 
ENDBRANCH  22  23
ENDBRANCH  17  18
ENDBRANCH  16  17
ENDBRANCH   2  16
TORSDOF 6
