REMARK  Name = 
REMARK  7 active torsions:
REMARK  status: ('A' for Active; 'I' for Inactive)
REMARK    1  A    between atoms: C_2  and  O_3
REMARK    2  A    between atoms: C_2  and  C_17
REMARK    3  A    between atoms: O_3  and  C_4
REMARK    4  A    between atoms: C_4  and  C_5
REMARK    5  A    between atoms: N_9  and  C_10
REMARK    6  A    between atoms: C_21  and  C_22
REMARK    7  A    between atoms: C_22  and  C_23
REMARK                            x       y       z     vdW  Elec       q    Type
REMARK                         _______ _______ _______ _____ _____    ______ ____
ROOT
ATOM      1  O   UNL     1       1.245   0.138   0.735  0.00  0.00    +0.000 OA
ATOM      2  C   UNL     1       2.175  -0.121  -0.014  0.00  0.00    +0.000 C 
ENDROOT
BRANCH   2   3
ATOM      3  C   UNL     1       2.788   0.855  -0.955  0.00  0.00    +0.000 A 
ATOM      4  C   UNL     1       2.277   2.156  -0.986  0.00  0.00    +0.000 A 
ATOM      5  C   UNL     1       2.873   3.126  -1.794  0.00  0.00    +0.000 A 
ATOM      6  C   UNL     1       4.012   2.814  -2.539  0.00  0.00    +0.000 A 
ATOM      7  C   UNL     1       4.560   1.525  -2.493  0.00  0.00    +0.000 A 
ATOM      8  C   UNL     1       3.914   0.539  -1.729  0.00  0.00    +0.000 A 
BRANCH   7   9
ATOM      9  C   UNL     1       5.912   1.238  -3.122  0.00  0.00    +0.000 C 
BRANCH   9  10
ATOM     10  C   UNL     1       7.061   1.555  -2.181  0.00  0.00    +0.000 A 
ATOM     11  C   UNL     1       7.204   0.859  -0.979  0.00  0.00    +0.000 A 
ATOM     12  C   UNL     1       8.166   1.273  -0.064  0.00  0.00    +0.000 A 
ATOM     13  C   UNL     1       8.988   2.344  -0.383  0.00  0.00    +0.000 A 
ATOM     14  C   UNL     1       8.823   2.945  -1.619  0.00  0.00    +0.000 A 
ATOM     15  N   UNL     1       7.882   2.581  -2.521  0.00  0.00    +0.000 NA
ENDBRANCH   9  10
ENDBRANCH   7   9
ENDBRANCH   2   3
BRANCH   2  16
ATOM     16  O   UNL     1       2.840  -1.298  -0.066  0.00  0.00    +0.000 OA
BRANCH  16  17
ATOM     17  C   UNL     1       2.678  -2.150   1.077  0.00  0.00    +0.000 C 
BRANCH  17  18
ATOM     18  C   UNL     1       3.787  -1.833   2.026  0.00  0.00    +0.000 A 
ATOM     19  N   UNL     1       4.687  -0.874   1.848  0.00  0.00    +0.000 NA
ATOM     20  N   UNL     1       5.401  -0.726   3.002  0.00  0.00    +0.000 NA
ATOM     21  C   UNL     1       4.940  -1.601   3.862  0.00  0.00    +0.000 A 
ATOM     22  N   UNL     1       3.955  -2.373   3.293  0.00  0.00    +0.000 N 
BRANCH  22  23
ATOM     23  C   UNL     1       3.308  -3.476   3.913  0.00  0.00    +0.000 A 
ATOM     24  C   UNL     1       3.174  -3.506   5.312  0.00  0.00    +0.000 A 
ATOM     25  C   UNL     1       2.544  -4.588   5.933  0.00  0.00    +0.000 A 
ATOM     26  C   UNL     1       2.068  -5.644   5.164  0.00  0.00    +0.000 A 
ATOM     27  F   UNL     1       1.472  -6.681   5.763  0.00  0.00    +0.000 F 
ATOM     28  C   UNL     1       2.217  -5.640   3.784  0.00  0.00    +0.000 A 
ATOM     29  C   UNL     1       2.839  -4.559   3.157  0.00  0.00    +0.000 A 
ENDBRANCH  22  23
ENDBRANCH  17  18
ENDBRANCH  16  17
ENDBRANCH   2  16
TORSDOF 7
