REMARK  Name = 
REMARK  6 active torsions:
REMARK  status: ('A' for Active; 'I' for Inactive)
REMARK    1  A    between atoms: N_1  and  C_2
REMARK    2  A    between atoms: C_2  and  C_3
REMARK    3  A    between atoms: C_6  and  C_7
REMARK    4  A    between atoms: C_12  and  C_13
REMARK    5  A    between atoms: N_15  and  C_16
REMARK    6  A    between atoms: C_19  and  N_20
REMARK                            x       y       z     vdW  Elec       q    Type
REMARK                         _______ _______ _______ _____ _____    ______ ____
ROOT
ATOM      1  C   UNL     1       6.486  -0.160   5.138  0.00  0.00    +0.000 C 
ATOM      2  O   UNL     1       6.761   0.422   4.097  0.00  0.00    +0.000 OA
ATOM      3  N   UNL     1       7.100  -1.311   5.619  0.00  0.00    +0.000 N 
ATOM      4  H   UNL     1       6.826  -1.631   6.538  0.00  0.00    +0.000 HD
ENDROOT
BRANCH   1  10
ATOM      5  C   UNL     1       4.145   0.814   5.523  0.00  0.00    +0.000 A 
ATOM      6  C   UNL     1       3.284   1.427   6.466  0.00  0.00    +0.000 A 
ATOM      7  C   UNL     1       3.633   1.594   7.811  0.00  0.00    +0.000 A 
ATOM      8  C   UNL     1       4.857   1.137   8.272  0.00  0.00    +0.000 A 
ATOM      9  C   UNL     1       5.746   0.547   7.379  0.00  0.00    +0.000 A 
ATOM     10  C   UNL     1       5.410   0.390   6.017  0.00  0.00    +0.000 A 
BRANCH   5  14
ATOM     11  C   UNL     1       2.814   0.357   1.395  0.00  0.00    +0.000 A 
ATOM     12  C   UNL     1       2.374   1.429   2.176  0.00  0.00    +0.000 A 
ATOM     13  C   UNL     1       2.809   1.575   3.501  0.00  0.00    +0.000 A 
ATOM     14  C   UNL     1       3.666   0.638   4.115  0.00  0.00    +0.000 A 
ATOM     15  C   UNL     1       4.022  -0.476   3.335  0.00  0.00    +0.000 A 
ATOM     16  C   UNL     1       3.634  -0.600   1.994  0.00  0.00    +0.000 A 
BRANCH  11  17
ATOM     17  C   UNL     1       2.412   0.226  -0.051  0.00  0.00    +0.000 C 
BRANCH  17  18
ATOM     18  N   UNL     1       2.761   1.418  -0.818  0.00  0.00    +0.000 NA
ATOM     19  H   UNL     1       2.626   1.227  -1.809  0.00  0.00    +0.000 HD
ATOM     20  H   UNL     1       3.758   1.598  -0.695  0.00  0.00    +0.000 HD
ENDBRANCH  17  18
ENDBRANCH  11  17
ENDBRANCH   5  14
ENDBRANCH   1  10
BRANCH   3  21
ATOM     21  C   UNL     1       8.045  -2.117   4.949  0.00  0.00    +0.000 A 
ATOM     22  C   UNL     1       8.396  -1.956   3.612  0.00  0.00    +0.000 A 
ATOM     23  C   UNL     1       9.288  -2.845   2.992  0.00  0.00    +0.000 A 
ATOM     24  C   UNL     1       9.853  -3.919   3.688  0.00  0.00    +0.000 A 
ATOM     25  C   UNL     1       9.515  -4.057   5.043  0.00  0.00    +0.000 A 
ATOM     26  C   UNL     1       8.626  -3.166   5.666  0.00  0.00    +0.000 A 
BRANCH  24  27
ATOM     27  N   UNL     1      10.720  -4.851   3.054  0.00  0.00    +0.000 N 
ATOM     28  C   UNL     1      11.132  -6.084   3.535  0.00  0.00    +0.000 A 
ATOM     29  C   UNL     1      11.935  -6.678   2.642  0.00  0.00    +0.000 A 
ATOM     30  N   UNL     1      12.073  -5.853   1.565  0.00  0.00    +0.000 N 
ATOM     31  C   UNL     1      11.322  -4.675   1.761  0.00  0.00    +0.000 A 
ATOM     32  O   UNL     1      11.271  -3.756   0.962  0.00  0.00    +0.000 OA
ATOM     33  H   UNL     1      12.618  -6.017   0.733  0.00  0.00    +0.000 HD
ENDBRANCH  24  27
ENDBRANCH   3  21
TORSDOF 6
