REMARK  Name = 
REMARK  3 active torsions:
REMARK  status: ('A' for Active; 'I' for Inactive)
REMARK    1  A    between atoms: C_2  and  C_3
REMARK    2  A    between atoms: C_6  and  O_7
REMARK    3  A    between atoms: N_16  and  C_17
REMARK                            x       y       z     vdW  Elec       q    Type
REMARK                         _______ _______ _______ _____ _____    ______ ____
ROOT
ATOM      1  O   UNL     1       1.314  -0.696   0.431  0.00  0.00    +0.000 OA
ATOM      2  C   UNL     1       2.366  -0.170   0.052  0.00  0.00    +0.000 C 
ATOM      3  N   UNL     1       3.035   0.770   0.862  0.00  0.00    +0.000 N 
ATOM      4  C   UNL     1       2.467   1.019   2.192  0.00  0.00    +0.000 C 
ATOM      5  C   UNL     1       2.285   2.486   2.539  0.00  0.00    +0.000 C 
ATOM      6  O   UNL     1       1.461   2.816   3.399  0.00  0.00    +0.000 OA
ATOM      7  N   UNL     1       3.178   3.357   1.925  0.00  0.00    +0.000 N 
ATOM      8  C   UNL     1       4.222   2.883   1.059  0.00  0.00    +0.000 A 
ATOM      9  C   UNL     1       5.296   3.712   0.669  0.00  0.00    +0.000 A 
ATOM     10  C   UNL     1       6.296   3.252  -0.184  0.00  0.00    +0.000 A 
ATOM     11  C   UNL     1       6.296   1.926  -0.587  0.00  0.00    +0.000 A 
ATOM     12  C   UNL     1       5.278   1.070  -0.159  0.00  0.00    +0.000 A 
ATOM     13  C   UNL     1       4.191   1.552   0.586  0.00  0.00    +0.000 A 
ENDROOT
BRANCH   2  14
ATOM     14  C   UNL     1       2.837  -0.604  -1.291  0.00  0.00    +0.000 A 
ATOM     15  C   UNL     1       2.691  -1.958  -1.629  0.00  0.00    +0.000 A 
ATOM     16  F   UNL     1       2.042  -2.818  -0.827  0.00  0.00    +0.000 F 
ATOM     17  C   UNL     1       3.245  -2.470  -2.799  0.00  0.00    +0.000 A 
ATOM     18  C   UNL     1       3.982  -1.638  -3.628  0.00  0.00    +0.000 A 
ATOM     19  F   UNL     1       4.622  -2.131  -4.697  0.00  0.00    +0.000 F 
ATOM     20  C   UNL     1       4.060  -0.275  -3.360  0.00  0.00    +0.000 A 
ATOM     21  C   UNL     1       3.425   0.253  -2.230  0.00  0.00    +0.000 A 
BRANCH  17  22
ATOM     22  O   UNL     1       3.082  -3.790  -3.121  0.00  0.00    +0.000 OA
ATOM     23  H   UNL     1       2.445  -4.169  -2.485  0.00  0.00    +0.000 HD
ENDBRANCH  17  22
ENDBRANCH   2  14
BRANCH   7  24
ATOM     24  C   UNL     1       3.108   4.749   2.206  0.00  0.00    +0.000 A 
ATOM     25  C   UNL     1       3.243   5.217   3.522  0.00  0.00    +0.000 A 
ATOM     26  C   UNL     1       3.253   6.588   3.777  0.00  0.00    +0.000 A 
ATOM     27  C   UNL     1       3.091   7.495   2.730  0.00  0.00    +0.000 A 
ATOM     28  C   UNL     1       2.906   7.037   1.428  0.00  0.00    +0.000 A 
ATOM     29  C   UNL     1       2.918   5.666   1.165  0.00  0.00    +0.000 A 
ENDBRANCH   7  24
TORSDOF 3
