REMARK  Name = 
REMARK  6 active torsions:
REMARK  status: ('A' for Active; 'I' for Inactive)
REMARK    1  A    between atoms: C_1  and  O_2
REMARK    2  A    between atoms: O_2  and  C_3
REMARK    3  A    between atoms: C_5  and  C_6
REMARK    4  A    between atoms: N_8  and  C_9
REMARK    5  A    between atoms: C_10  and  C_11
REMARK    6  A    between atoms: N_15  and  C_16
REMARK                            x       y       z     vdW  Elec       q    Type
REMARK                         _______ _______ _______ _____ _____    ______ ____
ROOT
ATOM      1  C   UNL     1       2.971  -5.057  -0.212  0.00  0.00    +0.000 C 
ATOM      2  O   UNL     1       3.652  -6.003   0.173  0.00  0.00    +0.000 OA
ATOM      3  N   UNL     1       1.806  -5.206  -0.955  0.00  0.00    +0.000 N 
ATOM      4  H   UNL     1       1.542  -4.401  -1.518  0.00  0.00    +0.000 HD
ENDROOT
BRANCH   1   7
ATOM      5  C   UNL     1       5.133  -2.155   0.922  0.00  0.00    +0.000 A 
ATOM      6  C   UNL     1       4.675  -3.449   0.665  0.00  0.00    +0.000 A 
ATOM      7  C   UNL     1       3.437  -3.675   0.032  0.00  0.00    +0.000 A 
ATOM      8  C   UNL     1       2.704  -2.543  -0.328  0.00  0.00    +0.000 A 
ATOM      9  O   UNL     1       1.498  -2.525  -0.974  0.00  0.00    +0.000 OA
ATOM     10  C   UNL     1       1.133  -1.226  -1.109  0.00  0.00    +0.000 A 
ATOM     11  C   UNL     1       2.093  -0.398  -0.576  0.00  0.00    +0.000 A 
ATOM     12  C   UNL     1       3.118  -1.241  -0.071  0.00  0.00    +0.000 A 
ATOM     13  C   UNL     1       4.350  -1.043   0.576  0.00  0.00    +0.000 A 
BRANCH   5  15
ATOM     14  C   UNL     1       7.356  -2.811   1.412  0.00  0.00    +0.000 C 
ATOM     15  O   UNL     1       6.313  -1.850   1.546  0.00  0.00    +0.000 OA
ENDBRANCH   5  15
ENDBRANCH   1   7
BRANCH   3  16
ATOM     16  C   UNL     1       1.282  -6.435  -1.297  0.00  0.00    +0.000 A 
ATOM     17  C   UNL     1       1.004  -7.417  -0.415  0.00  0.00    +0.000 A 
ATOM     18  C   UNL     1       0.473  -8.725  -0.913  0.00  0.00    +0.000 A 
ATOM     19  O   UNL     1       0.125  -9.578  -0.095  0.00  0.00    +0.000 OA
ATOM     20  N   UNL     1       0.353  -8.868  -2.312  0.00  0.00    +0.000 N 
ATOM     21  C   UNL     1       0.616  -7.809  -3.166  0.00  0.00    +0.000 A 
ATOM     22  C   UNL     1       1.036  -6.626  -2.708  0.00  0.00    +0.000 A 
BRANCH  20  23
ATOM     23  C   UNL     1      -0.187 -10.096  -2.808  0.00  0.00    +0.000 A 
ATOM     24  C   UNL     1      -1.273 -10.079  -3.692  0.00  0.00    +0.000 A 
ATOM     25  C   UNL     1      -1.901 -11.272  -4.056  0.00  0.00    +0.000 A 
ATOM     26  C   UNL     1      -1.418 -12.490  -3.579  0.00  0.00    +0.000 A 
ATOM     27  C   UNL     1      -0.301 -12.521  -2.748  0.00  0.00    +0.000 A 
ATOM     28  C   UNL     1       0.307 -11.328  -2.357  0.00  0.00    +0.000 A 
ENDBRANCH  20  23
BRANCH  17  29
ATOM     29  C   UNL     1       1.049  -7.235   0.993  0.00  0.00    +0.000 C 
ATOM     30  N   UNL     1       1.034  -7.038   2.144  0.00  0.00    +0.000 NA
ENDBRANCH  17  29
ENDBRANCH   3  16
TORSDOF 5
