REMARK  Name = 
REMARK  6 active torsions:
REMARK  status: ('A' for Active; 'I' for Inactive)
REMARK    1  A    between atoms: C_2  and  C_3
REMARK    2  A    between atoms: C_6  and  C_7
REMARK    3  A    between atoms: C_7  and  N_8
REMARK    4  A    between atoms: N_8  and  C_22
REMARK    5  A    between atoms: C_9  and  C_11
REMARK    6  A    between atoms: N_15  and  C_16
REMARK                            x       y       z     vdW  Elec       q    Type
REMARK                         _______ _______ _______ _____ _____    ______ ____
ROOT
ATOM      1  N   UNL     1       4.227  -1.440   0.310  0.00  0.00    +0.000 N 
ATOM      2  C   UNL     1       3.512  -2.639   0.094  0.00  0.00    +0.000 C 
ATOM      3  O   UNL     1       4.097  -3.721   0.188  0.00  0.00    +0.000 OA
ENDROOT
BRANCH   1   4
ATOM      4  C   UNL     1       5.665  -1.508   0.348  0.00  0.00    +0.000 A 
ATOM      5  C   UNL     1       6.376  -2.114  -0.699  0.00  0.00    +0.000 A 
ATOM      6  C   UNL     1       7.774  -2.138  -0.691  0.00  0.00    +0.000 A 
ATOM      7  C   UNL     1       8.475  -1.580   0.374  0.00  0.00    +0.000 A 
ATOM      8  C   UNL     1       7.778  -0.989   1.427  0.00  0.00    +0.000 A 
ATOM      9  C   UNL     1       6.381  -0.938   1.406  0.00  0.00    +0.000 A 
ENDBRANCH   1   4
BRANCH   2  10
ATOM     10  C   UNL     1       2.083  -2.634  -0.185  0.00  0.00    +0.000 A 
ATOM     11  C   UNL     1       1.072  -1.838   0.339  0.00  0.00    +0.000 A 
ATOM     12  C   UNL     1      -0.135  -2.401  -0.071  0.00  0.00    +0.000 A 
ATOM     13  N   UNL     1       0.052  -3.479  -0.815  0.00  0.00    +0.000 NA
ATOM     14  N   UNL     1       1.407  -3.622  -0.920  0.00  0.00    +0.000 N 
BRANCH  14  15
ATOM     15  C   UNL     1       1.884  -4.697  -1.731  0.00  0.00    +0.000 A 
ATOM     16  C   UNL     1       3.153  -4.711  -2.308  0.00  0.00    +0.000 A 
ATOM     17  C   UNL     1       3.524  -5.829  -3.042  0.00  0.00    +0.000 A 
ATOM     18  N   UNL     1       2.726  -6.894  -3.261  0.00  0.00    +0.000 NA
ATOM     19  C   UNL     1       1.492  -6.844  -2.721  0.00  0.00    +0.000 A 
ATOM     20  C   UNL     1       1.026  -5.779  -1.976  0.00  0.00    +0.000 A 
ENDBRANCH  14  15
ENDBRANCH   2  10
BRANCH   1  21
ATOM     21  C   UNL     1       3.678  -0.072   0.272  0.00  0.00    +0.000 C 
BRANCH  21  25
ATOM     22  C   UNL     1       3.039   1.810   4.131  0.00  0.00    +0.000 A 
ATOM     23  C   UNL     1       3.451   2.561   3.028  0.00  0.00    +0.000 A 
ATOM     24  C   UNL     1       3.616   1.947   1.782  0.00  0.00    +0.000 A 
ATOM     25  C   UNL     1       3.411   0.566   1.627  0.00  0.00    +0.000 A 
ATOM     26  C   UNL     1       2.954  -0.166   2.734  0.00  0.00    +0.000 A 
ATOM     27  C   UNL     1       2.752   0.453   3.971  0.00  0.00    +0.000 A 
BRANCH  22  29
ATOM     28  N   UNL     1       2.938   2.885   6.491  0.00  0.00    +0.000 NA
ATOM     29  C   UNL     1       2.965   2.411   5.432  0.00  0.00    +0.000 C 
ENDBRANCH  22  29
ENDBRANCH  21  25
ENDBRANCH   1  21
TORSDOF 6
