REMARK  Name = 
REMARK  5 active torsions:
REMARK  status: ('A' for Active; 'I' for Inactive)
REMARK    1  A    between atoms: C_2  and  C_17
REMARK    2  A    between atoms: N_3  and  C_4
REMARK    3  A    between atoms: C_4  and  C_5
REMARK    4  A    between atoms: C_8  and  C_9
REMARK    5  A    between atoms: C_21  and  C_22
REMARK                            x       y       z     vdW  Elec       q    Type
REMARK                         _______ _______ _______ _____ _____    ______ ____
ROOT
ATOM      1  O   UNL     1       1.006   0.101  -0.074  0.00  0.00    +0.000 OA
ATOM      2  C   UNL     1       2.233   0.118  -0.043  0.00  0.00    +0.000 C 
ATOM      3  N   UNL     1       3.003  -0.194  -1.140  0.00  0.00    +0.000 N 
ATOM      4  H   UNL     1       4.007  -0.268  -1.013  0.00  0.00    +0.000 HD
ENDROOT
BRANCH   2   5
ATOM      5  C   UNL     1       2.985   0.406   1.182  0.00  0.00    +0.000 A 
ATOM      6  N   UNL     1       4.192   0.997   1.127  0.00  0.00    +0.000 NA
ATOM      7  O   UNL     1       4.569   1.208   2.440  0.00  0.00    +0.000 OA
ATOM      8  C   UNL     1       3.628   0.697   3.269  0.00  0.00    +0.000 A 
ATOM      9  C   UNL     1       2.606   0.138   2.536  0.00  0.00    +0.000 A 
BRANCH   9  10
ATOM     10  C   UNL     1       1.482  -0.594   3.104  0.00  0.00    +0.000 A 
ATOM     11  C   UNL     1       0.914  -1.668   2.396  0.00  0.00    +0.000 A 
ATOM     12  C   UNL     1      -0.170  -2.379   2.916  0.00  0.00    +0.000 A 
ATOM     13  C   UNL     1      -0.677  -2.040   4.162  0.00  0.00    +0.000 A 
ATOM     14  F   UNL     1      -1.709  -2.730   4.662  0.00  0.00    +0.000 F 
ATOM     15  C   UNL     1      -0.123  -1.003   4.897  0.00  0.00    +0.000 A 
ATOM     16  C   UNL     1       0.947  -0.286   4.364  0.00  0.00    +0.000 A 
ATOM     17  F   UNL     1       1.454   0.717   5.098  0.00  0.00    +0.000 F 
ENDBRANCH   9  10
ENDBRANCH   2   5
BRANCH   3  18
ATOM     18  C   UNL     1       2.397  -0.682  -2.361  0.00  0.00    +0.000 C 
BRANCH  18  19
ATOM     19  C   UNL     1       2.192  -2.162  -2.311  0.00  0.00    +0.000 A 
ATOM     20  N   UNL     1       3.211  -3.036  -2.266  0.00  0.00    +0.000 NA
ATOM     21  O   UNL     1       2.564  -4.278  -2.254  0.00  0.00    +0.000 OA
ATOM     22  C   UNL     1       1.221  -4.025  -2.292  0.00  0.00    +0.000 A 
ATOM     23  N   UNL     1       0.945  -2.739  -2.333  0.00  0.00    +0.000 NA
BRANCH  22  24
ATOM     24  C   UNL     1       0.312  -5.166  -2.264  0.00  0.00    +0.000 A 
ATOM     25  C   UNL     1      -1.071  -4.937  -2.307  0.00  0.00    +0.000 A 
ATOM     26  C   UNL     1      -1.962  -6.004  -2.248  0.00  0.00    +0.000 A 
ATOM     27  F   UNL     1      -3.279  -5.766  -2.280  0.00  0.00    +0.000 F 
ATOM     28  C   UNL     1      -1.507  -7.313  -2.149  0.00  0.00    +0.000 A 
ATOM     29  C   UNL     1      -0.137  -7.560  -2.118  0.00  0.00    +0.000 A 
ATOM     30  C   UNL     1       0.768  -6.493  -2.178  0.00  0.00    +0.000 A 
ENDBRANCH  22  24
ENDBRANCH  18  19
ENDBRANCH   3  18
TORSDOF 5
