REMARK  Name = 
REMARK  4 active torsions:
REMARK  status: ('A' for Active; 'I' for Inactive)
REMARK    1  A    between atoms: C_2  and  C_17
REMARK    2  A    between atoms: N_3  and  C_4
REMARK    3  A    between atoms: C_7  and  N_8
REMARK    4  A    between atoms: N_19  and  C_20
REMARK                            x       y       z     vdW  Elec       q    Type
REMARK                         _______ _______ _______ _____ _____    ______ ____
ROOT
ATOM      1  O   UNL     1       1.025  -0.162  -0.110  0.00  0.00    +0.000 OA
ATOM      2  C   UNL     1       2.248  -0.069  -0.057  0.00  0.00    +0.000 C 
ATOM      3  N   UNL     1       2.954   0.784   0.772  0.00  0.00    +0.000 N 
ATOM      4  H   UNL     1       3.949   0.864   0.591  0.00  0.00    +0.000 HD
ENDROOT
BRANCH   3   5
ATOM      5  C   UNL     1       2.378   1.624   1.748  0.00  0.00    +0.000 A 
ATOM      6  C   UNL     1       1.075   1.454   2.217  0.00  0.00    +0.000 A 
ATOM      7  C   UNL     1       0.528   2.322   3.169  0.00  0.00    +0.000 A 
ATOM      8  C   UNL     1       1.267   3.389   3.694  0.00  0.00    +0.000 A 
ATOM      9  C   UNL     1       2.581   3.538   3.208  0.00  0.00    +0.000 A 
ATOM     10  F   UNL     1       3.341   4.566   3.624  0.00  0.00    +0.000 F 
ATOM     11  C   UNL     1       3.141   2.665   2.268  0.00  0.00    +0.000 A 
BRANCH   8  12
ATOM     12  N   UNL     1       0.698   4.266   4.645  0.00  0.00    +0.000 N 
ATOM     13  C   UNL     1      -0.519   4.212   5.272  0.00  0.00    +0.000 A 
ATOM     14  C   UNL     1      -0.561   4.957   6.383  0.00  0.00    +0.000 A 
ATOM     15  C   UNL     1       0.787   5.559   6.466  0.00  0.00    +0.000 A 
ATOM     16  O   UNL     1       1.121   6.411   7.269  0.00  0.00    +0.000 OA
ATOM     17  N   UNL     1       1.543   5.004   5.454  0.00  0.00    +0.000 N 
ATOM     18  H   UNL     1       2.376   5.445   5.083  0.00  0.00    +0.000 HD
ENDBRANCH   8  12
ENDBRANCH   3   5
BRANCH   2  19
ATOM     19  C   UNL     1       3.072  -0.873  -0.940  0.00  0.00    +0.000 A 
ATOM     20  C   UNL     1       2.587  -1.688  -1.936  0.00  0.00    +0.000 A 
ATOM     21  N   UNL     1       3.677  -2.336  -2.454  0.00  0.00    +0.000 N 
ATOM     22  N   UNL     1       4.792  -1.870  -1.827  0.00  0.00    +0.000 NA
ATOM     23  N   UNL     1       4.433  -0.978  -0.907  0.00  0.00    +0.000 NA
BRANCH  21  24
ATOM     24  C   UNL     1       3.703  -3.346  -3.441  0.00  0.00    +0.000 A 
ATOM     25  C   UNL     1       2.537  -3.734  -4.113  0.00  0.00    +0.000 A 
ATOM     26  F   UNL     1       1.357  -3.138  -3.895  0.00  0.00    +0.000 F 
ATOM     27  C   UNL     1       2.548  -4.758  -5.058  0.00  0.00    +0.000 A 
ATOM     28  C   UNL     1       3.734  -5.420  -5.353  0.00  0.00    +0.000 A 
ATOM     29  C   UNL     1       4.906  -5.041  -4.703  0.00  0.00    +0.000 A 
ATOM     30  C   UNL     1       4.890  -4.010  -3.759  0.00  0.00    +0.000 A 
ATOM     31  F   UNL     1       6.053  -3.711  -3.164  0.00  0.00    +0.000 F 
ENDBRANCH  21  24
ENDBRANCH   2  19
TORSDOF 4
