REMARK  Name = 
REMARK  7 active torsions:
REMARK  status: ('A' for Active; 'I' for Inactive)
REMARK    1  A    between atoms: C_2  and  C_21
REMARK    2  A    between atoms: N_3  and  C_4
REMARK    3  A    between atoms: C_4  and  C_5
REMARK    4  A    between atoms: C_10  and  N_11
REMARK    5  A    between atoms: N_11  and  S_12
REMARK    6  A    between atoms: S_12  and  C_15
REMARK    7  A    between atoms: C_25  and  C_26
REMARK                            x       y       z     vdW  Elec       q    Type
REMARK                         _______ _______ _______ _____ _____    ______ ____
ROOT
ATOM      1  C   UNL     1       2.227  -1.224  -1.995  0.00  0.00    +0.000 C 
ENDROOT
BRANCH   1   2
ATOM      2  C   UNL     1       3.156  -2.135  -2.749  0.00  0.00    +0.000 A 
ATOM      3  C   UNL     1       4.251  -1.572  -3.431  0.00  0.00    +0.000 A 
ATOM      4  C   UNL     1       5.109  -2.365  -4.190  0.00  0.00    +0.000 A 
ATOM      5  C   UNL     1       4.880  -3.734  -4.283  0.00  0.00    +0.000 A 
ATOM      6  C   UNL     1       3.794  -4.308  -3.618  0.00  0.00    +0.000 A 
ATOM      7  C   UNL     1       2.941  -3.515  -2.841  0.00  0.00    +0.000 A 
BRANCH   7   8
ATOM      8  N   UNL     1       1.761  -4.082  -2.293  0.00  0.00    +0.000 N 
ATOM      9  H   UNL     1       0.941  -4.174  -2.891  0.00  0.00    +0.000 HD
BRANCH   8  10
ATOM     10  S   UNL     1       1.817  -5.173  -1.022  0.00  0.00    +0.000 S 
ATOM     11  O   UNL     1       0.516  -5.805  -0.987  0.00  0.00    +0.000 OA
ATOM     12  O   UNL     1       3.029  -5.962  -1.096  0.00  0.00    +0.000 OA
BRANCH  10  13
ATOM     13  C   UNL     1       1.924  -4.112   0.406  0.00  0.00    +0.000 A 
ATOM     14  C   UNL     1       0.749  -3.640   1.003  0.00  0.00    +0.000 A 
ATOM     15  C   UNL     1       0.822  -2.921   2.197  0.00  0.00    +0.000 A 
ATOM     16  C   UNL     1       2.061  -2.682   2.793  0.00  0.00    +0.000 A 
ATOM     17  C   UNL     1       3.232  -3.144   2.189  0.00  0.00    +0.000 A 
ATOM     18  C   UNL     1       3.168  -3.861   0.993  0.00  0.00    +0.000 A 
ENDBRANCH  10  13
ENDBRANCH   8  10
ENDBRANCH   7   8
ENDBRANCH   1   2
BRANCH   1  21
ATOM     19  O   UNL     1       1.615   1.388  -1.241  0.00  0.00    +0.000 OA
ATOM     20  C   UNL     1       2.527   0.802  -0.673  0.00  0.00    +0.000 C 
ATOM     21  N   UNL     1       2.943  -0.467  -0.996  0.00  0.00    +0.000 N 
ATOM     22  H   UNL     1       3.496  -0.988  -0.327  0.00  0.00    +0.000 HD
BRANCH  20  23
ATOM     23  C   UNL     1       3.221   1.439   0.464  0.00  0.00    +0.000 A 
ATOM     24  C   UNL     1       4.586   1.270   0.685  0.00  0.00    +0.000 A 
ATOM     25  C   UNL     1       5.136   1.907   1.781  0.00  0.00    +0.000 A 
ATOM     26  N   UNL     1       4.421   2.649   2.656  0.00  0.00    +0.000 NA
ATOM     27  C   UNL     1       3.091   2.799   2.414  0.00  0.00    +0.000 A 
ATOM     28  C   UNL     1       2.464   2.232   1.318  0.00  0.00    +0.000 A 
BRANCH  27  29
ATOM     29  C   UNL     1       2.308   3.528   3.418  0.00  0.00    +0.000 A 
ATOM     30  N   UNL     1       0.992   3.775   3.268  0.00  0.00    +0.000 NA
ATOM     31  N   UNL     1       0.631   4.392   4.402  0.00  0.00    +0.000 N 
ATOM     32  C   UNL     1       1.653   4.548   5.286  0.00  0.00    +0.000 A 
ATOM     33  C   UNL     1       2.761   4.017   4.673  0.00  0.00    +0.000 A 
ATOM     34  H   UNL     1      -0.340   4.668   4.508  0.00  0.00    +0.000 HD
ENDBRANCH  27  29
ENDBRANCH  20  23
ENDBRANCH   1  21
TORSDOF 7
