REMARK  Name = 
REMARK  5 active torsions:
REMARK  status: ('A' for Active; 'I' for Inactive)
REMARK    1  A    between atoms: C_2  and  C_4
REMARK    2  A    between atoms: C_4  and  N_5
REMARK    3  A    between atoms: C_4  and  C_20
REMARK    4  A    between atoms: C_6  and  C_8
REMARK    5  A    between atoms: N_12  and  C_13
REMARK                            x       y       z     vdW  Elec       q    Type
REMARK                         _______ _______ _______ _____ _____    ______ ____
ROOT
ATOM      1  C   UNL     1       3.175   0.752   1.077  0.00  0.00    +0.000 C 
ENDROOT
BRANCH   1   2
ATOM      2  C   UNL     1       4.678   0.611   0.932  0.00  0.00    +0.000 A 
ATOM      3  C   UNL     1       5.504   1.615   1.458  0.00  0.00    +0.000 A 
ATOM      4  C   UNL     1       6.892   1.486   1.424  0.00  0.00    +0.000 A 
ATOM      5  C   UNL     1       7.490   0.346   0.871  0.00  0.00    +0.000 A 
ATOM      6  C   UNL     1       8.883   0.188   0.854  0.00  0.00    +0.000 A 
ATOM      7  C   UNL     1       9.464  -0.958   0.310  0.00  0.00    +0.000 A 
ATOM      8  C   UNL     1       8.659  -1.957  -0.231  0.00  0.00    +0.000 A 
ATOM      9  C   UNL     1       7.271  -1.815  -0.222  0.00  0.00    +0.000 A 
ATOM     10  C   UNL     1       6.672  -0.673   0.332  0.00  0.00    +0.000 A 
ATOM     11  C   UNL     1       5.276  -0.531   0.375  0.00  0.00    +0.000 A 
ENDBRANCH   1   2
BRANCH   1  13
ATOM     12  N   UNL     1       2.221   0.756  -1.205  0.00  0.00    +0.000 N 
ATOM     13  C   UNL     1       2.380   0.044  -0.046  0.00  0.00    +0.000 C 
ATOM     14  O   UNL     1       1.953  -1.107   0.035  0.00  0.00    +0.000 OA
ATOM     15  H   UNL     1       1.700   0.328  -1.960  0.00  0.00    +0.000 HD
ATOM     16  H   UNL     1       2.487   1.728  -1.294  0.00  0.00    +0.000 HD
ENDBRANCH   1  13
BRANCH   1  17
ATOM     17  N   UNL     1       2.781   0.238   2.381  0.00  0.00    +0.000 N 
ATOM     18  C   UNL     1       1.726   0.799   3.058  0.00  0.00    +0.000 C 
ATOM     19  O   UNL     1       1.166   1.800   2.623  0.00  0.00    +0.000 OA
ATOM     20  H   UNL     1       3.117  -0.680   2.638  0.00  0.00    +0.000 HD
BRANCH  18  21
ATOM     21  C   UNL     1       1.357   0.145   4.289  0.00  0.00    +0.000 A 
ATOM     22  C   UNL     1       2.161  -0.554   5.173  0.00  0.00    +0.000 A 
ATOM     23  N   UNL     1       1.511  -0.827   6.343  0.00  0.00    +0.000 NA
ATOM     24  C   UNL     1       0.313  -0.316   6.189  0.00  0.00    +0.000 A 
ATOM     25  N   UNL     1       0.123   0.221   4.929  0.00  0.00    +0.000 N 
BRANCH  25  26
ATOM     26  C   UNL     1      -1.123   0.694   4.425  0.00  0.00    +0.000 A 
ATOM     27  C   UNL     1      -2.063   1.266   5.296  0.00  0.00    +0.000 A 
ATOM     28  C   UNL     1      -3.273   1.750   4.791  0.00  0.00    +0.000 A 
ATOM     29  C   UNL     1      -3.548   1.641   3.433  0.00  0.00    +0.000 A 
ATOM     30  F   UNL     1      -4.706   2.112   2.953  0.00  0.00    +0.000 F 
ATOM     31  C   UNL     1      -2.640   1.048   2.567  0.00  0.00    +0.000 A 
ATOM     32  C   UNL     1      -1.427   0.568   3.061  0.00  0.00    +0.000 A 
ENDBRANCH  25  26
ENDBRANCH  18  21
ENDBRANCH   1  17
TORSDOF 5
