REMARK  Name = 
REMARK  7 active torsions:
REMARK  status: ('A' for Active; 'I' for Inactive)
REMARK    1  A    between atoms: C_1  and  O_2
REMARK    2  A    between atoms: O_2  and  C_3
REMARK    3  A    between atoms: C_7  and  C_8
REMARK    4  A    between atoms: C_11  and  C_12
REMARK    5  A    between atoms: N_14  and  C_15
REMARK    6  A    between atoms: N_14  and  C_16
REMARK    7  A    between atoms: C_19  and  C_20
REMARK                            x       y       z     vdW  Elec       q    Type
REMARK                         _______ _______ _______ _____ _____    ______ ____
ROOT
ATOM      1  C   UNL     1      10.031  -4.069   1.125  0.00  0.00    +0.000 C 
ATOM      2  O   UNL     1      11.040  -3.695   0.515  0.00  0.00    +0.000 OA
ATOM      3  N   UNL     1      10.108  -4.913   2.246  0.00  0.00    +0.000 N 
ATOM      4  C   UNL     1       9.016  -5.499   3.023  0.00  0.00    +0.000 C 
ENDROOT
BRANCH   1   8
ATOM      5  C   UNL     1       6.298  -2.808  -0.445  0.00  0.00    +0.000 A 
ATOM      6  C   UNL     1       7.433  -3.001  -1.213  0.00  0.00    +0.000 A 
ATOM      7  N   UNL     1       8.625  -3.412  -0.743  0.00  0.00    +0.000 NA
ATOM      8  C   UNL     1       8.699  -3.627   0.584  0.00  0.00    +0.000 A 
ATOM      9  N   UNL     1       7.681  -3.442   1.446  0.00  0.00    +0.000 NA
ATOM     10  C   UNL     1       6.506  -3.061   0.902  0.00  0.00    +0.000 A 
BRANCH   5  15
ATOM     11  C   UNL     1       3.010  -0.945  -0.793  0.00  0.00    +0.000 A 
ATOM     12  C   UNL     1       2.675  -1.229  -2.111  0.00  0.00    +0.000 A 
ATOM     13  C   UNL     1       3.478  -2.078  -2.868  0.00  0.00    +0.000 A 
ATOM     14  C   UNL     1       4.637  -2.625  -2.313  0.00  0.00    +0.000 A 
ATOM     15  C   UNL     1       5.022  -2.326  -0.995  0.00  0.00    +0.000 A 
ATOM     16  C   UNL     1       4.168  -1.503  -0.240  0.00  0.00    +0.000 A 
BRANCH  11  18
ATOM     17  C   UNL     1       1.203   0.558  -0.510  0.00  0.00    +0.000 C 
ATOM     18  O   UNL     1       2.311  -0.129   0.057  0.00  0.00    +0.000 OA
ENDBRANCH  11  18
ENDBRANCH   5  15
ENDBRANCH   1   8
BRANCH   3  19
ATOM     19  C   UNL     1      11.375  -5.458   2.567  0.00  0.00    +0.000 A 
ATOM     20  C   UNL     1      12.419  -4.625   2.922  0.00  0.00    +0.000 A 
ATOM     21  C   UNL     1      13.629  -5.197   3.307  0.00  0.00    +0.000 A 
ATOM     22  C   UNL     1      13.768  -6.579   3.287  0.00  0.00    +0.000 A 
ATOM     23  N   UNL     1      12.717  -7.361   2.953  0.00  0.00    +0.000 NA
ATOM     24  N   UNL     1      11.508  -6.800   2.625  0.00  0.00    +0.000 NA
BRANCH  22  25
ATOM     25  C   UNL     1      15.020  -7.277   3.634  0.00  0.00    +0.000 A 
ATOM     26  C   UNL     1      14.990  -8.591   4.139  0.00  0.00    +0.000 A 
ATOM     27  C   UNL     1      16.170  -9.270   4.466  0.00  0.00    +0.000 A 
ATOM     28  C   UNL     1      17.399  -8.647   4.291  0.00  0.00    +0.000 A 
ATOM     29  C   UNL     1      17.457  -7.353   3.789  0.00  0.00    +0.000 A 
ATOM     30  C   UNL     1      16.275  -6.676   3.463  0.00  0.00    +0.000 A 
ENDBRANCH  22  25
ENDBRANCH   3  19
TORSDOF 5
