REMARK  Name = 
REMARK  8 active torsions:
REMARK  status: ('A' for Active; 'I' for Inactive)
REMARK    1  A    between atoms: C_2  and  C_3
REMARK    2  A    between atoms: C_2  and  O_11
REMARK    3  A    between atoms: C_3  and  C_4
REMARK    4  A    between atoms: C_4  and  C_5
REMARK    5  A    between atoms: O_11  and  C_12
REMARK    6  A    between atoms: C_12  and  C_13
REMARK    7  A    between atoms: C_13  and  C_15
REMARK    8  A    between atoms: C_16  and  C_17
REMARK                            x       y       z     vdW  Elec       q    Type
REMARK                         _______ _______ _______ _____ _____    ______ ____
ROOT
ATOM      1  C   UNL     1       6.397  -2.155   1.838  0.00  0.00    +0.000 A 
ATOM      2  C   UNL     1       7.035  -3.404   1.847  0.00  0.00    +0.000 A 
ATOM      3  N   UNL     1       8.374  -3.157   2.058  0.00  0.00    +0.000 N 
ATOM      4  C   UNL     1       8.623  -1.821   2.236  0.00  0.00    +0.000 A 
ATOM      5  C   UNL     1       9.836  -1.166   2.484  0.00  0.00    +0.000 A 
ATOM      6  C   UNL     1       9.812   0.221   2.638  0.00  0.00    +0.000 A 
ATOM      7  C   UNL     1       8.618   0.922   2.537  0.00  0.00    +0.000 A 
ATOM      8  C   UNL     1       7.420   0.251   2.268  0.00  0.00    +0.000 A 
ATOM      9  C   UNL     1       7.403  -1.157   2.121  0.00  0.00    +0.000 A 
ATOM     10  H   UNL     1       9.085  -3.871   2.115  0.00  0.00    +0.000 HD
ENDROOT
BRANCH   2  11
ATOM     11  C   UNL     1       6.534  -4.787   1.730  0.00  0.00    +0.000 A 
ATOM     12  C   UNL     1       7.304  -5.788   1.110  0.00  0.00    +0.000 A 
ATOM     13  C   UNL     1       6.836  -7.104   1.025  0.00  0.00    +0.000 A 
ATOM     14  C   UNL     1       5.590  -7.426   1.545  0.00  0.00    +0.000 A 
ATOM     15  F   UNL     1       5.138  -8.683   1.454  0.00  0.00    +0.000 F 
ATOM     16  C   UNL     1       4.809  -6.460   2.162  0.00  0.00    +0.000 A 
ATOM     17  C   UNL     1       5.288  -5.152   2.267  0.00  0.00    +0.000 A 
ENDBRANCH   2  11
BRANCH   1  18
ATOM     18  C   UNL     1       4.961  -1.945   1.582  0.00  0.00    +0.000 C 
ATOM     19  O   UNL     1       4.316  -2.707   0.860  0.00  0.00    +0.000 OA
BRANCH  18  20
ATOM     20  C   UNL     1       4.258  -0.799   2.309  0.00  0.00    +0.000 C 
BRANCH  20  21
ATOM     21  O   UNL     1       2.841  -0.800   2.122  0.00  0.00    +0.000 OA
BRANCH  21  23
ATOM     22  O   UNL     1       3.172   0.237   0.106  0.00  0.00    +0.000 OA
ATOM     23  C   UNL     1       2.428  -0.232   0.954  0.00  0.00    +0.000 C 
BRANCH  23  24
ATOM     24  C   UNL     1       0.925  -0.281   0.820  0.00  0.00    +0.000 C 
BRANCH  24  25
ATOM     25  C   UNL     1       0.235  -0.142   2.173  0.00  0.00    +0.000 C 
BRANCH  25  26
ATOM     26  C   UNL     1      -1.260  -0.097   2.066  0.00  0.00    +0.000 A 
ATOM     27  C   UNL     1      -2.017  -1.265   2.094  0.00  0.00    +0.000 A 
ATOM     28  N   UNL     1      -3.370  -1.266   2.066  0.00  0.00    +0.000 NA
ATOM     29  C   UNL     1      -3.944  -0.044   2.004  0.00  0.00    +0.000 A 
ATOM     30  C   UNL     1      -3.200   1.123   1.958  0.00  0.00    +0.000 A 
ATOM     31  N   UNL     1      -1.847   1.123   1.984  0.00  0.00    +0.000 NA
ENDBRANCH  25  26
ENDBRANCH  24  25
ENDBRANCH  23  24
ENDBRANCH  21  23
ENDBRANCH  20  21
ENDBRANCH  18  20
ENDBRANCH   1  18
TORSDOF 8
