REMARK  Name = 
REMARK  3 active torsions:
REMARK  status: ('A' for Active; 'I' for Inactive)
REMARK    1  A    between atoms: C_2  and  C_18
REMARK    2  A    between atoms: N_3  and  C_4
REMARK    3  A    between atoms: C_7  and  N_8
REMARK                            x       y       z     vdW  Elec       q    Type
REMARK                         _______ _______ _______ _____ _____    ______ ____
ROOT
ATOM      1  O   UNL     1       4.912   1.923   1.525  0.00  0.00    +0.000 OA
ATOM      2  C   UNL     1       4.261   1.192   0.785  0.00  0.00    +0.000 C 
ATOM      3  N   UNL     1       3.068   0.565   1.081  0.00  0.00    +0.000 N 
ATOM      4  H   UNL     1       2.728  -0.114   0.405  0.00  0.00    +0.000 HD
ENDROOT
BRANCH   2   5
ATOM      5  C   UNL     1       4.857   0.855  -0.540  0.00  0.00    +0.000 A 
ATOM      6  N   UNL     1       4.105   0.111  -1.386  0.00  0.00    +0.000 NA
ATOM      7  C   UNL     1       4.727  -0.411  -2.462  0.00  0.00    +0.000 A 
ATOM      8  C   UNL     1       4.034  -1.205  -3.362  0.00  0.00    +0.000 A 
ATOM      9  N   UNL     1       4.582  -1.912  -4.382  0.00  0.00    +0.000 NA
ATOM     10  C   UNL     1       5.915  -1.812  -4.530  0.00  0.00    +0.000 A 
ATOM     11  C   UNL     1       6.701  -0.978  -3.758  0.00  0.00    +0.000 A 
ATOM     12  C   UNL     1       6.101  -0.240  -2.716  0.00  0.00    +0.000 A 
ATOM     13  C   UNL     1       6.798   0.647  -1.873  0.00  0.00    +0.000 A 
ATOM     14 CL   UNL     1       8.460   1.053  -2.131  0.00  0.00    +0.000 Cl
ATOM     15  C   UNL     1       6.175   1.206  -0.772  0.00  0.00    +0.000 A 
ENDBRANCH   2   5
BRANCH   3  16
ATOM     16  C   UNL     1       2.353   0.713   2.292  0.00  0.00    +0.000 A 
ATOM     17  C   UNL     1       2.662   1.697   3.221  0.00  0.00    +0.000 A 
ATOM     18  C   UNL     1       1.938   1.826   4.409  0.00  0.00    +0.000 A 
ATOM     19  C   UNL     1       0.852   1.000   4.711  0.00  0.00    +0.000 A 
ATOM     20  C   UNL     1       0.558  -0.018   3.785  0.00  0.00    +0.000 A 
ATOM     21  C   UNL     1       1.295  -0.146   2.595  0.00  0.00    +0.000 A 
ATOM     22  F   UNL     1       0.964  -1.126   1.738  0.00  0.00    +0.000 F 
BRANCH  19  23
ATOM     23  N   UNL     1       0.066   1.210   5.913  0.00  0.00    +0.000 N 
ATOM     24  C   UNL     1      -0.695   0.179   6.470  0.00  0.00    +0.000 A 
ATOM     25  C   UNL     1      -1.468   0.347   7.551  0.00  0.00    +0.000 A 
ATOM     26  C   UNL     1      -1.545   1.627   8.194  0.00  0.00    +0.000 A 
ATOM     27  C   UNL     1      -0.822   2.647   7.725  0.00  0.00    +0.000 A 
ATOM     28  C   UNL     1       0.039   2.496   6.518  0.00  0.00    +0.000 A 
ATOM     29  O   UNL     1       0.611   3.519   6.144  0.00  0.00    +0.000 OA
ENDBRANCH  19  23
ENDBRANCH   3  16
TORSDOF 3
