REMARK  Name = 
REMARK  5 active torsions:
REMARK  status: ('A' for Active; 'I' for Inactive)
REMARK    1  A    between atoms: C_2  and  C_3
REMARK    2  A    between atoms: C_3  and  C_4
REMARK    3  A    between atoms: C_4  and  C_5
REMARK    4  A    between atoms: N_16  and  C_17
REMARK    5  A    between atoms: N_19  and  C_20
REMARK                            x       y       z     vdW  Elec       q    Type
REMARK                         _______ _______ _______ _____ _____    ______ ____
ROOT
ATOM      1  O   UNL     1       1.934  -0.520   0.535  0.00  0.00    +0.000 OA
ATOM      2  C   UNL     1       3.135  -0.667   0.320  0.00  0.00    +0.000 C 
ATOM      3  N   UNL     1       4.038  -1.273   1.194  0.00  0.00    +0.000 N 
ATOM      4  H   UNL     1       4.985  -1.401   0.853  0.00  0.00    +0.000 HD
ENDROOT
BRANCH   3   5
ATOM      5  C   UNL     1       3.888  -1.405   2.549  0.00  0.00    +0.000 A 
ATOM      6  C   UNL     1       2.808  -0.974   3.246  0.00  0.00    +0.000 A 
ATOM      7  N   UNL     1       3.067  -0.436   4.510  0.00  0.00    +0.000 N 
ATOM      8  C   UNL     1       3.996  -1.107   5.340  0.00  0.00    +0.000 A 
ATOM      9  O   UNL     1       4.149  -0.948   6.548  0.00  0.00    +0.000 OA
ATOM     10  C   UNL     1       4.857  -2.119   4.609  0.00  0.00    +0.000 A 
ATOM     11  C   UNL     1       5.086  -1.693   3.347  0.00  0.00    +0.000 A 
BRANCH   7  12
ATOM     12  C   UNL     1       2.998   1.015   4.617  0.00  0.00    +0.000 A 
ATOM     13  C   UNL     1       3.974   1.721   5.344  0.00  0.00    +0.000 A 
ATOM     14  C   UNL     1       3.986   3.116   5.399  0.00  0.00    +0.000 A 
ATOM     15  C   UNL     1       3.022   3.844   4.716  0.00  0.00    +0.000 A 
ATOM     16  C   UNL     1       2.088   3.176   3.930  0.00  0.00    +0.000 A 
ATOM     17  C   UNL     1       2.086   1.775   3.864  0.00  0.00    +0.000 A 
ENDBRANCH   7  12
ENDBRANCH   3   5
BRANCH   2  18
ATOM     18  C   UNL     1       3.771  -0.064  -0.918  0.00  0.00    +0.000 C 
BRANCH  18  19
ATOM     19  C   UNL     1       4.480  -1.105  -1.773  0.00  0.00    +0.000 C 
BRANCH  19  20
ATOM     20  C   UNL     1       4.938  -0.561  -3.098  0.00  0.00    +0.000 A 
ATOM     21  C   UNL     1       4.231  -0.720  -4.230  0.00  0.00    +0.000 A 
ATOM     22  C   UNL     1       4.777  -0.303  -5.519  0.00  0.00    +0.000 A 
ATOM     23  C   UNL     1       4.062  -0.490  -6.704  0.00  0.00    +0.000 A 
ATOM     24  C   UNL     1       4.636  -0.139  -7.927  0.00  0.00    +0.000 A 
ATOM     25  C   UNL     1       5.925   0.397  -7.968  0.00  0.00    +0.000 A 
ATOM     26  C   UNL     1       6.641   0.596  -6.788  0.00  0.00    +0.000 A 
ATOM     27  C   UNL     1       6.068   0.246  -5.572  0.00  0.00    +0.000 A 
ATOM     28  N   UNL     1       6.776   0.430  -4.369  0.00  0.00    +0.000 N 
ATOM     29  C   UNL     1       6.289   0.076  -3.139  0.00  0.00    +0.000 A 
ATOM     30  O   UNL     1       6.934   0.256  -2.112  0.00  0.00    +0.000 OA
ATOM     31  H   UNL     1       7.697   0.837  -4.390  0.00  0.00    +0.000 HD
ENDBRANCH  19  20
ENDBRANCH  18  19
ENDBRANCH   2  18
TORSDOF 5
