REMARK  Name = 
REMARK  4 active torsions:
REMARK  status: ('A' for Active; 'I' for Inactive)
REMARK    1  A    between atoms: C_2  and  C_3
REMARK    2  A    between atoms: N_5  and  C_6
REMARK    3  A    between atoms: C_23  and  O_24
REMARK    4  A    between atoms: O_24  and  C_25
REMARK                            x       y       z     vdW  Elec       q    Type
REMARK                         _______ _______ _______ _____ _____    ______ ____
ROOT
ATOM      1  O   UNL     1       2.416  -0.338   0.087  0.00  0.00    +0.000 OA
ATOM      2  C   UNL     1       2.331   0.879   0.277  0.00  0.00    +0.000 C 
ATOM      3  N   UNL     1       3.371   1.737  -0.066  0.00  0.00    +0.000 N 
ATOM      4  C   UNL     1       3.440   3.172   0.259  0.00  0.00    +0.000 C 
ATOM      5  C   UNL     1       4.821   3.793   0.091  0.00  0.00    +0.000 C 
ATOM      6  C   UNL     1       5.203   3.525  -1.338  0.00  0.00    +0.000 A 
ATOM      7  C   UNL     1       5.500   4.550  -2.232  0.00  0.00    +0.000 A 
ATOM      8  C   UNL     1       5.705   4.242  -3.573  0.00  0.00    +0.000 A 
ATOM      9  C   UNL     1       5.673   2.914  -4.015  0.00  0.00    +0.000 A 
ATOM     10  C   UNL     1       5.353   1.886  -3.125  0.00  0.00    +0.000 A 
ATOM     11  C   UNL     1       5.072   2.195  -1.790  0.00  0.00    +0.000 A 
ATOM     12  C   UNL     1       4.517   1.176  -0.811  0.00  0.00    +0.000 C 
ENDROOT
BRANCH   2  13
ATOM     13  C   UNL     1       1.089   1.406   0.973  0.00  0.00    +0.000 A 
ATOM     14  C   UNL     1       0.570   2.629   0.768  0.00  0.00    +0.000 A 
ATOM     15  N   UNL     1      -0.476   3.172   1.521  0.00  0.00    +0.000 N 
ATOM     16  C   UNL     1      -1.261   2.306   2.311  0.00  0.00    +0.000 A 
ATOM     17  O   UNL     1      -2.325   2.564   2.870  0.00  0.00    +0.000 OA
ATOM     18  C   UNL     1      -0.749   0.916   2.473  0.00  0.00    +0.000 A 
ATOM     19  C   UNL     1       0.376   0.519   1.870  0.00  0.00    +0.000 A 
BRANCH  15  20
ATOM     20  C   UNL     1      -0.690   4.624   1.567  0.00  0.00    +0.000 A 
ATOM     21  C   UNL     1      -1.426   5.227   2.611  0.00  0.00    +0.000 A 
ATOM     22  C   UNL     1      -1.560   6.614   2.728  0.00  0.00    +0.000 A 
ATOM     23  C   UNL     1      -0.952   7.454   1.808  0.00  0.00    +0.000 A 
ATOM     24  C   UNL     1      -0.214   6.890   0.782  0.00  0.00    +0.000 A 
ATOM     25  F   UNL     1       0.401   7.689  -0.101  0.00  0.00    +0.000 F 
ATOM     26  C   UNL     1      -0.084   5.504   0.652  0.00  0.00    +0.000 A 
ENDBRANCH  15  20
ENDBRANCH   2  13
BRANCH   9  27
ATOM     27  O   UNL     1       5.891   2.755  -5.353  0.00  0.00    +0.000 OA
BRANCH  27  28
ATOM     28  C   UNL     1       6.511   1.535  -5.719  0.00  0.00    +0.000 C 
ATOM     29  F   UNL     1       5.561   0.576  -5.837  0.00  0.00    +0.000 F 
ATOM     30  F   UNL     1       7.043   1.712  -6.955  0.00  0.00    +0.000 F 
ENDBRANCH  27  28
ENDBRANCH   9  27
TORSDOF 4
