REMARK  Name = 
REMARK  4 active torsions:
REMARK  status: ('A' for Active; 'I' for Inactive)
REMARK    1  A    between atoms: C_2  and  C_17
REMARK    2  A    between atoms: N_3  and  C_4
REMARK    3  A    between atoms: N_6  and  C_7
REMARK    4  A    between atoms: N_19  and  C_20
REMARK                            x       y       z     vdW  Elec       q    Type
REMARK                         _______ _______ _______ _____ _____    ______ ____
ROOT
ATOM      1  O   UNL     1       0.891  -0.231  -0.061  0.00  0.00    +0.000 OA
ATOM      2  C   UNL     1       2.113  -0.126   0.053  0.00  0.00    +0.000 C 
ATOM      3  N   UNL     1       2.770   0.446   1.129  0.00  0.00    +0.000 N 
ATOM      4  H   UNL     1       3.760   0.622   0.979  0.00  0.00    +0.000 HD
ENDROOT
BRANCH   3   5
ATOM      5  C   UNL     1       2.161   0.926   2.268  0.00  0.00    +0.000 A 
ATOM      6  C   UNL     1       0.940   0.545   2.681  0.00  0.00    +0.000 A 
ATOM      7  N   UNL     1       0.312   1.072   3.806  0.00  0.00    +0.000 N 
ATOM      8  C   UNL     1       0.932   2.076   4.567  0.00  0.00    +0.000 A 
ATOM      9  O   UNL     1       0.450   2.676   5.527  0.00  0.00    +0.000 OA
ATOM     10  C   UNL     1       2.298   2.475   4.123  0.00  0.00    +0.000 A 
ATOM     11  C   UNL     1       2.873   1.909   3.053  0.00  0.00    +0.000 A 
BRANCH   7  12
ATOM     12  C   UNL     1      -1.020   0.662   4.144  0.00  0.00    +0.000 A 
ATOM     13  C   UNL     1      -1.989   0.505   3.140  0.00  0.00    +0.000 A 
ATOM     14  C   UNL     1      -3.302   0.161   3.465  0.00  0.00    +0.000 A 
ATOM     15  C   UNL     1      -3.652  -0.075   4.792  0.00  0.00    +0.000 A 
ATOM     16  C   UNL     1      -2.690   0.035   5.794  0.00  0.00    +0.000 A 
ATOM     17  C   UNL     1      -1.384   0.414   5.473  0.00  0.00    +0.000 A 
ENDBRANCH   7  12
ENDBRANCH   3   5
BRANCH   2  18
ATOM     18  C   UNL     1       2.999  -0.578  -1.016  0.00  0.00    +0.000 A 
ATOM     19  C   UNL     1       2.564  -0.999  -2.258  0.00  0.00    +0.000 A 
ATOM     20  N   UNL     1       3.671  -1.426  -2.945  0.00  0.00    +0.000 N 
ATOM     21  C   UNL     1       4.735  -1.195  -2.093  0.00  0.00    +0.000 A 
ATOM     22  N   UNL     1       4.369  -0.664  -0.941  0.00  0.00    +0.000 NA
BRANCH  20  23
ATOM     23  C   UNL     1       3.689  -1.998  -4.251  0.00  0.00    +0.000 A 
ATOM     24  C   UNL     1       4.879  -2.494  -4.799  0.00  0.00    +0.000 A 
ATOM     25  C   UNL     1       4.874  -3.055  -6.080  0.00  0.00    +0.000 A 
ATOM     26 CL   UNL     1       6.339  -3.668  -6.745  0.00  0.00    +0.000 Cl
ATOM     27  C   UNL     1       3.699  -3.128  -6.824  0.00  0.00    +0.000 A 
ATOM     28  C   UNL     1       2.514  -2.640  -6.286  0.00  0.00    +0.000 A 
ATOM     29  C   UNL     1       2.506  -2.080  -5.005  0.00  0.00    +0.000 A 
ENDBRANCH  20  23
ENDBRANCH   2  18
TORSDOF 4
