REMARK  Name = 
REMARK  7 active torsions:
REMARK  status: ('A' for Active; 'I' for Inactive)
REMARK    1  A    between atoms: C_1  and  O_2
REMARK    2  A    between atoms: O_2  and  C_3
REMARK    3  A    between atoms: C_10  and  C_11
REMARK    4  A    between atoms: N_13  and  C_14
REMARK    5  A    between atoms: C_17  and  N_18
REMARK    6  A    between atoms: C_19  and  C_21
REMARK    7  A    between atoms: C_23  and  O_24
REMARK                            x       y       z     vdW  Elec       q    Type
REMARK                         _______ _______ _______ _____ _____    ______ ____
ROOT
ATOM      1  C   UNL     1       7.350  -0.085  -5.414  0.00  0.00    +0.000 A 
ATOM      2  C   UNL     1       8.727   0.096  -5.439  0.00  0.00    +0.000 A 
ATOM      3  C   UNL     1       9.461  -0.275  -6.571  0.00  0.00    +0.000 A 
ATOM      4  C   UNL     1       8.803  -0.832  -7.661  0.00  0.00    +0.000 A 
ATOM      5  N   UNL     1       7.480  -1.064  -7.635  0.00  0.00    +0.000 NA
ATOM      6  C   UNL     1       6.788  -0.701  -6.527  0.00  0.00    +0.000 A 
ENDROOT
BRANCH   1   9
ATOM      7  C   UNL     1       6.853   1.179  -3.314  0.00  0.00    +0.000 C 
ATOM      8  O   UNL     1       7.937   1.741  -3.195  0.00  0.00    +0.000 OA
ATOM      9  N   UNL     1       6.515   0.322  -4.349  0.00  0.00    +0.000 N 
ATOM     10  H   UNL     1       5.544   0.052  -4.418  0.00  0.00    +0.000 HD
BRANCH   7  18
ATOM     11  C   UNL     1       4.498   3.136   0.609  0.00  0.00    +0.000 A 
ATOM     12  C   UNL     1       3.242   2.921   1.196  0.00  0.00    +0.000 A 
ATOM     13  C   UNL     1       2.337   2.000   0.670  0.00  0.00    +0.000 A 
ATOM     14  C   UNL     1       2.655   1.257  -0.467  0.00  0.00    +0.000 A 
ATOM     15  C   UNL     1       3.906   1.443  -1.078  0.00  0.00    +0.000 A 
ATOM     16  C   UNL     1       4.794   2.369  -0.535  0.00  0.00    +0.000 A 
ATOM     17  N   UNL     1       5.923   2.334  -1.325  0.00  0.00    +0.000 N 
ATOM     18  C   UNL     1       5.788   1.417  -2.354  0.00  0.00    +0.000 A 
ATOM     19  C   UNL     1       4.532   0.858  -2.210  0.00  0.00    +0.000 A 
ATOM     20  H   UNL     1       6.748   2.901  -1.171  0.00  0.00    +0.000 HD
BRANCH  11  22
ATOM     21  C   UNL     1       5.084   4.788   2.207  0.00  0.00    +0.000 C 
ATOM     22  O   UNL     1       5.443   4.019   1.062  0.00  0.00    +0.000 OA
ENDBRANCH  11  22
ENDBRANCH   7  18
ENDBRANCH   1   9
BRANCH   4  23
ATOM     23  N   UNL     1       9.564  -1.104  -8.809  0.00  0.00    +0.000 N 
ATOM     24  C   UNL     1       9.062  -1.653  -9.973  0.00  0.00    +0.000 C 
ATOM     25  O   UNL     1       7.939  -2.112 -10.150  0.00  0.00    +0.000 OA
ATOM     26  H   UNL     1      10.547  -0.886  -8.761  0.00  0.00    +0.000 HD
BRANCH  24  27
ATOM     27  C   UNL     1      10.010  -1.708 -11.126  0.00  0.00    +0.000 A 
ATOM     28  C   UNL     1       9.831  -2.730 -12.070  0.00  0.00    +0.000 A 
ATOM     29  C   UNL     1      10.644  -2.779 -13.197  0.00  0.00    +0.000 A 
ATOM     30  C   UNL     1      11.637  -1.829 -13.400  0.00  0.00    +0.000 A 
ATOM     31  C   UNL     1      11.820  -0.807 -12.467  0.00  0.00    +0.000 A 
ATOM     32  C   UNL     1      11.006  -0.741 -11.331  0.00  0.00    +0.000 A 
BRANCH  29  33
ATOM     33  O   UNL     1      10.486  -3.746 -14.145  0.00  0.00    +0.000 OA
ATOM     34  H   UNL     1       9.705  -4.279 -13.918  0.00  0.00    +0.000 HD
ENDBRANCH  29  33
ENDBRANCH  24  27
ENDBRANCH   4  23
TORSDOF 6
