REMARK  Name = 
REMARK  4 active torsions:
REMARK  status: ('A' for Active; 'I' for Inactive)
REMARK    1  A    between atoms: C_2  and  C_15
REMARK    2  A    between atoms: N_3  and  C_4
REMARK    3  A    between atoms: C_16  and  S_17
REMARK    4  A    between atoms: S_17  and  C_20
REMARK                            x       y       z     vdW  Elec       q    Type
REMARK                         _______ _______ _______ _____ _____    ______ ____
ROOT
ATOM      1  O   UNL     1       0.945  -0.039   0.156  0.00  0.00    +0.000 OA
ATOM      2  C   UNL     1       2.163   0.086   0.199  0.00  0.00    +0.000 C 
ATOM      3  N   UNL     1       2.871   1.258  -0.020  0.00  0.00    +0.000 N 
ATOM      4  H   UNL     1       3.873   1.181  -0.136  0.00  0.00    +0.000 HD
ENDROOT
BRANCH   3   5
ATOM      5  C   UNL     1       2.295   2.533  -0.249  0.00  0.00    +0.000 A 
ATOM      6  C   UNL     1       0.949   2.807   0.009  0.00  0.00    +0.000 A 
ATOM      7  C   UNL     1       0.408   4.072  -0.232  0.00  0.00    +0.000 A 
ATOM      8  C   UNL     1       1.211   5.101  -0.734  0.00  0.00    +0.000 A 
ATOM      9  C   UNL     1       0.705   6.379  -0.997  0.00  0.00    +0.000 A 
ATOM     10  N   UNL     1       1.434   7.409  -1.482  0.00  0.00    +0.000 NA
ATOM     11  C   UNL     1       2.737   7.148  -1.725  0.00  0.00    +0.000 A 
ATOM     12  C   UNL     1       3.336   5.916  -1.501  0.00  0.00    +0.000 A 
ATOM     13  F   UNL     1       4.638   5.754  -1.776  0.00  0.00    +0.000 F 
ATOM     14  C   UNL     1       2.574   4.855  -0.992  0.00  0.00    +0.000 A 
ATOM     15  C   UNL     1       3.107   3.568  -0.735  0.00  0.00    +0.000 A 
ENDBRANCH   3   5
BRANCH   2  16
ATOM     16  C   UNL     1       2.978  -1.073   0.519  0.00  0.00    +0.000 A 
ATOM     17  C   UNL     1       2.662  -2.367   0.097  0.00  0.00    +0.000 A 
ATOM     18  O   UNL     1       3.555  -3.236   0.692  0.00  0.00    +0.000 OA
ATOM     19  C   UNL     1       4.421  -2.513   1.438  0.00  0.00    +0.000 A 
ATOM     20  C   UNL     1       4.132  -1.175   1.348  0.00  0.00    +0.000 A 
BRANCH  17  21
ATOM     21  S   UNL     1       1.396  -2.977  -1.029  0.00  0.00    +0.000 S 
ATOM     22  O   UNL     1       1.278  -1.952  -2.050  0.00  0.00    +0.000 OA
ATOM     23  O   UNL     1       1.805  -4.326  -1.371  0.00  0.00    +0.000 OA
BRANCH  21  24
ATOM     24  C   UNL     1      -0.112  -3.097  -0.111  0.00  0.00    +0.000 A 
ATOM     25  C   UNL     1      -1.243  -2.385  -0.519  0.00  0.00    +0.000 A 
ATOM     26  C   UNL     1      -2.428  -2.502   0.210  0.00  0.00    +0.000 A 
ATOM     27  C   UNL     1      -2.482  -3.332   1.331  0.00  0.00    +0.000 A 
ATOM     28  C   UNL     1      -1.356  -4.059   1.721  0.00  0.00    +0.000 A 
ATOM     29  C   UNL     1      -0.168  -3.949   0.998  0.00  0.00    +0.000 A 
ENDBRANCH  21  24
ENDBRANCH  17  21
ENDBRANCH   2  16
TORSDOF 4
