REMARK  Name = 
REMARK  5 active torsions:
REMARK  status: ('A' for Active; 'I' for Inactive)
REMARK    1  A    between atoms: C_2  and  C_23
REMARK    2  A    between atoms: N_3  and  C_4
REMARK    3  A    between atoms: C_7  and  N_8
REMARK    4  A    between atoms: C_9  and  C_11
REMARK    5  A    between atoms: C_25  and  O_26
REMARK                            x       y       z     vdW  Elec       q    Type
REMARK                         _______ _______ _______ _____ _____    ______ ____
ROOT
ATOM      1  C   UNL     1       2.352  -0.354   2.443  0.00  0.00    +0.000 A 
ATOM      2  C   UNL     1       1.208  -1.135   2.351  0.00  0.00    +0.000 A 
ATOM      3  C   UNL     1       0.461  -1.395   3.507  0.00  0.00    +0.000 A 
ATOM      4  C   UNL     1       0.855  -0.852   4.725  0.00  0.00    +0.000 A 
ATOM      5  C   UNL     1       2.004  -0.071   4.712  0.00  0.00    +0.000 A 
ATOM      6  N   UNL     1       2.744   0.185   3.610  0.00  0.00    +0.000 NA
ENDROOT
BRANCH   1   9
ATOM      7  O   UNL     1       5.097   0.573   2.256  0.00  0.00    +0.000 OA
ATOM      8  C   UNL     1       4.380   0.384   1.283  0.00  0.00    +0.000 C 
ATOM      9  N   UNL     1       3.094  -0.118   1.274  0.00  0.00    +0.000 N 
ATOM     10  H   UNL     1       2.700  -0.439   0.401  0.00  0.00    +0.000 HD
BRANCH   8  11
ATOM     11  C   UNL     1       4.980   0.653  -0.048  0.00  0.00    +0.000 A 
ATOM     12  C   UNL     1       6.345   0.374  -0.203  0.00  0.00    +0.000 A 
ATOM     13  C   UNL     1       6.985   0.719  -1.386  0.00  0.00    +0.000 A 
ATOM     14  C   UNL     1       6.289   1.349  -2.411  0.00  0.00    +0.000 A 
ATOM     15  C   UNL     1       4.926   1.616  -2.264  0.00  0.00    +0.000 A 
ATOM     16  C   UNL     1       4.263   1.263  -1.084  0.00  0.00    +0.000 A 
BRANCH  13  17
ATOM     17  O   UNL     1       8.312   0.468  -1.571  0.00  0.00    +0.000 OA
ATOM     18  H   UNL     1       8.656   0.026  -0.775  0.00  0.00    +0.000 HD
ENDBRANCH  13  17
ENDBRANCH   8  11
ENDBRANCH   1   9
BRANCH   4  19
ATOM     19  N   UNL     1       0.184  -1.049   5.950  0.00  0.00    +0.000 N 
ATOM     20  C   UNL     1      -0.971  -1.777   6.163  0.00  0.00    +0.000 C 
ATOM     21  O   UNL     1      -1.622  -2.345   5.290  0.00  0.00    +0.000 OA
ATOM     22  H   UNL     1       0.614  -0.612   6.761  0.00  0.00    +0.000 HD
BRANCH  20  23
ATOM     23  C   UNL     1      -1.445  -1.893   7.576  0.00  0.00    +0.000 A 
ATOM     24  C   UNL     1      -2.612  -2.631   7.825  0.00  0.00    +0.000 A 
ATOM     25  C   UNL     1      -3.084  -2.848   9.126  0.00  0.00    +0.000 A 
ATOM     26  C   UNL     1      -2.335  -2.315  10.179  0.00  0.00    +0.000 A 
ATOM     27  N   UNL     1      -2.522  -2.404  11.541  0.00  0.00    +0.000 N 
ATOM     28  C   UNL     1      -1.516  -1.746  12.199  0.00  0.00    +0.000 A 
ATOM     29  C   UNL     1      -0.683  -1.194  11.253  0.00  0.00    +0.000 A 
ATOM     30  C   UNL     1      -1.180  -1.560   9.973  0.00  0.00    +0.000 A 
ATOM     31  C   UNL     1      -0.746  -1.336   8.654  0.00  0.00    +0.000 A 
ATOM     32  F   UNL     1       0.363  -0.603   8.453  0.00  0.00    +0.000 F 
ATOM     33  H   UNL     1      -3.278  -2.906  11.986  0.00  0.00    +0.000 HD
ENDBRANCH  20  23
ENDBRANCH   4  19
TORSDOF 5
