REMARK  Name = 
REMARK  8 active torsions:
REMARK  status: ('A' for Active; 'I' for Inactive)
REMARK    1  A    between atoms: C_1  and  C_2
REMARK    2  A    between atoms: C_2  and  C_3
REMARK    3  A    between atoms: C_4  and  C_5
REMARK    4  A    between atoms: N_7  and  C_8
REMARK    5  A    between atoms: C_8  and  C_9
REMARK    6  A    between atoms: C_13  and  C_14
REMARK    7  A    between atoms: N_23  and  C_24
REMARK    8  A    between atoms: C_24  and  C_25
REMARK                            x       y       z     vdW  Elec       q    Type
REMARK                         _______ _______ _______ _____ _____    ______ ____
ROOT
ATOM      1  C   UNL     1       5.640   0.944   0.065  0.00  0.00    +0.000 C 
ATOM      2  O   UNL     1       6.729   1.478   0.217  0.00  0.00    +0.000 OA
ATOM      3  N   UNL     1       5.476  -0.417  -0.063  0.00  0.00    +0.000 N 
ATOM      4  H   UNL     1       4.549  -0.768  -0.272  0.00  0.00    +0.000 HD
ENDROOT
BRANCH   1   6
ATOM      5  C   UNL     1       4.229   3.048  -0.376  0.00  0.00    +0.000 A 
ATOM      6  C   UNL     1       4.386   1.704  -0.027  0.00  0.00    +0.000 A 
ATOM      7  N   UNL     1       3.164   1.143   0.217  0.00  0.00    +0.000 NA
ATOM      8  N   UNL     1       2.245   2.080   0.060  0.00  0.00    +0.000 NA
ATOM      9  N   UNL     1       2.861   3.232  -0.306  0.00  0.00    +0.000 N 
BRANCH   5  11
ATOM     10  C   UNL     1       5.114   5.381  -1.193  0.00  0.00    +0.000 C 
ATOM     11  C   UNL     1       5.359   3.965  -0.735  0.00  0.00    +0.000 C 
ENDBRANCH   5  11
BRANCH   9  12
ATOM     12  C   UNL     1       1.981   4.330  -0.703  0.00  0.00    +0.000 C 
BRANCH  12  13
ATOM     13  C   UNL     1       1.661   5.298   0.414  0.00  0.00    +0.000 A 
ATOM     14  C   UNL     1       1.863   6.676   0.221  0.00  0.00    +0.000 A 
ATOM     15  C   UNL     1       1.673   7.579   1.269  0.00  0.00    +0.000 A 
ATOM     16  C   UNL     1       1.241   7.115   2.504  0.00  0.00    +0.000 A 
ATOM     17  F   UNL     1       1.120   7.972   3.526  0.00  0.00    +0.000 F 
ATOM     18  C   UNL     1       0.933   5.774   2.691  0.00  0.00    +0.000 A 
ATOM     19  C   UNL     1       1.128   4.867   1.643  0.00  0.00    +0.000 A 
ENDBRANCH  12  13
ENDBRANCH   9  12
ENDBRANCH   1   6
BRANCH   3  20
ATOM     20  C   UNL     1       6.583  -1.346   0.010  0.00  0.00    +0.000 C 
BRANCH  20  21
ATOM     21  C   UNL     1       6.408  -2.389   1.091  0.00  0.00    +0.000 A 
ATOM     22  C   UNL     1       6.905  -3.685   0.902  0.00  0.00    +0.000 A 
ATOM     23  C   UNL     1       6.803  -4.636   1.915  0.00  0.00    +0.000 A 
ATOM     24  C   UNL     1       6.213  -4.301   3.137  0.00  0.00    +0.000 A 
ATOM     25  C   UNL     1       5.728  -3.005   3.383  0.00  0.00    +0.000 A 
ATOM     26  C   UNL     1       5.841  -2.065   2.339  0.00  0.00    +0.000 A 
BRANCH  25  27
ATOM     27  C   UNL     1       5.141  -2.635   4.691  0.00  0.00    +0.000 A 
ATOM     28  C   UNL     1       4.094  -1.712   4.811  0.00  0.00    +0.000 A 
ATOM     29  C   UNL     1       3.571  -1.379   6.061  0.00  0.00    +0.000 A 
ATOM     30  C   UNL     1       4.104  -1.997   7.183  0.00  0.00    +0.000 A 
ATOM     31  N   UNL     1       5.107  -2.891   7.128  0.00  0.00    +0.000 NA
ATOM     32  C   UNL     1       5.600  -3.180   5.895  0.00  0.00    +0.000 A 
ENDBRANCH  25  27
ENDBRANCH  20  21
ENDBRANCH   3  20
TORSDOF 7
