REMARK  Name = 
REMARK  5 active torsions:
REMARK  status: ('A' for Active; 'I' for Inactive)
REMARK    1  A    between atoms: C_1  and  N_2
REMARK    2  A    between atoms: N_2  and  C_16
REMARK    3  A    between atoms: C_3  and  C_5
REMARK    4  A    between atoms: C_19  and  O_20
REMARK    5  A    between atoms: O_20  and  C_21
REMARK                            x       y       z     vdW  Elec       q    Type
REMARK                         _______ _______ _______ _____ _____    ______ ____
ROOT
ATOM      1  C   UNL     1       1.114   0.144  -0.077  0.00  0.00    +0.000 C 
ATOM      2  N   UNL     1       2.573   0.119  -0.032  0.00  0.00    +0.000 N 
ATOM      3  C   UNL     1       3.261   0.946   0.880  0.00  0.00    +0.000 C 
ATOM      4  O   UNL     1       2.667   1.757   1.598  0.00  0.00    +0.000 OA
ENDROOT
BRANCH   3   5
ATOM      5  C   UNL     1       4.755   0.836   1.080  0.00  0.00    +0.000 A 
ATOM      6  C   UNL     1       5.643   0.432   0.073  0.00  0.00    +0.000 A 
ATOM      7  C   UNL     1       6.967   0.110   0.360  0.00  0.00    +0.000 A 
ATOM      8  C   UNL     1       7.459   0.340   1.637  0.00  0.00    +0.000 A 
ATOM      9  C   UNL     1       8.841  -0.017   1.990  0.00  0.00    +0.000 A 
ATOM     10  O   UNL     1       9.566  -0.606   1.198  0.00  0.00    +0.000 OA
ATOM     11  N   UNL     1       9.242   0.337   3.256  0.00  0.00    +0.000 N 
ATOM     12  N   UNL     1       8.488   1.000   4.184  0.00  0.00    +0.000 NA
ATOM     13  C   UNL     1       7.258   1.274   3.872  0.00  0.00    +0.000 A 
ATOM     14  C   UNL     1       6.641   0.917   2.597  0.00  0.00    +0.000 A 
ATOM     15  C   UNL     1       5.285   1.150   2.341  0.00  0.00    +0.000 A 
ATOM     16  H   UNL     1      10.193   0.105   3.523  0.00  0.00    +0.000 HD
ENDBRANCH   3   5
BRANCH   2  17
ATOM     17  C   UNL     1       3.159  -0.960  -0.730  0.00  0.00    +0.000 A 
ATOM     18  C   UNL     1       3.524  -2.130  -0.061  0.00  0.00    +0.000 A 
ATOM     19  C   UNL     1       4.293  -3.087  -0.726  0.00  0.00    +0.000 A 
ATOM     20  C   UNL     1       4.662  -2.889  -2.062  0.00  0.00    +0.000 A 
ATOM     21  C   UNL     1       4.287  -1.722  -2.727  0.00  0.00    +0.000 A 
ATOM     22  C   UNL     1       3.499  -0.773  -2.076  0.00  0.00    +0.000 A 
BRANCH  20  23
ATOM     23  O   UNL     1       5.460  -3.757  -2.773  0.00  0.00    +0.000 OA
BRANCH  23  24
ATOM     24  C   UNL     1       5.257  -5.112  -2.648  0.00  0.00    +0.000 A 
ATOM     25  C   UNL     1       4.026  -5.699  -2.339  0.00  0.00    +0.000 A 
ATOM     26  C   UNL     1       3.929  -7.081  -2.187  0.00  0.00    +0.000 A 
ATOM     27  C   UNL     1       5.045  -7.886  -2.402  0.00  0.00    +0.000 A 
ATOM     28  C   UNL     1       6.258  -7.311  -2.781  0.00  0.00    +0.000 A 
ATOM     29  C   UNL     1       6.364  -5.924  -2.902  0.00  0.00    +0.000 A 
ENDBRANCH  23  24
ENDBRANCH  20  23
ENDBRANCH   2  17
TORSDOF 4
