REMARK  Name = 
REMARK  9 active torsions:
REMARK  status: ('A' for Active; 'I' for Inactive)
REMARK    1  A    between atoms: C_1  and  O_2
REMARK    2  A    between atoms: O_2  and  C_3
REMARK    3  A    between atoms: C_6  and  C_7
REMARK    4  A    between atoms: C_9  and  C_10
REMARK    5  A    between atoms: N_12  and  C_13
REMARK    6  A    between atoms: C_20  and  C_21
REMARK    7  A    between atoms: C_21  and  O_23
REMARK    8  A    between atoms: C_28  and  C_29
REMARK    9  A    between atoms: C_29  and  O_30
REMARK                            x       y       z     vdW  Elec       q    Type
REMARK                         _______ _______ _______ _____ _____    ______ ____
ROOT
ATOM      1  C   UNL     1       5.256  -3.771  -3.157  0.00  0.00    +0.000 A 
ATOM      2  C   UNL     1       6.020  -3.489  -4.305  0.00  0.00    +0.000 A 
ATOM      3  C   UNL     1       6.667  -4.490  -5.046  0.00  0.00    +0.000 A 
ATOM      4  C   UNL     1       6.628  -5.805  -4.573  0.00  0.00    +0.000 A 
ATOM      5  C   UNL     1       5.905  -6.114  -3.422  0.00  0.00    +0.000 A 
ATOM      6  C   UNL     1       5.210  -5.112  -2.738  0.00  0.00    +0.000 A 
ENDROOT
BRANCH   1  10
ATOM      7  C   UNL     1       3.272  -0.570  -1.020  0.00  0.00    +0.000 A 
ATOM      8  C   UNL     1       3.676  -1.731  -0.357  0.00  0.00    +0.000 A 
ATOM      9  C   UNL     1       4.324  -2.760  -1.047  0.00  0.00    +0.000 A 
ATOM     10  C   UNL     1       4.550  -2.689  -2.428  0.00  0.00    +0.000 A 
ATOM     11  C   UNL     1       4.094  -1.529  -3.084  0.00  0.00    +0.000 A 
ATOM     12  C   UNL     1       3.497  -0.448  -2.400  0.00  0.00    +0.000 A 
BRANCH   7  14
ATOM     13  C   UNL     1       2.832   0.578   1.009  0.00  0.00    +0.000 C 
ATOM     14  O   UNL     1       2.635   0.475  -0.399  0.00  0.00    +0.000 OA
ENDBRANCH   7  14
BRANCH  12  15
ATOM     15  C   UNL     1       3.102   0.764  -3.217  0.00  0.00    +0.000 C 
BRANCH  15  16
ATOM     16  O   UNL     1       3.216   1.998  -2.519  0.00  0.00    +0.000 OA
ATOM     17  H   UNL     1       2.953   1.810  -1.599  0.00  0.00    +0.000 HD
ENDBRANCH  15  16
ENDBRANCH  12  15
ENDBRANCH   1  10
BRANCH   3  18
ATOM     18  C   UNL     1       7.380  -4.159  -6.282  0.00  0.00    +0.000 A 
ATOM     19  N   UNL     1       8.533  -4.779  -6.579  0.00  0.00    +0.000 NA
ATOM     20  N   UNL     1       8.966  -4.225  -7.731  0.00  0.00    +0.000 N 
ATOM     21  C   UNL     1       8.091  -3.267  -8.187  0.00  0.00    +0.000 A 
ATOM     22  C   UNL     1       7.039  -3.205  -7.291  0.00  0.00    +0.000 A 
BRANCH  20  23
ATOM     23  C   UNL     1      10.190  -4.637  -8.324  0.00  0.00    +0.000 A 
ATOM     24  C   UNL     1      10.912  -5.690  -7.754  0.00  0.00    +0.000 A 
ATOM     25  C   UNL     1      12.103  -6.065  -8.351  0.00  0.00    +0.000 A 
ATOM     26  N   UNL     1      12.612  -5.469  -9.450  0.00  0.00    +0.000 NA
ATOM     27  C   UNL     1      11.898  -4.454  -9.979  0.00  0.00    +0.000 A 
ATOM     28  C   UNL     1      10.692  -4.005  -9.464  0.00  0.00    +0.000 A 
ENDBRANCH  20  23
BRANCH  22  29
ATOM     29  C   UNL     1       5.849  -2.381  -7.411  0.00  0.00    +0.000 C 
ATOM     30  O   UNL     1       4.766  -2.657  -6.925  0.00  0.00    +0.000 OA
BRANCH  29  31
ATOM     31  O   UNL     1       6.026  -1.228  -8.114  0.00  0.00    +0.000 OA
ATOM     32  H   UNL     1       6.956  -1.062  -8.351  0.00  0.00    +0.000 HD
ENDBRANCH  29  31
ENDBRANCH  22  29
ENDBRANCH   3  18
TORSDOF 8
