REMARK  Name = 
REMARK  6 active torsions:
REMARK  status: ('A' for Active; 'I' for Inactive)
REMARK    1  A    between atoms: C_2  and  C_16
REMARK    2  A    between atoms: N_3  and  C_4
REMARK    3  A    between atoms: C_4  and  C_5
REMARK    4  A    between atoms: C_9  and  C_10
REMARK    5  A    between atoms: N_18  and  C_19
REMARK    6  A    between atoms: C_27  and  O_28
REMARK                            x       y       z     vdW  Elec       q    Type
REMARK                         _______ _______ _______ _____ _____    ______ ____
ROOT
ATOM      1  O   UNL     1       0.956   0.228  -0.023  0.00  0.00    +0.000 OA
ATOM      2  C   UNL     1       2.183   0.185  -0.022  0.00  0.00    +0.000 C 
ATOM      3  N   UNL     1       2.912  -0.285   1.048  0.00  0.00    +0.000 N 
ATOM      4  H   UNL     1       3.922  -0.284   0.952  0.00  0.00    +0.000 HD
ENDROOT
BRANCH   2   5
ATOM      5  C   UNL     1       3.009   0.644  -1.151  0.00  0.00    +0.000 A 
ATOM      6  N   UNL     1       4.361   0.615  -1.116  0.00  0.00    +0.000 NA
ATOM      7  N   UNL     1       4.758   1.170  -2.296  0.00  0.00    +0.000 N 
ATOM      8  C   UNL     1       3.686   1.497  -3.095  0.00  0.00    +0.000 A 
ATOM      9  C   UNL     1       2.566   1.168  -2.383  0.00  0.00    +0.000 A 
BRANCH   7  10
ATOM     10  C   UNL     1       6.140   1.363  -2.587  0.00  0.00    +0.000 A 
ATOM     11  C   UNL     1       7.114   0.899  -1.685  0.00  0.00    +0.000 A 
ATOM     12  C   UNL     1       8.471   1.090  -1.954  0.00  0.00    +0.000 A 
ATOM     13  C   UNL     1       8.856   1.745  -3.118  0.00  0.00    +0.000 A 
ATOM     14  F   UNL     1      10.156   1.932  -3.375  0.00  0.00    +0.000 F 
ATOM     15  C   UNL     1       7.908   2.212  -4.021  0.00  0.00    +0.000 A 
ATOM     16  C   UNL     1       6.548   2.023  -3.761  0.00  0.00    +0.000 A 
ENDBRANCH   7  10
BRANCH   9  17
ATOM     17  O   UNL     1       1.312   1.345  -2.823  0.00  0.00    +0.000 OA
ATOM     18  H   UNL     1       1.301   1.716  -3.720  0.00  0.00    +0.000 HD
ENDBRANCH   9  17
ENDBRANCH   2   5
BRANCH   3  19
ATOM     19  C   UNL     1       2.289  -0.768   2.254  0.00  0.00    +0.000 C 
BRANCH  19  20
ATOM     20  C   UNL     1       2.670   0.041   3.469  0.00  0.00    +0.000 A 
ATOM     21  C   UNL     1       2.518   1.434   3.483  0.00  0.00    +0.000 A 
ATOM     22  C   UNL     1       2.775   2.162   4.643  0.00  0.00    +0.000 A 
ATOM     23  C   UNL     1       3.151   1.501   5.814  0.00  0.00    +0.000 A 
ATOM     24  C   UNL     1       3.278   0.105   5.844  0.00  0.00    +0.000 A 
ATOM     25  C   UNL     1       3.063  -0.608   4.653  0.00  0.00    +0.000 A 
BRANCH  24  26
ATOM     26  C   UNL     1       3.536  -0.583   7.107  0.00  0.00    +0.000 A 
ATOM     27  C   UNL     1       3.593  -0.176   8.428  0.00  0.00    +0.000 A 
ATOM     28  C   UNL     1       3.778  -1.341   9.210  0.00  0.00    +0.000 A 
ATOM     29  C   UNL     1       3.847  -2.387   8.322  0.00  0.00    +0.000 A 
ATOM     30  O   UNL     1       3.709  -1.939   7.048  0.00  0.00    +0.000 OA
ENDBRANCH  24  26
ENDBRANCH  19  20
ENDBRANCH   3  19
TORSDOF 6
