REMARK  Name = 
REMARK  5 active torsions:
REMARK  status: ('A' for Active; 'I' for Inactive)
REMARK    1  A    between atoms: C_2  and  C_17
REMARK    2  A    between atoms: N_3  and  C_4
REMARK    3  A    between atoms: C_7  and  C_8
REMARK    4  A    between atoms: C_10  and  O_11
REMARK    5  A    between atoms: C_25  and  C_26
REMARK                            x       y       z     vdW  Elec       q    Type
REMARK                         _______ _______ _______ _____ _____    ______ ____
ROOT
ATOM      1  O   UNL     1       1.060  -0.343  -0.081  0.00  0.00    +0.000 OA
ATOM      2  C   UNL     1       2.250  -0.069  -0.033  0.00  0.00    +0.000 C 
ATOM      3  N   UNL     1       2.892   0.461   1.072  0.00  0.00    +0.000 N 
ATOM      4  H   UNL     1       3.855   0.764   0.958  0.00  0.00    +0.000 HD
ENDROOT
BRANCH   2   5
ATOM      5  C   UNL     1       3.060  -0.280  -1.203  0.00  0.00    +0.000 A 
ATOM      6  C   UNL     1       4.338  -0.795  -1.279  0.00  0.00    +0.000 A 
ATOM      7  C   UNL     1       5.309  -1.260  -0.340  0.00  0.00    +0.000 A 
ATOM      8  C   UNL     1       6.479  -1.757  -0.783  0.00  0.00    +0.000 A 
ATOM      9  C   UNL     1       6.779  -1.853  -2.197  0.00  0.00    +0.000 A 
ATOM     10  C   UNL     1       5.853  -1.442  -3.082  0.00  0.00    +0.000 A 
ATOM     11  N   UNL     1       4.639  -0.916  -2.635  0.00  0.00    +0.000 N 
ATOM     12  N   UNL     1       3.621  -0.471  -3.408  0.00  0.00    +0.000 NA
ATOM     13  C   UNL     1       2.643  -0.106  -2.558  0.00  0.00    +0.000 A 
BRANCH  13  14
ATOM     14  C   UNL     1       1.315   0.434  -3.062  0.00  0.00    +0.000 C 
ATOM     15  F   UNL     1       0.487   0.897  -2.099  0.00  0.00    +0.000 F 
ATOM     16  F   UNL     1       1.504   1.490  -3.908  0.00  0.00    +0.000 F 
ATOM     17  F   UNL     1       0.618  -0.503  -3.765  0.00  0.00    +0.000 F 
ENDBRANCH  13  14
ENDBRANCH   2   5
BRANCH   3  18
ATOM     18  C   UNL     1       2.223   0.791   2.265  0.00  0.00    +0.000 A 
ATOM     19  C   UNL     1       0.938   0.391   2.574  0.00  0.00    +0.000 A 
ATOM     20  N   UNL     1       0.267   0.778   3.671  0.00  0.00    +0.000 NA
ATOM     21  C   UNL     1       0.910   1.602   4.508  0.00  0.00    +0.000 A 
ATOM     22  N   UNL     1       2.186   2.012   4.342  0.00  0.00    +0.000 NA
ATOM     23  C   UNL     1       2.817   1.589   3.224  0.00  0.00    +0.000 A 
BRANCH  21  24
ATOM     24  C   UNL     1       0.145   2.094   5.662  0.00  0.00    +0.000 A 
ATOM     25  C   UNL     1      -1.190   1.691   5.879  0.00  0.00    +0.000 A 
ATOM     26  C   UNL     1      -1.908   2.162   6.971  0.00  0.00    +0.000 A 
ATOM     27  C   UNL     1      -1.329   3.047   7.870  0.00  0.00    +0.000 A 
ATOM     28  C   UNL     1      -0.013   3.462   7.675  0.00  0.00    +0.000 A 
ATOM     29  C   UNL     1       0.715   2.988   6.580  0.00  0.00    +0.000 A 
BRANCH  26  30
ATOM     30  O   UNL     1      -3.194   1.772   7.201  0.00  0.00    +0.000 OA
ATOM     31  H   UNL     1      -3.450   1.128   6.519  0.00  0.00    +0.000 HD
ENDBRANCH  26  30
ENDBRANCH  21  24
ENDBRANCH   3  18
TORSDOF 5
