REMARK  Name = 
REMARK  4 active torsions:
REMARK  status: ('A' for Active; 'I' for Inactive)
REMARK    1  A    between atoms: C_2  and  C_16
REMARK    2  A    between atoms: N_3  and  C_4
REMARK    3  A    between atoms: C_8  and  N_9
REMARK    4  A    between atoms: C_19  and  C_20
REMARK                            x       y       z     vdW  Elec       q    Type
REMARK                         _______ _______ _______ _____ _____    ______ ____
ROOT
ATOM      1  O   UNL     1       1.040   0.086  -0.206  0.00  0.00    +0.000 OA
ATOM      2  C   UNL     1       2.246   0.040   0.036  0.00  0.00    +0.000 C 
ATOM      3  N   UNL     1       2.867  -0.910   0.824  0.00  0.00    +0.000 N 
ATOM      4  H   UNL     1       3.843  -0.764   1.063  0.00  0.00    +0.000 HD
ENDROOT
BRANCH   2   5
ATOM      5  C   UNL     1       3.087   1.118  -0.546  0.00  0.00    +0.000 A 
ATOM      6  C   UNL     1       2.433   2.146  -1.236  0.00  0.00    +0.000 A 
ATOM      7  C   UNL     1       3.160   3.167  -1.849  0.00  0.00    +0.000 A 
ATOM      8  C   UNL     1       4.563   3.210  -1.785  0.00  0.00    +0.000 A 
ATOM      9  C   UNL     1       5.205   2.176  -1.078  0.00  0.00    +0.000 A 
ATOM     10  C   UNL     1       4.475   1.147  -0.474  0.00  0.00    +0.000 A 
ATOM     11  F   UNL     1       5.153   0.188   0.176  0.00  0.00    +0.000 F 
BRANCH   8  12
ATOM     12  C   UNL     1       5.317   4.299  -2.446  0.00  0.00    +0.000 A 
ATOM     13  C   UNL     1       4.785   5.599  -2.546  0.00  0.00    +0.000 A 
ATOM     14  C   UNL     1       5.475   6.624  -3.197  0.00  0.00    +0.000 A 
ATOM     15  C   UNL     1       6.727   6.378  -3.750  0.00  0.00    +0.000 A 
ATOM     16  C   UNL     1       7.283   5.106  -3.656  0.00  0.00    +0.000 A 
ATOM     17  C   UNL     1       6.583   4.078  -3.017  0.00  0.00    +0.000 A 
ENDBRANCH   8  12
ENDBRANCH   2   5
BRANCH   3  18
ATOM     18  C   UNL     1       2.237  -2.046   1.387  0.00  0.00    +0.000 A 
ATOM     19  C   UNL     1       0.980  -2.491   0.979  0.00  0.00    +0.000 A 
ATOM     20  C   UNL     1       0.399  -3.614   1.558  0.00  0.00    +0.000 A 
ATOM     21  C   UNL     1       1.075  -4.309   2.557  0.00  0.00    +0.000 A 
ATOM     22  C   UNL     1       2.339  -3.889   2.992  0.00  0.00    +0.000 A 
ATOM     23  C   UNL     1       2.918  -2.757   2.386  0.00  0.00    +0.000 A 
BRANCH  22  24
ATOM     24  N   UNL     1       3.001  -4.574   4.027  0.00  0.00    +0.000 N 
ATOM     25  N   UNL     1       4.168  -4.090   4.567  0.00  0.00    +0.000 NA
ATOM     26  N   UNL     1       4.536  -4.849   5.516  0.00  0.00    +0.000 NA
ATOM     27  N   UNL     1       3.641  -5.860   5.640  0.00  0.00    +0.000 N 
ATOM     28  C   UNL     1       2.637  -5.729   4.706  0.00  0.00    +0.000 A 
ATOM     29  O   UNL     1       1.694  -6.489   4.569  0.00  0.00    +0.000 OA
ATOM     30  H   UNL     1       3.724  -6.588   6.331  0.00  0.00    +0.000 HD
ENDBRANCH  22  24
ENDBRANCH   3  18
TORSDOF 4
