REMARK  Name = 
REMARK  6 active torsions:
REMARK  status: ('A' for Active; 'I' for Inactive)
REMARK    1  A    between atoms: C_1  and  C_2
REMARK    2  A    between atoms: N_4  and  C_5
REMARK    3  A    between atoms: C_8  and  O_9
REMARK    4  A    between atoms: O_9  and  C_10
REMARK    5  A    between atoms: C_13  and  C_14
REMARK    6  A    between atoms: N_16  and  C_17
REMARK                            x       y       z     vdW  Elec       q    Type
REMARK                         _______ _______ _______ _____ _____    ______ ____
ROOT
ATOM      1  C   UNL     1       9.544   1.287  -0.095  0.00  0.00    +0.000 A 
ATOM      2  C   UNL     1       9.469   2.533  -0.737  0.00  0.00    +0.000 A 
ATOM      3  C   UNL     1      10.275   2.822  -1.847  0.00  0.00    +0.000 A 
ATOM      4  C   UNL     1      11.202   1.877  -2.288  0.00  0.00    +0.000 A 
ATOM      5  C   UNL     1      11.308   0.648  -1.609  0.00  0.00    +0.000 A 
ATOM      6  C   UNL     1      10.486   0.354  -0.520  0.00  0.00    +0.000 A 
ENDROOT
BRANCH   4   7
ATOM      7  C   UNL     1      12.171   2.135  -3.385  0.00  0.00    +0.000 C 
ATOM      8  O   UNL     1      13.269   1.588  -3.275  0.00  0.00    +0.000 OA
ATOM      9  N   UNL     1      11.784   2.953  -4.441  0.00  0.00    +0.000 N 
ATOM     10  H   UNL     1      10.874   3.386  -4.385  0.00  0.00    +0.000 HD
BRANCH   9  11
ATOM     11  C   UNL     1      12.503   3.117  -5.667  0.00  0.00    +0.000 A 
ATOM     12  C   UNL     1      13.557   2.254  -6.011  0.00  0.00    +0.000 A 
ATOM     13  C   UNL     1      14.181   2.317  -7.256  0.00  0.00    +0.000 A 
ATOM     14  C   UNL     1      13.725   3.209  -8.213  0.00  0.00    +0.000 A 
ATOM     15  C   UNL     1      12.684   4.095  -7.908  0.00  0.00    +0.000 A 
ATOM     16  C   UNL     1      12.206   4.992  -8.857  0.00  0.00    +0.000 A 
ATOM     17  N   UNL     1      11.278   5.932  -8.590  0.00  0.00    +0.000 NA
ATOM     18  N   UNL     1      10.794   6.034  -7.333  0.00  0.00    +0.000 NA
ATOM     19  C   UNL     1      11.195   5.143  -6.394  0.00  0.00    +0.000 A 
ATOM     20  C   UNL     1      12.107   4.105  -6.620  0.00  0.00    +0.000 A 
ENDBRANCH   9  11
ENDBRANCH   4   7
BRANCH   1  21
ATOM     21  O   UNL     1       8.793   0.933   1.005  0.00  0.00    +0.000 OA
BRANCH  21  25
ATOM     22  C   UNL     1       5.009   2.547   1.352  0.00  0.00    +0.000 A 
ATOM     23  C   UNL     1       5.713   2.161   2.490  0.00  0.00    +0.000 A 
ATOM     24  C   UNL     1       6.975   1.580   2.365  0.00  0.00    +0.000 A 
ATOM     25  C   UNL     1       7.494   1.408   1.092  0.00  0.00    +0.000 A 
ATOM     26  N   UNL     1       6.802   1.682  -0.037  0.00  0.00    +0.000 NA
ATOM     27  C   UNL     1       5.586   2.248   0.120  0.00  0.00    +0.000 A 
BRANCH  22  31
ATOM     28  C   UNL     1       1.864   4.457   2.164  0.00  0.00    +0.000 C 
ATOM     29  C   UNL     1       3.190   3.817   2.482  0.00  0.00    +0.000 C 
ATOM     30  O   UNL     1       3.652   3.860   3.614  0.00  0.00    +0.000 OA
ATOM     31  N   UNL     1       3.771   3.224   1.375  0.00  0.00    +0.000 N 
ATOM     32  H   UNL     1       3.326   3.391   0.480  0.00  0.00    +0.000 HD
ENDBRANCH  22  31
ENDBRANCH  21  25
ENDBRANCH   1  21
TORSDOF 5
