REMARK  Name = 
REMARK  5 active torsions:
REMARK  status: ('A' for Active; 'I' for Inactive)
REMARK    1  A    between atoms: C_1  and  O_2
REMARK    2  A    between atoms: O_2  and  C_3
REMARK    3  A    between atoms: C_6  and  C_7
REMARK    4  A    between atoms: N_12  and  C_13
REMARK    5  A    between atoms: C_23  and  C_24
REMARK                            x       y       z     vdW  Elec       q    Type
REMARK                         _______ _______ _______ _____ _____    ______ ____
ROOT
ATOM      1  C   UNL     1       5.124  -5.056   0.242  0.00  0.00    +0.000 C 
ATOM      2  O   UNL     1       5.444  -5.471   1.349  0.00  0.00    +0.000 OA
ATOM      3  N   UNL     1       5.397  -5.702  -0.948  0.00  0.00    +0.000 N 
ATOM      4  C   UNL     1       6.017  -6.933  -0.971  0.00  0.00    +0.000 A 
ATOM      5  N   UNL     1       6.864  -7.257  -1.952  0.00  0.00    +0.000 NA
ATOM      6  N   UNL     1       7.342  -8.463  -1.525  0.00  0.00    +0.000 N 
ATOM      7  N   UNL     1       6.679  -9.028  -0.483  0.00  0.00    +0.000 NA
ATOM      8  C   UNL     1       5.896  -8.022  -0.085  0.00  0.00    +0.000 A 
ATOM      9  H   UNL     1       5.473  -5.171  -1.803  0.00  0.00    +0.000 HD
ENDROOT
BRANCH   6  10
ATOM     10  C   UNL     1       8.510  -9.054  -2.078  0.00  0.00    +0.000 A 
ATOM     11  C   UNL     1       9.321  -8.319  -2.959  0.00  0.00    +0.000 A 
ATOM     12  C   UNL     1      10.493  -8.890  -3.464  0.00  0.00    +0.000 A 
ATOM     13  C   UNL     1      10.841 -10.189  -3.104  0.00  0.00    +0.000 A 
ATOM     14  F   UNL     1      11.963 -10.732  -3.600  0.00  0.00    +0.000 F 
ATOM     15  C   UNL     1      10.043 -10.928  -2.237  0.00  0.00    +0.000 A 
ATOM     16  C   UNL     1       8.880 -10.359  -1.712  0.00  0.00    +0.000 A 
ENDBRANCH   6  10
BRANCH   1  20
ATOM     17  C   UNL     1       3.030  -1.309   0.091  0.00  0.00    +0.000 A 
ATOM     18  C   UNL     1       2.711  -2.340  -0.808  0.00  0.00    +0.000 A 
ATOM     19  C   UNL     1       3.408  -3.550  -0.789  0.00  0.00    +0.000 A 
ATOM     20  C   UNL     1       4.445  -3.736   0.123  0.00  0.00    +0.000 A 
ATOM     21  C   UNL     1       4.778  -2.704   1.014  0.00  0.00    +0.000 A 
ATOM     22  C   UNL     1       4.082  -1.470   1.026  0.00  0.00    +0.000 A 
BRANCH  22  23
ATOM     23  C   UNL     1       4.403  -0.465   2.076  0.00  0.00    +0.000 A 
ATOM     24  C   UNL     1       4.279   0.916   1.913  0.00  0.00    +0.000 A 
ATOM     25  C   UNL     1       4.474   1.763   3.005  0.00  0.00    +0.000 A 
ATOM     26  C   UNL     1       4.826   1.222   4.232  0.00  0.00    +0.000 A 
ATOM     27  C   UNL     1       4.986  -0.149   4.309  0.00  0.00    +0.000 A 
ATOM     28  N   UNL     1       4.786  -0.991   3.271  0.00  0.00    +0.000 NA
ENDBRANCH  22  23
BRANCH  17  30
ATOM     29  C   UNL     1       0.992  -0.120  -0.276  0.00  0.00    +0.000 C 
ATOM     30  O   UNL     1       2.367  -0.107   0.078  0.00  0.00    +0.000 OA
ENDBRANCH  17  30
ENDBRANCH   1  20
TORSDOF 4
