REMARK  Name = 
REMARK  8 active torsions:
REMARK  status: ('A' for Active; 'I' for Inactive)
REMARK    1  A    between atoms: C_1  and  O_2
REMARK    2  A    between atoms: O_2  and  C_3
REMARK    3  A    between atoms: C_7  and  C_8
REMARK    4  A    between atoms: C_8  and  O_10
REMARK    5  A    between atoms: O_10  and  C_11
REMARK    6  A    between atoms: C_11  and  C_12
REMARK    7  A    between atoms: C_17  and  N_18
REMARK    8  A    between atoms: C_19  and  C_21
REMARK                            x       y       z     vdW  Elec       q    Type
REMARK                         _______ _______ _______ _____ _____    ______ ____
ROOT
ATOM      1  C   UNL     1       0.218  -5.227  -3.705  0.00  0.00    +0.000 A 
ATOM      2  C   UNL     1      -0.716  -6.217  -4.083  0.00  0.00    +0.000 A 
ATOM      3  C   UNL     1      -1.842  -5.903  -4.838  0.00  0.00    +0.000 A 
ATOM      4  C   UNL     1      -2.050  -4.589  -5.228  0.00  0.00    +0.000 A 
ATOM      5  C   UNL     1      -1.119  -3.606  -4.892  0.00  0.00    +0.000 A 
ATOM      6  C   UNL     1       0.029  -3.895  -4.134  0.00  0.00    +0.000 A 
ENDROOT
BRANCH   6   7
ATOM      7  N   UNL     1       0.993  -2.888  -3.844  0.00  0.00    +0.000 N 
ATOM      8  C   UNL     1       0.754  -1.522  -3.946  0.00  0.00    +0.000 C 
ATOM      9  O   UNL     1      -0.350  -1.007  -4.123  0.00  0.00    +0.000 OA
ATOM     10  H   UNL     1       1.886  -3.198  -3.476  0.00  0.00    +0.000 HD
BRANCH   8  11
ATOM     11  C   UNL     1       1.893  -0.575  -3.780  0.00  0.00    +0.000 A 
ATOM     12  C   UNL     1       3.211  -0.868  -4.150  0.00  0.00    +0.000 A 
ATOM     13  C   UNL     1       4.186   0.138  -4.075  0.00  0.00    +0.000 A 
ATOM     14  C   UNL     1       3.845   1.417  -3.634  0.00  0.00    +0.000 A 
ATOM     15  F   UNL     1       4.781   2.373  -3.586  0.00  0.00    +0.000 F 
ATOM     16  C   UNL     1       2.545   1.719  -3.262  0.00  0.00    +0.000 A 
ATOM     17  C   UNL     1       1.571   0.724  -3.339  0.00  0.00    +0.000 A 
ENDBRANCH   8  11
ENDBRANCH   6   7
BRANCH   1  18
ATOM     18  C   UNL     1       1.346  -5.655  -2.806  0.00  0.00    +0.000 C 
BRANCH  18  19
ATOM     19  O   UNL     1       2.608  -5.463  -3.442  0.00  0.00    +0.000 OA
BRANCH  19  20
ATOM     20  C   UNL     1       3.030  -6.497  -4.221  0.00  0.00    +0.000 C 
ATOM     21  O   UNL     1       2.414  -7.529  -4.435  0.00  0.00    +0.000 OA
BRANCH  20  26
ATOM     22  C   UNL     1       6.322  -6.777  -6.016  0.00  0.00    +0.000 A 
ATOM     23  C   UNL     1       6.946  -5.630  -5.521  0.00  0.00    +0.000 A 
ATOM     24  C   UNL     1       6.250  -4.804  -4.656  0.00  0.00    +0.000 A 
ATOM     25  N   UNL     1       4.990  -5.048  -4.253  0.00  0.00    +0.000 NA
ATOM     26  C   UNL     1       4.394  -6.185  -4.732  0.00  0.00    +0.000 A 
ATOM     27  C   UNL     1       5.018  -7.060  -5.617  0.00  0.00    +0.000 A 
ATOM     28  F   UNL     1       4.379  -8.149  -6.069  0.00  0.00    +0.000 F 
BRANCH  22  30
ATOM     29  C   UNL     1       6.557  -8.694  -7.419  0.00  0.00    +0.000 C 
ATOM     30  O   UNL     1       7.114  -7.511  -6.856  0.00  0.00    +0.000 OA
ENDBRANCH  22  30
ENDBRANCH  20  26
ENDBRANCH  19  20
ENDBRANCH  18  19
ENDBRANCH   1  18
TORSDOF 7
