REMARK  Name = 
REMARK  5 active torsions:
REMARK  status: ('A' for Active; 'I' for Inactive)
REMARK    1  A    between atoms: C_2  and  C_15
REMARK    2  A    between atoms: N_3  and  C_4
REMARK    3  A    between atoms: N_6  and  C_7
REMARK    4  A    between atoms: C_18  and  O_19
REMARK    5  A    between atoms: O_19  and  C_20
REMARK                            x       y       z     vdW  Elec       q    Type
REMARK                         _______ _______ _______ _____ _____    ______ ____
ROOT
ATOM      1  O   UNL     1       1.097   0.129   0.294  0.00  0.00    +0.000 OA
ATOM      2  C   UNL     1       2.304   0.094   0.062  0.00  0.00    +0.000 C 
ATOM      3  N   UNL     1       2.966   0.789  -0.928  0.00  0.00    +0.000 N 
ATOM      4  H   UNL     1       3.956   0.588  -1.048  0.00  0.00    +0.000 HD
ENDROOT
BRANCH   2   5
ATOM      5  C   UNL     1       3.163  -0.814   0.881  0.00  0.00    +0.000 A 
ATOM      6  C   UNL     1       2.541  -1.734   1.718  0.00  0.00    +0.000 A 
ATOM      7  C   UNL     1       3.334  -2.554   2.510  0.00  0.00    +0.000 A 
ATOM      8  C   UNL     1       4.718  -2.384   2.495  0.00  0.00    +0.000 A 
ATOM      9  C   UNL     1       5.253  -1.471   1.589  0.00  0.00    +0.000 A 
ATOM     10  N   UNL     1       4.514  -0.682   0.765  0.00  0.00    +0.000 NA
BRANCH   8  11
ATOM     11  O   UNL     1       5.584  -3.084   3.301  0.00  0.00    +0.000 OA
BRANCH  11  12
ATOM     12  C   UNL     1       5.204  -3.358   4.601  0.00  0.00    +0.000 A 
ATOM     13  C   UNL     1       5.699  -4.540   5.161  0.00  0.00    +0.000 A 
ATOM     14  C   UNL     1       5.331  -4.904   6.460  0.00  0.00    +0.000 A 
ATOM     15  C   UNL     1       4.473  -4.085   7.186  0.00  0.00    +0.000 A 
ATOM     16  F   UNL     1       4.095  -4.449   8.418  0.00  0.00    +0.000 F 
ATOM     17  C   UNL     1       4.007  -2.889   6.655  0.00  0.00    +0.000 A 
ATOM     18  C   UNL     1       4.398  -2.509   5.371  0.00  0.00    +0.000 A 
ENDBRANCH  11  12
ENDBRANCH   8  11
ENDBRANCH   2   5
BRANCH   3  19
ATOM     19  C   UNL     1       2.337   1.628  -1.832  0.00  0.00    +0.000 A 
ATOM     20  C   UNL     1       1.056   2.115  -1.778  0.00  0.00    +0.000 A 
ATOM     21  N   UNL     1       0.841   2.851  -2.920  0.00  0.00    +0.000 N 
ATOM     22  N   UNL     1       1.960   2.895  -3.701  0.00  0.00    +0.000 NA
ATOM     23  C   UNL     1       2.858   2.175  -3.021  0.00  0.00    +0.000 A 
BRANCH  21  24
ATOM     24  C   UNL     1      -0.379   3.499  -3.280  0.00  0.00    +0.000 A 
ATOM     25  C   UNL     1      -0.481   4.106  -4.530  0.00  0.00    +0.000 A 
ATOM     26  C   UNL     1      -1.675   4.740  -4.870  0.00  0.00    +0.000 A 
ATOM     27  C   UNL     1      -2.723   4.759  -3.958  0.00  0.00    +0.000 A 
ATOM     28  C   UNL     1      -2.544   4.129  -2.739  0.00  0.00    +0.000 A 
ATOM     29  N   UNL     1      -1.405   3.496  -2.381  0.00  0.00    +0.000 NA
ENDBRANCH  21  24
ENDBRANCH   3  19
TORSDOF 5
