REMARK  Name = 
REMARK  4 active torsions:
REMARK  status: ('A' for Active; 'I' for Inactive)
REMARK    1  A    between atoms: C_2  and  C_17
REMARK    2  A    between atoms: N_3  and  C_4
REMARK    3  A    between atoms: C_4  and  C_5
REMARK    4  A    between atoms: C_8  and  C_9
REMARK                            x       y       z     vdW  Elec       q    Type
REMARK                         _______ _______ _______ _____ _____    ______ ____
ROOT
ATOM      1  O   UNL     1       2.075  -0.968   1.670  0.00  0.00    +0.000 OA
ATOM      2  C   UNL     1       2.817  -0.435   0.850  0.00  0.00    +0.000 C 
ATOM      3  N   UNL     1       3.024   0.921   0.783  0.00  0.00    +0.000 N 
ATOM      4  H   UNL     1       3.560   1.325   0.029  0.00  0.00    +0.000 HD
ENDROOT
BRANCH   2   5
ATOM      5  C   UNL     1       3.542  -1.281  -0.128  0.00  0.00    +0.000 A 
ATOM      6  C   UNL     1       3.038  -2.539  -0.412  0.00  0.00    +0.000 A 
ATOM      7  N   UNL     1       3.664  -3.444  -1.202  0.00  0.00    +0.000 NA
ATOM      8  C   UNL     1       4.857  -3.118  -1.742  0.00  0.00    +0.000 A 
ATOM      9  C   UNL     1       5.600  -4.054  -2.466  0.00  0.00    +0.000 A 
ATOM     10  F   UNL     1       5.127  -5.302  -2.623  0.00  0.00    +0.000 F 
ATOM     11  C   UNL     1       6.846  -3.761  -3.021  0.00  0.00    +0.000 A 
ATOM     12  C   UNL     1       7.357  -2.476  -2.908  0.00  0.00    +0.000 A 
ATOM     13  C   UNL     1       6.640  -1.527  -2.187  0.00  0.00    +0.000 A 
ATOM     14  F   UNL     1       7.147  -0.288  -2.084  0.00  0.00    +0.000 F 
ATOM     15  C   UNL     1       5.418  -1.836  -1.564  0.00  0.00    +0.000 A 
ATOM     16  C   UNL     1       4.746  -0.919  -0.731  0.00  0.00    +0.000 A 
ENDBRANCH   2   5
BRANCH   3  17
ATOM     17  C   UNL     1       2.362   1.841   1.690  0.00  0.00    +0.000 C 
BRANCH  17  18
ATOM     18  C   UNL     1       3.359   2.667   2.451  0.00  0.00    +0.000 A 
ATOM     19  C   UNL     1       4.256   2.077   3.337  0.00  0.00    +0.000 A 
ATOM     20  C   UNL     1       5.154   2.871   4.052  0.00  0.00    +0.000 A 
ATOM     21  C   UNL     1       5.143   4.255   3.870  0.00  0.00    +0.000 A 
ATOM     22  N   UNL     1       4.265   4.846   3.020  0.00  0.00    +0.000 NA
ATOM     23  C   UNL     1       3.402   4.050   2.338  0.00  0.00    +0.000 A 
BRANCH  21  24
ATOM     24  C   UNL     1       6.060   5.149   4.602  0.00  0.00    +0.000 A 
ATOM     25  C   UNL     1       7.351   4.740   4.975  0.00  0.00    +0.000 A 
ATOM     26  C   UNL     1       8.158   5.601   5.704  0.00  0.00    +0.000 A 
ATOM     27  N   UNL     1       7.783   6.837   6.084  0.00  0.00    +0.000 NA
ATOM     28  C   UNL     1       6.551   7.234   5.704  0.00  0.00    +0.000 A 
ATOM     29  C   UNL     1       5.675   6.444   4.973  0.00  0.00    +0.000 A 
ENDBRANCH  21  24
ENDBRANCH  17  18
ENDBRANCH   3  17
TORSDOF 4
