REMARK  Name = 
REMARK  8 active torsions:
REMARK  status: ('A' for Active; 'I' for Inactive)
REMARK    1  A    between atoms: C_1  and  N_2
REMARK    2  A    between atoms: N_2  and  C_3
REMARK    3  A    between atoms: C_3  and  C_4
REMARK    4  A    between atoms: C_8  and  N_9
REMARK    5  A    between atoms: N_9  and  S_10
REMARK    6  A    between atoms: S_10  and  C_13
REMARK    7  A    between atoms: C_20  and  C_22
REMARK    8  A    between atoms: C_31  and  N_32
REMARK                            x       y       z     vdW  Elec       q    Type
REMARK                         _______ _______ _______ _____ _____    ______ ____
ROOT
ATOM      1  C   UNL     1       3.501  -1.137   0.716  0.00  0.00    +0.000 C 
ENDROOT
BRANCH   1   2
ATOM      2  C   UNL     1       2.523  -2.061   1.410  0.00  0.00    +0.000 A 
ATOM      3  C   UNL     1       1.766  -1.644   2.518  0.00  0.00    +0.000 A 
ATOM      4  C   UNL     1       0.991  -2.556   3.244  0.00  0.00    +0.000 A 
ATOM      5  C   UNL     1       0.951  -3.897   2.864  0.00  0.00    +0.000 A 
ATOM      6  C   UNL     1       1.662  -4.307   1.740  0.00  0.00    +0.000 A 
ATOM      7  C   UNL     1       2.437  -3.401   1.016  0.00  0.00    +0.000 A 
BRANCH   6   8
ATOM      8  N   UNL     1       1.674  -5.652   1.319  0.00  0.00    +0.000 N 
ATOM      9  H   UNL     1       2.549  -6.079   1.019  0.00  0.00    +0.000 HD
BRANCH   8  10
ATOM     10  S   UNL     1       0.284  -6.447   0.831  0.00  0.00    +0.000 S 
ATOM     11  O   UNL     1       0.774  -7.643   0.162  0.00  0.00    +0.000 OA
ATOM     12  O   UNL     1      -0.632  -6.536   1.936  0.00  0.00    +0.000 OA
BRANCH  10  13
ATOM     13  C   UNL     1      -0.477  -5.431  -0.420  0.00  0.00    +0.000 A 
ATOM     14  C   UNL     1      -0.367  -5.803  -1.758  0.00  0.00    +0.000 A 
ATOM     15  C   UNL     1      -1.228  -5.236  -2.700  0.00  0.00    +0.000 A 
ATOM     16  C   UNL     1      -2.079  -4.190  -2.346  0.00  0.00    +0.000 A 
ATOM     17  C   UNL     1      -2.150  -3.779  -1.021  0.00  0.00    +0.000 A 
ATOM     18  C   UNL     1      -1.390  -4.434  -0.047  0.00  0.00    +0.000 A 
ENDBRANCH  10  13
ENDBRANCH   8  10
ENDBRANCH   6   8
ENDBRANCH   1   2
BRANCH   1  20
ATOM     19  C   UNL     1       2.094   0.754  -0.045  0.00  0.00    +0.000 C 
ATOM     20  N   UNL     1       2.960  -0.371  -0.396  0.00  0.00    +0.000 N 
ATOM     21  C   UNL     1       3.619  -0.238  -1.634  0.00  0.00    +0.000 C 
ATOM     22  O   UNL     1       3.440   0.785  -2.310  0.00  0.00    +0.000 OA
BRANCH  21  23
ATOM     23  C   UNL     1       4.400  -1.337  -2.316  0.00  0.00    +0.000 A 
ATOM     24  N   UNL     1       4.783  -2.477  -1.705  0.00  0.00    +0.000 NA
ATOM     25  N   UNL     1       4.495  -3.702  -2.333  0.00  0.00    +0.000 NA
ATOM     26  C   UNL     1       3.452  -3.745  -3.208  0.00  0.00    +0.000 A 
ATOM     27  C   UNL     1       2.697  -4.796  -3.724  0.00  0.00    +0.000 A 
ATOM     28  C   UNL     1       1.407  -4.531  -4.185  0.00  0.00    +0.000 A 
ATOM     29  C   UNL     1       0.825  -3.293  -3.879  0.00  0.00    +0.000 A 
ATOM     30  C   UNL     1       1.628  -2.266  -3.466  0.00  0.00    +0.000 A 
ATOM     31  C   UNL     1       2.986  -2.498  -3.568  0.00  0.00    +0.000 A 
ATOM     32  C   UNL     1       3.936  -1.495  -3.595  0.00  0.00    +0.000 A 
BRANCH  32  33
ATOM     33  N   UNL     1       4.890  -1.660  -4.689  0.00  0.00    +0.000 N 
ATOM     34  H   UNL     1       5.366  -2.584  -4.602  0.00  0.00    +0.000 HD
ATOM     35  H   UNL     1       5.564  -0.932  -4.714  0.00  0.00    +0.000 HD
ENDBRANCH  32  33
ENDBRANCH  21  23
ENDBRANCH   1  20
TORSDOF 7
