REMARK  Name = 
REMARK  5 active torsions:
REMARK  status: ('A' for Active; 'I' for Inactive)
REMARK    1  A    between atoms: C_1  and  C_2
REMARK    2  A    between atoms: C_3  and  C_4
REMARK    3  A    between atoms: N_6  and  C_7
REMARK    4  A    between atoms: N_9  and  C_10
REMARK    5  A    between atoms: C_10  and  C_11
REMARK                            x       y       z     vdW  Elec       q    Type
REMARK                         _______ _______ _______ _____ _____    ______ ____
ROOT
ATOM      1  C   UNL     1       3.137  -4.852   0.135  0.00  0.00    +0.000 A 
ATOM      2  C   UNL     1       2.240  -5.308  -0.759  0.00  0.00    +0.000 A 
ATOM      3  N   UNL     1       1.842  -6.637  -0.805  0.00  0.00    +0.000 N 
ATOM      4  C   UNL     1       2.292  -7.566   0.124  0.00  0.00    +0.000 A 
ATOM      5  O   UNL     1       1.915  -8.734   0.194  0.00  0.00    +0.000 OA
ATOM      6  C   UNL     1       3.323  -7.080   1.081  0.00  0.00    +0.000 A 
ATOM      7  C   UNL     1       3.740  -5.806   1.047  0.00  0.00    +0.000 A 
ENDROOT
BRANCH   1  10
ATOM      8  C   UNL     1       2.739  -2.443  -0.152  0.00  0.00    +0.000 C 
ATOM      9  O   UNL     1       1.621  -2.538  -0.644  0.00  0.00    +0.000 OA
ATOM     10  N   UNL     1       3.510  -3.526   0.257  0.00  0.00    +0.000 N 
ATOM     11  H   UNL     1       4.297  -3.307   0.854  0.00  0.00    +0.000 HD
BRANCH   8  14
ATOM     12  C   UNL     1       1.134   0.069   1.001  0.00  0.00    +0.000 C 
ATOM     13  C   UNL     1       2.564  -0.049   0.608  0.00  0.00    +0.000 A 
ATOM     14  C   UNL     1       3.311  -1.127   0.130  0.00  0.00    +0.000 A 
ATOM     15  C   UNL     1       4.646  -0.643  -0.085  0.00  0.00    +0.000 A 
ATOM     16  C   UNL     1       5.858  -1.165  -0.578  0.00  0.00    +0.000 A 
ATOM     17  C   UNL     1       6.950  -0.297  -0.681  0.00  0.00    +0.000 A 
ATOM     18  C   UNL     1       6.797   1.031  -0.307  0.00  0.00    +0.000 A 
ATOM     19  N   UNL     1       5.663   1.582   0.174  0.00  0.00    +0.000 NA
ATOM     20  C   UNL     1       4.645   0.707   0.251  0.00  0.00    +0.000 A 
ATOM     21  N   UNL     1       3.390   1.045   0.661  0.00  0.00    +0.000 N 
ATOM     22  H   UNL     1       3.127   1.981   0.931  0.00  0.00    +0.000 HD
ENDBRANCH   8  14
ENDBRANCH   1  10
BRANCH   3  23
ATOM     23  C   UNL     1       0.922  -7.064  -1.862  0.00  0.00    +0.000 C 
BRANCH  23  24
ATOM     24  C   UNL     1      -0.528  -6.786  -1.551  0.00  0.00    +0.000 A 
ATOM     25  C   UNL     1      -1.190  -7.470  -0.520  0.00  0.00    +0.000 A 
ATOM     26  C   UNL     1      -2.527  -7.187  -0.231  0.00  0.00    +0.000 A 
ATOM     27  C   UNL     1      -3.205  -6.230  -0.978  0.00  0.00    +0.000 A 
ATOM     28  F   UNL     1      -4.483  -5.954  -0.689  0.00  0.00    +0.000 F 
ATOM     29  C   UNL     1      -2.580  -5.561  -2.020  0.00  0.00    +0.000 A 
ATOM     30  C   UNL     1      -1.248  -5.846  -2.299  0.00  0.00    +0.000 A 
ATOM     31  F   UNL     1      -0.654  -5.206  -3.316  0.00  0.00    +0.000 F 
ENDBRANCH  23  24
ENDBRANCH   3  23
TORSDOF 4
