REMARK  Name = 
REMARK  5 active torsions:
REMARK  status: ('A' for Active; 'I' for Inactive)
REMARK    1  A    between atoms: C_1  and  C_2
REMARK    2  A    between atoms: C_2  and  N_3
REMARK    3  A    between atoms: C_2  and  C_20
REMARK    4  A    between atoms: C_4  and  C_6
REMARK    5  A    between atoms: N_8  and  C_9
REMARK                            x       y       z     vdW  Elec       q    Type
REMARK                         _______ _______ _______ _____ _____    ______ ____
ROOT
ATOM      1  N   UNL     1       3.157   0.593  -1.134  0.00  0.00    +0.000 N 
ATOM      2  C   UNL     1       3.002   0.089  -2.409  0.00  0.00    +0.000 C 
ATOM      3  O   UNL     1       2.516  -0.994  -2.677  0.00  0.00    +0.000 OA
ATOM      4  H   UNL     1       3.543   1.532  -1.034  0.00  0.00    +0.000 HD
ENDROOT
BRANCH   2   5
ATOM      5  C   UNL     1       3.516   1.011  -3.512  0.00  0.00    +0.000 A 
ATOM      6  N   UNL     1       4.560   1.749  -3.224  0.00  0.00    +0.000 NA
ATOM      7  N   UNL     1       5.077   2.564  -4.208  0.00  0.00    +0.000 N 
ATOM      8  C   UNL     1       4.478   2.690  -5.447  0.00  0.00    +0.000 A 
ATOM      9  C   UNL     1       3.404   2.005  -5.856  0.00  0.00    +0.000 A 
ATOM     10  C   UNL     1       2.841   1.080  -4.872  0.00  0.00    +0.000 A 
ATOM     11  O   UNL     1       1.840   0.429  -5.139  0.00  0.00    +0.000 OA
BRANCH   7  12
ATOM     12  C   UNL     1       6.309   3.216  -3.872  0.00  0.00    +0.000 A 
ATOM     13  C   UNL     1       6.616   3.517  -2.530  0.00  0.00    +0.000 A 
ATOM     14  C   UNL     1       7.807   4.170  -2.180  0.00  0.00    +0.000 A 
ATOM     15  C   UNL     1       8.726   4.529  -3.163  0.00  0.00    +0.000 A 
ATOM     16  C   UNL     1       8.458   4.227  -4.494  0.00  0.00    +0.000 A 
ATOM     17  C   UNL     1       7.270   3.580  -4.837  0.00  0.00    +0.000 A 
ATOM     18  F   UNL     1       7.098   3.277  -6.133  0.00  0.00    +0.000 F 
ENDBRANCH   7  12
ENDBRANCH   2   5
BRANCH   1  20
ATOM     19  C   UNL     1       1.060  -0.106  -0.016  0.00  0.00    +0.000 C 
ATOM     20  C   UNL     1       2.593  -0.018   0.056  0.00  0.00    +0.000 C 
BRANCH  20  21
ATOM     21  C   UNL     1       2.973   0.717   1.344  0.00  0.00    +0.000 A 
ATOM     22  C   UNL     1       3.094  -0.041   2.529  0.00  0.00    +0.000 A 
ATOM     23  C   UNL     1       3.289   0.579   3.758  0.00  0.00    +0.000 A 
ATOM     24  C   UNL     1       3.278   1.966   3.832  0.00  0.00    +0.000 A 
ATOM     25  C   UNL     1       3.104   2.733   2.671  0.00  0.00    +0.000 A 
ATOM     26  C   UNL     1       2.942   4.123   2.752  0.00  0.00    +0.000 A 
ATOM     27  C   UNL     1       2.805   4.875   1.594  0.00  0.00    +0.000 A 
ATOM     28  C   UNL     1       2.902   4.216   0.388  0.00  0.00    +0.000 A 
ATOM     29  N   UNL     1       2.997   2.873   0.275  0.00  0.00    +0.000 NA
ATOM     30  C   UNL     1       3.038   2.121   1.400  0.00  0.00    +0.000 A 
ENDBRANCH  20  21
ENDBRANCH   1  20
TORSDOF 4
