REMARK  Name = 
REMARK  6 active torsions:
REMARK  status: ('A' for Active; 'I' for Inactive)
REMARK    1  A    between atoms: C_2  and  O_3
REMARK    2  A    between atoms: C_2  and  C_4
REMARK    3  A    between atoms: C_8  and  C_9
REMARK    4  A    between atoms: C_14  and  C_15
REMARK    5  A    between atoms: C_15  and  N_16
REMARK    6  A    between atoms: C_17  and  C_19
REMARK                            x       y       z     vdW  Elec       q    Type
REMARK                         _______ _______ _______ _____ _____    ______ ____
ROOT
ATOM      1  C   UNL     1       6.205   2.799  -0.793  0.00  0.00    +0.000 A 
ATOM      2  C   UNL     1       7.412   2.634  -0.062  0.00  0.00    +0.000 A 
ATOM      3  C   UNL     1       8.676   2.738  -0.647  0.00  0.00    +0.000 A 
ATOM      4  C   UNL     1       8.780   2.978  -2.003  0.00  0.00    +0.000 A 
ATOM      5  C   UNL     1       7.623   3.174  -2.752  0.00  0.00    +0.000 A 
ATOM      6  C   UNL     1       6.329   3.132  -2.171  0.00  0.00    +0.000 A 
ENDROOT
BRANCH   1  11
ATOM      7  C   UNL     1       3.582   2.609   1.997  0.00  0.00    +0.000 A 
ATOM      8  C   UNL     1       2.515   1.990   1.347  0.00  0.00    +0.000 A 
ATOM      9  C   UNL     1       2.637   1.649   0.006  0.00  0.00    +0.000 A 
ATOM     10  C   UNL     1       3.830   1.906  -0.677  0.00  0.00    +0.000 A 
ATOM     11  C   UNL     1       4.915   2.564  -0.074  0.00  0.00    +0.000 A 
ATOM     12  C   UNL     1       4.763   2.900   1.290  0.00  0.00    +0.000 A 
BRANCH   7  14
ATOM     13  O   UNL     1       2.797   2.157   4.196  0.00  0.00    +0.000 OA
ATOM     14  C   UNL     1       3.455   2.865   3.454  0.00  0.00    +0.000 C 
BRANCH  14  15
ATOM     15  O   UNL     1       4.116   3.964   3.874  0.00  0.00    +0.000 OA
ATOM     16  H   UNL     1       4.437   4.547   3.162  0.00  0.00    +0.000 HD
ENDBRANCH  14  15
ENDBRANCH   7  14
ENDBRANCH   1  11
BRANCH   6  17
ATOM     17  C   UNL     1       5.181   3.422  -3.122  0.00  0.00    +0.000 C 
BRANCH  17  18
ATOM     18  N   UNL     1       4.313   4.499  -2.716  0.00  0.00    +0.000 N 
ATOM     19  C   UNL     1       3.260   4.915  -3.512  0.00  0.00    +0.000 C 
ATOM     20  O   UNL     1       2.972   4.335  -4.556  0.00  0.00    +0.000 OA
ATOM     21  H   UNL     1       4.501   5.039  -1.877  0.00  0.00    +0.000 HD
BRANCH  19  22
ATOM     22  C   UNL     1       2.563   6.089  -3.002  0.00  0.00    +0.000 A 
ATOM     23  N   UNL     1       2.943   6.713  -1.890  0.00  0.00    +0.000 NA
ATOM     24  C   UNL     1       2.092   7.782  -1.748  0.00  0.00    +0.000 A 
ATOM     25  C   UNL     1       1.179   7.813  -2.769  0.00  0.00    +0.000 A 
ATOM     26  C   UNL     1       0.101   8.647  -3.145  0.00  0.00    +0.000 A 
ATOM     27  F   UNL     1      -0.190   9.721  -2.381  0.00  0.00    +0.000 F 
ATOM     28  C   UNL     1      -0.623   8.373  -4.245  0.00  0.00    +0.000 A 
ATOM     29  C   UNL     1      -0.312   7.219  -5.072  0.00  0.00    +0.000 A 
ATOM     30  C   UNL     1       0.718   6.426  -4.725  0.00  0.00    +0.000 A 
ATOM     31  N   UNL     1       1.468   6.720  -3.578  0.00  0.00    +0.000 N 
ENDBRANCH  19  22
ENDBRANCH  17  18
ENDBRANCH   6  17
TORSDOF 6
