REMARK  Name = 
REMARK  5 active torsions:
REMARK  status: ('A' for Active; 'I' for Inactive)
REMARK    1  A    between atoms: C_2  and  C_20
REMARK    2  A    between atoms: N_3  and  C_4
REMARK    3  A    between atoms: C_4  and  C_5
REMARK    4  A    between atoms: C_8  and  N_9
REMARK    5  A    between atoms: C_10  and  C_12
REMARK                            x       y       z     vdW  Elec       q    Type
REMARK                         _______ _______ _______ _____ _____    ______ ____
ROOT
ATOM      1  C   UNL     1       2.363  -1.516  -1.925  0.00  0.00    +0.000 C 
ENDROOT
BRANCH   1   2
ATOM      2  C   UNL     1       3.268  -2.277  -2.850  0.00  0.00    +0.000 A 
ATOM      3  C   UNL     1       4.252  -1.582  -3.549  0.00  0.00    +0.000 A 
ATOM      4  C   UNL     1       5.126  -2.255  -4.399  0.00  0.00    +0.000 A 
ATOM      5  C   UNL     1       5.047  -3.636  -4.584  0.00  0.00    +0.000 A 
ATOM      6  C   UNL     1       4.046  -4.338  -3.900  0.00  0.00    +0.000 A 
ATOM      7  C   UNL     1       3.158  -3.661  -3.045  0.00  0.00    +0.000 A 
BRANCH   5   8
ATOM      8  N   UNL     1       5.932  -4.354  -5.434  0.00  0.00    +0.000 N 
ATOM      9  C   UNL     1       6.966  -3.780  -6.164  0.00  0.00    +0.000 C 
ATOM     10  O   UNL     1       7.275  -2.592  -6.179  0.00  0.00    +0.000 OA
ATOM     11  H   UNL     1       5.818  -5.352  -5.456  0.00  0.00    +0.000 HD
BRANCH   9  12
ATOM     12  C   UNL     1       7.795  -4.661  -7.009  0.00  0.00    +0.000 A 
ATOM     13  C   UNL     1       7.348  -5.839  -7.605  0.00  0.00    +0.000 A 
ATOM     14  C   UNL     1       8.199  -6.517  -8.479  0.00  0.00    +0.000 A 
ATOM     15  C   UNL     1       9.467  -6.003  -8.715  0.00  0.00    +0.000 A 
ATOM     16  N   UNL     1       9.934  -4.875  -8.142  0.00  0.00    +0.000 NA
ATOM     17  C   UNL     1       9.083  -4.224  -7.314  0.00  0.00    +0.000 A 
ENDBRANCH   9  12
ENDBRANCH   5   8
ENDBRANCH   1   2
BRANCH   1  20
ATOM     18  O   UNL     1       0.441  -0.094  -0.668  0.00  0.00    +0.000 OA
ATOM     19  C   UNL     1       0.280  -0.282  -1.871  0.00  0.00    +0.000 C 
ATOM     20  N   UNL     1       1.179  -1.025  -2.601  0.00  0.00    +0.000 N 
ATOM     21  H   UNL     1       1.177  -1.000  -3.608  0.00  0.00    +0.000 HD
BRANCH  19  22
ATOM     22  C   UNL     1      -0.937   0.283  -2.542  0.00  0.00    +0.000 A 
ATOM     23  C   UNL     1      -1.764   1.044  -1.688  0.00  0.00    +0.000 A 
ATOM     24  C   UNL     1      -3.050   1.413  -2.066  0.00  0.00    +0.000 A 
ATOM     25  C   UNL     1      -3.465   1.108  -3.341  0.00  0.00    +0.000 A 
ATOM     26  C   UNL     1      -4.841   1.292  -3.778  0.00  0.00    +0.000 A 
ATOM     27  N   UNL     1      -5.142   1.644  -4.984  0.00  0.00    +0.000 NA
ATOM     28  N   UNL     1      -4.081   1.675  -5.864  0.00  0.00    +0.000 N 
ATOM     29  C   UNL     1      -2.976   0.857  -5.692  0.00  0.00    +0.000 A 
ATOM     30  O   UNL     1      -2.292   0.442  -6.633  0.00  0.00    +0.000 OA
ATOM     31  C   UNL     1      -2.572   0.609  -4.289  0.00  0.00    +0.000 A 
ATOM     32  C   UNL     1      -1.325   0.099  -3.882  0.00  0.00    +0.000 A 
ATOM     33  H   UNL     1      -4.313   1.980  -6.800  0.00  0.00    +0.000 HD
ENDBRANCH  19  22
ENDBRANCH   1  20
TORSDOF 5
