REMARK  Name = 
REMARK  8 active torsions:
REMARK  status: ('A' for Active; 'I' for Inactive)
REMARK    1  A    between atoms: N_3  and  C_4
REMARK    2  A    between atoms: C_4  and  C_5
REMARK    3  A    between atoms: C_9  and  C_10
REMARK    4  A    between atoms: C_10  and  O_12
REMARK    5  A    between atoms: O_12  and  C_13
REMARK    6  A    between atoms: C_13  and  C_14
REMARK    7  A    between atoms: N_21  and  C_22
REMARK    8  A    between atoms: C_22  and  C_23
REMARK                            x       y       z     vdW  Elec       q    Type
REMARK                         _______ _______ _______ _____ _____    ______ ____
ROOT
ATOM      1  O   UNL     1       1.077   0.132  -0.267  0.00  0.00    +0.000 OA
ATOM      2  C   UNL     1       2.128   0.639  -0.635  0.00  0.00    +0.000 C 
ATOM      3  N   UNL     1       2.872   1.503   0.132  0.00  0.00    +0.000 N 
ATOM      4  N   UNL     1       2.688   0.428  -1.865  0.00  0.00    +0.000 N 
ATOM      5  H   UNL     1       3.411   2.185  -0.379  0.00  0.00    +0.000 HD
ATOM      6  H   UNL     1       3.690   0.530  -1.927  0.00  0.00    +0.000 HD
ENDROOT
BRANCH   3   7
ATOM      7  C   UNL     1       2.351   1.896   1.421  0.00  0.00    +0.000 C 
BRANCH   7   8
ATOM      8  C   UNL     1       3.242   2.870   2.151  0.00  0.00    +0.000 A 
ATOM      9  C   UNL     1       3.090   4.251   1.962  0.00  0.00    +0.000 A 
ATOM     10  C   UNL     1       3.857   5.159   2.697  0.00  0.00    +0.000 A 
ATOM     11  C   UNL     1       4.790   4.699   3.629  0.00  0.00    +0.000 A 
ATOM     12  C   UNL     1       4.970   3.323   3.822  0.00  0.00    +0.000 A 
ATOM     13  C   UNL     1       4.204   2.416   3.069  0.00  0.00    +0.000 A 
BRANCH  12  14
ATOM     14  C   UNL     1       5.919   2.781   4.837  0.00  0.00    +0.000 C 
ATOM     15  O   UNL     1       6.121   1.586   4.988  0.00  0.00    +0.000 OA
BRANCH  14  16
ATOM     16  O   UNL     1       6.461   3.783   5.571  0.00  0.00    +0.000 OA
BRANCH  16  17
ATOM     17  C   UNL     1       7.294   3.386   6.665  0.00  0.00    +0.000 C 
BRANCH  17  18
ATOM     18  C   UNL     1       8.680   3.951   6.481  0.00  0.00    +0.000 A 
ATOM     19  C   UNL     1       9.022   5.206   7.005  0.00  0.00    +0.000 A 
ATOM     20  C   UNL     1      10.317   5.708   6.854  0.00  0.00    +0.000 A 
ATOM     21  C   UNL     1      11.277   4.966   6.169  0.00  0.00    +0.000 A 
ATOM     22  C   UNL     1      10.942   3.727   5.625  0.00  0.00    +0.000 A 
ATOM     23  C   UNL     1       9.649   3.224   5.776  0.00  0.00    +0.000 A 
ENDBRANCH  17  18
ENDBRANCH  16  17
ENDBRANCH  14  16
ENDBRANCH  12  14
ENDBRANCH   7   8
ENDBRANCH   3   7
BRANCH   4  24
ATOM     24  C   UNL     1       2.085  -0.498  -2.807  0.00  0.00    +0.000 C 
BRANCH  24  25
ATOM     25  C   UNL     1       2.551  -1.931  -2.627  0.00  0.00    +0.000 A 
ATOM     26  C   UNL     1       1.804  -2.798  -1.823  0.00  0.00    +0.000 A 
ATOM     27  C   UNL     1       2.186  -4.136  -1.695  0.00  0.00    +0.000 A 
ATOM     28  C   UNL     1       3.332  -4.549  -2.388  0.00  0.00    +0.000 A 
ATOM     29  C   UNL     1       4.040  -5.771  -2.545  0.00  0.00    +0.000 A 
ATOM     30  C   UNL     1       5.117  -5.526  -3.372  0.00  0.00    +0.000 A 
ATOM     31  N   UNL     1       5.084  -4.199  -3.717  0.00  0.00    +0.000 N 
ATOM     32  C   UNL     1       4.005  -3.589  -3.135  0.00  0.00    +0.000 A 
ATOM     33  N   UNL     1       3.684  -2.290  -3.292  0.00  0.00    +0.000 NA
ATOM     34  H   UNL     1       5.737  -3.718  -4.318  0.00  0.00    +0.000 HD
ENDBRANCH  24  25
ENDBRANCH   4  24
TORSDOF 8
