REMARK  Name = 
REMARK  7 active torsions:
REMARK  status: ('A' for Active; 'I' for Inactive)
REMARK    1  A    between atoms: C_1  and  C_2
REMARK    2  A    between atoms: N_10  and  C_11
REMARK    3  A    between atoms: C_11  and  C_12
REMARK    4  A    between atoms: C_12  and  N_13
REMARK    5  A    between atoms: C_14  and  C_16
REMARK    6  A    between atoms: C_23  and  C_24
REMARK    7  A    between atoms: C_24  and  C_26
REMARK                            x       y       z     vdW  Elec       q    Type
REMARK                         _______ _______ _______ _____ _____    ______ ____
ROOT
ATOM      1  N   UNL     1       4.746  -4.985   0.308  0.00  0.00    +0.000 N 
ATOM      2  C   UNL     1       4.048  -6.151   0.536  0.00  0.00    +0.000 C 
ATOM      3  O   UNL     1       2.858  -6.187   0.818  0.00  0.00    +0.000 OA
ATOM      4  H   UNL     1       5.675  -5.019  -0.091  0.00  0.00    +0.000 HD
ENDROOT
BRANCH   2   5
ATOM      5  C   UNL     1       4.830  -7.410   0.457  0.00  0.00    +0.000 A 
ATOM      6  C   UNL     1       6.150  -7.381   0.951  0.00  0.00    +0.000 A 
ATOM      7  C   UNL     1       6.893  -8.551   1.025  0.00  0.00    +0.000 A 
ATOM      8  F   UNL     1       8.141  -8.501   1.508  0.00  0.00    +0.000 F 
ATOM      9  C   UNL     1       6.342  -9.759   0.629  0.00  0.00    +0.000 A 
ATOM     10  F   UNL     1       7.055 -10.888   0.726  0.00  0.00    +0.000 F 
ATOM     11  C   UNL     1       5.041  -9.809   0.141  0.00  0.00    +0.000 A 
ATOM     12  C   UNL     1       4.270  -8.633   0.037  0.00  0.00    +0.000 A 
BRANCH  12  13
ATOM     13  C   UNL     1       2.882  -8.829  -0.464  0.00  0.00    +0.000 C 
ATOM     14  O   UNL     1       2.289  -9.844  -0.095  0.00  0.00    +0.000 OA
BRANCH  13  15
ATOM     15  C   UNL     1       2.212  -7.930  -1.440  0.00  0.00    +0.000 A 
ATOM     16  C   UNL     1       0.809  -7.922  -1.468  0.00  0.00    +0.000 A 
ATOM     17  C   UNL     1       0.124  -7.104  -2.368  0.00  0.00    +0.000 A 
ATOM     18  C   UNL     1       0.837  -6.292  -3.247  0.00  0.00    +0.000 A 
ATOM     19  C   UNL     1       2.233  -6.306  -3.235  0.00  0.00    +0.000 A 
ATOM     20  C   UNL     1       2.923  -7.133  -2.343  0.00  0.00    +0.000 A 
ENDBRANCH  13  15
ENDBRANCH  12  13
ENDBRANCH   2   5
BRANCH   1  21
ATOM     21  C   UNL     1       4.102  -3.679   0.368  0.00  0.00    +0.000 C 
BRANCH  21  22
ATOM     22  C   UNL     1       3.430  -3.386   1.719  0.00  0.00    +0.000 C 
BRANCH  22  32
ATOM     23  C   UNL     1       3.325   1.497   2.827  0.00  0.00    +0.000 C 
ATOM     24  C   UNL     1       2.631   0.311   2.222  0.00  0.00    +0.000 A 
ATOM     25  N   UNL     1       1.421   0.430   1.770  0.00  0.00    +0.000 NA
ATOM     26  C   UNL     1       0.784  -0.717   1.272  0.00  0.00    +0.000 A 
ATOM     27  C   UNL     1      -0.532  -0.572   0.821  0.00  0.00    +0.000 A 
ATOM     28  C   UNL     1      -1.257  -1.671   0.362  0.00  0.00    +0.000 A 
ATOM     29  C   UNL     1      -0.659  -2.926   0.335  0.00  0.00    +0.000 A 
ATOM     30  C   UNL     1       0.663  -3.083   0.763  0.00  0.00    +0.000 A 
ATOM     31  C   UNL     1       1.395  -1.986   1.246  0.00  0.00    +0.000 A 
ATOM     32  N   UNL     1       2.731  -2.108   1.728  0.00  0.00    +0.000 N 
ATOM     33  C   UNL     1       3.411  -0.992   2.199  0.00  0.00    +0.000 A 
ATOM     34  O   UNL     1       4.574  -0.989   2.587  0.00  0.00    +0.000 OA
ENDBRANCH  22  32
ENDBRANCH  21  22
ENDBRANCH   1  21
TORSDOF 6
