REMARK  Name = 
REMARK  4 active torsions:
REMARK  status: ('A' for Active; 'I' for Inactive)
REMARK    1  A    between atoms: C_2  and  C_17
REMARK    2  A    between atoms: C_6  and  O_7
REMARK    3  A    between atoms: C_10  and  C_11
REMARK    4  A    between atoms: N_19  and  C_20
REMARK                            x       y       z     vdW  Elec       q    Type
REMARK                         _______ _______ _______ _____ _____    ______ ____
ROOT
ATOM      1  O   UNL     1       0.912  -0.301  -0.211  0.00  0.00    +0.000 OA
ATOM      2  C   UNL     1       2.121  -0.089  -0.152  0.00  0.00    +0.000 C 
ATOM      3  N   UNL     1       2.756   1.018  -0.672  0.00  0.00    +0.000 N 
ATOM      4  C   UNL     1       2.026   2.039  -1.304  0.00  0.00    +0.000 A 
ATOM      5  N   UNL     1       1.294   1.655  -2.378  0.00  0.00    +0.000 NA
ATOM      6  C   UNL     1       0.695   2.626  -3.074  0.00  0.00    +0.000 A 
ATOM      7  C   UNL     1       0.760   3.965  -2.783  0.00  0.00    +0.000 A 
ATOM      8  C   UNL     1       1.494   4.338  -1.661  0.00  0.00    +0.000 A 
ATOM      9  C   UNL     1       2.168   3.379  -0.876  0.00  0.00    +0.000 A 
ATOM     10  H   UNL     1       3.671   1.276  -0.342  0.00  0.00    +0.000 HD
ENDROOT
BRANCH   2  11
ATOM     11  C   UNL     1       3.008  -1.026   0.624  0.00  0.00    +0.000 A 
ATOM     12  C   UNL     1       2.539  -2.274   0.809  0.00  0.00    +0.000 A 
ATOM     13  N   UNL     1       3.214  -3.248   1.551  0.00  0.00    +0.000 N 
ATOM     14  C   UNL     1       4.458  -2.932   2.143  0.00  0.00    +0.000 A 
ATOM     15  O   UNL     1       5.207  -3.691   2.753  0.00  0.00    +0.000 OA
ATOM     16  C   UNL     1       4.940  -1.536   1.972  0.00  0.00    +0.000 A 
ATOM     17  C   UNL     1       4.253  -0.645   1.250  0.00  0.00    +0.000 A 
BRANCH  13  18
ATOM     18  C   UNL     1       2.651  -4.574   1.724  0.00  0.00    +0.000 A 
ATOM     19  C   UNL     1       2.933  -5.356   2.854  0.00  0.00    +0.000 A 
ATOM     20  C   UNL     1       2.359  -6.617   3.008  0.00  0.00    +0.000 A 
ATOM     21  F   UNL     1       2.636  -7.337   4.105  0.00  0.00    +0.000 F 
ATOM     22  C   UNL     1       1.501  -7.143   2.056  0.00  0.00    +0.000 A 
ATOM     23  C   UNL     1       1.201  -6.390   0.928  0.00  0.00    +0.000 A 
ATOM     24  C   UNL     1       1.768  -5.118   0.768  0.00  0.00    +0.000 A 
ENDBRANCH  13  18
ENDBRANCH   2  11
BRANCH   9  25
ATOM     25  C   UNL     1       2.887   3.811   0.359  0.00  0.00    +0.000 A 
ATOM     26  C   UNL     1       2.874   3.046   1.543  0.00  0.00    +0.000 A 
ATOM     27  C   UNL     1       3.539   3.462   2.702  0.00  0.00    +0.000 A 
ATOM     28  C   UNL     1       4.188   4.689   2.728  0.00  0.00    +0.000 A 
ATOM     29  C   UNL     1       4.186   5.489   1.591  0.00  0.00    +0.000 A 
ATOM     30  C   UNL     1       3.559   5.047   0.420  0.00  0.00    +0.000 A 
ENDBRANCH   9  25
BRANCH   6  31
ATOM     31  O   UNL     1      -0.003   2.187  -4.149  0.00  0.00    +0.000 OA
ATOM     32  H   UNL     1       0.127   1.226  -4.048  0.00  0.00    +0.000 HD
ENDBRANCH   6  31
TORSDOF 4
