REMARK  Name = 
REMARK  5 active torsions:
REMARK  status: ('A' for Active; 'I' for Inactive)
REMARK    1  A    between atoms: C_2  and  C_18
REMARK    2  A    between atoms: N_3  and  C_4
REMARK    3  A    between atoms: C_4  and  C_5
REMARK    4  A    between atoms: C_8  and  C_9
REMARK    5  A    between atoms: N_20  and  C_21
REMARK                            x       y       z     vdW  Elec       q    Type
REMARK                         _______ _______ _______ _____ _____    ______ ____
ROOT
ATOM      1  O   UNL     1       2.263   1.124   0.226  0.00  0.00    +0.000 OA
ATOM      2  C   UNL     1       3.378   0.746   0.571  0.00  0.00    +0.000 C 
ATOM      3  N   UNL     1       3.603  -0.342   1.375  0.00  0.00    +0.000 N 
ATOM      4  H   UNL     1       4.551  -0.608   1.597  0.00  0.00    +0.000 HD
ENDROOT
BRANCH   2   5
ATOM      5  C   UNL     1       4.620   1.503   0.195  0.00  0.00    +0.000 A 
ATOM      6  C   UNL     1       4.499   2.468  -0.738  0.00  0.00    +0.000 A 
ATOM      7  N   UNL     1       5.282   3.632  -0.567  0.00  0.00    +0.000 N 
ATOM      8  C   UNL     1       6.641   3.417  -0.273  0.00  0.00    +0.000 A 
ATOM      9  O   UNL     1       7.580   4.125  -0.592  0.00  0.00    +0.000 OA
ATOM     10  C   UNL     1       6.900   2.190   0.597  0.00  0.00    +0.000 A 
ATOM     11  C   UNL     1       5.814   1.527   1.048  0.00  0.00    +0.000 A 
BRANCH   7  12
ATOM     12  C   UNL     1       4.619   4.599   0.330  0.00  0.00    +0.000 A 
ATOM     13  C   UNL     1       5.324   5.200   1.383  0.00  0.00    +0.000 A 
ATOM     14  C   UNL     1       4.656   5.535   2.565  0.00  0.00    +0.000 A 
ATOM     15  C   UNL     1       3.280   5.345   2.676  0.00  0.00    +0.000 A 
ATOM     16  C   UNL     1       2.549   4.933   1.569  0.00  0.00    +0.000 A 
ATOM     17  C   UNL     1       3.208   4.617   0.389  0.00  0.00    +0.000 A 
ENDBRANCH   7  12
ENDBRANCH   2   5
BRANCH   3  18
ATOM     18  C   UNL     1       2.534  -1.147   1.930  0.00  0.00    +0.000 C 
BRANCH  18  19
ATOM     19  C   UNL     1       2.621  -1.205   3.439  0.00  0.00    +0.000 A 
ATOM     20  C   UNL     1       1.884  -0.309   4.226  0.00  0.00    +0.000 A 
ATOM     21  C   UNL     1       2.010  -0.309   5.622  0.00  0.00    +0.000 A 
ATOM     22  C   UNL     1       2.879  -1.202   6.258  0.00  0.00    +0.000 A 
ATOM     23  C   UNL     1       3.592  -2.122   5.480  0.00  0.00    +0.000 A 
ATOM     24  C   UNL     1       3.464  -2.123   4.083  0.00  0.00    +0.000 A 
BRANCH  22  25
ATOM     25  C   UNL     1       3.097  -1.117   7.714  0.00  0.00    +0.000 A 
ATOM     26  C   UNL     1       2.296  -1.800   8.553  0.00  0.00    +0.000 A 
ATOM     27  N   UNL     1       2.460  -1.712   9.917  0.00  0.00    +0.000 N 
ATOM     28  C   UNL     1       3.421  -0.941  10.531  0.00  0.00    +0.000 A 
ATOM     29  O   UNL     1       3.536  -0.867  11.750  0.00  0.00    +0.000 OA
ATOM     30  C   UNL     1       4.311  -0.185   9.620  0.00  0.00    +0.000 A 
ATOM     31  C   UNL     1       4.144  -0.283   8.293  0.00  0.00    +0.000 A 
ATOM     32  H   UNL     1       1.844  -2.222  10.539  0.00  0.00    +0.000 HD
ENDBRANCH  22  25
ENDBRANCH  18  19
ENDBRANCH   3  18
TORSDOF 5
