REMARK  Name = 
REMARK  4 active torsions:
REMARK  status: ('A' for Active; 'I' for Inactive)
REMARK    1  A    between atoms: C_2  and  C_3
REMARK    2  A    between atoms: C_2  and  C_9
REMARK    3  A    between atoms: C_11  and  N_12
REMARK    4  A    between atoms: C_13  and  C_15
REMARK                            x       y       z     vdW  Elec       q    Type
REMARK                         _______ _______ _______ _____ _____    ______ ____
ROOT
ATOM      1  N   UNL     1       2.786  -3.380   3.352  0.00  0.00    +0.000 N 
ATOM      2  C   UNL     1       1.674  -4.100   2.928  0.00  0.00    +0.000 C 
ATOM      3  O   UNL     1       0.972  -3.814   1.962  0.00  0.00    +0.000 OA
ATOM      4  H   UNL     1       3.365  -3.779   4.085  0.00  0.00    +0.000 HD
ENDROOT
BRANCH   2   5
ATOM      5  C   UNL     1       1.272  -5.315   3.681  0.00  0.00    +0.000 A 
ATOM      6  C   UNL     1       2.069  -5.922   4.652  0.00  0.00    +0.000 A 
ATOM      7  F   UNL     1       3.284  -5.450   4.972  0.00  0.00    +0.000 F 
ATOM      8  C   UNL     1       1.563  -7.038   5.286  0.00  0.00    +0.000 A 
ATOM      9  C   UNL     1       0.303  -7.554   4.978  0.00  0.00    +0.000 A 
ATOM     10  C   UNL     1      -0.506  -6.996   4.022  0.00  0.00    +0.000 A 
ATOM     11  C   UNL     1      -0.007  -5.866   3.373  0.00  0.00    +0.000 A 
ATOM     12  N   UNL     1       0.074  -8.654   5.790  0.00  0.00    +0.000 N 
ATOM     13  C   UNL     1       1.187  -8.841   6.619  0.00  0.00    +0.000 A 
ATOM     14  O   UNL     1       1.325  -9.707   7.464  0.00  0.00    +0.000 OA
ATOM     15  N   UNL     1       2.108  -7.836   6.290  0.00  0.00    +0.000 N 
ATOM     16  H   UNL     1      -0.750  -9.234   5.818  0.00  0.00    +0.000 HD
ATOM     17  H   UNL     1       3.005  -7.727   6.739  0.00  0.00    +0.000 HD
ENDBRANCH   2   5
BRANCH   1  20
ATOM     18  C   UNL     1       3.013  -0.364   1.131  0.00  0.00    +0.000 A 
ATOM     19  C   UNL     1       2.499  -1.480   1.803  0.00  0.00    +0.000 A 
ATOM     20  C   UNL     1       3.231  -2.159   2.779  0.00  0.00    +0.000 A 
ATOM     21  C   UNL     1       4.453  -1.613   3.184  0.00  0.00    +0.000 A 
ATOM     22  C   UNL     1       4.932  -0.435   2.588  0.00  0.00    +0.000 A 
ATOM     23  C   UNL     1       4.219   0.177   1.555  0.00  0.00    +0.000 A 
ATOM     24  F   UNL     1       4.743   1.263   0.972  0.00  0.00    +0.000 F 
BRANCH  18  26
ATOM     25  O   UNL     1       2.228   1.395  -0.229  0.00  0.00    +0.000 OA
ATOM     26  C   UNL     1       2.264   0.186  -0.030  0.00  0.00    +0.000 C 
BRANCH  26  27
ATOM     27  C   UNL     1       1.498  -0.740  -0.926  0.00  0.00    +0.000 A 
ATOM     28  C   UNL     1       1.933  -2.052  -1.172  0.00  0.00    +0.000 A 
ATOM     29  C   UNL     1       1.126  -2.939  -1.886  0.00  0.00    +0.000 A 
ATOM     30  C   UNL     1      -0.096  -2.510  -2.398  0.00  0.00    +0.000 A 
ATOM     31  C   UNL     1      -0.506  -1.190  -2.209  0.00  0.00    +0.000 A 
ATOM     32  C   UNL     1       0.289  -0.302  -1.476  0.00  0.00    +0.000 A 
ENDBRANCH  26  27
ENDBRANCH  18  26
ENDBRANCH   1  20
TORSDOF 4
