REMARK  Name = 
REMARK  8 active torsions:
REMARK  status: ('A' for Active; 'I' for Inactive)
REMARK    1  A    between atoms: C_1  and  O_2
REMARK    2  A    between atoms: O_2  and  C_3
REMARK    3  A    between atoms: C_7  and  C_8
REMARK    4  A    between atoms: C_11  and  C_12
REMARK    5  A    between atoms: N_14  and  C_15
REMARK    6  A    between atoms: C_15  and  C_16
REMARK    7  A    between atoms: C_19  and  C_20
REMARK    8  A    between atoms: C_27  and  O_28
REMARK                            x       y       z     vdW  Elec       q    Type
REMARK                         _______ _______ _______ _____ _____    ______ ____
ROOT
ATOM      1  C   UNL     1      10.100  -4.416  -0.881  0.00  0.00    +0.000 C 
ATOM      2  O   UNL     1      10.142  -5.638  -0.749  0.00  0.00    +0.000 OA
ATOM      3  N   UNL     1      11.195  -3.594  -0.694  0.00  0.00    +0.000 N 
ATOM      4  H   UNL     1      11.222  -2.699  -1.123  0.00  0.00    +0.000 HD
ENDROOT
BRANCH   1   8
ATOM      5  C   UNL     1       6.319  -2.568  -1.554  0.00  0.00    +0.000 A 
ATOM      6  C   UNL     1       6.383  -3.799  -0.907  0.00  0.00    +0.000 A 
ATOM      7  C   UNL     1       7.620  -4.415  -0.725  0.00  0.00    +0.000 A 
ATOM      8  C   UNL     1       8.787  -3.782  -1.172  0.00  0.00    +0.000 A 
ATOM      9  C   UNL     1       8.629  -2.565  -1.804  0.00  0.00    +0.000 A 
ATOM     10  N   UNL     1       7.448  -1.950  -2.008  0.00  0.00    +0.000 NA
BRANCH   5  15
ATOM     11  C   UNL     1       2.787  -1.179  -1.169  0.00  0.00    +0.000 A 
ATOM     12  C   UNL     1       2.718  -0.354  -2.288  0.00  0.00    +0.000 A 
ATOM     13  C   UNL     1       3.785  -0.277  -3.179  0.00  0.00    +0.000 A 
ATOM     14  C   UNL     1       4.941  -1.019  -2.929  0.00  0.00    +0.000 A 
ATOM     15  C   UNL     1       5.055  -1.853  -1.805  0.00  0.00    +0.000 A 
ATOM     16  C   UNL     1       3.943  -1.926  -0.945  0.00  0.00    +0.000 A 
BRANCH  11  18
ATOM     17  C   UNL     1       0.652  -0.483  -0.408  0.00  0.00    +0.000 C 
ATOM     18  O   UNL     1       1.817  -1.284  -0.218  0.00  0.00    +0.000 OA
ENDBRANCH  11  18
ENDBRANCH   5  15
BRANCH   9  19
ATOM     19  O   UNL     1       9.706  -1.854  -2.250  0.00  0.00    +0.000 OA
ATOM     20  H   UNL     1      10.011  -1.396  -1.450  0.00  0.00    +0.000 HD
ENDBRANCH   9  19
ENDBRANCH   1   8
BRANCH   3  21
ATOM     21  C   UNL     1      12.485  -4.163  -0.337  0.00  0.00    +0.000 C 
BRANCH  21  22
ATOM     22  C   UNL     1      13.319  -3.205   0.480  0.00  0.00    +0.000 A 
ATOM     23  C   UNL     1      12.881  -2.751   1.733  0.00  0.00    +0.000 A 
ATOM     24  C   UNL     1      13.668  -1.879   2.493  0.00  0.00    +0.000 A 
ATOM     25  C   UNL     1      14.915  -1.448   2.024  0.00  0.00    +0.000 A 
ATOM     26  C   UNL     1      15.380  -1.946   0.800  0.00  0.00    +0.000 A 
ATOM     27  C   UNL     1      14.591  -2.815   0.038  0.00  0.00    +0.000 A 
BRANCH  25  28
ATOM     28  C   UNL     1      15.694  -0.492   2.806  0.00  0.00    +0.000 A 
ATOM     29  N   UNL     1      15.695  -0.355   4.115  0.00  0.00    +0.000 NA
ATOM     30  C   UNL     1      16.546   0.683   4.392  0.00  0.00    +0.000 A 
ATOM     31  C   UNL     1      17.052   1.217   3.233  0.00  0.00    +0.000 A 
ATOM     32  N   UNL     1      16.508   0.462   2.236  0.00  0.00    +0.000 N 
ATOM     33  H   UNL     1      16.637   0.594   1.242  0.00  0.00    +0.000 HD
ENDBRANCH  25  28
ENDBRANCH  21  22
ENDBRANCH   3  21
TORSDOF 7
