REMARK  Name = 
REMARK  4 active torsions:
REMARK  status: ('A' for Active; 'I' for Inactive)
REMARK    1  A    between atoms: C_2  and  C_24
REMARK    2  A    between atoms: N_3  and  C_4
REMARK    3  A    between atoms: C_8  and  N_9
REMARK    4  A    between atoms: C_10  and  C_12
REMARK                            x       y       z     vdW  Elec       q    Type
REMARK                         _______ _______ _______ _____ _____    ______ ____
ROOT
ATOM      1  C   UNL     1       2.222   1.182   2.216  0.00  0.00    +0.000 A 
ATOM      2  C   UNL     1       1.039   0.616   2.696  0.00  0.00    +0.000 A 
ATOM      3  C   UNL     1       0.452   1.078   3.867  0.00  0.00    +0.000 A 
ATOM      4  C   UNL     1       1.060   2.094   4.593  0.00  0.00    +0.000 A 
ATOM      5  C   UNL     1       2.274   2.643   4.179  0.00  0.00    +0.000 A 
ATOM      6  C   UNL     1       2.848   2.187   2.975  0.00  0.00    +0.000 A 
ENDROOT
BRANCH   1   9
ATOM      7  O   UNL     1       0.996  -0.354   0.058  0.00  0.00    +0.000 OA
ATOM      8  C   UNL     1       2.186  -0.035   0.045  0.00  0.00    +0.000 C 
ATOM      9  N   UNL     1       2.813   0.752   0.993  0.00  0.00    +0.000 N 
ATOM     10  H   UNL     1       3.725   1.135   0.769  0.00  0.00    +0.000 HD
BRANCH   8  11
ATOM     11  C   UNL     1       3.028  -0.481  -1.113  0.00  0.00    +0.000 A 
ATOM     12  C   UNL     1       2.358  -0.788  -2.242  0.00  0.00    +0.000 A 
ATOM     13  N   UNL     1       3.007  -1.323  -3.327  0.00  0.00    +0.000 N 
ATOM     14  C   UNL     1       4.348  -1.615  -3.347  0.00  0.00    +0.000 A 
ATOM     15  O   UNL     1       4.908  -2.122  -4.310  0.00  0.00    +0.000 OA
ATOM     16  C   UNL     1       5.094  -1.286  -2.102  0.00  0.00    +0.000 A 
ATOM     17  C   UNL     1       4.451  -0.750  -1.050  0.00  0.00    +0.000 A 
ATOM     18  H   UNL     1       2.483  -1.574  -4.158  0.00  0.00    +0.000 HD
ENDBRANCH   8  11
ENDBRANCH   1   9
BRANCH   5  19
ATOM     19  N   UNL     1       2.950   3.647   4.926  0.00  0.00    +0.000 N 
ATOM     20  C   UNL     1       2.565   4.138   6.166  0.00  0.00    +0.000 C 
ATOM     21  O   UNL     1       1.581   3.774   6.806  0.00  0.00    +0.000 OA
ATOM     22  H   UNL     1       3.803   4.015   4.520  0.00  0.00    +0.000 HD
BRANCH  20  23
ATOM     23  C   UNL     1       3.380   5.227   6.777  0.00  0.00    +0.000 A 
ATOM     24  C   UNL     1       2.965   5.719   8.027  0.00  0.00    +0.000 A 
ATOM     25  C   UNL     1       3.539   6.873   8.577  0.00  0.00    +0.000 A 
ATOM     26  C   UNL     1       3.118   7.407   9.796  0.00  0.00    +0.000 A 
ATOM     27  N   UNL     1       3.514   8.606  10.275  0.00  0.00    +0.000 NA
ATOM     28  C   UNL     1       4.386   9.299   9.514  0.00  0.00    +0.000 A 
ATOM     29  C   UNL     1       4.949   8.812   8.342  0.00  0.00    +0.000 A 
ATOM     30  C   UNL     1       4.534   7.563   7.862  0.00  0.00    +0.000 A 
ATOM     31  C   UNL     1       5.040   6.993   6.680  0.00  0.00    +0.000 A 
ATOM     32  C   UNL     1       4.464   5.834   6.151  0.00  0.00    +0.000 A 
ATOM     33  F   UNL     1       4.957   5.346   5.002  0.00  0.00    +0.000 F 
ENDBRANCH  20  23
ENDBRANCH   5  19
TORSDOF 4
