REMARK  Name = 
REMARK  7 active torsions:
REMARK  status: ('A' for Active; 'I' for Inactive)
REMARK    1  A    between atoms: C_1  and  N_2
REMARK    2  A    between atoms: C_4  and  C_5
REMARK    3  A    between atoms: N_7  and  C_8
REMARK    4  A    between atoms: N_7  and  C_12
REMARK    5  A    between atoms: C_8  and  C_9
REMARK    6  A    between atoms: C_12  and  C_13
REMARK    7  A    between atoms: C_16  and  C_17
REMARK                            x       y       z     vdW  Elec       q    Type
REMARK                         _______ _______ _______ _____ _____    ______ ____
ROOT
ATOM      1  C   UNL     1       5.713   1.541   0.353  0.00  0.00    +0.000 C 
ATOM      2  O   UNL     1       4.765   0.811   0.665  0.00  0.00    +0.000 OA
ATOM      3  N   UNL     1       5.469   2.942   0.301  0.00  0.00    +0.000 N 
ENDROOT
BRANCH   1   7
ATOM      4  C   UNL     1      10.667   0.709  -0.102  0.00  0.00    +0.000 C 
ATOM      5  N   UNL     1       9.237   0.478  -0.111  0.00  0.00    +0.000 N 
ATOM      6  C   UNL     1       8.282   1.466  -0.106  0.00  0.00    +0.000 A 
ATOM      7  C   UNL     1       7.034   0.902   0.108  0.00  0.00    +0.000 A 
ATOM      8  C   UNL     1       7.274  -0.546   0.051  0.00  0.00    +0.000 A 
ATOM      9  C   UNL     1       6.448  -1.697   0.109  0.00  0.00    +0.000 A 
ATOM     10  C   UNL     1       7.019  -2.972   0.030  0.00  0.00    +0.000 A 
ATOM     11  F   UNL     1       6.224  -4.053   0.072  0.00  0.00    +0.000 F 
ATOM     12  C   UNL     1       8.385  -3.155  -0.088  0.00  0.00    +0.000 A 
ATOM     13  C   UNL     1       9.230  -2.048  -0.143  0.00  0.00    +0.000 A 
ATOM     14  C   UNL     1       8.653  -0.763  -0.082  0.00  0.00    +0.000 A 
ENDBRANCH   1   7
BRANCH   3  15
ATOM     15  C   UNL     1       4.041   3.330   0.309  0.00  0.00    +0.000 C 
BRANCH  15  16
ATOM     16  C   UNL     1       3.429   3.571   1.701  0.00  0.00    +0.000 C 
ATOM     17  N   UNL     1       3.923   2.792   2.723  0.00  0.00    +0.000 N 
ATOM     18  O   UNL     1       2.448   4.288   1.869  0.00  0.00    +0.000 OA
ATOM     19  H   UNL     1       3.887   1.805   2.463  0.00  0.00    +0.000 HD
ATOM     20  H   UNL     1       4.918   2.928   2.854  0.00  0.00    +0.000 HD
ENDBRANCH  15  16
ENDBRANCH   3  15
BRANCH   3  21
ATOM     21  C   UNL     1       6.474   3.980   0.006  0.00  0.00    +0.000 C 
BRANCH  21  22
ATOM     22  C   UNL     1       6.105   5.461   0.086  0.00  0.00    +0.000 A 
ATOM     23  C   UNL     1       5.711   6.064   1.282  0.00  0.00    +0.000 A 
ATOM     24  C   UNL     1       5.471   7.454   1.357  0.00  0.00    +0.000 A 
ATOM     25  C   UNL     1       5.646   8.321   0.262  0.00  0.00    +0.000 A 
ATOM     26  C   UNL     1       6.043   7.704  -0.938  0.00  0.00    +0.000 A 
ATOM     27  C   UNL     1       6.265   6.306  -1.020  0.00  0.00    +0.000 A 
BRANCH  25  28
ATOM     28  C   UNL     1       5.415   9.800   0.388  0.00  0.00    +0.000 A 
ATOM     29  C   UNL     1       5.560  10.463   1.626  0.00  0.00    +0.000 A 
ATOM     30  C   UNL     1       5.289  11.832   1.783  0.00  0.00    +0.000 A 
ATOM     31  C   UNL     1       4.884  12.590   0.694  0.00  0.00    +0.000 A 
ATOM     32  C   UNL     1       4.760  11.981  -0.550  0.00  0.00    +0.000 A 
ATOM     33  C   UNL     1       5.021  10.605  -0.699  0.00  0.00    +0.000 A 
ENDBRANCH  25  28
ENDBRANCH  21  22
ENDBRANCH   3  21
TORSDOF 6
