REMARK  Name = 
REMARK  6 active torsions:
REMARK  status: ('A' for Active; 'I' for Inactive)
REMARK    1  A    between atoms: C_2  and  C_18
REMARK    2  A    between atoms: N_3  and  C_4
REMARK    3  A    between atoms: C_9  and  O_10
REMARK    4  A    between atoms: O_10  and  C_11
REMARK    5  A    between atoms: C_11  and  C_12
REMARK    6  A    between atoms: N_22  and  C_23
REMARK                            x       y       z     vdW  Elec       q    Type
REMARK                         _______ _______ _______ _____ _____    ______ ____
ROOT
ATOM      1  O   UNL     1       2.634  -0.993  -0.329  0.00  0.00    +0.000 OA
ATOM      2  C   UNL     1       2.068  -0.130   0.348  0.00  0.00    +0.000 C 
ATOM      3  N   UNL     1       2.833   0.752   1.080  0.00  0.00    +0.000 N 
ATOM      4  H   UNL     1       3.792   0.791   0.754  0.00  0.00    +0.000 HD
ENDROOT
BRANCH   2   5
ATOM      5  C   UNL     1       0.588  -0.010   0.313  0.00  0.00    +0.000 A 
ATOM      6  C   UNL     1      -0.166  -1.092   0.092  0.00  0.00    +0.000 A 
ATOM      7  C   UNL     1      -1.650  -1.026   0.075  0.00  0.00    +0.000 A 
ATOM      8  O   UNL     1      -2.245  -2.081  -0.141  0.00  0.00    +0.000 OA
ATOM      9  N   UNL     1      -2.213   0.237   0.304  0.00  0.00    +0.000 N 
ATOM     10  N   UNL     1      -1.452   1.379   0.358  0.00  0.00    +0.000 NA
ATOM     11  C   UNL     1      -0.173   1.241   0.333  0.00  0.00    +0.000 A 
BRANCH   9  12
ATOM     12  C   UNL     1      -3.620   0.502   0.396  0.00  0.00    +0.000 A 
ATOM     13  C   UNL     1      -4.563  -0.508   0.616  0.00  0.00    +0.000 A 
ATOM     14  C   UNL     1      -5.928  -0.211   0.703  0.00  0.00    +0.000 A 
ATOM     15  C   UNL     1      -6.376   1.101   0.568  0.00  0.00    +0.000 A 
ATOM     16  C   UNL     1      -5.460   2.123   0.362  0.00  0.00    +0.000 A 
ATOM     17  C   UNL     1      -4.097   1.826   0.287  0.00  0.00    +0.000 A 
ENDBRANCH   9  12
ENDBRANCH   2   5
BRANCH   3  18
ATOM     18  C   UNL     1       2.354   1.832   1.843  0.00  0.00    +0.000 A 
ATOM     19  C   UNL     1       2.448   3.107   1.271  0.00  0.00    +0.000 A 
ATOM     20  C   UNL     1       1.722   4.162   1.823  0.00  0.00    +0.000 A 
ATOM     21  C   UNL     1       1.011   3.974   3.005  0.00  0.00    +0.000 A 
ATOM     22  C   UNL     1       1.014   2.728   3.640  0.00  0.00    +0.000 A 
ATOM     23  C   UNL     1       1.649   1.633   3.046  0.00  0.00    +0.000 A 
BRANCH  23  24
ATOM     24  O   UNL     1       1.629   0.357   3.554  0.00  0.00    +0.000 OA
BRANCH  24  25
ATOM     25  C   UNL     1       0.712   0.123   4.628  0.00  0.00    +0.000 C 
BRANCH  25  26
ATOM     26  C   UNL     1       0.559  -1.341   4.938  0.00  0.00    +0.000 A 
ATOM     27  C   UNL     1       0.887  -2.357   4.031  0.00  0.00    +0.000 A 
ATOM     28  C   UNL     1       0.634  -3.682   4.367  0.00  0.00    +0.000 A 
ATOM     29  C   UNL     1       0.059  -3.955   5.598  0.00  0.00    +0.000 A 
ATOM     30  N   UNL     1      -0.267  -3.007   6.499  0.00  0.00    +0.000 NA
ATOM     31  C   UNL     1      -0.014  -1.726   6.147  0.00  0.00    +0.000 A 
ENDBRANCH  25  26
ENDBRANCH  24  25
ENDBRANCH  23  24
ENDBRANCH   3  18
TORSDOF 6
