REMARK  Name = 
REMARK  6 active torsions:
REMARK  status: ('A' for Active; 'I' for Inactive)
REMARK    1  A    between atoms: C_2  and  C_18
REMARK    2  A    between atoms: N_3  and  C_4
REMARK    3  A    between atoms: C_4  and  C_5
REMARK    4  A    between atoms: C_8  and  C_9
REMARK    5  A    between atoms: C_23  and  O_24
REMARK    6  A    between atoms: O_24  and  C_25
REMARK                            x       y       z     vdW  Elec       q    Type
REMARK                         _______ _______ _______ _____ _____    ______ ____
ROOT
ATOM      1  O   UNL     1       1.093  -0.213   0.112  0.00  0.00    +0.000 OA
ATOM      2  C   UNL     1       2.312  -0.276   0.257  0.00  0.00    +0.000 C 
ATOM      3  N   UNL     1       3.046  -1.330  -0.229  0.00  0.00    +0.000 N 
ATOM      4  H   UNL     1       4.052  -1.349  -0.121  0.00  0.00    +0.000 HD
ENDROOT
BRANCH   2   5
ATOM      5  C   UNL     1       3.004   0.809   1.011  0.00  0.00    +0.000 A 
ATOM      6  C   UNL     1       2.183   1.820   1.546  0.00  0.00    +0.000 A 
ATOM      7  C   UNL     1       2.716   2.834   2.336  0.00  0.00    +0.000 A 
ATOM      8  C   UNL     1       4.075   2.832   2.553  0.00  0.00    +0.000 A 
ATOM      9  N   UNL     1       4.903   1.911   2.026  0.00  0.00    +0.000 NA
ATOM     10  C   UNL     1       4.365   0.897   1.289  0.00  0.00    +0.000 A 
BRANCH  10  11
ATOM     11  O   UNL     1       5.245  -0.078   0.809  0.00  0.00    +0.000 OA
BRANCH  11  12
ATOM     12  C   UNL     1       6.488  -0.138   1.400  0.00  0.00    +0.000 A 
ATOM     13  C   UNL     1       6.668  -0.160   2.784  0.00  0.00    +0.000 A 
ATOM     14  C   UNL     1       7.953  -0.121   3.313  0.00  0.00    +0.000 A 
ATOM     15  C   UNL     1       9.024  -0.130   2.434  0.00  0.00    +0.000 A 
ATOM     16  N   UNL     1       8.892  -0.202   1.090  0.00  0.00    +0.000 NA
ATOM     17  C   UNL     1       7.623  -0.202   0.603  0.00  0.00    +0.000 A 
ENDBRANCH  11  12
ENDBRANCH  10  11
ENDBRANCH   2   5
BRANCH   3  18
ATOM     18  C   UNL     1       2.415  -2.469  -0.865  0.00  0.00    +0.000 C 
BRANCH  18  19
ATOM     19  C   UNL     1       2.900  -2.646  -2.278  0.00  0.00    +0.000 A 
ATOM     20  C   UNL     1       3.998  -3.468  -2.564  0.00  0.00    +0.000 A 
ATOM     21  C   UNL     1       4.463  -3.602  -3.876  0.00  0.00    +0.000 A 
ATOM     22  C   UNL     1       3.830  -2.923  -4.925  0.00  0.00    +0.000 A 
ATOM     23  C   UNL     1       2.730  -2.105  -4.644  0.00  0.00    +0.000 A 
ATOM     24  C   UNL     1       2.273  -1.964  -3.330  0.00  0.00    +0.000 A 
BRANCH  22  25
ATOM     25  C   UNL     1       4.336  -3.046  -6.302  0.00  0.00    +0.000 A 
ATOM     26  C   UNL     1       3.878  -4.053  -7.073  0.00  0.00    +0.000 A 
ATOM     27  N   UNL     1       4.327  -4.210  -8.362  0.00  0.00    +0.000 N 
ATOM     28  C   UNL     1       5.248  -3.389  -8.968  0.00  0.00    +0.000 A 
ATOM     29  O   UNL     1       5.632  -3.550 -10.118  0.00  0.00    +0.000 OA
ATOM     30  C   UNL     1       5.759  -2.275  -8.128  0.00  0.00    +0.000 A 
ATOM     31  C   UNL     1       5.315  -2.131  -6.871  0.00  0.00    +0.000 A 
ATOM     32  H   UNL     1       3.976  -4.970  -8.933  0.00  0.00    +0.000 HD
ENDBRANCH  22  25
ENDBRANCH  18  19
ENDBRANCH   3  18
TORSDOF 6
