REMARK  Name = 
REMARK  5 active torsions:
REMARK  status: ('A' for Active; 'I' for Inactive)
REMARK    1  A    between atoms: C_2  and  C_16
REMARK    2  A    between atoms: N_3  and  C_4
REMARK    3  A    between atoms: C_4  and  C_5
REMARK    4  A    between atoms: C_21  and  O_22
REMARK    5  A    between atoms: O_22  and  C_23
REMARK                            x       y       z     vdW  Elec       q    Type
REMARK                         _______ _______ _______ _____ _____    ______ ____
ROOT
ATOM      1  O   UNL     1       1.010   0.358  -0.527  0.00  0.00    +0.000 OA
ATOM      2  C   UNL     1       2.235   0.258  -0.423  0.00  0.00    +0.000 C 
ATOM      3  N   UNL     1       3.023   1.345  -0.147  0.00  0.00    +0.000 N 
ATOM      4  H   UNL     1       4.031   1.263  -0.167  0.00  0.00    +0.000 HD
ENDROOT
BRANCH   2   5
ATOM      5  C   UNL     1       2.884  -1.087  -0.580  0.00  0.00    +0.000 A 
ATOM      6  C   UNL     1       1.995  -2.155  -0.828  0.00  0.00    +0.000 A 
ATOM      7  C   UNL     1       2.450  -3.465  -0.984  0.00  0.00    +0.000 A 
ATOM      8  C   UNL     1       3.800  -3.741  -0.845  0.00  0.00    +0.000 A 
ATOM      9  C   UNL     1       4.690  -2.706  -0.562  0.00  0.00    +0.000 A 
ATOM     10  C   UNL     1       4.260  -1.364  -0.487  0.00  0.00    +0.000 A 
BRANCH  10  11
ATOM     11  O   UNL     1       5.160  -0.324  -0.298  0.00  0.00    +0.000 OA
BRANCH  11  12
ATOM     12  C   UNL     1       6.478  -0.521  -0.664  0.00  0.00    +0.000 A 
ATOM     13  C   UNL     1       6.840  -1.048  -1.911  0.00  0.00    +0.000 A 
ATOM     14  C   UNL     1       8.172  -1.371  -2.169  0.00  0.00    +0.000 A 
ATOM     15  C   UNL     1       9.140  -1.095  -1.210  0.00  0.00    +0.000 A 
ATOM     16  F   UNL     1      10.415  -1.432  -1.445  0.00  0.00    +0.000 F 
ATOM     17  C   UNL     1       8.803  -0.481  -0.007  0.00  0.00    +0.000 A 
ATOM     18  C   UNL     1       7.465  -0.189   0.269  0.00  0.00    +0.000 A 
ENDBRANCH  11  12
ENDBRANCH  10  11
ENDBRANCH   2   5
BRANCH   3  19
ATOM     19  C   UNL     1       2.448   2.670   0.003  0.00  0.00    +0.000 C 
BRANCH  19  20
ATOM     20  C   UNL     1       2.355   3.417  -1.308  0.00  0.00    +0.000 A 
ATOM     21  C   UNL     1       1.229   3.281  -2.123  0.00  0.00    +0.000 A 
ATOM     22  C   UNL     1       1.161   3.993  -3.320  0.00  0.00    +0.000 A 
ATOM     23  C   UNL     1       2.214   4.834  -3.666  0.00  0.00    +0.000 A 
ATOM     24  C   UNL     1       2.206   5.643  -4.883  0.00  0.00    +0.000 A 
ATOM     25  C   UNL     1       3.209   6.503  -5.108  0.00  0.00    +0.000 A 
ATOM     26  C   UNL     1       4.340   6.631  -4.154  0.00  0.00    +0.000 A 
ATOM     27  O   UNL     1       5.226   7.457  -4.349  0.00  0.00    +0.000 OA
ATOM     28  N   UNL     1       4.333   5.797  -3.078  0.00  0.00    +0.000 N 
ATOM     29  C   UNL     1       3.299   4.912  -2.790  0.00  0.00    +0.000 A 
ATOM     30  N   UNL     1       3.401   4.217  -1.640  0.00  0.00    +0.000 NA
ATOM     31  H   UNL     1       5.085   5.859  -2.410  0.00  0.00    +0.000 HD
ENDBRANCH  19  20
ENDBRANCH   3  19
TORSDOF 5
