REMARK  Name = 
REMARK  4 active torsions:
REMARK  status: ('A' for Active; 'I' for Inactive)
REMARK    1  A    between atoms: C_1  and  C_2
REMARK    2  A    between atoms: C_6  and  C_8
REMARK    3  A    between atoms: N_10  and  C_11
REMARK    4  A    between atoms: C_24  and  C_25
REMARK                            x       y       z     vdW  Elec       q    Type
REMARK                         _______ _______ _______ _____ _____    ______ ____
ROOT
ATOM      1  C   UNL     1      -2.326   0.107   0.760  0.00  0.00    +0.000 C 
ATOM      2  C   UNL     1      -0.900  -0.009   0.301  0.00  0.00    +0.000 A 
ATOM      3  N   UNL     1      -0.237   1.188   0.278  0.00  0.00    +0.000 NA
ATOM      4  C   UNL     1       1.071   1.172   0.005  0.00  0.00    +0.000 A 
ATOM      5  N   UNL     1       1.724   2.398   0.057  0.00  0.00    +0.000 N 
ATOM      6  C   UNL     1       3.084   2.521   0.196  0.00  0.00    +0.000 C 
ATOM      7  O   UNL     1       3.893   1.629   0.423  0.00  0.00    +0.000 OA
ATOM      8  N   UNL     1       1.739   0.070  -0.322  0.00  0.00    +0.000 NA
ATOM      9  C   UNL     1       1.044  -1.087  -0.346  0.00  0.00    +0.000 A 
ATOM     10  C   UNL     1      -0.302  -1.230  -0.032  0.00  0.00    +0.000 A 
ATOM     11  H   UNL     1       1.131   3.210   0.155  0.00  0.00    +0.000 HD
ENDROOT
BRANCH   6  12
ATOM     12  C   UNL     1       3.613   3.942   0.152  0.00  0.00    +0.000 A 
ATOM     13  N   UNL     1       2.860   4.897   0.650  0.00  0.00    +0.000 NA
ATOM     14  N   UNL     1       3.369   6.185   0.637  0.00  0.00    +0.000 N 
ATOM     15  C   UNL     1       4.659   6.465   0.220  0.00  0.00    +0.000 A 
ATOM     16  C   UNL     1       5.509   5.586  -0.296  0.00  0.00    +0.000 A 
ATOM     17  C   UNL     1       4.988   4.226  -0.430  0.00  0.00    +0.000 A 
ATOM     18  O   UNL     1       5.638   3.372  -1.015  0.00  0.00    +0.000 OA
BRANCH  14  19
ATOM     19  C   UNL     1       2.548   7.198   1.234  0.00  0.00    +0.000 A 
ATOM     20  C   UNL     1       1.653   6.892   2.275  0.00  0.00    +0.000 A 
ATOM     21  C   UNL     1       0.918   7.899   2.912  0.00  0.00    +0.000 A 
ATOM     22  C   UNL     1       1.054   9.218   2.501  0.00  0.00    +0.000 A 
ATOM     23  F   UNL     1       0.361  10.182   3.121  0.00  0.00    +0.000 F 
ATOM     24  C   UNL     1       1.902   9.552   1.456  0.00  0.00    +0.000 A 
ATOM     25  C   UNL     1       2.638   8.546   0.825  0.00  0.00    +0.000 A 
ENDBRANCH  14  19
ENDBRANCH   6  12
BRANCH  10  26
ATOM     26  C   UNL     1      -0.948  -2.572  -0.064  0.00  0.00    +0.000 A 
ATOM     27  C   UNL     1      -0.229  -3.738   0.275  0.00  0.00    +0.000 A 
ATOM     28  C   UNL     1      -0.807  -5.013   0.205  0.00  0.00    +0.000 A 
ATOM     29  C   UNL     1      -2.138  -5.156  -0.169  0.00  0.00    +0.000 A 
ATOM     30  C   UNL     1      -2.878  -4.029  -0.496  0.00  0.00    +0.000 A 
ATOM     31  C   UNL     1      -2.279  -2.764  -0.472  0.00  0.00    +0.000 A 
ENDBRANCH  10  26
TORSDOF 3
