REMARK  Name = 
REMARK  5 active torsions:
REMARK  status: ('A' for Active; 'I' for Inactive)
REMARK    1  A    between atoms: C_2  and  C_18
REMARK    2  A    between atoms: N_3  and  C_4
REMARK    3  A    between atoms: C_9  and  O_10
REMARK    4  A    between atoms: O_10  and  C_11
REMARK    5  A    between atoms: C_11  and  C_12
REMARK                            x       y       z     vdW  Elec       q    Type
REMARK                         _______ _______ _______ _____ _____    ______ ____
ROOT
ATOM      1  O   UNL     1       4.607  -0.271  -0.320  0.00  0.00    +0.000 OA
ATOM      2  C   UNL     1       4.045  -0.649   0.706  0.00  0.00    +0.000 C 
ATOM      3  N   UNL     1       3.012   0.119   1.235  0.00  0.00    +0.000 N 
ATOM      4  H   UNL     1       2.517   0.588   0.481  0.00  0.00    +0.000 HD
ENDROOT
BRANCH   2   5
ATOM      5  C   UNL     1       4.370  -2.013   1.236  0.00  0.00    +0.000 A 
ATOM      6  C   UNL     1       4.683  -2.995   0.278  0.00  0.00    +0.000 A 
ATOM      7  C   UNL     1       4.587  -4.349   0.606  0.00  0.00    +0.000 A 
ATOM      8  C   UNL     1       4.178  -4.709   1.894  0.00  0.00    +0.000 A 
ATOM      9  N   UNL     1       3.845  -6.042   2.169  0.00  0.00    +0.000 N 
ATOM     10  C   UNL     1       3.900  -7.035   1.231  0.00  0.00    +0.000 A 
ATOM     11  O   UNL     1       3.497  -8.171   1.449  0.00  0.00    +0.000 OA
ATOM     12  C   UNL     1       4.488  -6.668  -0.083  0.00  0.00    +0.000 A 
ATOM     13  C   UNL     1       4.819  -5.402  -0.378  0.00  0.00    +0.000 A 
ATOM     14  C   UNL     1       4.034  -3.739   2.874  0.00  0.00    +0.000 A 
ATOM     15  F   UNL     1       3.647  -4.083   4.113  0.00  0.00    +0.000 F 
ATOM     16  C   UNL     1       4.195  -2.398   2.566  0.00  0.00    +0.000 A 
ATOM     17  H   UNL     1       3.453  -6.281   3.071  0.00  0.00    +0.000 HD
ENDBRANCH   2   5
BRANCH   3  18
ATOM     18  C   UNL     1       2.241  -0.194   2.374  0.00  0.00    +0.000 A 
ATOM     19  C   UNL     1       2.669   0.327   3.596  0.00  0.00    +0.000 A 
ATOM     20  N   UNL     1       2.158  -0.034   4.792  0.00  0.00    +0.000 NA
ATOM     21  C   UNL     1       1.165  -0.944   4.770  0.00  0.00    +0.000 A 
ATOM     22  C   UNL     1       0.633  -1.477   3.609  0.00  0.00    +0.000 A 
ATOM     23  C   UNL     1       1.145  -1.061   2.375  0.00  0.00    +0.000 A 
BRANCH  23  24
ATOM     24  O   UNL     1       0.660  -1.512   1.169  0.00  0.00    +0.000 OA
BRANCH  24  25
ATOM     25  C   UNL     1      -0.664  -2.064   1.225  0.00  0.00    +0.000 C 
BRANCH  25  26
ATOM     26  C   UNL     1      -1.284  -2.072  -0.145  0.00  0.00    +0.000 A 
ATOM     27  C   UNL     1      -0.875  -2.999  -1.111  0.00  0.00    +0.000 A 
ATOM     28  C   UNL     1      -1.455  -2.994  -2.380  0.00  0.00    +0.000 A 
ATOM     29  C   UNL     1      -2.445  -2.064  -2.692  0.00  0.00    +0.000 A 
ATOM     30  C   UNL     1      -2.866  -1.142  -1.736  0.00  0.00    +0.000 A 
ATOM     31  C   UNL     1      -2.288  -1.146  -0.468  0.00  0.00    +0.000 A 
ENDBRANCH  25  26
ENDBRANCH  24  25
ENDBRANCH  23  24
ENDBRANCH   3  18
TORSDOF 5
