REMARK  Name = 
REMARK  6 active torsions:
REMARK  status: ('A' for Active; 'I' for Inactive)
REMARK    1  A    between atoms: C_1  and  N_2
REMARK    2  A    between atoms: C_9  and  N_10
REMARK    3  A    between atoms: C_11  and  C_13
REMARK    4  A    between atoms: C_16  and  O_17
REMARK    5  A    between atoms: O_17  and  C_18
REMARK    6  A    between atoms: C_21  and  C_22
REMARK                            x       y       z     vdW  Elec       q    Type
REMARK                         _______ _______ _______ _____ _____    ______ ____
ROOT
ATOM      1  N   UNL     1       5.173  -4.937   0.092  0.00  0.00    +0.000 N 
ATOM      2  C   UNL     1       4.604  -6.198   0.004  0.00  0.00    +0.000 C 
ATOM      3  O   UNL     1       3.414  -6.435  -0.174  0.00  0.00    +0.000 OA
ATOM      4  H   UNL     1       6.180  -4.870   0.023  0.00  0.00    +0.000 HD
ENDROOT
BRANCH   1  13
ATOM      5  C   UNL     1       3.026   1.179  -0.752  0.00  0.00    +0.000 C 
ATOM      6  N   UNL     1       2.329  -0.035  -0.333  0.00  0.00    +0.000 N 
ATOM      7  C   UNL     1       0.970  -0.042  -0.076  0.00  0.00    +0.000 A 
ATOM      8  C   UNL     1       0.244  -1.109   0.264  0.00  0.00    +0.000 A 
ATOM      9  C   UNL     1       0.932  -2.409   0.372  0.00  0.00    +0.000 A 
ATOM     10  O   UNL     1       0.292  -3.412   0.669  0.00  0.00    +0.000 OA
ATOM     11  C   UNL     1       2.394  -2.432   0.122  0.00  0.00    +0.000 A 
ATOM     12  C   UNL     1       3.071  -3.653   0.236  0.00  0.00    +0.000 A 
ATOM     13  C   UNL     1       4.447  -3.724   0.030  0.00  0.00    +0.000 A 
ATOM     14  C   UNL     1       5.139  -2.545  -0.255  0.00  0.00    +0.000 A 
ATOM     15  C   UNL     1       4.454  -1.325  -0.391  0.00  0.00    +0.000 A 
ATOM     16  C   UNL     1       3.064  -1.238  -0.212  0.00  0.00    +0.000 A 
ENDBRANCH   1  13
BRANCH   2  17
ATOM     17  C   UNL     1       5.529  -7.360   0.031  0.00  0.00    +0.000 A 
ATOM     18  C   UNL     1       6.742  -7.378   0.728  0.00  0.00    +0.000 A 
ATOM     19  C   UNL     1       7.523  -8.543   0.734  0.00  0.00    +0.000 A 
ATOM     20  C   UNL     1       7.094  -9.690   0.057  0.00  0.00    +0.000 A 
ATOM     21  C   UNL     1       5.902  -9.652  -0.670  0.00  0.00    +0.000 A 
ATOM     22  C   UNL     1       5.114  -8.505  -0.660  0.00  0.00    +0.000 A 
BRANCH  20  23
ATOM     23  O   UNL     1       7.921 -10.794   0.117  0.00  0.00    +0.000 OA
BRANCH  23  24
ATOM     24  C   UNL     1       7.333 -12.046  -0.000  0.00  0.00    +0.000 A 
ATOM     25  C   UNL     1       8.032 -13.016  -0.703  0.00  0.00    +0.000 A 
ATOM     26  C   UNL     1       7.405 -14.242  -0.934  0.00  0.00    +0.000 A 
ATOM     27  C   UNL     1       6.112 -14.453  -0.451  0.00  0.00    +0.000 A 
ATOM     28  C   UNL     1       5.519 -13.445   0.290  0.00  0.00    +0.000 A 
ATOM     29  N   UNL     1       6.110 -12.256   0.543  0.00  0.00    +0.000 NA
BRANCH  27  30
ATOM     30  C   UNL     1       5.397 -15.657  -0.732  0.00  0.00    +0.000 C 
ATOM     31  N   UNL     1       4.799 -16.619  -0.975  0.00  0.00    +0.000 NA
ENDBRANCH  27  30
ENDBRANCH  23  24
ENDBRANCH  20  23
ENDBRANCH   2  17
TORSDOF 5
