REMARK  Name = 
REMARK  5 active torsions:
REMARK  status: ('A' for Active; 'I' for Inactive)
REMARK    1  A    between atoms: C_2  and  C_16
REMARK    2  A    between atoms: N_3  and  C_4
REMARK    3  A    between atoms: C_7  and  C_8
REMARK    4  A    between atoms: C_19  and  C_20
REMARK    5  A    between atoms: C_20  and  C_22
REMARK                            x       y       z     vdW  Elec       q    Type
REMARK                         _______ _______ _______ _____ _____    ______ ____
ROOT
ATOM      1  O   UNL     1       0.977   0.052  -0.347  0.00  0.00    +0.000 OA
ATOM      2  C   UNL     1       2.184  -0.011  -0.136  0.00  0.00    +0.000 C 
ATOM      3  N   UNL     1       2.839  -0.972   0.624  0.00  0.00    +0.000 N 
ATOM      4  H   UNL     1       3.796  -0.789   0.897  0.00  0.00    +0.000 HD
ENDROOT
BRANCH   3   5
ATOM      5  C   UNL     1       2.189  -2.076   1.226  0.00  0.00    +0.000 A 
ATOM      6  C   UNL     1       0.918  -2.496   0.856  0.00  0.00    +0.000 A 
ATOM      7  C   UNL     1       0.300  -3.539   1.535  0.00  0.00    +0.000 A 
ATOM      8  C   UNL     1       0.966  -4.181   2.573  0.00  0.00    +0.000 A 
ATOM      9  N   UNL     1       2.225  -3.819   2.933  0.00  0.00    +0.000 NA
ATOM     10  C   UNL     1       2.804  -2.791   2.251  0.00  0.00    +0.000 A 
BRANCH   8  11
ATOM     11  C   UNL     1       0.318  -5.255   3.350  0.00  0.00    +0.000 A 
ATOM     12  C   UNL     1      -0.616  -6.122   2.762  0.00  0.00    +0.000 A 
ATOM     13  C   UNL     1      -1.265  -7.063   3.547  0.00  0.00    +0.000 A 
ATOM     14  N   UNL     1      -1.045  -7.212   4.866  0.00  0.00    +0.000 NA
ATOM     15  C   UNL     1      -0.128  -6.391   5.420  0.00  0.00    +0.000 A 
ATOM     16  C   UNL     1       0.570  -5.419   4.716  0.00  0.00    +0.000 A 
ENDBRANCH   8  11
ENDBRANCH   3   5
BRANCH   2  17
ATOM     17  C   UNL     1       3.013   1.076  -0.705  0.00  0.00    +0.000 A 
ATOM     18  C   UNL     1       2.430   2.347  -0.809  0.00  0.00    +0.000 A 
ATOM     19  C   UNL     1       3.103   3.382  -1.457  0.00  0.00    +0.000 A 
ATOM     20  C   UNL     1       4.362   3.148  -2.019  0.00  0.00    +0.000 A 
ATOM     21  C   UNL     1       4.966   1.887  -1.863  0.00  0.00    +0.000 A 
ATOM     22  C   UNL     1       4.288   0.844  -1.224  0.00  0.00    +0.000 A 
BRANCH  20  23
ATOM     23  C   UNL     1       5.030   4.260  -2.754  0.00  0.00    +0.000 C 
ATOM     24  O   UNL     1       4.788   5.418  -2.426  0.00  0.00    +0.000 OA
BRANCH  23  25
ATOM     25  C   UNL     1       5.975   3.943  -3.822  0.00  0.00    +0.000 A 
ATOM     26  C   UNL     1       5.942   2.860  -4.687  0.00  0.00    +0.000 A 
ATOM     27  N   UNL     1       7.048   2.912  -5.496  0.00  0.00    +0.000 N 
ATOM     28  C   UNL     1       7.767   4.039  -5.206  0.00  0.00    +0.000 A 
ATOM     29  C   UNL     1       7.109   4.715  -4.204  0.00  0.00    +0.000 A 
ATOM     30  H   UNL     1       7.290   2.227  -6.201  0.00  0.00    +0.000 HD
ENDBRANCH  23  25
ENDBRANCH  20  23
ENDBRANCH   2  17
TORSDOF 5
