REMARK  Name = 
REMARK  6 active torsions:
REMARK  status: ('A' for Active; 'I' for Inactive)
REMARK    1  A    between atoms: C_2  and  O_3
REMARK    2  A    between atoms: C_2  and  C_4
REMARK    3  A    between atoms: C_7  and  C_8
REMARK    4  A    between atoms: C_12  and  C_13
REMARK    5  A    between atoms: C_13  and  N_14
REMARK    6  A    between atoms: C_15  and  C_17
REMARK                            x       y       z     vdW  Elec       q    Type
REMARK                         _______ _______ _______ _____ _____    ______ ____
ROOT
ATOM      1  C   UNL     1       6.811  -2.156  -7.479  0.00  0.00    +0.000 C 
ENDROOT
BRANCH   1   6
ATOM      2  C   UNL     1       5.306   0.178  -4.834  0.00  0.00    +0.000 A 
ATOM      3  C   UNL     1       5.786   1.413  -5.302  0.00  0.00    +0.000 A 
ATOM      4  C   UNL     1       6.543   1.505  -6.475  0.00  0.00    +0.000 A 
ATOM      5  C   UNL     1       6.861   0.354  -7.193  0.00  0.00    +0.000 A 
ATOM      6  C   UNL     1       6.424  -0.897  -6.747  0.00  0.00    +0.000 A 
ATOM      7  C   UNL     1       5.624  -0.965  -5.593  0.00  0.00    +0.000 A 
BRANCH   2  11
ATOM      8  C   UNL     1       3.048  -0.108  -1.163  0.00  0.00    +0.000 A 
ATOM      9  C   UNL     1       2.929   1.020  -1.970  0.00  0.00    +0.000 A 
ATOM     10  C   UNL     1       3.654   1.109  -3.164  0.00  0.00    +0.000 A 
ATOM     11  C   UNL     1       4.520   0.080  -3.576  0.00  0.00    +0.000 A 
ATOM     12  C   UNL     1       4.617  -1.054  -2.745  0.00  0.00    +0.000 A 
ATOM     13  C   UNL     1       3.876  -1.162  -1.557  0.00  0.00    +0.000 A 
BRANCH   8  15
ATOM     14  O   UNL     1       1.137   0.291   0.175  0.00  0.00    +0.000 OA
ATOM     15  C   UNL     1       2.243  -0.178   0.084  0.00  0.00    +0.000 C 
BRANCH  15  16
ATOM     16  O   UNL     1       2.894  -0.775   1.107  0.00  0.00    +0.000 OA
ATOM     17  H   UNL     1       3.843  -0.940   0.951  0.00  0.00    +0.000 HD
ENDBRANCH  15  16
ENDBRANCH   8  15
ENDBRANCH   2  11
ENDBRANCH   1   6
BRANCH   1  18
ATOM     18  N   UNL     1       5.776  -2.591  -8.383  0.00  0.00    +0.000 N 
ATOM     19  C   UNL     1       5.978  -3.711  -9.161  0.00  0.00    +0.000 C 
ATOM     20  O   UNL     1       6.933  -4.468  -9.040  0.00  0.00    +0.000 OA
ATOM     21  H   UNL     1       5.101  -1.903  -8.686  0.00  0.00    +0.000 HD
BRANCH  19  22
ATOM     22  C   UNL     1       5.000  -3.907 -10.261  0.00  0.00    +0.000 A 
ATOM     23  C   UNL     1       5.485  -4.354 -11.496  0.00  0.00    +0.000 A 
ATOM     24  C   UNL     1       4.644  -4.386 -12.608  0.00  0.00    +0.000 A 
ATOM     25  C   UNL     1       3.303  -4.070 -12.424  0.00  0.00    +0.000 A 
ATOM     26  C   UNL     1       2.345  -4.127 -13.542  0.00  0.00    +0.000 A 
ATOM     27  O   UNL     1       2.587  -3.666 -14.648  0.00  0.00    +0.000 OA
ATOM     28  C   UNL     1       1.062  -4.779 -13.204  0.00  0.00    +0.000 A 
ATOM     29  C   UNL     1       0.645  -4.579 -11.946  0.00  0.00    +0.000 A 
ATOM     30  N   UNL     1       1.359  -3.862 -11.003  0.00  0.00    +0.000 N 
ATOM     31  C   UNL     1       2.764  -3.823 -11.147  0.00  0.00    +0.000 A 
ATOM     32  C   UNL     1       3.629  -3.652 -10.075  0.00  0.00    +0.000 A 
ATOM     33  H   UNL     1       0.976  -3.811 -10.066  0.00  0.00    +0.000 HD
ENDBRANCH  19  22
ENDBRANCH   1  18
TORSDOF 6
