REMARK  Name = 
REMARK  8 active torsions:
REMARK  status: ('A' for Active; 'I' for Inactive)
REMARK    1  A    between atoms: C_2  and  C_4
REMARK    2  A    between atoms: C_6  and  C_7
REMARK    3  A    between atoms: C_7  and  N_8
REMARK    4  A    between atoms: C_9  and  C_11
REMARK    5  A    between atoms: C_11  and  C_12
REMARK    6  A    between atoms: C_12  and  C_13
REMARK    7  A    between atoms: C_15  and  C_16
REMARK    8  A    between atoms: C_22  and  C_23
REMARK                            x       y       z     vdW  Elec       q    Type
REMARK                         _______ _______ _______ _____ _____    ______ ____
ROOT
ATOM      1  C   UNL     1      -0.100  -1.082  -8.009  0.00  0.00    +0.000 C 
ENDROOT
BRANCH   1   2
ATOM      2  C   UNL     1      -1.048  -0.013  -8.429  0.00  0.00    +0.000 A 
ATOM      3  N   UNL     1      -1.481   1.002  -7.716  0.00  0.00    +0.000 NA
ATOM      4  C   UNL     1      -2.360   1.647  -8.539  0.00  0.00    +0.000 A 
ATOM      5  C   UNL     1      -2.344   1.051  -9.789  0.00  0.00    +0.000 A 
ATOM      6  O   UNL     1      -1.532  -0.058  -9.709  0.00  0.00    +0.000 OA
BRANCH   5   7
ATOM      7  C   UNL     1      -2.938   1.364 -11.082  0.00  0.00    +0.000 A 
ATOM      8  C   UNL     1      -3.082   2.708 -11.470  0.00  0.00    +0.000 A 
ATOM      9  C   UNL     1      -3.820   3.062 -12.596  0.00  0.00    +0.000 A 
ATOM     10  C   UNL     1      -4.366   2.066 -13.396  0.00  0.00    +0.000 A 
ATOM     11  C   UNL     1      -4.173   0.723 -13.067  0.00  0.00    +0.000 A 
ATOM     12  C   UNL     1      -3.470   0.371 -11.909  0.00  0.00    +0.000 A 
ENDBRANCH   5   7
BRANCH   4  13
ATOM     13  C   UNL     1      -3.103   2.831  -8.136  0.00  0.00    +0.000 A 
ATOM     14  C   UNL     1      -2.538   3.728  -7.225  0.00  0.00    +0.000 A 
ATOM     15  C   UNL     1      -3.164   4.951  -6.963  0.00  0.00    +0.000 A 
ATOM     16  C   UNL     1      -4.352   5.284  -7.615  0.00  0.00    +0.000 A 
ATOM     17  C   UNL     1      -4.953   4.371  -8.475  0.00  0.00    +0.000 A 
ATOM     18  C   UNL     1      -4.352   3.133  -8.697  0.00  0.00    +0.000 A 
ENDBRANCH   4  13
ENDBRANCH   1   2
BRANCH   1  19
ATOM     19  C   UNL     1       0.411  -0.883  -6.582  0.00  0.00    +0.000 C 
BRANCH  19  21
ATOM     20  N   UNL     1      -0.979  -2.239  -5.104  0.00  0.00    +0.000 N 
ATOM     21  C   UNL     1      -0.681  -0.967  -5.532  0.00  0.00    +0.000 C 
ATOM     22  O   UNL     1      -1.245   0.023  -5.079  0.00  0.00    +0.000 OA
ATOM     23  H   UNL     1      -0.529  -3.035  -5.533  0.00  0.00    +0.000 HD
BRANCH  20  24
ATOM     24  C   UNL     1      -2.024  -2.474  -4.130  0.00  0.00    +0.000 C 
BRANCH  24  27
ATOM     25  C   UNL     1      -0.686  -1.247  -0.776  0.00  0.00    +0.000 A 
ATOM     26  C   UNL     1      -1.055  -1.243  -2.116  0.00  0.00    +0.000 A 
ATOM     27  C   UNL     1      -1.547  -2.418  -2.696  0.00  0.00    +0.000 A 
ATOM     28  C   UNL     1      -1.661  -3.549  -1.871  0.00  0.00    +0.000 A 
ATOM     29  C   UNL     1      -1.274  -3.457  -0.539  0.00  0.00    +0.000 A 
ATOM     30  N   UNL     1      -0.779  -2.339   0.035  0.00  0.00    +0.000 NA
BRANCH  25  32
ATOM     31  N   UNL     1       0.232  -0.108   1.170  0.00  0.00    +0.000 N 
ATOM     32  C   UNL     1      -0.160   0.010  -0.137  0.00  0.00    +0.000 C 
ATOM     33  O   UNL     1      -0.074   1.073  -0.733  0.00  0.00    +0.000 OA
ATOM     34  H   UNL     1       0.624   0.692   1.637  0.00  0.00    +0.000 HD
ATOM     35  H   UNL     1       0.202  -1.014   1.624  0.00  0.00    +0.000 HD
ENDBRANCH  25  32
ENDBRANCH  24  27
ENDBRANCH  20  24
ENDBRANCH  19  21
ENDBRANCH   1  19
TORSDOF 8
