REMARK  Name = 
REMARK  5 active torsions:
REMARK  status: ('A' for Active; 'I' for Inactive)
REMARK    1  A    between atoms: C_2  and  C_15
REMARK    2  A    between atoms: N_3  and  C_4
REMARK    3  A    between atoms: C_4  and  C_5
REMARK    4  A    between atoms: C_18  and  N_19
REMARK    5  A    between atoms: C_20  and  C_22
REMARK                            x       y       z     vdW  Elec       q    Type
REMARK                         _______ _______ _______ _____ _____    ______ ____
ROOT
ATOM      1  C   UNL     1       3.222  -0.958   0.759  0.00  0.00    +0.000 A 
ATOM      2  C   UNL     1       2.752  -2.269   0.800  0.00  0.00    +0.000 A 
ATOM      3  C   UNL     1       3.498  -3.264   1.436  0.00  0.00    +0.000 A 
ATOM      4  C   UNL     1       4.721  -2.981   2.053  0.00  0.00    +0.000 A 
ATOM      5  C   UNL     1       5.179  -1.655   2.027  0.00  0.00    +0.000 A 
ATOM      6  C   UNL     1       4.432  -0.647   1.389  0.00  0.00    +0.000 A 
ENDROOT
BRANCH   1   8
ATOM      7  O   UNL     1       1.170  -0.060   0.032  0.00  0.00    +0.000 OA
ATOM      8  C   UNL     1       2.390   0.054   0.053  0.00  0.00    +0.000 C 
ATOM      9  N   UNL     1       3.078   1.062  -0.589  0.00  0.00    +0.000 N 
ATOM     10  H   UNL     1       4.074   0.966  -0.724  0.00  0.00    +0.000 HD
BRANCH   9  11
ATOM     11  C   UNL     1       2.386   2.043  -1.395  0.00  0.00    +0.000 C 
BRANCH  11  12
ATOM     12  C   UNL     1       2.269   1.607  -2.833  0.00  0.00    +0.000 A 
ATOM     13  C   UNL     1       1.156   0.875  -3.259  0.00  0.00    +0.000 A 
ATOM     14  C   UNL     1       1.054   0.458  -4.585  0.00  0.00    +0.000 A 
ATOM     15  C   UNL     1       2.069   0.764  -5.505  0.00  0.00    +0.000 A 
ATOM     16  C   UNL     1       1.996   0.353  -6.842  0.00  0.00    +0.000 A 
ATOM     17  C   UNL     1       3.020   0.679  -7.722  0.00  0.00    +0.000 A 
ATOM     18  C   UNL     1       4.086   1.409  -7.230  0.00  0.00    +0.000 A 
ATOM     19  N   UNL     1       4.194   1.819  -5.946  0.00  0.00    +0.000 NA
ATOM     20  C   UNL     1       3.201   1.500  -5.095  0.00  0.00    +0.000 A 
ATOM     21  C   UNL     1       3.280   1.901  -3.765  0.00  0.00    +0.000 A 
ENDBRANCH  11  12
ENDBRANCH   9  11
ENDBRANCH   1   8
BRANCH   4  22
ATOM     22  N   UNL     1       5.511  -3.966   2.706  0.00  0.00    +0.000 N 
ATOM     23  C   UNL     1       5.178  -5.305   2.826  0.00  0.00    +0.000 C 
ATOM     24  O   UNL     1       4.175  -5.832   2.354  0.00  0.00    +0.000 OA
ATOM     25  H   UNL     1       6.392  -3.656   3.090  0.00  0.00    +0.000 HD
BRANCH  23  26
ATOM     26  C   UNL     1       6.146  -6.180   3.569  0.00  0.00    +0.000 A 
ATOM     27  C   UNL     1       6.077  -7.492   3.271  0.00  0.00    +0.000 A 
ATOM     28  N   UNL     1       6.803  -8.422   3.973  0.00  0.00    +0.000 N 
ATOM     29  C   UNL     1       7.617  -8.113   5.034  0.00  0.00    +0.000 A 
ATOM     30  O   UNL     1       8.226  -8.957   5.678  0.00  0.00    +0.000 OA
ATOM     31  C   UNL     1       7.706  -6.665   5.369  0.00  0.00    +0.000 A 
ATOM     32  C   UNL     1       7.005  -5.760   4.663  0.00  0.00    +0.000 A 
ATOM     33  H   UNL     1       6.707  -9.408   3.757  0.00  0.00    +0.000 HD
ENDBRANCH  23  26
ENDBRANCH   4  22
TORSDOF 5
