REMARK  Name = 
REMARK  4 active torsions:
REMARK  status: ('A' for Active; 'I' for Inactive)
REMARK    1  A    between atoms: N_3  and  C_4
REMARK    2  A    between atoms: C_4  and  C_5
REMARK    3  A    between atoms: C_8  and  C_9
REMARK    4  A    between atoms: C_24  and  C_25
REMARK                            x       y       z     vdW  Elec       q    Type
REMARK                         _______ _______ _______ _____ _____    ______ ____
ROOT
ATOM      1  O   UNL     1       0.988   0.032  -0.007  0.00  0.00    +0.000 OA
ATOM      2  C   UNL     1       2.203  -0.102   0.119  0.00  0.00    +0.000 C 
ATOM      3  N   UNL     1       2.845  -1.296  -0.002  0.00  0.00    +0.000 N 
ATOM      4  N   UNL     1       2.963   0.947   0.571  0.00  0.00    +0.000 N 
ATOM      5  C   UNL     1       4.352   0.995   0.727  0.00  0.00    +0.000 A 
ATOM      6  N   UNL     1       5.078   0.702  -0.368  0.00  0.00    +0.000 NA
ATOM      7  C   UNL     1       6.394   0.930  -0.290  0.00  0.00    +0.000 A 
ATOM      8  N   UNL     1       7.052   1.371   0.785  0.00  0.00    +0.000 NA
ATOM      9  C   UNL     1       6.295   1.572   1.879  0.00  0.00    +0.000 A 
ATOM     10  C   UNL     1       4.912   1.402   1.941  0.00  0.00    +0.000 A 
ATOM     11  H   UNL     1       3.794  -1.340   0.331  0.00  0.00    +0.000 HD
ATOM     12  H   UNL     1       2.420   1.704   0.964  0.00  0.00    +0.000 HD
ENDROOT
BRANCH  10  13
ATOM     13  C   UNL     1       4.205   1.468   3.241  0.00  0.00    +0.000 A 
ATOM     14  C   UNL     1       4.653   2.316   4.271  0.00  0.00    +0.000 A 
ATOM     15  C   UNL     1       4.144   2.216   5.569  0.00  0.00    +0.000 A 
ATOM     16  C   UNL     1       3.180   1.259   5.868  0.00  0.00    +0.000 A 
ATOM     17  C   UNL     1       2.670   0.456   4.858  0.00  0.00    +0.000 A 
ATOM     18  C   UNL     1       3.158   0.581   3.557  0.00  0.00    +0.000 A 
ENDBRANCH  10  13
BRANCH   3  19
ATOM     19  C   UNL     1       2.186  -2.550  -0.326  0.00  0.00    +0.000 C 
BRANCH  19  20
ATOM     20  C   UNL     1       1.784  -3.346   0.902  0.00  0.00    +0.000 A 
ATOM     21  C   UNL     1       0.858  -2.848   1.830  0.00  0.00    +0.000 A 
ATOM     22  C   UNL     1       0.581  -3.538   3.017  0.00  0.00    +0.000 A 
ATOM     23  C   UNL     1       1.147  -4.790   3.265  0.00  0.00    +0.000 A 
ATOM     24  C   UNL     1       2.013  -5.335   2.309  0.00  0.00    +0.000 A 
ATOM     25  C   UNL     1       2.339  -4.613   1.148  0.00  0.00    +0.000 A 
BRANCH  23  26
ATOM     26  C   UNL     1       0.830  -5.502   4.519  0.00  0.00    +0.000 A 
ATOM     27  C   UNL     1      -0.240  -6.322   4.548  0.00  0.00    +0.000 A 
ATOM     28  N   UNL     1      -0.584  -7.002   5.693  0.00  0.00    +0.000 N 
ATOM     29  C   UNL     1       0.105  -6.901   6.874  0.00  0.00    +0.000 A 
ATOM     30  O   UNL     1      -0.219  -7.511   7.894  0.00  0.00    +0.000 OA
ATOM     31  C   UNL     1       1.283  -5.998   6.869  0.00  0.00    +0.000 A 
ATOM     32  C   UNL     1       1.602  -5.341   5.744  0.00  0.00    +0.000 A 
ATOM     33  H   UNL     1      -1.386  -7.607   5.705  0.00  0.00    +0.000 HD
ENDBRANCH  23  26
ENDBRANCH  19  20
ENDBRANCH   3  19
TORSDOF 4
