REMARK  Name = 
REMARK  5 active torsions:
REMARK  status: ('A' for Active; 'I' for Inactive)
REMARK    1  A    between atoms: C_1  and  C_2
REMARK    2  A    between atoms: C_3  and  N_4
REMARK    3  A    between atoms: C_5  and  C_7
REMARK    4  A    between atoms: C_21  and  C_22
REMARK    5  A    between atoms: N_24  and  C_25
REMARK                            x       y       z     vdW  Elec       q    Type
REMARK                         _______ _______ _______ _____ _____    ______ ____
ROOT
ATOM      1  C   UNL     1       2.648  -0.109  -0.395  0.00  0.00    +0.000 C 
ATOM      2  C   UNL     1       1.173  -0.050  -0.095  0.00  0.00    +0.000 A 
ATOM      3  C   UNL     1       0.509   1.196   0.003  0.00  0.00    +0.000 A 
ATOM      4  C   UNL     1      -0.893   1.255   0.032  0.00  0.00    +0.000 A 
ATOM      5  C   UNL     1      -1.656   0.095   0.065  0.00  0.00    +0.000 A 
ATOM      6  C   UNL     1      -1.018  -1.138   0.049  0.00  0.00    +0.000 A 
ATOM      7  C   UNL     1       0.385  -1.230  -0.033  0.00  0.00    +0.000 A 
ENDROOT
BRANCH   3   8
ATOM      8  N   UNL     1       1.153   2.456  -0.013  0.00  0.00    +0.000 N 
ATOM      9  C   UNL     1       2.192   2.832   0.835  0.00  0.00    +0.000 C 
ATOM     10  O   UNL     1       2.730   2.115   1.666  0.00  0.00    +0.000 OA
ATOM     11  H   UNL     1       0.573   3.217  -0.349  0.00  0.00    +0.000 HD
BRANCH   9  12
ATOM     12  C   UNL     1       2.565   4.274   0.707  0.00  0.00    +0.000 A 
ATOM     13  C   UNL     1       2.627   4.802  -0.584  0.00  0.00    +0.000 A 
ATOM     14  N   UNL     1       2.815   6.109  -0.880  0.00  0.00    +0.000 NA
ATOM     15  C   UNL     1       2.974   6.944   0.172  0.00  0.00    +0.000 A 
ATOM     16  C   UNL     1       2.985   6.512   1.490  0.00  0.00    +0.000 A 
ATOM     17  C   UNL     1       2.799   5.146   1.786  0.00  0.00    +0.000 A 
ATOM     18  C   UNL     1       2.862   4.750   3.204  0.00  0.00    +0.000 A 
ATOM     19  C   UNL     1       3.075   5.673   4.157  0.00  0.00    +0.000 A 
ATOM     20  N   UNL     1       3.210   6.998   3.851  0.00  0.00    +0.000 N 
ATOM     21  C   UNL     1       3.170   7.505   2.571  0.00  0.00    +0.000 A 
ATOM     22  O   UNL     1       3.279   8.703   2.338  0.00  0.00    +0.000 OA
ATOM     23  H   UNL     1       3.356   7.679   4.590  0.00  0.00    +0.000 HD
ENDBRANCH   9  12
ENDBRANCH   3   8
BRANCH   7  24
ATOM     24  C   UNL     1       0.906  -2.633  -0.143  0.00  0.00    +0.000 C 
ATOM     25  O   UNL     1       0.229  -3.438  -0.775  0.00  0.00    +0.000 OA
ATOM     26  N   UNL     1       2.085  -2.908   0.523  0.00  0.00    +0.000 N 
ATOM     27  H   UNL     1       2.499  -2.157   1.059  0.00  0.00    +0.000 HD
BRANCH  26  28
ATOM     28  C   UNL     1       2.740  -4.157   0.619  0.00  0.00    +0.000 A 
ATOM     29  C   UNL     1       2.241  -5.347   0.083  0.00  0.00    +0.000 A 
ATOM     30  C   UNL     1       2.901  -6.561   0.303  0.00  0.00    +0.000 A 
ATOM     31  C   UNL     1       4.080  -6.594   1.042  0.00  0.00    +0.000 A 
ATOM     32  C   UNL     1       4.614  -5.409   1.540  0.00  0.00    +0.000 A 
ATOM     33  C   UNL     1       3.948  -4.197   1.329  0.00  0.00    +0.000 A 
ENDBRANCH  26  28
ENDBRANCH   7  24
TORSDOF 4
