REMARK  Name = 
REMARK  6 active torsions:
REMARK  status: ('A' for Active; 'I' for Inactive)
REMARK    1  A    between atoms: C_2  and  C_18
REMARK    2  A    between atoms: N_3  and  C_4
REMARK    3  A    between atoms: C_4  and  C_5
REMARK    4  A    between atoms: C_8  and  C_9
REMARK    5  A    between atoms: C_21  and  C_22
REMARK    6  A    between atoms: C_22  and  C_23
REMARK                            x       y       z     vdW  Elec       q    Type
REMARK                         _______ _______ _______ _____ _____    ______ ____
ROOT
ATOM      1  O   UNL     1       1.074   0.021   0.019  0.00  0.00    +0.000 OA
ATOM      2  C   UNL     1       2.289  -0.108  -0.092  0.00  0.00    +0.000 C 
ATOM      3  N   UNL     1       2.992  -1.114   0.538  0.00  0.00    +0.000 N 
ATOM      4  H   UNL     1       3.996  -1.034   0.589  0.00  0.00    +0.000 HD
ENDROOT
BRANCH   2   5
ATOM      5  C   UNL     1       3.089   0.813  -0.878  0.00  0.00    +0.000 A 
ATOM      6  C   UNL     1       4.431   0.803  -1.222  0.00  0.00    +0.000 A 
ATOM      7  C   UNL     1       4.702   1.972  -1.971  0.00  0.00    +0.000 A 
ATOM      8  C   UNL     1       3.522   2.674  -2.102  0.00  0.00    +0.000 A 
ATOM      9  N   UNL     1       2.546   1.944  -1.462  0.00  0.00    +0.000 N 
ATOM     10  H   UNL     1       1.567   2.192  -1.392  0.00  0.00    +0.000 HD
BRANCH   8  11
ATOM     11  C   UNL     1       3.246   3.976  -2.789  0.00  0.00    +0.000 C 
BRANCH  11  12
ATOM     12  C   UNL     1       3.381   5.164  -1.863  0.00  0.00    +0.000 A 
ATOM     13  C   UNL     1       4.628   5.778  -1.669  0.00  0.00    +0.000 A 
ATOM     14  C   UNL     1       4.762   6.850  -0.784  0.00  0.00    +0.000 A 
ATOM     15  C   UNL     1       3.653   7.321  -0.085  0.00  0.00    +0.000 A 
ATOM     16  C   UNL     1       2.408   6.724  -0.275  0.00  0.00    +0.000 A 
ATOM     17  C   UNL     1       2.272   5.651  -1.157  0.00  0.00    +0.000 A 
ENDBRANCH  11  12
ENDBRANCH   8  11
ENDBRANCH   2   5
BRANCH   3  18
ATOM     18  C   UNL     1       2.341  -1.990   1.486  0.00  0.00    +0.000 C 
BRANCH  18  19
ATOM     19  C   UNL     1       2.992  -3.351   1.584  0.00  0.00    +0.000 A 
ATOM     20  C   UNL     1       3.502  -3.821   2.802  0.00  0.00    +0.000 A 
ATOM     21  C   UNL     1       4.011  -5.122   2.913  0.00  0.00    +0.000 A 
ATOM     22  C   UNL     1       4.017  -5.977   1.805  0.00  0.00    +0.000 A 
ATOM     23  C   UNL     1       3.519  -5.511   0.584  0.00  0.00    +0.000 A 
ATOM     24  C   UNL     1       3.013  -4.210   0.474  0.00  0.00    +0.000 A 
BRANCH  22  25
ATOM     25  C   UNL     1       4.558  -7.343   1.917  0.00  0.00    +0.000 A 
ATOM     26  C   UNL     1       3.734  -8.346   2.274  0.00  0.00    +0.000 A 
ATOM     27  N   UNL     1       4.198  -9.636   2.389  0.00  0.00    +0.000 N 
ATOM     28  C   UNL     1       5.500 -10.008   2.156  0.00  0.00    +0.000 A 
ATOM     29  O   UNL     1       5.894 -11.165   2.265  0.00  0.00    +0.000 OA
ATOM     30  C   UNL     1       6.420  -8.913   1.759  0.00  0.00    +0.000 A 
ATOM     31  C   UNL     1       5.954  -7.660   1.652  0.00  0.00    +0.000 A 
ATOM     32  H   UNL     1       3.570 -10.382   2.659  0.00  0.00    +0.000 HD
ENDBRANCH  22  25
ENDBRANCH  18  19
ENDBRANCH   3  18
TORSDOF 6
