REMARK  Name = 
REMARK  4 active torsions:
REMARK  status: ('A' for Active; 'I' for Inactive)
REMARK    1  A    between atoms: C_2  and  C_18
REMARK    2  A    between atoms: N_3  and  C_4
REMARK    3  A    between atoms: N_6  and  C_7
REMARK    4  A    between atoms: C_7  and  C_8
REMARK                            x       y       z     vdW  Elec       q    Type
REMARK                         _______ _______ _______ _____ _____    ______ ____
ROOT
ATOM      1  O   UNL     1       3.406  -1.008  -2.343  0.00  0.00    +0.000 OA
ATOM      2  C   UNL     1       3.467  -0.689  -1.167  0.00  0.00    +0.000 C 
ATOM      3  N   UNL     1       3.213  -1.557  -0.115  0.00  0.00    +0.000 N 
ATOM      4  H   UNL     1       3.739  -1.431   0.740  0.00  0.00    +0.000 HD
ENDROOT
BRANCH   2   5
ATOM      5  C   UNL     1       3.721   0.755  -0.803  0.00  0.00    +0.000 A 
ATOM      6  C   UNL     1       3.244   1.146   0.458  0.00  0.00    +0.000 A 
ATOM      7  C   UNL     1       3.100   2.483   0.724  0.00  0.00    +0.000 A 
ATOM      8  N   UNL     1       3.384   3.437  -0.168  0.00  0.00    +0.000 NA
ATOM      9  C   UNL     1       3.832   3.075  -1.379  0.00  0.00    +0.000 A 
ATOM     10  C   UNL     1       3.932   4.122  -2.264  0.00  0.00    +0.000 A 
ATOM     11  C   UNL     1       4.331   3.945  -3.580  0.00  0.00    +0.000 A 
ATOM     12  C   UNL     1       4.727   2.684  -3.981  0.00  0.00    +0.000 A 
ATOM     13  F   UNL     1       5.177   2.519  -5.231  0.00  0.00    +0.000 F 
ATOM     14  C   UNL     1       4.629   1.591  -3.106  0.00  0.00    +0.000 A 
ATOM     15  C   UNL     1       4.096   1.746  -1.780  0.00  0.00    +0.000 A 
ENDBRANCH   2   5
BRANCH   3  16
ATOM     16  C   UNL     1       2.362  -2.637  -0.159  0.00  0.00    +0.000 A 
ATOM     17  C   UNL     1       1.233  -2.687  -0.898  0.00  0.00    +0.000 A 
ATOM     18  N   UNL     1       0.351  -3.763  -0.818  0.00  0.00    +0.000 N 
ATOM     19  C   UNL     1       0.639  -4.899  -0.064  0.00  0.00    +0.000 A 
ATOM     20  O   UNL     1      -0.071  -5.897   0.021  0.00  0.00    +0.000 OA
ATOM     21  C   UNL     1       1.897  -4.847   0.727  0.00  0.00    +0.000 A 
ATOM     22  C   UNL     1       2.660  -3.745   0.715  0.00  0.00    +0.000 A 
BRANCH  18  23
ATOM     23  C   UNL     1      -0.915  -3.731  -1.558  0.00  0.00    +0.000 C 
BRANCH  23  24
ATOM     24  C   UNL     1      -0.753  -4.229  -2.974  0.00  0.00    +0.000 A 
ATOM     25  C   UNL     1      -0.831  -5.602  -3.248  0.00  0.00    +0.000 A 
ATOM     26  C   UNL     1      -0.515  -6.088  -4.516  0.00  0.00    +0.000 A 
ATOM     27  C   UNL     1      -0.146  -5.205  -5.527  0.00  0.00    +0.000 A 
ATOM     28  C   UNL     1      -0.127  -3.832  -5.283  0.00  0.00    +0.000 A 
ATOM     29  C   UNL     1      -0.427  -3.345  -4.011  0.00  0.00    +0.000 A 
ENDBRANCH  23  24
ENDBRANCH  18  23
ENDBRANCH   3  16
TORSDOF 4
