REMARK  Name = 
REMARK  4 active torsions:
REMARK  status: ('A' for Active; 'I' for Inactive)
REMARK    1  A    between atoms: C_2  and  C_4
REMARK    2  A    between atoms: C_5  and  N_6
REMARK    3  A    between atoms: C_7  and  C_9
REMARK    4  A    between atoms: C_11  and  C_12
REMARK                            x       y       z     vdW  Elec       q    Type
REMARK                         _______ _______ _______ _____ _____    ______ ____
ROOT
ATOM      1  N   UNL     1       4.982  -1.128  -1.902  0.00  0.00    +0.000 N 
ATOM      2  C   UNL     1       5.997  -1.589  -2.724  0.00  0.00    +0.000 C 
ATOM      3  O   UNL     1       6.432  -0.981  -3.698  0.00  0.00    +0.000 OA
ATOM      4  H   UNL     1       4.991  -1.505  -0.953  0.00  0.00    +0.000 HD
ENDROOT
BRANCH   1   6
ATOM      5  C   UNL     1       4.091   0.936  -0.982  0.00  0.00    +0.000 A 
ATOM      6  C   UNL     1       4.355   0.101  -2.054  0.00  0.00    +0.000 A 
ATOM      7  C   UNL     1       3.814   0.743  -3.209  0.00  0.00    +0.000 A 
ATOM      8  C   UNL     1       3.633   0.430  -4.571  0.00  0.00    +0.000 A 
ATOM      9  C   UNL     1       2.962   1.340  -5.399  0.00  0.00    +0.000 A 
ATOM     10  C   UNL     1       2.494   2.561  -4.900  0.00  0.00    +0.000 A 
ATOM     11  C   UNL     1       2.659   2.895  -3.557  0.00  0.00    +0.000 A 
ATOM     12  C   UNL     1       3.298   1.954  -2.753  0.00  0.00    +0.000 A 
ATOM     13  O   UNL     1       3.481   2.082  -1.411  0.00  0.00    +0.000 OA
BRANCH   5  15
ATOM     14  N   UNL     1       4.053   1.837   1.214  0.00  0.00    +0.000 N 
ATOM     15  C   UNL     1       4.401   0.785   0.419  0.00  0.00    +0.000 C 
ATOM     16  O   UNL     1       4.944  -0.211   0.897  0.00  0.00    +0.000 OA
ATOM     17  H   UNL     1       4.261   1.793   2.199  0.00  0.00    +0.000 HD
ATOM     18  H   UNL     1       3.615   2.658   0.818  0.00  0.00    +0.000 HD
ENDBRANCH   5  15
ENDBRANCH   1   6
BRANCH   2  19
ATOM     19  C   UNL     1       6.569  -2.836  -2.261  0.00  0.00    +0.000 A 
ATOM     20  C   UNL     1       7.688  -3.550  -2.625  0.00  0.00    +0.000 A 
ATOM     21  C   UNL     1       7.662  -4.726  -1.822  0.00  0.00    +0.000 A 
ATOM     22  N   UNL     1       6.601  -4.689  -1.001  0.00  0.00    +0.000 NA
ATOM     23  O   UNL     1       5.929  -3.522  -1.274  0.00  0.00    +0.000 OA
BRANCH  21  24
ATOM     24  C   UNL     1       8.595  -5.849  -1.808  0.00  0.00    +0.000 A 
ATOM     25  C   UNL     1       9.954  -5.666  -2.088  0.00  0.00    +0.000 A 
ATOM     26  F   UNL     1      10.435  -4.448  -2.375  0.00  0.00    +0.000 F 
ATOM     27  C   UNL     1      10.855  -6.731  -2.067  0.00  0.00    +0.000 A 
ATOM     28  C   UNL     1      10.393  -8.002  -1.760  0.00  0.00    +0.000 A 
ATOM     29  F   UNL     1      11.253  -9.029  -1.738  0.00  0.00    +0.000 F 
ATOM     30  C   UNL     1       9.055  -8.223  -1.482  0.00  0.00    +0.000 A 
ATOM     31  C   UNL     1       8.167  -7.151  -1.506  0.00  0.00    +0.000 A 
ATOM     32  F   UNL     1       6.875  -7.414  -1.259  0.00  0.00    +0.000 F 
ENDBRANCH  21  24
ENDBRANCH   2  19
TORSDOF 4
