REMARK  Name = 
REMARK  10 active torsions:
REMARK  status: ('A' for Active; 'I' for Inactive)
REMARK    1  A    between atoms: C_1  and  N_2
REMARK    2  A    between atoms: C_6  and  C_7
REMARK    3  A    between atoms: C_7  and  C_8
REMARK    4  A    between atoms: C_8  and  N_9
REMARK    5  A    between atoms: C_8  and  C_27
REMARK    6  A    between atoms: C_10  and  C_12
REMARK    7  A    between atoms: C_12  and  O_13
REMARK    8  A    between atoms: O_13  and  C_14
REMARK    9  A    between atoms: C_18  and  O_19
REMARK   10  A    between atoms: O_19  and  C_20
REMARK                            x       y       z     vdW  Elec       q    Type
REMARK                         _______ _______ _______ _____ _____    ______ ____
ROOT
ATOM      1  N   UNL     1       2.420   1.955  -1.486  0.00  0.00    +0.000 N 
ATOM      2  C   UNL     1       1.819   0.956  -2.211  0.00  0.00    +0.000 C 
ATOM      3  O   UNL     1       0.807   0.361  -1.846  0.00  0.00    +0.000 OA
ATOM      4  H   UNL     1       3.281   2.340  -1.859  0.00  0.00    +0.000 HD
ENDROOT
BRANCH   2   5
ATOM      5  C   UNL     1       2.539   0.577  -3.509  0.00  0.00    +0.000 C 
BRANCH   5   6
ATOM      6  O   UNL     1       3.677   1.393  -3.785  0.00  0.00    +0.000 OA
BRANCH   6   7
ATOM      7  C   UNL     1       4.415   1.034  -4.886  0.00  0.00    +0.000 A 
ATOM      8  C   UNL     1       4.507  -0.262  -5.400  0.00  0.00    +0.000 A 
ATOM      9  C   UNL     1       5.345  -0.534  -6.483  0.00  0.00    +0.000 A 
ATOM     10  C   UNL     1       6.084   0.490  -7.069  0.00  0.00    +0.000 A 
ATOM     11  C   UNL     1       5.957   1.800  -6.602  0.00  0.00    +0.000 A 
ATOM     12  C   UNL     1       5.157   2.060  -5.483  0.00  0.00    +0.000 A 
BRANCH  11  13
ATOM     13  O   UNL     1       6.648   2.862  -7.146  0.00  0.00    +0.000 OA
BRANCH  13  14
ATOM     14  C   UNL     1       6.792   2.909  -8.532  0.00  0.00    +0.000 A 
ATOM     15  C   UNL     1       7.875   3.625  -9.021  0.00  0.00    +0.000 A 
ATOM     16  C   UNL     1       8.061   3.678 -10.402  0.00  0.00    +0.000 A 
ATOM     17  C   UNL     1       7.165   3.019 -11.239  0.00  0.00    +0.000 A 
ATOM     18  C   UNL     1       6.103   2.348 -10.658  0.00  0.00    +0.000 A 
ATOM     19  N   UNL     1       5.887   2.291  -9.326  0.00  0.00    +0.000 NA
ENDBRANCH  13  14
ENDBRANCH  11  13
ENDBRANCH   6   7
ENDBRANCH   5   6
ENDBRANCH   2   5
BRANCH   1  20
ATOM     20  C   UNL     1       1.887   2.533  -0.253  0.00  0.00    +0.000 C 
BRANCH  20  21
ATOM     21  C   UNL     1       0.619   3.340  -0.551  0.00  0.00    +0.000 A 
ATOM     22  C   UNL     1       0.722   4.617  -1.130  0.00  0.00    +0.000 A 
ATOM     23  C   UNL     1      -0.419   5.376  -1.409  0.00  0.00    +0.000 A 
ATOM     24  C   UNL     1      -1.686   4.872  -1.113  0.00  0.00    +0.000 A 
ATOM     25  C   UNL     1      -1.812   3.605  -0.554  0.00  0.00    +0.000 A 
ATOM     26  C   UNL     1      -0.670   2.844  -0.286  0.00  0.00    +0.000 A 
ENDBRANCH  20  21
BRANCH  20  27
ATOM     27  C   UNL     1       1.707   1.516   0.897  0.00  0.00    +0.000 C 
BRANCH  27  33
ATOM     28  C   UNL     1       2.406  -1.481   1.232  0.00  0.00    +0.000 C 
ATOM     29  N   UNL     1       3.219  -0.374   1.670  0.00  0.00    +0.000 N 
ATOM     30  C   UNL     1       4.354  -0.486   2.426  0.00  0.00    +0.000 A 
ATOM     31  C   UNL     1       4.815   0.799   2.569  0.00  0.00    +0.000 A 
ATOM     32  N   UNL     1       3.972   1.688   1.955  0.00  0.00    +0.000 NA
ATOM     33  C   UNL     1       2.985   0.967   1.456  0.00  0.00    +0.000 A 
ENDBRANCH  27  33
ENDBRANCH  20  27
ENDBRANCH   1  20
TORSDOF 9
