REMARK  Name = 
REMARK  5 active torsions:
REMARK  status: ('A' for Active; 'I' for Inactive)
REMARK    1  A    between atoms: C_2  and  C_17
REMARK    2  A    between atoms: N_3  and  C_4
REMARK    3  A    between atoms: C_8  and  C_9
REMARK    4  A    between atoms: C_9  and  C_10
REMARK    5  A    between atoms: N_19  and  C_20
REMARK                            x       y       z     vdW  Elec       q    Type
REMARK                         _______ _______ _______ _____ _____    ______ ____
ROOT
ATOM      1  O   UNL     1       1.091   0.303   0.678  0.00  0.00    +0.000 OA
ATOM      2  C   UNL     1       2.228   0.156   0.242  0.00  0.00    +0.000 C 
ATOM      3  N   UNL     1       2.777   0.848  -0.816  0.00  0.00    +0.000 N 
ATOM      4  H   UNL     1       3.482   0.382  -1.369  0.00  0.00    +0.000 HD
ENDROOT
BRANCH   2   5
ATOM      5  C   UNL     1       3.121  -0.915   0.789  0.00  0.00    +0.000 A 
ATOM      6  C   UNL     1       2.561  -2.005   1.343  0.00  0.00    +0.000 A 
ATOM      7  N   UNL     1       3.328  -3.052   1.859  0.00  0.00    +0.000 N 
ATOM      8  C   UNL     1       4.734  -2.994   1.860  0.00  0.00    +0.000 A 
ATOM      9  O   UNL     1       5.501  -3.835   2.326  0.00  0.00    +0.000 OA
ATOM     10  C   UNL     1       5.331  -1.761   1.281  0.00  0.00    +0.000 A 
ATOM     11  C   UNL     1       4.560  -0.792   0.795  0.00  0.00    +0.000 A 
BRANCH   7  12
ATOM     12  C   UNL     1       2.709  -4.211   2.419  0.00  0.00    +0.000 A 
ATOM     13  C   UNL     1       1.704  -4.087   3.391  0.00  0.00    +0.000 A 
ATOM     14  C   UNL     1       1.154  -5.230   3.978  0.00  0.00    +0.000 A 
ATOM     15  C   UNL     1       1.575  -6.493   3.566  0.00  0.00    +0.000 A 
ATOM     16  F   UNL     1       1.041  -7.582   4.128  0.00  0.00    +0.000 F 
ATOM     17  C   UNL     1       2.539  -6.632   2.577  0.00  0.00    +0.000 A 
ATOM     18  C   UNL     1       3.116  -5.493   2.018  0.00  0.00    +0.000 A 
ENDBRANCH   7  12
ENDBRANCH   2   5
BRANCH   3  19
ATOM     19  C   UNL     1       2.061   1.798  -1.544  0.00  0.00    +0.000 A 
ATOM     20  C   UNL     1       1.290   2.772  -0.928  0.00  0.00    +0.000 A 
ATOM     21  C   UNL     1       0.544   3.627  -1.730  0.00  0.00    +0.000 A 
ATOM     22  C   UNL     1       0.566   3.456  -3.110  0.00  0.00    +0.000 A 
ATOM     23  C   UNL     1       1.396   2.477  -3.652  0.00  0.00    +0.000 A 
ATOM     24  N   UNL     1       2.183   1.682  -2.880  0.00  0.00    +0.000 NA
BRANCH  23  25
ATOM     25  C   UNL     1       1.439   2.246  -5.144  0.00  0.00    +0.000 C 
BRANCH  25  26
ATOM     26  C   UNL     1       0.490   1.190  -5.668  0.00  0.00    +0.000 A 
ATOM     27  C   UNL     1       0.564  -0.132  -5.225  0.00  0.00    +0.000 A 
ATOM     28  C   UNL     1      -0.226  -1.100  -5.843  0.00  0.00    +0.000 A 
ATOM     29  C   UNL     1      -1.072  -0.731  -6.879  0.00  0.00    +0.000 A 
ATOM     30  C   UNL     1      -1.106   0.604  -7.246  0.00  0.00    +0.000 A 
ATOM     31  N   UNL     1      -0.348   1.565  -6.670  0.00  0.00    +0.000 NA
ENDBRANCH  25  26
ENDBRANCH  23  25
ENDBRANCH   3  19
TORSDOF 5
