REMARK  Name = 
REMARK  6 active torsions:
REMARK  status: ('A' for Active; 'I' for Inactive)
REMARK    1  A    between atoms: N_1  and  C_2
REMARK    2  A    between atoms: C_4  and  C_5
REMARK    3  A    between atoms: N_7  and  C_8
REMARK    4  A    between atoms: C_10  and  C_11
REMARK    5  A    between atoms: C_14  and  O_15
REMARK    6  A    between atoms: N_22  and  C_23
REMARK                            x       y       z     vdW  Elec       q    Type
REMARK                         _______ _______ _______ _____ _____    ______ ____
ROOT
ATOM      1  C   UNL     1       5.846   1.435  -0.058  0.00  0.00    +0.000 C 
ATOM      2  O   UNL     1       6.818   0.764  -0.404  0.00  0.00    +0.000 OA
ATOM      3  N   UNL     1       5.832   2.803   0.154  0.00  0.00    +0.000 N 
ATOM      4  H   UNL     1       4.972   3.153   0.567  0.00  0.00    +0.000 HD
ENDROOT
BRANCH   3   5
ATOM      5  C   UNL     1       6.915   3.688  -0.015  0.00  0.00    +0.000 A 
ATOM      6  C   UNL     1       8.074   3.335  -0.717  0.00  0.00    +0.000 A 
ATOM      7  C   UNL     1       9.188   4.191  -0.829  0.00  0.00    +0.000 A 
ATOM      8  C   UNL     1       9.081   5.453  -0.223  0.00  0.00    +0.000 A 
ATOM      9  C   UNL     1       7.913   5.840   0.444  0.00  0.00    +0.000 A 
ATOM     10  C   UNL     1       6.831   4.963   0.542  0.00  0.00    +0.000 A 
BRANCH   7  11
ATOM     11  C   UNL     1      10.409   3.751  -1.545  0.00  0.00    +0.000 A 
ATOM     12  C   UNL     1      10.792   2.400  -1.610  0.00  0.00    +0.000 A 
ATOM     13  C   UNL     1      11.948   2.010  -2.287  0.00  0.00    +0.000 A 
ATOM     14  C   UNL     1      12.713   2.994  -2.878  0.00  0.00    +0.000 A 
ATOM     15  N   UNL     1      12.397   4.297  -2.865  0.00  0.00    +0.000 NA
ATOM     16  C   UNL     1      11.258   4.639  -2.209  0.00  0.00    +0.000 A 
BRANCH  14  17
ATOM     17  O   UNL     1      13.874   2.691  -3.523  0.00  0.00    +0.000 OA
ATOM     18  H   UNL     1      14.075   1.761  -3.345  0.00  0.00    +0.000 HD
ENDBRANCH  14  17
ENDBRANCH   7  11
ENDBRANCH   3   5
BRANCH   1  21
ATOM     19  C   UNL     1       3.026  -0.785   0.601  0.00  0.00    +0.000 A 
ATOM     20  C   UNL     1       4.328  -0.616   0.208  0.00  0.00    +0.000 A 
ATOM     21  C   UNL     1       4.564   0.779   0.238  0.00  0.00    +0.000 A 
ATOM     22  N   UNL     1       3.453   1.462   0.573  0.00  0.00    +0.000 NA
ATOM     23  N   UNL     1       2.547   0.492   0.901  0.00  0.00    +0.000 N 
BRANCH  23  24
ATOM     24  C   UNL     1       1.310   0.854   1.501  0.00  0.00    +0.000 A 
ATOM     25  C   UNL     1       0.739   2.100   1.204  0.00  0.00    +0.000 A 
ATOM     26  C   UNL     1      -0.482   2.456   1.779  0.00  0.00    +0.000 A 
ATOM     27  C   UNL     1      -1.103   1.587   2.670  0.00  0.00    +0.000 A 
ATOM     28  F   UNL     1      -2.268   1.938   3.230  0.00  0.00    +0.000 F 
ATOM     29  C   UNL     1      -0.530   0.364   2.997  0.00  0.00    +0.000 A 
ATOM     30  C   UNL     1       0.678  -0.010   2.409  0.00  0.00    +0.000 A 
ENDBRANCH  23  24
BRANCH  19  31
ATOM     31  N   UNL     1       2.305  -1.934   0.658  0.00  0.00    +0.000 N 
ATOM     32  H   UNL     1       2.674  -2.772   0.210  0.00  0.00    +0.000 HD
ATOM     33  H   UNL     1       1.288  -1.905   0.619  0.00  0.00    +0.000 HD
ENDBRANCH  19  31
ENDBRANCH   1  21
TORSDOF 6
