REMARK  Name = 
REMARK  8 active torsions:
REMARK  status: ('A' for Active; 'I' for Inactive)
REMARK    1  A    between atoms: C_1  and  N_2
REMARK    2  A    between atoms: C_5  and  C_6
REMARK    3  A    between atoms: C_6  and  N_7
REMARK    4  A    between atoms: C_6  and  C_25
REMARK    5  A    between atoms: C_8  and  C_10
REMARK    6  A    between atoms: C_13  and  C_14
REMARK    7  A    between atoms: C_14  and  N_15
REMARK    8  A    between atoms: C_16  and  C_18
REMARK                            x       y       z     vdW  Elec       q    Type
REMARK                         _______ _______ _______ _____ _____    ______ ____
ROOT
ATOM      1  N   UNL     1       2.398   2.577   1.128  0.00  0.00    +0.000 N 
ATOM      2  C   UNL     1       1.396   3.509   1.288  0.00  0.00    +0.000 C 
ATOM      3  O   UNL     1       0.516   3.716   0.460  0.00  0.00    +0.000 OA
ATOM      4  H   UNL     1       2.775   2.164   1.969  0.00  0.00    +0.000 HD
ENDROOT
BRANCH   2   5
ATOM      5  C   UNL     1       1.452   4.314   2.545  0.00  0.00    +0.000 A 
ATOM      6  C   UNL     1       2.674   4.562   3.185  0.00  0.00    +0.000 A 
ATOM      7  C   UNL     1       2.726   5.384   4.314  0.00  0.00    +0.000 A 
ATOM      8  C   UNL     1       1.561   5.968   4.830  0.00  0.00    +0.000 A 
ATOM      9  C   UNL     1       0.342   5.730   4.177  0.00  0.00    +0.000 A 
ATOM     10  C   UNL     1       0.288   4.909   3.042  0.00  0.00    +0.000 A 
BRANCH   8  11
ATOM     11  C   UNL     1       1.631   6.873   6.036  0.00  0.00    +0.000 C 
BRANCH  11  12
ATOM     12  N   UNL     1       1.866   8.240   5.650  0.00  0.00    +0.000 N 
ATOM     13  C   UNL     1       1.904   9.269   6.572  0.00  0.00    +0.000 C 
ATOM     14  O   UNL     1       1.755   9.057   7.772  0.00  0.00    +0.000 OA
ATOM     15  H   UNL     1       2.036   8.462   4.678  0.00  0.00    +0.000 HD
BRANCH  13  16
ATOM     16  C   UNL     1       2.130  10.600   6.018  0.00  0.00    +0.000 A 
ATOM     17  C   UNL     1       2.252  11.788   6.718  0.00  0.00    +0.000 A 
ATOM     18  C   UNL     1       2.449  12.915   5.865  0.00  0.00    +0.000 A 
ATOM     19  C   UNL     1       2.475  12.553   4.537  0.00  0.00    +0.000 A 
ATOM     20  S   UNL     1       2.270  10.872   4.327  0.00  0.00    +0.000 S 
ENDBRANCH  13  16
ENDBRANCH  11  12
ENDBRANCH   8  11
ENDBRANCH   2   5
BRANCH   1  21
ATOM     21  C   UNL     1       2.454   1.724  -0.043  0.00  0.00    +0.000 C 
BRANCH  21  22
ATOM     22  C   UNL     1       3.891   1.317  -0.359  0.00  0.00    +0.000 A 
ATOM     23  C   UNL     1       4.477   1.751  -1.564  0.00  0.00    +0.000 A 
ATOM     24  C   UNL     1       5.795   1.413  -1.885  0.00  0.00    +0.000 A 
ATOM     25  C   UNL     1       6.542   0.647  -1.000  0.00  0.00    +0.000 A 
ATOM     26  F   UNL     1       7.805   0.323  -1.310  0.00  0.00    +0.000 F 
ATOM     27  C   UNL     1       5.998   0.217   0.203  0.00  0.00    +0.000 A 
ATOM     28  C   UNL     1       4.681   0.554   0.526  0.00  0.00    +0.000 A 
ENDBRANCH  21  22
BRANCH  21  33
ATOM     29  C   UNL     1       0.284  -1.970   2.287  0.00  0.00    +0.000 C 
ATOM     30  N   UNL     1       0.714  -1.162   1.173  0.00  0.00    +0.000 N 
ATOM     31  C   UNL     1       0.419  -1.360  -0.142  0.00  0.00    +0.000 A 
ATOM     32  C   UNL     1       1.031  -0.335  -0.823  0.00  0.00    +0.000 A 
ATOM     33  C   UNL     1       1.675   0.446   0.174  0.00  0.00    +0.000 A 
ATOM     34  N   UNL     1       1.491  -0.086   1.399  0.00  0.00    +0.000 NA
ENDBRANCH  21  33
ENDBRANCH   1  21
TORSDOF 7
