REMARK  Name = 
REMARK  7 active torsions:
REMARK  status: ('A' for Active; 'I' for Inactive)
REMARK    1  A    between atoms: C_1  and  O_2
REMARK    2  A    between atoms: O_2  and  C_3
REMARK    3  A    between atoms: C_6  and  N_7
REMARK    4  A    between atoms: C_8  and  C_10
REMARK    5  A    between atoms: C_21  and  O_22
REMARK    6  A    between atoms: O_22  and  C_23
REMARK    7  A    between atoms: C_23  and  C_24
REMARK                            x       y       z     vdW  Elec       q    Type
REMARK                         _______ _______ _______ _____ _____    ______ ____
ROOT
ATOM      1  C   UNL     1       3.097  -0.891   0.773  0.00  0.00    +0.000 A 
ATOM      2  C   UNL     1       2.679  -2.206   0.944  0.00  0.00    +0.000 A 
ATOM      3  C   UNL     1       3.510  -3.120   1.607  0.00  0.00    +0.000 A 
ATOM      4  C   UNL     1       4.781  -2.732   2.044  0.00  0.00    +0.000 A 
ATOM      5  C   UNL     1       5.260  -1.444   1.754  0.00  0.00    +0.000 A 
ATOM      6  C   UNL     1       4.369  -0.517   1.197  0.00  0.00    +0.000 A 
ENDROOT
BRANCH   4   7
ATOM      7  N   UNL     1       5.509  -3.612   2.863  0.00  0.00    +0.000 N 
ATOM      8  C   UNL     1       5.336  -3.887   4.207  0.00  0.00    +0.000 C 
ATOM      9  O   UNL     1       6.075  -4.734   4.708  0.00  0.00    +0.000 OA
ATOM     10  H   UNL     1       6.332  -4.045   2.462  0.00  0.00    +0.000 HD
BRANCH   8  11
ATOM     11  C   UNL     1       4.292  -3.164   5.032  0.00  0.00    +0.000 A 
ATOM     12  C   UNL     1       4.007  -1.871   4.786  0.00  0.00    +0.000 A 
ATOM     13  N   UNL     1       3.007  -1.182   5.406  0.00  0.00    +0.000 N 
ATOM     14  C   UNL     1       2.240  -1.692   6.426  0.00  0.00    +0.000 A 
ATOM     15  O   UNL     1       1.320  -1.066   6.914  0.00  0.00    +0.000 OA
ATOM     16  C   UNL     1       2.637  -3.024   6.904  0.00  0.00    +0.000 A 
ATOM     17  C   UNL     1       2.056  -3.537   8.064  0.00  0.00    +0.000 A 
ATOM     18  C   UNL     1       2.491  -4.764   8.546  0.00  0.00    +0.000 A 
ATOM     19  C   UNL     1       3.472  -5.426   7.826  0.00  0.00    +0.000 A 
ATOM     20  N   UNL     1       4.032  -4.956   6.682  0.00  0.00    +0.000 NA
ATOM     21  C   UNL     1       3.625  -3.750   6.228  0.00  0.00    +0.000 A 
ATOM     22  H   UNL     1       2.759  -0.252   5.091  0.00  0.00    +0.000 HD
ENDBRANCH   8  11
ENDBRANCH   4   7
BRANCH   1  24
ATOM     23  C   UNL     1       1.176  -0.184  -0.434  0.00  0.00    +0.000 C 
ATOM     24  O   UNL     1       2.390   0.137   0.223  0.00  0.00    +0.000 OA
ENDBRANCH   1  24
BRANCH   5  25
ATOM     25  O   UNL     1       6.540  -1.108   2.138  0.00  0.00    +0.000 OA
BRANCH  25  26
ATOM     26  C   UNL     1       7.020   0.092   1.510  0.00  0.00    +0.000 C 
BRANCH  26  27
ATOM     27  C   UNL     1       8.513   0.239   1.544  0.00  0.00    +0.000 A 
ATOM     28  C   UNL     1       9.162   0.783   0.425  0.00  0.00    +0.000 A 
ATOM     29  C   UNL     1      10.531   1.032   0.444  0.00  0.00    +0.000 A 
ATOM     30  C   UNL     1      11.264   0.746   1.591  0.00  0.00    +0.000 A 
ATOM     31  C   UNL     1      10.635   0.211   2.714  0.00  0.00    +0.000 A 
ATOM     32  C   UNL     1       9.261  -0.042   2.696  0.00  0.00    +0.000 A 
ENDBRANCH  26  27
ENDBRANCH  25  26
ENDBRANCH   5  25
TORSDOF 6
