REMARK  Name = 
REMARK  6 active torsions:
REMARK  status: ('A' for Active; 'I' for Inactive)
REMARK    1  A    between atoms: C_2  and  C_3
REMARK    2  A    between atoms: C_3  and  N_4
REMARK    3  A    between atoms: C_6  and  C_7
REMARK    4  A    between atoms: N_9  and  C_10
REMARK    5  A    between atoms: C_11  and  C_12
REMARK    6  A    between atoms: N_16  and  C_17
REMARK                            x       y       z     vdW  Elec       q    Type
REMARK                         _______ _______ _______ _____ _____    ______ ____
ROOT
ATOM      1  C   UNL     1       5.408  -2.098   4.360  0.00  0.00    +0.000 C 
ATOM      2  O   UNL     1       5.531  -3.240   4.798  0.00  0.00    +0.000 OA
ATOM      3  N   UNL     1       5.918  -0.990   5.046  0.00  0.00    +0.000 N 
ATOM      4  H   UNL     1       5.376  -0.144   4.914  0.00  0.00    +0.000 HD
ENDROOT
BRANCH   1   7
ATOM      5  N   UNL     1       3.561  -0.854   1.430  0.00  0.00    +0.000 N 
ATOM      6  C   UNL     1       4.423  -0.632   2.482  0.00  0.00    +0.000 A 
ATOM      7  C   UNL     1       4.624  -1.836   3.146  0.00  0.00    +0.000 A 
ATOM      8  C   UNL     1       3.910  -2.832   2.387  0.00  0.00    +0.000 A 
ATOM      9  C   UNL     1       3.747  -4.230   2.523  0.00  0.00    +0.000 A 
ATOM     10  C   UNL     1       2.948  -4.939   1.621  0.00  0.00    +0.000 A 
ATOM     11  C   UNL     1       2.312  -4.282   0.578  0.00  0.00    +0.000 A 
ATOM     12  C   UNL     1       2.458  -2.902   0.408  0.00  0.00    +0.000 A 
ATOM     13  C   UNL     1       3.262  -2.196   1.324  0.00  0.00    +0.000 A 
BRANCH   5  14
ATOM     14  C   UNL     1       3.004   0.184   0.568  0.00  0.00    +0.000 C 
BRANCH  14  16
ATOM     15  N   UNL     1       0.680   1.046   1.444  0.00  0.00    +0.000 NA
ATOM     16  C   UNL     1       1.702   0.652   1.062  0.00  0.00    +0.000 C 
ENDBRANCH  14  16
ENDBRANCH   5  14
ENDBRANCH   1   7
BRANCH   3  17
ATOM     17  C   UNL     1       6.661  -1.118   6.222  0.00  0.00    +0.000 A 
ATOM     18  C   UNL     1       7.728  -1.938   6.383  0.00  0.00    +0.000 A 
ATOM     19  C   UNL     1       8.368  -2.134   7.706  0.00  0.00    +0.000 A 
ATOM     20  O   UNL     1       9.363  -2.851   7.788  0.00  0.00    +0.000 OA
ATOM     21  N   UNL     1       7.778  -1.435   8.778  0.00  0.00    +0.000 N 
ATOM     22  C   UNL     1       6.734  -0.542   8.566  0.00  0.00    +0.000 A 
ATOM     23  C   UNL     1       6.198  -0.349   7.354  0.00  0.00    +0.000 A 
BRANCH  21  24
ATOM     24  C   UNL     1       8.337  -1.623  10.081  0.00  0.00    +0.000 A 
ATOM     25  C   UNL     1       8.654  -0.519  10.879  0.00  0.00    +0.000 A 
ATOM     26  C   UNL     1       9.289  -0.701  12.109  0.00  0.00    +0.000 A 
ATOM     27  C   UNL     1       9.570  -1.988  12.569  0.00  0.00    +0.000 A 
ATOM     28  C   UNL     1       9.219  -3.095  11.801  0.00  0.00    +0.000 A 
ATOM     29  C   UNL     1       8.613  -2.913  10.558  0.00  0.00    +0.000 A 
ENDBRANCH  21  24
BRANCH  18  30
ATOM     30  C   UNL     1       8.255  -2.753   5.213  0.00  0.00    +0.000 C 
ATOM     31  N   UNL     1       8.692  -3.429   4.243  0.00  0.00    +0.000 NA
ENDBRANCH  18  30
ENDBRANCH   3  17
TORSDOF 6
