REMARK  Name = 
REMARK  7 active torsions:
REMARK  status: ('A' for Active; 'I' for Inactive)
REMARK    1  A    between atoms: C_1  and  O_2
REMARK    2  A    between atoms: O_2  and  C_3
REMARK    3  A    between atoms: C_7  and  C_8
REMARK    4  A    between atoms: N_10  and  C_11
REMARK    5  A    between atoms: C_11  and  C_12
REMARK    6  A    between atoms: C_17  and  O_18
REMARK    7  A    between atoms: O_18  and  C_19
REMARK                            x       y       z     vdW  Elec       q    Type
REMARK                         _______ _______ _______ _____ _____    ______ ____
ROOT
ATOM      1  C   UNL     1       6.016   4.902   2.339  0.00  0.00    +0.000 C 
ATOM      2  O   UNL     1       6.169   4.954   1.122  0.00  0.00    +0.000 OA
ATOM      3  N   UNL     1       6.719   5.699   3.208  0.00  0.00    +0.000 N 
ATOM      4  H   UNL     1       6.681   5.548   4.205  0.00  0.00    +0.000 HD
ENDROOT
BRANCH   1   9
ATOM      5  C   UNL     1       3.691   0.283   1.149  0.00  0.00    +0.000 A 
ATOM      6  C   UNL     1       4.816   0.929   0.641  0.00  0.00    +0.000 A 
ATOM      7  C   UNL     1       5.280   2.116   1.216  0.00  0.00    +0.000 A 
ATOM      8  C   UNL     1       4.627   2.675   2.329  0.00  0.00    +0.000 A 
ATOM      9  C   UNL     1       5.029   3.956   2.962  0.00  0.00    +0.000 A 
ATOM     10  C   UNL     1       4.366   4.375   4.056  0.00  0.00    +0.000 A 
ATOM     11  C   UNL     1       3.277   3.586   4.667  0.00  0.00    +0.000 A 
ATOM     12  O   UNL     1       2.734   3.965   5.702  0.00  0.00    +0.000 OA
ATOM     13  N   UNL     1       2.900   2.449   4.017  0.00  0.00    +0.000 N 
ATOM     14  C   UNL     1       3.531   1.974   2.864  0.00  0.00    +0.000 A 
ATOM     15  C   UNL     1       3.063   0.790   2.286  0.00  0.00    +0.000 A 
ATOM     16  H   UNL     1       2.140   1.936   4.432  0.00  0.00    +0.000 HD
BRANCH   5  18
ATOM     17  C   UNL     1       1.932  -1.165   0.536  0.00  0.00    +0.000 C 
ATOM     18  O   UNL     1       3.321  -0.860   0.493  0.00  0.00    +0.000 OA
ENDBRANCH   5  18
ENDBRANCH   1   9
BRANCH   3  19
ATOM     19  C   UNL     1       7.670   6.679   2.737  0.00  0.00    +0.000 C 
BRANCH  19  20
ATOM     20  C   UNL     1       9.088   6.171   2.749  0.00  0.00    +0.000 A 
ATOM     21  C   UNL     1       9.739   5.959   1.520  0.00  0.00    +0.000 A 
ATOM     22  C   UNL     1      11.089   5.607   1.474  0.00  0.00    +0.000 A 
ATOM     23  C   UNL     1      11.799   5.428   2.655  0.00  0.00    +0.000 A 
ATOM     24  C   UNL     1      11.152   5.571   3.882  0.00  0.00    +0.000 A 
ATOM     25  C   UNL     1       9.807   5.964   3.940  0.00  0.00    +0.000 A 
BRANCH  25  26
ATOM     26  O   UNL     1       9.142   6.091   5.146  0.00  0.00    +0.000 OA
BRANCH  26  27
ATOM     27  C   UNL     1       9.847   6.670   6.194  0.00  0.00    +0.000 A 
ATOM     28  C   UNL     1       9.618   6.180   7.470  0.00  0.00    +0.000 A 
ATOM     29  C   UNL     1      10.326   6.753   8.528  0.00  0.00    +0.000 A 
ATOM     30  C   UNL     1      11.224   7.785   8.271  0.00  0.00    +0.000 A 
ATOM     31  C   UNL     1      11.373   8.213   6.963  0.00  0.00    +0.000 A 
ATOM     32  N   UNL     1      10.692   7.694   5.923  0.00  0.00    +0.000 NA
ENDBRANCH  26  27
ENDBRANCH  25  26
ENDBRANCH  19  20
ENDBRANCH   3  19
TORSDOF 6
