REMARK  Name = 
REMARK  3 active torsions:
REMARK  status: ('A' for Active; 'I' for Inactive)
REMARK    1  A    between atoms: C_2  and  C_17
REMARK    2  A    between atoms: N_6  and  C_7
REMARK    3  A    between atoms: C_20  and  C_21
REMARK                            x       y       z     vdW  Elec       q    Type
REMARK                         _______ _______ _______ _____ _____    ______ ____
ROOT
ATOM      1  O   UNL     1       1.042  -0.117  -0.418  0.00  0.00    +0.000 OA
ATOM      2  C   UNL     1       2.248  -0.114  -0.189  0.00  0.00    +0.000 C 
ATOM      3  N   UNL     1       2.923  -0.911   0.699  0.00  0.00    +0.000 N 
ATOM      4  C   UNL     1       2.291  -1.859   1.455  0.00  0.00    +0.000 A 
ATOM      5  N   UNL     1       1.061  -2.328   1.274  0.00  0.00    +0.000 NA
ATOM      6  N   UNL     1       0.875  -3.120   2.340  0.00  0.00    +0.000 N 
ATOM      7  C   UNL     1       2.036  -3.157   3.075  0.00  0.00    +0.000 A 
ATOM      8  N   UNL     1       2.951  -2.392   2.523  0.00  0.00    +0.000 NA
ATOM      9  H   UNL     1       3.872  -0.714   0.973  0.00  0.00    +0.000 HD
ENDROOT
BRANCH   6  10
ATOM     10  C   UNL     1      -0.366  -3.760   2.580  0.00  0.00    +0.000 A 
ATOM     11  C   UNL     1      -1.401  -3.645   1.635  0.00  0.00    +0.000 A 
ATOM     12  C   UNL     1      -2.616  -4.287   1.864  0.00  0.00    +0.000 A 
ATOM     13  F   UNL     1      -3.594  -4.196   0.955  0.00  0.00    +0.000 F 
ATOM     14  C   UNL     1      -2.829  -5.026   3.020  0.00  0.00    +0.000 A 
ATOM     15  C   UNL     1      -1.808  -5.118   3.953  0.00  0.00    +0.000 A 
ATOM     16  F   UNL     1      -2.002  -5.815   5.079  0.00  0.00    +0.000 F 
ATOM     17  C   UNL     1      -0.576  -4.497   3.748  0.00  0.00    +0.000 A 
ENDBRANCH   6  10
BRANCH   2  18
ATOM     18  C   UNL     1       3.055   0.902  -0.895  0.00  0.00    +0.000 A 
ATOM     19  C   UNL     1       2.465   2.148  -1.115  0.00  0.00    +0.000 A 
ATOM     20  C   UNL     1       3.111   3.100  -1.900  0.00  0.00    +0.000 A 
ATOM     21  C   UNL     1       4.362   2.841  -2.486  0.00  0.00    +0.000 A 
ATOM     22  C   UNL     1       4.956   1.589  -2.218  0.00  0.00    +0.000 A 
ATOM     23  C   UNL     1       4.311   0.624  -1.432  0.00  0.00    +0.000 A 
BRANCH  21  24
ATOM     24  C   UNL     1       4.983   3.834  -3.390  0.00  0.00    +0.000 A 
ATOM     25  C   UNL     1       4.793   5.215  -3.225  0.00  0.00    +0.000 A 
ATOM     26  C   UNL     1       5.326   6.127  -4.135  0.00  0.00    +0.000 A 
ATOM     27  C   UNL     1       6.067   5.637  -5.193  0.00  0.00    +0.000 A 
ATOM     28  N   UNL     1       6.301   4.325  -5.393  0.00  0.00    +0.000 NA
ATOM     29  C   UNL     1       5.751   3.465  -4.498  0.00  0.00    +0.000 A 
ENDBRANCH  21  24
ENDBRANCH   2  18
TORSDOF 3
