REMARK  Name = 
REMARK  4 active torsions:
REMARK  status: ('A' for Active; 'I' for Inactive)
REMARK    1  A    between atoms: C_2  and  C_16
REMARK    2  A    between atoms: N_3  and  C_4
REMARK    3  A    between atoms: C_19  and  O_20
REMARK    4  A    between atoms: O_20  and  C_21
REMARK                            x       y       z     vdW  Elec       q    Type
REMARK                         _______ _______ _______ _____ _____    ______ ____
ROOT
ATOM      1  O   UNL     1       1.066   0.242  -0.069  0.00  0.00    +0.000 OA
ATOM      2  C   UNL     1       2.263  -0.004  -0.095  0.00  0.00    +0.000 C 
ATOM      3  N   UNL     1       2.937  -0.926   0.686  0.00  0.00    +0.000 N 
ATOM      4  H   UNL     1       3.942  -0.864   0.752  0.00  0.00    +0.000 HD
ENDROOT
BRANCH   3   5
ATOM      5  C   UNL     1       2.269  -1.796   1.562  0.00  0.00    +0.000 A 
ATOM      6  C   UNL     1       2.998  -2.400   2.584  0.00  0.00    +0.000 A 
ATOM      7  C   UNL     1       2.324  -3.204   3.506  0.00  0.00    +0.000 A 
ATOM      8  C   UNL     1       0.959  -3.414   3.338  0.00  0.00    +0.000 A 
ATOM      9  C   UNL     1       0.164  -4.258   4.239  0.00  0.00    +0.000 A 
ATOM     10  O   UNL     1       0.658  -4.758   5.243  0.00  0.00    +0.000 OA
ATOM     11  N   UNL     1      -1.150  -4.454   3.881  0.00  0.00    +0.000 N 
ATOM     12  C   UNL     1      -1.767  -3.924   2.784  0.00  0.00    +0.000 A 
ATOM     13  O   UNL     1      -2.933  -4.192   2.511  0.00  0.00    +0.000 OA
ATOM     14  N   UNL     1      -1.016  -3.092   2.015  0.00  0.00    +0.000 N 
ATOM     15  C   UNL     1       0.324  -2.832   2.261  0.00  0.00    +0.000 A 
ATOM     16  N   UNL     1       0.954  -2.029   1.389  0.00  0.00    +0.000 NA
ATOM     17  H   UNL     1      -1.707  -5.051   4.472  0.00  0.00    +0.000 HD
ATOM     18  H   UNL     1      -1.427  -2.666   1.196  0.00  0.00    +0.000 HD
ENDBRANCH   3   5
BRANCH   2  19
ATOM     19  C   UNL     1       3.102   0.817  -1.003  0.00  0.00    +0.000 A 
ATOM     20  C   UNL     1       2.707   2.141  -1.223  0.00  0.00    +0.000 A 
ATOM     21  C   UNL     1       3.395   2.935  -2.137  0.00  0.00    +0.000 A 
ATOM     22  C   UNL     1       4.527   2.433  -2.788  0.00  0.00    +0.000 A 
ATOM     23  C   UNL     1       4.899   1.098  -2.594  0.00  0.00    +0.000 A 
ATOM     24  C   UNL     1       4.191   0.287  -1.701  0.00  0.00    +0.000 A 
BRANCH  22  25
ATOM     25  O   UNL     1       5.306   3.160  -3.662  0.00  0.00    +0.000 OA
BRANCH  25  26
ATOM     26  C   UNL     1       5.441   4.518  -3.478  0.00  0.00    +0.000 A 
ATOM     27  C   UNL     1       5.591   5.286  -4.638  0.00  0.00    +0.000 A 
ATOM     28  C   UNL     1       5.676   6.679  -4.549  0.00  0.00    +0.000 A 
ATOM     29  C   UNL     1       5.610   7.310  -3.305  0.00  0.00    +0.000 A 
ATOM     30  C   UNL     1       5.516   6.545  -2.145  0.00  0.00    +0.000 A 
ATOM     31  C   UNL     1       5.472   5.158  -2.237  0.00  0.00    +0.000 A 
ATOM     32  F   UNL     1       5.435   4.461  -1.090  0.00  0.00    +0.000 F 
ENDBRANCH  25  26
ENDBRANCH  22  25
ENDBRANCH   2  19
TORSDOF 4
