REMARK  Name = 
REMARK  6 active torsions:
REMARK  status: ('A' for Active; 'I' for Inactive)
REMARK    1  A    between atoms: C_2  and  N_3
REMARK    2  A    between atoms: C_2  and  C_18
REMARK    3  A    between atoms: S_4  and  C_6
REMARK    4  A    between atoms: S_4  and  C_12
REMARK    5  A    between atoms: C_18  and  C_19
REMARK    6  A    between atoms: C_18  and  N_25
REMARK                            x       y       z     vdW  Elec       q    Type
REMARK                         _______ _______ _______ _____ _____    ______ ____
ROOT
ATOM      1  N   UNL     1       2.871  -0.953  -1.008  0.00  0.00    +0.000 NA
ATOM      2  S   UNL     1       2.081  -2.122  -1.631  0.00  0.00    +0.000 S 
ATOM      3  O   UNL     1       1.192  -2.992  -0.883  0.00  0.00    +0.000 OA
ENDROOT
BRANCH   2   4
ATOM      4  C   UNL     1       3.269  -3.226  -2.377  0.00  0.00    +0.000 A 
ATOM      5  C   UNL     1       4.630  -2.954  -2.301  0.00  0.00    +0.000 A 
ATOM      6  C   UNL     1       5.495  -3.869  -2.873  0.00  0.00    +0.000 A 
ATOM      7  N   UNL     1       5.089  -4.997  -3.494  0.00  0.00    +0.000 NA
ATOM      8  C   UNL     1       3.759  -5.231  -3.545  0.00  0.00    +0.000 A 
ATOM      9  C   UNL     1       2.809  -4.383  -3.007  0.00  0.00    +0.000 A 
ENDBRANCH   2   4
BRANCH   2  10
ATOM     10  C   UNL     1       1.151  -1.438  -2.995  0.00  0.00    +0.000 A 
ATOM     11  C   UNL     1       1.831  -0.788  -4.030  0.00  0.00    +0.000 A 
ATOM     12  C   UNL     1       1.119  -0.338  -5.141  0.00  0.00    +0.000 A 
ATOM     13  C   UNL     1      -0.261  -0.539  -5.216  0.00  0.00    +0.000 A 
ATOM     14  C   UNL     1      -0.938  -1.165  -4.168  0.00  0.00    +0.000 A 
ATOM     15  C   UNL     1      -0.235  -1.611  -3.048  0.00  0.00    +0.000 A 
ENDBRANCH   2  10
BRANCH   1  17
ATOM     16  O   UNL     1       1.003   0.167  -0.273  0.00  0.00    +0.000 OA
ATOM     17  C   UNL     1       2.209  -0.051  -0.142  0.00  0.00    +0.000 C 
BRANCH  17  18
ATOM     18  C   UNL     1       3.050   0.724   0.884  0.00  0.00    +0.000 C 
BRANCH  18  19
ATOM     19  C   UNL     1       3.030   2.235   0.644  0.00  0.00    +0.000 A 
ATOM     20  C   UNL     1       1.822   2.954   0.623  0.00  0.00    +0.000 A 
ATOM     21  C   UNL     1       1.815   4.335   0.438  0.00  0.00    +0.000 A 
ATOM     22  C   UNL     1       3.014   5.024   0.280  0.00  0.00    +0.000 A 
ATOM     23  C   UNL     1       4.221   4.329   0.298  0.00  0.00    +0.000 A 
ATOM     24  C   UNL     1       4.232   2.942   0.477  0.00  0.00    +0.000 A 
ENDBRANCH  18  19
BRANCH  18  25
ATOM     25  N   UNL     1       2.664   0.426   2.271  0.00  0.00    +0.000 N 
ATOM     26  C   UNL     1       1.425   0.119   2.773  0.00  0.00    +0.000 A 
ATOM     27  C   UNL     1       1.562   0.039   4.138  0.00  0.00    +0.000 A 
ATOM     28  C   UNL     1       2.920   0.305   4.377  0.00  0.00    +0.000 A 
ATOM     29  N   UNL     1       3.604   0.515   3.250  0.00  0.00    +0.000 NA
ENDBRANCH  18  25
ENDBRANCH  17  18
ENDBRANCH   1  17
TORSDOF 6
