REMARK  Name = 
REMARK  4 active torsions:
REMARK  status: ('A' for Active; 'I' for Inactive)
REMARK    1  A    between atoms: C_2  and  C_17
REMARK    2  A    between atoms: N_3  and  C_4
REMARK    3  A    between atoms: C_7  and  C_8
REMARK    4  A    between atoms: C_22  and  C_23
REMARK                            x       y       z     vdW  Elec       q    Type
REMARK                         _______ _______ _______ _____ _____    ______ ____
ROOT
ATOM      1  O   UNL     1       1.089   0.577   0.539  0.00  0.00    +0.000 OA
ATOM      2  C   UNL     1       2.204   0.235   0.173  0.00  0.00    +0.000 C 
ATOM      3  N   UNL     1       2.773   0.528  -1.056  0.00  0.00    +0.000 N 
ATOM      4  H   UNL     1       3.579  -0.017  -1.339  0.00  0.00    +0.000 HD
ENDROOT
BRANCH   3   5
ATOM      5  C   UNL     1       2.100   1.250  -2.059  0.00  0.00    +0.000 A 
ATOM      6  C   UNL     1       1.230   2.298  -1.839  0.00  0.00    +0.000 A 
ATOM      7  N   UNL     1       0.587   2.955  -2.831  0.00  0.00    +0.000 NA
ATOM      8  C   UNL     1       0.804   2.520  -4.088  0.00  0.00    +0.000 A 
ATOM      9  N   UNL     1       1.647   1.516  -4.409  0.00  0.00    +0.000 NA
ATOM     10  C   UNL     1       2.283   0.916  -3.384  0.00  0.00    +0.000 A 
BRANCH   8  11
ATOM     11  C   UNL     1       0.074   3.178  -5.189  0.00  0.00    +0.000 A 
ATOM     12  C   UNL     1      -0.710   4.323  -4.968  0.00  0.00    +0.000 A 
ATOM     13  C   UNL     1      -1.379   4.943  -6.023  0.00  0.00    +0.000 A 
ATOM     14  F   UNL     1      -2.110   6.038  -5.787  0.00  0.00    +0.000 F 
ATOM     15  C   UNL     1      -1.309   4.435  -7.314  0.00  0.00    +0.000 A 
ATOM     16  C   UNL     1      -0.542   3.305  -7.562  0.00  0.00    +0.000 A 
ATOM     17  C   UNL     1       0.139   2.681  -6.506  0.00  0.00    +0.000 A 
ENDBRANCH   8  11
ENDBRANCH   3   5
BRANCH   2  18
ATOM     18  C   UNL     1       3.045  -0.618   1.040  0.00  0.00    +0.000 A 
ATOM     19  C   UNL     1       4.361  -0.185   1.279  0.00  0.00    +0.000 A 
ATOM     20  C   UNL     1       5.178  -0.904   2.140  0.00  0.00    +0.000 A 
ATOM     21  C   UNL     1       4.649  -2.027   2.743  0.00  0.00    +0.000 A 
ATOM     22  N   UNL     1       3.394  -2.478   2.517  0.00  0.00    +0.000 NA
ATOM     23  C   UNL     1       2.583  -1.786   1.661  0.00  0.00    +0.000 A 
BRANCH  23  24
ATOM     24  C   UNL     1       1.270  -2.446   1.444  0.00  0.00    +0.000 A 
ATOM     25  C   UNL     1       0.642  -3.137   2.496  0.00  0.00    +0.000 A 
ATOM     26  C   UNL     1      -0.561  -3.793   2.269  0.00  0.00    +0.000 A 
ATOM     27  N   UNL     1      -1.191  -3.813   1.080  0.00  0.00    +0.000 NA
ATOM     28  C   UNL     1      -0.585  -3.155   0.073  0.00  0.00    +0.000 A 
ATOM     29  C   UNL     1       0.626  -2.489   0.201  0.00  0.00    +0.000 A 
ENDBRANCH  23  24
ENDBRANCH   2  18
TORSDOF 4
