REMARK  Name = 
REMARK  3 active torsions:
REMARK  status: ('A' for Active; 'I' for Inactive)
REMARK    1  A    between atoms: C_2  and  C_15
REMARK    2  A    between atoms: N_3  and  C_4
REMARK    3  A    between atoms: C_17  and  C_18
REMARK                            x       y       z     vdW  Elec       q    Type
REMARK                         _______ _______ _______ _____ _____    ______ ____
ROOT
ATOM      1  O   UNL     1       0.933   0.152   0.206  0.00  0.00    +0.000 OA
ATOM      2  C   UNL     1       2.141   0.097  -0.009  0.00  0.00    +0.000 C 
ATOM      3  N   UNL     1       2.765   0.590  -1.140  0.00  0.00    +0.000 N 
ATOM      4  H   UNL     1       3.752   0.400  -1.257  0.00  0.00    +0.000 HD
ENDROOT
BRANCH   3   5
ATOM      5  C   UNL     1       2.142   1.229  -2.183  0.00  0.00    +0.000 A 
ATOM      6  C   UNL     1       2.851   1.611  -3.257  0.00  0.00    +0.000 A 
ATOM      7  C   UNL     1       2.170   2.232  -4.396  0.00  0.00    +0.000 A 
ATOM      8  C   UNL     1       2.870   2.567  -5.559  0.00  0.00    +0.000 A 
ATOM      9  C   UNL     1       2.190   3.107  -6.654  0.00  0.00    +0.000 A 
ATOM     10  C   UNL     1       0.813   3.330  -6.590  0.00  0.00    +0.000 A 
ATOM     11  C   UNL     1       0.109   3.013  -5.429  0.00  0.00    +0.000 A 
ATOM     12  C   UNL     1       0.787   2.459  -4.340  0.00  0.00    +0.000 A 
ATOM     13  C   UNL     1       0.050   2.070  -3.111  0.00  0.00    +0.000 A 
ATOM     14  O   UNL     1      -1.154   2.271  -2.999  0.00  0.00    +0.000 OA
ATOM     15  N   UNL     1       0.797   1.462  -2.130  0.00  0.00    +0.000 N 
ATOM     16  H   UNL     1       0.295   1.156  -1.296  0.00  0.00    +0.000 HD
ENDBRANCH   3   5
BRANCH   2  17
ATOM     17  C   UNL     1       3.022  -0.571   0.983  0.00  0.00    +0.000 A 
ATOM     18  C   UNL     1       2.488  -1.633   1.731  0.00  0.00    +0.000 A 
ATOM     19  C   UNL     1       3.245  -2.293   2.717  0.00  0.00    +0.000 A 
ATOM     20  C   UNL     1       4.570  -1.862   2.905  0.00  0.00    +0.000 A 
ATOM     21  C   UNL     1       5.090  -0.803   2.166  0.00  0.00    +0.000 A 
ATOM     22  F   UNL     1       6.347  -0.398   2.389  0.00  0.00    +0.000 F 
ATOM     23  C   UNL     1       4.329  -0.144   1.212  0.00  0.00    +0.000 A 
BRANCH  19  24
ATOM     24  C   UNL     1       2.681  -3.384   3.541  0.00  0.00    +0.000 A 
ATOM     25  C   UNL     1       1.326  -3.464   3.868  0.00  0.00    +0.000 A 
ATOM     26  C   UNL     1       0.875  -4.510   4.671  0.00  0.00    +0.000 A 
ATOM     27  C   UNL     1       1.783  -5.452   5.132  0.00  0.00    +0.000 A 
ATOM     28  C   UNL     1       3.110  -5.306   4.769  0.00  0.00    +0.000 A 
ATOM     29  N   UNL     1       3.574  -4.301   3.993  0.00  0.00    +0.000 NA
ENDBRANCH  19  24
ENDBRANCH   2  17
TORSDOF 3
