REMARK  Name = 
REMARK  7 active torsions:
REMARK  status: ('A' for Active; 'I' for Inactive)
REMARK    1  A    between atoms: C_2  and  C_18
REMARK    2  A    between atoms: N_3  and  C_4
REMARK    3  A    between atoms: C_5  and  C_6
REMARK    4  A    between atoms: N_9  and  C_10
REMARK    5  A    between atoms: C_21  and  C_22
REMARK    6  A    between atoms: C_22  and  O_23
REMARK    7  A    between atoms: O_23  and  C_24
REMARK                            x       y       z     vdW  Elec       q    Type
REMARK                         _______ _______ _______ _____ _____    ______ ____
ROOT
ATOM      1  O   UNL     1       1.023  -0.416  -0.341  0.00  0.00    +0.000 OA
ATOM      2  C   UNL     1       2.192  -0.166  -0.083  0.00  0.00    +0.000 C 
ATOM      3  N   UNL     1       2.864  -0.605   1.044  0.00  0.00    +0.000 N 
ATOM      4  H   UNL     1       3.705  -0.086   1.295  0.00  0.00    +0.000 HD
ENDROOT
BRANCH   2   5
ATOM      5  C   UNL     1       2.989   0.747  -0.910  0.00  0.00    +0.000 A 
ATOM      6  N   UNL     1       4.327   0.835  -0.796  0.00  0.00    +0.000 NA
ATOM      7  O   UNL     1       4.731   1.743  -1.761  0.00  0.00    +0.000 OA
ATOM      8  C   UNL     1       3.642   2.220  -2.421  0.00  0.00    +0.000 A 
ATOM      9  C   UNL     1       2.511   1.639  -1.903  0.00  0.00    +0.000 A 
BRANCH   8  10
ATOM     10  C   UNL     1       3.886   3.190  -3.512  0.00  0.00    +0.000 C 
BRANCH  10  11
ATOM     11  O   UNL     1       3.917   4.482  -2.916  0.00  0.00    +0.000 OA
BRANCH  11  12
ATOM     12  C   UNL     1       4.083   5.549  -3.757  0.00  0.00    +0.000 A 
ATOM     13  C   UNL     1       4.158   6.788  -3.113  0.00  0.00    +0.000 A 
ATOM     14  C   UNL     1       4.316   7.967  -3.846  0.00  0.00    +0.000 A 
ATOM     15  C   UNL     1       4.398   7.920  -5.237  0.00  0.00    +0.000 A 
ATOM     16  C   UNL     1       4.325   6.692  -5.890  0.00  0.00    +0.000 A 
ATOM     17  C   UNL     1       4.172   5.518  -5.152  0.00  0.00    +0.000 A 
ATOM     18  F   UNL     1       4.107   4.364  -5.832  0.00  0.00    +0.000 F 
ENDBRANCH  11  12
ENDBRANCH  10  11
ENDBRANCH   8  10
ENDBRANCH   2   5
BRANCH   3  19
ATOM     19  C   UNL     1       2.249  -1.371   2.011  0.00  0.00    +0.000 A 
ATOM     20  C   UNL     1       2.399  -1.183   3.367  0.00  0.00    +0.000 A 
ATOM     21  N   UNL     1       1.571  -2.107   3.981  0.00  0.00    +0.000 N 
ATOM     22  N   UNL     1       1.069  -2.989   3.074  0.00  0.00    +0.000 NA
ATOM     23  C   UNL     1       1.387  -2.471   1.887  0.00  0.00    +0.000 A 
BRANCH  21  24
ATOM     24  C   UNL     1       1.145  -2.211   5.333  0.00  0.00    +0.000 A 
ATOM     25  C   UNL     1       1.002  -1.091   6.152  0.00  0.00    +0.000 A 
ATOM     26  C   UNL     1       0.542  -1.280   7.446  0.00  0.00    +0.000 A 
ATOM     27  N   UNL     1       0.228  -2.483   7.965  0.00  0.00    +0.000 NA
ATOM     28  C   UNL     1       0.351  -3.549   7.147  0.00  0.00    +0.000 A 
ATOM     29  C   UNL     1       0.785  -3.466   5.835  0.00  0.00    +0.000 A 
ENDBRANCH  21  24
BRANCH  20  30
ATOM     30  C   UNL     1       3.227  -0.199   4.083  0.00  0.00    +0.000 C 
ATOM     31  F   UNL     1       4.007  -0.790   5.020  0.00  0.00    +0.000 F 
ATOM     32  F   UNL     1       4.083   0.427   3.223  0.00  0.00    +0.000 F 
ENDBRANCH  20  30
ENDBRANCH   3  19
TORSDOF 7
