REMARK  Name = 
REMARK  6 active torsions:
REMARK  status: ('A' for Active; 'I' for Inactive)
REMARK    1  A    between atoms: C_1  and  O_2
REMARK    2  A    between atoms: O_2  and  C_3
REMARK    3  A    between atoms: C_7  and  O_8
REMARK    4  A    between atoms: O_8  and  C_9
REMARK    5  A    between atoms: C_12  and  N_13
REMARK    6  A    between atoms: C_14  and  C_16
REMARK                            x       y       z     vdW  Elec       q    Type
REMARK                         _______ _______ _______ _____ _____    ______ ____
ROOT
ATOM      1  N   UNL     1       9.913   1.408   6.496  0.00  0.00    +0.000 N 
ATOM      2  C   UNL     1      10.246   0.293   7.237  0.00  0.00    +0.000 C 
ATOM      3  O   UNL     1       9.798  -0.838   7.063  0.00  0.00    +0.000 OA
ATOM      4  H   UNL     1      10.329   2.286   6.805  0.00  0.00    +0.000 HD
ENDROOT
BRANCH   2   5
ATOM      5  C   UNL     1      11.233   0.532   8.345  0.00  0.00    +0.000 A 
ATOM      6  C   UNL     1      11.534  -0.531   9.117  0.00  0.00    +0.000 A 
ATOM      7  N   UNL     1      12.452  -0.465  10.133  0.00  0.00    +0.000 N 
ATOM      8  C   UNL     1      13.167   0.664  10.455  0.00  0.00    +0.000 A 
ATOM      9  O   UNL     1      13.996   0.679  11.357  0.00  0.00    +0.000 OA
ATOM     10  C   UNL     1      12.881   1.865   9.644  0.00  0.00    +0.000 A 
ATOM     11  C   UNL     1      13.559   3.064   9.871  0.00  0.00    +0.000 A 
ATOM     12  C   UNL     1      13.250   4.172   9.090  0.00  0.00    +0.000 A 
ATOM     13  C   UNL     1      12.270   4.039   8.120  0.00  0.00    +0.000 A 
ATOM     14  N   UNL     1      11.600   2.888   7.876  0.00  0.00    +0.000 NA
ATOM     15  C   UNL     1      11.923   1.803   8.635  0.00  0.00    +0.000 A 
ATOM     16  H   UNL     1      12.653  -1.290  10.687  0.00  0.00    +0.000 HD
ENDBRANCH   2   5
BRANCH   1  20
ATOM     17  C   UNL     1       7.197   1.749   3.286  0.00  0.00    +0.000 A 
ATOM     18  C   UNL     1       7.591   0.483   3.724  0.00  0.00    +0.000 A 
ATOM     19  C   UNL     1       8.478   0.352   4.792  0.00  0.00    +0.000 A 
ATOM     20  C   UNL     1       9.045   1.477   5.388  0.00  0.00    +0.000 A 
ATOM     21  C   UNL     1       8.745   2.741   4.862  0.00  0.00    +0.000 A 
ATOM     22  C   UNL     1       7.818   2.876   3.819  0.00  0.00    +0.000 A 
BRANCH  17  23
ATOM     23  O   UNL     1       6.230   1.954   2.325  0.00  0.00    +0.000 OA
BRANCH  23  28
ATOM     24  C   UNL     1       3.604  -0.078   0.790  0.00  0.00    +0.000 A 
ATOM     25  C   UNL     1       3.094  -0.766   1.893  0.00  0.00    +0.000 A 
ATOM     26  C   UNL     1       3.586  -0.503   3.172  0.00  0.00    +0.000 A 
ATOM     27  C   UNL     1       4.595   0.440   3.352  0.00  0.00    +0.000 A 
ATOM     28  C   UNL     1       5.169   1.073   2.245  0.00  0.00    +0.000 A 
ATOM     29  C   UNL     1       4.643   0.841   0.972  0.00  0.00    +0.000 A 
BRANCH  24  31
ATOM     30  C   UNL     1       2.132  -1.160  -0.730  0.00  0.00    +0.000 C 
ATOM     31  O   UNL     1       3.181  -0.226  -0.504  0.00  0.00    +0.000 OA
ENDBRANCH  24  31
ENDBRANCH  23  28
ENDBRANCH  17  23
ENDBRANCH   1  20
TORSDOF 5
