REMARK  Name = 
REMARK  7 active torsions:
REMARK  status: ('A' for Active; 'I' for Inactive)
REMARK    1  A    between atoms: C_1  and  C_2
REMARK    2  A    between atoms: C_5  and  O_6
REMARK    3  A    between atoms: O_6  and  C_7
REMARK    4  A    between atoms: C_7  and  C_8
REMARK    5  A    between atoms: C_12  and  C_13
REMARK    6  A    between atoms: N_15  and  C_16
REMARK    7  A    between atoms: C_19  and  C_20
REMARK                            x       y       z     vdW  Elec       q    Type
REMARK                         _______ _______ _______ _____ _____    ______ ____
ROOT
ATOM      1  C   UNL     1      -7.586   2.512   0.358  0.00  0.00    +0.000 C 
ATOM      2  O   UNL     1      -6.882   3.318  -0.243  0.00  0.00    +0.000 OA
ATOM      3  N   UNL     1      -8.622   2.819   1.231  0.00  0.00    +0.000 N 
ATOM      4  H   UNL     1      -8.993   2.068   1.798  0.00  0.00    +0.000 HD
ENDROOT
BRANCH   3   5
ATOM      5  C   UNL     1      -9.045   4.128   1.562  0.00  0.00    +0.000 A 
ATOM      6  C   UNL     1      -8.701   5.248   0.807  0.00  0.00    +0.000 A 
ATOM      7  C   UNL     1      -9.099   6.530   1.199  0.00  0.00    +0.000 A 
ATOM      8  C   UNL     1      -9.859   6.726   2.355  0.00  0.00    +0.000 A 
ATOM      9  C   UNL     1     -10.223   5.599   3.105  0.00  0.00    +0.000 A 
ATOM     10  C   UNL     1      -9.832   4.310   2.704  0.00  0.00    +0.000 A 
BRANCH   8  11
ATOM     11  C   UNL     1     -10.226   8.081   2.763  0.00  0.00    +0.000 A 
ATOM     12  C   UNL     1     -10.461   9.154   1.985  0.00  0.00    +0.000 A 
ATOM     13  N   UNL     1     -10.739  10.230   2.788  0.00  0.00    +0.000 N 
ATOM     14  C   UNL     1     -10.675   9.833   4.128  0.00  0.00    +0.000 A 
ATOM     15  O   UNL     1     -10.845  10.520   5.118  0.00  0.00    +0.000 OA
ATOM     16  N   UNL     1     -10.361   8.470   4.074  0.00  0.00    +0.000 N 
ATOM     17  H   UNL     1     -10.937  11.174   2.494  0.00  0.00    +0.000 HD
ATOM     18  H   UNL     1     -10.203   7.907   4.893  0.00  0.00    +0.000 HD
ENDBRANCH   8  11
ENDBRANCH   3   5
BRANCH   1  23
ATOM     19  C   UNL     1      -5.470  -0.591  -0.002  0.00  0.00    +0.000 A 
ATOM     20  C   UNL     1      -6.447  -1.595   0.002  0.00  0.00    +0.000 A 
ATOM     21  C   UNL     1      -7.803  -1.271   0.113  0.00  0.00    +0.000 A 
ATOM     22  C   UNL     1      -8.205   0.062   0.230  0.00  0.00    +0.000 A 
ATOM     23  C   UNL     1      -7.240   1.074   0.226  0.00  0.00    +0.000 A 
ATOM     24  C   UNL     1      -5.882   0.745   0.080  0.00  0.00    +0.000 A 
BRANCH  19  25
ATOM     25  C   UNL     1      -4.000  -0.936  -0.062  0.00  0.00    +0.000 C 
BRANCH  25  26
ATOM     26  O   UNL     1      -3.570  -1.052  -1.417  0.00  0.00    +0.000 OA
BRANCH  26  31
ATOM     27  C   UNL     1       1.725  -2.443  -2.728  0.00  0.00    +0.000 C 
ATOM     28  C   UNL     1       0.334  -2.069  -2.307  0.00  0.00    +0.000 A 
ATOM     29  C   UNL     1      -0.003  -1.969  -0.963  0.00  0.00    +0.000 A 
ATOM     30  C   UNL     1      -1.311  -1.625  -0.610  0.00  0.00    +0.000 A 
ATOM     31  C   UNL     1      -2.256  -1.386  -1.604  0.00  0.00    +0.000 A 
ATOM     32  C   UNL     1      -1.825  -1.504  -2.920  0.00  0.00    +0.000 A 
ATOM     33  N   UNL     1      -0.563  -1.839  -3.294  0.00  0.00    +0.000 NA
ENDBRANCH  26  31
ENDBRANCH  25  26
ENDBRANCH  19  25
ENDBRANCH   1  23
TORSDOF 6
