REMARK  Name = 
REMARK  7 active torsions:
REMARK  status: ('A' for Active; 'I' for Inactive)
REMARK    1  A    between atoms: C_2  and  C_3
REMARK    2  A    between atoms: C_6  and  C_7
REMARK    3  A    between atoms: N_9  and  C_10
REMARK    4  A    between atoms: C_10  and  C_11
REMARK    5  A    between atoms: C_10  and  C_19
REMARK    6  A    between atoms: C_11  and  O_12
REMARK    7  A    between atoms: O_12  and  C_13
REMARK                            x       y       z     vdW  Elec       q    Type
REMARK                         _______ _______ _______ _____ _____    ______ ____
ROOT
ATOM      1  C   UNL     1       7.362  -5.890   0.107  0.00  0.00    +0.000 C 
ENDROOT
BRANCH   1   2
ATOM      2  C   UNL     1       8.751  -6.524   0.109  0.00  0.00    +0.000 A 
ATOM      3  C   UNL     1       9.117  -7.425   1.125  0.00  0.00    +0.000 A 
ATOM      4  C   UNL     1      10.390  -8.002   1.139  0.00  0.00    +0.000 A 
ATOM      5  C   UNL     1      11.300  -7.688   0.138  0.00  0.00    +0.000 A 
ATOM      6  F   UNL     1      12.527  -8.226   0.164  0.00  0.00    +0.000 F 
ATOM      7  C   UNL     1      10.957  -6.819  -0.889  0.00  0.00    +0.000 A 
ATOM      8  C   UNL     1       9.687  -6.239  -0.905  0.00  0.00    +0.000 A 
ENDBRANCH   1   2
BRANCH   1  11
ATOM      9  C   UNL     1       7.626  -3.702   1.283  0.00  0.00    +0.000 C 
ATOM     10  O   UNL     1       7.653  -4.245   2.384  0.00  0.00    +0.000 OA
ATOM     11  N   UNL     1       7.462  -4.430   0.124  0.00  0.00    +0.000 N 
ATOM     12  H   UNL     1       7.357  -3.956  -0.758  0.00  0.00    +0.000 HD
BRANCH   9  16
ATOM     13  C   UNL     1       8.022  -0.346   4.270  0.00  0.00    +0.000 A 
ATOM     14  C   UNL     1       7.840  -1.438   3.499  0.00  0.00    +0.000 A 
ATOM     15  N   UNL     1       7.892  -1.318   2.105  0.00  0.00    +0.000 N 
ATOM     16  C   UNL     1       7.769  -2.273   1.097  0.00  0.00    +0.000 A 
ATOM     17  C   UNL     1       7.849  -1.530  -0.070  0.00  0.00    +0.000 A 
ATOM     18  N   UNL     1       8.059  -0.201   0.168  0.00  0.00    +0.000 NA
ATOM     19  C   UNL     1       8.105  -0.092   1.474  0.00  0.00    +0.000 A 
ATOM     20  C   UNL     1       8.330   1.051   2.295  0.00  0.00    +0.000 A 
ATOM     21  C   UNL     1       8.294   0.935   3.636  0.00  0.00    +0.000 A 
BRANCH  13  23
ATOM     22  N   UNL     1       7.948  -0.549   7.042  0.00  0.00    +0.000 NA
ATOM     23  C   UNL     1       7.982  -0.457   5.785  0.00  0.00    +0.000 C 
ENDBRANCH  13  23
ENDBRANCH   9  16
ENDBRANCH   1  11
BRANCH   1  24
ATOM     24  C   UNL     1       6.577  -6.381  -1.130  0.00  0.00    +0.000 C 
BRANCH  24  25
ATOM     25  O   UNL     1       5.251  -5.840  -1.136  0.00  0.00    +0.000 OA
BRANCH  25  26
ATOM     26  C   UNL     1       4.460  -6.223  -2.190  0.00  0.00    +0.000 A 
ATOM     27  C   UNL     1       4.860  -7.037  -3.254  0.00  0.00    +0.000 A 
ATOM     28  C   UNL     1       3.959  -7.371  -4.267  0.00  0.00    +0.000 A 
ATOM     29  C   UNL     1       2.652  -6.895  -4.226  0.00  0.00    +0.000 A 
ATOM     30  C   UNL     1       2.246  -6.078  -3.172  0.00  0.00    +0.000 A 
ATOM     31  C   UNL     1       3.149  -5.742  -2.159  0.00  0.00    +0.000 A 
ENDBRANCH  25  26
ENDBRANCH  24  25
ENDBRANCH   1  24
TORSDOF 7
