REMARK  Name = 
REMARK  8 active torsions:
REMARK  status: ('A' for Active; 'I' for Inactive)
REMARK    1  A    between atoms: C_2  and  C_4
REMARK    2  A    between atoms: C_4  and  N_5
REMARK    3  A    between atoms: N_5  and  C_6
REMARK    4  A    between atoms: N_5  and  C_18
REMARK    5  A    between atoms: C_6  and  C_7
REMARK    6  A    between atoms: C_7  and  C_9
REMARK    7  A    between atoms: C_18  and  C_19
REMARK    8  A    between atoms: C_22  and  C_23
REMARK                            x       y       z     vdW  Elec       q    Type
REMARK                         _______ _______ _______ _____ _____    ______ ____
ROOT
ATOM      1  N   UNL     1       4.502   0.446   0.804  0.00  0.00    +0.000 NA
ENDROOT
BRANCH   1   2
ATOM      2  C   UNL     1       4.791   1.263  -0.414  0.00  0.00    +0.000 C 
BRANCH   2   3
ATOM      3  C   UNL     1       6.259   1.202  -0.844  0.00  0.00    +0.000 C 
ATOM      4  O   UNL     1       6.931   2.237  -0.835  0.00  0.00    +0.000 OA
BRANCH   3   5
ATOM      5  C   UNL     1       6.849  -0.086  -1.229  0.00  0.00    +0.000 A 
ATOM      6  C   UNL     1       6.185  -1.278  -1.451  0.00  0.00    +0.000 A 
ATOM      7  N   UNL     1       7.115  -2.262  -1.662  0.00  0.00    +0.000 N 
ATOM      8  C   UNL     1       8.383  -1.739  -1.578  0.00  0.00    +0.000 A 
ATOM      9  C   UNL     1       9.631  -2.372  -1.633  0.00  0.00    +0.000 A 
ATOM     10  C   UNL     1      10.768  -1.574  -1.478  0.00  0.00    +0.000 A 
ATOM     11  C   UNL     1      10.665  -0.196  -1.312  0.00  0.00    +0.000 A 
ATOM     12  C   UNL     1       9.414   0.419  -1.268  0.00  0.00    +0.000 A 
ATOM     13  C   UNL     1       8.246  -0.365  -1.373  0.00  0.00    +0.000 A 
ATOM     14  H   UNL     1       6.908  -3.243  -1.798  0.00  0.00    +0.000 HD
ENDBRANCH   3   5
ENDBRANCH   2   3
ENDBRANCH   1   2
BRANCH   1  15
ATOM     15  C   UNL     1       5.276   0.989   1.954  0.00  0.00    +0.000 C 
BRANCH  15  16
ATOM     16  C   UNL     1       5.077   0.218   3.245  0.00  0.00    +0.000 A 
ATOM     17  C   UNL     1       5.386  -1.144   3.335  0.00  0.00    +0.000 A 
ATOM     18  C   UNL     1       5.158  -1.849   4.523  0.00  0.00    +0.000 A 
ATOM     19  C   UNL     1       4.638  -1.218   5.666  0.00  0.00    +0.000 A 
ATOM     20  C   UNL     1       4.360   0.161   5.563  0.00  0.00    +0.000 A 
ATOM     21  C   UNL     1       4.564   0.863   4.371  0.00  0.00    +0.000 A 
BRANCH  19  22
ATOM     22  C   UNL     1       4.388  -1.946   6.933  0.00  0.00    +0.000 A 
ATOM     23  C   UNL     1       5.171  -3.050   7.318  0.00  0.00    +0.000 A 
ATOM     24  C   UNL     1       4.963  -3.703   8.535  0.00  0.00    +0.000 A 
ATOM     25  C   UNL     1       3.963  -3.263   9.399  0.00  0.00    +0.000 A 
ATOM     26  C   UNL     1       3.167  -2.188   9.043  0.00  0.00    +0.000 A 
ATOM     27  C   UNL     1       3.366  -1.545   7.816  0.00  0.00    +0.000 A 
ENDBRANCH  19  22
ENDBRANCH  15  16
ENDBRANCH   1  15
BRANCH   1  28
ATOM     28  C   UNL     1       3.050   0.537   1.133  0.00  0.00    +0.000 C 
BRANCH  28  30
ATOM     29  N   UNL     1       2.323  -1.319  -0.296  0.00  0.00    +0.000 N 
ATOM     30  C   UNL     1       2.147  -0.005   0.032  0.00  0.00    +0.000 C 
ATOM     31  O   UNL     1       1.279   0.664  -0.518  0.00  0.00    +0.000 OA
ATOM     32  H   UNL     1       1.732  -1.664  -1.038  0.00  0.00    +0.000 HD
ATOM     33  H   UNL     1       3.254  -1.705  -0.208  0.00  0.00    +0.000 HD
ENDBRANCH  28  30
ENDBRANCH   1  28
TORSDOF 8
