REMARK  Name = 
REMARK  6 active torsions:
REMARK  status: ('A' for Active; 'I' for Inactive)
REMARK    1  A    between atoms: C_2  and  C_18
REMARK    2  A    between atoms: N_3  and  C_4
REMARK    3  A    between atoms: C_7  and  O_8
REMARK    4  A    between atoms: O_8  and  C_9
REMARK    5  A    between atoms: C_9  and  C_10
REMARK    6  A    between atoms: C_22  and  C_23
REMARK                            x       y       z     vdW  Elec       q    Type
REMARK                         _______ _______ _______ _____ _____    ______ ____
ROOT
ATOM      1  O   UNL     1       1.124  -0.007  -0.422  0.00  0.00    +0.000 OA
ATOM      2  C   UNL     1       2.294   0.045  -0.069  0.00  0.00    +0.000 C 
ATOM      3  N   UNL     1       2.911  -0.736   0.887  0.00  0.00    +0.000 N 
ATOM      4  H   UNL     1       3.821  -0.439   1.215  0.00  0.00    +0.000 HD
ENDROOT
BRANCH   3   5
ATOM      5  C   UNL     1       2.313  -1.790   1.601  0.00  0.00    +0.000 A 
ATOM      6  C   UNL     1       1.111  -2.390   1.225  0.00  0.00    +0.000 A 
ATOM      7  C   UNL     1       0.568  -3.419   1.995  0.00  0.00    +0.000 A 
ATOM      8  C   UNL     1       1.228  -3.865   3.136  0.00  0.00    +0.000 A 
ATOM      9  C   UNL     1       2.421  -3.257   3.526  0.00  0.00    +0.000 A 
ATOM     10  C   UNL     1       2.973  -2.239   2.748  0.00  0.00    +0.000 A 
BRANCH   8  11
ATOM     11  O   UNL     1       0.623  -4.896   3.796  0.00  0.00    +0.000 OA
BRANCH  11  12
ATOM     12  C   UNL     1       1.492  -5.682   4.613  0.00  0.00    +0.000 C 
BRANCH  12  13
ATOM     13  C   UNL     1       0.873  -7.033   4.833  0.00  0.00    +0.000 A 
ATOM     14  C   UNL     1       0.534  -7.832   3.744  0.00  0.00    +0.000 A 
ATOM     15  N   UNL     1       0.013  -9.073   3.879  0.00  0.00    +0.000 NA
ATOM     16  C   UNL     1      -0.167  -9.484   5.154  0.00  0.00    +0.000 A 
ATOM     17  C   UNL     1       0.170  -8.698   6.243  0.00  0.00    +0.000 A 
ATOM     18  N   UNL     1       0.705  -7.464   6.110  0.00  0.00    +0.000 NA
ENDBRANCH  12  13
ENDBRANCH  11  12
ENDBRANCH   8  11
ENDBRANCH   3   5
BRANCH   2  19
ATOM     19  C   UNL     1       3.148   1.115  -0.638  0.00  0.00    +0.000 A 
ATOM     20  C   UNL     1       4.508   0.916  -0.902  0.00  0.00    +0.000 A 
ATOM     21  C   UNL     1       5.266   1.956  -1.441  0.00  0.00    +0.000 A 
ATOM     22  C   UNL     1       4.662   3.186  -1.718  0.00  0.00    +0.000 A 
ATOM     23  C   UNL     1       3.298   3.386  -1.460  0.00  0.00    +0.000 A 
ATOM     24  C   UNL     1       2.540   2.341  -0.931  0.00  0.00    +0.000 A 
BRANCH  23  25
ATOM     25  C   UNL     1       2.675   4.691  -1.814  0.00  0.00    +0.000 A 
ATOM     26  N   UNL     1       3.139   5.354  -2.831  0.00  0.00    +0.000 NA
ATOM     27  N   UNL     1       2.516   6.528  -3.140  0.00  0.00    +0.000 N 
ATOM     28  C   UNL     1       1.439   7.063  -2.483  0.00  0.00    +0.000 A 
ATOM     29  O   UNL     1       0.893   8.108  -2.819  0.00  0.00    +0.000 OA
ATOM     30  C   UNL     1       0.964   6.310  -1.309  0.00  0.00    +0.000 A 
ATOM     31  C   UNL     1       1.553   5.163  -0.962  0.00  0.00    +0.000 A 
ATOM     32  H   UNL     1       2.858   7.023  -3.955  0.00  0.00    +0.000 HD
ENDBRANCH  23  25
ENDBRANCH   2  19
TORSDOF 6
