REMARK  Name = 
REMARK  6 active torsions:
REMARK  status: ('A' for Active; 'I' for Inactive)
REMARK    1  A    between atoms: C_2  and  C_14
REMARK    2  A    between atoms: N_3  and  C_4
REMARK    3  A    between atoms: C_4  and  C_5
REMARK    4  A    between atoms: C_18  and  O_19
REMARK    5  A    between atoms: O_19  and  C_20
REMARK    6  A    between atoms: C_20  and  C_21
REMARK                            x       y       z     vdW  Elec       q    Type
REMARK                         _______ _______ _______ _____ _____    ______ ____
ROOT
ATOM      1  C   UNL     1       2.944  -1.190   0.376  0.00  0.00    +0.000 A 
ATOM      2  C   UNL     1       2.538  -2.412   0.000  0.00  0.00    +0.000 A 
ATOM      3  C   UNL     1       3.331  -3.589   0.407  0.00  0.00    +0.000 A 
ATOM      4  O   UNL     1       3.019  -4.704   0.004  0.00  0.00    +0.000 OA
ATOM      5  C   UNL     1       4.500  -3.336   1.308  0.00  0.00    +0.000 A 
ATOM      6  C   UNL     1       4.768  -2.056   1.596  0.00  0.00    +0.000 A 
ATOM      7  O   UNL     1       4.064  -0.965   1.155  0.00  0.00    +0.000 OA
ENDROOT
BRANCH   1   9
ATOM      8  O   UNL     1       1.127  -0.166  -0.765  0.00  0.00    +0.000 OA
ATOM      9  C   UNL     1       2.136  -0.022  -0.089  0.00  0.00    +0.000 C 
ATOM     10  N   UNL     1       2.627   1.199   0.304  0.00  0.00    +0.000 N 
ATOM     11  H   UNL     1       3.461   1.243   0.871  0.00  0.00    +0.000 HD
BRANCH  10  12
ATOM     12  C   UNL     1       1.952   2.425  -0.061  0.00  0.00    +0.000 C 
BRANCH  12  13
ATOM     13  C   UNL     1       2.839   3.331  -0.880  0.00  0.00    +0.000 A 
ATOM     14  C   UNL     1       2.828   3.220  -2.283  0.00  0.00    +0.000 A 
ATOM     15  C   UNL     1       3.638   4.027  -3.096  0.00  0.00    +0.000 A 
ATOM     16  C   UNL     1       4.482   4.967  -2.483  0.00  0.00    +0.000 A 
ATOM     17  C   UNL     1       5.430   5.925  -2.930  0.00  0.00    +0.000 A 
ATOM     18  C   UNL     1       5.929   6.532  -1.801  0.00  0.00    +0.000 A 
ATOM     19  O   UNL     1       5.355   6.013  -0.683  0.00  0.00    +0.000 OA
ATOM     20  C   UNL     1       4.476   5.057  -1.096  0.00  0.00    +0.000 A 
ATOM     21  C   UNL     1       3.685   4.267  -0.260  0.00  0.00    +0.000 A 
ENDBRANCH  12  13
ENDBRANCH  10  12
ENDBRANCH   1   9
BRANCH   5  22
ATOM     22  O   UNL     1       5.318  -4.324   1.826  0.00  0.00    +0.000 OA
BRANCH  22  23
ATOM     23  C   UNL     1       4.717  -5.598   2.073  0.00  0.00    +0.000 C 
BRANCH  23  24
ATOM     24  C   UNL     1       5.448  -6.257   3.228  0.00  0.00    +0.000 A 
ATOM     25  C   UNL     1       4.762  -6.645   4.391  0.00  0.00    +0.000 A 
ATOM     26  C   UNL     1       5.443  -7.268   5.440  0.00  0.00    +0.000 A 
ATOM     27  C   UNL     1       6.808  -7.506   5.328  0.00  0.00    +0.000 A 
ATOM     28  F   UNL     1       7.459  -8.107   6.331  0.00  0.00    +0.000 F 
ATOM     29  C   UNL     1       7.506  -7.132   4.188  0.00  0.00    +0.000 A 
ATOM     30  C   UNL     1       6.828  -6.507   3.139  0.00  0.00    +0.000 A 
ENDBRANCH  23  24
ENDBRANCH  22  23
ENDBRANCH   5  22
TORSDOF 6
