REMARK  Name = 
REMARK  9 active torsions:
REMARK  status: ('A' for Active; 'I' for Inactive)
REMARK    1  A    between atoms: C_2  and  C_18
REMARK    2  A    between atoms: N_3  and  C_4
REMARK    3  A    between atoms: C_4  and  C_5
REMARK    4  A    between atoms: C_10  and  O_11
REMARK    5  A    between atoms: O_11  and  C_12
REMARK    6  A    between atoms: C_18  and  O_19
REMARK    7  A    between atoms: C_18  and  C_20
REMARK    8  A    between atoms: C_24  and  O_25
REMARK    9  A    between atoms: O_25  and  C_26
REMARK                            x       y       z     vdW  Elec       q    Type
REMARK                         _______ _______ _______ _____ _____    ______ ____
ROOT
ATOM      1  O   UNL     1       2.108   0.289   3.238  0.00  0.00    +0.000 OA
ATOM      2  C   UNL     1       1.455   1.302   2.944  0.00  0.00    +0.000 C 
ATOM      3  N   UNL     1       1.878   1.952   1.827  0.00  0.00    +0.000 N 
ATOM      4  H   UNL     1       2.634   1.456   1.370  0.00  0.00    +0.000 HD
ENDROOT
BRANCH   3   5
ATOM      5  C   UNL     1       1.541   3.245   1.296  0.00  0.00    +0.000 C 
BRANCH   5   6
ATOM      6  C   UNL     1       2.769   4.114   1.050  0.00  0.00    +0.000 A 
ATOM      7  C   UNL     1       3.087   4.508  -0.266  0.00  0.00    +0.000 A 
ATOM      8  C   UNL     1       4.120   5.414  -0.528  0.00  0.00    +0.000 A 
ATOM      9  C   UNL     1       4.892   5.910   0.515  0.00  0.00    +0.000 A 
ATOM     10  C   UNL     1       4.652   5.469   1.810  0.00  0.00    +0.000 A 
ATOM     11  C   UNL     1       3.579   4.603   2.096  0.00  0.00    +0.000 A 
BRANCH  11  12
ATOM     12  O   UNL     1       3.302   4.190   3.388  0.00  0.00    +0.000 OA
BRANCH  12  13
ATOM     13  C   UNL     1       3.753   5.000   4.424  0.00  0.00    +0.000 A 
ATOM     14  C   UNL     1       3.316   6.310   4.525  0.00  0.00    +0.000 A 
ATOM     15  C   UNL     1       3.863   7.119   5.518  0.00  0.00    +0.000 A 
ATOM     16  C   UNL     1       4.769   6.565   6.413  0.00  0.00    +0.000 A 
ATOM     17  C   UNL     1       5.089   5.223   6.278  0.00  0.00    +0.000 A 
ATOM     18  N   UNL     1       4.607   4.423   5.296  0.00  0.00    +0.000 NA
ENDBRANCH  12  13
ENDBRANCH  11  12
ENDBRANCH   5   6
ENDBRANCH   3   5
BRANCH   2  19
ATOM     19  C   UNL     1       0.134   1.615   3.682  0.00  0.00    +0.000 C 
BRANCH  19  20
ATOM     20  C   UNL     1      -0.165   2.861   4.500  0.00  0.00    +0.000 A 
ATOM     21  C   UNL     1      -1.535   3.169   4.640  0.00  0.00    +0.000 A 
ATOM     22  C   UNL     1      -1.998   3.972   5.677  0.00  0.00    +0.000 A 
ATOM     23  C   UNL     1      -1.096   4.555   6.557  0.00  0.00    +0.000 A 
ATOM     24  C   UNL     1       0.275   4.416   6.349  0.00  0.00    +0.000 A 
ATOM     25  C   UNL     1       0.734   3.514   5.360  0.00  0.00    +0.000 A 
BRANCH  24  26
ATOM     26  O   UNL     1       1.232   5.035   7.101  0.00  0.00    +0.000 OA
BRANCH  26  27
ATOM     27  C   UNL     1       0.930   6.249   7.790  0.00  0.00    +0.000 C 
ATOM     28  F   UNL     1      -0.281   6.780   7.513  0.00  0.00    +0.000 F 
ATOM     29  F   UNL     1       1.011   6.045   9.123  0.00  0.00    +0.000 F 
ATOM     30  F   UNL     1       1.845   7.189   7.465  0.00  0.00    +0.000 F 
ENDBRANCH  26  27
ENDBRANCH  24  26
ENDBRANCH  19  20
BRANCH  19  31
ATOM     31  O   UNL     1      -0.094   0.565   4.645  0.00  0.00    +0.000 OA
ATOM     32  H   UNL     1       0.644   0.640   5.286  0.00  0.00    +0.000 HD
ENDBRANCH  19  31
ENDBRANCH   2  19
TORSDOF 9
