REMARK  Name = 
REMARK  5 active torsions:
REMARK  status: ('A' for Active; 'I' for Inactive)
REMARK    1  A    between atoms: C_4  and  C_5
REMARK    2  A    between atoms: C_8  and  C_9
REMARK    3  A    between atoms: C_15  and  O_16
REMARK    4  A    between atoms: O_16  and  C_17
REMARK    5  A    between atoms: C_17  and  C_18
REMARK                            x       y       z     vdW  Elec       q    Type
REMARK                         _______ _______ _______ _____ _____    ______ ____
ROOT
ATOM      1  C   UNL     1      -3.970  -6.174   0.213  0.00  0.00    +0.000 A 
ATOM      2  C   UNL     1      -4.901  -6.527   1.220  0.00  0.00    +0.000 A 
ATOM      3  C   UNL     1      -5.537  -7.763   1.239  0.00  0.00    +0.000 A 
ATOM      4  F   UNL     1      -6.397  -8.048   2.224  0.00  0.00    +0.000 F 
ATOM      5  C   UNL     1      -5.276  -8.706   0.266  0.00  0.00    +0.000 A 
ATOM      6  C   UNL     1      -4.388  -8.392  -0.756  0.00  0.00    +0.000 A 
ATOM      7  C   UNL     1      -3.760  -7.127  -0.823  0.00  0.00    +0.000 A 
ENDROOT
BRANCH   1  11
ATOM      8  C   UNL     1      -1.814  -2.486   0.543  0.00  0.00    +0.000 A 
ATOM      9  C   UNL     1      -2.263  -3.098   1.701  0.00  0.00    +0.000 A 
ATOM     10  C   UNL     1      -2.973  -4.295   1.586  0.00  0.00    +0.000 A 
ATOM     11  C   UNL     1      -3.256  -4.868   0.331  0.00  0.00    +0.000 A 
ATOM     12  C   UNL     1      -2.809  -4.123  -0.760  0.00  0.00    +0.000 A 
ATOM     13  N   UNL     1      -2.090  -2.968  -0.693  0.00  0.00    +0.000 NA
BRANCH   8  17
ATOM     14  O   UNL     1       0.558   0.810   2.920  0.00  0.00    +0.000 OA
ATOM     15  C   UNL     1       0.195   0.311   1.859  0.00  0.00    +0.000 A 
ATOM     16  N   UNL     1      -0.621  -0.789   1.797  0.00  0.00    +0.000 NA
ATOM     17  C   UNL     1      -0.945  -1.270   0.633  0.00  0.00    +0.000 A 
ATOM     18  C   UNL     1      -0.489  -0.694  -0.656  0.00  0.00    +0.000 A 
ATOM     19  C   UNL     1       0.290   0.382  -0.551  0.00  0.00    +0.000 A 
ATOM     20  N   UNL     1       0.618   0.870   0.677  0.00  0.00    +0.000 N 
ATOM     21  H   UNL     1       1.215   1.680   0.779  0.00  0.00    +0.000 HD
ENDBRANCH   8  17
ENDBRANCH   1  11
BRANCH   7  22
ATOM     22  O   UNL     1      -2.925  -6.798  -1.876  0.00  0.00    +0.000 OA
BRANCH  22  23
ATOM     23  C   UNL     1      -3.091  -7.594  -3.061  0.00  0.00    +0.000 C 
BRANCH  23  24
ATOM     24  C   UNL     1      -2.543  -6.976  -4.325  0.00  0.00    +0.000 A 
ATOM     25  C   UNL     1      -1.736  -5.840  -4.347  0.00  0.00    +0.000 A 
ATOM     26  C   UNL     1      -1.305  -5.359  -5.574  0.00  0.00    +0.000 A 
ATOM     27  N   UNL     1      -1.603  -5.930  -6.763  0.00  0.00    +0.000 NA
ATOM     28  C   UNL     1      -2.366  -7.038  -6.724  0.00  0.00    +0.000 A 
ATOM     29  C   UNL     1      -2.851  -7.591  -5.549  0.00  0.00    +0.000 A 
ENDBRANCH  23  24
ENDBRANCH  22  23
ENDBRANCH   7  22
TORSDOF 5
