REMARK  Name = 
REMARK  7 active torsions:
REMARK  status: ('A' for Active; 'I' for Inactive)
REMARK    1  A    between atoms: C_1  and  O_2
REMARK    2  A    between atoms: O_2  and  C_3
REMARK    3  A    between atoms: C_6  and  C_7
REMARK    4  A    between atoms: C_14  and  N_15
REMARK    5  A    between atoms: C_16  and  C_18
REMARK    6  A    between atoms: N_22  and  C_23
REMARK    7  A    between atoms: C_26  and  O_27
REMARK                            x       y       z     vdW  Elec       q    Type
REMARK                         _______ _______ _______ _____ _____    ______ ____
ROOT
ATOM      1  N   UNL     1       4.431  -1.326  -1.123  0.00  0.00    +0.000 N 
ATOM      2  C   UNL     1       5.552  -2.055  -1.512  0.00  0.00    +0.000 C 
ATOM      3  O   UNL     1       6.389  -1.627  -2.298  0.00  0.00    +0.000 OA
ATOM      4  H   UNL     1       3.846  -1.667  -0.369  0.00  0.00    +0.000 HD
ENDROOT
BRANCH   1  10
ATOM      5  C   UNL     1       3.038   0.714  -1.038  0.00  0.00    +0.000 A 
ATOM      6  C   UNL     1       2.736   1.991  -1.538  0.00  0.00    +0.000 A 
ATOM      7  C   UNL     1       3.441   2.530  -2.612  0.00  0.00    +0.000 A 
ATOM      8  C   UNL     1       4.475   1.823  -3.226  0.00  0.00    +0.000 A 
ATOM      9  C   UNL     1       4.746   0.537  -2.734  0.00  0.00    +0.000 A 
ATOM     10  C   UNL     1       4.079  -0.029  -1.631  0.00  0.00    +0.000 A 
BRANCH   8  11
ATOM     11  C   UNL     1       5.254   2.433  -4.322  0.00  0.00    +0.000 A 
ATOM     12  C   UNL     1       6.596   2.133  -4.564  0.00  0.00    +0.000 A 
ATOM     13  C   UNL     1       7.282   2.831  -5.556  0.00  0.00    +0.000 A 
ATOM     14  C   UNL     1       6.615   3.805  -6.286  0.00  0.00    +0.000 A 
ATOM     15  C   UNL     1       5.281   4.032  -6.003  0.00  0.00    +0.000 A 
ATOM     16  N   UNL     1       4.596   3.376  -5.045  0.00  0.00    +0.000 NA
ENDBRANCH   8  11
BRANCH   5  18
ATOM     17  C   UNL     1       1.169   0.835   0.414  0.00  0.00    +0.000 C 
ATOM     18  O   UNL     1       2.368   0.154   0.027  0.00  0.00    +0.000 OA
ENDBRANCH   5  18
ENDBRANCH   1  10
BRANCH   2  19
ATOM     19  C   UNL     1       5.733  -3.383  -0.965  0.00  0.00    +0.000 A 
ATOM     20  C   UNL     1       4.795  -4.337  -0.617  0.00  0.00    +0.000 A 
ATOM     21  N   UNL     1       5.367  -5.576  -0.476  0.00  0.00    +0.000 NA
ATOM     22  C   UNL     1       6.644  -5.392  -0.722  0.00  0.00    +0.000 A 
ATOM     23  N   UNL     1       6.955  -4.066  -0.925  0.00  0.00    +0.000 N 
BRANCH  23  24
ATOM     24  C   UNL     1       8.275  -3.537  -1.058  0.00  0.00    +0.000 A 
ATOM     25  C   UNL     1       9.286  -4.294  -1.675  0.00  0.00    +0.000 A 
ATOM     26  C   UNL     1      10.565  -3.745  -1.849  0.00  0.00    +0.000 A 
ATOM     27  C   UNL     1      10.834  -2.462  -1.383  0.00  0.00    +0.000 A 
ATOM     28  C   UNL     1       9.852  -1.720  -0.742  0.00  0.00    +0.000 A 
ATOM     29  C   UNL     1       8.574  -2.258  -0.577  0.00  0.00    +0.000 A 
BRANCH  27  30
ATOM     30  O   UNL     1      12.061  -1.887  -1.535  0.00  0.00    +0.000 OA
ATOM     31  H   UNL     1      12.645  -2.511  -1.994  0.00  0.00    +0.000 HD
ENDBRANCH  27  30
ENDBRANCH  23  24
ENDBRANCH   2  19
TORSDOF 6
