REMARK  Name = 
REMARK  9 active torsions:
REMARK  status: ('A' for Active; 'I' for Inactive)
REMARK    1  A    between atoms: C_2  and  C_3
REMARK    2  A    between atoms: C_2  and  O_18
REMARK    3  A    between atoms: C_3  and  O_4
REMARK    4  A    between atoms: O_4  and  C_5
REMARK    5  A    between atoms: C_9  and  O_10
REMARK    6  A    between atoms: O_10  and  C_11
REMARK    7  A    between atoms: O_18  and  C_19
REMARK    8  A    between atoms: C_19  and  C_20
REMARK    9  A    between atoms: N_24  and  C_25
REMARK                            x       y       z     vdW  Elec       q    Type
REMARK                         _______ _______ _______ _____ _____    ______ ____
ROOT
ATOM      1  O   UNL     1       2.180  -0.296  -1.210  0.00  0.00    +0.000 OA
ATOM      2  C   UNL     1       2.268  -0.138   0.001  0.00  0.00    +0.000 C 
ENDROOT
BRANCH   2   3
ATOM      3  C   UNL     1       2.958  -1.094   0.955  0.00  0.00    +0.000 C 
BRANCH   3   4
ATOM      4  O   UNL     1       2.035  -1.977   1.574  0.00  0.00    +0.000 OA
BRANCH   4   5
ATOM      5  C   UNL     1       2.571  -2.901   2.435  0.00  0.00    +0.000 A 
ATOM      6  C   UNL     1       3.926  -3.031   2.751  0.00  0.00    +0.000 A 
ATOM      7  C   UNL     1       4.353  -4.034   3.623  0.00  0.00    +0.000 A 
ATOM      8  C   UNL     1       3.428  -4.903   4.195  0.00  0.00    +0.000 A 
ATOM      9  C   UNL     1       2.066  -4.745   3.932  0.00  0.00    +0.000 A 
ATOM     10  C   UNL     1       1.645  -3.766   3.028  0.00  0.00    +0.000 A 
BRANCH   9  11
ATOM     11  O   UNL     1       1.089  -5.560   4.463  0.00  0.00    +0.000 OA
BRANCH  11  12
ATOM     12  C   UNL     1       1.224  -5.978   5.784  0.00  0.00    +0.000 A 
ATOM     13  C   UNL     1       0.555  -7.142   6.135  0.00  0.00    +0.000 A 
ATOM     14  C   UNL     1       0.684  -7.610   7.439  0.00  0.00    +0.000 A 
ATOM     15  C   UNL     1       1.466  -6.900   8.345  0.00  0.00    +0.000 A 
ATOM     16  C   UNL     1       2.071  -5.732   7.911  0.00  0.00    +0.000 A 
ATOM     17  N   UNL     1       1.954  -5.248   6.657  0.00  0.00    +0.000 NA
ENDBRANCH  11  12
ENDBRANCH   9  11
ENDBRANCH   4   5
ENDBRANCH   3   4
ENDBRANCH   2   3
BRANCH   2  18
ATOM     18  O   UNL     1       1.816   0.955   0.679  0.00  0.00    +0.000 OA
BRANCH  18  19
ATOM     19  C   UNL     1       1.597   2.121  -0.130  0.00  0.00    +0.000 C 
BRANCH  19  20
ATOM     20  C   UNL     1       2.898   2.848  -0.229  0.00  0.00    +0.000 A 
ATOM     21  N   UNL     1       4.024   2.467   0.353  0.00  0.00    +0.000 NA
ATOM     22  N   UNL     1       5.045   3.241  -0.118  0.00  0.00    +0.000 NA
ATOM     23  C   UNL     1       4.530   4.088  -0.974  0.00  0.00    +0.000 A 
ATOM     24  N   UNL     1       3.168   3.923  -1.066  0.00  0.00    +0.000 N 
BRANCH  24  25
ATOM     25  C   UNL     1       2.293   4.697  -1.872  0.00  0.00    +0.000 A 
ATOM     26  C   UNL     1       2.771   5.273  -3.060  0.00  0.00    +0.000 A 
ATOM     27  C   UNL     1       1.909   6.000  -3.883  0.00  0.00    +0.000 A 
ATOM     28  C   UNL     1       0.577   6.180  -3.517  0.00  0.00    +0.000 A 
ATOM     29  C   UNL     1       0.108   5.648  -2.320  0.00  0.00    +0.000 A 
ATOM     30  C   UNL     1       0.961   4.910  -1.496  0.00  0.00    +0.000 A 
ENDBRANCH  24  25
ENDBRANCH  19  20
ENDBRANCH  18  19
ENDBRANCH   2  18
TORSDOF 9
