REMARK  Name = 
REMARK  5 active torsions:
REMARK  status: ('A' for Active; 'I' for Inactive)
REMARK    1  A    between atoms: C_2  and  C_3
REMARK    2  A    between atoms: C_6  and  N_7
REMARK    3  A    between atoms: C_9  and  C_10
REMARK    4  A    between atoms: C_14  and  C_16
REMARK    5  A    between atoms: C_16  and  C_17
REMARK                            x       y       z     vdW  Elec       q    Type
REMARK                         _______ _______ _______ _____ _____    ______ ____
ROOT
ATOM      1  N   UNL     1       3.121   1.490   0.120  0.00  0.00    +0.000 N 
ATOM      2  C   UNL     1       3.824   2.090   1.137  0.00  0.00    +0.000 A 
ATOM      3  C   UNL     1       5.134   2.155   0.726  0.00  0.00    +0.000 A 
ATOM      4  C   UNL     1       5.154   1.596  -0.570  0.00  0.00    +0.000 A 
ATOM      5  N   UNL     1       6.258   1.504  -1.403  0.00  0.00    +0.000 N 
ATOM      6  C   UNL     1       6.222   0.928  -2.662  0.00  0.00    +0.000 C 
ATOM      7  O   UNL     1       5.254   0.405  -3.210  0.00  0.00    +0.000 OA
ATOM      8  N   UNL     1       3.939   1.158  -0.899  0.00  0.00    +0.000 NA
ATOM      9  H   UNL     1       7.118   1.925  -1.078  0.00  0.00    +0.000 HD
ENDROOT
BRANCH   1  13
ATOM     10  C   UNL     1      -1.015   0.658  -0.156  0.00  0.00    +0.000 A 
ATOM     11  C   UNL     1      -0.144   0.231  -1.164  0.00  0.00    +0.000 A 
ATOM     12  C   UNL     1       1.224   0.510  -1.072  0.00  0.00    +0.000 A 
ATOM     13  C   UNL     1       1.733   1.206   0.038  0.00  0.00    +0.000 A 
ATOM     14  C   UNL     1       0.850   1.617   1.038  0.00  0.00    +0.000 A 
ATOM     15  F   UNL     1       1.259   2.300   2.114  0.00  0.00    +0.000 F 
ATOM     16  C   UNL     1      -0.514   1.348   0.946  0.00  0.00    +0.000 A 
BRANCH  10  18
ATOM     17  N   UNL     1      -3.562   0.205  -0.322  0.00  0.00    +0.000 NA
ATOM     18  C   UNL     1      -2.421   0.401  -0.254  0.00  0.00    +0.000 C 
ENDBRANCH  10  18
ENDBRANCH   1  13
BRANCH   3  19
ATOM     19  C   UNL     1       6.209   2.681   1.495  0.00  0.00    +0.000 C 
ATOM     20  N   UNL     1       7.096   3.092   2.117  0.00  0.00    +0.000 NA
ENDBRANCH   3  19
BRANCH   6  21
ATOM     21  C   UNL     1       7.557   0.984  -3.386  0.00  0.00    +0.000 C 
BRANCH  21  22
ATOM     22  C   UNL     1       7.716   2.211  -4.250  0.00  0.00    +0.000 A 
ATOM     23  C   UNL     1       8.757   3.114  -4.011  0.00  0.00    +0.000 A 
ATOM     24  C   UNL     1       8.932   4.231  -4.832  0.00  0.00    +0.000 A 
ATOM     25  C   UNL     1       8.068   4.474  -5.910  0.00  0.00    +0.000 A 
ATOM     26  C   UNL     1       8.224   5.588  -6.745  0.00  0.00    +0.000 A 
ATOM     27  C   UNL     1       7.335   5.767  -7.793  0.00  0.00    +0.000 A 
ATOM     28  N   UNL     1       6.319   4.924  -8.068  0.00  0.00    +0.000 NA
ATOM     29  C   UNL     1       6.186   3.851  -7.252  0.00  0.00    +0.000 A 
ATOM     30  C   UNL     1       7.018   3.572  -6.162  0.00  0.00    +0.000 A 
ATOM     31  C   UNL     1       6.851   2.446  -5.332  0.00  0.00    +0.000 A 
ENDBRANCH  21  22
ENDBRANCH   6  21
TORSDOF 5
