REMARK  Name = 
REMARK  7 active torsions:
REMARK  status: ('A' for Active; 'I' for Inactive)
REMARK    1  A    between atoms: C_1  and  O_2
REMARK    2  A    between atoms: O_2  and  C_3
REMARK    3  A    between atoms: C_6  and  C_7
REMARK    4  A    between atoms: C_7  and  N_8
REMARK    5  A    between atoms: C_12  and  C_13
REMARK    6  A    between atoms: N_15  and  C_16
REMARK    7  A    between atoms: N_18  and  C_19
REMARK                            x       y       z     vdW  Elec       q    Type
REMARK                         _______ _______ _______ _____ _____    ______ ____
ROOT
ATOM      1  C   UNL     1       4.302  -6.974   3.006  0.00  0.00    +0.000 C 
ATOM      2  O   UNL     1       4.739  -6.092   3.738  0.00  0.00    +0.000 OA
ATOM      3  N   UNL     1       3.805  -8.191   3.470  0.00  0.00    +0.000 N 
ATOM      4  H   UNL     1       3.638  -8.872   2.737  0.00  0.00    +0.000 HD
ENDROOT
BRANCH   3   5
ATOM      5  C   UNL     1       3.722  -8.580   4.793  0.00  0.00    +0.000 A 
ATOM      6  C   UNL     1       3.702  -7.724   5.826  0.00  0.00    +0.000 A 
ATOM      7  N   UNL     1       3.709  -8.128   7.157  0.00  0.00    +0.000 N 
ATOM      8  C   UNL     1       3.761  -9.487   7.498  0.00  0.00    +0.000 A 
ATOM      9  O   UNL     1       3.877  -9.956   8.629  0.00  0.00    +0.000 OA
ATOM     10  C   UNL     1       3.711 -10.441   6.350  0.00  0.00    +0.000 A 
ATOM     11  C   UNL     1       3.667  -9.999   5.083  0.00  0.00    +0.000 A 
BRANCH   7  12
ATOM     12  C   UNL     1       3.763  -7.147   8.195  0.00  0.00    +0.000 A 
ATOM     13  C   UNL     1       4.655  -6.068   8.095  0.00  0.00    +0.000 A 
ATOM     14  C   UNL     1       4.706  -5.093   9.092  0.00  0.00    +0.000 A 
ATOM     15  C   UNL     1       3.838  -5.167  10.179  0.00  0.00    +0.000 A 
ATOM     16  C   UNL     1       2.938  -6.226  10.282  0.00  0.00    +0.000 A 
ATOM     17  C   UNL     1       2.912  -7.224   9.304  0.00  0.00    +0.000 A 
ENDBRANCH   7  12
ENDBRANCH   3   5
BRANCH   1  22
ATOM     18  N   UNL     1       4.860  -5.840   0.794  0.00  0.00    +0.000 N 
ATOM     19  C   UNL     1       4.739  -6.197  -0.527  0.00  0.00    +0.000 A 
ATOM     20  C   UNL     1       4.049  -7.381  -0.521  0.00  0.00    +0.000 A 
ATOM     21  N   UNL     1       3.822  -7.805   0.763  0.00  0.00    +0.000 NA
ATOM     22  C   UNL     1       4.325  -6.862   1.550  0.00  0.00    +0.000 A 
BRANCH  18  23
ATOM     23  C   UNL     1       5.472  -4.596   1.246  0.00  0.00    +0.000 C 
BRANCH  23  27
ATOM     24  C   UNL     1       2.468  -1.479   1.385  0.00  0.00    +0.000 A 
ATOM     25  C   UNL     1       2.800  -2.188   2.535  0.00  0.00    +0.000 A 
ATOM     26  C   UNL     1       3.788  -3.181   2.494  0.00  0.00    +0.000 A 
ATOM     27  C   UNL     1       4.458  -3.478   1.302  0.00  0.00    +0.000 A 
ATOM     28  C   UNL     1       4.137  -2.740   0.154  0.00  0.00    +0.000 A 
ATOM     29  C   UNL     1       3.151  -1.751   0.199  0.00  0.00    +0.000 A 
BRANCH  24  31
ATOM     30  C   UNL     1       0.737  -0.260   2.462  0.00  0.00    +0.000 C 
ATOM     31  O   UNL     1       1.505  -0.511   1.290  0.00  0.00    +0.000 OA
ENDBRANCH  24  31
ENDBRANCH  23  27
ENDBRANCH  18  23
ENDBRANCH   1  22
TORSDOF 6
