REMARK  Name = 
REMARK  8 active torsions:
REMARK  status: ('A' for Active; 'I' for Inactive)
REMARK    1  A    between atoms: C_2  and  C_3
REMARK    2  A    between atoms: C_3  and  C_4
REMARK    3  A    between atoms: C_4  and  C_5
REMARK    4  A    between atoms: N_9  and  C_10
REMARK    5  A    between atoms: N_16  and  C_17
REMARK    6  A    between atoms: C_17  and  C_18
REMARK    7  A    between atoms: C_20  and  O_21
REMARK    8  A    between atoms: O_21  and  C_22
REMARK                            x       y       z     vdW  Elec       q    Type
REMARK                         _______ _______ _______ _____ _____    ______ ____
ROOT
ATOM      1  O   UNL     1       2.599   1.032   0.296  0.00  0.00    +0.000 OA
ATOM      2  C   UNL     1       2.107   0.055  -0.260  0.00  0.00    +0.000 C 
ATOM      3  N   UNL     1       2.836  -1.028  -0.682  0.00  0.00    +0.000 N 
ATOM      4  H   UNL     1       2.391  -1.749  -1.236  0.00  0.00    +0.000 HD
ENDROOT
BRANCH   2   5
ATOM      5  C   UNL     1       0.627  -0.100  -0.519  0.00  0.00    +0.000 C 
BRANCH   5   6
ATOM      6  C   UNL     1      -0.087   1.250  -0.507  0.00  0.00    +0.000 C 
BRANCH   6   7
ATOM      7  C   UNL     1      -1.547   1.110  -0.805  0.00  0.00    +0.000 A 
ATOM      8  N   UNL     1      -2.150  -0.031  -1.088  0.00  0.00    +0.000 NA
ATOM      9  N   UNL     1      -3.500   0.174  -1.075  0.00  0.00    +0.000 NA
ATOM     10  C   UNL     1      -3.701   1.440  -0.797  0.00  0.00    +0.000 A 
ATOM     11  N   UNL     1      -2.506   2.106  -0.669  0.00  0.00    +0.000 N 
BRANCH  11  12
ATOM     12  C   UNL     1      -2.347   3.493  -0.411  0.00  0.00    +0.000 A 
ATOM     13  C   UNL     1      -3.330   4.186   0.309  0.00  0.00    +0.000 A 
ATOM     14  C   UNL     1      -3.134   5.529   0.644  0.00  0.00    +0.000 A 
ATOM     15  C   UNL     1      -1.978   6.192   0.237  0.00  0.00    +0.000 A 
ATOM     16  C   UNL     1      -1.030   5.526  -0.533  0.00  0.00    +0.000 A 
ATOM     17  C   UNL     1      -1.216   4.182  -0.863  0.00  0.00    +0.000 A 
ENDBRANCH  11  12
ENDBRANCH   6   7
ENDBRANCH   5   6
ENDBRANCH   2   5
BRANCH   3  18
ATOM     18  C   UNL     1       4.279  -1.069  -0.627  0.00  0.00    +0.000 C 
BRANCH  18  19
ATOM     19  C   UNL     1       4.883  -0.945  -2.007  0.00  0.00    +0.000 A 
ATOM     20  C   UNL     1       5.259   0.302  -2.499  0.00  0.00    +0.000 A 
ATOM     21  C   UNL     1       5.889   0.367  -3.742  0.00  0.00    +0.000 A 
ATOM     22  C   UNL     1       6.022  -0.790  -4.502  0.00  0.00    +0.000 A 
ATOM     23  C   UNL     1       5.570  -1.978  -3.961  0.00  0.00    +0.000 A 
ATOM     24  N   UNL     1       5.014  -2.083  -2.735  0.00  0.00    +0.000 NA
BRANCH  21  25
ATOM     25  O   UNL     1       6.356   1.524  -4.322  0.00  0.00    +0.000 OA
BRANCH  25  26
ATOM     26  C   UNL     1       6.867   2.530  -3.531  0.00  0.00    +0.000 A 
ATOM     27  C   UNL     1       7.570   2.320  -2.344  0.00  0.00    +0.000 A 
ATOM     28  C   UNL     1       8.000   3.414  -1.603  0.00  0.00    +0.000 A 
ATOM     29  F   UNL     1       8.614   3.211  -0.430  0.00  0.00    +0.000 F 
ATOM     30  C   UNL     1       7.797   4.713  -2.054  0.00  0.00    +0.000 A 
ATOM     31  C   UNL     1       7.162   4.924  -3.276  0.00  0.00    +0.000 A 
ATOM     32  C   UNL     1       6.698   3.832  -4.014  0.00  0.00    +0.000 A 
ENDBRANCH  25  26
ENDBRANCH  21  25
ENDBRANCH  18  19
ENDBRANCH   3  18
TORSDOF 8
