REMARK  Name = 
REMARK  7 active torsions:
REMARK  status: ('A' for Active; 'I' for Inactive)
REMARK    1  A    between atoms: C_2  and  C_18
REMARK    2  A    between atoms: N_3  and  C_4
REMARK    3  A    between atoms: C_8  and  O_9
REMARK    4  A    between atoms: O_9  and  C_10
REMARK    5  A    between atoms: C_10  and  C_11
REMARK    6  A    between atoms: N_22  and  C_23
REMARK    7  A    between atoms: C_26  and  O_27
REMARK                            x       y       z     vdW  Elec       q    Type
REMARK                         _______ _______ _______ _____ _____    ______ ____
ROOT
ATOM      1  O   UNL     1       1.203  -0.656  -0.477  0.00  0.00    +0.000 OA
ATOM      2  C   UNL     1       2.247  -0.160  -0.079  0.00  0.00    +0.000 C 
ATOM      3  N   UNL     1       2.784  -0.339   1.184  0.00  0.00    +0.000 N 
ATOM      4  H   UNL     1       3.620   0.188   1.402  0.00  0.00    +0.000 HD
ENDROOT
BRANCH   3   5
ATOM      5  C   UNL     1       2.209  -1.071   2.246  0.00  0.00    +0.000 A 
ATOM      6  C   UNL     1       1.086  -1.889   2.113  0.00  0.00    +0.000 A 
ATOM      7  C   UNL     1       0.546  -2.541   3.224  0.00  0.00    +0.000 A 
ATOM      8  C   UNL     1       1.143  -2.400   4.473  0.00  0.00    +0.000 A 
ATOM      9  C   UNL     1       2.293  -1.627   4.610  0.00  0.00    +0.000 A 
ATOM     10  C   UNL     1       2.810  -0.945   3.503  0.00  0.00    +0.000 A 
BRANCH   9  11
ATOM     11  O   UNL     1       2.830  -1.587   5.868  0.00  0.00    +0.000 OA
BRANCH  11  12
ATOM     12  C   UNL     1       4.239  -1.334   5.910  0.00  0.00    +0.000 C 
BRANCH  12  13
ATOM     13  C   UNL     1       4.864  -1.870   7.177  0.00  0.00    +0.000 A 
ATOM     14  C   UNL     1       4.338  -2.986   7.826  0.00  0.00    +0.000 A 
ATOM     15  C   UNL     1       4.999  -3.488   8.943  0.00  0.00    +0.000 A 
ATOM     16  C   UNL     1       6.170  -2.878   9.372  0.00  0.00    +0.000 A 
ATOM     17  C   UNL     1       6.635  -1.783   8.665  0.00  0.00    +0.000 A 
ATOM     18  N   UNL     1       6.014  -1.270   7.581  0.00  0.00    +0.000 NA
ENDBRANCH  12  13
ENDBRANCH  11  12
ENDBRANCH   9  11
ENDBRANCH   3   5
BRANCH   2  19
ATOM     19  C   UNL     1       3.018   0.733  -0.905  0.00  0.00    +0.000 A 
ATOM     20  C   UNL     1       4.381   0.707  -1.137  0.00  0.00    +0.000 A 
ATOM     21  N   UNL     1       4.742   1.593  -2.107  0.00  0.00    +0.000 NA
ATOM     22  C   UNL     1       3.616   2.152  -2.485  0.00  0.00    +0.000 A 
ATOM     23  N   UNL     1       2.523   1.710  -1.764  0.00  0.00    +0.000 N 
BRANCH  23  24
ATOM     24  C   UNL     1       1.196   2.224  -1.883  0.00  0.00    +0.000 A 
ATOM     25  C   UNL     1       0.775   2.812  -3.087  0.00  0.00    +0.000 A 
ATOM     26  C   UNL     1      -0.529   3.305  -3.217  0.00  0.00    +0.000 A 
ATOM     27  C   UNL     1      -1.406   3.223  -2.142  0.00  0.00    +0.000 A 
ATOM     28  C   UNL     1      -1.000   2.663  -0.940  0.00  0.00    +0.000 A 
ATOM     29  C   UNL     1       0.300   2.170  -0.805  0.00  0.00    +0.000 A 
BRANCH  27  30
ATOM     30  O   UNL     1      -2.684   3.688  -2.224  0.00  0.00    +0.000 OA
ATOM     31  H   UNL     1      -2.831   4.043  -3.116  0.00  0.00    +0.000 HD
ENDBRANCH  27  30
ENDBRANCH  23  24
ENDBRANCH   2  19
TORSDOF 7
