REMARK  Name = 
REMARK  5 active torsions:
REMARK  status: ('A' for Active; 'I' for Inactive)
REMARK    1  A    between atoms: C_2  and  C_17
REMARK    2  A    between atoms: N_3  and  C_4
REMARK    3  A    between atoms: C_10  and  C_11
REMARK    4  A    between atoms: C_21  and  O_22
REMARK    5  A    between atoms: O_22  and  C_23
REMARK                            x       y       z     vdW  Elec       q    Type
REMARK                         _______ _______ _______ _____ _____    ______ ____
ROOT
ATOM      1  O   UNL     1       0.874   0.088  -0.311  0.00  0.00    +0.000 OA
ATOM      2  C   UNL     1       2.095   0.048  -0.184  0.00  0.00    +0.000 C 
ATOM      3  N   UNL     1       2.847   0.904   0.607  0.00  0.00    +0.000 N 
ATOM      4  H   UNL     1       3.803   0.599   0.793  0.00  0.00    +0.000 HD
ENDROOT
BRANCH   3   5
ATOM      5  C   UNL     1       2.248   1.875   1.436  0.00  0.00    +0.000 A 
ATOM      6  C   UNL     1       1.334   2.775   0.871  0.00  0.00    +0.000 A 
ATOM      7  C   UNL     1       0.754   3.765   1.656  0.00  0.00    +0.000 A 
ATOM      8  F   UNL     1      -0.083   4.647   1.094  0.00  0.00    +0.000 F 
ATOM      9  C   UNL     1       1.040   3.863   3.010  0.00  0.00    +0.000 A 
ATOM     10  C   UNL     1       1.950   2.974   3.584  0.00  0.00    +0.000 A 
ATOM     11  C   UNL     1       2.575   1.988   2.800  0.00  0.00    +0.000 A 
BRANCH  11  12
ATOM     12  C   UNL     1       3.504   1.075   3.491  0.00  0.00    +0.000 A 
ATOM     13  N   UNL     1       4.199   1.380   4.549  0.00  0.00    +0.000 NA
ATOM     14  N   UNL     1       4.902   0.235   4.825  0.00  0.00    +0.000 N 
ATOM     15  C   UNL     1       4.593  -0.762   3.911  0.00  0.00    +0.000 A 
ATOM     16  O   UNL     1       5.033  -1.895   3.872  0.00  0.00    +0.000 OA
ATOM     17  N   UNL     1       3.688  -0.201   3.065  0.00  0.00    +0.000 N 
ATOM     18  H   UNL     1       5.544   0.157   5.599  0.00  0.00    +0.000 HD
ATOM     19  H   UNL     1       3.231  -0.705   2.323  0.00  0.00    +0.000 HD
ENDBRANCH  11  12
ENDBRANCH   3   5
BRANCH   2  20
ATOM     20  C   UNL     1       2.884  -1.046  -0.826  0.00  0.00    +0.000 A 
ATOM     21  C   UNL     1       2.254  -1.971  -1.648  0.00  0.00    +0.000 A 
ATOM     22  C   UNL     1       3.032  -2.964  -2.232  0.00  0.00    +0.000 A 
ATOM     23  C   UNL     1       4.402  -2.987  -1.987  0.00  0.00    +0.000 A 
ATOM     24  C   UNL     1       4.941  -2.010  -1.162  0.00  0.00    +0.000 A 
ATOM     25  N   UNL     1       4.209  -1.058  -0.539  0.00  0.00    +0.000 NA
BRANCH  24  26
ATOM     26  O   UNL     1       6.318  -2.033  -0.984  0.00  0.00    +0.000 OA
BRANCH  26  27
ATOM     27  C   UNL     1       6.947  -0.817  -0.827  0.00  0.00    +0.000 A 
ATOM     28  C   UNL     1       8.006  -0.765   0.079  0.00  0.00    +0.000 A 
ATOM     29  C   UNL     1       8.690   0.434   0.286  0.00  0.00    +0.000 A 
ATOM     30  C   UNL     1       8.322   1.580  -0.424  0.00  0.00    +0.000 A 
ATOM     31  C   UNL     1       7.288   1.519  -1.355  0.00  0.00    +0.000 A 
ATOM     32  C   UNL     1       6.612   0.319  -1.573  0.00  0.00    +0.000 A 
ENDBRANCH  26  27
ENDBRANCH  24  26
ENDBRANCH   2  20
TORSDOF 5
