REMARK  Name = 
REMARK  4 active torsions:
REMARK  status: ('A' for Active; 'I' for Inactive)
REMARK    1  A    between atoms: C_2  and  C_17
REMARK    2  A    between atoms: N_3  and  C_4
REMARK    3  A    between atoms: C_4  and  C_5
REMARK    4  A    between atoms: C_8  and  C_9
REMARK                            x       y       z     vdW  Elec       q    Type
REMARK                         _______ _______ _______ _____ _____    ______ ____
ROOT
ATOM      1  O   UNL     1       3.083  -1.289   1.589  0.00  0.00    +0.000 OA
ATOM      2  C   UNL     1       3.730  -0.448   0.991  0.00  0.00    +0.000 C 
ATOM      3  N   UNL     1       3.437   0.904   0.946  0.00  0.00    +0.000 N 
ATOM      4  H   UNL     1       4.020   1.539   0.415  0.00  0.00    +0.000 HD
ENDROOT
BRANCH   2   5
ATOM      5  C   UNL     1       4.927  -0.804   0.199  0.00  0.00    +0.000 A 
ATOM      6  C   UNL     1       4.965  -1.873  -0.675  0.00  0.00    +0.000 A 
ATOM      7  N   UNL     1       5.929  -2.003  -1.634  0.00  0.00    +0.000 NA
ATOM      8  C   UNL     1       6.812  -0.977  -1.811  0.00  0.00    +0.000 A 
ATOM      9  C   UNL     1       7.725  -0.894  -2.872  0.00  0.00    +0.000 A 
ATOM     10  F   UNL     1       7.861  -1.925  -3.721  0.00  0.00    +0.000 F 
ATOM     11  C   UNL     1       8.490   0.255  -3.120  0.00  0.00    +0.000 A 
ATOM     12  C   UNL     1       8.368   1.366  -2.300  0.00  0.00    +0.000 A 
ATOM     13  C   UNL     1       7.544   1.275  -1.191  0.00  0.00    +0.000 A 
ATOM     14  F   UNL     1       7.379   2.360  -0.419  0.00  0.00    +0.000 F 
ATOM     15  C   UNL     1       6.805   0.122  -0.934  0.00  0.00    +0.000 A 
ATOM     16  C   UNL     1       5.962   0.113   0.162  0.00  0.00    +0.000 A 
ENDBRANCH   2   5
BRANCH   3  17
ATOM     17  C   UNL     1       2.460   1.566   1.780  0.00  0.00    +0.000 C 
BRANCH  17  18
ATOM     18  C   UNL     1       3.171   2.442   2.785  0.00  0.00    +0.000 A 
ATOM     19  C   UNL     1       3.483   1.961   4.043  0.00  0.00    +0.000 A 
ATOM     20  N   UNL     1       4.272   2.635   4.918  0.00  0.00    +0.000 NA
ATOM     21  C   UNL     1       4.757   3.835   4.497  0.00  0.00    +0.000 A 
ATOM     22  C   UNL     1       4.414   4.322   3.238  0.00  0.00    +0.000 A 
ATOM     23  N   UNL     1       3.634   3.651   2.354  0.00  0.00    +0.000 NA
BRANCH  21  24
ATOM     24  C   UNL     1       5.721   4.505   5.386  0.00  0.00    +0.000 A 
ATOM     25  C   UNL     1       6.588   3.747   6.196  0.00  0.00    +0.000 A 
ATOM     26  C   UNL     1       7.568   4.354   6.987  0.00  0.00    +0.000 A 
ATOM     27  C   UNL     1       7.695   5.738   6.988  0.00  0.00    +0.000 A 
ATOM     28  C   UNL     1       6.834   6.516   6.219  0.00  0.00    +0.000 A 
ATOM     29  C   UNL     1       5.854   5.906   5.430  0.00  0.00    +0.000 A 
ENDBRANCH  21  24
ENDBRANCH  17  18
ENDBRANCH   3  17
TORSDOF 4
