REMARK  Name = 
REMARK  8 active torsions:
REMARK  status: ('A' for Active; 'I' for Inactive)
REMARK    1  A    between atoms: C_2  and  C_3
REMARK    2  A    between atoms: C_3  and  C_4
REMARK    3  A    between atoms: C_8  and  O_9
REMARK    4  A    between atoms: O_9  and  C_10
REMARK    5  A    between atoms: C_10  and  C_11
REMARK    6  A    between atoms: N_18  and  C_19
REMARK    7  A    between atoms: C_19  and  C_20
REMARK    8  A    between atoms: C_21  and  C_22
REMARK                            x       y       z     vdW  Elec       q    Type
REMARK                         _______ _______ _______ _____ _____    ______ ____
ROOT
ATOM      1  O   UNL     1       1.814   0.626   0.949  0.00  0.00    +0.000 OA
ATOM      2  C   UNL     1       2.445   0.024   0.082  0.00  0.00    +0.000 C 
ATOM      3  N   UNL     1       2.527  -1.349   0.041  0.00  0.00    +0.000 N 
ATOM      4  H   UNL     1       3.256  -1.780  -0.512  0.00  0.00    +0.000 HD
ENDROOT
BRANCH   3   5
ATOM      5  C   UNL     1       1.960  -2.162   1.093  0.00  0.00    +0.000 C 
BRANCH   5   6
ATOM      6  C   UNL     1       3.030  -2.771   1.929  0.00  0.00    +0.000 A 
ATOM      7  C   UNL     1       2.894  -3.712   2.939  0.00  0.00    +0.000 A 
ATOM      8  O   UNL     1       4.154  -4.003   3.395  0.00  0.00    +0.000 OA
ATOM      9  C   UNL     1       4.975  -3.228   2.637  0.00  0.00    +0.000 A 
ATOM     10  N   UNL     1       4.373  -2.490   1.734  0.00  0.00    +0.000 NA
BRANCH   7  11
ATOM     11  C   UNL     1       1.785  -4.441   3.545  0.00  0.00    +0.000 A 
ATOM     12  C   UNL     1       1.987  -5.698   4.133  0.00  0.00    +0.000 A 
ATOM     13  C   UNL     1       0.908  -6.442   4.623  0.00  0.00    +0.000 A 
ATOM     14  C   UNL     1      -0.387  -5.937   4.536  0.00  0.00    +0.000 A 
ATOM     15  C   UNL     1      -0.602  -4.678   3.986  0.00  0.00    +0.000 A 
ATOM     16  C   UNL     1       0.478  -3.933   3.505  0.00  0.00    +0.000 A 
ENDBRANCH   7  11
ENDBRANCH   5   6
ENDBRANCH   3   5
BRANCH   2  17
ATOM     17  C   UNL     1       3.099   0.738  -1.098  0.00  0.00    +0.000 C 
BRANCH  17  18
ATOM     18  C   UNL     1       2.126   1.345  -2.092  0.00  0.00    +0.000 A 
ATOM     19  C   UNL     1       2.602   2.013  -3.228  0.00  0.00    +0.000 A 
ATOM     20  C   UNL     1       1.710   2.534  -4.173  0.00  0.00    +0.000 A 
ATOM     21  C   UNL     1       0.333   2.362  -4.016  0.00  0.00    +0.000 A 
ATOM     22  C   UNL     1      -0.152   1.675  -2.909  0.00  0.00    +0.000 A 
ATOM     23  C   UNL     1       0.740   1.227  -1.932  0.00  0.00    +0.000 A 
BRANCH  22  24
ATOM     24  O   UNL     1      -1.504   1.450  -2.856  0.00  0.00    +0.000 OA
BRANCH  24  25
ATOM     25  C   UNL     1      -1.871   0.329  -2.042  0.00  0.00    +0.000 C 
BRANCH  25  26
ATOM     26  C   UNL     1      -3.208  -0.192  -2.470  0.00  0.00    +0.000 A 
ATOM     27  C   UNL     1      -4.373   0.552  -2.294  0.00  0.00    +0.000 A 
ATOM     28  C   UNL     1      -5.590   0.018  -2.699  0.00  0.00    +0.000 A 
ATOM     29  C   UNL     1      -5.598  -1.248  -3.262  0.00  0.00    +0.000 A 
ATOM     30  N   UNL     1      -4.492  -2.001  -3.440  0.00  0.00    +0.000 NA
ATOM     31  C   UNL     1      -3.324  -1.455  -3.045  0.00  0.00    +0.000 A 
ENDBRANCH  25  26
ENDBRANCH  24  25
ENDBRANCH  22  24
ENDBRANCH  17  18
ENDBRANCH   2  17
TORSDOF 8
