REMARK  Name = 
REMARK  9 active torsions:
REMARK  status: ('A' for Active; 'I' for Inactive)
REMARK    1  A    between atoms: C_2  and  C_3
REMARK    2  A    between atoms: C_2  and  O_18
REMARK    3  A    between atoms: C_3  and  O_4
REMARK    4  A    between atoms: O_4  and  C_5
REMARK    5  A    between atoms: C_9  and  O_10
REMARK    6  A    between atoms: O_10  and  C_11
REMARK    7  A    between atoms: O_18  and  C_19
REMARK    8  A    between atoms: C_19  and  C_20
REMARK    9  A    between atoms: C_22  and  C_23
REMARK                            x       y       z     vdW  Elec       q    Type
REMARK                         _______ _______ _______ _____ _____    ______ ____
ROOT
ATOM      1  O   UNL     1       1.912  -1.327   0.195  0.00  0.00    +0.000 OA
ATOM      2  C   UNL     1       2.124  -0.124   0.119  0.00  0.00    +0.000 C 
ENDROOT
BRANCH   2   3
ATOM      3  O   UNL     1       1.683   0.687  -0.880  0.00  0.00    +0.000 OA
BRANCH   3   4
ATOM      4  C   UNL     1       0.916   0.061  -1.914  0.00  0.00    +0.000 C 
BRANCH   4   5
ATOM      5  C   UNL     1      -0.390   0.757  -1.949  0.00  0.00    +0.000 A 
ATOM      6  C   UNL     1      -1.028   1.488  -2.925  0.00  0.00    +0.000 A 
ATOM      7  C   UNL     1      -2.263   1.900  -2.356  0.00  0.00    +0.000 A 
ATOM      8  N   UNL     1      -2.373   1.451  -1.096  0.00  0.00    +0.000 NA
ATOM      9  N   UNL     1      -1.244   0.757  -0.883  0.00  0.00    +0.000 N 
ATOM     10  H   UNL     1      -1.114   0.315   0.022  0.00  0.00    +0.000 HD
BRANCH   7  11
ATOM     11  C   UNL     1      -3.313   2.700  -2.982  0.00  0.00    +0.000 A 
ATOM     12  C   UNL     1      -3.542   2.626  -4.358  0.00  0.00    +0.000 A 
ATOM     13  C   UNL     1      -4.542   3.413  -4.901  0.00  0.00    +0.000 A 
ATOM     14  N   UNL     1      -5.309   4.259  -4.182  0.00  0.00    +0.000 NA
ATOM     15  C   UNL     1      -5.074   4.308  -2.853  0.00  0.00    +0.000 A 
ATOM     16  C   UNL     1      -4.105   3.556  -2.213  0.00  0.00    +0.000 A 
ENDBRANCH   7  11
ENDBRANCH   4   5
ENDBRANCH   3   4
ENDBRANCH   2   3
BRANCH   2  17
ATOM     17  C   UNL     1       2.905   0.671   1.148  0.00  0.00    +0.000 C 
BRANCH  17  18
ATOM     18  O   UNL     1       2.014   1.207   2.119  0.00  0.00    +0.000 OA
BRANCH  18  19
ATOM     19  C   UNL     1       2.586   1.901   3.154  0.00  0.00    +0.000 A 
ATOM     20  C   UNL     1       3.956   2.108   3.332  0.00  0.00    +0.000 A 
ATOM     21  C   UNL     1       4.424   2.809   4.445  0.00  0.00    +0.000 A 
ATOM     22  C   UNL     1       3.526   3.320   5.378  0.00  0.00    +0.000 A 
ATOM     23  C   UNL     1       2.151   3.174   5.178  0.00  0.00    +0.000 A 
ATOM     24  C   UNL     1       1.687   2.433   4.087  0.00  0.00    +0.000 A 
BRANCH  23  25
ATOM     25  O   UNL     1       1.205   3.670   6.051  0.00  0.00    +0.000 OA
BRANCH  25  26
ATOM     26  C   UNL     1       1.429   4.924   6.615  0.00  0.00    +0.000 A 
ATOM     27  C   UNL     1       0.796   5.186   7.822  0.00  0.00    +0.000 A 
ATOM     28  C   UNL     1       1.021   6.419   8.431  0.00  0.00    +0.000 A 
ATOM     29  C   UNL     1       1.859   7.343   7.814  0.00  0.00    +0.000 A 
ATOM     30  C   UNL     1       2.424   7.003   6.597  0.00  0.00    +0.000 A 
ATOM     31  N   UNL     1       2.216   5.823   5.979  0.00  0.00    +0.000 NA
ENDBRANCH  25  26
ENDBRANCH  23  25
ENDBRANCH  18  19
ENDBRANCH  17  18
ENDBRANCH   2  17
TORSDOF 9
