REMARK  Name = 
REMARK  7 active torsions:
REMARK  status: ('A' for Active; 'I' for Inactive)
REMARK    1  A    between atoms: C_2  and  C_3
REMARK    2  A    between atoms: C_3  and  C_4
REMARK    3  A    between atoms: C_4  and  O_5
REMARK    4  A    between atoms: C_4  and  C_6
REMARK    5  A    between atoms: C_6  and  C_7
REMARK    6  A    between atoms: N_13  and  C_14
REMARK    7  A    between atoms: N_20  and  C_21
REMARK                            x       y       z     vdW  Elec       q    Type
REMARK                         _______ _______ _______ _____ _____    ______ ____
ROOT
ATOM      1  C   UNL     1       4.828   0.437  -1.452  0.00  0.00    +0.000 A 
ATOM      2  C   UNL     1       4.745  -0.854  -0.920  0.00  0.00    +0.000 A 
ATOM      3  C   UNL     1       5.839  -1.427  -0.292  0.00  0.00    +0.000 A 
ATOM      4  C   UNL     1       7.060  -0.779  -0.298  0.00  0.00    +0.000 A 
ATOM      5  N   UNL     1       8.041  -1.232   0.584  0.00  0.00    +0.000 NA
ATOM      6  C   UNL     1       9.252  -1.009   0.216  0.00  0.00    +0.000 A 
ATOM      7  N   UNL     1       9.606  -0.399  -0.972  0.00  0.00    +0.000 N 
ATOM      8  C   UNL     1       8.705   0.500  -1.579  0.00  0.00    +0.000 A 
ATOM      9  O   UNL     1       8.976   1.333  -2.444  0.00  0.00    +0.000 OA
ATOM     10  C   UNL     1       7.252   0.314  -1.139  0.00  0.00    +0.000 A 
ATOM     11  C   UNL     1       6.115   1.002  -1.632  0.00  0.00    +0.000 A 
ENDROOT
BRANCH   7  12
ATOM     12  C   UNL     1      10.671  -1.062  -1.676  0.00  0.00    +0.000 A 
ATOM     13  C   UNL     1      11.550  -0.418  -2.538  0.00  0.00    +0.000 A 
ATOM     14  C   UNL     1      12.504  -1.166  -3.250  0.00  0.00    +0.000 A 
ATOM     15  C   UNL     1      12.568  -2.559  -3.135  0.00  0.00    +0.000 A 
ATOM     16  C   UNL     1      11.719  -3.213  -2.258  0.00  0.00    +0.000 A 
ATOM     17  C   UNL     1      10.797  -2.470  -1.525  0.00  0.00    +0.000 A 
ENDBRANCH   7  12
BRANCH   1  20
ATOM     18  O   UNL     1       2.331  -0.607  -2.446  0.00  0.00    +0.000 OA
ATOM     19  C   UNL     1       2.399   0.516  -1.933  0.00  0.00    +0.000 C 
ATOM     20  N   UNL     1       3.605   1.149  -1.671  0.00  0.00    +0.000 N 
ATOM     21  H   UNL     1       3.592   2.151  -1.485  0.00  0.00    +0.000 HD
BRANCH  19  22
ATOM     22  C   UNL     1       1.082   1.253  -1.705  0.00  0.00    +0.000 C 
BRANCH  22  23
ATOM     23  C   UNL     1       0.983   2.333  -0.629  0.00  0.00    +0.000 C 
BRANCH  23  24
ATOM     24  O   UNL     1       1.883   3.384  -0.992  0.00  0.00    +0.000 OA
ATOM     25  H   UNL     1       1.397   4.009  -1.560  0.00  0.00    +0.000 HD
ENDBRANCH  23  24
BRANCH  23  26
ATOM     26  C   UNL     1      -0.487   2.846  -0.557  0.00  0.00    +0.000 C 
BRANCH  26  27
ATOM     27  C   UNL     1      -0.772   3.950   0.440  0.00  0.00    +0.000 A 
ATOM     28  C   UNL     1      -1.247   5.199   0.002  0.00  0.00    +0.000 A 
ATOM     29  C   UNL     1      -1.556   6.210   0.916  0.00  0.00    +0.000 A 
ATOM     30  C   UNL     1      -1.407   5.984   2.281  0.00  0.00    +0.000 A 
ATOM     31  C   UNL     1      -0.955   4.745   2.732  0.00  0.00    +0.000 A 
ATOM     32  C   UNL     1      -0.642   3.733   1.817  0.00  0.00    +0.000 A 
ENDBRANCH  26  27
ENDBRANCH  23  26
ENDBRANCH  22  23
ENDBRANCH  19  22
ENDBRANCH   1  20
TORSDOF 7
