REMARK  Name = 
REMARK  4 active torsions:
REMARK  status: ('A' for Active; 'I' for Inactive)
REMARK    1  A    between atoms: C_2  and  C_3
REMARK    2  A    between atoms: C_9  and  C_10
REMARK    3  A    between atoms: N_12  and  C_13
REMARK    4  A    between atoms: C_16  and  N_17
REMARK                            x       y       z     vdW  Elec       q    Type
REMARK                         _______ _______ _______ _____ _____    ______ ____
ROOT
ATOM      1  C   UNL     1       8.589   1.292  -0.577  0.00  0.00    +0.000 C 
ATOM      2  O   UNL     1       9.626   1.227  -1.234  0.00  0.00    +0.000 OA
ATOM      3  N   UNL     1       8.105   2.440   0.029  0.00  0.00    +0.000 N 
ATOM      4  H   UNL     1       7.349   2.388   0.701  0.00  0.00    +0.000 HD
ENDROOT
BRANCH   1  11
ATOM      5  C   UNL     1       7.862  -2.403  -0.828  0.00  0.00    +0.000 A 
ATOM      6  C   UNL     1       6.609  -2.500  -0.239  0.00  0.00    +0.000 A 
ATOM      7  F   UNL     1       5.992  -3.688  -0.140  0.00  0.00    +0.000 F 
ATOM      8  C   UNL     1       5.980  -1.357   0.249  0.00  0.00    +0.000 A 
ATOM      9  F   UNL     1       4.766  -1.457   0.807  0.00  0.00    +0.000 F 
ATOM     10  C   UNL     1       6.582  -0.100   0.168  0.00  0.00    +0.000 A 
ATOM     11  C   UNL     1       7.846   0.011  -0.411  0.00  0.00    +0.000 A 
ATOM     12  C   UNL     1       8.475  -1.152  -0.913  0.00  0.00    +0.000 A 
BRANCH   5  14
ATOM     13  N   UNL     1       9.069  -4.496  -1.766  0.00  0.00    +0.000 NA
ATOM     14  C   UNL     1       8.514  -3.568  -1.342  0.00  0.00    +0.000 C 
ENDBRANCH   5  14
ENDBRANCH   1  11
BRANCH   3  15
ATOM     15  C   UNL     1       8.710   3.722  -0.088  0.00  0.00    +0.000 A 
ATOM     16  C   UNL     1       9.694   4.009  -1.033  0.00  0.00    +0.000 A 
ATOM     17  C   UNL     1      10.311   5.258  -1.065  0.00  0.00    +0.000 A 
ATOM     18  C   UNL     1       9.928   6.271  -0.182  0.00  0.00    +0.000 A 
ATOM     19  C   UNL     1       8.899   6.017   0.732  0.00  0.00    +0.000 A 
ATOM     20  C   UNL     1       8.310   4.749   0.777  0.00  0.00    +0.000 A 
ATOM     21  F   UNL     1       7.363   4.504   1.698  0.00  0.00    +0.000 F 
BRANCH  18  22
ATOM     22  N   UNL     1      10.605   7.528  -0.243  0.00  0.00    +0.000 N 
ATOM     23  C   UNL     1      11.993   7.566  -0.349  0.00  0.00    +0.000 A 
ATOM     24  C   UNL     1      12.666   8.713  -0.490  0.00  0.00    +0.000 A 
ATOM     25  C   UNL     1      11.950   9.958  -0.551  0.00  0.00    +0.000 A 
ATOM     26  C   UNL     1      10.616   9.975  -0.457  0.00  0.00    +0.000 A 
ATOM     27  C   UNL     1       9.842   8.709  -0.294  0.00  0.00    +0.000 A 
ATOM     28  O   UNL     1       8.615   8.781  -0.268  0.00  0.00    +0.000 OA
ENDBRANCH  18  22
ENDBRANCH   3  15
TORSDOF 4
