REMARK  Name = 
REMARK  7 active torsions:
REMARK  status: ('A' for Active; 'I' for Inactive)
REMARK    1  A    between atoms: C_2  and  C_3
REMARK    2  A    between atoms: C_5  and  O_6
REMARK    3  A    between atoms: O_6  and  C_7
REMARK    4  A    between atoms: C_12  and  N_13
REMARK    5  A    between atoms: C_14  and  C_16
REMARK    6  A    between atoms: C_16  and  C_17
REMARK    7  A    between atoms: C_20  and  C_21
REMARK                            x       y       z     vdW  Elec       q    Type
REMARK                         _______ _______ _______ _____ _____    ______ ____
ROOT
ATOM      1  N   UNL     1       2.259  -4.008   2.187  0.00  0.00    +0.000 N 
ATOM      2  C   UNL     1       3.087  -2.920   2.464  0.00  0.00    +0.000 C 
ATOM      3  O   UNL     1       3.360  -1.998   1.696  0.00  0.00    +0.000 OA
ATOM      4  H   UNL     1       2.118  -4.701   2.913  0.00  0.00    +0.000 HD
ENDROOT
BRANCH   1  10
ATOM      5  C   UNL     1       0.892  -5.487   0.747  0.00  0.00    +0.000 A 
ATOM      6  C   UNL     1       0.502  -5.879  -0.550  0.00  0.00    +0.000 A 
ATOM      7  C   UNL     1       0.734  -5.056  -1.647  0.00  0.00    +0.000 A 
ATOM      8  C   UNL     1       1.413  -3.862  -1.468  0.00  0.00    +0.000 A 
ATOM      9  C   UNL     1       1.897  -3.515  -0.205  0.00  0.00    +0.000 A 
ATOM     10  C   UNL     1       1.678  -4.322   0.918  0.00  0.00    +0.000 A 
BRANCH   5  11
ATOM     11  O   UNL     1       0.544  -6.252   1.853  0.00  0.00    +0.000 OA
BRANCH  11  14
ATOM     12  C   UNL     1      -3.030  -7.169   1.276  0.00  0.00    +0.000 A 
ATOM     13  C   UNL     1      -1.849  -6.411   1.285  0.00  0.00    +0.000 A 
ATOM     14  C   UNL     1      -0.668  -6.933   1.838  0.00  0.00    +0.000 A 
ATOM     15  C   UNL     1      -0.702  -8.194   2.441  0.00  0.00    +0.000 A 
ATOM     16  C   UNL     1      -1.887  -8.941   2.457  0.00  0.00    +0.000 A 
ATOM     17  C   UNL     1      -3.047  -8.435   1.868  0.00  0.00    +0.000 A 
BRANCH  12  19
ATOM     18  N   UNL     1      -5.164  -6.242   0.130  0.00  0.00    +0.000 NA
ATOM     19  C   UNL     1      -4.212  -6.654   0.644  0.00  0.00    +0.000 C 
ENDBRANCH  12  19
ENDBRANCH  11  14
ENDBRANCH   5  11
ENDBRANCH   1  10
BRANCH   2  20
ATOM     20  C   UNL     1       3.725  -2.929   3.846  0.00  0.00    +0.000 C 
BRANCH  20  21
ATOM     21  C   UNL     1       5.067  -3.624   3.850  0.00  0.00    +0.000 A 
ATOM     22  C   UNL     1       6.116  -3.163   3.040  0.00  0.00    +0.000 A 
ATOM     23  C   UNL     1       7.331  -3.853   2.984  0.00  0.00    +0.000 A 
ATOM     24  C   UNL     1       7.528  -5.010   3.748  0.00  0.00    +0.000 A 
ATOM     25  C   UNL     1       6.502  -5.430   4.605  0.00  0.00    +0.000 A 
ATOM     26  C   UNL     1       5.283  -4.746   4.656  0.00  0.00    +0.000 A 
BRANCH  24  27
ATOM     27  C   UNL     1       8.762  -5.782   3.659  0.00  0.00    +0.000 A 
ATOM     28  N   UNL     1       9.283  -6.592   4.560  0.00  0.00    +0.000 NA
ATOM     29  N   UNL     1      10.432  -7.106   4.007  0.00  0.00    +0.000 NA
ATOM     30  N   UNL     1      10.613  -6.648   2.778  0.00  0.00    +0.000 NA
ATOM     31  N   UNL     1       9.574  -5.835   2.558  0.00  0.00    +0.000 N 
ATOM     32  H   UNL     1       9.469  -5.389   1.656  0.00  0.00    +0.000 HD
ENDBRANCH  24  27
ENDBRANCH  20  21
ENDBRANCH   2  20
TORSDOF 7
