REMARK  Name = 
REMARK  4 active torsions:
REMARK  status: ('A' for Active; 'I' for Inactive)
REMARK    1  A    between atoms: C_2  and  C_15
REMARK    2  A    between atoms: N_3  and  C_4
REMARK    3  A    between atoms: C_16  and  C_17
REMARK    4  A    between atoms: C_21  and  C_22
REMARK                            x       y       z     vdW  Elec       q    Type
REMARK                         _______ _______ _______ _____ _____    ______ ____
ROOT
ATOM      1  O   UNL     1       1.009   0.221  -0.238  0.00  0.00    +0.000 OA
ATOM      2  C   UNL     1       2.219   0.048  -0.143  0.00  0.00    +0.000 C 
ATOM      3  N   UNL     1       2.919  -0.990  -0.747  0.00  0.00    +0.000 N 
ATOM      4  H   UNL     1       3.892  -1.103  -0.486  0.00  0.00    +0.000 HD
ENDROOT
BRANCH   3   5
ATOM      5  C   UNL     1       2.344  -2.007  -1.552  0.00  0.00    +0.000 A 
ATOM      6  C   UNL     1       1.058  -1.903  -2.098  0.00  0.00    +0.000 A 
ATOM      7  C   UNL     1       0.501  -2.944  -2.840  0.00  0.00    +0.000 A 
ATOM      8  C   UNL     1       1.240  -4.105  -3.043  0.00  0.00    +0.000 A 
ATOM      9  C   UNL     1       0.669  -5.238  -3.790  0.00  0.00    +0.000 A 
ATOM     10  O   UNL     1      -0.455  -5.203  -4.276  0.00  0.00    +0.000 OA
ATOM     11  N   UNL     1       1.480  -6.335  -3.901  0.00  0.00    +0.000 N 
ATOM     12  C   UNL     1       2.739  -6.381  -3.374  0.00  0.00    +0.000 A 
ATOM     13  N   UNL     1       3.291  -5.414  -2.721  0.00  0.00    +0.000 NA
ATOM     14  C   UNL     1       2.535  -4.238  -2.535  0.00  0.00    +0.000 A 
ATOM     15  C   UNL     1       3.086  -3.174  -1.802  0.00  0.00    +0.000 A 
ATOM     16  H   UNL     1       1.096  -7.121  -4.406  0.00  0.00    +0.000 HD
ENDBRANCH   3   5
BRANCH   2  17
ATOM     17  C   UNL     1       2.994   0.930   0.692  0.00  0.00    +0.000 A 
ATOM     18  C   UNL     1       2.674   1.557   1.882  0.00  0.00    +0.000 A 
ATOM     19  C   UNL     1       3.747   2.473   2.103  0.00  0.00    +0.000 A 
ATOM     20  N   UNL     1       4.685   2.309   1.149  0.00  0.00    +0.000 NA
ATOM     21  O   UNL     1       4.213   1.349   0.280  0.00  0.00    +0.000 OA
BRANCH  19  22
ATOM     22  C   UNL     1       3.938   3.471   3.169  0.00  0.00    +0.000 A 
ATOM     23  C   UNL     1       5.235   3.848   3.557  0.00  0.00    +0.000 A 
ATOM     24  C   UNL     1       5.439   4.796   4.567  0.00  0.00    +0.000 A 
ATOM     25  C   UNL     1       4.351   5.382   5.210  0.00  0.00    +0.000 A 
ATOM     26  C   UNL     1       3.061   5.033   4.829  0.00  0.00    +0.000 A 
ATOM     27  C   UNL     1       2.857   4.097   3.809  0.00  0.00    +0.000 A 
ENDBRANCH  19  22
BRANCH  18  28
ATOM     28  C   UNL     1       1.490   1.295   2.718  0.00  0.00    +0.000 C 
ATOM     29  F   UNL     1       0.823   0.167   2.370  0.00  0.00    +0.000 F 
ATOM     30  F   UNL     1       1.840   1.122   4.020  0.00  0.00    +0.000 F 
ATOM     31  F   UNL     1       0.592   2.309   2.683  0.00  0.00    +0.000 F 
ENDBRANCH  18  28
ENDBRANCH   2  17
TORSDOF 4
