REMARK  Name = 
REMARK  8 active torsions:
REMARK  status: ('A' for Active; 'I' for Inactive)
REMARK    1  A    between atoms: C_2  and  C_10
REMARK    2  A    between atoms: N_3  and  C_4
REMARK    3  A    between atoms: C_13  and  N_14
REMARK    4  A    between atoms: N_14  and  C_15
REMARK    5  A    between atoms: C_15  and  C_16
REMARK    6  A    between atoms: C_19  and  C_20
REMARK    7  A    between atoms: C_20  and  O_21
REMARK    8  A    between atoms: O_21  and  C_22
REMARK                            x       y       z     vdW  Elec       q    Type
REMARK                         _______ _______ _______ _____ _____    ______ ____
ROOT
ATOM      1  N   UNL     1       5.383   2.922  -3.456  0.00  0.00    +0.000 N 
ATOM      2  H   UNL     1       6.255   2.462  -3.686  0.00  0.00    +0.000 HD
ENDROOT
BRANCH   1   6
ATOM      3  C   UNL     1       3.057   0.776  -0.832  0.00  0.00    +0.000 A 
ATOM      4  C   UNL     1       2.678   2.077  -1.109  0.00  0.00    +0.000 A 
ATOM      5  C   UNL     1       3.466   2.823  -1.977  0.00  0.00    +0.000 A 
ATOM      6  C   UNL     1       4.603   2.261  -2.538  0.00  0.00    +0.000 A 
ATOM      7  N   UNL     1       4.947   0.991  -2.216  0.00  0.00    +0.000 NA
ATOM      8  N   UNL     1       4.173   0.231  -1.356  0.00  0.00    +0.000 NA
BRANCH   3  10
ATOM      9  O   UNL     1       1.141   0.427   0.444  0.00  0.00    +0.000 OA
ATOM     10  C   UNL     1       2.198  -0.060   0.051  0.00  0.00    +0.000 C 
ATOM     11  N   UNL     1       2.699  -1.308   0.370  0.00  0.00    +0.000 N 
ATOM     12  H   UNL     1       3.640  -1.515   0.057  0.00  0.00    +0.000 HD
BRANCH  11  13
ATOM     13  C   UNL     1       2.046  -2.270   1.174  0.00  0.00    +0.000 A 
ATOM     14  C   UNL     1       0.690  -2.195   1.509  0.00  0.00    +0.000 A 
ATOM     15  C   UNL     1       0.099  -3.157   2.330  0.00  0.00    +0.000 A 
ATOM     16  C   UNL     1       0.861  -4.208   2.828  0.00  0.00    +0.000 A 
ATOM     17  C   UNL     1       2.209  -4.304   2.491  0.00  0.00    +0.000 A 
ATOM     18  C   UNL     1       2.797  -3.347   1.657  0.00  0.00    +0.000 A 
ENDBRANCH  11  13
ENDBRANCH   3  10
ENDBRANCH   1   6
BRANCH   1  19
ATOM     19  C   UNL     1       5.208   4.323  -3.797  0.00  0.00    +0.000 C 
BRANCH  19  20
ATOM     20  C   UNL     1       6.177   4.892  -4.782  0.00  0.00    +0.000 A 
ATOM     21  N   UNL     1       6.901   5.978  -4.482  0.00  0.00    +0.000 NA
ATOM     22  O   UNL     1       7.671   6.235  -5.602  0.00  0.00    +0.000 OA
ATOM     23  C   UNL     1       7.411   5.301  -6.555  0.00  0.00    +0.000 A 
ATOM     24  C   UNL     1       6.458   4.428  -6.087  0.00  0.00    +0.000 A 
BRANCH  23  25
ATOM     25  C   UNL     1       8.175   5.407  -7.813  0.00  0.00    +0.000 C 
BRANCH  25  26
ATOM     26  O   UNL     1       7.401   6.202  -8.702  0.00  0.00    +0.000 OA
BRANCH  26  27
ATOM     27  C   UNL     1       7.902   6.387  -9.963  0.00  0.00    +0.000 A 
ATOM     28  C   UNL     1       9.119   5.886 -10.435  0.00  0.00    +0.000 A 
ATOM     29  C   UNL     1       9.518   6.134 -11.754  0.00  0.00    +0.000 A 
ATOM     30  C   UNL     1       8.711   6.884 -12.607  0.00  0.00    +0.000 A 
ATOM     31  C   UNL     1       7.500   7.392 -12.143  0.00  0.00    +0.000 A 
ATOM     32  C   UNL     1       7.106   7.142 -10.831  0.00  0.00    +0.000 A 
ATOM     33  F   UNL     1       5.934   7.639 -10.409  0.00  0.00    +0.000 F 
ENDBRANCH  26  27
ENDBRANCH  25  26
ENDBRANCH  23  25
ENDBRANCH  19  20
ENDBRANCH   1  19
TORSDOF 8
