REMARK  Name = 
REMARK  4 active torsions:
REMARK  status: ('A' for Active; 'I' for Inactive)
REMARK    1  A    between atoms: C_7  and  S_8
REMARK    2  A    between atoms: S_8  and  N_11
REMARK    3  A    between atoms: N_11  and  C_12
REMARK    4  A    between atoms: C_17  and  C_18
REMARK                            x       y       z     vdW  Elec       q    Type
REMARK                         _______ _______ _______ _____ _____    ______ ____
ROOT
ATOM      1  S   UNL     1       8.374  -1.103   0.685  0.00  0.00    +0.000 S 
ATOM      2  O   UNL     1       8.393  -2.487   0.259  0.00  0.00    +0.000 OA
ATOM      3  O   UNL     1       7.180  -0.299   0.545  0.00  0.00    +0.000 OA
ENDROOT
BRANCH   1  10
ATOM      4  O   UNL     1      10.024  -3.114   7.575  0.00  0.00    +0.000 OA
ATOM      5  C   UNL     1       9.783  -2.543   6.522  0.00  0.00    +0.000 A 
ATOM      6  N   UNL     1       9.711  -1.176   6.369  0.00  0.00    +0.000 N 
ATOM      7  C   UNL     1       9.418  -0.919   5.061  0.00  0.00    +0.000 A 
ATOM      8  C   UNL     1       9.319  -2.147   4.438  0.00  0.00    +0.000 A 
ATOM      9  C   UNL     1       9.024  -2.258   3.096  0.00  0.00    +0.000 A 
ATOM     10  C   UNL     1       8.830  -1.060   2.392  0.00  0.00    +0.000 A 
ATOM     11  C   UNL     1       8.932   0.184   3.039  0.00  0.00    +0.000 A 
ATOM     12  F   UNL     1       8.781   1.323   2.348  0.00  0.00    +0.000 F 
ATOM     13  C   UNL     1       9.235   0.273   4.398  0.00  0.00    +0.000 A 
ATOM     14  O   UNL     1       9.540  -3.202   5.310  0.00  0.00    +0.000 OA
ATOM     15  H   UNL     1       9.852  -0.526   7.124  0.00  0.00    +0.000 HD
ENDBRANCH   1  10
BRANCH   1  16
ATOM     16  N   UNL     1       9.614  -0.288  -0.118  0.00  0.00    +0.000 N 
ATOM     17  H   UNL     1       9.475   0.722  -0.135  0.00  0.00    +0.000 HD
BRANCH  16  18
ATOM     18  C   UNL     1      10.939  -0.788  -0.042  0.00  0.00    +0.000 A 
ATOM     19  C   UNL     1      11.356  -1.783  -0.920  0.00  0.00    +0.000 A 
ATOM     20  C   UNL     1      12.658  -2.268  -0.833  0.00  0.00    +0.000 A 
ATOM     21  C   UNL     1      13.520  -1.779   0.151  0.00  0.00    +0.000 A 
ATOM     22  F   UNL     1      14.767  -2.276   0.178  0.00  0.00    +0.000 F 
ATOM     23  C   UNL     1      13.117  -0.801   1.078  0.00  0.00    +0.000 A 
ATOM     24  C   UNL     1      11.806  -0.303   0.941  0.00  0.00    +0.000 A 
BRANCH  23  25
ATOM     25  C   UNL     1      13.996  -0.319   2.172  0.00  0.00    +0.000 A 
ATOM     26  C   UNL     1      13.931   1.009   2.639  0.00  0.00    +0.000 A 
ATOM     27  C   UNL     1      14.730   1.455   3.696  0.00  0.00    +0.000 A 
ATOM     28  C   UNL     1      15.629   0.587   4.304  0.00  0.00    +0.000 A 
ATOM     29  C   UNL     1      15.721  -0.728   3.862  0.00  0.00    +0.000 A 
ATOM     30  C   UNL     1      14.908  -1.175   2.815  0.00  0.00    +0.000 A 
ENDBRANCH  23  25
ENDBRANCH  16  18
ENDBRANCH   1  16
TORSDOF 4
