REMARK  Name = 
REMARK  5 active torsions:
REMARK  status: ('A' for Active; 'I' for Inactive)
REMARK    1  A    between atoms: C_2  and  C_21
REMARK    2  A    between atoms: N_3  and  C_4
REMARK    3  A    between atoms: C_6  and  C_7
REMARK    4  A    between atoms: C_13  and  C_14
REMARK    5  A    between atoms: C_28  and  O_29
REMARK                            x       y       z     vdW  Elec       q    Type
REMARK                         _______ _______ _______ _____ _____    ______ ____
ROOT
ATOM      1  C   UNL     1       2.192   2.266  -0.640  0.00  0.00    +0.000 A 
ATOM      2  C   UNL     1       1.079   2.721   0.060  0.00  0.00    +0.000 A 
ATOM      3  C   UNL     1       0.531   3.980  -0.200  0.00  0.00    +0.000 A 
ATOM      4  C   UNL     1       1.103   4.776  -1.205  0.00  0.00    +0.000 A 
ATOM      5  C   UNL     1       2.256   4.372  -1.907  0.00  0.00    +0.000 A 
ATOM      6  C   UNL     1       2.789   3.106  -1.592  0.00  0.00    +0.000 A 
ENDROOT
BRANCH   3   7
ATOM      7  C   UNL     1      -0.591   4.459   0.596  0.00  0.00    +0.000 A 
ATOM      8  N   UNL     1      -1.215   5.638   0.416  0.00  0.00    +0.000 NA
ATOM      9  N   UNL     1      -2.106   5.585   1.417  0.00  0.00    +0.000 N 
ATOM     10  N   UNL     1      -2.066   4.497   2.189  0.00  0.00    +0.000 NA
ATOM     11  N   UNL     1      -1.097   3.760   1.671  0.00  0.00    +0.000 NA
ATOM     12  H   UNL     1      -2.773   6.332   1.589  0.00  0.00    +0.000 HD
ENDBRANCH   3   7
BRANCH   5  13
ATOM     13  C   UNL     1       2.902   5.260  -2.906  0.00  0.00    +0.000 A 
ATOM     14  C   UNL     1       2.880   6.655  -2.765  0.00  0.00    +0.000 A 
ATOM     15  C   UNL     1       3.527   7.453  -3.697  0.00  0.00    +0.000 A 
ATOM     16  N   UNL     1       4.201   6.970  -4.758  0.00  0.00    +0.000 NA
ATOM     17  C   UNL     1       4.213   5.630  -4.897  0.00  0.00    +0.000 A 
ATOM     18  C   UNL     1       3.586   4.754  -4.022  0.00  0.00    +0.000 A 
ENDBRANCH   5  13
BRANCH   1  21
ATOM     19  O   UNL     1       1.105  -0.069   0.801  0.00  0.00    +0.000 OA
ATOM     20  C   UNL     1       2.215  -0.053   0.283  0.00  0.00    +0.000 C 
ATOM     21  N   UNL     1       2.774   1.001  -0.419  0.00  0.00    +0.000 N 
ATOM     22  H   UNL     1       3.691   0.843  -0.823  0.00  0.00    +0.000 HD
BRANCH  20  23
ATOM     23  C   UNL     1       3.043  -1.280   0.364  0.00  0.00    +0.000 A 
ATOM     24  C   UNL     1       2.401  -2.525   0.334  0.00  0.00    +0.000 A 
ATOM     25  F   UNL     1       1.076  -2.623   0.155  0.00  0.00    +0.000 F 
ATOM     26  C   UNL     1       3.125  -3.714   0.445  0.00  0.00    +0.000 A 
ATOM     27  C   UNL     1       4.509  -3.673   0.596  0.00  0.00    +0.000 A 
ATOM     28  C   UNL     1       5.148  -2.439   0.629  0.00  0.00    +0.000 A 
ATOM     29  F   UNL     1       6.479  -2.388   0.774  0.00  0.00    +0.000 F 
ATOM     30  C   UNL     1       4.433  -1.246   0.506  0.00  0.00    +0.000 A 
BRANCH  30  31
ATOM     31  O   UNL     1       5.122  -0.061   0.535  0.00  0.00    +0.000 OA
ATOM     32  H   UNL     1       6.039  -0.259   0.812  0.00  0.00    +0.000 HD
ENDBRANCH  30  31
ENDBRANCH  20  23
ENDBRANCH   1  21
TORSDOF 5
