REMARK  Name = 
REMARK  7 active torsions:
REMARK  status: ('A' for Active; 'I' for Inactive)
REMARK    1  A    between atoms: C_2  and  O_3
REMARK    2  A    between atoms: C_2  and  C_4
REMARK    3  A    between atoms: C_8  and  C_9
REMARK    4  A    between atoms: C_14  and  C_15
REMARK    5  A    between atoms: C_15  and  N_16
REMARK    6  A    between atoms: C_17  and  C_19
REMARK    7  A    between atoms: C_21  and  N_22
REMARK                            x       y       z     vdW  Elec       q    Type
REMARK                         _______ _______ _______ _____ _____    ______ ____
ROOT
ATOM      1  C   UNL     1       6.123  -2.746  -1.173  0.00  0.00    +0.000 A 
ATOM      2  C   UNL     1       7.379  -2.295  -1.659  0.00  0.00    +0.000 A 
ATOM      3  C   UNL     1       8.597  -2.788  -1.190  0.00  0.00    +0.000 A 
ATOM      4  C   UNL     1       8.603  -3.769  -0.217  0.00  0.00    +0.000 A 
ATOM      5  C   UNL     1       7.395  -4.285   0.243  0.00  0.00    +0.000 A 
ATOM      6  C   UNL     1       6.143  -3.823  -0.235  0.00  0.00    +0.000 A 
ENDROOT
BRANCH   1  11
ATOM      7  C   UNL     1       3.849   0.157  -2.217  0.00  0.00    +0.000 A 
ATOM      8  C   UNL     1       2.621  -0.470  -2.405  0.00  0.00    +0.000 A 
ATOM      9  C   UNL     1       2.529  -1.847  -2.242  0.00  0.00    +0.000 A 
ATOM     10  C   UNL     1       3.662  -2.599  -1.897  0.00  0.00    +0.000 A 
ATOM     11  C   UNL     1       4.902  -1.998  -1.623  0.00  0.00    +0.000 A 
ATOM     12  C   UNL     1       4.960  -0.592  -1.791  0.00  0.00    +0.000 A 
BRANCH   7  14
ATOM     13  O   UNL     1       3.022   2.387  -2.209  0.00  0.00    +0.000 OA
ATOM     14  C   UNL     1       3.935   1.618  -2.452  0.00  0.00    +0.000 C 
BRANCH  14  15
ATOM     15  O   UNL     1       5.095   2.002  -3.027  0.00  0.00    +0.000 OA
ATOM     16  H   UNL     1       5.655   1.272  -3.349  0.00  0.00    +0.000 HD
ENDBRANCH  14  15
ENDBRANCH   7  14
ENDBRANCH   1  11
BRANCH   6  17
ATOM     17  C   UNL     1       4.872  -4.491   0.267  0.00  0.00    +0.000 C 
BRANCH  17  18
ATOM     18  N   UNL     1       5.062  -5.560   1.223  0.00  0.00    +0.000 N 
ATOM     19  C   UNL     1       4.081  -5.939   2.113  0.00  0.00    +0.000 C 
ATOM     20  O   UNL     1       2.991  -5.388   2.206  0.00  0.00    +0.000 OA
ATOM     21  H   UNL     1       5.794  -6.251   1.086  0.00  0.00    +0.000 HD
BRANCH  19  22
ATOM     22  C   UNL     1       4.454  -7.094   2.990  0.00  0.00    +0.000 A 
ATOM     23  C   UNL     1       3.576  -7.508   3.985  0.00  0.00    +0.000 A 
ATOM     24  C   UNL     1       4.007  -8.510   4.856  0.00  0.00    +0.000 A 
ATOM     25  C   UNL     1       5.283  -9.062   4.684  0.00  0.00    +0.000 A 
ATOM     26  C   UNL     1       6.071  -8.602   3.642  0.00  0.00    +0.000 A 
ATOM     27  N   UNL     1       5.690  -7.631   2.784  0.00  0.00    +0.000 NA
BRANCH  24  28
ATOM     28  N   UNL     1       3.188  -8.958   5.926  0.00  0.00    +0.000 N 
ATOM     29  C   UNL     1       1.897  -8.579   6.229  0.00  0.00    +0.000 A 
ATOM     30  C   UNL     1       1.536  -9.249   7.375  0.00  0.00    +0.000 A 
ATOM     31  C   UNL     1       2.659 -10.020   7.698  0.00  0.00    +0.000 A 
ATOM     32  N   UNL     1       3.654  -9.866   6.824  0.00  0.00    +0.000 NA
ENDBRANCH  24  28
ENDBRANCH  19  22
ENDBRANCH  17  18
ENDBRANCH   6  17
TORSDOF 7
