REMARK  Name = 
REMARK  3 active torsions:
REMARK  status: ('A' for Active; 'I' for Inactive)
REMARK    1  A    between atoms: C_2  and  C_18
REMARK    2  A    between atoms: C_6  and  C_7
REMARK    3  A    between atoms: C_22  and  N_23
REMARK                            x       y       z     vdW  Elec       q    Type
REMARK                         _______ _______ _______ _____ _____    ______ ____
ROOT
ATOM      1  O   UNL     1       0.947   0.264  -0.047  0.00  0.00    +0.000 OA
ATOM      2  C   UNL     1       2.147   0.013  -0.026  0.00  0.00    +0.000 C 
ATOM      3  N   UNL     1       2.812  -0.892  -0.816  0.00  0.00    +0.000 N 
ATOM      4  C   UNL     1       2.201  -1.628  -1.824  0.00  0.00    +0.000 A 
ATOM      5  N   UNL     1       2.885  -2.708  -2.227  0.00  0.00    +0.000 NA
ATOM      6  C   UNL     1       2.294  -3.498  -3.155  0.00  0.00    +0.000 A 
ATOM      7  C   UNL     1       1.061  -3.190  -3.699  0.00  0.00    +0.000 A 
ATOM      8  C   UNL     1       0.467  -2.041  -3.249  0.00  0.00    +0.000 A 
ATOM      9  N   UNL     1       1.020  -1.255  -2.319  0.00  0.00    +0.000 NA
ATOM     10  H   UNL     1       3.738  -1.219  -0.590  0.00  0.00    +0.000 HD
ENDROOT
BRANCH   6  11
ATOM     11  C   UNL     1       3.036  -4.714  -3.535  0.00  0.00    +0.000 A 
ATOM     12  C   UNL     1       3.852  -5.386  -2.607  0.00  0.00    +0.000 A 
ATOM     13  C   UNL     1       4.563  -6.526  -2.976  0.00  0.00    +0.000 A 
ATOM     14  F   UNL     1       5.336  -7.140  -2.071  0.00  0.00    +0.000 F 
ATOM     15  C   UNL     1       4.490  -7.033  -4.264  0.00  0.00    +0.000 A 
ATOM     16  C   UNL     1       3.682  -6.387  -5.183  0.00  0.00    +0.000 A 
ATOM     17  F   UNL     1       3.597  -6.854  -6.435  0.00  0.00    +0.000 F 
ATOM     18  C   UNL     1       2.959  -5.248  -4.834  0.00  0.00    +0.000 A 
ENDBRANCH   6  11
BRANCH   2  19
ATOM     19  C   UNL     1       2.957   0.693   1.005  0.00  0.00    +0.000 A 
ATOM     20  C   UNL     1       4.287   1.028   0.809  0.00  0.00    +0.000 A 
ATOM     21  N   UNL     1       5.030   1.703   1.713  0.00  0.00    +0.000 NA
ATOM     22  C   UNL     1       4.405   2.086   2.857  0.00  0.00    +0.000 A 
ATOM     23  C   UNL     1       3.075   1.800   3.147  0.00  0.00    +0.000 A 
ATOM     24  C   UNL     1       2.344   1.085   2.198  0.00  0.00    +0.000 A 
BRANCH  23  25
ATOM     25  N   UNL     1       2.482   2.232   4.365  0.00  0.00    +0.000 N 
ATOM     26  C   UNL     1       1.191   1.971   4.786  0.00  0.00    +0.000 A 
ATOM     27  C   UNL     1       0.994   2.544   6.025  0.00  0.00    +0.000 A 
ATOM     28  C   UNL     1       2.191   3.194   6.378  0.00  0.00    +0.000 A 
ATOM     29  C   UNL     1       3.087   2.987   5.349  0.00  0.00    +0.000 A 
ENDBRANCH  23  25
ENDBRANCH   2  19
TORSDOF 3
