REMARK  Name = 
REMARK  7 active torsions:
REMARK  status: ('A' for Active; 'I' for Inactive)
REMARK    1  A    between atoms: C_2  and  C_3
REMARK    2  A    between atoms: C_3  and  O_4
REMARK    3  A    between atoms: O_4  and  C_5
REMARK    4  A    between atoms: C_9  and  O_10
REMARK    5  A    between atoms: O_10  and  C_11
REMARK    6  A    between atoms: N_18  and  C_19
REMARK    7  A    between atoms: N_23  and  C_24
REMARK                            x       y       z     vdW  Elec       q    Type
REMARK                         _______ _______ _______ _____ _____    ______ ____
ROOT
ATOM      1  O   UNL     1       0.896   0.394   0.350  0.00  0.00    +0.000 OA
ATOM      2  C   UNL     1       2.079   0.343   0.017  0.00  0.00    +0.000 C 
ATOM      3  N   UNL     1       3.068  -0.079   0.884  0.00  0.00    +0.000 N 
ATOM      4  H   UNL     1       4.012  -0.186   0.529  0.00  0.00    +0.000 HD
ENDROOT
BRANCH   3   5
ATOM      5  C   UNL     1       2.759  -0.564   2.240  0.00  0.00    +0.000 C 
ATOM      6  C   UNL     1       3.919  -0.314   3.185  0.00  0.00    +0.000 C 
ATOM      7  C   UNL     1       4.763  -1.553   3.018  0.00  0.00    +0.000 C 
ATOM      8  O   UNL     1       5.964  -1.558   3.233  0.00  0.00    +0.000 OA
ATOM      9  N   UNL     1       3.940  -2.587   2.549  0.00  0.00    +0.000 N 
ATOM     10  C   UNL     1       2.597  -2.088   2.308  0.00  0.00    +0.000 C 
BRANCH   9  11
ATOM     11  C   UNL     1       4.335  -3.955   2.372  0.00  0.00    +0.000 A 
ATOM     12  C   UNL     1       5.452  -4.513   3.029  0.00  0.00    +0.000 A 
ATOM     13  F   UNL     1       6.100  -3.850   3.992  0.00  0.00    +0.000 F 
ATOM     14  C   UNL     1       5.887  -5.823   2.782  0.00  0.00    +0.000 A 
ATOM     15  C   UNL     1       5.199  -6.637   1.898  0.00  0.00    +0.000 A 
ATOM     16  C   UNL     1       4.058  -6.140   1.282  0.00  0.00    +0.000 A 
ATOM     17  C   UNL     1       3.635  -4.827   1.525  0.00  0.00    +0.000 A 
ATOM     18  F   UNL     1       2.541  -4.430   0.861  0.00  0.00    +0.000 F 
ENDBRANCH   9  11
ENDBRANCH   3   5
BRANCH   2  19
ATOM     19  C   UNL     1       2.541   0.661  -1.417  0.00  0.00    +0.000 C 
BRANCH  19  20
ATOM     20  O   UNL     1       2.893   2.018  -1.686  0.00  0.00    +0.000 OA
BRANCH  20  21
ATOM     21  C   UNL     1       3.284   2.264  -2.987  0.00  0.00    +0.000 A 
ATOM     22  C   UNL     1       2.962   1.439  -4.071  0.00  0.00    +0.000 A 
ATOM     23  C   UNL     1       3.486   1.685  -5.339  0.00  0.00    +0.000 A 
ATOM     24  C   UNL     1       4.291   2.794  -5.551  0.00  0.00    +0.000 A 
ATOM     25  C   UNL     1       4.488   3.720  -4.523  0.00  0.00    +0.000 A 
ATOM     26  C   UNL     1       4.027   3.435  -3.225  0.00  0.00    +0.000 A 
BRANCH  25  27
ATOM     27  O   UNL     1       5.156   4.911  -4.747  0.00  0.00    +0.000 OA
BRANCH  27  28
ATOM     28  C   UNL     1       4.839   5.595  -5.927  0.00  0.00    +0.000 A 
ATOM     29  C   UNL     1       5.793   6.459  -6.445  0.00  0.00    +0.000 A 
ATOM     30  C   UNL     1       5.512   7.107  -7.650  0.00  0.00    +0.000 A 
ATOM     31  C   UNL     1       4.301   6.870  -8.292  0.00  0.00    +0.000 A 
ATOM     32  C   UNL     1       3.404   6.006  -7.692  0.00  0.00    +0.000 A 
ATOM     33  N   UNL     1       3.639   5.384  -6.520  0.00  0.00    +0.000 NA
ENDBRANCH  27  28
ENDBRANCH  25  27
ENDBRANCH  20  21
ENDBRANCH  19  20
ENDBRANCH   2  19
TORSDOF 7
