REMARK  Name = 
REMARK  5 active torsions:
REMARK  status: ('A' for Active; 'I' for Inactive)
REMARK    1  A    between atoms: C_2  and  C_3
REMARK    2  A    between atoms: C_8  and  C_9
REMARK    3  A    between atoms: C_17  and  O_18
REMARK    4  A    between atoms: O_18  and  C_19
REMARK    5  A    between atoms: C_19  and  C_20
REMARK                            x       y       z     vdW  Elec       q    Type
REMARK                         _______ _______ _______ _____ _____    ______ ____
ROOT
ATOM      1  C   UNL     1       4.990  -3.385  -0.497  0.00  0.00    +0.000 A 
ATOM      2  C   UNL     1       4.090  -4.375  -0.519  0.00  0.00    +0.000 A 
ATOM      3  C   UNL     1       4.573  -5.748  -0.284  0.00  0.00    +0.000 A 
ATOM      4  O   UNL     1       3.780  -6.622   0.059  0.00  0.00    +0.000 OA
ATOM      5  N   UNL     1       5.919  -5.927  -0.542  0.00  0.00    +0.000 N 
ATOM      6  C   UNL     1       6.395  -7.179  -0.887  0.00  0.00    +0.000 A 
ATOM      7  C   UNL     1       7.680  -7.361  -1.214  0.00  0.00    +0.000 A 
ATOM      8  C   UNL     1       8.621  -6.281  -1.057  0.00  0.00    +0.000 A 
ATOM      9  C   UNL     1       8.247  -5.087  -0.574  0.00  0.00    +0.000 A 
ATOM     10  C   UNL     1       6.763  -4.834  -0.443  0.00  0.00    +0.000 A 
ATOM     11  N   UNL     1       6.326  -3.624  -0.297  0.00  0.00    +0.000 NA
ENDROOT
BRANCH   1  17
ATOM     12  C   UNL     1       5.470   0.279  -1.242  0.00  0.00    +0.000 A 
ATOM     13  N   UNL     1       4.228   0.760  -1.458  0.00  0.00    +0.000 NA
ATOM     14  C   UNL     1       3.210  -0.127  -1.347  0.00  0.00    +0.000 A 
ATOM     15  C   UNL     1       3.373  -1.464  -1.024  0.00  0.00    +0.000 A 
ATOM     16  F   UNL     1       2.286  -2.238  -0.926  0.00  0.00    +0.000 F 
ATOM     17  C   UNL     1       4.664  -1.965  -0.817  0.00  0.00    +0.000 A 
ATOM     18  C   UNL     1       5.724  -1.040  -0.939  0.00  0.00    +0.000 A 
BRANCH  12  20
ATOM     19  N   UNL     1       7.448   1.953  -1.374  0.00  0.00    +0.000 NA
ATOM     20  C   UNL     1       6.548   1.222  -1.329  0.00  0.00    +0.000 C 
ENDBRANCH  12  20
ENDBRANCH   1  17
BRANCH   9  21
ATOM     21  O   UNL     1       9.199  -4.100  -0.356  0.00  0.00    +0.000 OA
BRANCH  21  22
ATOM     22  C   UNL     1       8.936  -3.265   0.781  0.00  0.00    +0.000 C 
BRANCH  22  23
ATOM     23  C   UNL     1      10.201  -2.739   1.423  0.00  0.00    +0.000 A 
ATOM     24  C   UNL     1      11.467  -2.894   0.845  0.00  0.00    +0.000 A 
ATOM     25  C   UNL     1      12.605  -2.414   1.497  0.00  0.00    +0.000 A 
ATOM     26  C   UNL     1      12.490  -1.761   2.724  0.00  0.00    +0.000 A 
ATOM     27  C   UNL     1      11.234  -1.569   3.293  0.00  0.00    +0.000 A 
ATOM     28  C   UNL     1      10.096  -2.050   2.644  0.00  0.00    +0.000 A 
ENDBRANCH  22  23
ENDBRANCH  21  22
ENDBRANCH   9  21
TORSDOF 5
