REMARK  Name = 
REMARK  6 active torsions:
REMARK  status: ('A' for Active; 'I' for Inactive)
REMARK    1  A    between atoms: C_1  and  O_2
REMARK    2  A    between atoms: O_2  and  C_3
REMARK    3  A    between atoms: C_5  and  C_6
REMARK    4  A    between atoms: C_14  and  N_15
REMARK    5  A    between atoms: C_16  and  C_18
REMARK    6  A    between atoms: N_22  and  C_23
REMARK                            x       y       z     vdW  Elec       q    Type
REMARK                         _______ _______ _______ _____ _____    ______ ____
ROOT
ATOM      1  N   UNL     1       4.485   0.653   1.488  0.00  0.00    +0.000 N 
ATOM      2  C   UNL     1       3.627   1.692   1.173  0.00  0.00    +0.000 C 
ATOM      3  O   UNL     1       2.551   1.666   0.574  0.00  0.00    +0.000 OA
ATOM      4  H   UNL     1       5.088   0.750   2.301  0.00  0.00    +0.000 HD
ENDROOT
BRANCH   2   5
ATOM      5  C   UNL     1       3.901   2.973   1.874  0.00  0.00    +0.000 A 
ATOM      6  C   UNL     1       2.962   3.737   1.152  0.00  0.00    +0.000 A 
ATOM      7  C   UNL     1       3.424   4.989   1.669  0.00  0.00    +0.000 A 
ATOM      8  O   UNL     1       2.965   5.355   2.742  0.00  0.00    +0.000 OA
ATOM      9  N   UNL     1       4.628   5.309   1.064  0.00  0.00    +0.000 N 
ATOM     10  C   UNL     1       4.692   6.123  -0.105  0.00  0.00    +0.000 C 
ATOM     11  C   UNL     1       5.716   4.488   1.421  0.00  0.00    +0.000 A 
ATOM     12  C   UNL     1       7.035   4.840   1.109  0.00  0.00    +0.000 A 
ATOM     13  C   UNL     1       8.099   4.253   1.770  0.00  0.00    +0.000 A 
ATOM     14  C   UNL     1       7.819   3.271   2.714  0.00  0.00    +0.000 A 
ATOM     15  C   UNL     1       6.461   2.840   2.948  0.00  0.00    +0.000 A 
ATOM     16  C   UNL     1       5.370   3.395   2.212  0.00  0.00    +0.000 A 
ENDBRANCH   2   5
BRANCH   1  22
ATOM     17  C   UNL     1       4.867  -1.803   1.709  0.00  0.00    +0.000 A 
ATOM     18  C   UNL     1       4.680  -3.091   1.246  0.00  0.00    +0.000 A 
ATOM     19  C   UNL     1       3.748  -3.379   0.263  0.00  0.00    +0.000 A 
ATOM     20  C   UNL     1       3.054  -2.316  -0.334  0.00  0.00    +0.000 A 
ATOM     21  C   UNL     1       3.252  -0.993   0.111  0.00  0.00    +0.000 A 
ATOM     22  C   UNL     1       4.188  -0.710   1.129  0.00  0.00    +0.000 A 
BRANCH  19  23
ATOM     23  C   UNL     1       3.425  -4.779   0.031  0.00  0.00    +0.000 A 
ATOM     24  C   UNL     1       3.040  -5.221  -1.237  0.00  0.00    +0.000 A 
ATOM     25  C   UNL     1       2.629  -6.535  -1.413  0.00  0.00    +0.000 A 
ATOM     26  C   UNL     1       2.637  -7.379  -0.314  0.00  0.00    +0.000 A 
ATOM     27  C   UNL     1       3.062  -6.869   0.908  0.00  0.00    +0.000 A 
ATOM     28  N   UNL     1       3.453  -5.594   1.111  0.00  0.00    +0.000 NA
ENDBRANCH  19  23
BRANCH  17  30
ATOM     29  C   UNL     1       6.393  -2.735   3.290  0.00  0.00    +0.000 C 
ATOM     30  O   UNL     1       5.479  -1.708   2.924  0.00  0.00    +0.000 OA
ENDBRANCH  17  30
ENDBRANCH   1  22
TORSDOF 4
