REMARK  Name = 
REMARK  5 active torsions:
REMARK  status: ('A' for Active; 'I' for Inactive)
REMARK    1  A    between atoms: C_2  and  C_3
REMARK    2  A    between atoms: C_3  and  C_4
REMARK    3  A    between atoms: C_8  and  O_9
REMARK    4  A    between atoms: O_9  and  C_10
REMARK    5  A    between atoms: C_21  and  C_22
REMARK                            x       y       z     vdW  Elec       q    Type
REMARK                         _______ _______ _______ _____ _____    ______ ____
ROOT
ATOM      1  O   UNL     1       2.090   0.447   1.241  0.00  0.00    +0.000 OA
ATOM      2  C   UNL     1       2.254   0.171   0.045  0.00  0.00    +0.000 C 
ATOM      3  N   UNL     1       1.987   1.130  -0.883  0.00  0.00    +0.000 N 
ATOM      4  C   UNL     1       1.904   0.994  -2.254  0.00  0.00    +0.000 A 
ATOM      5  N   UNL     1       1.868  -0.222  -2.794  0.00  0.00    +0.000 NA
ATOM      6  C   UNL     1       1.785  -0.307  -4.135  0.00  0.00    +0.000 A 
ATOM      7  C   UNL     1       1.767   0.779  -4.983  0.00  0.00    +0.000 A 
ATOM      8  C   UNL     1       1.802   1.989  -4.314  0.00  0.00    +0.000 A 
ATOM      9  N   UNL     1       1.847   2.127  -2.963  0.00  0.00    +0.000 NA
ATOM     10  H   UNL     1       1.777   2.051  -0.534  0.00  0.00    +0.000 HD
ENDROOT
BRANCH   7  11
ATOM     11  C   UNL     1       1.718   0.630  -6.428  0.00  0.00    +0.000 A 
ATOM     12  N   UNL     1       1.631  -0.624  -6.917  0.00  0.00    +0.000 NA
ATOM     13  C   UNL     1       1.590  -0.753  -8.254  0.00  0.00    +0.000 A 
ATOM     14  C   UNL     1       1.639   0.314  -9.113  0.00  0.00    +0.000 A 
ATOM     15  C   UNL     1       1.733   1.552  -8.519  0.00  0.00    +0.000 A 
ATOM     16  N   UNL     1       1.774   1.740  -7.186  0.00  0.00    +0.000 NA
ENDBRANCH   7  11
BRANCH   2  17
ATOM     17  C   UNL     1       2.839  -1.180  -0.361  0.00  0.00    +0.000 C 
BRANCH  17  18
ATOM     18  C   UNL     1       1.850  -2.304  -0.582  0.00  0.00    +0.000 A 
ATOM     19  C   UNL     1       0.720  -2.460   0.228  0.00  0.00    +0.000 A 
ATOM     20  C   UNL     1      -0.117  -3.567   0.073  0.00  0.00    +0.000 A 
ATOM     21  C   UNL     1       0.161  -4.529  -0.898  0.00  0.00    +0.000 A 
ATOM     22  C   UNL     1       1.239  -4.354  -1.766  0.00  0.00    +0.000 A 
ATOM     23  C   UNL     1       2.103  -3.272  -1.575  0.00  0.00    +0.000 A 
BRANCH  22  24
ATOM     24  O   UNL     1       1.572  -5.225  -2.782  0.00  0.00    +0.000 OA
BRANCH  24  25
ATOM     25  C   UNL     1       0.589  -5.919  -3.455  0.00  0.00    +0.000 A 
ATOM     26  C   UNL     1      -0.701  -5.437  -3.695  0.00  0.00    +0.000 A 
ATOM     27  C   UNL     1      -1.640  -6.238  -4.349  0.00  0.00    +0.000 A 
ATOM     28  C   UNL     1      -1.275  -7.498  -4.821  0.00  0.00    +0.000 A 
ATOM     29  C   UNL     1       0.032  -7.952  -4.652  0.00  0.00    +0.000 A 
ATOM     30  C   UNL     1       0.962  -7.163  -3.970  0.00  0.00    +0.000 A 
ENDBRANCH  24  25
ENDBRANCH  22  24
ENDBRANCH  17  18
ENDBRANCH   2  17
TORSDOF 5
