REMARK  Name = 
REMARK  4 active torsions:
REMARK  status: ('A' for Active; 'I' for Inactive)
REMARK    1  A    between atoms: C_2  and  C_18
REMARK    2  A    between atoms: N_3  and  C_4
REMARK    3  A    between atoms: C_7  and  O_8
REMARK    4  A    between atoms: O_8  and  C_9
REMARK                            x       y       z     vdW  Elec       q    Type
REMARK                         _______ _______ _______ _____ _____    ______ ____
ROOT
ATOM      1  O   UNL     1       1.118   0.445  -0.647  0.00  0.00    +0.000 OA
ATOM      2  C   UNL     1       2.228   0.166  -0.214  0.00  0.00    +0.000 C 
ATOM      3  N   UNL     1       2.748  -1.101  -0.025  0.00  0.00    +0.000 N 
ATOM      4  H   UNL     1       3.603  -1.185   0.512  0.00  0.00    +0.000 HD
ENDROOT
BRANCH   2   5
ATOM      5  C   UNL     1       3.098   1.279   0.245  0.00  0.00    +0.000 A 
ATOM      6  C   UNL     1       2.483   2.426   0.775  0.00  0.00    +0.000 A 
ATOM      7  C   UNL     1       3.256   3.490   1.244  0.00  0.00    +0.000 A 
ATOM      8  C   UNL     1       4.646   3.392   1.177  0.00  0.00    +0.000 A 
ATOM      9  C   UNL     1       5.503   4.466   1.673  0.00  0.00    +0.000 A 
ATOM     10  N   UNL     1       6.799   4.421   1.653  0.00  0.00    +0.000 NA
ATOM     11  N   UNL     1       7.386   3.302   1.132  0.00  0.00    +0.000 N 
ATOM     12  C   UNL     1       6.731   2.211   0.614  0.00  0.00    +0.000 A 
ATOM     13  O   UNL     1       7.311   1.228   0.163  0.00  0.00    +0.000 OA
ATOM     14  C   UNL     1       5.260   2.267   0.643  0.00  0.00    +0.000 A 
ATOM     15  C   UNL     1       4.492   1.205   0.159  0.00  0.00    +0.000 A 
ATOM     16  H   UNL     1       8.401   3.284   1.132  0.00  0.00    +0.000 HD
ENDBRANCH   2   5
BRANCH   3  17
ATOM     17  C   UNL     1       2.088  -2.311  -0.321  0.00  0.00    +0.000 A 
ATOM     18  C   UNL     1       0.954  -2.405  -1.123  0.00  0.00    +0.000 A 
ATOM     19  C   UNL     1       0.348  -3.643  -1.324  0.00  0.00    +0.000 A 
ATOM     20  C   UNL     1       0.914  -4.755  -0.725  0.00  0.00    +0.000 A 
ATOM     21  N   UNL     1       2.013  -4.704   0.062  0.00  0.00    +0.000 NA
ATOM     22  C   UNL     1       2.583  -3.492   0.225  0.00  0.00    +0.000 A 
BRANCH  20  23
ATOM     23  O   UNL     1       0.290  -5.973  -0.951  0.00  0.00    +0.000 OA
BRANCH  23  24
ATOM     24  C   UNL     1       1.082  -7.099  -0.957  0.00  0.00    +0.000 A 
ATOM     25  C   UNL     1       2.365  -7.132  -1.508  0.00  0.00    +0.000 A 
ATOM     26  C   UNL     1       3.087  -8.316  -1.483  0.00  0.00    +0.000 A 
ATOM     27  F   UNL     1       4.332  -8.338  -1.977  0.00  0.00    +0.000 F 
ATOM     28  C   UNL     1       2.540  -9.479  -0.951  0.00  0.00    +0.000 A 
ATOM     29  C   UNL     1       1.246  -9.459  -0.434  0.00  0.00    +0.000 A 
ATOM     30  C   UNL     1       0.515  -8.267  -0.440  0.00  0.00    +0.000 A 
ENDBRANCH  23  24
ENDBRANCH  20  23
ENDBRANCH   3  17
TORSDOF 4
