REMARK  Name = 
REMARK  7 active torsions:
REMARK  status: ('A' for Active; 'I' for Inactive)
REMARK    1  A    between atoms: C_1  and  C_2
REMARK    2  A    between atoms: N_6  and  C_7
REMARK    3  A    between atoms: C_9  and  C_10
REMARK    4  A    between atoms: N_12  and  C_13
REMARK    5  A    between atoms: C_13  and  C_14
REMARK    6  A    between atoms: C_13  and  C_20
REMARK    7  A    between atoms: C_26  and  C_27
REMARK                            x       y       z     vdW  Elec       q    Type
REMARK                         _______ _______ _______ _____ _____    ______ ____
ROOT
ATOM      1  C   UNL     1       3.762   2.856  -0.056  0.00  0.00    +0.000 A 
ATOM      2  C   UNL     1       3.045   3.296   1.072  0.00  0.00    +0.000 A 
ATOM      3  C   UNL     1       2.530   4.601   1.107  0.00  0.00    +0.000 A 
ATOM      4  C   UNL     1       2.686   5.437  -0.010  0.00  0.00    +0.000 A 
ATOM      5  C   UNL     1       3.373   5.002  -1.148  0.00  0.00    +0.000 A 
ATOM      6  C   UNL     1       3.905   3.704  -1.163  0.00  0.00    +0.000 A 
ENDROOT
BRANCH   1  12
ATOM      7  C   UNL     1       6.448   1.819  -1.488  0.00  0.00    +0.000 C 
ATOM      8  C   UNL     1       5.420   1.041  -0.761  0.00  0.00    +0.000 A 
ATOM      9  N   UNL     1       5.473  -0.257  -0.531  0.00  0.00    +0.000 NA
ATOM     10  N   UNL     1       4.492  -0.529   0.379  0.00  0.00    +0.000 NA
ATOM     11  N   UNL     1       3.840   0.572   0.720  0.00  0.00    +0.000 NA
ATOM     12  N   UNL     1       4.339   1.559  -0.059  0.00  0.00    +0.000 N 
ENDBRANCH   1  12
BRANCH   5  13
ATOM     13  C   UNL     1       3.582   5.916  -2.331  0.00  0.00    +0.000 C 
ATOM     14  F   UNL     1       3.043   7.153  -2.177  0.00  0.00    +0.000 F 
ATOM     15  F   UNL     1       4.906   6.107  -2.590  0.00  0.00    +0.000 F 
ATOM     16  F   UNL     1       3.050   5.407  -3.475  0.00  0.00    +0.000 F 
ENDBRANCH   5  13
BRANCH   3  17
ATOM     17  C   UNL     1       1.914   5.215   2.318  0.00  0.00    +0.000 C 
ATOM     18  O   UNL     1       1.911   6.435   2.427  0.00  0.00    +0.000 OA
ATOM     19  N   UNL     1       1.383   4.373   3.262  0.00  0.00    +0.000 N 
ATOM     20  H   UNL     1       1.343   3.380   3.109  0.00  0.00    +0.000 HD
BRANCH  19  21
ATOM     21  C   UNL     1       0.765   4.892   4.463  0.00  0.00    +0.000 C 
BRANCH  21  22
ATOM     22  C   UNL     1      -0.727   4.617   4.545  0.00  0.00    +0.000 A 
ATOM     23  C   UNL     1      -1.322   3.471   3.986  0.00  0.00    +0.000 A 
ATOM     24  C   UNL     1      -2.701   3.261   4.073  0.00  0.00    +0.000 A 
ATOM     25  C   UNL     1      -3.509   4.191   4.720  0.00  0.00    +0.000 A 
ATOM     26  C   UNL     1      -2.942   5.330   5.283  0.00  0.00    +0.000 A 
ATOM     27  C   UNL     1      -1.563   5.541   5.198  0.00  0.00    +0.000 A 
ENDBRANCH  21  22
BRANCH  21  28
ATOM     28  C   UNL     1       1.401   4.235   5.649  0.00  0.00    +0.000 A 
ATOM     29  C   UNL     1       2.115   4.876   6.646  0.00  0.00    +0.000 A 
ATOM     30  O   UNL     1       2.590   3.990   7.557  0.00  0.00    +0.000 OA
ATOM     31  C   UNL     1       2.188   2.760   7.155  0.00  0.00    +0.000 A 
ATOM     32  C   UNL     1       1.460   2.849   5.993  0.00  0.00    +0.000 A 
ENDBRANCH  21  28
ENDBRANCH  19  21
ENDBRANCH   3  17
TORSDOF 6
