REMARK  Name = 
REMARK  9 active torsions:
REMARK  status: ('A' for Active; 'I' for Inactive)
REMARK    1  A    between atoms: C_1  and  C_2
REMARK    2  A    between atoms: C_6  and  C_7
REMARK    3  A    between atoms: C_9  and  C_10
REMARK    4  A    between atoms: N_12  and  C_13
REMARK    5  A    between atoms: N_12  and  C_17
REMARK    6  A    between atoms: C_13  and  C_14
REMARK    7  A    between atoms: C_17  and  C_18
REMARK    8  A    between atoms: C_21  and  C_22
REMARK    9  A    between atoms: C_30  and  C_31
REMARK                            x       y       z     vdW  Elec       q    Type
REMARK                         _______ _______ _______ _____ _____    ______ ____
ROOT
ATOM      1  C   UNL     1      -5.447  -3.096  -1.613  0.00  0.00    +0.000 C 
ATOM      2  O   UNL     1      -4.316  -3.174  -1.124  0.00  0.00    +0.000 OA
ATOM      3  N   UNL     1      -6.525  -3.679  -0.894  0.00  0.00    +0.000 N 
ENDROOT
BRANCH   1  12
ATOM      4  C   UNL     1      -4.784   2.657  -8.085  0.00  0.00    +0.000 C 
ATOM      5  C   UNL     1      -4.647   1.540  -7.135  0.00  0.00    +0.000 A 
ATOM      6  C   UNL     1      -5.550   0.856  -6.366  0.00  0.00    +0.000 A 
ATOM      7  C   UNL     1      -4.769  -0.098  -5.685  0.00  0.00    +0.000 A 
ATOM      8  N   UNL     1      -5.267  -1.091  -4.786  0.00  0.00    +0.000 N 
ATOM      9  C   UNL     1      -6.520  -1.656  -4.905  0.00  0.00    +0.000 A 
ATOM     10  C   UNL     1      -7.395  -1.693  -6.109  0.00  0.00    +0.000 C 
ATOM     11  C   UNL     1      -6.808  -2.255  -3.712  0.00  0.00    +0.000 A 
ATOM     12  C   UNL     1      -5.646  -2.368  -2.910  0.00  0.00    +0.000 A 
ATOM     13  C   UNL     1      -4.680  -1.615  -3.619  0.00  0.00    +0.000 A 
ATOM     14  C   UNL     1      -3.276  -1.247  -3.244  0.00  0.00    +0.000 C 
ATOM     15  N   UNL     1      -3.468   0.020  -5.961  0.00  0.00    +0.000 NA
ATOM     16  O   UNL     1      -3.399   1.037  -6.917  0.00  0.00    +0.000 OA
ENDBRANCH   1  12
BRANCH   3  17
ATOM     17  C   UNL     1      -6.232  -4.519   0.286  0.00  0.00    +0.000 C 
BRANCH  17  18
ATOM     18  C   UNL     1      -5.691  -3.913   1.588  0.00  0.00    +0.000 C 
ATOM     19  N   UNL     1      -4.795  -2.899   1.487  0.00  0.00    +0.000 N 
ATOM     20  O   UNL     1      -5.936  -4.399   2.691  0.00  0.00    +0.000 OA
ATOM     21  H   UNL     1      -4.288  -2.801   0.608  0.00  0.00    +0.000 HD
ATOM     22  H   UNL     1      -4.293  -2.680   2.337  0.00  0.00    +0.000 HD
ENDBRANCH  17  18
ENDBRANCH   3  17
BRANCH   3  23
ATOM     23  C   UNL     1      -7.851  -3.917  -1.452  0.00  0.00    +0.000 C 
BRANCH  23  24
ATOM     24  C   UNL     1      -8.815  -2.752  -1.371  0.00  0.00    +0.000 A 
ATOM     25  C   UNL     1      -8.422  -1.452  -1.026  0.00  0.00    +0.000 A 
ATOM     26  C   UNL     1      -9.263  -0.361  -1.276  0.00  0.00    +0.000 A 
ATOM     27  C   UNL     1     -10.535  -0.533  -1.842  0.00  0.00    +0.000 A 
ATOM     28  C   UNL     1     -10.952  -1.852  -2.092  0.00  0.00    +0.000 A 
ATOM     29  C   UNL     1     -10.113  -2.944  -1.857  0.00  0.00    +0.000 A 
BRANCH  27  30
ATOM     30  C   UNL     1     -11.393   0.620  -2.201  0.00  0.00    +0.000 A 
ATOM     31  C   UNL     1     -10.853   1.818  -2.704  0.00  0.00    +0.000 A 
ATOM     32  C   UNL     1     -11.681   2.887  -3.077  0.00  0.00    +0.000 A 
ATOM     33  C   UNL     1     -13.059   2.784  -2.956  0.00  0.00    +0.000 A 
ATOM     34  C   UNL     1     -13.617   1.608  -2.465  0.00  0.00    +0.000 A 
ATOM     35  C   UNL     1     -12.793   0.544  -2.086  0.00  0.00    +0.000 A 
ENDBRANCH  27  30
ENDBRANCH  23  24
ENDBRANCH   3  23
TORSDOF 6
