REMARK  Name = 
REMARK  4 active torsions:
REMARK  status: ('A' for Active; 'I' for Inactive)
REMARK    1  A    between atoms: C_2  and  C_19
REMARK    2  A    between atoms: N_3  and  C_4
REMARK    3  A    between atoms: C_7  and  C_8
REMARK    4  A    between atoms: C_11  and  C_12
REMARK                            x       y       z     vdW  Elec       q    Type
REMARK                         _______ _______ _______ _____ _____    ______ ____
ROOT
ATOM      1  O   UNL     1       0.967  -0.037  -0.142  0.00  0.00    +0.000 OA
ATOM      2  C   UNL     1       2.178   0.093   0.008  0.00  0.00    +0.000 C 
ATOM      3  N   UNL     1       2.857   0.068   1.217  0.00  0.00    +0.000 N 
ATOM      4  H   UNL     1       3.835   0.336   1.190  0.00  0.00    +0.000 HD
ENDROOT
BRANCH   2   5
ATOM      5  C   UNL     1       3.006   0.336  -1.210  0.00  0.00    +0.000 A 
ATOM      6  C   UNL     1       2.333   0.499  -2.424  0.00  0.00    +0.000 A 
ATOM      7  C   UNL     1       3.073   0.670  -3.585  0.00  0.00    +0.000 A 
ATOM      8  C   UNL     1       4.459   0.656  -3.489  0.00  0.00    +0.000 A 
ATOM      9  C   UNL     1       5.306   0.781  -4.692  0.00  0.00    +0.000 A 
ATOM     10  O   UNL     1       4.825   0.939  -5.806  0.00  0.00    +0.000 OA
ATOM     11  N   UNL     1       6.666   0.700  -4.482  0.00  0.00    +0.000 N 
ATOM     12  C   UNL     1       7.249   0.525  -3.253  0.00  0.00    +0.000 A 
ATOM     13  C   UNL     1       6.516   0.427  -2.142  0.00  0.00    +0.000 A 
ATOM     14  C   UNL     1       5.058   0.491  -2.237  0.00  0.00    +0.000 A 
ATOM     15  N   UNL     1       4.361   0.344  -1.077  0.00  0.00    +0.000 NA
ATOM     16  H   UNL     1       7.240   0.772  -5.316  0.00  0.00    +0.000 HD
ENDBRANCH   2   5
BRANCH   3  17
ATOM     17  C   UNL     1       2.245  -0.162   2.470  0.00  0.00    +0.000 A 
ATOM     18  C   UNL     1       0.977  -0.737   2.580  0.00  0.00    +0.000 A 
ATOM     19  C   UNL     1       0.362  -0.904   3.820  0.00  0.00    +0.000 A 
ATOM     20  C   UNL     1       1.009  -0.504   4.990  0.00  0.00    +0.000 A 
ATOM     21  C   UNL     1       2.298   0.039   4.892  0.00  0.00    +0.000 A 
ATOM     22  C   UNL     1       2.918   0.199   3.640  0.00  0.00    +0.000 A 
BRANCH  20  23
ATOM     23  C   UNL     1       0.332  -0.655   6.273  0.00  0.00    +0.000 A 
ATOM     24  N   UNL     1       0.999  -0.834   7.425  0.00  0.00    +0.000 NA
ATOM     25  O   UNL     1       0.042  -0.955   8.416  0.00  0.00    +0.000 OA
ATOM     26  C   UNL     1      -1.195  -0.836   7.869  0.00  0.00    +0.000 A 
ATOM     27  C   UNL     1      -1.069  -0.649   6.515  0.00  0.00    +0.000 A 
BRANCH  26  28
ATOM     28  C   UNL     1      -2.348  -0.917   8.782  0.00  0.00    +0.000 C 
ATOM     29  F   UNL     1      -1.997  -1.100  10.080  0.00  0.00    +0.000 F 
ATOM     30  F   UNL     1      -3.100   0.213   8.733  0.00  0.00    +0.000 F 
ATOM     31  F   UNL     1      -3.176  -1.943   8.449  0.00  0.00    +0.000 F 
ENDBRANCH  26  28
ENDBRANCH  20  23
ENDBRANCH   3  17
TORSDOF 4
