REMARK  Name = 
REMARK  6 active torsions:
REMARK  status: ('A' for Active; 'I' for Inactive)
REMARK    1  A    between atoms: C_2  and  C_20
REMARK    2  A    between atoms: N_3  and  C_4
REMARK    3  A    between atoms: C_9  and  C_10
REMARK    4  A    between atoms: N_12  and  C_13
REMARK    5  A    between atoms: C_13  and  C_14
REMARK    6  A    between atoms: C_24  and  C_25
REMARK                            x       y       z     vdW  Elec       q    Type
REMARK                         _______ _______ _______ _____ _____    ______ ____
ROOT
ATOM      1  C   UNL     1       2.200   1.652  -1.805  0.00  0.00    +0.000 A 
ATOM      2  C   UNL     1       1.109   2.450  -1.435  0.00  0.00    +0.000 A 
ATOM      3  C   UNL     1       0.513   3.307  -2.361  0.00  0.00    +0.000 A 
ATOM      4  C   UNL     1       0.993   3.371  -3.666  0.00  0.00    +0.000 A 
ATOM      5  C   UNL     1       2.072   2.570  -4.048  0.00  0.00    +0.000 A 
ATOM      6  C   UNL     1       2.680   1.704  -3.128  0.00  0.00    +0.000 A 
ENDROOT
BRANCH   1   9
ATOM      7  O   UNL     1       0.935  -0.319  -0.199  0.00  0.00    +0.000 OA
ATOM      8  C   UNL     1       2.130  -0.068  -0.072  0.00  0.00    +0.000 C 
ATOM      9  N   UNL     1       2.834   0.871  -0.809  0.00  0.00    +0.000 N 
ATOM     10  H   UNL     1       3.824   0.684  -0.951  0.00  0.00    +0.000 HD
BRANCH   8  11
ATOM     11  C   UNL     1       2.956  -0.896   0.837  0.00  0.00    +0.000 A 
ATOM     12  C   UNL     1       4.004  -0.321   1.551  0.00  0.00    +0.000 A 
ATOM     13  C   UNL     1       4.759  -1.148   2.356  0.00  0.00    +0.000 A 
ATOM     14  N   UNL     1       4.546  -2.475   2.478  0.00  0.00    +0.000 NA
ATOM     15  C   UNL     1       3.505  -3.016   1.788  0.00  0.00    +0.000 A 
ATOM     16  C   UNL     1       2.679  -2.258   0.970  0.00  0.00    +0.000 A 
BRANCH  15  17
ATOM     17  C   UNL     1       3.316  -4.466   1.933  0.00  0.00    +0.000 A 
ATOM     18  N   UNL     1       2.324  -5.137   1.317  0.00  0.00    +0.000 NA
ATOM     19  N   UNL     1       2.485  -6.411   1.706  0.00  0.00    +0.000 N 
ATOM     20  C   UNL     1       3.556  -6.605   2.523  0.00  0.00    +0.000 A 
ATOM     21  C   UNL     1       4.118  -5.364   2.696  0.00  0.00    +0.000 A 
ATOM     22  H   UNL     1       1.822  -7.102   1.370  0.00  0.00    +0.000 HD
ENDBRANCH  15  17
ENDBRANCH   8  11
ENDBRANCH   1   9
BRANCH   6  23
ATOM     23  C   UNL     1       3.767   0.836  -3.650  0.00  0.00    +0.000 C 
ATOM     24  O   UNL     1       4.503   1.242  -4.551  0.00  0.00    +0.000 OA
ATOM     25  N   UNL     1       3.868  -0.428  -3.102  0.00  0.00    +0.000 N 
ATOM     26  H   UNL     1       3.047  -0.792  -2.630  0.00  0.00    +0.000 HD
BRANCH  25  27
ATOM     27  C   UNL     1       4.819  -1.390  -3.606  0.00  0.00    +0.000 C 
BRANCH  27  28
ATOM     28  C   UNL     1       4.210  -2.283  -4.653  0.00  0.00    +0.000 A 
ATOM     29  C   UNL     1       4.257  -1.916  -6.005  0.00  0.00    +0.000 A 
ATOM     30  C   UNL     1       3.750  -2.764  -6.988  0.00  0.00    +0.000 A 
ATOM     31  C   UNL     1       3.181  -3.984  -6.628  0.00  0.00    +0.000 A 
ATOM     32  C   UNL     1       3.084  -4.338  -5.283  0.00  0.00    +0.000 A 
ATOM     33  C   UNL     1       3.586  -3.487  -4.297  0.00  0.00    +0.000 A 
ENDBRANCH  27  28
ENDBRANCH  25  27
ENDBRANCH   6  23
TORSDOF 6
