REMARK  Name = 
REMARK  4 active torsions:
REMARK  status: ('A' for Active; 'I' for Inactive)
REMARK    1  A    between atoms: C_2  and  C_17
REMARK    2  A    between atoms: N_3  and  C_4
REMARK    3  A    between atoms: C_9  and  O_10
REMARK    4  A    between atoms: O_10  and  C_11
REMARK                            x       y       z     vdW  Elec       q    Type
REMARK                         _______ _______ _______ _____ _____    ______ ____
ROOT
ATOM      1  O   UNL     1       1.005  -0.369   0.009  0.00  0.00    +0.000 OA
ATOM      2  C   UNL     1       2.215  -0.176  -0.031  0.00  0.00    +0.000 C 
ATOM      3  N   UNL     1       2.883   0.505  -1.032  0.00  0.00    +0.000 N 
ATOM      4  H   UNL     1       3.849   0.259  -1.216  0.00  0.00    +0.000 HD
ENDROOT
BRANCH   2   5
ATOM      5  C   UNL     1       3.037  -0.753   1.064  0.00  0.00    +0.000 A 
ATOM      6  C   UNL     1       2.667  -2.012   1.567  0.00  0.00    +0.000 A 
ATOM      7  C   UNL     1       3.211  -2.475   2.767  0.00  0.00    +0.000 A 
ATOM      8  C   UNL     1       4.119  -1.669   3.461  0.00  0.00    +0.000 A 
ATOM      9  N   UNL     1       4.533  -2.053   4.745  0.00  0.00    +0.000 N 
ATOM     10  C   UNL     1       4.049  -3.160   5.393  0.00  0.00    +0.000 A 
ATOM     11  O   UNL     1       4.310  -3.410   6.564  0.00  0.00    +0.000 OA
ATOM     12  C   UNL     1       3.185  -4.068   4.597  0.00  0.00    +0.000 A 
ATOM     13  C   UNL     1       2.799  -3.752   3.353  0.00  0.00    +0.000 A 
ATOM     14  C   UNL     1       4.535  -0.452   2.915  0.00  0.00    +0.000 A 
ATOM     15  F   UNL     1       5.410   0.313   3.586  0.00  0.00    +0.000 F 
ATOM     16  C   UNL     1       4.001   0.017   1.718  0.00  0.00    +0.000 A 
ATOM     17  H   UNL     1       5.125  -1.435   5.288  0.00  0.00    +0.000 HD
ENDBRANCH   2   5
BRANCH   3  18
ATOM     18  C   UNL     1       2.194   1.210  -2.054  0.00  0.00    +0.000 A 
ATOM     19  C   UNL     1       1.023   1.925  -1.785  0.00  0.00    +0.000 A 
ATOM     20  C   UNL     1       0.382   2.627  -2.805  0.00  0.00    +0.000 A 
ATOM     21  C   UNL     1       0.941   2.607  -4.070  0.00  0.00    +0.000 A 
ATOM     22  N   UNL     1       2.073   1.942  -4.372  0.00  0.00    +0.000 NA
ATOM     23  C   UNL     1       2.658   1.235  -3.371  0.00  0.00    +0.000 A 
BRANCH  23  24
ATOM     24  O   UNL     1       3.760   0.444  -3.689  0.00  0.00    +0.000 OA
BRANCH  24  25
ATOM     25  C   UNL     1       3.783  -0.128  -4.941  0.00  0.00    +0.000 A 
ATOM     26  C   UNL     1       2.670  -0.669  -5.589  0.00  0.00    +0.000 A 
ATOM     27  C   UNL     1       2.818  -1.234  -6.853  0.00  0.00    +0.000 A 
ATOM     28  C   UNL     1       4.084  -1.275  -7.411  0.00  0.00    +0.000 A 
ATOM     29  N   UNL     1       5.189  -0.797  -6.796  0.00  0.00    +0.000 NA
ATOM     30  C   UNL     1       5.010  -0.233  -5.577  0.00  0.00    +0.000 A 
ENDBRANCH  24  25
ENDBRANCH  23  24
ENDBRANCH   3  18
TORSDOF 4
