REMARK  Name = 
REMARK  5 active torsions:
REMARK  status: ('A' for Active; 'I' for Inactive)
REMARK    1  A    between atoms: N_3  and  C_4
REMARK    2  A    between atoms: C_7  and  C_8
REMARK    3  A    between atoms: C_22  and  O_23
REMARK    4  A    between atoms: O_23  and  C_24
REMARK    5  A    between atoms: C_24  and  C_25
REMARK                            x       y       z     vdW  Elec       q    Type
REMARK                         _______ _______ _______ _____ _____    ______ ____
ROOT
ATOM      1  O   UNL     1       2.858  -0.739   0.736  0.00  0.00    +0.000 OA
ATOM      2  C   UNL     1       2.359  -0.075  -0.163  0.00  0.00    +0.000 C 
ATOM      3  N   UNL     1       1.000   0.142  -0.353  0.00  0.00    +0.000 N 
ATOM      4  N   UNL     1       3.082   0.589  -1.154  0.00  0.00    +0.000 N 
ATOM      5  C   UNL     1       4.489   0.489  -1.115  0.00  0.00    +0.000 A 
ATOM      6  N   UNL     1       5.120   1.521  -0.513  0.00  0.00    +0.000 NA
ATOM      7  C   UNL     1       6.467   1.442  -0.438  0.00  0.00    +0.000 A 
ATOM      8  C   UNL     1       7.215   0.425  -1.009  0.00  0.00    +0.000 A 
ATOM      9  C   UNL     1       6.546  -0.580  -1.704  0.00  0.00    +0.000 A 
ATOM     10  C   UNL     1       5.151  -0.555  -1.772  0.00  0.00    +0.000 A 
ATOM     11  H   UNL     1       0.759   0.441  -1.286  0.00  0.00    +0.000 HD
ATOM     12  H   UNL     1       2.821   1.565  -1.124  0.00  0.00    +0.000 HD
ENDROOT
BRANCH   3  13
ATOM     13  C   UNL     1      -0.060  -0.293   0.474  0.00  0.00    +0.000 A 
ATOM     14  C   UNL     1       0.106  -0.706   1.794  0.00  0.00    +0.000 A 
ATOM     15  C   UNL     1      -0.994  -1.143   2.550  0.00  0.00    +0.000 A 
ATOM     16  C   UNL     1      -2.281  -1.190   1.998  0.00  0.00    +0.000 A 
ATOM     17  C   UNL     1      -2.445  -0.749   0.679  0.00  0.00    +0.000 A 
ATOM     18  C   UNL     1      -1.348  -0.299  -0.072  0.00  0.00    +0.000 A 
BRANCH  16  19
ATOM     19  C   UNL     1      -3.412  -1.693   2.782  0.00  0.00    +0.000 A 
ATOM     20  C   UNL     1      -3.625  -1.629   4.104  0.00  0.00    +0.000 A 
ATOM     21  N   UNL     1      -4.800  -2.275   4.404  0.00  0.00    +0.000 N 
ATOM     22  C   UNL     1      -5.357  -2.782   3.223  0.00  0.00    +0.000 A 
ATOM     23  O   UNL     1      -6.380  -3.428   3.104  0.00  0.00    +0.000 OA
ATOM     24  N   UNL     1      -4.465  -2.393   2.217  0.00  0.00    +0.000 N 
ATOM     25  H   UNL     1      -5.211  -2.404   5.314  0.00  0.00    +0.000 HD
ATOM     26  H   UNL     1      -4.574  -2.646   1.255  0.00  0.00    +0.000 HD
ENDBRANCH  16  19
ENDBRANCH   3  13
BRANCH  10  27
ATOM     27  O   UNL     1       4.403  -1.476  -2.456  0.00  0.00    +0.000 OA
BRANCH  27  28
ATOM     28  C   UNL     1       5.001  -2.025  -3.635  0.00  0.00    +0.000 C 
BRANCH  28  29
ATOM     29  C   UNL     1       4.012  -2.928  -4.339  0.00  0.00    +0.000 A 
ATOM     30  C   UNL     1       4.074  -3.105  -5.729  0.00  0.00    +0.000 A 
ATOM     31  C   UNL     1       3.217  -4.005  -6.369  0.00  0.00    +0.000 A 
ATOM     32  C   UNL     1       2.296  -4.741  -5.626  0.00  0.00    +0.000 A 
ATOM     33  C   UNL     1       2.224  -4.574  -4.245  0.00  0.00    +0.000 A 
ATOM     34  C   UNL     1       3.079  -3.679  -3.605  0.00  0.00    +0.000 A 
ENDBRANCH  28  29
ENDBRANCH  27  28
ENDBRANCH  10  27
TORSDOF 5
