REMARK  Name = 
REMARK  6 active torsions:
REMARK  status: ('A' for Active; 'I' for Inactive)
REMARK    1  A    between atoms: C_1  and  O_2
REMARK    2  A    between atoms: O_2  and  C_3
REMARK    3  A    between atoms: C_7  and  C_8
REMARK    4  A    between atoms: C_11  and  C_12
REMARK    5  A    between atoms: N_14  and  C_15
REMARK    6  A    between atoms: N_17  and  C_18
REMARK                            x       y       z     vdW  Elec       q    Type
REMARK                         _______ _______ _______ _____ _____    ______ ____
ROOT
ATOM      1  C   UNL     1      10.015  -1.079  -4.140  0.00  0.00    +0.000 C 
ATOM      2  O   UNL     1      10.977  -0.413  -3.752  0.00  0.00    +0.000 OA
ATOM      3  N   UNL     1      10.095  -2.227  -4.922  0.00  0.00    +0.000 N 
ATOM      4  H   UNL     1       9.227  -2.623  -5.266  0.00  0.00    +0.000 HD
ENDROOT
BRANCH   1   8
ATOM      5  C   UNL     1       6.157   0.228  -3.030  0.00  0.00    +0.000 A 
ATOM      6  C   UNL     1       7.319   0.938  -2.781  0.00  0.00    +0.000 A 
ATOM      7  N   UNL     1       8.549   0.549  -3.144  0.00  0.00    +0.000 NA
ATOM      8  C   UNL     1       8.631  -0.628  -3.790  0.00  0.00    +0.000 A 
ATOM      9  N   UNL     1       7.588  -1.421  -4.118  0.00  0.00    +0.000 NA
ATOM     10  C   UNL     1       6.373  -0.964  -3.714  0.00  0.00    +0.000 A 
BRANCH   5  15
ATOM     11  C   UNL     1       2.689   0.332  -1.471  0.00  0.00    +0.000 A 
ATOM     12  C   UNL     1       2.462   1.706  -1.419  0.00  0.00    +0.000 A 
ATOM     13  C   UNL     1       3.400   2.586  -1.951  0.00  0.00    +0.000 A 
ATOM     14  C   UNL     1       4.573   2.093  -2.521  0.00  0.00    +0.000 A 
ATOM     15  C   UNL     1       4.851   0.713  -2.555  0.00  0.00    +0.000 A 
ATOM     16  C   UNL     1       3.872  -0.155  -2.043  0.00  0.00    +0.000 A 
BRANCH  11  18
ATOM     17  C   UNL     1       0.691  -0.173  -0.290  0.00  0.00    +0.000 C 
ATOM     18  O   UNL     1       1.846  -0.632  -0.986  0.00  0.00    +0.000 OA
ENDBRANCH  11  18
ENDBRANCH   5  15
ENDBRANCH   1   8
BRANCH   3  19
ATOM     19  C   UNL     1      11.300  -2.775  -5.327  0.00  0.00    +0.000 A 
ATOM     20  C   UNL     1      12.547  -2.464  -4.849  0.00  0.00    +0.000 A 
ATOM     21  N   UNL     1      13.473  -3.197  -5.546  0.00  0.00    +0.000 N 
ATOM     22  N   UNL     1      12.857  -4.002  -6.463  0.00  0.00    +0.000 NA
ATOM     23  C   UNL     1      11.552  -3.758  -6.299  0.00  0.00    +0.000 A 
BRANCH  21  24
ATOM     24  C   UNL     1      14.886  -3.172  -5.413  0.00  0.00    +0.000 A 
ATOM     25  C   UNL     1      15.680  -3.859  -6.345  0.00  0.00    +0.000 A 
ATOM     26  C   UNL     1      17.074  -3.830  -6.242  0.00  0.00    +0.000 A 
ATOM     27  C   UNL     1      17.690  -3.124  -5.209  0.00  0.00    +0.000 A 
ATOM     28  C   UNL     1      16.910  -2.448  -4.276  0.00  0.00    +0.000 A 
ATOM     29  C   UNL     1      15.520  -2.473  -4.380  0.00  0.00    +0.000 A 
ATOM     30  F   UNL     1      14.839  -1.824  -3.426  0.00  0.00    +0.000 F 
ENDBRANCH  21  24
ENDBRANCH   3  19
TORSDOF 5
