REMARK  Name = 
REMARK  4 active torsions:
REMARK  status: ('A' for Active; 'I' for Inactive)
REMARK    1  A    between atoms: C_2  and  C_16
REMARK    2  A    between atoms: N_3  and  C_4
REMARK    3  A    between atoms: C_6  and  C_7
REMARK    4  A    between atoms: N_18  and  C_19
REMARK                            x       y       z     vdW  Elec       q    Type
REMARK                         _______ _______ _______ _____ _____    ______ ____
ROOT
ATOM      1  O   UNL     1       0.985   0.153   0.228  0.00  0.00    +0.000 OA
ATOM      2  C   UNL     1       2.212   0.037   0.197  0.00  0.00    +0.000 C 
ATOM      3  N   UNL     1       2.924  -0.981   0.798  0.00  0.00    +0.000 N 
ATOM      4  H   UNL     1       3.916  -0.853   0.948  0.00  0.00    +0.000 HD
ENDROOT
BRANCH   2   5
ATOM      5  C   UNL     1       3.002   1.095  -0.498  0.00  0.00    +0.000 A 
ATOM      6  C   UNL     1       2.354   2.259  -0.682  0.00  0.00    +0.000 A 
ATOM      7  N   UNL     1       2.885   3.304  -1.428  0.00  0.00    +0.000 N 
ATOM      8  C   UNL     1       4.132   3.177  -2.059  0.00  0.00    +0.000 A 
ATOM      9  O   UNL     1       4.666   4.011  -2.789  0.00  0.00    +0.000 OA
ATOM     10  C   UNL     1       4.834   1.873  -1.856  0.00  0.00    +0.000 A 
ATOM     11  C   UNL     1       4.291   0.899  -1.111  0.00  0.00    +0.000 A 
BRANCH   7  12
ATOM     12  C   UNL     1       2.125   4.495  -1.625  0.00  0.00    +0.000 A 
ATOM     13  C   UNL     1       0.789   4.420  -2.050  0.00  0.00    +0.000 A 
ATOM     14  C   UNL     1       0.049   5.587  -2.207  0.00  0.00    +0.000 A 
ATOM     15  F   UNL     1      -1.214   5.511  -2.646  0.00  0.00    +0.000 F 
ATOM     16  C   UNL     1       0.598   6.831  -1.918  0.00  0.00    +0.000 A 
ATOM     17  C   UNL     1       1.920   6.913  -1.487  0.00  0.00    +0.000 A 
ATOM     18  C   UNL     1       2.686   5.750  -1.356  0.00  0.00    +0.000 A 
ENDBRANCH   7  12
ENDBRANCH   2   5
BRANCH   3  19
ATOM     19  C   UNL     1       2.320  -2.109   1.405  0.00  0.00    +0.000 A 
ATOM     20  C   UNL     1       0.994  -2.480   1.131  0.00  0.00    +0.000 A 
ATOM     21  C   UNL     1       0.332  -3.536   1.785  0.00  0.00    +0.000 A 
ATOM     22  C   UNL     1       1.092  -4.256   2.716  0.00  0.00    +0.000 A 
ATOM     23  C   UNL     1       2.434  -3.945   2.968  0.00  0.00    +0.000 A 
ATOM     24  C   UNL     1       3.052  -2.878   2.309  0.00  0.00    +0.000 A 
BRANCH  21  25
ATOM     25  C   UNL     1      -1.198  -3.809   1.478  0.00  0.00    +0.000 C 
ATOM     26  O   UNL     1      -1.804  -4.915   2.222  0.00  0.00    +0.000 OA
ATOM     27  C   UNL     1      -2.529  -5.303   1.025  0.00  0.00    +0.000 C 
ATOM     28  C   UNL     1      -1.604  -4.464   0.136  0.00  0.00    +0.000 C 
ATOM     29  F   UNL     1      -2.212  -3.660  -0.770  0.00  0.00    +0.000 F 
ATOM     30  F   UNL     1      -0.649  -5.152  -0.535  0.00  0.00    +0.000 F 
ENDBRANCH  21  25
ENDBRANCH   3  19
TORSDOF 4
