REMARK  Name = 
REMARK  7 active torsions:
REMARK  status: ('A' for Active; 'I' for Inactive)
REMARK    1  A    between atoms: C_1  and  N_2
REMARK    2  A    between atoms: N_2  and  C_16
REMARK    3  A    between atoms: C_3  and  C_5
REMARK    4  A    between atoms: N_7  and  C_8
REMARK    5  A    between atoms: C_20  and  C_21
REMARK    6  A    between atoms: C_21  and  O_22
REMARK    7  A    between atoms: C_21  and  C_23
REMARK                            x       y       z     vdW  Elec       q    Type
REMARK                         _______ _______ _______ _____ _____    ______ ____
ROOT
ATOM      1  C   UNL     1       2.700  -0.512   1.410  0.00  0.00    +0.000 C 
ATOM      2  N   UNL     1       2.461  -0.088   0.026  0.00  0.00    +0.000 N 
ATOM      3  C   UNL     1       1.668   1.035  -0.310  0.00  0.00    +0.000 C 
ATOM      4  O   UNL     1       1.712   1.585  -1.411  0.00  0.00    +0.000 OA
ENDROOT
BRANCH   2   5
ATOM      5  C   UNL     1       3.183  -0.816  -1.002  0.00  0.00    +0.000 A 
ATOM      6  C   UNL     1       2.755  -0.822  -2.337  0.00  0.00    +0.000 A 
ATOM      7  C   UNL     1       3.452  -1.527  -3.325  0.00  0.00    +0.000 A 
ATOM      8  C   UNL     1       4.609  -2.229  -3.002  0.00  0.00    +0.000 A 
ATOM      9  C   UNL     1       5.078  -2.244  -1.686  0.00  0.00    +0.000 A 
ATOM     10  C   UNL     1       4.336  -1.558  -0.696  0.00  0.00    +0.000 A 
BRANCH   9  11
ATOM     11  C   UNL     1       6.393  -2.910  -1.307  0.00  0.00    +0.000 C 
BRANCH  11  12
ATOM     12  C   UNL     1       7.598  -2.264  -1.977  0.00  0.00    +0.000 A 
ATOM     13  C   UNL     1       7.886  -0.907  -1.740  0.00  0.00    +0.000 A 
ATOM     14  C   UNL     1       8.950  -0.278  -2.389  0.00  0.00    +0.000 A 
ATOM     15  C   UNL     1       9.751  -0.998  -3.272  0.00  0.00    +0.000 A 
ATOM     16  C   UNL     1       9.499  -2.349  -3.493  0.00  0.00    +0.000 A 
ATOM     17  C   UNL     1       8.434  -2.980  -2.847  0.00  0.00    +0.000 A 
ENDBRANCH  11  12
BRANCH  11  18
ATOM     18  O   UNL     1       6.337  -4.310  -1.581  0.00  0.00    +0.000 OA
ATOM     19  H   UNL     1       5.754  -4.433  -2.345  0.00  0.00    +0.000 HD
ENDBRANCH  11  18
ENDBRANCH   9  11
ENDBRANCH   2   5
BRANCH   3  20
ATOM     20  C   UNL     1       0.786   1.634   0.686  0.00  0.00    +0.000 A 
ATOM     21  C   UNL     1       0.068   1.076   1.723  0.00  0.00    +0.000 A 
ATOM     22  N   UNL     1      -0.620   2.094   2.346  0.00  0.00    +0.000 N 
ATOM     23  N   UNL     1      -0.447   3.281   1.710  0.00  0.00    +0.000 NA
ATOM     24  C   UNL     1       0.388   2.991   0.711  0.00  0.00    +0.000 A 
BRANCH  22  25
ATOM     25  C   UNL     1      -1.416   1.964   3.522  0.00  0.00    +0.000 A 
ATOM     26  C   UNL     1      -2.133   3.068   3.975  0.00  0.00    +0.000 A 
ATOM     27  C   UNL     1      -2.904   2.932   5.125  0.00  0.00    +0.000 A 
ATOM     28  C   UNL     1      -2.922   1.711   5.793  0.00  0.00    +0.000 A 
ATOM     29  C   UNL     1      -2.174   0.667   5.278  0.00  0.00    +0.000 A 
ATOM     30  N   UNL     1      -1.430   0.759   4.159  0.00  0.00    +0.000 NA
ENDBRANCH  22  25
ENDBRANCH   3  20
TORSDOF 6
