REMARK  Name = 
REMARK  5 active torsions:
REMARK  status: ('A' for Active; 'I' for Inactive)
REMARK    1  A    between atoms: C_1  and  N_2
REMARK    2  A    between atoms: C_4  and  N_5
REMARK    3  A    between atoms: C_6  and  C_8
REMARK    4  A    between atoms: N_12  and  C_13
REMARK    5  A    between atoms: C_20  and  C_21
REMARK                            x       y       z     vdW  Elec       q    Type
REMARK                         _______ _______ _______ _____ _____    ______ ____
ROOT
ATOM      1  N   UNL     1       2.590  -1.633  -0.074  0.00  0.00    +0.000 N 
ATOM      2  C   UNL     1       2.551  -2.994  -0.232  0.00  0.00    +0.000 C 
ATOM      3  O   UNL     1       1.548  -3.706  -0.268  0.00  0.00    +0.000 OA
ATOM      4  H   UNL     1       3.493  -1.195   0.081  0.00  0.00    +0.000 HD
ENDROOT
BRANCH   2   5
ATOM      5  C   UNL     1       3.903  -3.601  -0.364  0.00  0.00    +0.000 A 
ATOM      6  C   UNL     1       4.122  -4.906  -0.167  0.00  0.00    +0.000 A 
ATOM      7  C   UNL     1       5.476  -5.146  -0.706  0.00  0.00    +0.000 A 
ATOM      8  O   UNL     1       5.981  -6.255  -0.749  0.00  0.00    +0.000 OA
ATOM      9  N   UNL     1       5.955  -3.909  -1.140  0.00  0.00    +0.000 N 
ATOM     10  N   UNL     1       5.004  -2.909  -0.857  0.00  0.00    +0.000 N 
ATOM     11  H   UNL     1       4.749  -2.364  -1.683  0.00  0.00    +0.000 HD
BRANCH   9  12
ATOM     12  C   UNL     1       7.122  -3.608  -1.865  0.00  0.00    +0.000 A 
ATOM     13  C   UNL     1       7.853  -4.614  -2.510  0.00  0.00    +0.000 A 
ATOM     14  C   UNL     1       8.997  -4.302  -3.248  0.00  0.00    +0.000 A 
ATOM     15  C   UNL     1       9.439  -2.984  -3.325  0.00  0.00    +0.000 A 
ATOM     16  C   UNL     1       8.733  -1.976  -2.675  0.00  0.00    +0.000 A 
ATOM     17  C   UNL     1       7.572  -2.284  -1.961  0.00  0.00    +0.000 A 
ENDBRANCH   9  12
ENDBRANCH   2   5
BRANCH   1  21
ATOM     18  C   UNL     1      -1.922   0.184  -0.631  0.00  0.00    +0.000 C 
ATOM     19  N   UNL     1      -0.544  -0.004  -0.247  0.00  0.00    +0.000 N 
ATOM     20  C   UNL     1       0.210  -1.114  -0.455  0.00  0.00    +0.000 A 
ATOM     21  C   UNL     1       1.478  -0.806  -0.022  0.00  0.00    +0.000 A 
ATOM     22  C   UNL     1       1.386   0.543   0.458  0.00  0.00    +0.000 A 
ATOM     23  N   UNL     1       0.126   1.002   0.338  0.00  0.00    +0.000 NA
BRANCH  22  24
ATOM     24  C   UNL     1       2.423   1.384   1.061  0.00  0.00    +0.000 A 
ATOM     25  C   UNL     1       2.092   2.313   2.063  0.00  0.00    +0.000 A 
ATOM     26  C   UNL     1       3.083   3.108   2.649  0.00  0.00    +0.000 A 
ATOM     27  C   UNL     1       4.405   2.972   2.237  0.00  0.00    +0.000 A 
ATOM     28  F   UNL     1       5.353   3.729   2.798  0.00  0.00    +0.000 F 
ATOM     29  C   UNL     1       4.756   2.068   1.249  0.00  0.00    +0.000 A 
ATOM     30  C   UNL     1       3.763   1.289   0.663  0.00  0.00    +0.000 A 
ATOM     31  F   UNL     1       4.140   0.436  -0.302  0.00  0.00    +0.000 F 
ENDBRANCH  22  24
ENDBRANCH   1  21
TORSDOF 4
