REMARK  Name = 
REMARK  4 active torsions:
REMARK  status: ('A' for Active; 'I' for Inactive)
REMARK    1  A    between atoms: C_2  and  C_17
REMARK    2  A    between atoms: N_3  and  C_4
REMARK    3  A    between atoms: C_4  and  C_5
REMARK    4  A    between atoms: C_8  and  C_9
REMARK                            x       y       z     vdW  Elec       q    Type
REMARK                         _______ _______ _______ _____ _____    ______ ____
ROOT
ATOM      1  O   UNL     1       1.579  -0.100   0.324  0.00  0.00    +0.000 OA
ATOM      2  C   UNL     1       2.730  -0.527   0.414  0.00  0.00    +0.000 C 
ATOM      3  N   UNL     1       3.260  -1.358  -0.539  0.00  0.00    +0.000 N 
ATOM      4  H   UNL     1       4.238  -1.623  -0.530  0.00  0.00    +0.000 HD
ENDROOT
BRANCH   2   5
ATOM      5  C   UNL     1       3.614  -0.088   1.567  0.00  0.00    +0.000 A 
ATOM      6  C   UNL     1       4.960  -0.183   1.439  0.00  0.00    +0.000 A 
ATOM      7  N   UNL     1       5.712   0.728   0.684  0.00  0.00    +0.000 N 
ATOM      8  C   UNL     1       5.069   1.906   0.231  0.00  0.00    +0.000 A 
ATOM      9  C   UNL     1       3.813   2.253   0.783  0.00  0.00    +0.000 A 
ATOM     10  C   UNL     1       3.011   3.249   0.245  0.00  0.00    +0.000 A 
ATOM     11  C   UNL     1       3.472   3.890  -0.896  0.00  0.00    +0.000 A 
ATOM     12  F   UNL     1       2.669   4.758  -1.525  0.00  0.00    +0.000 F 
ATOM     13  C   UNL     1       4.732   3.598  -1.427  0.00  0.00    +0.000 A 
ATOM     14  F   UNL     1       5.140   4.206  -2.549  0.00  0.00    +0.000 F 
ATOM     15  C   UNL     1       5.555   2.630  -0.851  0.00  0.00    +0.000 A 
ATOM     16  C   UNL     1       3.330   1.363   1.867  0.00  0.00    +0.000 A 
ATOM     17  O   UNL     1       2.802   1.769   2.890  0.00  0.00    +0.000 OA
ATOM     18  H   UNL     1       6.692   0.848   0.942  0.00  0.00    +0.000 HD
ENDBRANCH   2   5
BRANCH   3  19
ATOM     19  C   UNL     1       2.492  -1.634  -1.739  0.00  0.00    +0.000 C 
BRANCH  19  20
ATOM     20  C   UNL     1       3.232  -2.516  -2.685  0.00  0.00    +0.000 A 
ATOM     21  N   UNL     1       2.705  -2.871  -3.865  0.00  0.00    +0.000 NA
ATOM     22  O   UNL     1       3.670  -3.719  -4.403  0.00  0.00    +0.000 OA
ATOM     23  C   UNL     1       4.686  -3.794  -3.493  0.00  0.00    +0.000 A 
ATOM     24  N   UNL     1       4.478  -3.046  -2.425  0.00  0.00    +0.000 NA
BRANCH  23  25
ATOM     25  C   UNL     1       5.800  -4.680  -3.826  0.00  0.00    +0.000 A 
ATOM     26  C   UNL     1       5.773  -5.502  -4.971  0.00  0.00    +0.000 A 
ATOM     27  C   UNL     1       6.830  -6.379  -5.243  0.00  0.00    +0.000 A 
ATOM     28  C   UNL     1       7.916  -6.427  -4.383  0.00  0.00    +0.000 A 
ATOM     29  F   UNL     1       8.921  -7.274  -4.640  0.00  0.00    +0.000 F 
ATOM     30  C   UNL     1       7.974  -5.617  -3.255  0.00  0.00    +0.000 A 
ATOM     31  C   UNL     1       6.917  -4.744  -2.978  0.00  0.00    +0.000 A 
ENDBRANCH  23  25
ENDBRANCH  19  20
ENDBRANCH   3  19
TORSDOF 4
