REMARK  Name = 
REMARK  5 active torsions:
REMARK  status: ('A' for Active; 'I' for Inactive)
REMARK    1  A    between atoms: C_2  and  C_19
REMARK    2  A    between atoms: N_3  and  C_4
REMARK    3  A    between atoms: C_4  and  C_5
REMARK    4  A    between atoms: C_7  and  O_8
REMARK    5  A    between atoms: O_8  and  C_9
REMARK                            x       y       z     vdW  Elec       q    Type
REMARK                         _______ _______ _______ _____ _____    ______ ____
ROOT
ATOM      1  O   UNL     1       3.014   0.084  -2.511  0.00  0.00    +0.000 OA
ATOM      2  C   UNL     1       3.305   0.057  -1.319  0.00  0.00    +0.000 C 
ATOM      3  N   UNL     1       3.052  -1.033  -0.517  0.00  0.00    +0.000 N 
ATOM      4  H   UNL     1       3.366  -1.003   0.447  0.00  0.00    +0.000 HD
ENDROOT
BRANCH   2   5
ATOM      5  C   UNL     1       3.938   1.247  -0.652  0.00  0.00    +0.000 A 
ATOM      6  C   UNL     1       4.161   2.385  -1.424  0.00  0.00    +0.000 A 
ATOM      7  C   UNL     1       4.685   3.516  -0.811  0.00  0.00    +0.000 A 
ATOM      8  C   UNL     1       4.970   3.477   0.548  0.00  0.00    +0.000 A 
ATOM      9  C   UNL     1       4.730   2.299   1.260  0.00  0.00    +0.000 A 
ATOM     10  N   UNL     1       5.031   2.293   2.660  0.00  0.00    +0.000 N 
ATOM     11  C   UNL     1       4.925   1.224   3.524  0.00  0.00    +0.000 A 
ATOM     12  C   UNL     1       5.309   1.669   4.768  0.00  0.00    +0.000 A 
ATOM     13  C   UNL     1       5.630   3.021   4.575  0.00  0.00    +0.000 A 
ATOM     14  N   UNL     1       5.480   3.409   3.308  0.00  0.00    +0.000 NA
ATOM     15  N   UNL     1       4.216   1.167   0.683  0.00  0.00    +0.000 NA
ENDBRANCH   2   5
BRANCH   3  16
ATOM     16  C   UNL     1       2.342  -2.203  -1.009  0.00  0.00    +0.000 C 
BRANCH  16  17
ATOM     17  C   UNL     1       3.253  -3.251  -1.610  0.00  0.00    +0.000 A 
ATOM     18  C   UNL     1       3.625  -3.162  -2.947  0.00  0.00    +0.000 A 
ATOM     19  C   UNL     1       4.553  -4.071  -3.453  0.00  0.00    +0.000 A 
ATOM     20  C   UNL     1       4.990  -5.115  -2.648  0.00  0.00    +0.000 A 
ATOM     21  C   UNL     1       4.537  -5.159  -1.342  0.00  0.00    +0.000 A 
ATOM     22  N   UNL     1       3.703  -4.244  -0.798  0.00  0.00    +0.000 NA
BRANCH  19  23
ATOM     23  O   UNL     1       5.055  -4.036  -4.736  0.00  0.00    +0.000 OA
BRANCH  23  24
ATOM     24  C   UNL     1       5.217  -2.822  -5.369  0.00  0.00    +0.000 A 
ATOM     25  C   UNL     1       5.566  -1.638  -4.717  0.00  0.00    +0.000 A 
ATOM     26  C   UNL     1       5.631  -0.453  -5.439  0.00  0.00    +0.000 A 
ATOM     27  F   UNL     1       5.893   0.694  -4.798  0.00  0.00    +0.000 F 
ATOM     28  C   UNL     1       5.420  -0.436  -6.813  0.00  0.00    +0.000 A 
ATOM     29  C   UNL     1       5.151  -1.631  -7.480  0.00  0.00    +0.000 A 
ATOM     30  C   UNL     1       5.049  -2.823  -6.758  0.00  0.00    +0.000 A 
ENDBRANCH  23  24
ENDBRANCH  19  23
ENDBRANCH  16  17
ENDBRANCH   3  16
TORSDOF 5
