REMARK  Name = 
REMARK  10 active torsions:
REMARK  status: ('A' for Active; 'I' for Inactive)
REMARK    1  A    between atoms: C_1  and  O_2
REMARK    2  A    between atoms: O_2  and  C_3
REMARK    3  A    between atoms: C_5  and  C_6
REMARK    4  A    between atoms: N_8  and  C_9
REMARK    5  A    between atoms: C_9  and  C_10
REMARK    6  A    between atoms: C_12  and  O_13
REMARK    7  A    between atoms: O_13  and  C_14
REMARK    8  A    between atoms: C_27  and  O_28
REMARK    9  A    between atoms: O_28  and  C_29
REMARK   10  A    between atoms: C_29  and  C_30
REMARK                            x       y       z     vdW  Elec       q    Type
REMARK                         _______ _______ _______ _____ _____    ______ ____
ROOT
ATOM      1  C   UNL     1       2.737  -4.735   1.225  0.00  0.00    +0.000 C 
ATOM      2  O   UNL     1       1.775  -4.897   0.481  0.00  0.00    +0.000 OA
ATOM      3  N   UNL     1       3.342  -5.775   1.897  0.00  0.00    +0.000 N 
ATOM      4  H   UNL     1       4.096  -5.635   2.546  0.00  0.00    +0.000 HD
ENDROOT
BRANCH   1   7
ATOM      5  C   UNL     1       4.883  -1.831   2.482  0.00  0.00    +0.000 A 
ATOM      6  C   UNL     1       4.361  -3.117   2.311  0.00  0.00    +0.000 A 
ATOM      7  C   UNL     1       3.311  -3.363   1.426  0.00  0.00    +0.000 A 
ATOM      8  C   UNL     1       2.780  -2.285   0.711  0.00  0.00    +0.000 A 
ATOM      9  C   UNL     1       3.296  -0.984   0.869  0.00  0.00    +0.000 A 
ATOM     10 CL   UNL     1       2.450   0.250   0.001  0.00  0.00    +0.000 Cl
ATOM     11  C   UNL     1       4.382  -0.745   1.733  0.00  0.00    +0.000 A 
BRANCH   5  13
ATOM     12  C   UNL     1       6.029  -2.442   4.476  0.00  0.00    +0.000 C 
ATOM     13  O   UNL     1       5.937  -1.585   3.337  0.00  0.00    +0.000 OA
ENDBRANCH   5  13
BRANCH  11  14
ATOM     14  O   UNL     1       5.000   0.451   2.011  0.00  0.00    +0.000 OA
BRANCH  14  15
ATOM     15  C   UNL     1       5.049   1.456   1.006  0.00  0.00    +0.000 C 
BRANCH  15  16
ATOM     16  C   UNL     1       6.253   2.391   1.157  0.00  0.00    +0.000 C 
ATOM     17  N   UNL     1       7.130   2.092   2.158  0.00  0.00    +0.000 N 
ATOM     18  O   UNL     1       6.445   3.358   0.424  0.00  0.00    +0.000 OA
ATOM     19  H   UNL     1       6.976   1.292   2.760  0.00  0.00    +0.000 HD
ATOM     20  H   UNL     1       7.939   2.682   2.290  0.00  0.00    +0.000 HD
ENDBRANCH  15  16
ENDBRANCH  14  15
ENDBRANCH  11  14
ENDBRANCH   1   7
BRANCH   3  21
ATOM     21  C   UNL     1       2.873  -7.140   1.826  0.00  0.00    +0.000 C 
BRANCH  21  22
ATOM     22  C   UNL     1       1.849  -7.468   2.888  0.00  0.00    +0.000 A 
ATOM     23  C   UNL     1       0.499  -7.337   2.592  0.00  0.00    +0.000 A 
ATOM     24  C   UNL     1      -0.434  -7.851   3.488  0.00  0.00    +0.000 A 
ATOM     25  C   UNL     1      -0.005  -8.336   4.717  0.00  0.00    +0.000 A 
ATOM     26  C   UNL     1       1.355  -8.348   4.971  0.00  0.00    +0.000 A 
ATOM     27  N   UNL     1       2.292  -7.945   4.081  0.00  0.00    +0.000 NA
BRANCH  24  28
ATOM     28  O   UNL     1      -1.789  -7.900   3.245  0.00  0.00    +0.000 OA
BRANCH  28  29
ATOM     29  C   UNL     1      -2.239  -8.075   1.953  0.00  0.00    +0.000 A 
ATOM     30  C   UNL     1      -1.585  -8.854   0.989  0.00  0.00    +0.000 A 
ATOM     31  C   UNL     1      -2.074  -8.918  -0.318  0.00  0.00    +0.000 A 
ATOM     32  C   UNL     1      -3.256  -8.259  -0.645  0.00  0.00    +0.000 A 
ATOM     33  C   UNL     1      -3.942  -7.553   0.338  0.00  0.00    +0.000 A 
ATOM     34  F   UNL     1      -5.098  -6.952   0.028  0.00  0.00    +0.000 F 
ATOM     35  C   UNL     1      -3.446  -7.455   1.633  0.00  0.00    +0.000 A 
ENDBRANCH  28  29
ENDBRANCH  24  28
ENDBRANCH  21  22
ENDBRANCH   3  21
TORSDOF 9
