REMARK  Name = 
REMARK  4 active torsions:
REMARK  status: ('A' for Active; 'I' for Inactive)
REMARK    1  A    between atoms: C_2  and  C_20
REMARK    2  A    between atoms: N_3  and  C_4
REMARK    3  A    between atoms: N_6  and  C_7
REMARK    4  A    between atoms: C_7  and  C_8
REMARK                            x       y       z     vdW  Elec       q    Type
REMARK                         _______ _______ _______ _____ _____    ______ ____
ROOT
ATOM      1  C   UNL     1       2.342  -0.881  -2.343  0.00  0.00    +0.000 A 
ATOM      2  C   UNL     1       1.168  -0.259  -2.555  0.00  0.00    +0.000 A 
ATOM      3  N   UNL     1       0.307  -0.645  -3.578  0.00  0.00    +0.000 N 
ATOM      4  C   UNL     1       0.582  -1.728  -4.407  0.00  0.00    +0.000 A 
ATOM      5  O   UNL     1      -0.137  -2.119  -5.323  0.00  0.00    +0.000 OA
ATOM      6  C   UNL     1       1.873  -2.423  -4.159  0.00  0.00    +0.000 A 
ATOM      7  C   UNL     1       2.705  -1.986  -3.204  0.00  0.00    +0.000 A 
ENDROOT
BRANCH   1  10
ATOM      8  O   UNL     1       1.952   0.636   0.156  0.00  0.00    +0.000 OA
ATOM      9  C   UNL     1       3.033   0.197  -0.212  0.00  0.00    +0.000 C 
ATOM     10  N   UNL     1       3.253  -0.543  -1.372  0.00  0.00    +0.000 N 
ATOM     11  H   UNL     1       4.190  -0.930  -1.451  0.00  0.00    +0.000 HD
BRANCH   9  12
ATOM     12  C   UNL     1       4.276   0.375   0.612  0.00  0.00    +0.000 A 
ATOM     13  N   UNL     1       4.154   0.849   1.867  0.00  0.00    +0.000 NA
ATOM     14  N   UNL     1       5.287   1.015   2.610  0.00  0.00    +0.000 NA
ATOM     15  C   UNL     1       6.485   0.733   2.070  0.00  0.00    +0.000 A 
ATOM     16  C   UNL     1       7.668   0.924   2.781  0.00  0.00    +0.000 A 
ATOM     17  C   UNL     1       8.908   0.657   2.200  0.00  0.00    +0.000 A 
ATOM     18  C   UNL     1       8.964   0.186   0.894  0.00  0.00    +0.000 A 
ATOM     19  C   UNL     1       7.780  -0.023   0.186  0.00  0.00    +0.000 A 
ATOM     20  C   UNL     1       6.541   0.243   0.753  0.00  0.00    +0.000 A 
ATOM     21  N   UNL     1       5.442   0.034   0.014  0.00  0.00    +0.000 NA
ENDBRANCH   9  12
ENDBRANCH   1  10
BRANCH   3  22
ATOM     22  C   UNL     1      -0.869   0.170  -3.867  0.00  0.00    +0.000 C 
BRANCH  22  23
ATOM     23  C   UNL     1      -2.130  -0.262  -3.163  0.00  0.00    +0.000 A 
ATOM     24  C   UNL     1      -2.974  -1.235  -3.723  0.00  0.00    +0.000 A 
ATOM     25  C   UNL     1      -4.203  -1.528  -3.128  0.00  0.00    +0.000 A 
ATOM     26  C   UNL     1      -4.579  -0.865  -1.964  0.00  0.00    +0.000 A 
ATOM     27  F   UNL     1      -5.776  -1.120  -1.419  0.00  0.00    +0.000 F 
ATOM     28  C   UNL     1      -3.741   0.066  -1.368  0.00  0.00    +0.000 A 
ATOM     29  C   UNL     1      -2.522   0.357  -1.971  0.00  0.00    +0.000 A 
ATOM     30  F   UNL     1      -1.734   1.286  -1.413  0.00  0.00    +0.000 F 
ENDBRANCH  22  23
ENDBRANCH   3  22
TORSDOF 4
