REMARK  Name = 
REMARK  5 active torsions:
REMARK  status: ('A' for Active; 'I' for Inactive)
REMARK    1  A    between atoms: C_2  and  C_16
REMARK    2  A    between atoms: N_3  and  C_4
REMARK    3  A    between atoms: C_4  and  C_5
REMARK    4  A    between atoms: C_9  and  C_10
REMARK    5  A    between atoms: N_21  and  C_22
REMARK                            x       y       z     vdW  Elec       q    Type
REMARK                         _______ _______ _______ _____ _____    ______ ____
ROOT
ATOM      1  O   UNL     1       0.936  -0.096   0.435  0.00  0.00    +0.000 OA
ATOM      2  C   UNL     1       2.143  -0.025   0.228  0.00  0.00    +0.000 C 
ATOM      3  N   UNL     1       2.858   1.124   0.427  0.00  0.00    +0.000 N 
ATOM      4  H   UNL     1       3.848   1.140   0.180  0.00  0.00    +0.000 HD
ENDROOT
BRANCH   2   5
ATOM      5  C   UNL     1       2.909  -1.198  -0.283  0.00  0.00    +0.000 A 
ATOM      6  C   UNL     1       2.230  -2.319  -0.537  0.00  0.00    +0.000 A 
ATOM      7  N   UNL     1       2.832  -3.416  -1.077  0.00  0.00    +0.000 N 
ATOM      8  C   UNL     1       4.166  -3.491  -1.403  0.00  0.00    +0.000 A 
ATOM      9  O   UNL     1       4.585  -4.520  -1.925  0.00  0.00    +0.000 OA
ATOM     10  N   UNL     1       4.924  -2.372  -1.057  0.00  0.00    +0.000 N 
ATOM     11  C   UNL     1       4.372  -1.195  -0.547  0.00  0.00    +0.000 A 
ATOM     12  O   UNL     1       5.011  -0.155  -0.353  0.00  0.00    +0.000 OA
ATOM     13  H   UNL     1       2.292  -4.253  -1.281  0.00  0.00    +0.000 HD
BRANCH  10  14
ATOM     14  C   UNL     1       6.335  -2.422  -1.245  0.00  0.00    +0.000 A 
ATOM     15  C   UNL     1       6.885  -2.721  -2.498  0.00  0.00    +0.000 A 
ATOM     16  C   UNL     1       8.270  -2.756  -2.664  0.00  0.00    +0.000 A 
ATOM     17  C   UNL     1       9.112  -2.530  -1.575  0.00  0.00    +0.000 A 
ATOM     18  C   UNL     1       8.573  -2.247  -0.322  0.00  0.00    +0.000 A 
ATOM     19  C   UNL     1       7.189  -2.174  -0.161  0.00  0.00    +0.000 A 
ENDBRANCH  10  14
ENDBRANCH   2   5
BRANCH   3  20
ATOM     20  C   UNL     1       2.236   2.361   0.838  0.00  0.00    +0.000 C 
BRANCH  20  21
ATOM     21  C   UNL     1       3.167   3.163   1.705  0.00  0.00    +0.000 A 
ATOM     22  C   UNL     1       3.130   3.025   3.098  0.00  0.00    +0.000 A 
ATOM     23  C   UNL     1       4.004   3.753   3.903  0.00  0.00    +0.000 A 
ATOM     24  C   UNL     1       4.952   4.599   3.322  0.00  0.00    +0.000 A 
ATOM     25  C   UNL     1       5.045   4.713   1.929  0.00  0.00    +0.000 A 
ATOM     26  C   UNL     1       4.128   4.008   1.132  0.00  0.00    +0.000 A 
BRANCH  25  27
ATOM     27  C   UNL     1       6.120   5.472   1.301  0.00  0.00    +0.000 A 
ATOM     28  C   UNL     1       6.752   5.381   0.076  0.00  0.00    +0.000 A 
ATOM     29  C   UNL     1       7.772   6.360   0.070  0.00  0.00    +0.000 A 
ATOM     30  C   UNL     1       7.691   7.001   1.283  0.00  0.00    +0.000 A 
ATOM     31  O   UNL     1       6.693   6.469   2.038  0.00  0.00    +0.000 OA
ENDBRANCH  25  27
ENDBRANCH  20  21
ENDBRANCH   3  20
TORSDOF 5
