REMARK  Name = 
REMARK  4 active torsions:
REMARK  status: ('A' for Active; 'I' for Inactive)
REMARK    1  A    between atoms: C_2  and  C_3
REMARK    2  A    between atoms: C_3  and  C_4
REMARK    3  A    between atoms: C_7  and  C_8
REMARK    4  A    between atoms: N_21  and  C_22
REMARK                            x       y       z     vdW  Elec       q    Type
REMARK                         _______ _______ _______ _____ _____    ______ ____
ROOT
ATOM      1  O   UNL     1       0.956  -0.126  -0.037  0.00  0.00    +0.000 OA
ATOM      2  C   UNL     1       2.183  -0.170  -0.040  0.00  0.00    +0.000 C 
ATOM      3  N   UNL     1       3.028   0.420   0.877  0.00  0.00    +0.000 N 
ATOM      4  C   UNL     1       2.574   1.151   1.956  0.00  0.00    +0.000 A 
ATOM      5  N   UNL     1       1.383   1.111   2.509  0.00  0.00    +0.000 NA
ATOM      6  C   UNL     1       1.530   1.838   3.648  0.00  0.00    +0.000 A 
ATOM      7  N   UNL     1       2.752   2.324   3.865  0.00  0.00    +0.000 NA
ATOM      8  N   UNL     1       3.386   2.007   2.706  0.00  0.00    +0.000 N 
ATOM      9  H   UNL     1       4.010   0.482   0.646  0.00  0.00    +0.000 HD
ENDROOT
BRANCH   8  10
ATOM     10  C   UNL     1       4.657   2.559   2.405  0.00  0.00    +0.000 A 
ATOM     11  C   UNL     1       5.494   2.992   3.446  0.00  0.00    +0.000 A 
ATOM     12  C   UNL     1       6.744   3.544   3.147  0.00  0.00    +0.000 A 
ATOM     13  C   UNL     1       7.136   3.691   1.821  0.00  0.00    +0.000 A 
ATOM     14  F   UNL     1       8.329   4.228   1.538  0.00  0.00    +0.000 F 
ATOM     15  C   UNL     1       6.310   3.293   0.782  0.00  0.00    +0.000 A 
ATOM     16  C   UNL     1       5.075   2.730   1.081  0.00  0.00    +0.000 A 
ATOM     17  F   UNL     1       4.288   2.409   0.047  0.00  0.00    +0.000 F 
ENDBRANCH   8  10
BRANCH   2  18
ATOM     18  C   UNL     1       2.946  -0.907  -1.134  0.00  0.00    +0.000 C 
BRANCH  18  19
ATOM     19  C   UNL     1       2.711  -0.311  -2.474  0.00  0.00    +0.000 A 
ATOM     20  C   UNL     1       1.532  -0.181  -3.167  0.00  0.00    +0.000 A 
ATOM     21  O   UNL     1       1.810   0.380  -4.376  0.00  0.00    +0.000 OA
ATOM     22  C   UNL     1       3.170   0.562  -4.365  0.00  0.00    +0.000 A 
ATOM     23  N   UNL     1       3.752   0.165  -3.248  0.00  0.00    +0.000 NA
BRANCH  22  24
ATOM     24  C   UNL     1       3.757   1.127  -5.582  0.00  0.00    +0.000 A 
ATOM     25  C   UNL     1       2.957   1.538  -6.663  0.00  0.00    +0.000 A 
ATOM     26  C   UNL     1       3.534   2.056  -7.826  0.00  0.00    +0.000 A 
ATOM     27  C   UNL     1       4.916   2.169  -7.910  0.00  0.00    +0.000 A 
ATOM     28  F   UNL     1       5.471   2.659  -9.026  0.00  0.00    +0.000 F 
ATOM     29  C   UNL     1       5.731   1.778  -6.855  0.00  0.00    +0.000 A 
ATOM     30  C   UNL     1       5.152   1.260  -5.691  0.00  0.00    +0.000 A 
ENDBRANCH  22  24
ENDBRANCH  18  19
ENDBRANCH   2  18
TORSDOF 4
