REMARK  Name = 
REMARK  4 active torsions:
REMARK  status: ('A' for Active; 'I' for Inactive)
REMARK    1  A    between atoms: C_2  and  C_19
REMARK    2  A    between atoms: N_3  and  C_4
REMARK    3  A    between atoms: C_5  and  C_6
REMARK    4  A    between atoms: N_10  and  C_11
REMARK                            x       y       z     vdW  Elec       q    Type
REMARK                         _______ _______ _______ _____ _____    ______ ____
ROOT
ATOM      1  O   UNL     1       0.548   0.374   0.046  0.00  0.00    +0.000 OA
ATOM      2  C   UNL     1       1.767   0.329   0.070  0.00  0.00    +0.000 C 
ATOM      3  N   UNL     1       2.550  -0.473   0.888  0.00  0.00    +0.000 N 
ATOM      4  H   UNL     1       3.509  -0.183   1.075  0.00  0.00    +0.000 HD
ENDROOT
BRANCH   2   5
ATOM      5  C   UNL     1       2.560   1.274  -0.745  0.00  0.00    +0.000 A 
ATOM      6  C   UNL     1       2.279   2.646  -0.738  0.00  0.00    +0.000 A 
ATOM      7  C   UNL     1       3.215   3.559  -1.252  0.00  0.00    +0.000 A 
ATOM      8  C   UNL     1       4.470   3.109  -1.670  0.00  0.00    +0.000 A 
ATOM      9  C   UNL     1       4.739   1.734  -1.653  0.00  0.00    +0.000 A 
ATOM     10  C   UNL     1       3.752   0.823  -1.327  0.00  0.00    +0.000 A 
ATOM     11  C   UNL     1       4.042  -0.590  -1.525  0.00  0.00    +0.000 A 
ATOM     12  N   UNL     1       5.246  -1.058  -1.573  0.00  0.00    +0.000 NA
ATOM     13  N   UNL     1       6.261  -0.146  -1.530  0.00  0.00    +0.000 N 
ATOM     14  C   UNL     1       6.115   1.208  -1.771  0.00  0.00    +0.000 A 
ATOM     15  O   UNL     1       7.072   1.952  -1.958  0.00  0.00    +0.000 OA
ATOM     16  H   UNL     1       7.203  -0.527  -1.515  0.00  0.00    +0.000 HD
ENDBRANCH   2   5
BRANCH   3  17
ATOM     17  C   UNL     1       2.043  -1.448   1.720  0.00  0.00    +0.000 A 
ATOM     18  C   UNL     1       2.592  -1.783   2.943  0.00  0.00    +0.000 A 
ATOM     19  N   UNL     1       1.708  -2.672   3.530  0.00  0.00    +0.000 N 
ATOM     20  N   UNL     1       0.727  -3.027   2.645  0.00  0.00    +0.000 NA
ATOM     21  C   UNL     1       0.923  -2.268   1.572  0.00  0.00    +0.000 A 
BRANCH  19  22
ATOM     22  C   UNL     1       1.631  -3.208   4.855  0.00  0.00    +0.000 A 
ATOM     23  C   UNL     1       0.387  -3.701   5.295  0.00  0.00    +0.000 A 
ATOM     24  C   UNL     1       0.234  -4.221   6.582  0.00  0.00    +0.000 A 
ATOM     25  C   UNL     1       1.323  -4.272   7.443  0.00  0.00    +0.000 A 
ATOM     26  C   UNL     1       2.560  -3.795   7.020  0.00  0.00    +0.000 A 
ATOM     27  C   UNL     1       2.716  -3.262   5.734  0.00  0.00    +0.000 A 
ENDBRANCH  19  22
BRANCH  18  28
ATOM     28  C   UNL     1       3.734  -1.163   3.619  0.00  0.00    +0.000 C 
ATOM     29  F   UNL     1       4.288  -0.183   2.846  0.00  0.00    +0.000 F 
ATOM     30  F   UNL     1       3.397  -0.568   4.787  0.00  0.00    +0.000 F 
ATOM     31  F   UNL     1       4.740  -2.035   3.865  0.00  0.00    +0.000 F 
ENDBRANCH  18  28
ENDBRANCH   3  17
TORSDOF 4
