REMARK  Name = 
REMARK  5 active torsions:
REMARK  status: ('A' for Active; 'I' for Inactive)
REMARK    1  A    between atoms: C_2  and  C_17
REMARK    2  A    between atoms: N_3  and  C_4
REMARK    3  A    between atoms: C_4  and  C_5
REMARK    4  A    between atoms: C_8  and  C_9
REMARK    5  A    between atoms: N_19  and  C_20
REMARK                            x       y       z     vdW  Elec       q    Type
REMARK                         _______ _______ _______ _____ _____    ______ ____
ROOT
ATOM      1  O   UNL     1       1.077  -0.267   0.139  0.00  0.00    +0.000 OA
ATOM      2  C   UNL     1       2.297  -0.130   0.063  0.00  0.00    +0.000 C 
ATOM      3  N   UNL     1       3.038  -0.718  -0.931  0.00  0.00    +0.000 N 
ATOM      4  H   UNL     1       4.051  -0.736  -0.850  0.00  0.00    +0.000 HD
ENDROOT
BRANCH   2   5
ATOM      5  C   UNL     1       3.042   0.663   1.021  0.00  0.00    +0.000 A 
ATOM      6  C   UNL     1       2.506   1.269   2.133  0.00  0.00    +0.000 A 
ATOM      7  N   UNL     1       3.549   1.911   2.748  0.00  0.00    +0.000 N 
ATOM      8  N   UNL     1       4.671   1.730   2.001  0.00  0.00    +0.000 NA
ATOM      9  N   UNL     1       4.375   0.953   0.961  0.00  0.00    +0.000 NA
BRANCH   7  10
ATOM     10  C   UNL     1       3.538   2.644   3.958  0.00  0.00    +0.000 A 
ATOM     11  C   UNL     1       2.390   2.688   4.763  0.00  0.00    +0.000 A 
ATOM     12  F   UNL     1       1.269   2.038   4.436  0.00  0.00    +0.000 F 
ATOM     13  C   UNL     1       2.371   3.396   5.960  0.00  0.00    +0.000 A 
ATOM     14  C   UNL     1       3.499   4.085   6.383  0.00  0.00    +0.000 A 
ATOM     15  C   UNL     1       4.648   4.056   5.597  0.00  0.00    +0.000 A 
ATOM     16  C   UNL     1       4.667   3.338   4.397  0.00  0.00    +0.000 A 
ATOM     17  F   UNL     1       5.806   3.364   3.688  0.00  0.00    +0.000 F 
ENDBRANCH   7  10
ENDBRANCH   2   5
BRANCH   3  18
ATOM     18  C   UNL     1       2.366  -1.580  -1.869  0.00  0.00    +0.000 C 
BRANCH  18  19
ATOM     19  C   UNL     1       3.307  -2.119  -2.879  0.00  0.00    +0.000 A 
ATOM     20  N   UNL     1       4.352  -2.875  -2.518  0.00  0.00    +0.000 NA
ATOM     21  O   UNL     1       4.974  -3.235  -3.701  0.00  0.00    +0.000 OA
ATOM     22  C   UNL     1       4.307  -2.694  -4.761  0.00  0.00    +0.000 A 
ATOM     23  C   UNL     1       3.237  -1.976  -4.283  0.00  0.00    +0.000 A 
BRANCH  22  24
ATOM     24  C   UNL     1       4.856  -2.955  -6.086  0.00  0.00    +0.000 A 
ATOM     25  C   UNL     1       5.985  -3.772  -6.256  0.00  0.00    +0.000 A 
ATOM     26  C   UNL     1       6.548  -3.959  -7.520  0.00  0.00    +0.000 A 
ATOM     27  C   UNL     1       5.981  -3.334  -8.622  0.00  0.00    +0.000 A 
ATOM     28  F   UNL     1       6.537  -3.491  -9.831  0.00  0.00    +0.000 F 
ATOM     29  C   UNL     1       4.847  -2.544  -8.488  0.00  0.00    +0.000 A 
ATOM     30  C   UNL     1       4.284  -2.358  -7.222  0.00  0.00    +0.000 A 
ENDBRANCH  22  24
ENDBRANCH  18  19
ENDBRANCH   3  18
TORSDOF 5
