REMARK  Name = 
REMARK  8 active torsions:
REMARK  status: ('A' for Active; 'I' for Inactive)
REMARK    1  A    between atoms: C_2  and  C_4
REMARK    2  A    between atoms: C_4  and  N_5
REMARK    3  A    between atoms: N_5  and  C_6
REMARK    4  A    between atoms: N_5  and  C_19
REMARK    5  A    between atoms: C_6  and  C_7
REMARK    6  A    between atoms: C_10  and  C_11
REMARK    7  A    between atoms: C_19  and  C_20
REMARK    8  A    between atoms: C_26  and  N_27
REMARK                            x       y       z     vdW  Elec       q    Type
REMARK                         _______ _______ _______ _____ _____    ______ ____
ROOT
ATOM      1  N   UNL     1       4.348  -0.499   0.985  0.00  0.00    +0.000 NA
ENDROOT
BRANCH   1   2
ATOM      2  C   UNL     1       4.738   0.858   0.524  0.00  0.00    +0.000 C 
BRANCH   2   3
ATOM      3  C   UNL     1       4.653   1.985   1.535  0.00  0.00    +0.000 A 
ATOM      4  C   UNL     1       5.754   2.326   2.330  0.00  0.00    +0.000 A 
ATOM      5  C   UNL     1       5.670   3.369   3.261  0.00  0.00    +0.000 A 
ATOM      6  C   UNL     1       4.494   4.122   3.421  0.00  0.00    +0.000 A 
ATOM      7  C   UNL     1       3.399   3.766   2.618  0.00  0.00    +0.000 A 
ATOM      8  C   UNL     1       3.474   2.719   1.694  0.00  0.00    +0.000 A 
BRANCH   6   9
ATOM      9  C   UNL     1       4.420   5.264   4.363  0.00  0.00    +0.000 A 
ATOM     10  C   UNL     1       5.538   6.084   4.614  0.00  0.00    +0.000 A 
ATOM     11  C   UNL     1       5.466   7.168   5.497  0.00  0.00    +0.000 A 
ATOM     12  C   UNL     1       4.269   7.470   6.137  0.00  0.00    +0.000 A 
ATOM     13  C   UNL     1       3.147   6.682   5.903  0.00  0.00    +0.000 A 
ATOM     14  C   UNL     1       3.225   5.589   5.034  0.00  0.00    +0.000 A 
ENDBRANCH   6   9
ENDBRANCH   2   3
ENDBRANCH   1   2
BRANCH   1  15
ATOM     15  C   UNL     1       5.206  -0.893   2.133  0.00  0.00    +0.000 C 
BRANCH  15  16
ATOM     16  C   UNL     1       5.068  -2.350   2.549  0.00  0.00    +0.000 A 
ATOM     17  C   UNL     1       4.161  -2.610   3.605  0.00  0.00    +0.000 A 
ATOM     18  C   UNL     1       3.864  -3.906   4.014  0.00  0.00    +0.000 A 
ATOM     19  C   UNL     1       4.471  -4.976   3.374  0.00  0.00    +0.000 A 
ATOM     20 CL   UNL     1       4.131  -6.580   3.893  0.00  0.00    +0.000 Cl
ATOM     21  C   UNL     1       5.373  -4.759   2.331  0.00  0.00    +0.000 A 
ATOM     22  C   UNL     1       5.695  -3.449   1.919  0.00  0.00    +0.000 A 
BRANCH  22  23
ATOM     23  N   UNL     1       6.693  -3.297   0.915  0.00  0.00    +0.000 N 
ATOM     24  C   UNL     1       7.097  -4.217  -0.028  0.00  0.00    +0.000 A 
ATOM     25  N   UNL     1       8.148  -3.782  -0.684  0.00  0.00    +0.000 NA
ATOM     26  C   UNL     1       8.369  -2.569  -0.113  0.00  0.00    +0.000 A 
ATOM     27  N   UNL     1       7.506  -2.218   0.840  0.00  0.00    +0.000 NA
ENDBRANCH  22  23
ENDBRANCH  15  16
ENDBRANCH   1  15
BRANCH   1  28
ATOM     28  C   UNL     1       2.912  -0.599   1.357  0.00  0.00    +0.000 C 
BRANCH  28  30
ATOM     29  N   UNL     1       2.088  -0.757  -0.956  0.00  0.00    +0.000 N 
ATOM     30  C   UNL     1       1.942  -0.158   0.260  0.00  0.00    +0.000 C 
ATOM     31  O   UNL     1       1.018   0.628   0.456  0.00  0.00    +0.000 OA
ATOM     32  H   UNL     1       1.472  -0.447  -1.696  0.00  0.00    +0.000 HD
ATOM     33  H   UNL     1       2.969  -1.189  -1.198  0.00  0.00    +0.000 HD
ENDBRANCH  28  30
ENDBRANCH   1  28
TORSDOF 8
