REMARK  Name = 
REMARK  6 active torsions:
REMARK  status: ('A' for Active; 'I' for Inactive)
REMARK    1  A    between atoms: C_2  and  C_18
REMARK    2  A    between atoms: N_3  and  C_4
REMARK    3  A    between atoms: C_4  and  C_5
REMARK    4  A    between atoms: C_5  and  C_8
REMARK    5  A    between atoms: C_21  and  C_22
REMARK    6  A    between atoms: C_27  and  O_28
REMARK                            x       y       z     vdW  Elec       q    Type
REMARK                         _______ _______ _______ _____ _____    ______ ____
ROOT
ATOM      1  O   UNL     1       0.948   0.088   0.081  0.00  0.00    +0.000 OA
ATOM      2  C   UNL     1       2.161  -0.015  -0.098  0.00  0.00    +0.000 C 
ATOM      3  N   UNL     1       2.922  -0.952   0.559  0.00  0.00    +0.000 N 
ATOM      4  H   UNL     1       3.932  -0.863   0.477  0.00  0.00    +0.000 HD
ENDROOT
BRANCH   2   5
ATOM      5  C   UNL     1       2.874   0.865  -1.033  0.00  0.00    +0.000 A 
ATOM      6  N   UNL     1       4.200   0.816  -1.274  0.00  0.00    +0.000 NA
ATOM      7  N   UNL     1       4.386   1.778  -2.208  0.00  0.00    +0.000 N 
ATOM      8  C   UNL     1       3.249   2.460  -2.567  0.00  0.00    +0.000 A 
ATOM      9  C   UNL     1       2.259   1.879  -1.806  0.00  0.00    +0.000 A 
ATOM     10  H   UNL     1       5.319   1.940  -2.578  0.00  0.00    +0.000 HD
BRANCH   8  11
ATOM     11  C   UNL     1       3.202   3.553  -3.550  0.00  0.00    +0.000 A 
ATOM     12  C   UNL     1       1.964   4.149  -3.853  0.00  0.00    +0.000 A 
ATOM     13  C   UNL     1       1.867   5.207  -4.760  0.00  0.00    +0.000 A 
ATOM     14  C   UNL     1       3.009   5.691  -5.386  0.00  0.00    +0.000 A 
ATOM     15  C   UNL     1       4.249   5.111  -5.113  0.00  0.00    +0.000 A 
ATOM     16  C   UNL     1       4.342   4.052  -4.204  0.00  0.00    +0.000 A 
BRANCH  16  17
ATOM     17  O   UNL     1       5.574   3.500  -3.951  0.00  0.00    +0.000 OA
ATOM     18  H   UNL     1       6.237   3.987  -4.471  0.00  0.00    +0.000 HD
ENDBRANCH  16  17
ENDBRANCH   8  11
ENDBRANCH   2   5
BRANCH   3  19
ATOM     19  C   UNL     1       2.324  -1.792   1.599  0.00  0.00    +0.000 C 
BRANCH  19  20
ATOM     20  C   UNL     1       3.017  -3.156   1.807  0.00  0.00    +0.000 C 
ATOM     21  F   UNL     1       3.036  -3.779   0.579  0.00  0.00    +0.000 F 
ATOM     22  F   UNL     1       4.338  -2.938   2.087  0.00  0.00    +0.000 F 
BRANCH  20  23
ATOM     23  C   UNL     1       2.343  -4.032   2.850  0.00  0.00    +0.000 A 
ATOM     24  C   UNL     1       1.815  -5.282   2.465  0.00  0.00    +0.000 A 
ATOM     25  C   UNL     1       1.229  -6.130   3.401  0.00  0.00    +0.000 A 
ATOM     26  C   UNL     1       1.164  -5.737   4.731  0.00  0.00    +0.000 A 
ATOM     27  C   UNL     1       1.676  -4.493   5.128  0.00  0.00    +0.000 A 
ATOM     28  C   UNL     1       1.607  -4.087   6.467  0.00  0.00    +0.000 A 
ATOM     29  C   UNL     1       2.111  -2.851   6.843  0.00  0.00    +0.000 A 
ATOM     30  C   UNL     1       2.673  -2.062   5.862  0.00  0.00    +0.000 A 
ATOM     31  N   UNL     1       2.762  -2.425   4.563  0.00  0.00    +0.000 NA
ATOM     32  C   UNL     1       2.275  -3.622   4.185  0.00  0.00    +0.000 A 
ENDBRANCH  20  23
ENDBRANCH  19  20
ENDBRANCH   3  19
TORSDOF 6
