REMARK  Name = 
REMARK  6 active torsions:
REMARK  status: ('A' for Active; 'I' for Inactive)
REMARK    1  A    between atoms: C_1  and  O_2
REMARK    2  A    between atoms: O_2  and  C_3
REMARK    3  A    between atoms: C_3  and  C_5
REMARK    4  A    between atoms: N_7  and  C_8
REMARK    5  A    between atoms: C_11  and  N_12
REMARK    6  A    between atoms: C_13  and  C_15
REMARK                            x       y       z     vdW  Elec       q    Type
REMARK                         _______ _______ _______ _____ _____    ______ ____
ROOT
ATOM      1  C   UNL     1       7.718  -0.944  -0.673  0.00  0.00    +0.000 A 
ATOM      2  C   UNL     1       8.611  -0.455   0.302  0.00  0.00    +0.000 A 
ATOM      3  C   UNL     1       9.686  -1.232   0.737  0.00  0.00    +0.000 A 
ATOM      4  C   UNL     1       9.902  -2.505   0.204  0.00  0.00    +0.000 A 
ATOM      5  C   UNL     1       9.006  -2.992  -0.757  0.00  0.00    +0.000 A 
ATOM      6  C   UNL     1       7.918  -2.219  -1.190  0.00  0.00    +0.000 A 
ENDROOT
BRANCH   1   9
ATOM      7  C   UNL     1       5.446   1.609  -1.324  0.00  0.00    +0.000 A 
ATOM      8  N   UNL     1       6.511   1.148  -0.640  0.00  0.00    +0.000 NA
ATOM      9  N   UNL     1       6.660  -0.109  -1.113  0.00  0.00    +0.000 N 
ATOM     10  C   UNL     1       5.678  -0.376  -2.033  0.00  0.00    +0.000 A 
ATOM     11  N   UNL     1       4.898   0.677  -2.180  0.00  0.00    +0.000 NA
BRANCH   7  12
ATOM     12  C   UNL     1       4.915   2.982  -1.179  0.00  0.00    +0.000 C 
ATOM     13  O   UNL     1       3.934   3.408  -1.792  0.00  0.00    +0.000 OA
BRANCH  12  15
ATOM     14  C   UNL     1       5.196   5.091  -0.195  0.00  0.00    +0.000 C 
ATOM     15  O   UNL     1       5.644   3.743  -0.304  0.00  0.00    +0.000 OA
ENDBRANCH  12  15
ENDBRANCH   7  12
ENDBRANCH   1   9
BRANCH   4  16
ATOM     16  N   UNL     1      10.993  -3.323   0.544  0.00  0.00    +0.000 N 
ATOM     17  C   UNL     1      12.010  -3.065   1.460  0.00  0.00    +0.000 C 
ATOM     18  O   UNL     1      12.059  -2.118   2.237  0.00  0.00    +0.000 OA
ATOM     19  H   UNL     1      11.069  -4.192   0.025  0.00  0.00    +0.000 HD
BRANCH  17  20
ATOM     20  C   UNL     1      13.082  -4.073   1.553  0.00  0.00    +0.000 A 
ATOM     21  C   UNL     1      13.424  -4.845   0.455  0.00  0.00    +0.000 A 
ATOM     22  F   UNL     1      12.828  -4.631  -0.732  0.00  0.00    +0.000 F 
ATOM     23  C   UNL     1      14.238  -5.973   0.595  0.00  0.00    +0.000 A 
ATOM     24  C   UNL     1      14.498  -6.788  -0.506  0.00  0.00    +0.000 A 
ATOM     25  C   UNL     1      14.788  -8.128  -0.298  0.00  0.00    +0.000 A 
ATOM     26  C   UNL     1      15.089  -8.574   0.985  0.00  0.00    +0.000 A 
ATOM     27  C   UNL     1      15.158  -7.663   2.045  0.00  0.00    +0.000 A 
ATOM     28  C   UNL     1      14.673  -6.356   1.877  0.00  0.00    +0.000 A 
ATOM     29  C   UNL     1      14.522  -5.446   2.940  0.00  0.00    +0.000 A 
ATOM     30  C   UNL     1      13.718  -4.303   2.777  0.00  0.00    +0.000 A 
ENDBRANCH  17  20
ENDBRANCH   4  16
TORSDOF 5
