REMARK  Name = 
REMARK  7 active torsions:
REMARK  status: ('A' for Active; 'I' for Inactive)
REMARK    1  A    between atoms: C_1  and  O_2
REMARK    2  A    between atoms: O_2  and  C_3
REMARK    3  A    between atoms: C_8  and  C_9
REMARK    4  A    between atoms: C_12  and  C_13
REMARK    5  A    between atoms: C_13  and  O_14
REMARK    6  A    between atoms: O_14  and  C_15
REMARK    7  A    between atoms: C_15  and  C_17
REMARK                            x       y       z     vdW  Elec       q    Type
REMARK                         _______ _______ _______ _____ _____    ______ ____
ROOT
ATOM      1  O   UNL     1       6.219   1.262  -5.340  0.00  0.00    +0.000 OA
ENDROOT
BRANCH   1   2
ATOM      2  C   UNL     1       6.485   2.408  -6.008  0.00  0.00    +0.000 C 
ATOM      3  O   UNL     1       7.141   3.340  -5.556  0.00  0.00    +0.000 OA
BRANCH   2   4
ATOM      4  C   UNL     1       5.723   2.486  -7.288  0.00  0.00    +0.000 A 
ATOM      5  C   UNL     1       5.519   3.765  -7.668  0.00  0.00    +0.000 A 
ATOM      6  C   UNL     1       4.170   4.232  -7.288  0.00  0.00    +0.000 A 
ATOM      7  C   UNL     1       4.019   5.498  -6.718  0.00  0.00    +0.000 A 
ATOM      8  C   UNL     1       2.833   5.808  -6.060  0.00  0.00    +0.000 A 
ATOM      9  C   UNL     1       1.787   4.888  -6.044  0.00  0.00    +0.000 A 
ATOM     10  F   UNL     1       0.684   5.173  -5.339  0.00  0.00    +0.000 F 
ATOM     11  C   UNL     1       1.895   3.648  -6.664  0.00  0.00    +0.000 A 
ATOM     12  C   UNL     1       3.110   3.310  -7.246  0.00  0.00    +0.000 A 
ATOM     13  N   UNL     1       3.370   1.984  -7.613  0.00  0.00    +0.000 N 
ATOM     14  C   UNL     1       4.658   1.497  -7.623  0.00  0.00    +0.000 A 
ATOM     15  O   UNL     1       4.914   0.325  -7.877  0.00  0.00    +0.000 OA
ATOM     16  H   UNL     1       2.631   1.298  -7.676  0.00  0.00    +0.000 HD
ENDBRANCH   2   4
ENDBRANCH   1   2
BRANCH   1  17
ATOM     17  C   UNL     1       6.660   1.231  -3.965  0.00  0.00    +0.000 C 
BRANCH  17  21
ATOM     18  C   UNL     1       4.588   1.950  -1.138  0.00  0.00    +0.000 A 
ATOM     19  C   UNL     1       3.698   2.175  -2.171  0.00  0.00    +0.000 A 
ATOM     20  N   UNL     1       4.298   1.964  -3.377  0.00  0.00    +0.000 NA
ATOM     21  C   UNL     1       5.530   1.612  -3.065  0.00  0.00    +0.000 A 
ATOM     22  O   UNL     1       5.782   1.593  -1.712  0.00  0.00    +0.000 OA
BRANCH  18  28
ATOM     23  C   UNL     1       3.269   1.947   1.000  0.00  0.00    +0.000 A 
ATOM     24  C   UNL     1       3.192   2.229   2.371  0.00  0.00    +0.000 A 
ATOM     25  C   UNL     1       4.339   2.574   3.087  0.00  0.00    +0.000 A 
ATOM     26  C   UNL     1       5.574   2.611   2.447  0.00  0.00    +0.000 A 
ATOM     27  C   UNL     1       5.659   2.355   1.074  0.00  0.00    +0.000 A 
ATOM     28  C   UNL     1       4.509   2.056   0.323  0.00  0.00    +0.000 A 
BRANCH  23  30
ATOM     29  C   UNL     1       0.942   1.366   0.892  0.00  0.00    +0.000 C 
ATOM     30  O   UNL     1       2.193   1.550   0.245  0.00  0.00    +0.000 OA
ENDBRANCH  23  30
ENDBRANCH  18  28
ENDBRANCH  17  21
ENDBRANCH   1  17
TORSDOF 6
