REMARK  Name = 
REMARK  5 active torsions:
REMARK  status: ('A' for Active; 'I' for Inactive)
REMARK    1  A    between atoms: C_1  and  C_2
REMARK    2  A    between atoms: C_2  and  C_3
REMARK    3  A    between atoms: C_6  and  N_7
REMARK    4  A    between atoms: C_8  and  C_10
REMARK    5  A    between atoms: N_12  and  C_13
REMARK                            x       y       z     vdW  Elec       q    Type
REMARK                         _______ _______ _______ _____ _____    ______ ____
ROOT
ATOM      1  N   UNL     1       4.180   5.446   0.842  0.00  0.00    +0.000 N 
ATOM      2  C   UNL     1       3.406   6.532   0.460  0.00  0.00    +0.000 C 
ATOM      3  O   UNL     1       2.321   6.511  -0.110  0.00  0.00    +0.000 OA
ATOM      4  H   UNL     1       5.057   5.681   1.298  0.00  0.00    +0.000 HD
ENDROOT
BRANCH   1   8
ATOM      5  C   UNL     1       3.089   1.362   0.288  0.00  0.00    +0.000 A 
ATOM      6  C   UNL     1       2.256   2.394  -0.141  0.00  0.00    +0.000 A 
ATOM      7  C   UNL     1       2.626   3.718   0.044  0.00  0.00    +0.000 A 
ATOM      8  C   UNL     1       3.836   4.068   0.657  0.00  0.00    +0.000 A 
ATOM      9  C   UNL     1       4.705   3.013   1.086  0.00  0.00    +0.000 A 
ATOM     10  C   UNL     1       5.959   3.209   1.713  0.00  0.00    +0.000 A 
ATOM     11  C   UNL     1       6.751   2.128   2.096  0.00  0.00    +0.000 A 
ATOM     12  C   UNL     1       6.279   0.862   1.846  0.00  0.00    +0.000 A 
ATOM     13  N   UNL     1       5.094   0.616   1.260  0.00  0.00    +0.000 NA
ATOM     14  C   UNL     1       4.318   1.654   0.887  0.00  0.00    +0.000 A 
BRANCH   5  16
ATOM     15  C   UNL     1       3.092  -0.628  -1.264  0.00  0.00    +0.000 C 
ATOM     16  C   UNL     1       2.619  -0.061   0.066  0.00  0.00    +0.000 C 
ENDBRANCH   5  16
ENDBRANCH   1   8
BRANCH   2  17
ATOM     17  C   UNL     1       3.956   7.917   0.797  0.00  0.00    +0.000 A 
ATOM     18  N   UNL     1       5.073   8.039   1.443  0.00  0.00    +0.000 NA
ATOM     19  N   UNL     1       5.507   9.332   1.747  0.00  0.00    +0.000 N 
ATOM     20  C   UNL     1       4.779  10.485   1.406  0.00  0.00    +0.000 A 
ATOM     21  O   UNL     1       5.080  11.658   1.617  0.00  0.00    +0.000 OA
ATOM     22  C   UNL     1       3.527  10.267   0.659  0.00  0.00    +0.000 A 
ATOM     23  C   UNL     1       3.119   9.044   0.342  0.00  0.00    +0.000 A 
BRANCH  19  24
ATOM     24  C   UNL     1       6.778   9.393   2.422  0.00  0.00    +0.000 A 
ATOM     25  C   UNL     1       7.180  10.538   3.135  0.00  0.00    +0.000 A 
ATOM     26  C   UNL     1       8.435  10.622   3.750  0.00  0.00    +0.000 A 
ATOM     27  C   UNL     1       9.323   9.557   3.671  0.00  0.00    +0.000 A 
ATOM     28  C   UNL     1       8.946   8.404   2.991  0.00  0.00    +0.000 A 
ATOM     29  C   UNL     1       7.689   8.321   2.385  0.00  0.00    +0.000 A 
ATOM     30  F   UNL     1       7.417   7.186   1.718  0.00  0.00    +0.000 F 
ENDBRANCH  19  24
ENDBRANCH   2  17
TORSDOF 4
