REMARK  Name = 
REMARK  4 active torsions:
REMARK  status: ('A' for Active; 'I' for Inactive)
REMARK    1  A    between atoms: C_2  and  C_4
REMARK    2  A    between atoms: C_6  and  N_7
REMARK    3  A    between atoms: C_8  and  C_10
REMARK    4  A    between atoms: C_24  and  C_25
REMARK                            x       y       z     vdW  Elec       q    Type
REMARK                         _______ _______ _______ _____ _____    ______ ____
ROOT
ATOM      1  N   UNL     1       2.361  -2.378   4.016  0.00  0.00    +0.000 N 
ATOM      2  C   UNL     1       1.101  -2.883   3.691  0.00  0.00    +0.000 C 
ATOM      3  O   UNL     1       0.405  -2.461   2.765  0.00  0.00    +0.000 OA
ATOM      4  H   UNL     1       2.722  -2.588   4.941  0.00  0.00    +0.000 HD
ENDROOT
BRANCH   2   5
ATOM      5  C   UNL     1       0.525  -3.987   4.516  0.00  0.00    +0.000 A 
ATOM      6  C   UNL     1      -0.644  -4.573   4.036  0.00  0.00    +0.000 A 
ATOM      7  C   UNL     1      -1.237  -5.589   4.763  0.00  0.00    +0.000 A 
ATOM      8  C   UNL     1      -0.675  -5.962   5.978  0.00  0.00    +0.000 A 
ATOM      9  C   UNL     1      -1.320  -6.922   6.771  0.00  0.00    +0.000 A 
ATOM     10  C   UNL     1      -0.800  -7.232   8.014  0.00  0.00    +0.000 A 
ATOM     11  F   UNL     1      -1.454  -8.092   8.806  0.00  0.00    +0.000 F 
ATOM     12  C   UNL     1       0.371  -6.626   8.443  0.00  0.00    +0.000 A 
ATOM     13  F   UNL     1       0.867  -6.914   9.655  0.00  0.00    +0.000 F 
ATOM     14  C   UNL     1       1.036  -5.697   7.638  0.00  0.00    +0.000 A 
ATOM     15  C   UNL     1       0.524  -5.321   6.403  0.00  0.00    +0.000 A 
ATOM     16  N   UNL     1       1.137  -4.357   5.672  0.00  0.00    +0.000 NA
ENDBRANCH   2   5
BRANCH   1  19
ATOM     17  C   UNL     1       3.233  -0.364   0.988  0.00  0.00    +0.000 A 
ATOM     18  C   UNL     1       2.728  -1.367   1.824  0.00  0.00    +0.000 A 
ATOM     19  C   UNL     1       3.035  -1.445   3.182  0.00  0.00    +0.000 A 
ATOM     20  C   UNL     1       4.017  -0.589   3.672  0.00  0.00    +0.000 A 
ATOM     21  C   UNL     1       4.563   0.406   2.833  0.00  0.00    +0.000 A 
ATOM     22  C   UNL     1       4.145   0.568   1.488  0.00  0.00    +0.000 A 
BRANCH  17  24
ATOM     23  N   UNL     1       1.444  -0.674  -0.620  0.00  0.00    +0.000 N 
ATOM     24  C   UNL     1       2.773  -0.403  -0.418  0.00  0.00    +0.000 C 
ATOM     25  O   UNL     1       3.558  -0.259  -1.345  0.00  0.00    +0.000 OA
ATOM     26  H   UNL     1       1.125  -0.807  -1.567  0.00  0.00    +0.000 HD
ATOM     27  H   UNL     1       0.792  -0.870   0.134  0.00  0.00    +0.000 HD
ENDBRANCH  17  24
BRANCH  22  28
ATOM     28  C   UNL     1       4.681   1.732   0.684  0.00  0.00    +0.000 C 
ATOM     29  F   UNL     1       4.034   2.035  -0.463  0.00  0.00    +0.000 F 
ATOM     30  F   UNL     1       4.630   2.888   1.420  0.00  0.00    +0.000 F 
ATOM     31  F   UNL     1       6.000   1.578   0.371  0.00  0.00    +0.000 F 
ENDBRANCH  22  28
ENDBRANCH   1  19
TORSDOF 4
