REMARK  Name = 
REMARK  7 active torsions:
REMARK  status: ('A' for Active; 'I' for Inactive)
REMARK    1  A    between atoms: C_1  and  O_2
REMARK    2  A    between atoms: O_2  and  C_3
REMARK    3  A    between atoms: C_6  and  N_7
REMARK    4  A    between atoms: C_10  and  C_11
REMARK    5  A    between atoms: N_13  and  C_14
REMARK    6  A    between atoms: C_14  and  C_15
REMARK    7  A    between atoms: C_18  and  C_19
REMARK                            x       y       z     vdW  Elec       q    Type
REMARK                         _______ _______ _______ _____ _____    ______ ____
ROOT
ATOM      1  C   UNL     1       5.579   5.206  -6.616  0.00  0.00    +0.000 C 
ATOM      2  O   UNL     1       6.131   6.255  -6.938  0.00  0.00    +0.000 OA
ATOM      3  N   UNL     1       5.058   4.325  -7.530  0.00  0.00    +0.000 N 
ATOM      4  H   UNL     1       4.629   3.481  -7.167  0.00  0.00    +0.000 HD
ENDROOT
BRANCH   1   8
ATOM      5  N   UNL     1       4.798   3.806  -3.410  0.00  0.00    +0.000 N 
ATOM      6  C   UNL     1       5.479   4.930  -2.998  0.00  0.00    +0.000 A 
ATOM      7  C   UNL     1       5.865   5.608  -4.120  0.00  0.00    +0.000 A 
ATOM      8  C   UNL     1       5.411   4.825  -5.204  0.00  0.00    +0.000 A 
ATOM      9  N   UNL     1       4.789   3.703  -4.776  0.00  0.00    +0.000 NA
BRANCH   5  13
ATOM     10  C   UNL     1       2.815   1.047  -0.863  0.00  0.00    +0.000 A 
ATOM     11  C   UNL     1       3.363   2.219  -0.349  0.00  0.00    +0.000 A 
ATOM     12  C   UNL     1       4.025   3.116  -1.190  0.00  0.00    +0.000 A 
ATOM     13  C   UNL     1       4.143   2.862  -2.565  0.00  0.00    +0.000 A 
ATOM     14  C   UNL     1       3.595   1.685  -3.086  0.00  0.00    +0.000 A 
ATOM     15  C   UNL     1       2.939   0.784  -2.232  0.00  0.00    +0.000 A 
BRANCH  10  17
ATOM     16  C   UNL     1       2.010   0.360   1.262  0.00  0.00    +0.000 C 
ATOM     17  O   UNL     1       2.143   0.104  -0.134  0.00  0.00    +0.000 OA
ENDBRANCH  10  17
ENDBRANCH   5  13
ENDBRANCH   1   8
BRANCH   3  18
ATOM     18  C   UNL     1       5.051   4.619  -8.940  0.00  0.00    +0.000 C 
BRANCH  18  19
ATOM     19  C   UNL     1       5.835   3.602  -9.726  0.00  0.00    +0.000 A 
ATOM     20  C   UNL     1       5.193   2.494 -10.293  0.00  0.00    +0.000 A 
ATOM     21  C   UNL     1       5.919   1.556 -11.032  0.00  0.00    +0.000 A 
ATOM     22  C   UNL     1       7.298   1.713 -11.210  0.00  0.00    +0.000 A 
ATOM     23  C   UNL     1       7.946   2.810 -10.631  0.00  0.00    +0.000 A 
ATOM     24  C   UNL     1       7.220   3.747  -9.892  0.00  0.00    +0.000 A 
BRANCH  22  25
ATOM     25  C   UNL     1       8.066   0.724 -11.980  0.00  0.00    +0.000 A 
ATOM     26  C   UNL     1       8.173   0.881 -13.312  0.00  0.00    +0.000 A 
ATOM     27  N   UNL     1       8.906  -0.003 -14.069  0.00  0.00    +0.000 N 
ATOM     28  C   UNL     1       9.579  -1.083 -13.550  0.00  0.00    +0.000 A 
ATOM     29  O   UNL     1      10.247  -1.844 -14.239  0.00  0.00    +0.000 OA
ATOM     30  C   UNL     1       9.451  -1.279 -12.084  0.00  0.00    +0.000 A 
ATOM     31  C   UNL     1       8.729  -0.412 -11.360  0.00  0.00    +0.000 A 
ATOM     32  H   UNL     1       8.991   0.130 -15.069  0.00  0.00    +0.000 HD
ENDBRANCH  22  25
ENDBRANCH  18  19
ENDBRANCH   3  18
TORSDOF 6
