REMARK  Name = 
REMARK  9 active torsions:
REMARK  status: ('A' for Active; 'I' for Inactive)
REMARK    1  A    between atoms: C_1  and  C_2
REMARK    2  A    between atoms: C_5  and  C_6
REMARK    3  A    between atoms: C_6  and  O_7
REMARK    4  A    between atoms: C_6  and  C_8
REMARK    5  A    between atoms: C_6  and  C_29
REMARK    6  A    between atoms: C_8  and  N_9
REMARK    7  A    between atoms: C_10  and  C_12
REMARK    8  A    between atoms: C_15  and  C_16
REMARK    9  A    between atoms: C_21  and  C_22
REMARK                            x       y       z     vdW  Elec       q    Type
REMARK                         _______ _______ _______ _____ _____    ______ ____
ROOT
ATOM      1  N   UNL     1      -0.871  -3.226   1.364  0.00  0.00    +0.000 N 
ATOM      2  C   UNL     1      -0.665  -4.226   2.288  0.00  0.00    +0.000 C 
ATOM      3  O   UNL     1      -1.570  -4.700   2.963  0.00  0.00    +0.000 OA
ATOM      4  H   UNL     1      -0.106  -2.852   0.811  0.00  0.00    +0.000 HD
ENDROOT
BRANCH   2   5
ATOM      5  C   UNL     1       0.708  -4.773   2.400  0.00  0.00    +0.000 A 
ATOM      6  C   UNL     1       1.859  -4.069   2.035  0.00  0.00    +0.000 A 
ATOM      7  C   UNL     1       3.113  -4.697   2.092  0.00  0.00    +0.000 A 
ATOM      8  C   UNL     1       3.259  -6.020   2.553  0.00  0.00    +0.000 A 
ATOM      9  C   UNL     1       2.095  -6.655   3.023  0.00  0.00    +0.000 A 
ATOM     10  C   UNL     1       0.837  -6.067   2.906  0.00  0.00    +0.000 A 
BRANCH   8  11
ATOM     11  C   UNL     1       4.578  -6.718   2.561  0.00  0.00    +0.000 A 
ATOM     12  C   UNL     1       5.742  -5.979   2.876  0.00  0.00    +0.000 A 
ATOM     13  C   UNL     1       6.997  -6.581   3.001  0.00  0.00    +0.000 A 
ATOM     14  C   UNL     1       7.124  -7.954   2.848  0.00  0.00    +0.000 A 
ATOM     15  C   UNL     1       6.007  -8.712   2.506  0.00  0.00    +0.000 A 
ATOM     16  C   UNL     1       4.745  -8.111   2.312  0.00  0.00    +0.000 A 
BRANCH  16  17
ATOM     17  C   UNL     1       3.667  -8.972   1.826  0.00  0.00    +0.000 A 
ATOM     18  N   UNL     1       3.459 -10.238   2.238  0.00  0.00    +0.000 NA
ATOM     19  N   UNL     1       2.337 -10.525   1.560  0.00  0.00    +0.000 N 
ATOM     20  N   UNL     1       1.867  -9.562   0.762  0.00  0.00    +0.000 NA
ATOM     21  N   UNL     1       2.731  -8.567   0.901  0.00  0.00    +0.000 NA
ATOM     22  H   UNL     1       1.865 -11.421   1.645  0.00  0.00    +0.000 HD
ENDBRANCH  16  17
ENDBRANCH   8  11
ENDBRANCH   2   5
BRANCH   1  23
ATOM     23  C   UNL     1      -2.184  -2.599   1.197  0.00  0.00    +0.000 C 
BRANCH  23  24
ATOM     24  C   UNL     1      -2.785  -2.776  -0.216  0.00  0.00    +0.000 C 
BRANCH  24  29
ATOM     25  C   UNL     1      -1.420  -1.681  -4.742  0.00  0.00    +0.000 C 
ATOM     26  C   UNL     1      -1.278  -1.703  -3.275  0.00  0.00    +0.000 A 
ATOM     27  C   UNL     1      -0.351  -1.232  -2.381  0.00  0.00    +0.000 A 
ATOM     28  N   UNL     1      -0.732  -1.546  -1.100  0.00  0.00    +0.000 NA
ATOM     29  C   UNL     1      -1.889  -2.168  -1.256  0.00  0.00    +0.000 A 
ATOM     30  O   UNL     1      -2.265  -2.321  -2.567  0.00  0.00    +0.000 OA
ENDBRANCH  24  29
BRANCH  24  31
ATOM     31  C   UNL     1      -4.175  -2.094  -0.240  0.00  0.00    +0.000 C 
ATOM     32  F   UNL     1      -4.288  -1.124  -1.178  0.00  0.00    +0.000 F 
ATOM     33  F   UNL     1      -5.176  -2.978  -0.474  0.00  0.00    +0.000 F 
ATOM     34  F   UNL     1      -4.466  -1.497   0.946  0.00  0.00    +0.000 F 
ENDBRANCH  24  31
BRANCH  24  35
ATOM     35  O   UNL     1      -2.852  -4.197  -0.506  0.00  0.00    +0.000 OA
ATOM     36  H   UNL     1      -1.997  -4.578  -0.231  0.00  0.00    +0.000 HD
ENDBRANCH  24  35
ENDBRANCH  23  24
ENDBRANCH   1  23
TORSDOF 8
