REMARK  Name = 
REMARK  4 active torsions:
REMARK  status: ('A' for Active; 'I' for Inactive)
REMARK    1  A    between atoms: N_3  and  C_4
REMARK    2  A    between atoms: C_7  and  C_8
REMARK    3  A    between atoms: N_16  and  C_17
REMARK    4  A    between atoms: N_21  and  C_22
REMARK                            x       y       z     vdW  Elec       q    Type
REMARK                         _______ _______ _______ _____ _____    ______ ____
ROOT
ATOM      1  O   UNL     1       2.563   0.505   1.191  0.00  0.00    +0.000 OA
ATOM      2  C   UNL     1       2.169  -0.076   0.189  0.00  0.00    +0.000 C 
ATOM      3  N   UNL     1       0.839  -0.328  -0.094  0.00  0.00    +0.000 N 
ATOM      4  N   UNL     1       3.000  -0.600  -0.793  0.00  0.00    +0.000 N 
ATOM      5  H   UNL     1       0.653  -0.973  -0.847  0.00  0.00    +0.000 HD
ATOM      6  H   UNL     1       2.550  -0.897  -1.646  0.00  0.00    +0.000 HD
ENDROOT
BRANCH   3   7
ATOM      7  C   UNL     1      -0.260   0.019   0.719  0.00  0.00    +0.000 A 
ATOM      8  C   UNL     1      -0.192   0.909   1.795  0.00  0.00    +0.000 A 
ATOM      9  C   UNL     1      -1.319   1.157   2.590  0.00  0.00    +0.000 A 
ATOM     10  C   UNL     1      -2.539   0.523   2.324  0.00  0.00    +0.000 A 
ATOM     11  C   UNL     1      -2.595  -0.343   1.229  0.00  0.00    +0.000 A 
ATOM     12  F   UNL     1      -3.728  -0.986   0.912  0.00  0.00    +0.000 F 
ATOM     13  C   UNL     1      -1.479  -0.590   0.430  0.00  0.00    +0.000 A 
BRANCH  10  14
ATOM     14  C   UNL     1      -3.688   0.779   3.177  0.00  0.00    +0.000 A 
ATOM     15  N   UNL     1      -3.813   1.593   4.209  0.00  0.00    +0.000 NA
ATOM     16  N   UNL     1      -5.109   1.453   4.667  0.00  0.00    +0.000 NA
ATOM     17  C   UNL     1      -5.673   0.565   3.884  0.00  0.00    +0.000 A 
ATOM     18  O   UNL     1      -4.844   0.090   2.918  0.00  0.00    +0.000 OA
ENDBRANCH  10  14
ENDBRANCH   3   7
BRANCH   4  19
ATOM     19  C   UNL     1       4.381  -0.607  -0.788  0.00  0.00    +0.000 A 
ATOM     20  C   UNL     1       5.140  -0.182   0.229  0.00  0.00    +0.000 A 
ATOM     21  C   UNL     1       6.619  -0.099   0.132  0.00  0.00    +0.000 A 
ATOM     22  O   UNL     1       7.189   0.391   1.105  0.00  0.00    +0.000 OA
ATOM     23  N   UNL     1       7.198  -0.532  -1.083  0.00  0.00    +0.000 N 
ATOM     24  C   UNL     1       6.374  -1.068  -2.075  0.00  0.00    +0.000 A 
ATOM     25  C   UNL     1       5.040  -1.122  -1.963  0.00  0.00    +0.000 A 
BRANCH  23  26
ATOM     26  C   UNL     1       8.626  -0.366  -1.299  0.00  0.00    +0.000 A 
ATOM     27  C   UNL     1       9.534  -0.223  -0.237  0.00  0.00    +0.000 A 
ATOM     28  C   UNL     1      10.896   0.005  -0.457  0.00  0.00    +0.000 A 
ATOM     29  C   UNL     1      11.392   0.075  -1.751  0.00  0.00    +0.000 A 
ATOM     30  C   UNL     1      10.524  -0.086  -2.824  0.00  0.00    +0.000 A 
ATOM     31  C   UNL     1       9.158  -0.302  -2.600  0.00  0.00    +0.000 A 
ENDBRANCH  23  26
ENDBRANCH   4  19
TORSDOF 4
