REMARK  Name = 
REMARK  7 active torsions:
REMARK  status: ('A' for Active; 'I' for Inactive)
REMARK    1  A    between atoms: C_1  and  N_2
REMARK    2  A    between atoms: N_2  and  C_3
REMARK    3  A    between atoms: C_3  and  C_4
REMARK    4  A    between atoms: N_6  and  C_7
REMARK    5  A    between atoms: C_12  and  C_13
REMARK    6  A    between atoms: C_21  and  C_23
REMARK    7  A    between atoms: C_23  and  C_24
REMARK                            x       y       z     vdW  Elec       q    Type
REMARK                         _______ _______ _______ _____ _____    ______ ____
ROOT
ATOM      1  C   UNL     1       2.156   1.491  -1.705  0.00  0.00    +0.000 A 
ATOM      2  C   UNL     1       1.127   1.002  -2.481  0.00  0.00    +0.000 A 
ATOM      3  N   UNL     1       0.636   2.103  -3.151  0.00  0.00    +0.000 N 
ATOM      4  N   UNL     1       1.263   3.214  -2.701  0.00  0.00    +0.000 NA
ATOM      5  N   UNL     1       2.207   2.850  -1.845  0.00  0.00    +0.000 NA
ENDROOT
BRANCH   3   6
ATOM      6  C   UNL     1      -0.392   2.139  -4.128  0.00  0.00    +0.000 A 
ATOM      7  C   UNL     1      -1.462   1.234  -3.946  0.00  0.00    +0.000 A 
ATOM      8  C   UNL     1      -2.581   1.282  -4.773  0.00  0.00    +0.000 A 
ATOM      9  C   UNL     1      -2.635   2.217  -5.794  0.00  0.00    +0.000 A 
ATOM     10  C   UNL     1      -1.552   3.074  -6.017  0.00  0.00    +0.000 A 
ATOM     11  C   UNL     1      -0.386   3.060  -5.212  0.00  0.00    +0.000 A 
BRANCH  11  12
ATOM     12  C   UNL     1       0.778   3.909  -5.630  0.00  0.00    +0.000 A 
ATOM     13  C   UNL     1       0.598   5.172  -6.231  0.00  0.00    +0.000 A 
ATOM     14  C   UNL     1       1.684   5.962  -6.634  0.00  0.00    +0.000 A 
ATOM     15  C   UNL     1       2.985   5.530  -6.408  0.00  0.00    +0.000 A 
ATOM     16  C   UNL     1       3.200   4.286  -5.832  0.00  0.00    +0.000 A 
ATOM     17  C   UNL     1       2.111   3.474  -5.495  0.00  0.00    +0.000 A 
ENDBRANCH  11  12
ENDBRANCH   3   6
BRANCH   1  18
ATOM     18  C   UNL     1       3.102   0.793  -0.799  0.00  0.00    +0.000 C 
BRANCH  18  20
ATOM     19  C   UNL     1       4.674   0.559  -2.798  0.00  0.00    +0.000 C 
ATOM     20  N   UNL     1       4.288   0.198  -1.437  0.00  0.00    +0.000 N 
ATOM     21  C   UNL     1       5.298  -0.392  -0.668  0.00  0.00    +0.000 C 
ATOM     22  O   UNL     1       6.391  -0.689  -1.161  0.00  0.00    +0.000 OA
BRANCH  21  23
ATOM     23  C   UNL     1       5.046  -0.657   0.807  0.00  0.00    +0.000 C 
BRANCH  23  24
ATOM     24  C   UNL     1       4.344  -1.962   1.057  0.00  0.00    +0.000 A 
ATOM     25  N   UNL     1       3.112  -1.897   1.635  0.00  0.00    +0.000 NA
ATOM     26  C   UNL     1       2.503  -3.076   1.917  0.00  0.00    +0.000 A 
ATOM     27  C   UNL     1       3.053  -4.312   1.639  0.00  0.00    +0.000 A 
ATOM     28  C   UNL     1       4.308  -4.361   1.039  0.00  0.00    +0.000 A 
ATOM     29  C   UNL     1       4.959  -3.172   0.752  0.00  0.00    +0.000 A 
ATOM     30  F   UNL     1       6.182  -3.214   0.206  0.00  0.00    +0.000 F 
ENDBRANCH  23  24
ENDBRANCH  21  23
ENDBRANCH  18  20
ENDBRANCH   1  18
TORSDOF 6
