REMARK  Name = 
REMARK  6 active torsions:
REMARK  status: ('A' for Active; 'I' for Inactive)
REMARK    1  A    between atoms: C_2  and  C_12
REMARK    2  A    between atoms: N_3  and  C_4
REMARK    3  A    between atoms: C_4  and  C_5
REMARK    4  A    between atoms: C_17  and  C_18
REMARK    5  A    between atoms: C_26  and  O_27
REMARK    6  A    between atoms: O_27  and  C_28
REMARK                            x       y       z     vdW  Elec       q    Type
REMARK                         _______ _______ _______ _____ _____    ______ ____
ROOT
ATOM      1  C   UNL     1       3.053  -0.623   0.986  0.00  0.00    +0.000 A 
ATOM      2  N   UNL     1       2.655  -1.770   1.642  0.00  0.00    +0.000 NA
ATOM      3  C   UNL     1       3.222  -1.989   2.852  0.00  0.00    +0.000 A 
ATOM      4  C   UNL     1       4.180  -1.150   3.382  0.00  0.00    +0.000 A 
ATOM      5  N   UNL     1       4.615  -0.057   2.724  0.00  0.00    +0.000 NA
ATOM      6  C   UNL     1       4.021   0.221   1.517  0.00  0.00    +0.000 A 
ENDROOT
BRANCH   6   7
ATOM      7  C   UNL     1       4.528   1.464   0.844  0.00  0.00    +0.000 C 
ATOM      8  O   UNL     1       4.841   1.410  -0.343  0.00  0.00    +0.000 OA
ATOM      9  N   UNL     1       4.697   2.622   1.634  0.00  0.00    +0.000 N 
ATOM     10  C   UNL     1       5.166   3.860   1.012  0.00  0.00    +0.000 C 
ATOM     11  C   UNL     1       5.836   4.830   2.000  0.00  0.00    +0.000 C 
ATOM     12  C   UNL     1       4.990   5.052   3.227  0.00  0.00    +0.000 A 
ATOM     13  C   UNL     1       5.118   6.195   4.022  0.00  0.00    +0.000 A 
ATOM     14  C   UNL     1       4.326   6.353   5.168  0.00  0.00    +0.000 A 
ATOM     15  C   UNL     1       3.386   5.387   5.522  0.00  0.00    +0.000 A 
ATOM     16  C   UNL     1       3.303   4.218   4.766  0.00  0.00    +0.000 A 
ATOM     17  C   UNL     1       4.105   4.047   3.629  0.00  0.00    +0.000 A 
ATOM     18  C   UNL     1       4.097   2.705   2.958  0.00  0.00    +0.000 C 
BRANCH  15  19
ATOM     19  O   UNL     1       2.641   5.638   6.638  0.00  0.00    +0.000 OA
BRANCH  19  20
ATOM     20  C   UNL     1       1.357   5.032   6.646  0.00  0.00    +0.000 C 
ATOM     21  F   UNL     1       1.475   3.745   7.069  0.00  0.00    +0.000 F 
ATOM     22  F   UNL     1       0.607   5.675   7.573  0.00  0.00    +0.000 F 
ENDBRANCH  19  20
ENDBRANCH  15  19
ENDBRANCH   6   7
BRANCH   1  24
ATOM     23  O   UNL     1       2.064   0.834  -0.604  0.00  0.00    +0.000 OA
ATOM     24  C   UNL     1       2.273  -0.320  -0.246  0.00  0.00    +0.000 C 
ATOM     25  N   UNL     1       1.752  -1.429  -0.890  0.00  0.00    +0.000 N 
ATOM     26  H   UNL     1       1.913  -2.337  -0.468  0.00  0.00    +0.000 HD
BRANCH  25  27
ATOM     27  C   UNL     1       1.070  -1.347  -2.159  0.00  0.00    +0.000 C 
BRANCH  27  28
ATOM     28  C   UNL     1      -0.312  -1.952  -2.116  0.00  0.00    +0.000 A 
ATOM     29  C   UNL     1      -1.418  -1.155  -1.784  0.00  0.00    +0.000 A 
ATOM     30  C   UNL     1      -2.709  -1.685  -1.807  0.00  0.00    +0.000 A 
ATOM     31  C   UNL     1      -2.896  -3.020  -2.149  0.00  0.00    +0.000 A 
ATOM     32  F   UNL     1      -4.136  -3.525  -2.190  0.00  0.00    +0.000 F 
ATOM     33  C   UNL     1      -1.812  -3.837  -2.455  0.00  0.00    +0.000 A 
ATOM     34  C   UNL     1      -0.521  -3.304  -2.434  0.00  0.00    +0.000 A 
ENDBRANCH  27  28
ENDBRANCH  25  27
ENDBRANCH   1  24
TORSDOF 6
