REMARK  Name = 
REMARK  6 active torsions:
REMARK  status: ('A' for Active; 'I' for Inactive)
REMARK    1  A    between atoms: C_2  and  C_23
REMARK    2  A    between atoms: N_3  and  C_4
REMARK    3  A    between atoms: C_8  and  N_9
REMARK    4  A    between atoms: C_10  and  C_12
REMARK    5  A    between atoms: C_25  and  C_26
REMARK    6  A    between atoms: C_26  and  O_27
REMARK                            x       y       z     vdW  Elec       q    Type
REMARK                         _______ _______ _______ _____ _____    ______ ____
ROOT
ATOM      1  C   UNL     1       2.236   1.438   2.129  0.00  0.00    +0.000 A 
ATOM      2  C   UNL     1       1.032   0.912   2.603  0.00  0.00    +0.000 A 
ATOM      3  C   UNL     1       0.435   1.414   3.753  0.00  0.00    +0.000 A 
ATOM      4  C   UNL     1       1.041   2.440   4.464  0.00  0.00    +0.000 A 
ATOM      5  C   UNL     1       2.261   2.981   4.041  0.00  0.00    +0.000 A 
ATOM      6  C   UNL     1       2.861   2.462   2.871  0.00  0.00    +0.000 A 
ENDROOT
BRANCH   1   9
ATOM      7  O   UNL     1       1.006  -0.142  -0.017  0.00  0.00    +0.000 OA
ATOM      8  C   UNL     1       2.198   0.154  -0.009  0.00  0.00    +0.000 C 
ATOM      9  N   UNL     1       2.844   0.950   0.936  0.00  0.00    +0.000 N 
ATOM     10  H   UNL     1       3.760   1.314   0.708  0.00  0.00    +0.000 HD
BRANCH   8  11
ATOM     11  C   UNL     1       2.990  -0.349  -1.152  0.00  0.00    +0.000 A 
ATOM     12  C   UNL     1       2.347  -0.555  -2.381  0.00  0.00    +0.000 A 
ATOM     13  C   UNL     1       3.042  -1.116  -3.456  0.00  0.00    +0.000 A 
ATOM     14  C   UNL     1       4.375  -1.448  -3.242  0.00  0.00    +0.000 A 
ATOM     15  N   UNL     1       5.026  -1.268  -2.065  0.00  0.00    +0.000 NA
ATOM     16  C   UNL     1       4.313  -0.739  -1.040  0.00  0.00    +0.000 A 
BRANCH  13  17
ATOM     17  C   UNL     1       2.371  -1.393  -4.767  0.00  0.00    +0.000 C 
BRANCH  17  18
ATOM     18  O   UNL     1       3.035  -0.696  -5.811  0.00  0.00    +0.000 OA
ATOM     19  H   UNL     1       2.978   0.252  -5.602  0.00  0.00    +0.000 HD
ENDBRANCH  17  18
ENDBRANCH  13  17
ENDBRANCH   8  11
ENDBRANCH   1   9
BRANCH   5  20
ATOM     20  N   UNL     1       2.909   4.011   4.771  0.00  0.00    +0.000 N 
ATOM     21  C   UNL     1       2.433   4.620   5.931  0.00  0.00    +0.000 C 
ATOM     22  O   UNL     1       1.305   4.514   6.400  0.00  0.00    +0.000 OA
ATOM     23  H   UNL     1       3.800   4.325   4.401  0.00  0.00    +0.000 HD
BRANCH  21  24
ATOM     24  C   UNL     1       3.350   5.555   6.620  0.00  0.00    +0.000 A 
ATOM     25  C   UNL     1       2.765   6.675   7.189  0.00  0.00    +0.000 A 
ATOM     26  N   UNL     1       3.492   7.687   7.687  0.00  0.00    +0.000 NA
ATOM     27  N   UNL     1       4.850   7.632   7.585  0.00  0.00    +0.000 NA
ATOM     28  C   UNL     1       5.467   6.542   7.100  0.00  0.00    +0.000 A 
ATOM     29  C   UNL     1       6.854   6.535   7.004  0.00  0.00    +0.000 A 
ATOM     30  C   UNL     1       7.554   5.407   6.573  0.00  0.00    +0.000 A 
ATOM     31  C   UNL     1       6.863   4.240   6.285  0.00  0.00    +0.000 A 
ATOM     32  C   UNL     1       5.472   4.238   6.341  0.00  0.00    +0.000 A 
ATOM     33  C   UNL     1       4.750   5.412   6.673  0.00  0.00    +0.000 A 
ENDBRANCH  21  24
ENDBRANCH   5  20
TORSDOF 6
