REMARK  Name = 
REMARK  5 active torsions:
REMARK  status: ('A' for Active; 'I' for Inactive)
REMARK    1  A    between atoms: C_1  and  C_2
REMARK    2  A    between atoms: C_5  and  C_6
REMARK    3  A    between atoms: C_12  and  C_14
REMARK    4  A    between atoms: C_16  and  C_17
REMARK    5  A    between atoms: C_25  and  O_26
REMARK                            x       y       z     vdW  Elec       q    Type
REMARK                         _______ _______ _______ _____ _____    ______ ____
ROOT
ATOM      1  C   UNL     1      -5.433   0.783  -1.124  0.00  0.00    +0.000 A 
ATOM      2  C   UNL     1      -4.038   0.761  -1.142  0.00  0.00    +0.000 A 
ATOM      3  C   UNL     1      -3.356   0.080  -0.147  0.00  0.00    +0.000 A 
ATOM      4  C   UNL     1      -4.081  -0.551   0.852  0.00  0.00    +0.000 A 
ATOM      5  C   UNL     1      -5.472  -0.468   0.826  0.00  0.00    +0.000 A 
ATOM      6  N   UNL     1      -6.181  -1.101   1.859  0.00  0.00    +0.000 N 
ATOM      7  C   UNL     1      -7.552  -1.107   1.998  0.00  0.00    +0.000 C 
ATOM      8  O   UNL     1      -8.373  -0.554   1.274  0.00  0.00    +0.000 OA
ATOM      9  N   UNL     1      -6.137   0.186  -0.141  0.00  0.00    +0.000 NA
ATOM     10  H   UNL     1      -5.627  -1.604   2.542  0.00  0.00    +0.000 HD
ENDROOT
BRANCH   1  15
ATOM     11  C   UNL     1      -8.230   3.791  -5.215  0.00  0.00    +0.000 C 
ATOM     12  C   UNL     1      -7.545   2.966  -4.169  0.00  0.00    +0.000 A 
ATOM     13  C   UNL     1      -6.374   2.278  -4.470  0.00  0.00    +0.000 A 
ATOM     14  C   UNL     1      -5.723   1.532  -3.487  0.00  0.00    +0.000 A 
ATOM     15  C   UNL     1      -6.208   1.477  -2.168  0.00  0.00    +0.000 A 
ATOM     16  C   UNL     1      -7.412   2.138  -1.887  0.00  0.00    +0.000 A 
ATOM     17  C   UNL     1      -8.069   2.885  -2.871  0.00  0.00    +0.000 A 
ENDBRANCH   1  15
BRANCH   7  18
ATOM     18  C   UNL     1      -8.089  -1.872   3.159  0.00  0.00    +0.000 A 
ATOM     19  C   UNL     1      -9.470  -1.884   3.381  0.00  0.00    +0.000 A 
ATOM     20  C   UNL     1      -9.987  -2.625   4.437  0.00  0.00    +0.000 A 
ATOM     21  N   UNL     1      -9.155  -3.311   5.261  0.00  0.00    +0.000 NA
ATOM     22  N   UNL     1      -7.806  -3.299   5.061  0.00  0.00    +0.000 NA
ATOM     23  C   UNL     1      -7.307  -2.597   4.034  0.00  0.00    +0.000 A 
BRANCH  20  24
ATOM     24  C   UNL     1     -11.423  -2.713   4.749  0.00  0.00    +0.000 A 
ATOM     25  C   UNL     1     -12.410  -2.603   3.759  0.00  0.00    +0.000 A 
ATOM     26  C   UNL     1     -13.746  -2.665   4.122  0.00  0.00    +0.000 A 
ATOM     27  N   UNL     1     -14.172  -2.833   5.390  0.00  0.00    +0.000 NA
ATOM     28  C   UNL     1     -13.219  -2.959   6.335  0.00  0.00    +0.000 A 
ATOM     29  C   UNL     1     -11.861  -2.913   6.067  0.00  0.00    +0.000 A 
ENDBRANCH  20  24
BRANCH  23  30
ATOM     30  O   UNL     1      -5.952  -2.669   3.924  0.00  0.00    +0.000 OA
ATOM     31  H   UNL     1      -5.747  -3.279   4.664  0.00  0.00    +0.000 HD
ENDBRANCH  23  30
ENDBRANCH   7  18
TORSDOF 4
