REMARK  Name = 
REMARK  5 active torsions:
REMARK  status: ('A' for Active; 'I' for Inactive)
REMARK    1  A    between atoms: N_3  and  C_4
REMARK    2  A    between atoms: C_7  and  C_8
REMARK    3  A    between atoms: N_16  and  C_17
REMARK    4  A    between atoms: C_17  and  C_18
REMARK    5  A    between atoms: C_17  and  C_24
REMARK                            x       y       z     vdW  Elec       q    Type
REMARK                         _______ _______ _______ _____ _____    ______ ____
ROOT
ATOM      1  O   UNL     1       2.814  -0.173   1.121  0.00  0.00    +0.000 OA
ATOM      2  C   UNL     1       2.270  -0.036   0.029  0.00  0.00    +0.000 C 
ATOM      3  N   UNL     1       0.914   0.095  -0.178  0.00  0.00    +0.000 N 
ATOM      4  N   UNL     1       2.983   0.021  -1.138  0.00  0.00    +0.000 N 
ATOM      5  H   UNL     1       0.576  -0.002  -1.125  0.00  0.00    +0.000 HD
ATOM      6  H   UNL     1       2.483  -0.139  -1.994  0.00  0.00    +0.000 HD
ENDROOT
BRANCH   3   7
ATOM      7  C   UNL     1      -0.064   0.120   0.846  0.00  0.00    +0.000 A 
ATOM      8  C   UNL     1       0.192   0.334   2.186  0.00  0.00    +0.000 A 
ATOM      9  N   UNL     1      -0.751   0.288   3.155  0.00  0.00    +0.000 NA
ATOM     10  C   UNL     1      -2.017   0.002   2.769  0.00  0.00    +0.000 A 
ATOM     11  N   UNL     1      -2.380  -0.171   1.475  0.00  0.00    +0.000 NA
ATOM     12  C   UNL     1      -1.395  -0.093   0.552  0.00  0.00    +0.000 A 
BRANCH  10  13
ATOM     13  C   UNL     1      -3.050  -0.175   3.829  0.00  0.00    +0.000 A 
ATOM     14  N   UNL     1      -2.906   0.511   4.989  0.00  0.00    +0.000 NA
ATOM     15  C   UNL     1      -3.841   0.309   5.934  0.00  0.00    +0.000 A 
ATOM     16  C   UNL     1      -4.902  -0.549   5.780  0.00  0.00    +0.000 A 
ATOM     17  C   UNL     1      -4.966  -1.206   4.576  0.00  0.00    +0.000 A 
ATOM     18  N   UNL     1      -4.069  -1.038   3.588  0.00  0.00    +0.000 NA
ENDBRANCH  10  13
ENDBRANCH   3   7
BRANCH   4  19
ATOM     19  C   UNL     1       4.436  -0.138  -1.182  0.00  0.00    +0.000 C 
BRANCH  19  20
ATOM     20  C   UNL     1       5.060   0.810  -2.222  0.00  0.00    +0.000 A 
ATOM     21  C   UNL     1       6.384   1.262  -2.060  0.00  0.00    +0.000 A 
ATOM     22  C   UNL     1       6.973   2.112  -3.006  0.00  0.00    +0.000 A 
ATOM     23  C   UNL     1       6.247   2.515  -4.119  0.00  0.00    +0.000 A 
ATOM     24  F   UNL     1       6.808   3.329  -5.022  0.00  0.00    +0.000 F 
ATOM     25  C   UNL     1       4.945   2.080  -4.309  0.00  0.00    +0.000 A 
ATOM     26  C   UNL     1       4.356   1.230  -3.371  0.00  0.00    +0.000 A 
ENDBRANCH  19  20
BRANCH  19  27
ATOM     27  C   UNL     1       4.794  -1.608  -1.394  0.00  0.00    +0.000 A 
ATOM     28  C   UNL     1       4.928  -2.169  -2.671  0.00  0.00    +0.000 A 
ATOM     29  C   UNL     1       5.260  -3.510  -2.793  0.00  0.00    +0.000 A 
ATOM     30  N   UNL     1       5.427  -4.341  -1.746  0.00  0.00    +0.000 NA
ATOM     31  C   UNL     1       5.265  -3.804  -0.518  0.00  0.00    +0.000 A 
ATOM     32  C   UNL     1       4.961  -2.466  -0.294  0.00  0.00    +0.000 A 
ENDBRANCH  19  27
ENDBRANCH   4  19
TORSDOF 5
