REMARK  Name = 
REMARK  8 active torsions:
REMARK  status: ('A' for Active; 'I' for Inactive)
REMARK    1  A    between atoms: C_1  and  C_2
REMARK    2  A    between atoms: C_3  and  C_4
REMARK    3  A    between atoms: N_6  and  C_7
REMARK    4  A    between atoms: N_6  and  C_11
REMARK    5  A    between atoms: C_7  and  C_8
REMARK    6  A    between atoms: C_11  and  C_12
REMARK    7  A    between atoms: C_15  and  C_16
REMARK    8  A    between atoms: N_26  and  C_27
REMARK                            x       y       z     vdW  Elec       q    Type
REMARK                         _______ _______ _______ _____ _____    ______ ____
ROOT
ATOM      1  C   UNL     1       2.716   2.567  -0.538  0.00  0.00    +0.000 C 
ATOM      2  O   UNL     1       3.062   1.399  -0.723  0.00  0.00    +0.000 OA
ATOM      3  N   UNL     1       3.640   3.505  -0.027  0.00  0.00    +0.000 N 
ENDROOT
BRANCH   1   6
ATOM      4  C   UNL     1       0.758   1.264  -2.766  0.00  0.00    +0.000 C 
ATOM      5  C   UNL     1       0.516   2.438  -1.883  0.00  0.00    +0.000 A 
ATOM      6  C   UNL     1       1.345   2.991  -0.896  0.00  0.00    +0.000 A 
ATOM      7  C   UNL     1       0.523   3.978  -0.326  0.00  0.00    +0.000 A 
ATOM      8  N   UNL     1      -0.564   4.242  -1.040  0.00  0.00    +0.000 NA
ATOM      9  N   UNL     1      -0.618   3.253  -1.965  0.00  0.00    +0.000 N 
BRANCH   9  10
ATOM     10  C   UNL     1      -1.764   3.205  -2.823  0.00  0.00    +0.000 A 
ATOM     11  C   UNL     1      -2.494   4.390  -3.050  0.00  0.00    +0.000 A 
ATOM     12  C   UNL     1      -3.623   4.385  -3.876  0.00  0.00    +0.000 A 
ATOM     13  C   UNL     1      -4.034   3.195  -4.462  0.00  0.00    +0.000 A 
ATOM     14  F   UNL     1      -5.119   3.184  -5.249  0.00  0.00    +0.000 F 
ATOM     15  C   UNL     1      -3.342   2.012  -4.235  0.00  0.00    +0.000 A 
ATOM     16  C   UNL     1      -2.207   2.015  -3.417  0.00  0.00    +0.000 A 
ENDBRANCH   9  10
ENDBRANCH   1   6
BRANCH   3  17
ATOM     17  C   UNL     1       5.072   3.135   0.022  0.00  0.00    +0.000 C 
BRANCH  17  18
ATOM     18  C   UNL     1       5.620   2.064   0.982  0.00  0.00    +0.000 C 
ATOM     19  N   UNL     1       4.843   0.982   1.243  0.00  0.00    +0.000 N 
ATOM     20  O   UNL     1       6.785   2.088   1.383  0.00  0.00    +0.000 OA
ATOM     21  H   UNL     1       4.090   0.762   0.592  0.00  0.00    +0.000 HD
ATOM     22  H   UNL     1       5.321   0.201   1.672  0.00  0.00    +0.000 HD
ENDBRANCH  17  18
ENDBRANCH   3  17
BRANCH   3  23
ATOM     23  C   UNL     1       3.415   4.951  -0.079  0.00  0.00    +0.000 C 
BRANCH  23  24
ATOM     24  C   UNL     1       2.983   5.574   1.228  0.00  0.00    +0.000 A 
ATOM     25  C   UNL     1       3.277   5.049   2.492  0.00  0.00    +0.000 A 
ATOM     26  C   UNL     1       2.832   5.694   3.665  0.00  0.00    +0.000 A 
ATOM     27  C   UNL     1       2.099   6.893   3.614  0.00  0.00    +0.000 A 
ATOM     28  C   UNL     1       1.855   7.418   2.332  0.00  0.00    +0.000 A 
ATOM     29  C   UNL     1       2.276   6.776   1.168  0.00  0.00    +0.000 A 
BRANCH  27  30
ATOM     30  C   UNL     1       1.606   7.616   4.819  0.00  0.00    +0.000 A 
ATOM     31  C   UNL     1       2.233   7.533   6.075  0.00  0.00    +0.000 A 
ATOM     32  C   UNL     1       1.802   8.312   7.160  0.00  0.00    +0.000 A 
ATOM     33  C   UNL     1       0.737   9.197   7.015  0.00  0.00    +0.000 A 
ATOM     34  C   UNL     1       0.073   9.273   5.800  0.00  0.00    +0.000 A 
ATOM     35  C   UNL     1       0.489   8.476   4.731  0.00  0.00    +0.000 A 
ENDBRANCH  27  30
ENDBRANCH  23  24
ENDBRANCH   3  23
TORSDOF 7
