REMARK  Name = 
REMARK  7 active torsions:
REMARK  status: ('A' for Active; 'I' for Inactive)
REMARK    1  A    between atoms: C_2  and  C_20
REMARK    2  A    between atoms: N_3  and  CA_4
REMARK    3  A    between atoms: CA_4  and  C_5
REMARK    4  A    between atoms: CA_4  and  C_8
REMARK    5  A    between atoms: C_5  and  OXT_7
REMARK    6  A    between atoms: C_12  and  C_13
REMARK    7  A    between atoms: C_26  and  O_27
REMARK                            x       y       z     vdW  Elec       q    Type
REMARK                         _______ _______ _______ _____ _____    ______ ____
ROOT
ATOM      1  CA  UNL     1       2.308   2.052  -1.296  0.00  0.00    +0.000 C 
ENDROOT
BRANCH   1   2
ATOM      2  C   UNL     1       3.265   2.933  -2.101  0.00  0.00    +0.000 A 
ATOM      3  C   UNL     1       3.680   4.184  -1.623  0.00  0.00    +0.000 A 
ATOM      4  C   UNL     1       4.603   4.946  -2.332  0.00  0.00    +0.000 A 
ATOM      5  C   UNL     1       5.152   4.458  -3.518  0.00  0.00    +0.000 A 
ATOM      6  C   UNL     1       4.790   3.201  -4.034  0.00  0.00    +0.000 A 
ATOM      7  C   UNL     1       3.814   2.467  -3.324  0.00  0.00    +0.000 A 
BRANCH   6   8
ATOM      8  C   UNL     1       5.477   2.673  -5.238  0.00  0.00    +0.000 A 
ATOM      9  C   UNL     1       6.863   2.852  -5.397  0.00  0.00    +0.000 A 
ATOM     10  C   UNL     1       7.498   2.368  -6.530  0.00  0.00    +0.000 A 
ATOM     11  N   UNL     1       6.863   1.710  -7.516  0.00  0.00    +0.000 NA
ATOM     12  C   UNL     1       5.534   1.535  -7.357  0.00  0.00    +0.000 A 
ATOM     13  C   UNL     1       4.810   1.988  -6.259  0.00  0.00    +0.000 A 
ENDBRANCH   6   8
ENDBRANCH   1   2
BRANCH   1  16
ATOM     14  O   UNL     1       2.767  -0.628  -1.833  0.00  0.00    +0.000 OA
ATOM     15  C   UNL     1       3.357  -0.158  -0.863  0.00  0.00    +0.000 C 
ATOM     16  N   UNL     1       3.080   1.121  -0.407  0.00  0.00    +0.000 N 
ATOM     17  H   UNL     1       3.753   1.555   0.216  0.00  0.00    +0.000 HD
BRANCH  15  18
ATOM     18  C   UNL     1       4.508  -0.927  -0.290  0.00  0.00    +0.000 A 
ATOM     19  C   UNL     1       5.362  -1.420  -1.298  0.00  0.00    +0.000 A 
ATOM     20  C   UNL     1       6.451  -2.218  -0.991  0.00  0.00    +0.000 A 
ATOM     21  C   UNL     1       6.733  -2.494   0.336  0.00  0.00    +0.000 A 
ATOM     22  C   UNL     1       5.932  -2.035   1.359  0.00  0.00    +0.000 A 
ATOM     23  N   UNL     1       6.342  -2.411   2.574  0.00  0.00    +0.000 NA
ATOM     24  C   UNL     1       5.560  -2.115   3.606  0.00  0.00    +0.000 A 
ATOM     25  C   UNL     1       4.358  -1.455   3.506  0.00  0.00    +0.000 A 
ATOM     26  C   UNL     1       3.958  -1.014   2.232  0.00  0.00    +0.000 A 
ATOM     27  C   UNL     1       4.759  -1.273   1.083  0.00  0.00    +0.000 A 
BRANCH  24  28
ATOM     28  O   UNL     1       6.060  -2.548   4.786  0.00  0.00    +0.000 OA
ATOM     29  H   UNL     1       6.896  -2.952   4.476  0.00  0.00    +0.000 HD
ENDBRANCH  24  28
ENDBRANCH  15  18
ENDBRANCH   1  16
BRANCH   1  30
ATOM     30  C   UNL     1       1.253   2.821  -0.476  0.00  0.00    +0.000 C 
ATOM     31  O   UNL     1       0.645   3.820  -0.822  0.00  0.00    +0.000 OA
BRANCH  30  32
ATOM     32  OXT UNL     1       0.987   2.201   0.721  0.00  0.00    +0.000 OA
ATOM     33  HXT UNL     1       1.502   1.371   0.761  0.00  0.00    +0.000 HD
ENDBRANCH  30  32
ENDBRANCH   1  30
TORSDOF 7
