REMARK  Name = 
REMARK  5 active torsions:
REMARK  status: ('A' for Active; 'I' for Inactive)
REMARK    1  A    between atoms: C_2  and  C_17
REMARK    2  A    between atoms: N_3  and  C_4
REMARK    3  A    between atoms: C_7  and  O_8
REMARK    4  A    between atoms: O_8  and  C_9
REMARK    5  A    between atoms: N_19  and  C_20
REMARK                            x       y       z     vdW  Elec       q    Type
REMARK                         _______ _______ _______ _____ _____    ______ ____
ROOT
ATOM      1  O   UNL     1       0.823  -0.154  -0.018  0.00  0.00    +0.000 OA
ATOM      2  C   UNL     1       2.026   0.004  -0.164  0.00  0.00    +0.000 C 
ATOM      3  N   UNL     1       2.719   1.206  -0.250  0.00  0.00    +0.000 N 
ATOM      4  H   UNL     1       3.655   1.169  -0.637  0.00  0.00    +0.000 HD
ENDROOT
BRANCH   2   5
ATOM      5  C   UNL     1       2.846  -1.238  -0.390  0.00  0.00    +0.000 A 
ATOM      6  N   UNL     1       3.811  -1.179  -1.270  0.00  0.00    +0.000 NA
ATOM      7  N   UNL     1       4.467  -2.357  -1.569  0.00  0.00    +0.000 N 
ATOM      8  C   UNL     1       3.985  -3.584  -1.149  0.00  0.00    +0.000 A 
ATOM      9  C   UNL     1       3.023  -3.763  -0.243  0.00  0.00    +0.000 A 
ATOM     10  C   UNL     1       2.501  -2.525   0.335  0.00  0.00    +0.000 A 
ATOM     11  O   UNL     1       1.841  -2.529   1.361  0.00  0.00    +0.000 OA
BRANCH   7  12
ATOM     12  C   UNL     1       5.625  -2.214  -2.403  0.00  0.00    +0.000 A 
ATOM     13  C   UNL     1       5.781  -1.077  -3.221  0.00  0.00    +0.000 A 
ATOM     14  C   UNL     1       6.917  -0.898  -4.019  0.00  0.00    +0.000 A 
ATOM     15  C   UNL     1       7.930  -1.852  -4.017  0.00  0.00    +0.000 A 
ATOM     16  C   UNL     1       7.803  -2.987  -3.223  0.00  0.00    +0.000 A 
ATOM     17  C   UNL     1       6.667  -3.161  -2.431  0.00  0.00    +0.000 A 
ATOM     18  F   UNL     1       6.630  -4.256  -1.655  0.00  0.00    +0.000 F 
ENDBRANCH   7  12
ENDBRANCH   2   5
BRANCH   3  19
ATOM     19  C   UNL     1       2.120   2.471  -0.044  0.00  0.00    +0.000 A 
ATOM     20  C   UNL     1       0.916   2.605   0.650  0.00  0.00    +0.000 A 
ATOM     21  C   UNL     1       0.294   3.844   0.781  0.00  0.00    +0.000 A 
ATOM     22  C   UNL     1       0.898   4.991   0.273  0.00  0.00    +0.000 A 
ATOM     23  C   UNL     1       2.112   4.875  -0.410  0.00  0.00    +0.000 A 
ATOM     24  C   UNL     1       2.732   3.622  -0.554  0.00  0.00    +0.000 A 
BRANCH  22  25
ATOM     25  O   UNL     1       0.325   6.243   0.347  0.00  0.00    +0.000 OA
BRANCH  25  26
ATOM     26  C   UNL     1      -0.423   6.552   1.480  0.00  0.00    +0.000 A 
ATOM     27  C   UNL     1      -1.464   7.455   1.322  0.00  0.00    +0.000 A 
ATOM     28  C   UNL     1      -2.237   7.772   2.438  0.00  0.00    +0.000 A 
ATOM     29  C   UNL     1      -1.945   7.178   3.662  0.00  0.00    +0.000 A 
ATOM     30  C   UNL     1      -0.874   6.303   3.727  0.00  0.00    +0.000 A 
ATOM     31  N   UNL     1      -0.096   5.995   2.670  0.00  0.00    +0.000 NA
ENDBRANCH  25  26
ENDBRANCH  22  25
ENDBRANCH   3  19
TORSDOF 5
