REMARK  Name = 
REMARK  5 active torsions:
REMARK  status: ('A' for Active; 'I' for Inactive)
REMARK    1  A    between atoms: C_2  and  C_4
REMARK    2  A    between atoms: C_4  and  N_5
REMARK    3  A    between atoms: C_4  and  C_21
REMARK    4  A    between atoms: C_6  and  C_8
REMARK    5  A    between atoms: C_10  and  C_11
REMARK                            x       y       z     vdW  Elec       q    Type
REMARK                         _______ _______ _______ _____ _____    ______ ____
ROOT
ATOM      1  N   UNL     1       2.802  -2.045  -1.066  0.00  0.00    +0.000 N 
ATOM      2  C   UNL     1       1.746  -2.922  -0.951  0.00  0.00    +0.000 C 
ATOM      3  O   UNL     1       1.129  -3.081   0.101  0.00  0.00    +0.000 OA
ATOM      4  H   UNL     1       3.133  -1.834  -2.003  0.00  0.00    +0.000 HD
ENDROOT
BRANCH   2   5
ATOM      5  C   UNL     1       1.364  -3.663  -2.197  0.00  0.00    +0.000 A 
ATOM      6  N   UNL     1       2.086  -3.409  -3.325  0.00  0.00    +0.000 NA
ATOM      7  C   UNL     1       1.709  -4.053  -4.463  0.00  0.00    +0.000 A 
ATOM      8  C   UNL     1       0.640  -4.955  -4.480  0.00  0.00    +0.000 A 
ATOM      9  C   UNL     1      -0.075  -5.202  -3.311  0.00  0.00    +0.000 A 
ATOM     10  C   UNL     1       0.290  -4.545  -2.147  0.00  0.00    +0.000 A 
BRANCH   7  11
ATOM     11  C   UNL     1       2.482  -3.731  -5.683  0.00  0.00    +0.000 A 
ATOM     12  C   UNL     1       3.857  -3.433  -5.612  0.00  0.00    +0.000 A 
ATOM     13  C   UNL     1       4.593  -3.112  -6.759  0.00  0.00    +0.000 A 
ATOM     14  C   UNL     1       3.960  -3.086  -7.994  0.00  0.00    +0.000 A 
ATOM     15  F   UNL     1       4.660  -2.768  -9.091  0.00  0.00    +0.000 F 
ATOM     16  C   UNL     1       2.610  -3.377  -8.105  0.00  0.00    +0.000 A 
ATOM     17  C   UNL     1       1.877  -3.697  -6.958  0.00  0.00    +0.000 A 
ENDBRANCH   7  11
ENDBRANCH   2   5
BRANCH   1  18
ATOM     18  C   UNL     1       3.150  -1.154   0.031  0.00  0.00    +0.000 C 
BRANCH  18  19
ATOM     19  C   UNL     1       4.647  -0.890   0.045  0.00  0.00    +0.000 A 
ATOM     20  C   UNL     1       5.490  -1.814   0.687  0.00  0.00    +0.000 A 
ATOM     21  C   UNL     1       6.878  -1.648   0.683  0.00  0.00    +0.000 A 
ATOM     22  C   UNL     1       7.466  -0.558   0.027  0.00  0.00    +0.000 A 
ATOM     23  C   UNL     1       8.860  -0.387  -0.016  0.00  0.00    +0.000 A 
ATOM     24  C   UNL     1       9.426   0.699  -0.687  0.00  0.00    +0.000 A 
ATOM     25  C   UNL     1       8.606   1.633  -1.312  0.00  0.00    +0.000 A 
ATOM     26  C   UNL     1       7.220   1.478  -1.276  0.00  0.00    +0.000 A 
ATOM     27  C   UNL     1       6.635   0.384  -0.618  0.00  0.00    +0.000 A 
ATOM     28  C   UNL     1       5.240   0.204  -0.602  0.00  0.00    +0.000 A 
ENDBRANCH  18  19
BRANCH  18  30
ATOM     29  N   UNL     1       1.464   0.371   1.017  0.00  0.00    +0.000 N 
ATOM     30  C   UNL     1       2.262   0.113  -0.068  0.00  0.00    +0.000 C 
ATOM     31  O   UNL     1       2.201   0.851  -1.050  0.00  0.00    +0.000 OA
ATOM     32  H   UNL     1       0.800   1.125   0.894  0.00  0.00    +0.000 HD
ATOM     33  H   UNL     1       1.167  -0.398   1.608  0.00  0.00    +0.000 HD
ENDBRANCH  18  30
ENDBRANCH   1  18
TORSDOF 5
