REMARK  Name = 
REMARK  6 active torsions:
REMARK  status: ('A' for Active; 'I' for Inactive)
REMARK    1  A    between atoms: C_2  and  C_3
REMARK    2  A    between atoms: C_5  and  C_6
REMARK    3  A    between atoms: C_6  and  C_7
REMARK    4  A    between atoms: C_12  and  C_14
REMARK    5  A    between atoms: C_17  and  N_18
REMARK    6  A    between atoms: C_19  and  C_21
REMARK                            x       y       z     vdW  Elec       q    Type
REMARK                         _______ _______ _______ _____ _____    ______ ____
ROOT
ATOM      1  C   UNL     1       1.531  -4.034  -0.226  0.00  0.00    +0.000 A 
ATOM      2  C   UNL     1       0.537  -4.011  -1.184  0.00  0.00    +0.000 A 
ATOM      3  N   UNL     1      -0.431  -4.982  -1.067  0.00  0.00    +0.000 NA
ATOM      4  C   UNL     1      -0.188  -5.732  -0.024  0.00  0.00    +0.000 A 
ATOM      5  N   UNL     1      -0.919  -6.797   0.444  0.00  0.00    +0.000 N 
ATOM      6  C   UNL     1      -1.904  -7.366  -0.339  0.00  0.00    +0.000 C 
ATOM      7  O   UNL     1      -2.166  -7.080  -1.506  0.00  0.00    +0.000 OA
ATOM      8  S   UNL     1       1.203  -5.315   0.883  0.00  0.00    +0.000 S 
ATOM      9  H   UNL     1      -0.638  -7.197   1.326  0.00  0.00    +0.000 HD
ENDROOT
BRANCH   6  10
ATOM     10  C   UNL     1      -2.698  -8.475   0.270  0.00  0.00    +0.000 A 
ATOM     11  C   UNL     1      -2.953  -8.554   1.636  0.00  0.00    +0.000 A 
ATOM     12  C   UNL     1      -3.769  -9.580   2.138  0.00  0.00    +0.000 A 
ATOM     13  C   UNL     1      -4.351 -10.537   1.298  0.00  0.00    +0.000 A 
ATOM     14  C   UNL     1      -4.096 -10.450  -0.074  0.00  0.00    +0.000 A 
ATOM     15  C   UNL     1      -3.280  -9.428  -0.582  0.00  0.00    +0.000 A 
BRANCH  13  16
ATOM     16  N   UNL     1      -5.189 -11.585   1.760  0.00  0.00    +0.000 N 
ATOM     17  C   UNL     1      -5.528 -11.828   3.080  0.00  0.00    +0.000 C 
ATOM     18  O   UNL     1      -5.180 -11.147   4.041  0.00  0.00    +0.000 OA
ATOM     19  H   UNL     1      -5.588 -12.184   1.047  0.00  0.00    +0.000 HD
BRANCH  17  20
ATOM     20  C   UNL     1      -6.408 -13.020   3.325  0.00  0.00    +0.000 A 
ATOM     21  C   UNL     1      -7.123 -12.990   4.466  0.00  0.00    +0.000 A 
ATOM     22  N   UNL     1      -7.876 -14.068   4.860  0.00  0.00    +0.000 N 
ATOM     23  C   UNL     1      -7.943 -15.248   4.164  0.00  0.00    +0.000 A 
ATOM     24  O   UNL     1      -8.591 -16.216   4.545  0.00  0.00    +0.000 OA
ATOM     25  C   UNL     1      -7.154 -15.294   2.902  0.00  0.00    +0.000 A 
ATOM     26  C   UNL     1      -6.433 -14.228   2.518  0.00  0.00    +0.000 A 
ATOM     27  H   UNL     1      -8.385 -14.039   5.736  0.00  0.00    +0.000 HD
ENDBRANCH  17  20
ENDBRANCH  13  16
ENDBRANCH   6  10
BRANCH   1  28
ATOM     28  C   UNL     1       2.679  -3.087  -0.056  0.00  0.00    +0.000 C 
BRANCH  28  31
ATOM     29  C   UNL     1       6.097  -4.455  -1.096  0.00  0.00    +0.000 A 
ATOM     30  C   UNL     1       4.940  -4.189  -0.351  0.00  0.00    +0.000 A 
ATOM     31  C   UNL     1       3.900  -3.417  -0.891  0.00  0.00    +0.000 A 
ATOM     32  C   UNL     1       4.033  -2.933  -2.203  0.00  0.00    +0.000 A 
ATOM     33  C   UNL     1       5.185  -3.199  -2.949  0.00  0.00    +0.000 A 
ATOM     34  C   UNL     1       6.218  -3.956  -2.396  0.00  0.00    +0.000 A 
BRANCH  29  36
ATOM     35  N   UNL     1       8.014  -5.847  -0.041  0.00  0.00    +0.000 NA
ATOM     36  C   UNL     1       7.158  -5.226  -0.518  0.00  0.00    +0.000 C 
ENDBRANCH  29  36
ENDBRANCH  28  31
ENDBRANCH   1  28
TORSDOF 6
