REMARK  Name = 
REMARK  4 active torsions:
REMARK  status: ('A' for Active; 'I' for Inactive)
REMARK    1  A    between atoms: C_2  and  C_17
REMARK    2  A    between atoms: C_6  and  O_7
REMARK    3  A    between atoms: C_10  and  C_11
REMARK    4  A    between atoms: N_19  and  C_20
REMARK                            x       y       z     vdW  Elec       q    Type
REMARK                         _______ _______ _______ _____ _____    ______ ____
ROOT
ATOM      1  O   UNL     1       0.953   0.084  -0.093  0.00  0.00    +0.000 OA
ATOM      2  C   UNL     1       2.154  -0.058   0.076  0.00  0.00    +0.000 C 
ATOM      3  N   UNL     1       2.868  -1.237  -0.025  0.00  0.00    +0.000 N 
ATOM      4  C   UNL     1       2.193  -2.446  -0.258  0.00  0.00    +0.000 A 
ATOM      5  N   UNL     1       1.290  -2.796   0.693  0.00  0.00    +0.000 NA
ATOM      6  C   UNL     1       0.709  -3.993   0.562  0.00  0.00    +0.000 A 
ATOM      7  C   UNL     1       0.946  -4.881  -0.455  0.00  0.00    +0.000 A 
ATOM      8  C   UNL     1       1.856  -4.497  -1.434  0.00  0.00    +0.000 A 
ATOM      9  C   UNL     1       2.529  -3.260  -1.364  0.00  0.00    +0.000 A 
ATOM     10  H   UNL     1       3.813  -1.136  -0.373  0.00  0.00    +0.000 HD
ENDROOT
BRANCH   2  11
ATOM     11  C   UNL     1       3.030   1.166   0.292  0.00  0.00    +0.000 A 
ATOM     12  N   UNL     1       4.251   1.131  -0.192  0.00  0.00    +0.000 NA
ATOM     13  N   UNL     1       5.065   2.227   0.043  0.00  0.00    +0.000 N 
ATOM     14  C   UNL     1       4.688   3.241   0.904  0.00  0.00    +0.000 A 
ATOM     15  C   UNL     1       3.482   3.382   1.448  0.00  0.00    +0.000 A 
ATOM     16  C   UNL     1       2.507   2.358   1.072  0.00  0.00    +0.000 A 
ATOM     17  O   UNL     1       1.340   2.462   1.409  0.00  0.00    +0.000 OA
BRANCH  13  18
ATOM     18  C   UNL     1       6.383   2.182  -0.526  0.00  0.00    +0.000 A 
ATOM     19  C   UNL     1       7.114   3.364  -0.780  0.00  0.00    +0.000 A 
ATOM     20  C   UNL     1       8.432   3.324  -1.244  0.00  0.00    +0.000 A 
ATOM     21  C   UNL     1       9.034   2.097  -1.478  0.00  0.00    +0.000 A 
ATOM     22  F   UNL     1      10.307   2.054  -1.886  0.00  0.00    +0.000 F 
ATOM     23  C   UNL     1       8.331   0.915  -1.278  0.00  0.00    +0.000 A 
ATOM     24  C   UNL     1       7.011   0.960  -0.819  0.00  0.00    +0.000 A 
ENDBRANCH  13  18
ENDBRANCH   2  11
BRANCH   9  25
ATOM     25  C   UNL     1       3.459  -2.864  -2.458  0.00  0.00    +0.000 A 
ATOM     26  C   UNL     1       3.532  -1.543  -2.940  0.00  0.00    +0.000 A 
ATOM     27  C   UNL     1       4.418  -1.176  -3.957  0.00  0.00    +0.000 A 
ATOM     28  C   UNL     1       5.212  -2.138  -4.568  0.00  0.00    +0.000 A 
ATOM     29  C   UNL     1       5.128  -3.462  -4.151  0.00  0.00    +0.000 A 
ATOM     30  C   UNL     1       4.276  -3.815  -3.099  0.00  0.00    +0.000 A 
ENDBRANCH   9  25
BRANCH   6  31
ATOM     31  O   UNL     1      -0.165  -4.299   1.552  0.00  0.00    +0.000 OA
ATOM     32  H   UNL     1      -0.128  -3.474   2.070  0.00  0.00    +0.000 HD
ENDBRANCH   6  31
TORSDOF 4
