REMARK  Name = 
REMARK  5 active torsions:
REMARK  status: ('A' for Active; 'I' for Inactive)
REMARK    1  A    between atoms: C_2  and  C_3
REMARK    2  A    between atoms: C_4  and  N_5
REMARK    3  A    between atoms: C_6  and  C_8
REMARK    4  A    between atoms: C_10  and  C_11
REMARK    5  A    between atoms: N_22  and  C_23
REMARK                            x       y       z     vdW  Elec       q    Type
REMARK                         _______ _______ _______ _____ _____    ______ ____
ROOT
ATOM      1  N   UNL     1       3.935   2.393   0.339  0.00  0.00    +0.000 N 
ATOM      2  C   UNL     1       4.551   3.624   0.593  0.00  0.00    +0.000 C 
ATOM      3  O   UNL     1       5.767   3.770   0.692  0.00  0.00    +0.000 OA
ATOM      4  H   UNL     1       2.923   2.434   0.278  0.00  0.00    +0.000 HD
ENDROOT
BRANCH   1   6
ATOM      5  C   UNL     1       3.880  -0.009  -0.006  0.00  0.00    +0.000 A 
ATOM      6  C   UNL     1       4.566   1.147   0.188  0.00  0.00    +0.000 A 
ATOM      7  C   UNL     1       6.011   1.045   0.275  0.00  0.00    +0.000 A 
ATOM      8  C   UNL     1       6.637  -0.131   0.224  0.00  0.00    +0.000 A 
ATOM      9  N   UNL     1       5.949  -1.319   0.082  0.00  0.00    +0.000 N 
ATOM     10  C   UNL     1       4.551  -1.336  -0.049  0.00  0.00    +0.000 A 
ATOM     11  O   UNL     1       3.863  -2.340  -0.220  0.00  0.00    +0.000 OA
BRANCH   9  12
ATOM     12  C   UNL     1       6.657  -2.552   0.006  0.00  0.00    +0.000 A 
ATOM     13  C   UNL     1       7.760  -2.669  -0.850  0.00  0.00    +0.000 A 
ATOM     14  C   UNL     1       8.397  -3.899  -1.002  0.00  0.00    +0.000 A 
ATOM     15  C   UNL     1       7.967  -5.002  -0.265  0.00  0.00    +0.000 A 
ATOM     16  C   UNL     1       6.905  -4.877   0.628  0.00  0.00    +0.000 A 
ATOM     17  C   UNL     1       6.245  -3.657   0.758  0.00  0.00    +0.000 A 
ENDBRANCH   9  12
BRANCH   5  19
ATOM     18  N   UNL     1       1.099  -0.009  -0.006  0.00  0.00    +0.000 NA
ATOM     19  C   UNL     1       2.360  -0.009  -0.006  0.00  0.00    +0.000 C 
ENDBRANCH   5  19
ENDBRANCH   1   6
BRANCH   2  20
ATOM     20  C   UNL     1       3.709   4.787   0.728  0.00  0.00    +0.000 A 
ATOM     21  C   UNL     1       4.100   6.081   0.972  0.00  0.00    +0.000 A 
ATOM     22  C   UNL     1       2.947   6.869   0.778  0.00  0.00    +0.000 A 
ATOM     23  N   UNL     1       1.873   6.074   0.611  0.00  0.00    +0.000 NA
ATOM     24  O   UNL     1       2.361   4.766   0.555  0.00  0.00    +0.000 OA
BRANCH  22  25
ATOM     25  C   UNL     1       2.902   8.324   0.661  0.00  0.00    +0.000 A 
ATOM     26  C   UNL     1       1.785   9.065   1.064  0.00  0.00    +0.000 A 
ATOM     27  C   UNL     1       1.739  10.447   0.843  0.00  0.00    +0.000 A 
ATOM     28  C   UNL     1       2.804  11.103   0.221  0.00  0.00    +0.000 A 
ATOM     29  C   UNL     1       3.932  10.383  -0.154  0.00  0.00    +0.000 A 
ATOM     30  C   UNL     1       3.977   9.010   0.072  0.00  0.00    +0.000 A 
ATOM     31  F   UNL     1       5.077   8.353  -0.328  0.00  0.00    +0.000 F 
ENDBRANCH  22  25
ENDBRANCH   2  20
TORSDOF 5
