REMARK  Name = 
REMARK  6 active torsions:
REMARK  status: ('A' for Active; 'I' for Inactive)
REMARK    1  A    between atoms: C_1  and  N_2
REMARK    2  A    between atoms: C_5  and  C_6
REMARK    3  A    between atoms: C_6  and  N_7
REMARK    4  A    between atoms: C_6  and  C_24
REMARK    5  A    between atoms: C_8  and  C_10
REMARK    6  A    between atoms: N_12  and  C_13
REMARK                            x       y       z     vdW  Elec       q    Type
REMARK                         _______ _______ _______ _____ _____    ______ ____
ROOT
ATOM      1  N   UNL     1       2.480   2.651   1.119  0.00  0.00    +0.000 N 
ATOM      2  C   UNL     1       1.680   3.768   1.113  0.00  0.00    +0.000 C 
ATOM      3  O   UNL     1       1.032   4.168   0.156  0.00  0.00    +0.000 OA
ATOM      4  H   UNL     1       2.792   2.319   2.026  0.00  0.00    +0.000 HD
ENDROOT
BRANCH   2   5
ATOM      5  C   UNL     1       1.652   4.547   2.434  0.00  0.00    +0.000 A 
ATOM      6  N   UNL     1       2.347   4.101   3.433  0.00  0.00    +0.000 NA
ATOM      7  N   UNL     1       2.326   4.812   4.622  0.00  0.00    +0.000 N 
ATOM      8  C   UNL     1       1.573   5.984   4.792  0.00  0.00    +0.000 A 
ATOM      9  O   UNL     1       1.504   6.696   5.793  0.00  0.00    +0.000 OA
ATOM     10  C   UNL     1       0.813   6.443   3.606  0.00  0.00    +0.000 A 
ATOM     11  C   UNL     1       0.835   5.771   2.457  0.00  0.00    +0.000 A 
BRANCH   7  12
ATOM     12  C   UNL     1       3.157   4.250   5.655  0.00  0.00    +0.000 A 
ATOM     13  C   UNL     1       2.969   4.569   7.012  0.00  0.00    +0.000 A 
ATOM     14  C   UNL     1       3.792   4.037   8.014  0.00  0.00    +0.000 A 
ATOM     15  C   UNL     1       4.827   3.170   7.684  0.00  0.00    +0.000 A 
ATOM     16  C   UNL     1       5.030   2.828   6.352  0.00  0.00    +0.000 A 
ATOM     17  C   UNL     1       4.202   3.354   5.356  0.00  0.00    +0.000 A 
ATOM     18  F   UNL     1       4.491   3.002   4.092  0.00  0.00    +0.000 F 
ENDBRANCH   7  12
ENDBRANCH   2   5
BRANCH   1  19
ATOM     19  C   UNL     1       2.450   1.722   0.014  0.00  0.00    +0.000 C 
BRANCH  19  20
ATOM     20  C   UNL     1       3.736   0.918  -0.116  0.00  0.00    +0.000 A 
ATOM     21  C   UNL     1       4.541   1.091  -1.259  0.00  0.00    +0.000 A 
ATOM     22  C   UNL     1       5.695   0.326  -1.446  0.00  0.00    +0.000 A 
ATOM     23  C   UNL     1       6.059  -0.609  -0.487  0.00  0.00    +0.000 A 
ATOM     24  F   UNL     1       7.149  -1.363  -0.681  0.00  0.00    +0.000 F 
ATOM     25  C   UNL     1       5.308  -0.775   0.669  0.00  0.00    +0.000 A 
ATOM     26  C   UNL     1       4.155  -0.007   0.861  0.00  0.00    +0.000 A 
ENDBRANCH  19  20
BRANCH  19  31
ATOM     27  C   UNL     1      -0.930  -1.140   2.082  0.00  0.00    +0.000 C 
ATOM     28  N   UNL     1      -0.152  -0.534   1.029  0.00  0.00    +0.000 N 
ATOM     29  C   UNL     1      -0.282  -0.752  -0.309  0.00  0.00    +0.000 A 
ATOM     30  C   UNL     1       0.662   0.041  -0.913  0.00  0.00    +0.000 A 
ATOM     31  C   UNL     1       1.325   0.714   0.149  0.00  0.00    +0.000 A 
ATOM     32  N   UNL     1       0.814   0.350   1.342  0.00  0.00    +0.000 NA
ENDBRANCH  19  31
ENDBRANCH   1  19
TORSDOF 5
