REMARK  Name = 
REMARK  3 active torsions:
REMARK  status: ('A' for Active; 'I' for Inactive)
REMARK    1  A    between atoms: C_2  and  C_16
REMARK    2  A    between atoms: C_8  and  C_9
REMARK    3  A    between atoms: N_18  and  C_19
REMARK                            x       y       z     vdW  Elec       q    Type
REMARK                         _______ _______ _______ _____ _____    ______ ____
ROOT
ATOM      1  O   UNL     1       0.946  -0.106   0.230  0.00  0.00    +0.000 OA
ATOM      2  C   UNL     1       2.161  -0.088   0.085  0.00  0.00    +0.000 C 
ATOM      3  N   UNL     1       2.864   0.073  -1.093  0.00  0.00    +0.000 N 
ATOM      4  C   UNL     1       2.258   0.450  -2.281  0.00  0.00    +0.000 A 
ATOM      5  N   UNL     1       1.057   1.041  -2.336  0.00  0.00    +0.000 NA
ATOM      6  O   UNL     1       0.791   1.283  -3.660  0.00  0.00    +0.000 OA
ATOM      7  C   UNL     1       1.817   0.832  -4.411  0.00  0.00    +0.000 A 
ATOM      8  C   UNL     1       2.788   0.282  -3.601  0.00  0.00    +0.000 A 
ATOM      9  H   UNL     1       3.850  -0.160  -1.109  0.00  0.00    +0.000 HD
ENDROOT
BRANCH   8  10
ATOM     10  C   UNL     1       3.975  -0.381  -4.123  0.00  0.00    +0.000 A 
ATOM     11  C   UNL     1       3.920  -1.068  -5.349  0.00  0.00    +0.000 A 
ATOM     12  C   UNL     1       5.039  -1.742  -5.848  0.00  0.00    +0.000 A 
ATOM     13  C   UNL     1       6.232  -1.742  -5.130  0.00  0.00    +0.000 A 
ATOM     14  C   UNL     1       6.305  -1.064  -3.915  0.00  0.00    +0.000 A 
ATOM     15  C   UNL     1       5.185  -0.393  -3.422  0.00  0.00    +0.000 A 
ATOM     16  F   UNL     1       5.300   0.241  -2.245  0.00  0.00    +0.000 F 
ENDBRANCH   8  10
BRANCH   2  17
ATOM     17  C   UNL     1       3.017  -0.388   1.297  0.00  0.00    +0.000 A 
ATOM     18  N   UNL     1       4.150  -1.016   1.098  0.00  0.00    +0.000 NA
ATOM     19  N   UNL     1       4.893  -1.367   2.213  0.00  0.00    +0.000 N 
ATOM     20  C   UNL     1       4.383  -1.244   3.493  0.00  0.00    +0.000 A 
ATOM     21  C   UNL     1       3.250  -0.620   3.816  0.00  0.00    +0.000 A 
ATOM     22  C   UNL     1       2.545  -0.009   2.689  0.00  0.00    +0.000 A 
ATOM     23  O   UNL     1       1.639   0.786   2.877  0.00  0.00    +0.000 OA
BRANCH  19  24
ATOM     24  C   UNL     1       6.160  -1.981   1.945  0.00  0.00    +0.000 A 
ATOM     25  C   UNL     1       6.392  -2.646   0.725  0.00  0.00    +0.000 A 
ATOM     26  C   UNL     1       7.612  -3.278   0.457  0.00  0.00    +0.000 A 
ATOM     27  C   UNL     1       8.640  -3.248   1.395  0.00  0.00    +0.000 A 
ATOM     28  C   UNL     1       8.448  -2.582   2.600  0.00  0.00    +0.000 A 
ATOM     29  C   UNL     1       7.228  -1.958   2.865  0.00  0.00    +0.000 A 
ATOM     30  F   UNL     1       7.122  -1.299   4.030  0.00  0.00    +0.000 F 
ENDBRANCH  19  24
ENDBRANCH   2  17
TORSDOF 3
