REMARK  Name = 
REMARK  6 active torsions:
REMARK  status: ('A' for Active; 'I' for Inactive)
REMARK    1  A    between atoms: C_2  and  C_14
REMARK    2  A    between atoms: N_3  and  C_4
REMARK    3  A    between atoms: C_4  and  C_5
REMARK    4  A    between atoms: C_5  and  C_6
REMARK    5  A    between atoms: C_19  and  C_20
REMARK    6  A    between atoms: C_20  and  C_22
REMARK                            x       y       z     vdW  Elec       q    Type
REMARK                         _______ _______ _______ _____ _____    ______ ____
ROOT
ATOM      1  C   UNL     1       2.942  -1.190   0.331  0.00  0.00    +0.000 A 
ATOM      2  C   UNL     1       2.574  -2.462  -0.157  0.00  0.00    +0.000 A 
ATOM      3  C   UNL     1       3.193  -3.621   0.311  0.00  0.00    +0.000 A 
ATOM      4  C   UNL     1       4.200  -3.529   1.260  0.00  0.00    +0.000 A 
ATOM      5  C   UNL     1       4.574  -2.278   1.752  0.00  0.00    +0.000 A 
ATOM      6  C   UNL     1       3.953  -1.091   1.310  0.00  0.00    +0.000 A 
ENDROOT
BRANCH   1   8
ATOM      7  O   UNL     1       2.934   0.971  -0.617  0.00  0.00    +0.000 OA
ATOM      8  C   UNL     1       2.286  -0.020  -0.310  0.00  0.00    +0.000 C 
ATOM      9  N   UNL     1       0.921  -0.131  -0.522  0.00  0.00    +0.000 N 
ATOM     10  H   UNL     1       0.434  -0.974  -0.251  0.00  0.00    +0.000 HD
BRANCH   9  11
ATOM     11  C   UNL     1       0.124   0.958  -1.065  0.00  0.00    +0.000 C 
BRANCH  11  12
ATOM     12  C   UNL     1       0.168   1.033  -2.596  0.00  0.00    +0.000 C 
BRANCH  12  13
ATOM     13  C   UNL     1      -0.645   2.172  -3.157  0.00  0.00    +0.000 A 
ATOM     14  C   UNL     1      -0.046   3.205  -3.878  0.00  0.00    +0.000 A 
ATOM     15  F   UNL     1       1.276   3.212  -4.093  0.00  0.00    +0.000 F 
ATOM     16  C   UNL     1      -0.828   4.234  -4.391  0.00  0.00    +0.000 A 
ATOM     17  N   UNL     1      -2.172   4.306  -4.237  0.00  0.00    +0.000 NA
ATOM     18  C   UNL     1      -2.743   3.296  -3.541  0.00  0.00    +0.000 A 
ATOM     19  C   UNL     1      -2.030   2.233  -2.999  0.00  0.00    +0.000 A 
ATOM     20  F   UNL     1      -2.681   1.269  -2.334  0.00  0.00    +0.000 F 
ENDBRANCH  12  13
ENDBRANCH  11  12
ENDBRANCH   9  11
ENDBRANCH   1   8
BRANCH   6  21
ATOM     21  C   UNL     1       4.501   0.156   1.924  0.00  0.00    +0.000 C 
ATOM     22  O   UNL     1       5.671   0.147   2.317  0.00  0.00    +0.000 OA
BRANCH  21  23
ATOM     23  C   UNL     1       3.737   1.405   2.142  0.00  0.00    +0.000 A 
ATOM     24  C   UNL     1       2.368   1.412   2.439  0.00  0.00    +0.000 A 
ATOM     25  C   UNL     1       1.685   2.629   2.516  0.00  0.00    +0.000 A 
ATOM     26  C   UNL     1       2.380   3.824   2.346  0.00  0.00    +0.000 A 
ATOM     27  F   UNL     1       1.710   4.984   2.390  0.00  0.00    +0.000 F 
ATOM     28  C   UNL     1       3.754   3.819   2.136  0.00  0.00    +0.000 A 
ATOM     29  F   UNL     1       4.423   4.971   2.011  0.00  0.00    +0.000 F 
ATOM     30  C   UNL     1       4.441   2.615   2.042  0.00  0.00    +0.000 A 
ENDBRANCH  21  23
ENDBRANCH   6  21
TORSDOF 6
