REMARK  Name = 
REMARK  5 active torsions:
REMARK  status: ('A' for Active; 'I' for Inactive)
REMARK    1  A    between atoms: C_1  and  O_2
REMARK    2  A    between atoms: O_2  and  C_3
REMARK    3  A    between atoms: C_6  and  C_7
REMARK    4  A    between atoms: C_14  and  N_15
REMARK    5  A    between atoms: C_16  and  C_18
REMARK                            x       y       z     vdW  Elec       q    Type
REMARK                         _______ _______ _______ _____ _____    ______ ____
ROOT
ATOM      1  N   UNL     1       4.608   0.775   1.504  0.00  0.00    +0.000 N 
ATOM      2  C   UNL     1       5.835   1.231   1.982  0.00  0.00    +0.000 C 
ATOM      3  O   UNL     1       6.787   0.515   2.308  0.00  0.00    +0.000 OA
ATOM      4  H   UNL     1       3.953   1.422   1.070  0.00  0.00    +0.000 HD
ENDROOT
BRANCH   2   5
ATOM      5  C   UNL     1       6.114   2.692   2.071  0.00  0.00    +0.000 A 
ATOM      6  C   UNL     1       5.181   3.666   2.461  0.00  0.00    +0.000 A 
ATOM      7  C   UNL     1       5.601   5.005   2.614  0.00  0.00    +0.000 A 
ATOM      8  C   UNL     1       6.931   5.358   2.333  0.00  0.00    +0.000 A 
ATOM      9  N   UNL     1       7.317   6.706   2.329  0.00  0.00    +0.000 N 
ATOM     10  C   UNL     1       6.445   7.733   2.559  0.00  0.00    +0.000 A 
ATOM     11  O   UNL     1       6.738   8.907   2.375  0.00  0.00    +0.000 OA
ATOM     12  C   UNL     1       5.110   7.346   3.080  0.00  0.00    +0.000 A 
ATOM     13  C   UNL     1       4.711   6.063   3.105  0.00  0.00    +0.000 A 
ATOM     14  C   UNL     1       7.859   4.380   2.006  0.00  0.00    +0.000 A 
ATOM     15  F   UNL     1       9.145   4.704   1.815  0.00  0.00    +0.000 F 
ATOM     16  C   UNL     1       7.460   3.061   1.881  0.00  0.00    +0.000 A 
ATOM     17  H   UNL     1       8.252   6.955   2.028  0.00  0.00    +0.000 HD
ENDBRANCH   2   5
BRANCH   1  23
ATOM     18  C   UNL     1       3.152  -1.010   0.604  0.00  0.00    +0.000 A 
ATOM     19  C   UNL     1       2.888  -2.381   0.431  0.00  0.00    +0.000 A 
ATOM     20  C   UNL     1       3.714  -3.357   0.996  0.00  0.00    +0.000 A 
ATOM     21  C   UNL     1       4.820  -3.002   1.769  0.00  0.00    +0.000 A 
ATOM     22  C   UNL     1       5.054  -1.625   1.950  0.00  0.00    +0.000 A 
ATOM     23  C   UNL     1       4.276  -0.617   1.355  0.00  0.00    +0.000 A 
BRANCH  21  24
ATOM     24  C   UNL     1       5.721  -4.012   2.364  0.00  0.00    +0.000 A 
ATOM     25  C   UNL     1       7.104  -3.801   2.477  0.00  0.00    +0.000 A 
ATOM     26  C   UNL     1       7.932  -4.775   3.034  0.00  0.00    +0.000 A 
ATOM     27  C   UNL     1       7.356  -5.955   3.464  0.00  0.00    +0.000 A 
ATOM     28  N   UNL     1       6.036  -6.214   3.382  0.00  0.00    +0.000 NA
ATOM     29  C   UNL     1       5.259  -5.240   2.842  0.00  0.00    +0.000 A 
ENDBRANCH  21  24
BRANCH  18  31
ATOM     30  C   UNL     1       1.129  -0.449  -0.512  0.00  0.00    +0.000 C 
ATOM     31  O   UNL     1       2.373  -0.018   0.050  0.00  0.00    +0.000 OA
ENDBRANCH  18  31
ENDBRANCH   1  23
TORSDOF 4
