REMARK  Name = 
REMARK  8 active torsions:
REMARK  status: ('A' for Active; 'I' for Inactive)
REMARK    1  A    between atoms: C_2  and  C_19
REMARK    2  A    between atoms: N_3  and  C_4
REMARK    3  A    between atoms: C_4  and  C_5
REMARK    4  A    between atoms: C_4  and  C_11
REMARK    5  A    between atoms: C_11  and  O_12
REMARK    6  A    between atoms: C_11  and  C_13
REMARK    7  A    between atoms: N_21  and  C_22
REMARK    8  A    between atoms: C_25  and  O_26
REMARK                            x       y       z     vdW  Elec       q    Type
REMARK                         _______ _______ _______ _____ _____    ______ ____
ROOT
ATOM      1  O   UNL     1      -0.400   0.943  -1.202  0.00  0.00    +0.000 OA
ATOM      2  C   UNL     1       0.103   2.052  -1.057  0.00  0.00    +0.000 C 
ATOM      3  N   UNL     1       1.379   2.375  -1.461  0.00  0.00    +0.000 N 
ATOM      4  H   UNL     1       1.699   3.305  -1.209  0.00  0.00    +0.000 HD
ENDROOT
BRANCH   2   5
ATOM      5  C   UNL     1      -0.619   3.176  -0.439  0.00  0.00    +0.000 A 
ATOM      6  N   UNL     1      -0.079   4.407  -0.335  0.00  0.00    +0.000 NA
ATOM      7  N   UNL     1      -1.025   5.157   0.294  0.00  0.00    +0.000 N 
ATOM      8  C   UNL     1      -2.158   4.420   0.556  0.00  0.00    +0.000 A 
ATOM      9  C   UNL     1      -1.924   3.146   0.103  0.00  0.00    +0.000 A 
BRANCH   7  10
ATOM     10  C   UNL     1      -0.773   6.519   0.623  0.00  0.00    +0.000 A 
ATOM     11  C   UNL     1       0.434   7.115   0.221  0.00  0.00    +0.000 A 
ATOM     12  C   UNL     1       0.716   8.441   0.558  0.00  0.00    +0.000 A 
ATOM     13  C   UNL     1      -0.208   9.169   1.300  0.00  0.00    +0.000 A 
ATOM     14  C   UNL     1      -1.409   8.596   1.700  0.00  0.00    +0.000 A 
ATOM     15  C   UNL     1      -1.699   7.271   1.360  0.00  0.00    +0.000 A 
BRANCH  13  16
ATOM     16  O   UNL     1       0.029  10.461   1.662  0.00  0.00    +0.000 OA
ATOM     17  H   UNL     1       0.903  10.723   1.327  0.00  0.00    +0.000 HD
ENDBRANCH  13  16
ENDBRANCH   7  10
ENDBRANCH   2   5
BRANCH   3  18
ATOM     18  C   UNL     1       2.279   1.405  -2.070  0.00  0.00    +0.000 C 
BRANCH  18  19
ATOM     19  C   UNL     1       2.989   0.614  -0.978  0.00  0.00    +0.000 A 
ATOM     20  C   UNL     1       3.949   1.190  -0.132  0.00  0.00    +0.000 A 
ATOM     21  C   UNL     1       4.505   0.450   0.916  0.00  0.00    +0.000 A 
ATOM     22  C   UNL     1       4.114  -0.872   1.129  0.00  0.00    +0.000 A 
ATOM     23  C   UNL     1       3.181  -1.463   0.283  0.00  0.00    +0.000 A 
ATOM     24  C   UNL     1       2.623  -0.726  -0.760  0.00  0.00    +0.000 A 
ENDBRANCH  18  19
BRANCH  18  25
ATOM     25  C   UNL     1       3.247   2.043  -3.120  0.00  0.00    +0.000 C 
BRANCH  25  26
ATOM     26  C   UNL     1       2.513   2.847  -4.189  0.00  0.00    +0.000 A 
ATOM     27  C   UNL     1       2.824   4.203  -4.383  0.00  0.00    +0.000 A 
ATOM     28  C   UNL     1       2.154   4.956  -5.351  0.00  0.00    +0.000 A 
ATOM     29  C   UNL     1       1.173   4.360  -6.143  0.00  0.00    +0.000 A 
ATOM     30  C   UNL     1       0.858   3.018  -5.964  0.00  0.00    +0.000 A 
ATOM     31  C   UNL     1       1.520   2.267  -4.991  0.00  0.00    +0.000 A 
ENDBRANCH  25  26
BRANCH  25  32
ATOM     32  O   UNL     1       4.021   1.034  -3.782  0.00  0.00    +0.000 OA
ATOM     33  H   UNL     1       3.462   0.616  -4.456  0.00  0.00    +0.000 HD
ENDBRANCH  25  32
ENDBRANCH  18  25
ENDBRANCH   3  18
TORSDOF 8
