REMARK  Name = 
REMARK  7 active torsions:
REMARK  status: ('A' for Active; 'I' for Inactive)
REMARK    1  A    between atoms: N_3  and  C_4
REMARK    2  A    between atoms: C_4  and  C_5
REMARK    3  A    between atoms: C_8  and  N_9
REMARK    4  A    between atoms: N_16  and  C_17
REMARK    5  A    between atoms: C_17  and  C_18
REMARK    6  A    between atoms: C_20  and  O_21
REMARK    7  A    between atoms: O_21  and  C_22
REMARK                            x       y       z     vdW  Elec       q    Type
REMARK                         _______ _______ _______ _____ _____    ______ ____
ROOT
ATOM      1  O   UNL     1       2.972   0.981   0.615  0.00  0.00    +0.000 OA
ATOM      2  C   UNL     1       2.387   0.035   0.096  0.00  0.00    +0.000 C 
ATOM      3  N   UNL     1       1.027  -0.053  -0.024  0.00  0.00    +0.000 N 
ATOM      4  N   UNL     1       3.019  -1.081  -0.382  0.00  0.00    +0.000 N 
ATOM      5  H   UNL     1       0.632  -0.930  -0.328  0.00  0.00    +0.000 HD
ATOM      6  H   UNL     1       2.533  -1.637  -1.069  0.00  0.00    +0.000 HD
ENDROOT
BRANCH   3   7
ATOM      7  C   UNL     1       0.135   0.954   0.510  0.00  0.00    +0.000 C 
BRANCH   7   8
ATOM      8  C   UNL     1      -0.124   2.063  -0.470  0.00  0.00    +0.000 A 
ATOM      9  C   UNL     1       0.702   3.188  -0.519  0.00  0.00    +0.000 A 
ATOM     10  C   UNL     1       0.462   4.190  -1.457  0.00  0.00    +0.000 A 
ATOM     11  C   UNL     1      -0.610   4.040  -2.333  0.00  0.00    +0.000 A 
ATOM     12  N   UNL     1      -1.443   2.963  -2.300  0.00  0.00    +0.000 NA
ATOM     13  C   UNL     1      -1.173   2.004  -1.381  0.00  0.00    +0.000 A 
BRANCH  11  14
ATOM     14  N   UNL     1      -0.834   5.032  -3.323  0.00  0.00    +0.000 N 
ATOM     15  C   UNL     1      -1.848   5.060  -4.247  0.00  0.00    +0.000 A 
ATOM     16  N   UNL     1      -1.716   6.096  -5.044  0.00  0.00    +0.000 NA
ATOM     17  C   UNL     1      -0.590   6.697  -4.566  0.00  0.00    +0.000 A 
ATOM     18  N   UNL     1      -0.023   6.109  -3.511  0.00  0.00    +0.000 NA
ENDBRANCH  11  14
ENDBRANCH   7   8
ENDBRANCH   3   7
BRANCH   4  19
ATOM     19  C   UNL     1       4.468  -1.161  -0.419  0.00  0.00    +0.000 C 
BRANCH  19  20
ATOM     20  C   UNL     1       5.078  -0.505  -1.643  0.00  0.00    +0.000 A 
ATOM     21  C   UNL     1       6.062   0.469  -1.486  0.00  0.00    +0.000 A 
ATOM     22  C   UNL     1       6.601   1.072  -2.621  0.00  0.00    +0.000 A 
ATOM     23  C   UNL     1       6.213   0.629  -3.879  0.00  0.00    +0.000 A 
ATOM     24  C   UNL     1       5.255  -0.367  -3.950  0.00  0.00    +0.000 A 
ATOM     25  N   UNL     1       4.672  -0.936  -2.868  0.00  0.00    +0.000 NA
BRANCH  22  26
ATOM     26  O   UNL     1       7.569   2.052  -2.595  0.00  0.00    +0.000 OA
BRANCH  26  27
ATOM     27  C   UNL     1       7.573   2.985  -1.579  0.00  0.00    +0.000 A 
ATOM     28  C   UNL     1       6.415   3.494  -0.979  0.00  0.00    +0.000 A 
ATOM     29  C   UNL     1       6.518   4.425   0.059  0.00  0.00    +0.000 A 
ATOM     30  C   UNL     1       7.769   4.877   0.456  0.00  0.00    +0.000 A 
ATOM     31  F   UNL     1       7.860   5.768   1.452  0.00  0.00    +0.000 F 
ATOM     32  C   UNL     1       8.917   4.414  -0.178  0.00  0.00    +0.000 A 
ATOM     33  F   UNL     1      10.123   4.866   0.198  0.00  0.00    +0.000 F 
ATOM     34  C   UNL     1       8.828   3.469  -1.197  0.00  0.00    +0.000 A 
ENDBRANCH  26  27
ENDBRANCH  22  26
ENDBRANCH  19  20
ENDBRANCH   4  19
TORSDOF 7
