REMARK  Name = 
REMARK  5 active torsions:
REMARK  status: ('A' for Active; 'I' for Inactive)
REMARK    1  A    between atoms: C_2  and  C_19
REMARK    2  A    between atoms: N_3  and  C_4
REMARK    3  A    between atoms: C_10  and  O_11
REMARK    4  A    between atoms: O_11  and  C_12
REMARK    5  A    between atoms: C_12  and  C_13
REMARK                            x       y       z     vdW  Elec       q    Type
REMARK                         _______ _______ _______ _____ _____    ______ ____
ROOT
ATOM      1  O   UNL     1       4.681   0.463  -0.725  0.00  0.00    +0.000 OA
ATOM      2  C   UNL     1       4.204  -0.610  -1.110  0.00  0.00    +0.000 C 
ATOM      3  N   UNL     1       2.898  -0.908  -0.752  0.00  0.00    +0.000 N 
ATOM      4  H   UNL     1       2.427  -0.056  -0.461  0.00  0.00    +0.000 HD
ENDROOT
BRANCH   2   5
ATOM      5  C   UNL     1       4.968  -1.518  -2.020  0.00  0.00    +0.000 A 
ATOM      6  C   UNL     1       4.380  -1.973  -3.142  0.00  0.00    +0.000 A 
ATOM      7  N   UNL     1       4.918  -2.988  -3.887  0.00  0.00    +0.000 N 
ATOM      8  C   UNL     1       6.125  -3.580  -3.613  0.00  0.00    +0.000 A 
ATOM      9  O   UNL     1       6.514  -4.574  -4.210  0.00  0.00    +0.000 OA
ATOM     10  C   UNL     1       6.936  -2.921  -2.569  0.00  0.00    +0.000 A 
ATOM     11  C   UNL     1       8.280  -3.257  -2.405  0.00  0.00    +0.000 A 
ATOM     12  C   UNL     1       9.042  -2.535  -1.497  0.00  0.00    +0.000 A 
ATOM     13  C   UNL     1       8.420  -1.526  -0.778  0.00  0.00    +0.000 A 
ATOM     14  N   UNL     1       7.107  -1.215  -0.893  0.00  0.00    +0.000 NA
ATOM     15  C   UNL     1       6.373  -1.904  -1.799  0.00  0.00    +0.000 A 
ATOM     16  H   UNL     1       4.365  -3.428  -4.614  0.00  0.00    +0.000 HD
ENDBRANCH   2   5
BRANCH   3  17
ATOM     17  C   UNL     1       2.073  -1.924  -1.295  0.00  0.00    +0.000 A 
ATOM     18  C   UNL     1       0.958  -1.505  -2.033  0.00  0.00    +0.000 A 
ATOM     19  F   UNL     1       0.667  -0.197  -2.115  0.00  0.00    +0.000 F 
ATOM     20  C   UNL     1       0.224  -2.398  -2.806  0.00  0.00    +0.000 A 
ATOM     21  C   UNL     1       0.580  -3.741  -2.823  0.00  0.00    +0.000 A 
ATOM     22  C   UNL     1       1.649  -4.187  -2.042  0.00  0.00    +0.000 A 
ATOM     23  C   UNL     1       2.385  -3.295  -1.244  0.00  0.00    +0.000 A 
BRANCH  23  24
ATOM     24  O   UNL     1       3.423  -3.683  -0.428  0.00  0.00    +0.000 OA
BRANCH  24  25
ATOM     25  C   UNL     1       3.500  -5.087  -0.160  0.00  0.00    +0.000 C 
BRANCH  25  26
ATOM     26  C   UNL     1       4.314  -5.388   1.075  0.00  0.00    +0.000 A 
ATOM     27  C   UNL     1       3.865  -6.383   1.965  0.00  0.00    +0.000 A 
ATOM     28  C   UNL     1       4.604  -6.720   3.091  0.00  0.00    +0.000 A 
ATOM     29  C   UNL     1       5.814  -6.081   3.337  0.00  0.00    +0.000 A 
ATOM     30  C   UNL     1       6.283  -5.104   2.460  0.00  0.00    +0.000 A 
ATOM     31  C   UNL     1       5.537  -4.760   1.327  0.00  0.00    +0.000 A 
ENDBRANCH  25  26
ENDBRANCH  24  25
ENDBRANCH  23  24
ENDBRANCH   3  17
TORSDOF 5
