REMARK  Name = 
REMARK  6 active torsions:
REMARK  status: ('A' for Active; 'I' for Inactive)
REMARK    1  A    between atoms: C_1  and  N_2
REMARK    2  A    between atoms: C_3  and  C_4
REMARK    3  A    between atoms: C_4  and  N_5
REMARK    4  A    between atoms: C_6  and  C_8
REMARK    5  A    between atoms: C_10  and  C_11
REMARK    6  A    between atoms: N_24  and  C_25
REMARK                            x       y       z     vdW  Elec       q    Type
REMARK                         _______ _______ _______ _____ _____    ______ ____
ROOT
ATOM      1  N   UNL     1       3.882   3.560  -0.200  0.00  0.00    +0.000 N 
ATOM      2  C   UNL     1       3.934   4.533  -1.170  0.00  0.00    +0.000 C 
ATOM      3  O   UNL     1       3.104   4.646  -2.067  0.00  0.00    +0.000 OA
ATOM      4  H   UNL     1       4.522   3.577   0.583  0.00  0.00    +0.000 HD
ENDROOT
BRANCH   2   5
ATOM      5  C   UNL     1       5.050   5.512  -1.090  0.00  0.00    +0.000 A 
ATOM      6  C   UNL     1       6.268   5.215  -0.464  0.00  0.00    +0.000 A 
ATOM      7  C   UNL     1       7.311   6.164  -0.390  0.00  0.00    +0.000 A 
ATOM      8  C   UNL     1       7.077   7.424  -0.964  0.00  0.00    +0.000 A 
ATOM      9  C   UNL     1       5.874   7.705  -1.607  0.00  0.00    +0.000 A 
ATOM     10  F   UNL     1       5.693   8.913  -2.156  0.00  0.00    +0.000 F 
ATOM     11  C   UNL     1       4.864   6.764  -1.681  0.00  0.00    +0.000 A 
BRANCH   7  12
ATOM     12  C   UNL     1       8.584   5.827   0.279  0.00  0.00    +0.000 A 
ATOM     13  C   UNL     1       9.804   6.416  -0.070  0.00  0.00    +0.000 A 
ATOM     14  C   UNL     1      10.962   6.043   0.618  0.00  0.00    +0.000 A 
ATOM     15  C   UNL     1      10.881   5.091   1.616  0.00  0.00    +0.000 A 
ATOM     16  C   UNL     1       9.640   4.544   1.901  0.00  0.00    +0.000 A 
ATOM     17  N   UNL     1       8.506   4.890   1.254  0.00  0.00    +0.000 NA
ENDBRANCH   7  12
ENDBRANCH   2   5
BRANCH   1  18
ATOM     18  C   UNL     1       2.789   2.619  -0.143  0.00  0.00    +0.000 C 
BRANCH  18  21
ATOM     19  C   UNL     1       4.037   1.185  -2.604  0.00  0.00    +0.000 C 
ATOM     20  N   UNL     1       4.104   0.697  -1.224  0.00  0.00    +0.000 N 
ATOM     21  C   UNL     1       3.303   1.209  -0.192  0.00  0.00    +0.000 A 
ATOM     22  C   UNL     1       2.959   0.265   0.700  0.00  0.00    +0.000 A 
ATOM     23  C   UNL     1       3.449  -1.018   0.151  0.00  0.00    +0.000 A 
ATOM     24  O   UNL     1       3.292  -2.087   0.718  0.00  0.00    +0.000 OA
ATOM     25  N   UNL     1       4.088  -0.711  -1.046  0.00  0.00    +0.000 N 
BRANCH  25  26
ATOM     26  C   UNL     1       4.806  -1.609  -1.853  0.00  0.00    +0.000 A 
ATOM     27  C   UNL     1       4.238  -2.843  -2.197  0.00  0.00    +0.000 A 
ATOM     28  C   UNL     1       4.918  -3.720  -3.045  0.00  0.00    +0.000 A 
ATOM     29  C   UNL     1       6.189  -3.391  -3.513  0.00  0.00    +0.000 A 
ATOM     30  C   UNL     1       6.774  -2.180  -3.147  0.00  0.00    +0.000 A 
ATOM     31  C   UNL     1       6.077  -1.284  -2.334  0.00  0.00    +0.000 A 
ENDBRANCH  25  26
ENDBRANCH  18  21
ENDBRANCH   1  18
TORSDOF 5
