REMARK  Name = 
REMARK  6 active torsions:
REMARK  status: ('A' for Active; 'I' for Inactive)
REMARK    1  A    between atoms: C_1  and  O_2
REMARK    2  A    between atoms: O_2  and  C_3
REMARK    3  A    between atoms: C_3  and  C_5
REMARK    4  A    between atoms: C_10  and  N_11
REMARK    5  A    between atoms: C_12  and  C_14
REMARK    6  A    between atoms: N_16  and  C_17
REMARK                            x       y       z     vdW  Elec       q    Type
REMARK                         _______ _______ _______ _____ _____    ______ ____
ROOT
ATOM      1  N   UNL     1       8.972  -3.138   0.053  0.00  0.00    +0.000 N 
ATOM      2  C   UNL     1       8.880  -3.303  -1.314  0.00  0.00    +0.000 C 
ATOM      3  O   UNL     1       8.330  -2.547  -2.104  0.00  0.00    +0.000 OA
ATOM      4  H   UNL     1       9.354  -3.905   0.594  0.00  0.00    +0.000 HD
ENDROOT
BRANCH   1  10
ATOM      5  C   UNL     1       8.462  -1.127   3.129  0.00  0.00    +0.000 A 
ATOM      6  C   UNL     1       7.874   0.045   2.644  0.00  0.00    +0.000 A 
ATOM      7  C   UNL     1       7.630   0.180   1.280  0.00  0.00    +0.000 A 
ATOM      8  C   UNL     1       7.977  -0.844   0.394  0.00  0.00    +0.000 A 
ATOM      9  F   UNL     1       7.724  -0.610  -0.897  0.00  0.00    +0.000 F 
ATOM     10  C   UNL     1       8.565  -2.029   0.849  0.00  0.00    +0.000 A 
ATOM     11  C   UNL     1       8.804  -2.147   2.232  0.00  0.00    +0.000 A 
ATOM     12  F   UNL     1       9.413  -3.265   2.668  0.00  0.00    +0.000 F 
BRANCH   5  13
ATOM     13  C   UNL     1       8.723  -1.212   4.580  0.00  0.00    +0.000 C 
ATOM     14  O   UNL     1       8.878  -0.225   5.284  0.00  0.00    +0.000 OA
BRANCH  13  16
ATOM     15  C   UNL     1       8.906  -2.646   6.415  0.00  0.00    +0.000 C 
ATOM     16  O   UNL     1       8.692  -2.494   5.008  0.00  0.00    +0.000 OA
ENDBRANCH  13  16
ENDBRANCH   5  13
ENDBRANCH   1  10
BRANCH   2  17
ATOM     17  C   UNL     1       9.516  -4.570  -1.833  0.00  0.00    +0.000 A 
ATOM     18  C   UNL     1       9.080  -5.045  -3.017  0.00  0.00    +0.000 A 
ATOM     19  N   UNL     1       9.649  -6.162  -3.636  0.00  0.00    +0.000 N 
ATOM     20  C   UNL     1      10.714  -6.857  -3.030  0.00  0.00    +0.000 A 
ATOM     21  O   UNL     1      11.256  -7.879  -3.446  0.00  0.00    +0.000 OA
ATOM     22  C   UNL     1      11.191  -6.316  -1.730  0.00  0.00    +0.000 A 
ATOM     23  C   UNL     1      10.624  -5.236  -1.180  0.00  0.00    +0.000 A 
BRANCH  19  24
ATOM     24  C   UNL     1       9.130  -6.678  -4.870  0.00  0.00    +0.000 A 
ATOM     25  C   UNL     1       7.746  -6.840  -5.046  0.00  0.00    +0.000 A 
ATOM     26  C   UNL     1       7.251  -7.479  -6.189  0.00  0.00    +0.000 A 
ATOM     27  C   UNL     1       8.131  -7.913  -7.173  0.00  0.00    +0.000 A 
ATOM     28  F   UNL     1       7.655  -8.550  -8.250  0.00  0.00    +0.000 F 
ATOM     29  C   UNL     1       9.497  -7.708  -7.047  0.00  0.00    +0.000 A 
ATOM     30  C   UNL     1       9.995  -7.098  -5.893  0.00  0.00    +0.000 A 
ENDBRANCH  19  24
ENDBRANCH   2  17
TORSDOF 5
