REMARK  Name = 
REMARK  5 active torsions:
REMARK  status: ('A' for Active; 'I' for Inactive)
REMARK    1  A    between atoms: C_2  and  C_3
REMARK    2  A    between atoms: C_4  and  N_5
REMARK    3  A    between atoms: C_6  and  C_8
REMARK    4  A    between atoms: C_11  and  C_12
REMARK    5  A    between atoms: N_21  and  C_22
REMARK                            x       y       z     vdW  Elec       q    Type
REMARK                         _______ _______ _______ _____ _____    ______ ____
ROOT
ATOM      1  C   UNL     1       3.870  -0.016  -0.043  0.00  0.00    +0.000 A 
ATOM      2  C   UNL     1       4.536   1.153   0.161  0.00  0.00    +0.000 A 
ATOM      3  C   UNL     1       5.987   1.056   0.239  0.00  0.00    +0.000 A 
ATOM      4  C   UNL     1       6.623  -0.118   0.168  0.00  0.00    +0.000 A 
ATOM      5  N   UNL     1       5.944  -1.307   0.020  0.00  0.00    +0.000 N 
ATOM      6  C   UNL     1       4.548  -1.336  -0.110  0.00  0.00    +0.000 A 
ATOM      7  O   UNL     1       3.856  -2.340  -0.291  0.00  0.00    +0.000 OA
ENDROOT
BRANCH   5   8
ATOM      8  C   UNL     1       6.652  -2.545  -0.052  0.00  0.00    +0.000 A 
ATOM      9  C   UNL     1       7.753  -2.671  -0.906  0.00  0.00    +0.000 A 
ATOM     10  C   UNL     1       8.385  -3.905  -1.054  0.00  0.00    +0.000 A 
ATOM     11  C   UNL     1       7.952  -5.004  -0.314  0.00  0.00    +0.000 A 
ATOM     12  C   UNL     1       6.890  -4.873   0.579  0.00  0.00    +0.000 A 
ATOM     13  C   UNL     1       6.236  -3.649   0.704  0.00  0.00    +0.000 A 
ENDBRANCH   5   8
BRANCH   2  14
ATOM     14  N   UNL     1       3.899   2.409   0.325  0.00  0.00    +0.000 N 
ATOM     15  C   UNL     1       4.505   3.645   0.604  0.00  0.00    +0.000 C 
ATOM     16  O   UNL     1       5.715   3.776   0.759  0.00  0.00    +0.000 OA
ATOM     17  H   UNL     1       2.884   2.452   0.265  0.00  0.00    +0.000 HD
BRANCH  15  18
ATOM     18  C   UNL     1       3.660   4.835   0.719  0.00  0.00    +0.000 A 
ATOM     19  C   UNL     1       4.079   6.108   1.072  0.00  0.00    +0.000 A 
ATOM     20  C   UNL     1       2.977   6.969   0.933  0.00  0.00    +0.000 A 
ATOM     21  C   UNL     1       1.924   6.189   0.499  0.00  0.00    +0.000 A 
ATOM     22  O   UNL     1       2.322   4.866   0.406  0.00  0.00    +0.000 OA
BRANCH  21  23
ATOM     23  C   UNL     1       0.588   6.564   0.049  0.00  0.00    +0.000 A 
ATOM     24  C   UNL     1      -0.430   5.650  -0.166  0.00  0.00    +0.000 A 
ATOM     25  C   UNL     1      -1.622   6.105  -0.729  0.00  0.00    +0.000 A 
ATOM     26  C   UNL     1      -1.765   7.450  -1.051  0.00  0.00    +0.000 A 
ATOM     27  C   UNL     1      -0.717   8.303  -0.761  0.00  0.00    +0.000 A 
ATOM     28  N   UNL     1       0.449   7.892  -0.216  0.00  0.00    +0.000 NA
ENDBRANCH  21  23
ENDBRANCH  15  18
ENDBRANCH   2  14
BRANCH   1  30
ATOM     29  N   UNL     1       1.089  -0.016  -0.043  0.00  0.00    +0.000 NA
ATOM     30  C   UNL     1       2.350  -0.016  -0.043  0.00  0.00    +0.000 C 
ENDBRANCH   1  30
TORSDOF 5
