REMARK  Name = 
REMARK  4 active torsions:
REMARK  status: ('A' for Active; 'I' for Inactive)
REMARK    1  A    between atoms: C_2  and  C_17
REMARK    2  A    between atoms: N_3  and  C_4
REMARK    3  A    between atoms: N_8  and  C_9
REMARK    4  A    between atoms: C_26  and  C_27
REMARK                            x       y       z     vdW  Elec       q    Type
REMARK                         _______ _______ _______ _____ _____    ______ ____
ROOT
ATOM      1  O   UNL     1       0.858   0.620  -0.008  0.00  0.00    +0.000 OA
ATOM      2  C   UNL     1       1.910   0.127   0.392  0.00  0.00    +0.000 C 
ATOM      3  N   UNL     1       2.236  -1.227   0.278  0.00  0.00    +0.000 N 
ATOM      4  H   UNL     1       3.051  -1.569   0.777  0.00  0.00    +0.000 HD
ENDROOT
BRANCH   2   5
ATOM      5  C   UNL     1       2.997   1.084   0.874  0.00  0.00    +0.000 A 
ATOM      6  C   UNL     1       3.220   1.958  -0.188  0.00  0.00    +0.000 A 
ATOM      7  C   UNL     1       4.204   1.569  -1.090  0.00  0.00    +0.000 A 
ATOM      8  C   UNL     1       4.113   1.964  -2.427  0.00  0.00    +0.000 A 
ATOM      9  C   UNL     1       4.889   1.320  -3.382  0.00  0.00    +0.000 A 
ATOM     10  C   UNL     1       5.816   0.361  -2.987  0.00  0.00    +0.000 A 
ATOM     11  C   UNL     1       5.979   0.057  -1.634  0.00  0.00    +0.000 A 
ATOM     12  C   UNL     1       5.158   0.619  -0.672  0.00  0.00    +0.000 A 
ATOM     13  N   UNL     1       5.209   0.207   0.608  0.00  0.00    +0.000 NA
ATOM     14  C   UNL     1       4.143   0.521   1.398  0.00  0.00    +0.000 A 
BRANCH  14  15
ATOM     15  C   UNL     1       4.334   0.552   2.903  0.00  0.00    +0.000 C 
ATOM     16  F   UNL     1       3.173   0.756   3.589  0.00  0.00    +0.000 F 
ATOM     17  F   UNL     1       4.857  -0.600   3.404  0.00  0.00    +0.000 F 
ENDBRANCH  14  15
ENDBRANCH   2   5
BRANCH   3  18
ATOM     18  C   UNL     1       1.654  -2.136  -0.600  0.00  0.00    +0.000 A 
ATOM     19  C   UNL     1       0.815  -1.857  -1.598  0.00  0.00    +0.000 A 
ATOM     20  C   UNL     1       0.327  -2.885  -2.553  0.00  0.00    +0.000 A 
ATOM     21  O   UNL     1      -0.444  -2.494  -3.429  0.00  0.00    +0.000 OA
ATOM     22  N   UNL     1       0.786  -4.193  -2.347  0.00  0.00    +0.000 N 
ATOM     23  N   UNL     1       1.620  -4.528  -1.290  0.00  0.00    +0.000 NA
ATOM     24  C   UNL     1       2.018  -3.571  -0.513  0.00  0.00    +0.000 A 
BRANCH  22  25
ATOM     25  C   UNL     1       0.374  -5.306  -3.168  0.00  0.00    +0.000 A 
ATOM     26  C   UNL     1      -0.151  -5.129  -4.460  0.00  0.00    +0.000 A 
ATOM     27  C   UNL     1      -0.646  -6.208  -5.206  0.00  0.00    +0.000 A 
ATOM     28  C   UNL     1      -0.617  -7.493  -4.678  0.00  0.00    +0.000 A 
ATOM     29  C   UNL     1      -0.055  -7.704  -3.423  0.00  0.00    +0.000 A 
ATOM     30  C   UNL     1       0.453  -6.624  -2.684  0.00  0.00    +0.000 A 
ENDBRANCH  22  25
ENDBRANCH   3  18
TORSDOF 4
