REMARK  Name = 
REMARK  6 active torsions:
REMARK  status: ('A' for Active; 'I' for Inactive)
REMARK    1  A    between atoms: C_2  and  C_17
REMARK    2  A    between atoms: N_3  and  C_4
REMARK    3  A    between atoms: C_6  and  C_7
REMARK    4  A    between atoms: C_7  and  C_8
REMARK    5  A    between atoms: N_19  and  C_20
REMARK    6  A    between atoms: C_28  and  O_29
REMARK                            x       y       z     vdW  Elec       q    Type
REMARK                         _______ _______ _______ _____ _____    ______ ____
ROOT
ATOM      1  O   UNL     1       1.035   0.239   0.090  0.00  0.00    +0.000 OA
ATOM      2  C   UNL     1       2.211  -0.092   0.207  0.00  0.00    +0.000 C 
ATOM      3  N   UNL     1       2.816  -1.207  -0.345  0.00  0.00    +0.000 N 
ATOM      4  H   UNL     1       3.771  -1.374  -0.057  0.00  0.00    +0.000 HD
ENDROOT
BRANCH   3   5
ATOM      5  C   UNL     1       2.159  -2.136  -1.156  0.00  0.00    +0.000 A 
ATOM      6  C   UNL     1       2.766  -3.369  -1.395  0.00  0.00    +0.000 A 
ATOM      7  C   UNL     1       2.083  -4.331  -2.158  0.00  0.00    +0.000 A 
ATOM      8  C   UNL     1       0.831  -4.001  -2.679  0.00  0.00    +0.000 A 
ATOM      9  C   UNL     1       0.319  -2.744  -2.413  0.00  0.00    +0.000 A 
ATOM     10  N   UNL     1       0.958  -1.826  -1.672  0.00  0.00    +0.000 NA
BRANCH   7  11
ATOM     11  C   UNL     1       2.641  -5.722  -2.359  0.00  0.00    +0.000 C 
BRANCH  11  12
ATOM     12  C   UNL     1       2.221  -6.692  -1.277  0.00  0.00    +0.000 A 
ATOM     13  C   UNL     1       1.053  -7.457  -1.413  0.00  0.00    +0.000 A 
ATOM     14  C   UNL     1       0.630  -8.299  -0.382  0.00  0.00    +0.000 A 
ATOM     15  C   UNL     1       1.371  -8.389   0.794  0.00  0.00    +0.000 A 
ATOM     16  C   UNL     1       2.542  -7.648   0.936  0.00  0.00    +0.000 A 
ATOM     17  C   UNL     1       2.966  -6.804  -0.093  0.00  0.00    +0.000 A 
ENDBRANCH  11  12
ENDBRANCH   7  11
ENDBRANCH   3   5
BRANCH   2  18
ATOM     18  C   UNL     1       3.133   0.678   1.060  0.00  0.00    +0.000 A 
ATOM     19  N   UNL     1       4.446   0.371   1.140  0.00  0.00    +0.000 NA
ATOM     20  N   UNL     1       4.946   1.212   2.087  0.00  0.00    +0.000 N 
ATOM     21  C   UNL     1       3.990   2.080   2.564  0.00  0.00    +0.000 A 
ATOM     22  C   UNL     1       2.830   1.759   1.916  0.00  0.00    +0.000 A 
BRANCH  20  23
ATOM     23  C   UNL     1       6.298   1.086   2.506  0.00  0.00    +0.000 A 
ATOM     24  C   UNL     1       6.799   1.822   3.591  0.00  0.00    +0.000 A 
ATOM     25  C   UNL     1       8.119   1.631   4.015  0.00  0.00    +0.000 A 
ATOM     26  C   UNL     1       8.941   0.720   3.353  0.00  0.00    +0.000 A 
ATOM     27  C   UNL     1       8.442   0.007   2.273  0.00  0.00    +0.000 A 
ATOM     28  F   UNL     1       9.234  -0.868   1.637  0.00  0.00    +0.000 F 
ATOM     29  C   UNL     1       7.133   0.176   1.842  0.00  0.00    +0.000 A 
ENDBRANCH  20  23
BRANCH  22  30
ATOM     30  O   UNL     1       1.651   2.359   2.130  0.00  0.00    +0.000 OA
ATOM     31  H   UNL     1       1.729   3.075   2.780  0.00  0.00    +0.000 HD
ENDBRANCH  22  30
ENDBRANCH   2  18
TORSDOF 6
