REMARK  Name = 
REMARK  5 active torsions:
REMARK  status: ('A' for Active; 'I' for Inactive)
REMARK    1  A    between atoms: C_2  and  C_18
REMARK    2  A    between atoms: N_3  and  C_4
REMARK    3  A    between atoms: C_5  and  C_6
REMARK    4  A    between atoms: N_9  and  C_10
REMARK    5  A    between atoms: N_20  and  C_21
REMARK                            x       y       z     vdW  Elec       q    Type
REMARK                         _______ _______ _______ _____ _____    ______ ____
ROOT
ATOM      1  O   UNL     1       1.181   0.199  -0.647  0.00  0.00    +0.000 OA
ATOM      2  C   UNL     1       2.313   0.071  -0.192  0.00  0.00    +0.000 C 
ATOM      3  N   UNL     1       2.965  -1.135  -0.024  0.00  0.00    +0.000 N 
ATOM      4  H   UNL     1       3.737  -1.115   0.640  0.00  0.00    +0.000 HD
ENDROOT
BRANCH   3   5
ATOM      5  C   UNL     1       2.384  -2.344  -0.344  0.00  0.00    +0.000 A 
ATOM      6  C   UNL     1       2.452  -3.471   0.444  0.00  0.00    +0.000 A 
ATOM      7  N   UNL     1       1.715  -4.444  -0.210  0.00  0.00    +0.000 N 
ATOM      8  N   UNL     1       1.343  -4.027  -1.448  0.00  0.00    +0.000 NA
ATOM      9  C   UNL     1       1.646  -2.729  -1.472  0.00  0.00    +0.000 A 
BRANCH   7  10
ATOM     10  C   UNL     1       1.275  -5.722   0.236  0.00  0.00    +0.000 A 
ATOM     11  C   UNL     1       0.962  -5.966   1.574  0.00  0.00    +0.000 A 
ATOM     12  C   UNL     1       0.505  -7.228   1.922  0.00  0.00    +0.000 A 
ATOM     13  N   UNL     1       0.350  -8.238   1.045  0.00  0.00    +0.000 NA
ATOM     14  C   UNL     1       0.632  -7.971  -0.248  0.00  0.00    +0.000 A 
ATOM     15  C   UNL     1       1.075  -6.740  -0.702  0.00  0.00    +0.000 A 
ENDBRANCH   7  10
BRANCH   6  16
ATOM     16  C   UNL     1       3.127  -3.664   1.738  0.00  0.00    +0.000 C 
ATOM     17  F   UNL     1       3.956  -4.736   1.714  0.00  0.00    +0.000 F 
ATOM     18  F   UNL     1       3.915  -2.590   2.038  0.00  0.00    +0.000 F 
ENDBRANCH   6  16
ENDBRANCH   3   5
BRANCH   2  19
ATOM     19  C   UNL     1       3.077   1.208   0.348  0.00  0.00    +0.000 A 
ATOM     20  N   UNL     1       4.364   1.100   0.735  0.00  0.00    +0.000 NA
ATOM     21  N   UNL     1       4.719   2.349   1.163  0.00  0.00    +0.000 N 
ATOM     22  C   UNL     1       3.652   3.216   1.074  0.00  0.00    +0.000 A 
ATOM     23  C   UNL     1       2.590   2.514   0.562  0.00  0.00    +0.000 A 
BRANCH  21  24
ATOM     24  C   UNL     1       6.039   2.606   1.633  0.00  0.00    +0.000 A 
ATOM     25  C   UNL     1       7.011   1.592   1.561  0.00  0.00    +0.000 A 
ATOM     26  C   UNL     1       8.309   1.823   2.030  0.00  0.00    +0.000 A 
ATOM     27  C   UNL     1       8.632   3.058   2.579  0.00  0.00    +0.000 A 
ATOM     28  F   UNL     1       9.875   3.274   3.035  0.00  0.00    +0.000 F 
ATOM     29  C   UNL     1       7.689   4.077   2.655  0.00  0.00    +0.000 A 
ATOM     30  C   UNL     1       6.400   3.843   2.186  0.00  0.00    +0.000 A 
ATOM     31  F   UNL     1       5.533   4.856   2.295  0.00  0.00    +0.000 F 
ENDBRANCH  21  24
ENDBRANCH   2  19
TORSDOF 5
