REMARK  Name = 
REMARK  3 active torsions:
REMARK  status: ('A' for Active; 'I' for Inactive)
REMARK    1  A    between atoms: C_2  and  C_18
REMARK    2  A    between atoms: N_3  and  C_4
REMARK    3  A    between atoms: C_6  and  C_7
REMARK                            x       y       z     vdW  Elec       q    Type
REMARK                         _______ _______ _______ _____ _____    ______ ____
ROOT
ATOM      1  O   UNL     1       1.229   0.032  -0.549  0.00  0.00    +0.000 OA
ATOM      2  C   UNL     1       2.349   0.057  -0.055  0.00  0.00    +0.000 C 
ATOM      3  N   UNL     1       2.903  -0.866   0.817  0.00  0.00    +0.000 N 
ATOM      4  H   UNL     1       3.760  -0.619   1.295  0.00  0.00    +0.000 HD
ENDROOT
BRANCH   2   5
ATOM      5  C   UNL     1       3.195   1.220  -0.375  0.00  0.00    +0.000 A 
ATOM      6  C   UNL     1       2.580   2.450  -0.589  0.00  0.00    +0.000 A 
ATOM      7  N   UNL     1       3.252   3.587  -0.898  0.00  0.00    +0.000 NA
ATOM      8  C   UNL     1       4.591   3.489  -1.029  0.00  0.00    +0.000 A 
ATOM      9  N   UNL     1       5.238   4.684  -1.354  0.00  0.00    +0.000 NA
ATOM     10  C   UNL     1       6.512   4.643  -1.515  0.00  0.00    +0.000 A 
ATOM     11  N   UNL     1       7.263   3.509  -1.383  0.00  0.00    +0.000 N 
ATOM     12  C   UNL     1       6.723   2.299  -1.050  0.00  0.00    +0.000 A 
ATOM     13  O   UNL     1       7.394   1.283  -0.912  0.00  0.00    +0.000 OA
ATOM     14  C   UNL     1       5.269   2.288  -0.858  0.00  0.00    +0.000 A 
ATOM     15  C   UNL     1       4.575   1.128  -0.525  0.00  0.00    +0.000 A 
ATOM     16  H   UNL     1       8.266   3.536  -1.522  0.00  0.00    +0.000 HD
ENDBRANCH   2   5
BRANCH   3  17
ATOM     17  C   UNL     1       2.304  -2.080   1.212  0.00  0.00    +0.000 A 
ATOM     18  C   UNL     1       1.219  -2.637   0.530  0.00  0.00    +0.000 A 
ATOM     19  C   UNL     1       0.654  -3.874   0.887  0.00  0.00    +0.000 A 
ATOM     20  C   UNL     1       1.179  -4.510   2.021  0.00  0.00    +0.000 A 
ATOM     21  C   UNL     1       2.258  -3.962   2.724  0.00  0.00    +0.000 A 
ATOM     22  C   UNL     1       2.838  -2.765   2.303  0.00  0.00    +0.000 A 
BRANCH  19  23
ATOM     23  C   UNL     1      -0.411  -4.474   0.047  0.00  0.00    +0.000 A 
ATOM     24  C   UNL     1      -0.409  -4.276  -1.353  0.00  0.00    +0.000 A 
ATOM     25  C   UNL     1      -1.388  -4.836  -2.175  0.00  0.00    +0.000 A 
ATOM     26  C   UNL     1      -2.381  -5.619  -1.610  0.00  0.00    +0.000 A 
ATOM     27  F   UNL     1      -3.313  -6.171  -2.398  0.00  0.00    +0.000 F 
ATOM     28  C   UNL     1      -2.420  -5.842  -0.243  0.00  0.00    +0.000 A 
ATOM     29  C   UNL     1      -1.447  -5.266   0.572  0.00  0.00    +0.000 A 
ATOM     30  F   UNL     1      -1.536  -5.487   1.892  0.00  0.00    +0.000 F 
ENDBRANCH  19  23
ENDBRANCH   3  17
TORSDOF 3
