REMARK  Name = 
REMARK  7 active torsions:
REMARK  status: ('A' for Active; 'I' for Inactive)
REMARK    1  A    between atoms: C_1  and  O_2
REMARK    2  A    between atoms: O_2  and  C_3
REMARK    3  A    between atoms: C_6  and  C_7
REMARK    4  A    between atoms: C_14  and  C_15
REMARK    5  A    between atoms: C_18  and  C_19
REMARK    6  A    between atoms: C_19  and  C_21
REMARK    7  A    between atoms: C_21  and  C_22
REMARK                            x       y       z     vdW  Elec       q    Type
REMARK                         _______ _______ _______ _____ _____    ______ ____
ROOT
ATOM      1  C   UNL     1       4.542  -0.309  -1.955  0.00  0.00    +0.000 A 
ATOM      2  C   UNL     1       3.684  -0.988  -2.844  0.00  0.00    +0.000 A 
ATOM      3  C   UNL     1       4.046  -2.199  -3.442  0.00  0.00    +0.000 A 
ATOM      4  C   UNL     1       5.299  -2.753  -3.187  0.00  0.00    +0.000 A 
ATOM      5  C   UNL     1       6.185  -2.089  -2.338  0.00  0.00    +0.000 A 
ATOM      6  C   UNL     1       5.790  -0.907  -1.711  0.00  0.00    +0.000 A 
ENDROOT
BRANCH   1  12
ATOM      7  C   UNL     1       5.027   1.960  -0.861  0.00  0.00    +0.000 A 
ATOM      8  C   UNL     1       4.558   3.078  -0.164  0.00  0.00    +0.000 A 
ATOM      9  C   UNL     1       3.197   3.228   0.107  0.00  0.00    +0.000 A 
ATOM     10  C   UNL     1       2.266   2.275  -0.295  0.00  0.00    +0.000 A 
ATOM     11  C   UNL     1       2.753   1.156  -0.989  0.00  0.00    +0.000 A 
ATOM     12  C   UNL     1       4.123   0.953  -1.277  0.00  0.00    +0.000 A 
BRANCH  10  13
ATOM     13  C   UNL     1       0.836   2.402   0.049  0.00  0.00    +0.000 A 
ATOM     14  C   UNL     1      -0.181   1.923  -0.789  0.00  0.00    +0.000 A 
ATOM     15  C   UNL     1      -1.501   2.039  -0.386  0.00  0.00    +0.000 A 
ATOM     16  N   UNL     1      -1.886   2.604   0.775  0.00  0.00    +0.000 NA
ATOM     17  C   UNL     1      -0.903   3.067   1.572  0.00  0.00    +0.000 A 
ATOM     18  C   UNL     1       0.441   2.985   1.261  0.00  0.00    +0.000 A 
ENDBRANCH  10  13
BRANCH   7  20
ATOM     19  C   UNL     1       7.271   2.794  -0.766  0.00  0.00    +0.000 C 
ATOM     20  O   UNL     1       6.350   1.799  -1.185  0.00  0.00    +0.000 OA
ENDBRANCH   7  20
ENDBRANCH   1  12
BRANCH   4  21
ATOM     21  C   UNL     1       5.731  -4.045  -3.771  0.00  0.00    +0.000 C 
ATOM     22  O   UNL     1       6.915  -4.221  -4.053  0.00  0.00    +0.000 OA
BRANCH  21  23
ATOM     23  C   UNL     1       4.702  -5.124  -3.975  0.00  0.00    +0.000 C 
BRANCH  23  24
ATOM     24  C   UNL     1       4.056  -5.090  -5.335  0.00  0.00    +0.000 A 
ATOM     25  N   UNL     1       2.774  -4.893  -5.396  0.00  0.00    +0.000 NA
ATOM     26  N   UNL     1       2.218  -4.835  -6.641  0.00  0.00    +0.000 N 
ATOM     27  C   UNL     1       2.896  -4.940  -7.828  0.00  0.00    +0.000 A 
ATOM     28  O   UNL     1       2.355  -4.834  -8.923  0.00  0.00    +0.000 OA
ATOM     29  C   UNL     1       4.345  -5.195  -7.720  0.00  0.00    +0.000 A 
ATOM     30  C   UNL     1       4.925  -5.276  -6.521  0.00  0.00    +0.000 A 
ATOM     31  H   UNL     1       1.218  -4.666  -6.689  0.00  0.00    +0.000 HD
ENDBRANCH  23  24
ENDBRANCH  21  23
ENDBRANCH   4  21
TORSDOF 6
