REMARK  Name = 
REMARK  6 active torsions:
REMARK  status: ('A' for Active; 'I' for Inactive)
REMARK    1  A    between atoms: C_2  and  O_3
REMARK    2  A    between atoms: C_2  and  C_4
REMARK    3  A    between atoms: C_11  and  C_13
REMARK    4  A    between atoms: C_18  and  C_19
REMARK    5  A    between atoms: C_19  and  O_20
REMARK    6  A    between atoms: C_19  and  C_21
REMARK                            x       y       z     vdW  Elec       q    Type
REMARK                         _______ _______ _______ _____ _____    ______ ____
ROOT
ATOM      1  C   UNL     1       7.101   1.802  -1.427  0.00  0.00    +0.000 A 
ATOM      2  C   UNL     1       6.880   2.042  -2.770  0.00  0.00    +0.000 A 
ATOM      3  N   UNL     1       7.185   1.159  -3.754  0.00  0.00    +0.000 NA
ATOM      4  C   UNL     1       7.677  -0.037  -3.424  0.00  0.00    +0.000 A 
ATOM      5  N   UNL     1       7.947  -0.897  -4.404  0.00  0.00    +0.000 NA
ATOM      6  C   UNL     1       8.298  -2.155  -4.081  0.00  0.00    +0.000 A 
ATOM      7  N   UNL     1       8.443  -3.017  -5.169  0.00  0.00    +0.000 N 
ATOM      8  C   UNL     1       8.070  -4.349  -5.151  0.00  0.00    +0.000 C 
ATOM      9  O   UNL     1       7.526  -4.874  -4.184  0.00  0.00    +0.000 OA
ATOM     10  C   UNL     1       8.536  -2.572  -2.782  0.00  0.00    +0.000 A 
ATOM     11  C   UNL     1       8.347  -1.660  -1.758  0.00  0.00    +0.000 A 
ATOM     12  C   UNL     1       7.883  -0.381  -2.071  0.00  0.00    +0.000 A 
ATOM     13  C   UNL     1       7.601   0.556  -1.066  0.00  0.00    +0.000 A 
ATOM     14  H   UNL     1       8.559  -2.522  -6.038  0.00  0.00    +0.000 HD
ENDROOT
BRANCH   8  15
ATOM     15  C   UNL     1       8.396  -5.159  -6.377  0.00  0.00    +0.000 A 
ATOM     16  C   UNL     1       8.601  -4.500  -7.606  0.00  0.00    +0.000 A 
ATOM     17  C   UNL     1       9.109  -5.177  -8.715  0.00  0.00    +0.000 A 
ATOM     18  C   UNL     1       9.405  -6.528  -8.621  0.00  0.00    +0.000 A 
ATOM     19  C   UNL     1       9.123  -7.218  -7.442  0.00  0.00    +0.000 A 
ATOM     20  C   UNL     1       8.586  -6.564  -6.309  0.00  0.00    +0.000 A 
BRANCH  20  21
ATOM     21  C   UNL     1       8.236  -7.445  -5.112  0.00  0.00    +0.000 C 
BRANCH  21  22
ATOM     22  C   UNL     1       6.745  -7.699  -4.863  0.00  0.00    +0.000 A 
ATOM     23  C   UNL     1       5.804  -7.726  -5.907  0.00  0.00    +0.000 A 
ATOM     24  C   UNL     1       4.456  -8.001  -5.663  0.00  0.00    +0.000 A 
ATOM     25  C   UNL     1       4.021  -8.271  -4.366  0.00  0.00    +0.000 A 
ATOM     26  C   UNL     1       4.937  -8.279  -3.320  0.00  0.00    +0.000 A 
ATOM     27  C   UNL     1       6.285  -8.007  -3.568  0.00  0.00    +0.000 A 
ENDBRANCH  21  22
BRANCH  21  28
ATOM     28  O   UNL     1       8.915  -6.951  -3.957  0.00  0.00    +0.000 OA
ATOM     29  H   UNL     1       8.322  -6.245  -3.618  0.00  0.00    +0.000 HD
ENDBRANCH  21  28
ENDBRANCH  20  21
ENDBRANCH   8  15
BRANCH   1  31
ATOM     30  O   UNL     1       5.829   3.615  -0.602  0.00  0.00    +0.000 OA
ATOM     31  C   UNL     1       6.758   2.845  -0.448  0.00  0.00    +0.000 C 
BRANCH  31  32
ATOM     32  O   UNL     1       7.595   2.888   0.611  0.00  0.00    +0.000 OA
ATOM     33  H   UNL     1       8.407   2.353   0.536  0.00  0.00    +0.000 HD
ENDBRANCH  31  32
ENDBRANCH   1  31
TORSDOF 6
