REMARK  Name = 
REMARK  3 active torsions:
REMARK  status: ('A' for Active; 'I' for Inactive)
REMARK    1  A    between atoms: C_2  and  C_17
REMARK    2  A    between atoms: N_6  and  C_7
REMARK    3  A    between atoms: C_19  and  C_20
REMARK                            x       y       z     vdW  Elec       q    Type
REMARK                         _______ _______ _______ _____ _____    ______ ____
ROOT
ATOM      1  O   UNL     1       1.041   0.370  -0.062  0.00  0.00    +0.000 OA
ATOM      2  C   UNL     1       2.250   0.156  -0.089  0.00  0.00    +0.000 C 
ATOM      3  N   UNL     1       2.914  -0.698  -0.942  0.00  0.00    +0.000 N 
ATOM      4  C   UNL     1       2.254  -1.434  -1.890  0.00  0.00    +0.000 A 
ATOM      5  N   UNL     1       0.992  -1.254  -2.260  0.00  0.00    +0.000 NA
ATOM      6  N   UNL     1       0.747  -2.298  -3.065  0.00  0.00    +0.000 N 
ATOM      7  C   UNL     1       1.912  -3.007  -3.237  0.00  0.00    +0.000 A 
ATOM      8  N   UNL     1       2.880  -2.469  -2.522  0.00  0.00    +0.000 NA
ATOM      9  H   UNL     1       3.894  -0.897  -0.803  0.00  0.00    +0.000 HD
ENDROOT
BRANCH   6  10
ATOM     10  C   UNL     1      -0.563  -2.538  -3.550  0.00  0.00    +0.000 A 
ATOM     11  C   UNL     1      -0.868  -3.681  -4.303  0.00  0.00    +0.000 A 
ATOM     12  C   UNL     1      -2.186  -3.901  -4.723  0.00  0.00    +0.000 A 
ATOM     13  C   UNL     1      -3.184  -2.985  -4.402  0.00  0.00    +0.000 A 
ATOM     14  F   UNL     1      -4.440  -3.213  -4.808  0.00  0.00    +0.000 F 
ATOM     15  C   UNL     1      -2.883  -1.849  -3.664  0.00  0.00    +0.000 A 
ATOM     16  F   UNL     1      -3.846  -0.970  -3.355  0.00  0.00    +0.000 F 
ATOM     17  C   UNL     1      -1.582  -1.619  -3.233  0.00  0.00    +0.000 A 
ENDBRANCH   6  10
BRANCH   2  18
ATOM     18  C   UNL     1       3.090   0.842   0.934  0.00  0.00    +0.000 A 
ATOM     19  N   UNL     1       4.437   0.738   0.831  0.00  0.00    +0.000 NA
ATOM     20  C   UNL     1       5.131   1.420   1.765  0.00  0.00    +0.000 A 
ATOM     21  N   UNL     1       4.572   2.138   2.764  0.00  0.00    +0.000 NA
ATOM     22  C   UNL     1       3.233   2.188   2.821  0.00  0.00    +0.000 A 
ATOM     23  C   UNL     1       2.432   1.552   1.919  0.00  0.00    +0.000 A 
BRANCH  20  24
ATOM     24  C   UNL     1       6.609   1.419   1.702  0.00  0.00    +0.000 A 
ATOM     25  C   UNL     1       7.312   0.737   0.690  0.00  0.00    +0.000 A 
ATOM     26  C   UNL     1       8.711   0.755   0.637  0.00  0.00    +0.000 A 
ATOM     27  C   UNL     1       9.428   1.458   1.597  0.00  0.00    +0.000 A 
ATOM     28  F   UNL     1      10.765   1.476   1.542  0.00  0.00    +0.000 F 
ATOM     29  C   UNL     1       8.774   2.142   2.609  0.00  0.00    +0.000 A 
ATOM     30  C   UNL     1       7.378   2.121   2.659  0.00  0.00    +0.000 A 
ENDBRANCH  20  24
ENDBRANCH   2  18
TORSDOF 3
