REMARK  Name = 
REMARK  5 active torsions:
REMARK  status: ('A' for Active; 'I' for Inactive)
REMARK    1  A    between atoms: C_1  and  C_2
REMARK    2  A    between atoms: N_4  and  C_5
REMARK    3  A    between atoms: C_13  and  C_14
REMARK    4  A    between atoms: N_16  and  C_17
REMARK    5  A    between atoms: N_21  and  C_22
REMARK                            x       y       z     vdW  Elec       q    Type
REMARK                         _______ _______ _______ _____ _____    ______ ____
ROOT
ATOM      1  C   UNL     1       2.652  -2.585  -0.209  0.00  0.00    +0.000 C 
ATOM      2  O   UNL     1       1.458  -2.710  -0.459  0.00  0.00    +0.000 OA
ATOM      3  N   UNL     1       3.510  -3.654   0.033  0.00  0.00    +0.000 N 
ATOM      4  H   UNL     1       4.399  -3.439   0.458  0.00  0.00    +0.000 HD
ENDROOT
BRANCH   3   5
ATOM      5  C   UNL     1       3.109  -4.976   0.000  0.00  0.00    +0.000 A 
ATOM      6  C   UNL     1       2.046  -5.410  -0.688  0.00  0.00    +0.000 A 
ATOM      7  C   UNL     1       1.515  -6.784  -0.539  0.00  0.00    +0.000 A 
ATOM      8  O   UNL     1       0.486  -7.022  -1.172  0.00  0.00    +0.000 OA
ATOM      9  N   UNL     1       2.196  -7.630   0.362  0.00  0.00    +0.000 N 
ATOM     10  C   UNL     1       3.378  -7.176   0.955  0.00  0.00    +0.000 A 
ATOM     11  C   UNL     1       3.855  -5.935   0.779  0.00  0.00    +0.000 A 
BRANCH   9  12
ATOM     12  C   UNL     1       1.637  -8.932   0.685  0.00  0.00    +0.000 A 
ATOM     13  C   UNL     1       0.725  -9.586  -0.161  0.00  0.00    +0.000 A 
ATOM     14  C   UNL     1       0.139 -10.808   0.187  0.00  0.00    +0.000 A 
ATOM     15  C   UNL     1       0.468 -11.421   1.386  0.00  0.00    +0.000 A 
ATOM     16  C   UNL     1       1.383 -10.811   2.237  0.00  0.00    +0.000 A 
ATOM     17  C   UNL     1       1.958  -9.581   1.891  0.00  0.00    +0.000 A 
ENDBRANCH   9  12
ENDBRANCH   3   5
BRANCH   1  23
ATOM     18  C   UNL     1       1.030   0.133  -0.410  0.00  0.00    +0.000 C 
ATOM     19  C   UNL     1       2.487  -0.037  -0.164  0.00  0.00    +0.000 A 
ATOM     20  N   UNL     1       3.268   1.031   0.012  0.00  0.00    +0.000 NA
ATOM     21  N   UNL     1       4.520   0.538   0.141  0.00  0.00    +0.000 N 
ATOM     22  C   UNL     1       4.525  -0.845   0.108  0.00  0.00    +0.000 A 
ATOM     23  C   UNL     1       3.219  -1.250  -0.084  0.00  0.00    +0.000 A 
BRANCH  21  24
ATOM     24  C   UNL     1       5.630   1.420   0.265  0.00  0.00    +0.000 A 
ATOM     25  C   UNL     1       5.396   2.806   0.348  0.00  0.00    +0.000 A 
ATOM     26  C   UNL     1       6.468   3.695   0.445  0.00  0.00    +0.000 A 
ATOM     27  C   UNL     1       7.765   3.202   0.452  0.00  0.00    +0.000 A 
ATOM     28  F   UNL     1       8.796   4.053   0.534  0.00  0.00    +0.000 F 
ATOM     29  C   UNL     1       8.013   1.836   0.374  0.00  0.00    +0.000 A 
ATOM     30  C   UNL     1       6.945   0.938   0.284  0.00  0.00    +0.000 A 
ENDBRANCH  21  24
ENDBRANCH   1  23
TORSDOF 4
