REMARK  Name = 
REMARK  3 active torsions:
REMARK  status: ('A' for Active; 'I' for Inactive)
REMARK    1  A    between atoms: C_2  and  C_3
REMARK    2  A    between atoms: C_5  and  C_6
REMARK    3  A    between atoms: C_12  and  C_14
REMARK                            x       y       z     vdW  Elec       q    Type
REMARK                         _______ _______ _______ _____ _____    ______ ____
ROOT
ATOM      1  C   UNL     1       0.980   3.353   0.513  0.00  0.00    +0.000 A 
ATOM      2  C   UNL     1       0.361   3.852   1.653  0.00  0.00    +0.000 A 
ATOM      3  C   UNL     1       0.625   5.162   2.040  0.00  0.00    +0.000 A 
ATOM      4  C   UNL     1       1.502   5.937   1.282  0.00  0.00    +0.000 A 
ATOM      5  C   UNL     1       2.100   5.374   0.163  0.00  0.00    +0.000 A 
ATOM      6  N   UNL     1       2.988   6.173  -0.584  0.00  0.00    +0.000 N 
ATOM      7  C   UNL     1       3.665   5.734  -1.707  0.00  0.00    +0.000 C 
ATOM      8  O   UNL     1       3.567   4.630  -2.238  0.00  0.00    +0.000 OA
ATOM      9  N   UNL     1       1.848   4.106  -0.205  0.00  0.00    +0.000 NA
ATOM     10  H   UNL     1       3.168   7.097  -0.227  0.00  0.00    +0.000 HD
ENDROOT
BRANCH   7  11
ATOM     11  C   UNL     1       4.656   6.679  -2.308  0.00  0.00    +0.000 A 
ATOM     12  C   UNL     1       5.747   6.111  -2.997  0.00  0.00    +0.000 A 
ATOM     13  C   UNL     1       6.731   6.911  -3.582  0.00  0.00    +0.000 A 
ATOM     14  C   UNL     1       6.617   8.294  -3.484  0.00  0.00    +0.000 A 
ATOM     15  C   UNL     1       7.629   9.174  -4.064  0.00  0.00    +0.000 A 
ATOM     16  N   UNL     1       7.567  10.468  -4.027  0.00  0.00    +0.000 NA
ATOM     17  N   UNL     1       6.487  11.028  -3.407  0.00  0.00    +0.000 N 
ATOM     18  C   UNL     1       5.459  10.346  -2.793  0.00  0.00    +0.000 A 
ATOM     19  O   UNL     1       4.525  10.909  -2.233  0.00  0.00    +0.000 OA
ATOM     20  C   UNL     1       5.534   8.874  -2.832  0.00  0.00    +0.000 A 
ATOM     21  C   UNL     1       4.544   8.074  -2.239  0.00  0.00    +0.000 A 
ATOM     22  H   UNL     1       6.454  12.043  -3.394  0.00  0.00    +0.000 HD
ENDBRANCH   7  11
BRANCH   1  25
ATOM     23  C   UNL     1       1.447   0.072  -1.355  0.00  0.00    +0.000 A 
ATOM     24  C   UNL     1       1.713   1.303  -0.738  0.00  0.00    +0.000 A 
ATOM     25  C   UNL     1       0.711   2.012  -0.043  0.00  0.00    +0.000 A 
ATOM     26  C   UNL     1      -0.563   1.425   0.031  0.00  0.00    +0.000 A 
ATOM     27  C   UNL     1      -0.821   0.203  -0.583  0.00  0.00    +0.000 A 
ATOM     28  F   UNL     1      -2.054  -0.315  -0.517  0.00  0.00    +0.000 F 
ATOM     29  C   UNL     1       0.167  -0.478  -1.279  0.00  0.00    +0.000 A 
BRANCH  23  31
ATOM     30  N   UNL     1       3.296  -1.188  -2.670  0.00  0.00    +0.000 NA
ATOM     31  C   UNL     1       2.475  -0.612  -2.081  0.00  0.00    +0.000 C 
ENDBRANCH  23  31
ENDBRANCH   1  25
TORSDOF 3
