REMARK  Name = 
REMARK  3 active torsions:
REMARK  status: ('A' for Active; 'I' for Inactive)
REMARK    1  A    between atoms: C_2  and  C_17
REMARK    2  A    between atoms: N_3  and  C_4
REMARK    3  A    between atoms: C_6  and  C_7
REMARK                            x       y       z     vdW  Elec       q    Type
REMARK                         _______ _______ _______ _____ _____    ______ ____
ROOT
ATOM      1  O   UNL     1       5.282   0.945   1.650  0.00  0.00    +0.000 OA
ATOM      2  C   UNL     1       4.467   0.398   0.910  0.00  0.00    +0.000 C 
ATOM      3  N   UNL     1       3.129   0.216   1.211  0.00  0.00    +0.000 N 
ATOM      4  H   UNL     1       2.606  -0.434   0.623  0.00  0.00    +0.000 HD
ENDROOT
BRANCH   2   5
ATOM      5  C   UNL     1       4.936  -0.135  -0.400  0.00  0.00    +0.000 A 
ATOM      6  N   UNL     1       4.009  -0.651  -1.252  0.00  0.00    +0.000 NA
ATOM      7  C   UNL     1       4.440  -1.019  -2.478  0.00  0.00    +0.000 A 
ATOM      8  C   UNL     1       3.565  -1.627  -3.366  0.00  0.00    +0.000 A 
ATOM      9  C   UNL     1       3.985  -2.013  -4.639  0.00  0.00    +0.000 A 
ATOM     10  F   UNL     1       3.136  -2.669  -5.440  0.00  0.00    +0.000 F 
ATOM     11  C   UNL     1       5.266  -1.744  -5.087  0.00  0.00    +0.000 A 
ATOM     12  C   UNL     1       6.155  -1.152  -4.209  0.00  0.00    +0.000 A 
ATOM     13  F   UNL     1       7.403  -0.895  -4.630  0.00  0.00    +0.000 F 
ATOM     14  C   UNL     1       5.778  -0.833  -2.897  0.00  0.00    +0.000 A 
ATOM     15  C   UNL     1       6.708  -0.354  -1.972  0.00  0.00    +0.000 A 
ATOM     16  C   UNL     1       6.286  -0.019  -0.697  0.00  0.00    +0.000 A 
ENDBRANCH   2   5
BRANCH   3  17
ATOM     17  C   UNL     1       2.494   0.690   2.342  0.00  0.00    +0.000 A 
ATOM     18  C   UNL     1       2.930   1.714   3.099  0.00  0.00    +0.000 A 
ATOM     19  C   UNL     1       2.249   2.148   4.301  0.00  0.00    +0.000 A 
ATOM     20  C   UNL     1       1.138   1.487   4.687  0.00  0.00    +0.000 A 
ATOM     21  N   UNL     1       0.652   0.447   3.934  0.00  0.00    +0.000 N 
ATOM     22  C   UNL     1       1.220   0.005   2.761  0.00  0.00    +0.000 A 
ATOM     23  O   UNL     1       0.737  -0.912   2.098  0.00  0.00    +0.000 OA
ATOM     24  H   UNL     1      -0.190  -0.041   4.231  0.00  0.00    +0.000 HD
BRANCH  19  25
ATOM     25  C   UNL     1       2.723   3.278   5.109  0.00  0.00    +0.000 A 
ATOM     26  C   UNL     1       3.664   3.082   6.127  0.00  0.00    +0.000 A 
ATOM     27  C   UNL     1       4.092   4.186   6.845  0.00  0.00    +0.000 A 
ATOM     28  N   UNL     1       3.657   5.445   6.617  0.00  0.00    +0.000 NA
ATOM     29  C   UNL     1       2.764   5.609   5.618  0.00  0.00    +0.000 A 
ATOM     30  C   UNL     1       2.276   4.572   4.844  0.00  0.00    +0.000 A 
ENDBRANCH  19  25
ENDBRANCH   3  17
TORSDOF 3
