REMARK  Name = 
REMARK  6 active torsions:
REMARK  status: ('A' for Active; 'I' for Inactive)
REMARK    1  A    between atoms: C_2  and  C_11
REMARK    2  A    between atoms: N_3  and  C_4
REMARK    3  A    between atoms: C_4  and  C_5
REMARK    4  A    between atoms: C_13  and  N_14
REMARK    5  A    between atoms: C_15  and  C_17
REMARK    6  A    between atoms: C_21  and  C_22
REMARK                            x       y       z     vdW  Elec       q    Type
REMARK                         _______ _______ _______ _____ _____    ______ ____
ROOT
ATOM      1  C   UNL     1       2.964   1.056   0.633  0.00  0.00    +0.000 A 
ATOM      2  C   UNL     1       2.445   1.252   1.918  0.00  0.00    +0.000 A 
ATOM      3  C   UNL     1       3.118   2.023   2.869  0.00  0.00    +0.000 A 
ATOM      4  C   UNL     1       4.332   2.615   2.509  0.00  0.00    +0.000 A 
ATOM      5  C   UNL     1       4.869   2.412   1.229  0.00  0.00    +0.000 A 
ATOM      6  C   UNL     1       4.194   1.624   0.296  0.00  0.00    +0.000 A 
ENDROOT
BRANCH   3   7
ATOM      7  N   UNL     1       2.628   2.218   4.180  0.00  0.00    +0.000 N 
ATOM      8  C   UNL     1       1.434   1.728   4.690  0.00  0.00    +0.000 C 
ATOM      9  O   UNL     1       0.633   1.038   4.068  0.00  0.00    +0.000 OA
ATOM     10  H   UNL     1       3.194   2.763   4.826  0.00  0.00    +0.000 HD
BRANCH   8  11
ATOM     11  C   UNL     1       1.152   2.122   6.072  0.00  0.00    +0.000 A 
ATOM     12  N   UNL     1       2.148   2.424   6.926  0.00  0.00    +0.000 NA
ATOM     13  O   UNL     1       1.539   2.620   8.153  0.00  0.00    +0.000 OA
ATOM     14  C   UNL     1       0.197   2.490   8.021  0.00  0.00    +0.000 A 
ATOM     15  C   UNL     1      -0.125   2.208   6.715  0.00  0.00    +0.000 A 
BRANCH  15  16
ATOM     16  C   UNL     1      -1.484   2.056   6.209  0.00  0.00    +0.000 A 
ATOM     17  C   UNL     1      -1.811   2.477   4.910  0.00  0.00    +0.000 A 
ATOM     18  C   UNL     1      -3.092   2.278   4.387  0.00  0.00    +0.000 A 
ATOM     19  C   UNL     1      -4.077   1.686   5.169  0.00  0.00    +0.000 A 
ATOM     20  C   UNL     1      -3.782   1.299   6.475  0.00  0.00    +0.000 A 
ATOM     21  C   UNL     1      -2.494   1.480   6.992  0.00  0.00    +0.000 A 
ENDBRANCH  15  16
ENDBRANCH   8  11
ENDBRANCH   3   7
BRANCH   1  23
ATOM     22  O   UNL     1       2.868  -0.461  -1.165  0.00  0.00    +0.000 OA
ATOM     23  C   UNL     1       2.242   0.189  -0.334  0.00  0.00    +0.000 C 
ATOM     24  N   UNL     1       0.868   0.172  -0.224  0.00  0.00    +0.000 N 
ATOM     25  H   UNL     1       0.393   0.894   0.306  0.00  0.00    +0.000 HD
BRANCH  24  26
ATOM     26  C   UNL     1       0.042  -0.625  -1.104  0.00  0.00    +0.000 C 
BRANCH  26  27
ATOM     27  C   UNL     1      -1.272  -1.007  -0.459  0.00  0.00    +0.000 A 
ATOM     28  C   UNL     1      -1.369  -2.179   0.290  0.00  0.00    +0.000 A 
ATOM     29  C   UNL     1      -2.599  -2.529   0.842  0.00  0.00    +0.000 A 
ATOM     30  C   UNL     1      -3.694  -1.696   0.649  0.00  0.00    +0.000 A 
ATOM     31  C   UNL     1      -3.507  -0.533  -0.080  0.00  0.00    +0.000 A 
ATOM     32  N   UNL     1      -2.326  -0.166  -0.628  0.00  0.00    +0.000 NA
ENDBRANCH  26  27
ENDBRANCH  24  26
ENDBRANCH   1  23
TORSDOF 6
