REMARK  Name = 
REMARK  5 active torsions:
REMARK  status: ('A' for Active; 'I' for Inactive)
REMARK    1  A    between atoms: C_2  and  C_3
REMARK    2  A    between atoms: C_6  and  C_7
REMARK    3  A    between atoms: C_7  and  C_8
REMARK    4  A    between atoms: C_13  and  C_14
REMARK    5  A    between atoms: N_21  and  C_22
REMARK                            x       y       z     vdW  Elec       q    Type
REMARK                         _______ _______ _______ _____ _____    ______ ____
ROOT
ATOM      1  C   UNL     1       3.234   3.304  -0.349  0.00  0.00    +0.000 C 
ATOM      2  O   UNL     1       2.238   4.002  -0.526  0.00  0.00    +0.000 OA
ATOM      3  N   UNL     1       4.489   3.796  -0.018  0.00  0.00    +0.000 N 
ATOM      4  C   UNL     1       4.598   5.158   0.202  0.00  0.00    +0.000 A 
ATOM      5  N   UNL     1       3.806   5.853   0.981  0.00  0.00    +0.000 NA
ATOM      6  C   UNL     1       4.343   7.120   0.984  0.00  0.00    +0.000 A 
ATOM      7  N   UNL     1       5.487   7.217   0.281  0.00  0.00    +0.000 NA
ATOM      8  N   UNL     1       5.576   6.001  -0.317  0.00  0.00    +0.000 N 
ATOM      9  H   UNL     1       5.317   3.277  -0.279  0.00  0.00    +0.000 HD
ENDROOT
BRANCH   6  10
ATOM     10  C   UNL     1       3.678   8.206   1.725  0.00  0.00    +0.000 A 
ATOM     11  C   UNL     1       2.611   7.900   2.574  0.00  0.00    +0.000 A 
ATOM     12  C   UNL     1       1.965   8.926   3.258  0.00  0.00    +0.000 A 
ATOM     13  C   UNL     1       2.390  10.234   3.070  0.00  0.00    +0.000 A 
ATOM     14  C   UNL     1       3.449  10.459   2.204  0.00  0.00    +0.000 A 
ATOM     15  N   UNL     1       4.105   9.482   1.535  0.00  0.00    +0.000 NA
ENDBRANCH   6  10
BRANCH   8  16
ATOM     16  C   UNL     1       6.485   5.772  -1.390  0.00  0.00    +0.000 A 
ATOM     17  C   UNL     1       7.612   6.593  -1.538  0.00  0.00    +0.000 A 
ATOM     18  C   UNL     1       8.511   6.366  -2.585  0.00  0.00    +0.000 A 
ATOM     19  C   UNL     1       8.275   5.347  -3.508  0.00  0.00    +0.000 A 
ATOM     20  C   UNL     1       7.134   4.559  -3.394  0.00  0.00    +0.000 A 
ATOM     21  C   UNL     1       6.240   4.770  -2.343  0.00  0.00    +0.000 A 
ENDBRANCH   8  16
BRANCH   1  22
ATOM     22  C   UNL     1       3.196   1.808  -0.631  0.00  0.00    +0.000 C 
BRANCH  22  26
ATOM     23  C   UNL     1       0.170  -0.413   1.538  0.00  0.00    +0.000 A 
ATOM     24  C   UNL     1      -0.202   0.654   0.715  0.00  0.00    +0.000 A 
ATOM     25  C   UNL     1       0.770   1.381   0.017  0.00  0.00    +0.000 A 
ATOM     26  C   UNL     1       2.131   1.060   0.139  0.00  0.00    +0.000 A 
ATOM     27  C   UNL     1       2.480  -0.011   0.965  0.00  0.00    +0.000 A 
ATOM     28  F   UNL     1       3.768  -0.365   1.090  0.00  0.00    +0.000 F 
ATOM     29  C   UNL     1       1.521  -0.746   1.659  0.00  0.00    +0.000 A 
BRANCH  23  31
ATOM     30  N   UNL     1      -1.626  -1.774   2.826  0.00  0.00    +0.000 NA
ATOM     31  C   UNL     1      -0.825  -1.159   2.250  0.00  0.00    +0.000 C 
ENDBRANCH  23  31
ENDBRANCH  22  26
ENDBRANCH   1  22
TORSDOF 5
