REMARK  Name = 
REMARK  4 active torsions:
REMARK  status: ('A' for Active; 'I' for Inactive)
REMARK    1  A    between atoms: C_2  and  C_16
REMARK    2  A    between atoms: N_3  and  C_4
REMARK    3  A    between atoms: N_6  and  C_7
REMARK    4  A    between atoms: C_20  and  C_21
REMARK                            x       y       z     vdW  Elec       q    Type
REMARK                         _______ _______ _______ _____ _____    ______ ____
ROOT
ATOM      1  O   UNL     1       0.965  -0.112  -0.073  0.00  0.00    +0.000 OA
ATOM      2  C   UNL     1       2.172   0.033   0.092  0.00  0.00    +0.000 C 
ATOM      3  N   UNL     1       2.880  -0.438   1.187  0.00  0.00    +0.000 N 
ATOM      4  H   UNL     1       3.835  -0.113   1.301  0.00  0.00    +0.000 HD
ENDROOT
BRANCH   3   5
ATOM      5  C   UNL     1       2.302  -1.203   2.184  0.00  0.00    +0.000 A 
ATOM      6  C   UNL     1       1.090  -1.844   2.137  0.00  0.00    +0.000 A 
ATOM      7  N   UNL     1       0.864  -2.404   3.369  0.00  0.00    +0.000 N 
ATOM      8  N   UNL     1       1.901  -2.163   4.217  0.00  0.00    +0.000 NA
ATOM      9  C   UNL     1       2.793  -1.506   3.467  0.00  0.00    +0.000 A 
BRANCH   7  10
ATOM     10  C   UNL     1      -0.297  -3.092   3.784  0.00  0.00    +0.000 A 
ATOM     11  C   UNL     1      -0.673  -3.070   5.134  0.00  0.00    +0.000 A 
ATOM     12  C   UNL     1      -1.862  -3.688   5.533  0.00  0.00    +0.000 A 
ATOM     13  C   UNL     1      -2.653  -4.363   4.601  0.00  0.00    +0.000 A 
ATOM     14  C   UNL     1      -2.263  -4.413   3.264  0.00  0.00    +0.000 A 
ATOM     15  C   UNL     1      -1.098  -3.768   2.858  0.00  0.00    +0.000 A 
ATOM     16  F   UNL     1      -0.746  -3.875   1.569  0.00  0.00    +0.000 F 
ENDBRANCH   7  10
ENDBRANCH   3   5
BRANCH   2  17
ATOM     17  C   UNL     1       2.982   0.760  -0.887  0.00  0.00    +0.000 A 
ATOM     18  N   UNL     1       4.193   1.254  -0.566  0.00  0.00    +0.000 NA
ATOM     19  O   UNL     1       4.616   1.957  -1.680  0.00  0.00    +0.000 OA
ATOM     20  C   UNL     1       3.692   1.850  -2.664  0.00  0.00    +0.000 A 
ATOM     21  C   UNL     1       2.642   1.075  -2.242  0.00  0.00    +0.000 A 
BRANCH  21  22
ATOM     22  C   UNL     1       1.482   0.723  -3.050  0.00  0.00    +0.000 A 
ATOM     23  C   UNL     1       0.899  -0.552  -2.938  0.00  0.00    +0.000 A 
ATOM     24  C   UNL     1      -0.271  -0.867  -3.639  0.00  0.00    +0.000 A 
ATOM     25  C   UNL     1      -0.840   0.077  -4.482  0.00  0.00    +0.000 A 
ATOM     26  F   UNL     1      -1.966  -0.221  -5.143  0.00  0.00    +0.000 F 
ATOM     27  C   UNL     1      -0.259   1.327  -4.646  0.00  0.00    +0.000 A 
ATOM     28  C   UNL     1       0.892   1.641  -3.930  0.00  0.00    +0.000 A 
ATOM     29  F   UNL     1       1.418   2.865  -4.092  0.00  0.00    +0.000 F 
ENDBRANCH  21  22
ENDBRANCH   2  17
TORSDOF 4
