REMARK  Name = 
REMARK  7 active torsions:
REMARK  status: ('A' for Active; 'I' for Inactive)
REMARK    1  A    between atoms: C_1  and  O_2
REMARK    2  A    between atoms: O_2  and  C_3
REMARK    3  A    between atoms: C_3  and  C_5
REMARK    4  A    between atoms: C_5  and  O_6
REMARK    5  A    between atoms: C_5  and  C_20
REMARK    6  A    between atoms: O_6  and  C_7
REMARK    7  A    between atoms: C_7  and  C_9
REMARK                            x       y       z     vdW  Elec       q    Type
REMARK                         _______ _______ _______ _____ _____    ______ ____
ROOT
ATOM      1  C   UNL     1       4.617  -1.086  -0.394  0.00  0.00    +0.000 C 
ENDROOT
BRANCH   1   2
ATOM      2  C   UNL     1       5.256  -2.341  -0.970  0.00  0.00    +0.000 A 
ATOM      3  C   UNL     1       6.161  -2.235  -2.035  0.00  0.00    +0.000 A 
ATOM      4  C   UNL     1       6.849  -3.358  -2.499  0.00  0.00    +0.000 A 
ATOM      5  C   UNL     1       6.655  -4.616  -1.911  0.00  0.00    +0.000 A 
ATOM      6  C   UNL     1       7.385  -5.737  -2.337  0.00  0.00    +0.000 A 
ATOM      7  C   UNL     1       7.194  -6.983  -1.740  0.00  0.00    +0.000 A 
ATOM      8  C   UNL     1       6.261  -7.125  -0.717  0.00  0.00    +0.000 A 
ATOM      9  C   UNL     1       5.528  -6.017  -0.281  0.00  0.00    +0.000 A 
ATOM     10  C   UNL     1       5.720  -4.750  -0.861  0.00  0.00    +0.000 A 
ATOM     11  C   UNL     1       5.028  -3.610  -0.406  0.00  0.00    +0.000 A 
ENDBRANCH   1   2
BRANCH   1  12
ATOM     12  C   UNL     1       3.088  -1.099  -0.498  0.00  0.00    +0.000 C 
ATOM     13  O   UNL     1       2.321  -1.463   0.387  0.00  0.00    +0.000 OA
BRANCH  12  15
ATOM     14  C   UNL     1       1.279  -0.549  -1.893  0.00  0.00    +0.000 C 
ATOM     15  O   UNL     1       2.695  -0.634  -1.724  0.00  0.00    +0.000 OA
ENDBRANCH  12  15
ENDBRANCH   1  12
BRANCH   1  16
ATOM     16  O   UNL     1       5.072  -1.004   0.965  0.00  0.00    +0.000 OA
BRANCH  16  17
ATOM     17  C   UNL     1       5.011   0.226   1.521  0.00  0.00    +0.000 C 
ATOM     18  O   UNL     1       4.577   1.232   0.982  0.00  0.00    +0.000 OA
BRANCH  17  19
ATOM     19  C   UNL     1       5.606   0.203   2.885  0.00  0.00    +0.000 A 
ATOM     20  C   UNL     1       5.628   1.392   3.633  0.00  0.00    +0.000 A 
ATOM     21  C   UNL     1       6.214   1.424   4.906  0.00  0.00    +0.000 A 
ATOM     22  C   UNL     1       6.790   0.272   5.445  0.00  0.00    +0.000 A 
ATOM     23  N   UNL     1       7.407   0.284   6.703  0.00  0.00    +0.000 N 
ATOM     24  C   UNL     1       7.996  -0.841   7.212  0.00  0.00    +0.000 A 
ATOM     25  C   UNL     1       8.031  -2.024   6.590  0.00  0.00    +0.000 A 
ATOM     26  C   UNL     1       7.386  -2.137   5.259  0.00  0.00    +0.000 A 
ATOM     27  O   UNL     1       7.382  -3.206   4.661  0.00  0.00    +0.000 OA
ATOM     28  C   UNL     1       6.761  -0.915   4.690  0.00  0.00    +0.000 A 
ATOM     29  C   UNL     1       6.171  -0.958   3.424  0.00  0.00    +0.000 A 
ATOM     30  H   UNL     1       7.411   1.135   7.253  0.00  0.00    +0.000 HD
ENDBRANCH  17  19
ENDBRANCH  16  17
ENDBRANCH   1  16
TORSDOF 6
