REMARK  Name = 
REMARK  7 active torsions:
REMARK  status: ('A' for Active; 'I' for Inactive)
REMARK    1  A    between atoms: C_2  and  C_14
REMARK    2  A    between atoms: N_3  and  C_4
REMARK    3  A    between atoms: C_4  and  C_5
REMARK    4  A    between atoms: C_5  and  C_6
REMARK    5  A    between atoms: C_8  and  C_9
REMARK    6  A    between atoms: C_15  and  C_16
REMARK    7  A    between atoms: C_22  and  C_23
REMARK                            x       y       z     vdW  Elec       q    Type
REMARK                         _______ _______ _______ _____ _____    ______ ____
ROOT
ATOM      1  C   UNL     1       3.050   0.971  -0.616  0.00  0.00    +0.000 A 
ATOM      2  C   UNL     1       4.074   0.631  -1.437  0.00  0.00    +0.000 A 
ATOM      3  C   UNL     1       4.864   1.772  -2.061  0.00  0.00    +0.000 A 
ATOM      4  N   UNL     1       4.604   3.026  -1.834  0.00  0.00    +0.000 NA
ATOM      5  N   UNL     1       3.574   3.318  -1.012  0.00  0.00    +0.000 N 
ATOM      6  C   UNL     1       2.788   2.413  -0.361  0.00  0.00    +0.000 A 
ATOM      7  O   UNL     1       1.915   2.793   0.418  0.00  0.00    +0.000 OA
ATOM      8  H   UNL     1       3.399   4.303  -0.837  0.00  0.00    +0.000 HD
ENDROOT
BRANCH   3   9
ATOM      9  C   UNL     1       6.048   1.495  -2.958  0.00  0.00    +0.000 A 
ATOM     10  C   UNL     1       6.088   0.449  -3.882  0.00  0.00    +0.000 A 
ATOM     11  C   UNL     1       7.239   0.175  -4.623  0.00  0.00    +0.000 A 
ATOM     12  C   UNL     1       8.340   1.016  -4.525  0.00  0.00    +0.000 A 
ATOM     13  C   UNL     1       8.284   2.131  -3.694  0.00  0.00    +0.000 A 
ATOM     14  C   UNL     1       7.150   2.364  -2.906  0.00  0.00    +0.000 A 
ENDBRANCH   3   9
BRANCH   2  15
ATOM     15  C   UNL     1       4.450  -0.781  -1.653  0.00  0.00    +0.000 A 
ATOM     16  C   UNL     1       3.813  -1.529  -2.658  0.00  0.00    +0.000 A 
ATOM     17  C   UNL     1       4.228  -2.829  -2.942  0.00  0.00    +0.000 A 
ATOM     18  C   UNL     1       5.244  -3.411  -2.188  0.00  0.00    +0.000 A 
ATOM     19  C   UNL     1       5.840  -2.697  -1.147  0.00  0.00    +0.000 A 
ATOM     20  C   UNL     1       5.449  -1.381  -0.881  0.00  0.00    +0.000 A 
ENDBRANCH   2  15
BRANCH   1  22
ATOM     21  O   UNL     1       2.047  -1.210  -0.371  0.00  0.00    +0.000 OA
ATOM     22  C   UNL     1       2.196  -0.071   0.062  0.00  0.00    +0.000 C 
ATOM     23  N   UNL     1       1.565   0.319   1.221  0.00  0.00    +0.000 N 
ATOM     24  H   UNL     1       1.583   1.303   1.483  0.00  0.00    +0.000 HD
BRANCH  23  25
ATOM     25  C   UNL     1       0.743  -0.602   1.985  0.00  0.00    +0.000 C 
BRANCH  25  26
ATOM     26  C   UNL     1       1.571  -1.381   3.002  0.00  0.00    +0.000 C 
BRANCH  26  27
ATOM     27  C   UNL     1       0.724  -2.327   3.759  0.00  0.00    +0.000 A 
ATOM     28  N   UNL     1       0.014  -2.127   4.845  0.00  0.00    +0.000 NA
ATOM     29  C   UNL     1      -0.544  -3.372   5.064  0.00  0.00    +0.000 A 
ATOM     30  N   UNL     1      -0.199  -4.298   4.154  0.00  0.00    +0.000 NA
ATOM     31  O   UNL     1       0.645  -3.603   3.286  0.00  0.00    +0.000 OA
BRANCH  29  32
ATOM     32  C   UNL     1      -1.453  -3.677   6.207  0.00  0.00    +0.000 C 
ATOM     33  F   UNL     1      -0.849  -3.447   7.408  0.00  0.00    +0.000 F 
ATOM     34  F   UNL     1      -2.568  -2.892   6.190  0.00  0.00    +0.000 F 
ENDBRANCH  29  32
ENDBRANCH  26  27
ENDBRANCH  25  26
ENDBRANCH  23  25
ENDBRANCH   1  22
TORSDOF 7
