REMARK  Name = 
REMARK  3 active torsions:
REMARK  status: ('A' for Active; 'I' for Inactive)
REMARK    1  A    between atoms: C_2  and  C_17
REMARK    2  A    between atoms: N_3  and  C_4
REMARK    3  A    between atoms: C_8  and  N_9
REMARK                            x       y       z     vdW  Elec       q    Type
REMARK                         _______ _______ _______ _____ _____    ______ ____
ROOT
ATOM      1  O   UNL     1       1.016   0.078   0.265  0.00  0.00    +0.000 OA
ATOM      2  C   UNL     1       2.205   0.091  -0.027  0.00  0.00    +0.000 C 
ATOM      3  N   UNL     1       2.816   0.919  -0.953  0.00  0.00    +0.000 N 
ATOM      4  H   UNL     1       3.739   0.658  -1.277  0.00  0.00    +0.000 HD
ENDROOT
BRANCH   2   5
ATOM      5  C   UNL     1       3.082  -0.909   0.631  0.00  0.00    +0.000 A 
ATOM      6  C   UNL     1       4.417  -0.610   0.944  0.00  0.00    +0.000 A 
ATOM      7  C   UNL     1       5.182  -1.543   1.646  0.00  0.00    +0.000 A 
ATOM      8  C   UNL     1       4.614  -2.769   2.018  0.00  0.00    +0.000 A 
ATOM      9  N   UNL     1       5.379  -3.693   2.742  0.00  0.00    +0.000 N 
ATOM     10  C   UNL     1       6.669  -3.459   3.135  0.00  0.00    +0.000 A 
ATOM     11  O   UNL     1       7.318  -4.272   3.778  0.00  0.00    +0.000 OA
ATOM     12  C   UNL     1       7.258  -2.155   2.742  0.00  0.00    +0.000 A 
ATOM     13  C   UNL     1       6.563  -1.255   2.033  0.00  0.00    +0.000 A 
ATOM     14  C   UNL     1       3.291  -3.057   1.692  0.00  0.00    +0.000 A 
ATOM     15  F   UNL     1       2.748  -4.229   2.057  0.00  0.00    +0.000 F 
ATOM     16  C   UNL     1       2.517  -2.132   1.009  0.00  0.00    +0.000 A 
ATOM     17  H   UNL     1       4.968  -4.576   3.018  0.00  0.00    +0.000 HD
ENDBRANCH   2   5
BRANCH   3  18
ATOM     18  C   UNL     1       2.175   1.968  -1.643  0.00  0.00    +0.000 A 
ATOM     19  C   UNL     1       0.960   2.514  -1.232  0.00  0.00    +0.000 A 
ATOM     20  C   UNL     1       0.339   3.508  -1.984  0.00  0.00    +0.000 A 
ATOM     21  F   UNL     1      -0.855   3.944  -1.559  0.00  0.00    +0.000 F 
ATOM     22  C   UNL     1       0.904   3.963  -3.173  0.00  0.00    +0.000 A 
ATOM     23  C   UNL     1       2.139   3.442  -3.560  0.00  0.00    +0.000 A 
ATOM     24  F   UNL     1       2.768   3.884  -4.658  0.00  0.00    +0.000 F 
ATOM     25  C   UNL     1       2.788   2.473  -2.791  0.00  0.00    +0.000 A 
BRANCH  22  26
ATOM     26  N   UNL     1       0.221   4.900  -3.977  0.00  0.00    +0.000 N 
ATOM     27  C   UNL     1      -0.704   5.835  -3.568  0.00  0.00    +0.000 A 
ATOM     28  C   UNL     1      -1.126   6.478  -4.707  0.00  0.00    +0.000 A 
ATOM     29  N   UNL     1      -0.495   5.974  -5.808  0.00  0.00    +0.000 NA
ATOM     30  C   UNL     1       0.308   5.040  -5.345  0.00  0.00    +0.000 A 
ENDBRANCH  22  26
ENDBRANCH   3  18
TORSDOF 3
