REMARK  Name = 
REMARK  6 active torsions:
REMARK  status: ('A' for Active; 'I' for Inactive)
REMARK    1  A    between atoms: C_1  and  S_2
REMARK    2  A    between atoms: S_2  and  C_3
REMARK    3  A    between atoms: C_7  and  C_8
REMARK    4  A    between atoms: C_8  and  O_9
REMARK    5  A    between atoms: C_8  and  C_10
REMARK    6  A    between atoms: C_14  and  C_15
REMARK                            x       y       z     vdW  Elec       q    Type
REMARK                         _______ _______ _______ _____ _____    ______ ____
ROOT
ATOM      1  C   UNL     1       3.967  -1.602   6.087  0.00  0.00    +0.000 A 
ATOM      2  C   UNL     1       3.094  -0.702   6.703  0.00  0.00    +0.000 A 
ATOM      3  C   UNL     1       3.206  -0.418   8.068  0.00  0.00    +0.000 A 
ATOM      4  C   UNL     1       4.153  -1.075   8.856  0.00  0.00    +0.000 A 
ATOM      5  C   UNL     1       4.979  -2.054   8.297  0.00  0.00    +0.000 A 
ATOM      6  C   UNL     1       4.890  -2.274   6.904  0.00  0.00    +0.000 A 
ENDROOT
BRANCH   5   7
ATOM      7  C   UNL     1       5.840  -2.943   9.104  0.00  0.00    +0.000 A 
ATOM      8  C   UNL     1       7.057  -3.401   8.564  0.00  0.00    +0.000 A 
ATOM      9  C   UNL     1       7.722  -4.490   9.103  0.00  0.00    +0.000 A 
ATOM     10  C   UNL     1       7.234  -5.051  10.269  0.00  0.00    +0.000 A 
ATOM     11  O   UNL     1       7.933  -6.159  10.735  0.00  0.00    +0.000 OA
ATOM     12  C   UNL     1       7.935  -6.316  12.104  0.00  0.00    +0.000 A 
ATOM     13  O   UNL     1       8.841  -6.932  12.668  0.00  0.00    +0.000 OA
ATOM     14  N   UNL     1       6.896  -5.775  12.816  0.00  0.00    +0.000 N 
ATOM     15  C   UNL     1       5.915  -4.964  12.308  0.00  0.00    +0.000 A 
ATOM     16  O   UNL     1       4.968  -4.573  12.980  0.00  0.00    +0.000 OA
ATOM     17  C   UNL     1       6.151  -4.505  10.935  0.00  0.00    +0.000 A 
ATOM     18  C   UNL     1       5.419  -3.471  10.342  0.00  0.00    +0.000 A 
ATOM     19  H   UNL     1       6.904  -5.953  13.798  0.00  0.00    +0.000 HD
ENDBRANCH   5   7
BRANCH   1  20
ATOM     20  C   UNL     1       3.858  -1.899   4.596  0.00  0.00    +0.000 C 
BRANCH  20  25
ATOM     21  C   UNL     1       7.490  -1.512   3.438  0.00  0.00    +0.000 A 
ATOM     22  C   UNL     1       7.710  -2.723   2.779  0.00  0.00    +0.000 A 
ATOM     23  C   UNL     1       6.666  -3.630   2.613  0.00  0.00    +0.000 A 
ATOM     24  C   UNL     1       5.407  -3.352   3.148  0.00  0.00    +0.000 A 
ATOM     25  C   UNL     1       5.184  -2.181   3.893  0.00  0.00    +0.000 A 
ATOM     26  C   UNL     1       6.234  -1.248   3.992  0.00  0.00    +0.000 A 
BRANCH  21  28
ATOM     27  C   UNL     1       9.143  -0.008   1.860  0.00  0.00    +0.000 C 
ATOM     28  S   UNL     1       8.793  -0.309   3.613  0.00  0.00    +0.000 S 
ENDBRANCH  21  28
ENDBRANCH  20  25
BRANCH  20  29
ATOM     29  O   UNL     1       2.957  -2.997   4.456  0.00  0.00    +0.000 OA
ATOM     30  H   UNL     1       3.397  -3.764   4.859  0.00  0.00    +0.000 HD
ENDBRANCH  20  29
ENDBRANCH   1  20
TORSDOF 5
