REMARK  Name = 
REMARK  4 active torsions:
REMARK  status: ('A' for Active; 'I' for Inactive)
REMARK    1  A    between atoms: C_2  and  N_3
REMARK    2  A    between atoms: C_2  and  C_17
REMARK    3  A    between atoms: N_9  and  C_10
REMARK    4  A    between atoms: C_10  and  C_11
REMARK                            x       y       z     vdW  Elec       q    Type
REMARK                         _______ _______ _______ _____ _____    ______ ____
ROOT
ATOM      1  O   UNL     1       2.720  -1.271   0.467  0.00  0.00    +0.000 OA
ATOM      2  C   UNL     1       3.662  -0.632   0.021  0.00  0.00    +0.000 C 
ENDROOT
BRANCH   2   3
ATOM      3  C   UNL     1       4.852  -0.358   0.918  0.00  0.00    +0.000 A 
ATOM      4  C   UNL     1       6.030   0.278   0.463  0.00  0.00    +0.000 A 
ATOM      5  C   UNL     1       6.773   1.031   1.373  0.00  0.00    +0.000 A 
ATOM      6  C   UNL     1       6.260   1.163   2.662  0.00  0.00    +0.000 A 
ATOM      7  N   UNL     1       6.239   2.472   3.200  0.00  0.00    +0.000 N 
ATOM      8  C   UNL     1       6.766   3.529   2.489  0.00  0.00    +0.000 A 
ATOM      9  O   UNL     1       6.408   4.690   2.637  0.00  0.00    +0.000 OA
ATOM     10  C   UNL     1       7.853   3.161   1.543  0.00  0.00    +0.000 A 
ATOM     11  C   UNL     1       7.870   1.929   1.014  0.00  0.00    +0.000 A 
ATOM     12  C   UNL     1       5.403   0.203   3.172  0.00  0.00    +0.000 A 
ATOM     13  F   UNL     1       5.153   0.136   4.485  0.00  0.00    +0.000 F 
ATOM     14  C   UNL     1       4.664  -0.548   2.288  0.00  0.00    +0.000 A 
ATOM     15  H   UNL     1       5.478   2.703   3.830  0.00  0.00    +0.000 HD
ENDBRANCH   2   3
BRANCH   2  16
ATOM     16  N   UNL     1       3.755  -0.084  -1.221  0.00  0.00    +0.000 NA
ATOM     17  C   UNL     1       2.829   0.160  -2.102  0.00  0.00    +0.000 A 
ATOM     18  C   UNL     1       3.532   0.587  -3.392  0.00  0.00    +0.000 A 
ATOM     19  C   UNL     1       2.847   0.703  -4.537  0.00  0.00    +0.000 A 
ATOM     20  C   UNL     1       1.429   0.479  -4.575  0.00  0.00    +0.000 A 
ATOM     21  C   UNL     1       0.787   0.201  -3.435  0.00  0.00    +0.000 A 
ATOM     22  N   UNL     1       1.402   0.083  -2.173  0.00  0.00    +0.000 N 
BRANCH  22  23
ATOM     23  C   UNL     1       0.478   0.119  -1.022  0.00  0.00    +0.000 C 
BRANCH  23  24
ATOM     24  C   UNL     1       0.091   1.544  -0.654  0.00  0.00    +0.000 A 
ATOM     25  C   UNL     1      -0.933   2.244  -1.325  0.00  0.00    +0.000 A 
ATOM     26  C   UNL     1      -1.224   3.572  -1.003  0.00  0.00    +0.000 A 
ATOM     27  C   UNL     1      -0.512   4.210   0.010  0.00  0.00    +0.000 A 
ATOM     28  C   UNL     1       0.462   3.525   0.717  0.00  0.00    +0.000 A 
ATOM     29  C   UNL     1       0.766   2.197   0.385  0.00  0.00    +0.000 A 
ENDBRANCH  23  24
ENDBRANCH  22  23
ENDBRANCH   2  16
TORSDOF 4
