REMARK  Name = 
REMARK  4 active torsions:
REMARK  status: ('A' for Active; 'I' for Inactive)
REMARK    1  A    between atoms: C_2  and  C_16
REMARK    2  A    between atoms: N_3  and  C_4
REMARK    3  A    between atoms: C_4  and  C_5
REMARK    4  A    between atoms: C_19  and  C_20
REMARK                            x       y       z     vdW  Elec       q    Type
REMARK                         _______ _______ _______ _____ _____    ______ ____
ROOT
ATOM      1  O   UNL     1       1.013   0.071   0.053  0.00  0.00    +0.000 OA
ATOM      2  C   UNL     1       2.240   0.082   0.106  0.00  0.00    +0.000 C 
ATOM      3  N   UNL     1       2.947   1.200  -0.286  0.00  0.00    +0.000 N 
ATOM      4  H   UNL     1       2.369   2.014  -0.456  0.00  0.00    +0.000 HD
ENDROOT
BRANCH   2   5
ATOM      5  C   UNL     1       2.973  -1.139   0.543  0.00  0.00    +0.000 A 
ATOM      6  C   UNL     1       2.550  -2.386   0.069  0.00  0.00    +0.000 A 
ATOM      7  C   UNL     1       3.295  -3.533   0.365  0.00  0.00    +0.000 A 
ATOM      8  C   UNL     1       4.471  -3.429   1.122  0.00  0.00    +0.000 A 
ATOM      9  C   UNL     1       4.877  -2.187   1.610  0.00  0.00    +0.000 A 
ATOM     10  C   UNL     1       4.094  -1.063   1.374  0.00  0.00    +0.000 A 
BRANCH   8  11
ATOM     11  C   UNL     1       5.306  -4.602   1.487  0.00  0.00    +0.000 A 
ATOM     12  N   UNL     1       6.597  -4.456   1.583  0.00  0.00    +0.000 NA
ATOM     13  N   UNL     1       7.310  -5.549   1.986  0.00  0.00    +0.000 N 
ATOM     14  C   UNL     1       6.784  -6.765   2.331  0.00  0.00    +0.000 A 
ATOM     15  O   UNL     1       7.462  -7.708   2.725  0.00  0.00    +0.000 OA
ATOM     16  C   UNL     1       5.325  -6.890   2.210  0.00  0.00    +0.000 A 
ATOM     17  C   UNL     1       4.588  -5.856   1.798  0.00  0.00    +0.000 A 
ATOM     18  H   UNL     1       8.315  -5.430   2.073  0.00  0.00    +0.000 HD
ENDBRANCH   8  11
ENDBRANCH   2   5
BRANCH   3  19
ATOM     19  C   UNL     1       4.386   1.367  -0.264  0.00  0.00    +0.000 C 
BRANCH  19  20
ATOM     20  C   UNL     1       4.962   2.318  -1.258  0.00  0.00    +0.000 A 
ATOM     21  C   UNL     1       6.172   2.945  -0.928  0.00  0.00    +0.000 A 
ATOM     22  F   UNL     1       6.691   2.742   0.296  0.00  0.00    +0.000 F 
ATOM     23  C   UNL     1       6.871   3.736  -1.844  0.00  0.00    +0.000 A 
ATOM     24  C   UNL     1       8.086   4.354  -1.506  0.00  0.00    +0.000 A 
ATOM     25  C   UNL     1       8.764   5.135  -2.439  0.00  0.00    +0.000 A 
ATOM     26  C   UNL     1       8.238   5.298  -3.718  0.00  0.00    +0.000 A 
ATOM     27  C   UNL     1       7.037   4.678  -4.069  0.00  0.00    +0.000 A 
ATOM     28  C   UNL     1       6.339   3.892  -3.141  0.00  0.00    +0.000 A 
ATOM     29  C   UNL     1       5.136   3.247  -3.480  0.00  0.00    +0.000 A 
ATOM     30  C   UNL     1       4.454   2.461  -2.550  0.00  0.00    +0.000 A 
ENDBRANCH  19  20
ENDBRANCH   3  19
TORSDOF 4
