REMARK  Name = 
REMARK  7 active torsions:
REMARK  status: ('A' for Active; 'I' for Inactive)
REMARK    1  A    between atoms: C_1  and  O_2
REMARK    2  A    between atoms: O_2  and  C_3
REMARK    3  A    between atoms: C_6  and  O_7
REMARK    4  A    between atoms: O_7  and  C_8
REMARK    5  A    between atoms: C_9  and  C_10
REMARK    6  A    between atoms: C_14  and  N_15
REMARK    7  A    between atoms: C_16  and  C_18
REMARK                            x       y       z     vdW  Elec       q    Type
REMARK                         _______ _______ _______ _____ _____    ______ ____
ROOT
ATOM      1  C   UNL     1       6.137   1.527  -2.738  0.00  0.00    +0.000 A 
ATOM      2  C   UNL     1       6.397   0.728  -3.859  0.00  0.00    +0.000 A 
ATOM      3  N   UNL     1       7.611   0.504  -4.399  0.00  0.00    +0.000 NA
ATOM      4  C   UNL     1       8.660   1.123  -3.818  0.00  0.00    +0.000 A 
ATOM      5  C   UNL     1       8.546   1.972  -2.711  0.00  0.00    +0.000 A 
ATOM      6  C   UNL     1       7.258   2.146  -2.155  0.00  0.00    +0.000 A 
ENDROOT
BRANCH   1  11
ATOM      7  C   UNL     1       3.032   3.344  -1.499  0.00  0.00    +0.000 A 
ATOM      8  C   UNL     1       2.073   2.340  -1.560  0.00  0.00    +0.000 A 
ATOM      9  C   UNL     1       2.435   1.044  -1.920  0.00  0.00    +0.000 A 
ATOM     10  C   UNL     1       3.764   0.734  -2.247  0.00  0.00    +0.000 A 
ATOM     11  C   UNL     1       4.753   1.750  -2.255  0.00  0.00    +0.000 A 
ATOM     12  C   UNL     1       4.354   3.044  -1.847  0.00  0.00    +0.000 A 
BRANCH   7  14
ATOM     13  C   UNL     1       1.460   5.012  -0.880  0.00  0.00    +0.000 C 
ATOM     14  O   UNL     1       2.811   4.643  -1.140  0.00  0.00    +0.000 OA
ENDBRANCH   7  14
BRANCH  10  15
ATOM     15  O   UNL     1       4.185  -0.538  -2.548  0.00  0.00    +0.000 OA
ATOM     16  C   UNL     1       3.206  -1.559  -2.679  0.00  0.00    +0.000 C 
ENDBRANCH  10  15
ENDBRANCH   1  11
BRANCH   5  17
ATOM     17  N   UNL     1       9.636   2.657  -2.129  0.00  0.00    +0.000 N 
ATOM     18  C   UNL     1      10.947   2.623  -2.559  0.00  0.00    +0.000 C 
ATOM     19  O   UNL     1      11.384   1.996  -3.522  0.00  0.00    +0.000 OA
ATOM     20  H   UNL     1       9.428   3.192  -1.287  0.00  0.00    +0.000 HD
BRANCH  18  21
ATOM     21  C   UNL     1      11.913   3.376  -1.735  0.00  0.00    +0.000 A 
ATOM     22  C   UNL     1      13.143   2.752  -1.460  0.00  0.00    +0.000 A 
ATOM     23  C   UNL     1      14.070   3.369  -0.622  0.00  0.00    +0.000 A 
ATOM     24  C   UNL     1      13.791   4.650  -0.163  0.00  0.00    +0.000 A 
ATOM     25  C   UNL     1      14.784   5.389   0.660  0.00  0.00    +0.000 A 
ATOM     26  O   UNL     1      15.478   4.835   1.493  0.00  0.00    +0.000 OA
ATOM     27  C   UNL     1      14.891   6.822   0.337  0.00  0.00    +0.000 A 
ATOM     28  C   UNL     1      13.774   7.407  -0.115  0.00  0.00    +0.000 A 
ATOM     29  N   UNL     1      12.579   6.740  -0.318  0.00  0.00    +0.000 N 
ATOM     30  C   UNL     1      12.637   5.357  -0.569  0.00  0.00    +0.000 A 
ATOM     31  C   UNL     1      11.654   4.684  -1.293  0.00  0.00    +0.000 A 
ATOM     32  H   UNL     1      11.820   7.268  -0.739  0.00  0.00    +0.000 HD
ENDBRANCH  18  21
ENDBRANCH   5  17
TORSDOF 5
