REMARK  Name = 
REMARK  7 active torsions:
REMARK  status: ('A' for Active; 'I' for Inactive)
REMARK    1  A    between atoms: C_2  and  O_3
REMARK    2  A    between atoms: C_2  and  C_21
REMARK    3  A    between atoms: O_3  and  C_4
REMARK    4  A    between atoms: C_4  and  C_5
REMARK    5  A    between atoms: C_7  and  O_8
REMARK    6  A    between atoms: O_8  and  C_9
REMARK    7  A    between atoms: C_9  and  C_10
REMARK                            x       y       z     vdW  Elec       q    Type
REMARK                         _______ _______ _______ _____ _____    ______ ____
ROOT
ATOM      1  C   UNL     1       4.845   0.455   2.708  0.00  0.00    +0.000 A 
ATOM      2  C   UNL     1       4.973   1.713   3.319  0.00  0.00    +0.000 A 
ATOM      3  C   UNL     1       5.327   1.817   4.665  0.00  0.00    +0.000 A 
ATOM      4  C   UNL     1       5.631   0.665   5.391  0.00  0.00    +0.000 A 
ATOM      5  C   UNL     1       5.517  -0.589   4.792  0.00  0.00    +0.000 A 
ATOM      6  C   UNL     1       5.115  -0.694   3.462  0.00  0.00    +0.000 A 
ENDROOT
BRANCH   1   7
ATOM      7  C   UNL     1       4.431   0.347   1.263  0.00  0.00    +0.000 C 
BRANCH   7   8
ATOM      8  O   UNL     1       3.119   0.908   1.110  0.00  0.00    +0.000 OA
BRANCH   8  10
ATOM      9  O   UNL     1       3.938   2.455  -0.365  0.00  0.00    +0.000 OA
ATOM     10  C   UNL     1       3.014   1.964   0.269  0.00  0.00    +0.000 C 
BRANCH  10  11
ATOM     11  C   UNL     1       1.607   2.463   0.194  0.00  0.00    +0.000 A 
ATOM     12  C   UNL     1       1.380   3.495  -0.653  0.00  0.00    +0.000 A 
ATOM     13  C   UNL     1       0.052   4.045  -0.867  0.00  0.00    +0.000 A 
ATOM     14  C   UNL     1      -0.987   3.486  -0.227  0.00  0.00    +0.000 A 
ATOM     15  N   UNL     1      -0.771   2.429   0.654  0.00  0.00    +0.000 N 
ATOM     16  N   UNL     1      -1.685   1.758   1.395  0.00  0.00    +0.000 NA
ATOM     17  N   UNL     1      -1.050   0.885   2.164  0.00  0.00    +0.000 NA
ATOM     18  C   UNL     1       0.284   0.975   1.898  0.00  0.00    +0.000 A 
ATOM     19  C   UNL     1       0.501   1.915   0.918  0.00  0.00    +0.000 A 
ENDBRANCH  10  11
ENDBRANCH   8  10
ENDBRANCH   7   8
ENDBRANCH   1   7
BRANCH   3  20
ATOM     20  O   UNL     1       5.344   3.088   5.178  0.00  0.00    +0.000 OA
BRANCH  20  21
ATOM     21  C   UNL     1       5.125   3.156   6.592  0.00  0.00    +0.000 C 
BRANCH  21  22
ATOM     22  C   UNL     1       4.578   4.501   6.997  0.00  0.00    +0.000 A 
ATOM     23  C   UNL     1       3.821   5.298   6.124  0.00  0.00    +0.000 A 
ATOM     24  C   UNL     1       3.254   6.489   6.580  0.00  0.00    +0.000 A 
ATOM     25  C   UNL     1       3.433   6.876   7.906  0.00  0.00    +0.000 A 
ATOM     26  F   UNL     1       2.871   8.012   8.339  0.00  0.00    +0.000 F 
ATOM     27  C   UNL     1       4.169   6.099   8.786  0.00  0.00    +0.000 A 
ATOM     28  C   UNL     1       4.730   4.916   8.323  0.00  0.00    +0.000 A 
ATOM     29  F   UNL     1       5.415   4.148   9.186  0.00  0.00    +0.000 F 
ENDBRANCH  21  22
ENDBRANCH  20  21
ENDBRANCH   3  20
TORSDOF 7
