REMARK  Name = 
REMARK  5 active torsions:
REMARK  status: ('A' for Active; 'I' for Inactive)
REMARK    1  A    between atoms: C_2  and  C_10
REMARK    2  A    between atoms: N_3  and  C_4
REMARK    3  A    between atoms: C_13  and  N_14
REMARK    4  A    between atoms: C_15  and  C_17
REMARK    5  A    between atoms: C_22  and  C_23
REMARK                            x       y       z     vdW  Elec       q    Type
REMARK                         _______ _______ _______ _____ _____    ______ ____
ROOT
ATOM      1  C   UNL     1       3.122   0.277  -1.233  0.00  0.00    +0.000 A 
ATOM      2  C   UNL     1       2.657   1.413  -1.892  0.00  0.00    +0.000 A 
ATOM      3  C   UNL     1       3.322   1.893  -3.016  0.00  0.00    +0.000 A 
ATOM      4  C   UNL     1       4.450   1.240  -3.521  0.00  0.00    +0.000 A 
ATOM      5  C   UNL     1       4.931   0.114  -2.835  0.00  0.00    +0.000 A 
ATOM      6  C   UNL     1       4.269  -0.373  -1.697  0.00  0.00    +0.000 A 
ENDROOT
BRANCH   1   8
ATOM      7  O   UNL     1       1.073  -0.132  -0.227  0.00  0.00    +0.000 OA
ATOM      8  C   UNL     1       2.291  -0.225  -0.112  0.00  0.00    +0.000 C 
ATOM      9  N   UNL     1       2.978  -0.679   1.000  0.00  0.00    +0.000 N 
ATOM     10  H   UNL     1       3.979  -0.530   1.023  0.00  0.00    +0.000 HD
BRANCH   9  11
ATOM     11  C   UNL     1       2.370  -1.121   2.199  0.00  0.00    +0.000 A 
ATOM     12  C   UNL     1       1.013  -1.420   2.317  0.00  0.00    +0.000 A 
ATOM     13  C   UNL     1       0.484  -1.800   3.549  0.00  0.00    +0.000 A 
ATOM     14  C   UNL     1       1.339  -1.884   4.633  0.00  0.00    +0.000 A 
ATOM     15  N   UNL     1       2.664  -1.634   4.561  0.00  0.00    +0.000 NA
ATOM     16  C   UNL     1       3.144  -1.262   3.348  0.00  0.00    +0.000 A 
ENDBRANCH   9  11
ENDBRANCH   1   8
BRANCH   4  17
ATOM     17  N   UNL     1       5.113   1.651  -4.706  0.00  0.00    +0.000 N 
ATOM     18  C   UNL     1       4.658   2.639  -5.569  0.00  0.00    +0.000 C 
ATOM     19  O   UNL     1       3.639   3.300  -5.412  0.00  0.00    +0.000 OA
ATOM     20  H   UNL     1       5.948   1.138  -4.954  0.00  0.00    +0.000 HD
BRANCH  18  21
ATOM     21  C   UNL     1       5.452   2.913  -6.801  0.00  0.00    +0.000 A 
ATOM     22  C   UNL     1       6.009   1.825  -7.499  0.00  0.00    +0.000 A 
ATOM     23  C   UNL     1       6.554   2.006  -8.770  0.00  0.00    +0.000 A 
ATOM     24  C   UNL     1       6.519   3.262  -9.366  0.00  0.00    +0.000 A 
ATOM     25  C   UNL     1       5.998   4.354  -8.669  0.00  0.00    +0.000 A 
ATOM     26  C   UNL     1       5.486   4.215  -7.366  0.00  0.00    +0.000 A 
BRANCH  26  27
ATOM     27  C   UNL     1       5.051   5.442  -6.671  0.00  0.00    +0.000 A 
ATOM     28  C   UNL     1       4.471   6.610  -7.137  0.00  0.00    +0.000 A 
ATOM     29  C   UNL     1       4.316   7.435  -6.008  0.00  0.00    +0.000 A 
ATOM     30  N   UNL     1       4.787   6.868  -4.899  0.00  0.00    +0.000 NA
ATOM     31  N   UNL     1       5.176   5.651  -5.315  0.00  0.00    +0.000 N 
ATOM     32  H   UNL     1       5.508   4.997  -4.616  0.00  0.00    +0.000 HD
ENDBRANCH  26  27
ENDBRANCH  18  21
ENDBRANCH   4  17
TORSDOF 5
