REMARK  Name = 
REMARK  4 active torsions:
REMARK  status: ('A' for Active; 'I' for Inactive)
REMARK    1  A    between atoms: C_2  and  C_24
REMARK    2  A    between atoms: N_3  and  C_4
REMARK    3  A    between atoms: C_8  and  N_9
REMARK    4  A    between atoms: C_10  and  C_12
REMARK                            x       y       z     vdW  Elec       q    Type
REMARK                         _______ _______ _______ _____ _____    ______ ____
ROOT
ATOM      1  C   UNL     1       2.111  -2.471  -0.294  0.00  0.00    +0.000 A 
ATOM      2  C   UNL     1       0.996  -2.480  -1.134  0.00  0.00    +0.000 A 
ATOM      3  C   UNL     1       0.374  -3.675  -1.472  0.00  0.00    +0.000 A 
ATOM      4  C   UNL     1       0.892  -4.880  -1.013  0.00  0.00    +0.000 A 
ATOM      5  C   UNL     1       2.060  -4.914  -0.245  0.00  0.00    +0.000 A 
ATOM      6  C   UNL     1       2.651  -3.697   0.137  0.00  0.00    +0.000 A 
ENDROOT
BRANCH   1   9
ATOM      7  O   UNL     1       1.062   0.269  -0.409  0.00  0.00    +0.000 OA
ATOM      8  C   UNL     1       2.173  -0.001   0.044  0.00  0.00    +0.000 C 
ATOM      9  N   UNL     1       2.723  -1.268   0.132  0.00  0.00    +0.000 N 
ATOM     10  H   UNL     1       3.580  -1.361   0.657  0.00  0.00    +0.000 HD
BRANCH   8  11
ATOM     11  C   UNL     1       2.994   1.065   0.565  0.00  0.00    +0.000 A 
ATOM     12  C   UNL     1       4.303   1.152   0.984  0.00  0.00    +0.000 A 
ATOM     13  C   UNL     1       4.460   2.489   1.384  0.00  0.00    +0.000 A 
ATOM     14  F   UNL     1       5.572   2.977   1.853  0.00  0.00    +0.000 F 
ATOM     15  N   UNL     1       3.354   3.214   1.237  0.00  0.00    +0.000 NA
ATOM     16  N   UNL     1       2.481   2.332   0.717  0.00  0.00    +0.000 N 
ATOM     17  H   UNL     1       1.541   2.638   0.494  0.00  0.00    +0.000 HD
ENDBRANCH   8  11
ENDBRANCH   1   9
BRANCH   5  18
ATOM     18  N   UNL     1       2.664  -6.133   0.155  0.00  0.00    +0.000 N 
ATOM     19  C   UNL     1       2.409  -7.370  -0.421  0.00  0.00    +0.000 C 
ATOM     20  O   UNL     1       1.657  -7.564  -1.374  0.00  0.00    +0.000 OA
ATOM     21  H   UNL     1       3.408  -6.076   0.843  0.00  0.00    +0.000 HD
BRANCH  19  22
ATOM     22  C   UNL     1       3.088  -8.569   0.141  0.00  0.00    +0.000 A 
ATOM     23  C   UNL     1       2.846  -9.803  -0.486  0.00  0.00    +0.000 A 
ATOM     24  C   UNL     1       3.271 -11.005   0.096  0.00  0.00    +0.000 A 
ATOM     25  C   UNL     1       3.047 -12.246  -0.501  0.00  0.00    +0.000 A 
ATOM     26  N   UNL     1       3.205 -13.427   0.132  0.00  0.00    +0.000 NA
ATOM     27  C   UNL     1       3.649 -13.373   1.403  0.00  0.00    +0.000 A 
ATOM     28  C   UNL     1       4.065 -12.204   2.026  0.00  0.00    +0.000 A 
ATOM     29  C   UNL     1       3.893 -10.986   1.355  0.00  0.00    +0.000 A 
ATOM     30  C   UNL     1       4.273  -9.745   1.900  0.00  0.00    +0.000 A 
ATOM     31  C   UNL     1       3.877  -8.552   1.287  0.00  0.00    +0.000 A 
ATOM     32  F   UNL     1       4.247  -7.391   1.850  0.00  0.00    +0.000 F 
ENDBRANCH  19  22
ENDBRANCH   5  18
TORSDOF 4
