REMARK  Name = 
REMARK  6 active torsions:
REMARK  status: ('A' for Active; 'I' for Inactive)
REMARK    1  A    between atoms: C_2  and  O_3
REMARK    2  A    between atoms: C_2  and  C_18
REMARK    3  A    between atoms: O_3  and  C_4
REMARK    4  A    between atoms: C_4  and  C_5
REMARK    5  A    between atoms: C_7  and  C_8
REMARK    6  A    between atoms: C_8  and  C_9
REMARK                            x       y       z     vdW  Elec       q    Type
REMARK                         _______ _______ _______ _____ _____    ______ ____
ROOT
ATOM      1  O   UNL     1       3.394  -0.844  -1.140  0.00  0.00    +0.000 OA
ENDROOT
BRANCH   1   3
ATOM      2  O   UNL     1       3.573   0.098  -3.225  0.00  0.00    +0.000 OA
ATOM      3  C   UNL     1       2.929  -0.169  -2.221  0.00  0.00    +0.000 C 
BRANCH   3   4
ATOM      4  C   UNL     1       1.503   0.231  -2.021  0.00  0.00    +0.000 A 
ATOM      5  C   UNL     1       0.877   0.990  -3.001  0.00  0.00    +0.000 A 
ATOM      6  C   UNL     1      -0.467   1.306  -2.831  0.00  0.00    +0.000 A 
ATOM      7  C   UNL     1      -1.159   0.807  -1.721  0.00  0.00    +0.000 A 
ATOM      8  C   UNL     1      -2.543   0.993  -1.574  0.00  0.00    +0.000 A 
ATOM      9  C   UNL     1      -3.203   0.393  -0.510  0.00  0.00    +0.000 A 
ATOM     10  F   UNL     1      -4.535   0.495  -0.420  0.00  0.00    +0.000 F 
ATOM     11  C   UNL     1      -2.490  -0.334   0.432  0.00  0.00    +0.000 A 
ATOM     12  F   UNL     1      -3.130  -0.931   1.446  0.00  0.00    +0.000 F 
ATOM     13  C   UNL     1      -1.112  -0.478   0.318  0.00  0.00    +0.000 A 
ATOM     14  C   UNL     1      -0.433   0.056  -0.765  0.00  0.00    +0.000 A 
ATOM     15  N   UNL     1       0.874  -0.200  -0.895  0.00  0.00    +0.000 NA
ENDBRANCH   3   4
ENDBRANCH   1   3
BRANCH   1  16
ATOM     16  C   UNL     1       4.765  -1.258  -1.222  0.00  0.00    +0.000 C 
BRANCH  16  17
ATOM     17  C   UNL     1       4.860  -2.558  -1.933  0.00  0.00    +0.000 A 
ATOM     18  N   UNL     1       3.954  -3.484  -2.160  0.00  0.00    +0.000 NA
ATOM     19  C   UNL     1       4.680  -4.440  -2.834  0.00  0.00    +0.000 A 
ATOM     20  N   UNL     1       5.964  -4.126  -3.038  0.00  0.00    +0.000 NA
ATOM     21  O   UNL     1       6.092  -2.875  -2.425  0.00  0.00    +0.000 OA
BRANCH  19  22
ATOM     22  C   UNL     1       4.059  -5.669  -3.383  0.00  0.00    +0.000 C 
BRANCH  22  23
ATOM     23  C   UNL     1       4.147  -6.732  -2.312  0.00  0.00    +0.000 A 
ATOM     24  C   UNL     1       3.122  -6.885  -1.370  0.00  0.00    +0.000 A 
ATOM     25  C   UNL     1       3.193  -7.901  -0.420  0.00  0.00    +0.000 A 
ATOM     26  F   UNL     1       2.199  -8.048   0.465  0.00  0.00    +0.000 F 
ATOM     27  C   UNL     1       4.272  -8.775  -0.383  0.00  0.00    +0.000 A 
ATOM     28  C   UNL     1       5.309  -8.622  -1.301  0.00  0.00    +0.000 A 
ATOM     29  C   UNL     1       5.249  -7.605  -2.261  0.00  0.00    +0.000 A 
ENDBRANCH  22  23
ENDBRANCH  19  22
ENDBRANCH  16  17
ENDBRANCH   1  16
TORSDOF 6
