REMARK  Name = 
REMARK  6 active torsions:
REMARK  status: ('A' for Active; 'I' for Inactive)
REMARK    1  A    between atoms: C_2  and  C_23
REMARK    2  A    between atoms: N_3  and  C_4
REMARK    3  A    between atoms: C_9  and  N_10
REMARK    4  A    between atoms: C_11  and  C_13
REMARK    5  A    between atoms: C_25  and  C_26
REMARK    6  A    between atoms: C_26  and  O_27
REMARK                            x       y       z     vdW  Elec       q    Type
REMARK                         _______ _______ _______ _____ _____    ______ ____
ROOT
ATOM      1  C   UNL     1       2.344   1.780   1.292  0.00  0.00    +0.000 A 
ATOM      2  C   UNL     1       1.238   1.692   2.153  0.00  0.00    +0.000 A 
ATOM      3  C   UNL     1       0.866   2.783   2.937  0.00  0.00    +0.000 A 
ATOM      4  C   UNL     1       1.577   3.973   2.841  0.00  0.00    +0.000 A 
ATOM      5  C   UNL     1       2.656   4.077   1.960  0.00  0.00    +0.000 A 
ATOM      6  C   UNL     1       3.058   2.990   1.173  0.00  0.00    +0.000 A 
ENDROOT
BRANCH   1   9
ATOM      7  O   UNL     1       0.845  -0.442   0.077  0.00  0.00    +0.000 OA
ATOM      8  C   UNL     1       2.064  -0.415   0.185  0.00  0.00    +0.000 C 
ATOM      9  N   UNL     1       2.832   0.632   0.644  0.00  0.00    +0.000 N 
ATOM     10  H   UNL     1       3.822   0.619   0.447  0.00  0.00    +0.000 HD
BRANCH   8  11
ATOM     11  C   UNL     1       2.859  -1.562  -0.288  0.00  0.00    +0.000 A 
ATOM     12  C   UNL     1       3.950  -2.031   0.444  0.00  0.00    +0.000 A 
ATOM     13  C   UNL     1       4.719  -3.083  -0.060  0.00  0.00    +0.000 A 
ATOM     14  C   UNL     1       4.318  -3.639  -1.272  0.00  0.00    +0.000 A 
ATOM     15  N   UNL     1       3.256  -3.209  -1.996  0.00  0.00    +0.000 NA
ATOM     16  C   UNL     1       2.538  -2.183  -1.483  0.00  0.00    +0.000 A 
BRANCH  13  17
ATOM     17  C   UNL     1       5.881  -3.647   0.701  0.00  0.00    +0.000 C 
BRANCH  17  18
ATOM     18  O   UNL     1       6.542  -2.632   1.447  0.00  0.00    +0.000 OA
ATOM     19  H   UNL     1       6.877  -1.978   0.810  0.00  0.00    +0.000 HD
ENDBRANCH  17  18
ENDBRANCH  13  17
ENDBRANCH   8  11
ENDBRANCH   1   9
BRANCH   6  20
ATOM     20  N   UNL     1       4.135   3.064   0.244  0.00  0.00    +0.000 N 
ATOM     21  C   UNL     1       4.990   4.137   0.068  0.00  0.00    +0.000 C 
ATOM     22  O   UNL     1       4.909   5.223   0.626  0.00  0.00    +0.000 OA
ATOM     23  H   UNL     1       4.293   2.287  -0.380  0.00  0.00    +0.000 HD
BRANCH  21  24
ATOM     24  C   UNL     1       6.151   3.904  -0.854  0.00  0.00    +0.000 A 
ATOM     25  C   UNL     1       7.111   4.907  -0.913  0.00  0.00    +0.000 A 
ATOM     26  C   UNL     1       8.277   4.666  -1.615  0.00  0.00    +0.000 A 
ATOM     27  C   UNL     1       8.417   3.471  -2.316  0.00  0.00    +0.000 A 
ATOM     28  C   UNL     1       9.568   3.246  -3.086  0.00  0.00    +0.000 A 
ATOM     29  C   UNL     1       9.676   2.097  -3.859  0.00  0.00    +0.000 A 
ATOM     30  C   UNL     1       8.649   1.161  -3.835  0.00  0.00    +0.000 A 
ATOM     31  C   UNL     1       7.519   1.371  -3.029  0.00  0.00    +0.000 A 
ATOM     32  C   UNL     1       7.365   2.520  -2.258  0.00  0.00    +0.000 A 
ATOM     33  N   UNL     1       6.252   2.709  -1.504  0.00  0.00    +0.000 NA
ENDBRANCH  21  24
ENDBRANCH   6  20
TORSDOF 6
