REMARK  Name = 
REMARK  6 active torsions:
REMARK  status: ('A' for Active; 'I' for Inactive)
REMARK    1  A    between atoms: C_2  and  C_3
REMARK    2  A    between atoms: C_3  and  N_4
REMARK    3  A    between atoms: C_5  and  C_7
REMARK    4  A    between atoms: N_16  and  C_17
REMARK    5  A    between atoms: C_17  and  C_18
REMARK    6  A    between atoms: C_23  and  C_24
REMARK                            x       y       z     vdW  Elec       q    Type
REMARK                         _______ _______ _______ _____ _____    ______ ____
ROOT
ATOM      1  O   UNL     1       2.820   0.305  -1.014  0.00  0.00    +0.000 OA
ATOM      2  C   UNL     1       2.267   0.066   0.059  0.00  0.00    +0.000 C 
ATOM      3  N   UNL     1       2.948  -0.053   1.248  0.00  0.00    +0.000 N 
ATOM      4  H   UNL     1       2.443   0.115   2.117  0.00  0.00    +0.000 HD
ENDROOT
BRANCH   2   5
ATOM      5  C   UNL     1       0.748  -0.025   0.186  0.00  0.00    +0.000 C 
BRANCH   5   6
ATOM      6  N   UNL     1       0.155   1.297   0.289  0.00  0.00    +0.000 N 
ATOM      7  C   UNL     1      -0.027   1.885   1.528  0.00  0.00    +0.000 C 
ATOM      8  O   UNL     1       0.300   1.315   2.567  0.00  0.00    +0.000 OA
ATOM      9  H   UNL     1       0.146   1.875  -0.539  0.00  0.00    +0.000 HD
BRANCH   7  10
ATOM     10  C   UNL     1      -0.634   3.242   1.543  0.00  0.00    +0.000 A 
ATOM     11  C   UNL     1      -1.542   3.643   0.542  0.00  0.00    +0.000 A 
ATOM     12  C   UNL     1      -2.138   4.904   0.578  0.00  0.00    +0.000 A 
ATOM     13  C   UNL     1      -1.859   5.804   1.608  0.00  0.00    +0.000 A 
ATOM     14  C   UNL     1      -0.962   5.394   2.607  0.00  0.00    +0.000 A 
ATOM     15  C   UNL     1      -0.350   4.137   2.604  0.00  0.00    +0.000 A 
ATOM     16  C   UNL     1       0.472   4.092   3.771  0.00  0.00    +0.000 A 
ATOM     17  C   UNL     1       0.337   5.287   4.439  0.00  0.00    +0.000 A 
ATOM     18  N   UNL     1      -0.531   6.066   3.726  0.00  0.00    +0.000 N 
ATOM     19  H   UNL     1      -0.821   7.000   3.983  0.00  0.00    +0.000 HD
ENDBRANCH   7  10
ENDBRANCH   5   6
ENDBRANCH   2   5
BRANCH   3  20
ATOM     20  C   UNL     1       4.381   0.168   1.303  0.00  0.00    +0.000 C 
BRANCH  20  21
ATOM     21  C   UNL     1       4.941   0.159   2.713  0.00  0.00    +0.000 A 
ATOM     22  N   UNL     1       3.981   0.082   3.692  0.00  0.00    +0.000 NA
ATOM     23  C   UNL     1       4.372   0.055   4.979  0.00  0.00    +0.000 A 
ATOM     24  C   UNL     1       5.690   0.112   5.365  0.00  0.00    +0.000 A 
ATOM     25  C   UNL     1       6.660   0.211   4.370  0.00  0.00    +0.000 A 
ATOM     26  C   UNL     1       6.326   0.235   2.997  0.00  0.00    +0.000 A 
BRANCH  26  27
ATOM     27  C   UNL     1       7.425   0.316   1.986  0.00  0.00    +0.000 A 
ATOM     28  C   UNL     1       8.658  -0.342   2.200  0.00  0.00    +0.000 A 
ATOM     29  C   UNL     1       9.708  -0.273   1.275  0.00  0.00    +0.000 A 
ATOM     30  C   UNL     1       9.533   0.428   0.093  0.00  0.00    +0.000 A 
ATOM     31  F   UNL     1      10.523   0.476  -0.806  0.00  0.00    +0.000 F 
ATOM     32  C   UNL     1       8.346   1.093  -0.156  0.00  0.00    +0.000 A 
ATOM     33  C   UNL     1       7.321   1.065   0.798  0.00  0.00    +0.000 A 
ENDBRANCH  26  27
ENDBRANCH  20  21
ENDBRANCH   3  20
TORSDOF 6
