REMARK  Name = 
REMARK  6 active torsions:
REMARK  status: ('A' for Active; 'I' for Inactive)
REMARK    1  A    between atoms: C_2  and  C_3
REMARK    2  A    between atoms: C_6  and  C_7
REMARK    3  A    between atoms: C_11  and  C_12
REMARK    4  A    between atoms: C_12  and  O_13
REMARK    5  A    between atoms: O_13  and  C_14
REMARK    6  A    between atoms: C_14  and  C_16
REMARK                            x       y       z     vdW  Elec       q    Type
REMARK                         _______ _______ _______ _____ _____    ______ ____
ROOT
ATOM      1  C   UNL     1       3.884  -0.109   0.027  0.00  0.00    +0.000 A 
ATOM      2  C   UNL     1       4.640   0.400   1.098  0.00  0.00    +0.000 A 
ATOM      3  C   UNL     1       6.010   0.150   1.212  0.00  0.00    +0.000 A 
ATOM      4  C   UNL     1       6.648  -0.662   0.281  0.00  0.00    +0.000 A 
ATOM      5  C   UNL     1       5.922  -1.215  -0.777  0.00  0.00    +0.000 A 
ATOM      6  C   UNL     1       4.566  -0.892  -0.921  0.00  0.00    +0.000 A 
ENDROOT
BRANCH   1  10
ATOM      7  C   UNL     1      -0.373   0.546  -0.252  0.00  0.00    +0.000 A 
ATOM      8  C   UNL     1       0.193  -0.613  -0.782  0.00  0.00    +0.000 A 
ATOM      9  C   UNL     1       1.573  -0.818  -0.689  0.00  0.00    +0.000 A 
ATOM     10  C   UNL     1       2.426   0.127  -0.080  0.00  0.00    +0.000 A 
ATOM     11  C   UNL     1       1.828   1.288   0.438  0.00  0.00    +0.000 A 
ATOM     12  C   UNL     1       0.451   1.484   0.357  0.00  0.00    +0.000 A 
ATOM     13  F   UNL     1      -0.067   2.602   0.887  0.00  0.00    +0.000 F 
BRANCH   7  15
ATOM     14  N   UNL     1      -2.930   0.913  -0.410  0.00  0.00    +0.000 NA
ATOM     15  C   UNL     1      -1.779   0.765  -0.331  0.00  0.00    +0.000 C 
ENDBRANCH   7  15
ENDBRANCH   1  10
BRANCH   5  16
ATOM     16  C   UNL     1       6.559  -2.199  -1.721  0.00  0.00    +0.000 C 
BRANCH  16  17
ATOM     17  O   UNL     1       7.706  -1.629  -2.343  0.00  0.00    +0.000 OA
BRANCH  17  18
ATOM     18  C   UNL     1       7.480  -0.901  -3.458  0.00  0.00    +0.000 C 
ATOM     19  O   UNL     1       6.389  -0.661  -3.954  0.00  0.00    +0.000 OA
BRANCH  18  20
ATOM     20  C   UNL     1       8.762  -0.390  -3.979  0.00  0.00    +0.000 A 
ATOM     21  C   UNL     1       8.758   0.693  -4.784  0.00  0.00    +0.000 A 
ATOM     22  C   UNL     1       9.989   1.268  -5.299  0.00  0.00    +0.000 A 
ATOM     23  C   UNL     1      11.168   0.718  -4.976  0.00  0.00    +0.000 A 
ATOM     24  N   UNL     1      11.184  -0.385  -4.170  0.00  0.00    +0.000 N 
ATOM     25  C   UNL     1      12.262  -1.111  -3.729  0.00  0.00    +0.000 A 
ATOM     26  O   UNL     1      13.449  -0.927  -3.941  0.00  0.00    +0.000 OA
ATOM     27  N   UNL     1      11.711  -2.137  -2.961  0.00  0.00    +0.000 N 
ATOM     28  N   UNL     1      10.344  -2.044  -2.932  0.00  0.00    +0.000 NA
ATOM     29  C   UNL     1      10.079  -0.993  -3.651  0.00  0.00    +0.000 A 
ATOM     30  H   UNL     1      12.220  -2.860  -2.472  0.00  0.00    +0.000 HD
ENDBRANCH  18  20
ENDBRANCH  17  18
ENDBRANCH  16  17
ENDBRANCH   5  16
TORSDOF 6
