REMARK  Name = 
REMARK  5 active torsions:
REMARK  status: ('A' for Active; 'I' for Inactive)
REMARK    1  A    between atoms: C_2  and  C_18
REMARK    2  A    between atoms: N_3  and  C_4
REMARK    3  A    between atoms: C_4  and  C_5
REMARK    4  A    between atoms: C_5  and  C_7
REMARK    5  A    between atoms: C_20  and  C_21
REMARK                            x       y       z     vdW  Elec       q    Type
REMARK                         _______ _______ _______ _____ _____    ______ ____
ROOT
ATOM      1  O   UNL     1       1.098   0.190   0.051  0.00  0.00    +0.000 OA
ATOM      2  C   UNL     1       2.321   0.061   0.072  0.00  0.00    +0.000 C 
ATOM      3  N   UNL     1       3.015  -0.161   1.234  0.00  0.00    +0.000 N 
ATOM      4  H   UNL     1       4.030  -0.174   1.235  0.00  0.00    +0.000 HD
ENDROOT
BRANCH   2   5
ATOM      5  C   UNL     1       3.136   0.140  -1.122  0.00  0.00    +0.000 A 
ATOM      6  C   UNL     1       4.486  -0.094  -1.314  0.00  0.00    +0.000 A 
ATOM      7  C   UNL     1       4.804   0.126  -2.681  0.00  0.00    +0.000 A 
ATOM      8  C   UNL     1       3.626   0.501  -3.297  0.00  0.00    +0.000 A 
ATOM      9  N   UNL     1       2.625   0.485  -2.357  0.00  0.00    +0.000 N 
ATOM     10  H   UNL     1       1.651   0.705  -2.527  0.00  0.00    +0.000 HD
BRANCH   7  11
ATOM     11  C   UNL     1       6.094  -0.022  -3.339  0.00  0.00    +0.000 A 
ATOM     12  C   UNL     1       6.188  -0.352  -4.687  0.00  0.00    +0.000 A 
ATOM     13  C   UNL     1       7.448  -0.540  -5.246  0.00  0.00    +0.000 A 
ATOM     14  C   UNL     1       8.575  -0.389  -4.448  0.00  0.00    +0.000 A 
ATOM     15  C   UNL     1       8.393  -0.054  -3.116  0.00  0.00    +0.000 A 
ATOM     16  N   UNL     1       7.183   0.124  -2.543  0.00  0.00    +0.000 NA
ENDBRANCH   7  11
ENDBRANCH   2   5
BRANCH   3  17
ATOM     17  C   UNL     1       2.350  -0.255   2.516  0.00  0.00    +0.000 C 
BRANCH  17  18
ATOM     18  C   UNL     1       3.355  -0.573   3.626  0.00  0.00    +0.000 C 
ATOM     19  O   UNL     1       4.540  -0.773   3.365  0.00  0.00    +0.000 OA
BRANCH  18  20
ATOM     20  C   UNL     1       2.847  -0.641   5.045  0.00  0.00    +0.000 A 
ATOM     21  C   UNL     1       1.519  -1.063   5.253  0.00  0.00    +0.000 A 
ATOM     22  C   UNL     1       1.006  -1.182   6.542  0.00  0.00    +0.000 A 
ATOM     23  C   UNL     1       1.809  -0.882   7.632  0.00  0.00    +0.000 A 
ATOM     24  F   UNL     1       1.282  -1.013   8.860  0.00  0.00    +0.000 F 
ATOM     25  C   UNL     1       3.135  -0.456   7.475  0.00  0.00    +0.000 A 
ATOM     26  C   UNL     1       3.917  -0.164   8.608  0.00  0.00    +0.000 A 
ATOM     27  C   UNL     1       5.238   0.258   8.483  0.00  0.00    +0.000 A 
ATOM     28  C   UNL     1       5.790   0.403   7.221  0.00  0.00    +0.000 A 
ATOM     29  C   UNL     1       5.024   0.123   6.085  0.00  0.00    +0.000 A 
ATOM     30  C   UNL     1       3.681  -0.326   6.166  0.00  0.00    +0.000 A 
ENDBRANCH  18  20
ENDBRANCH  17  18
ENDBRANCH   3  17
TORSDOF 5
