REMARK  Name = 
REMARK  3 active torsions:
REMARK  status: ('A' for Active; 'I' for Inactive)
REMARK    1  A    between atoms: C_2  and  C_15
REMARK    2  A    between atoms: N_6  and  C_7
REMARK    3  A    between atoms: N_21  and  C_22
REMARK                            x       y       z     vdW  Elec       q    Type
REMARK                         _______ _______ _______ _____ _____    ______ ____
ROOT
ATOM      1  C   UNL     1       2.816   0.685  -1.076  0.00  0.00    +0.000 A 
ATOM      2  C   UNL     1       2.470   1.889  -1.716  0.00  0.00    +0.000 A 
ATOM      3  C   UNL     1       3.172   2.314  -2.840  0.00  0.00    +0.000 A 
ATOM      4  C   UNL     1       4.207   1.522  -3.287  0.00  0.00    +0.000 A 
ATOM      5  N   UNL     1       4.584   0.386  -2.673  0.00  0.00    +0.000 NA
ATOM      6  C   UNL     1       3.941  -0.013  -1.540  0.00  0.00    +0.000 A 
ATOM      7  N   UNL     1       4.396  -1.212  -0.941  0.00  0.00    +0.000 N 
ATOM      8  H   UNL     1       4.070  -1.274   0.030  0.00  0.00    +0.000 HD
ENDROOT
BRANCH   1  10
ATOM      9  O   UNL     1       2.585  -0.480   0.941  0.00  0.00    +0.000 OA
ATOM     10  C   UNL     1       2.015   0.194   0.089  0.00  0.00    +0.000 C 
ATOM     11  N   UNL     1       0.675   0.539   0.048  0.00  0.00    +0.000 N 
ATOM     12  C   UNL     1      -0.272   0.280   1.018  0.00  0.00    +0.000 A 
ATOM     13  N   UNL     1      -0.057  -0.307   2.191  0.00  0.00    +0.000 NA
ATOM     14  N   UNL     1      -1.256  -0.325   2.822  0.00  0.00    +0.000 N 
ATOM     15  C   UNL     1      -2.242   0.231   2.034  0.00  0.00    +0.000 A 
ATOM     16  C   UNL     1      -1.631   0.646   0.878  0.00  0.00    +0.000 A 
ATOM     17  H   UNL     1       0.310   0.982  -0.781  0.00  0.00    +0.000 HD
BRANCH  14  18
ATOM     18  C   UNL     1      -1.382  -0.843   4.141  0.00  0.00    +0.000 A 
ATOM     19  C   UNL     1      -0.250  -1.331   4.797  0.00  0.00    +0.000 A 
ATOM     20  C   UNL     1      -0.397  -1.798   6.092  0.00  0.00    +0.000 A 
ATOM     21  N   UNL     1      -1.570  -1.814   6.759  0.00  0.00    +0.000 NA
ATOM     22  C   UNL     1      -2.650  -1.344   6.100  0.00  0.00    +0.000 A 
ATOM     23  C   UNL     1      -2.612  -0.858   4.803  0.00  0.00    +0.000 A 
ENDBRANCH  14  18
ENDBRANCH   1  10
BRANCH   7  24
ATOM     24  C   UNL     1       5.733  -1.679  -1.071  0.00  0.00    +0.000 A 
ATOM     25  C   UNL     1       6.860  -0.835  -1.110  0.00  0.00    +0.000 A 
ATOM     26  F   UNL     1       6.737   0.490  -0.921  0.00  0.00    +0.000 F 
ATOM     27  C   UNL     1       8.131  -1.357  -1.334  0.00  0.00    +0.000 A 
ATOM     28  F   UNL     1       9.190  -0.539  -1.425  0.00  0.00    +0.000 F 
ATOM     29  C   UNL     1       8.322  -2.726  -1.472  0.00  0.00    +0.000 A 
ATOM     30  C   UNL     1       7.231  -3.584  -1.347  0.00  0.00    +0.000 A 
ATOM     31  C   UNL     1       5.949  -3.064  -1.128  0.00  0.00    +0.000 A 
ENDBRANCH   7  24
TORSDOF 3
