REMARK  Name = 
REMARK  5 active torsions:
REMARK  status: ('A' for Active; 'I' for Inactive)
REMARK    1  A    between atoms: C_2  and  C_4
REMARK    2  A    between atoms: C_4  and  N_5
REMARK    3  A    between atoms: C_4  and  C_19
REMARK    4  A    between atoms: C_6  and  C_8
REMARK    5  A    between atoms: C_9  and  O_10
REMARK                            x       y       z     vdW  Elec       q    Type
REMARK                         _______ _______ _______ _____ _____    ______ ____
ROOT
ATOM      1  C   UNL     1       3.234   0.786   1.011  0.00  0.00    +0.000 C 
ENDROOT
BRANCH   1   2
ATOM      2  C   UNL     1       4.744   0.630   0.894  0.00  0.00    +0.000 A 
ATOM      3  C   UNL     1       5.571   1.697   1.276  0.00  0.00    +0.000 A 
ATOM      4  C   UNL     1       6.961   1.565   1.257  0.00  0.00    +0.000 A 
ATOM      5  C   UNL     1       7.563   0.362   0.860  0.00  0.00    +0.000 A 
ATOM      6  C   UNL     1       8.959   0.205   0.864  0.00  0.00    +0.000 A 
ATOM      7  C   UNL     1       9.542  -1.000   0.471  0.00  0.00    +0.000 A 
ATOM      8  C   UNL     1       8.739  -2.059   0.058  0.00  0.00    +0.000 A 
ATOM      9  C   UNL     1       7.350  -1.919   0.051  0.00  0.00    +0.000 A 
ATOM     10  C   UNL     1       6.747  -0.718   0.458  0.00  0.00    +0.000 A 
ATOM     11  C   UNL     1       5.348  -0.572   0.488  0.00  0.00    +0.000 A 
ENDBRANCH   1   2
BRANCH   1  13
ATOM     12  N   UNL     1       2.294   0.474  -1.254  0.00  0.00    +0.000 N 
ATOM     13  C   UNL     1       2.456  -0.076  -0.011  0.00  0.00    +0.000 C 
ATOM     14  O   UNL     1       2.057  -1.217   0.219  0.00  0.00    +0.000 OA
ATOM     15  H   UNL     1       1.804  -0.068  -1.954  0.00  0.00    +0.000 HD
ATOM     16  H   UNL     1       2.613   1.403  -1.493  0.00  0.00    +0.000 HD
ENDBRANCH   1  13
BRANCH   1  17
ATOM     17  N   UNL     1       2.830   0.446   2.372  0.00  0.00    +0.000 N 
ATOM     18  C   UNL     1       1.798   1.129   2.997  0.00  0.00    +0.000 C 
ATOM     19  O   UNL     1       1.239   2.072   2.460  0.00  0.00    +0.000 OA
ATOM     20  H   UNL     1       3.024  -0.506   2.673  0.00  0.00    +0.000 HD
BRANCH  18  21
ATOM     21  C   UNL     1       1.468   0.691   4.397  0.00  0.00    +0.000 A 
ATOM     22  C   UNL     1       2.498   0.210   5.230  0.00  0.00    +0.000 A 
ATOM     23  C   UNL     1       2.244  -0.160   6.546  0.00  0.00    +0.000 A 
ATOM     24  C   UNL     1       0.962  -0.017   7.069  0.00  0.00    +0.000 A 
ATOM     25  C   UNL     1      -0.087   0.471   6.282  0.00  0.00    +0.000 A 
ATOM     26  C   UNL     1      -1.364   0.601   6.851  0.00  0.00    +0.000 A 
ATOM     27  C   UNL     1      -2.443   1.071   6.108  0.00  0.00    +0.000 A 
ATOM     28  C   UNL     1      -2.256   1.407   4.778  0.00  0.00    +0.000 A 
ATOM     29  C   UNL     1      -0.990   1.283   4.195  0.00  0.00    +0.000 A 
ATOM     30  C   UNL     1       0.142   0.824   4.922  0.00  0.00    +0.000 A 
BRANCH  22  31
ATOM     31  O   UNL     1       3.811   0.094   4.852  0.00  0.00    +0.000 OA
ATOM     32  H   UNL     1       3.963   0.629   4.050  0.00  0.00    +0.000 HD
ENDBRANCH  22  31
ENDBRANCH  18  21
ENDBRANCH   1  17
TORSDOF 5
