REMARK  Name = 
REMARK  5 active torsions:
REMARK  status: ('A' for Active; 'I' for Inactive)
REMARK    1  A    between atoms: C_2  and  C_17
REMARK    2  A    between atoms: N_3  and  C_4
REMARK    3  A    between atoms: C_4  and  C_5
REMARK    4  A    between atoms: C_8  and  C_9
REMARK    5  A    between atoms: C_26  and  O_27
REMARK                            x       y       z     vdW  Elec       q    Type
REMARK                         _______ _______ _______ _____ _____    ______ ____
ROOT
ATOM      1  O   UNL     1       1.031  -0.132  -0.103  0.00  0.00    +0.000 OA
ATOM      2  C   UNL     1       2.253  -0.053  -0.041  0.00  0.00    +0.000 C 
ATOM      3  N   UNL     1       2.985   0.901  -0.704  0.00  0.00    +0.000 N 
ATOM      4  H   UNL     1       3.994   0.839  -0.706  0.00  0.00    +0.000 HD
ENDROOT
BRANCH   2   5
ATOM      5  C   UNL     1       3.079  -1.004   0.772  0.00  0.00    +0.000 A 
ATOM      6  C   UNL     1       2.439  -2.026   1.352  0.00  0.00    +0.000 A 
ATOM      7  C   UNL     1       3.195  -2.999   2.155  0.00  0.00    +0.000 A 
ATOM      8  O   UNL     1       2.593  -3.926   2.679  0.00  0.00    +0.000 OA
ATOM      9  C   UNL     1       4.653  -2.767   2.274  0.00  0.00    +0.000 A 
ATOM     10  C   UNL     1       5.185  -1.637   1.643  0.00  0.00    +0.000 A 
ATOM     11  C   UNL     1       6.547  -1.340   1.754  0.00  0.00    +0.000 A 
ATOM     12  C   UNL     1       7.387  -2.179   2.484  0.00  0.00    +0.000 A 
ATOM     13  C   UNL     1       6.870  -3.322   3.096  0.00  0.00    +0.000 A 
ATOM     14  C   UNL     1       5.508  -3.616   2.991  0.00  0.00    +0.000 A 
ATOM     15  O   UNL     1       4.438  -0.766   0.886  0.00  0.00    +0.000 OA
BRANCH  14  16
ATOM     16  O   UNL     1       5.033  -4.744   3.593  0.00  0.00    +0.000 OA
ATOM     17  H   UNL     1       5.756  -5.242   4.005  0.00  0.00    +0.000 HD
ENDBRANCH  14  16
ENDBRANCH   2   5
BRANCH   3  18
ATOM     18  C   UNL     1       2.355   1.876  -1.565  0.00  0.00    +0.000 C 
BRANCH  18  19
ATOM     19  C   UNL     1       2.240   1.328  -2.938  0.00  0.00    +0.000 A 
ATOM     20  C   UNL     1       1.262   0.586  -3.564  0.00  0.00    +0.000 A 
ATOM     21  C   UNL     1       1.702   0.385  -4.891  0.00  0.00    +0.000 A 
ATOM     22  C   UNL     1       2.921   1.028  -5.015  0.00  0.00    +0.000 A 
ATOM     23  O   UNL     1       3.256   1.594  -3.812  0.00  0.00    +0.000 OA
BRANCH  22  24
ATOM     24  C   UNL     1       3.848   1.232  -6.127  0.00  0.00    +0.000 A 
ATOM     25  C   UNL     1       5.061   1.909  -5.957  0.00  0.00    +0.000 A 
ATOM     26  C   UNL     1       5.901   2.128  -7.047  0.00  0.00    +0.000 A 
ATOM     27  F   UNL     1       7.053   2.789  -6.868  0.00  0.00    +0.000 F 
ATOM     28  C   UNL     1       5.565   1.683  -8.320  0.00  0.00    +0.000 A 
ATOM     29  C   UNL     1       4.370   0.993  -8.506  0.00  0.00    +0.000 A 
ATOM     30  C   UNL     1       3.522   0.769  -7.416  0.00  0.00    +0.000 A 
ENDBRANCH  22  24
ENDBRANCH  18  19
ENDBRANCH   3  18
TORSDOF 5
