REMARK  Name = 
REMARK  6 active torsions:
REMARK  status: ('A' for Active; 'I' for Inactive)
REMARK    1  A    between atoms: C_2  and  C_20
REMARK    2  A    between atoms: N_3  and  C_4
REMARK    3  A    between atoms: C_4  and  C_5
REMARK    4  A    between atoms: C_7  and  O_8
REMARK    5  A    between atoms: O_8  and  C_9
REMARK    6  A    between atoms: C_23  and  C_24
REMARK                            x       y       z     vdW  Elec       q    Type
REMARK                         _______ _______ _______ _____ _____    ______ ____
ROOT
ATOM      1  C   UNL     1       2.256  -2.200   1.048  0.00  0.00    +0.000 C 
ENDROOT
BRANCH   1   2
ATOM      2  C   UNL     1       3.271  -3.197   1.557  0.00  0.00    +0.000 A 
ATOM      3  C   UNL     1       3.683  -4.246   0.741  0.00  0.00    +0.000 A 
ATOM      4  C   UNL     1       4.554  -5.202   1.258  0.00  0.00    +0.000 A 
ATOM      5  C   UNL     1       5.064  -5.037   2.539  0.00  0.00    +0.000 A 
ATOM      6  C   UNL     1       4.635  -3.945   3.271  0.00  0.00    +0.000 A 
ATOM      7  N   UNL     1       3.746  -3.032   2.817  0.00  0.00    +0.000 NA
BRANCH   4   8
ATOM      8  O   UNL     1       4.995  -6.301   0.553  0.00  0.00    +0.000 OA
BRANCH   8   9
ATOM      9  C   UNL     1       4.137  -6.938  -0.319  0.00  0.00    +0.000 A 
ATOM     10  C   UNL     1       2.752  -7.030  -0.128  0.00  0.00    +0.000 A 
ATOM     11  C   UNL     1       1.952  -7.679  -1.070  0.00  0.00    +0.000 A 
ATOM     12  C   UNL     1       2.546  -8.282  -2.171  0.00  0.00    +0.000 A 
ATOM     13  F   UNL     1       1.776  -8.917  -3.065  0.00  0.00    +0.000 F 
ATOM     14  C   UNL     1       3.926  -8.236  -2.340  0.00  0.00    +0.000 A 
ATOM     15  F   UNL     1       4.495  -8.836  -3.393  0.00  0.00    +0.000 F 
ATOM     16  C   UNL     1       4.728  -7.568  -1.417  0.00  0.00    +0.000 A 
ENDBRANCH   8   9
ENDBRANCH   4   8
ENDBRANCH   1   2
BRANCH   1  19
ATOM     17  O   UNL     1       2.820  -2.144  -1.661  0.00  0.00    +0.000 OA
ATOM     18  C   UNL     1       3.104  -1.140  -1.004  0.00  0.00    +0.000 C 
ATOM     19  N   UNL     1       2.860  -1.087   0.346  0.00  0.00    +0.000 N 
ATOM     20  H   UNL     1       3.170  -0.288   0.883  0.00  0.00    +0.000 HD
BRANCH  18  21
ATOM     21  C   UNL     1       3.682   0.034  -1.622  0.00  0.00    +0.000 A 
ATOM     22  C   UNL     1       3.899   0.219  -2.972  0.00  0.00    +0.000 A 
ATOM     23  N   UNL     1       4.455   1.427  -3.336  0.00  0.00    +0.000 NA
ATOM     24  C   UNL     1       4.692   2.159  -2.261  0.00  0.00    +0.000 A 
ATOM     25  S   UNL     1       4.199   1.426  -0.774  0.00  0.00    +0.000 S 
BRANCH  24  26
ATOM     26  C   UNL     1       5.333   3.482  -2.298  0.00  0.00    +0.000 A 
ATOM     27  C   UNL     1       5.645   4.084  -3.516  0.00  0.00    +0.000 A 
ATOM     28  N   UNL     1       6.277   5.282  -3.612  0.00  0.00    +0.000 NA
ATOM     29  C   UNL     1       6.598   5.858  -2.434  0.00  0.00    +0.000 A 
ATOM     30  C   UNL     1       6.289   5.272  -1.218  0.00  0.00    +0.000 A 
ATOM     31  N   UNL     1       5.650   4.082  -1.119  0.00  0.00    +0.000 NA
ENDBRANCH  24  26
ENDBRANCH  18  21
ENDBRANCH   1  19
TORSDOF 6
