REMARK  Name = 
REMARK  5 active torsions:
REMARK  status: ('A' for Active; 'I' for Inactive)
REMARK    1  A    between atoms: C_2  and  C_23
REMARK    2  A    between atoms: N_3  and  C_4
REMARK    3  A    between atoms: C_6  and  N_7
REMARK    4  A    between atoms: C_8  and  C_10
REMARK    5  A    between atoms: C_16  and  C_17
REMARK                            x       y       z     vdW  Elec       q    Type
REMARK                         _______ _______ _______ _____ _____    ______ ____
ROOT
ATOM      1  C   UNL     1       2.283   1.117   2.105  0.00  0.00    +0.000 A 
ATOM      2  C   UNL     1       1.233   0.412   2.696  0.00  0.00    +0.000 A 
ATOM      3  C   UNL     1       0.660   0.813   3.902  0.00  0.00    +0.000 A 
ATOM      4  C   UNL     1       1.131   1.972   4.519  0.00  0.00    +0.000 A 
ATOM      5  C   UNL     1       2.219   2.660   3.969  0.00  0.00    +0.000 A 
ATOM      6  C   UNL     1       2.806   2.224   2.774  0.00  0.00    +0.000 A 
ENDROOT
BRANCH   1   9
ATOM      7  O   UNL     1       1.003  -0.443   0.003  0.00  0.00    +0.000 OA
ATOM      8  C   UNL     1       2.174  -0.080  -0.060  0.00  0.00    +0.000 C 
ATOM      9  N   UNL     1       2.827   0.730   0.858  0.00  0.00    +0.000 N 
ATOM     10  H   UNL     1       3.668   1.201   0.554  0.00  0.00    +0.000 HD
BRANCH   8  11
ATOM     11  C   UNL     1       2.992  -0.447  -1.255  0.00  0.00    +0.000 A 
ATOM     12  C   UNL     1       2.336  -0.810  -2.372  0.00  0.00    +0.000 A 
ATOM     13  C   UNL     1       3.067  -1.209  -3.548  0.00  0.00    +0.000 A 
ATOM     14  C   UNL     1       4.406  -1.232  -3.538  0.00  0.00    +0.000 A 
ATOM     15  C   UNL     1       5.138  -0.853  -2.301  0.00  0.00    +0.000 A 
ATOM     16  O   UNL     1       6.361  -0.888  -2.250  0.00  0.00    +0.000 OA
ATOM     17  N   UNL     1       4.367  -0.468  -1.230  0.00  0.00    +0.000 N 
ATOM     18  H   UNL     1       4.869  -0.299  -0.370  0.00  0.00    +0.000 HD
ENDBRANCH   8  11
ENDBRANCH   1   9
BRANCH   3  19
ATOM     19  N   UNL     1      -0.405   0.098   4.494  0.00  0.00    +0.000 N 
ATOM     20  C   UNL     1      -0.750  -1.214   4.196  0.00  0.00    +0.000 C 
ATOM     21  O   UNL     1      -0.112  -1.991   3.500  0.00  0.00    +0.000 OA
ATOM     22  H   UNL     1      -0.931   0.597   5.197  0.00  0.00    +0.000 HD
BRANCH  20  23
ATOM     23  C   UNL     1      -2.028  -1.700   4.782  0.00  0.00    +0.000 A 
ATOM     24  C   UNL     1      -2.384  -1.282   6.077  0.00  0.00    +0.000 A 
ATOM     25  C   UNL     1      -3.618  -1.637   6.615  0.00  0.00    +0.000 A 
ATOM     26  C   UNL     1      -4.492  -2.415   5.869  0.00  0.00    +0.000 A 
ATOM     27  C   UNL     1      -4.113  -2.879   4.611  0.00  0.00    +0.000 A 
ATOM     28  F   UNL     1      -4.986  -3.649   3.949  0.00  0.00    +0.000 F 
ATOM     29  C   UNL     1      -2.878  -2.554   4.046  0.00  0.00    +0.000 A 
BRANCH  29  30
ATOM     30  C   UNL     1      -2.481  -3.159   2.723  0.00  0.00    +0.000 C 
ATOM     31  F   UNL     1      -1.562  -4.155   2.866  0.00  0.00    +0.000 F 
ATOM     32  F   UNL     1      -3.518  -3.743   2.051  0.00  0.00    +0.000 F 
ENDBRANCH  29  30
ENDBRANCH  20  23
ENDBRANCH   3  19
TORSDOF 5
