REMARK  Name = 
REMARK  6 active torsions:
REMARK  status: ('A' for Active; 'I' for Inactive)
REMARK    1  A    between atoms: C_1  and  O_2
REMARK    2  A    between atoms: O_2  and  C_3
REMARK    3  A    between atoms: C_3  and  C_5
REMARK    4  A    between atoms: C_14  and  C_15
REMARK    5  A    between atoms: C_18  and  C_19
REMARK    6  A    between atoms: C_19  and  N_20
REMARK                            x       y       z     vdW  Elec       q    Type
REMARK                         _______ _______ _______ _____ _____    ______ ____
ROOT
ATOM      1  C   UNL     1       6.573  -1.974  -1.560  0.00  0.00    +0.000 A 
ATOM      2  C   UNL     1       7.235  -1.829  -0.334  0.00  0.00    +0.000 A 
ATOM      3  C   UNL     1       6.672  -1.064   0.678  0.00  0.00    +0.000 A 
ATOM      4  C   UNL     1       5.448  -0.448   0.518  0.00  0.00    +0.000 A 
ATOM      5  N   UNL     1       5.038   0.308   1.550  0.00  0.00    +0.000 NA
ATOM      6  C   UNL     1       3.847   0.929   1.457  0.00  0.00    +0.000 A 
ATOM      7  C   UNL     1       3.003   0.776   0.384  0.00  0.00    +0.000 A 
ATOM      8  C   UNL     1       3.431  -0.037  -0.667  0.00  0.00    +0.000 A 
ATOM      9  C   UNL     1       4.716  -0.639  -0.679  0.00  0.00    +0.000 A 
ATOM     10  C   UNL     1       5.292  -1.398  -1.778  0.00  0.00    +0.000 A 
ENDROOT
BRANCH  10  11
ATOM     11  C   UNL     1       4.575  -1.550  -3.094  0.00  0.00    +0.000 A 
ATOM     12  C   UNL     1       3.900  -0.472  -3.699  0.00  0.00    +0.000 A 
ATOM     13  C   UNL     1       3.170  -0.617  -4.886  0.00  0.00    +0.000 A 
ATOM     14  C   UNL     1       3.179  -1.826  -5.582  0.00  0.00    +0.000 A 
ATOM     15  C   UNL     1       3.908  -2.889  -5.045  0.00  0.00    +0.000 A 
ATOM     16  C   UNL     1       4.550  -2.766  -3.802  0.00  0.00    +0.000 A 
BRANCH  14  17
ATOM     17  C   UNL     1       2.423  -1.988  -6.879  0.00  0.00    +0.000 C 
BRANCH  17  18
ATOM     18  N   UNL     1       3.118  -1.450  -8.045  0.00  0.00    +0.000 N 
ATOM     19  C   UNL     1       2.921  -0.128  -8.413  0.00  0.00    +0.000 A 
ATOM     20  C   UNL     1       3.456   0.371  -9.534  0.00  0.00    +0.000 A 
ATOM     21  C   UNL     1       4.251  -0.474 -10.386  0.00  0.00    +0.000 A 
ATOM     22  C   UNL     1       4.498  -1.744 -10.043  0.00  0.00    +0.000 A 
ATOM     23  C   UNL     1       3.921  -2.313  -8.791  0.00  0.00    +0.000 A 
ATOM     24  O   UNL     1       4.144  -3.488  -8.512  0.00  0.00    +0.000 OA
ENDBRANCH  17  18
ENDBRANCH  14  17
ENDBRANCH  10  11
BRANCH   1  25
ATOM     25  C   UNL     1       7.350  -2.679  -2.614  0.00  0.00    +0.000 C 
ATOM     26  O   UNL     1       7.559  -2.247  -3.732  0.00  0.00    +0.000 OA
BRANCH  25  28
ATOM     27  C   UNL     1       8.512  -4.680  -3.033  0.00  0.00    +0.000 C 
ATOM     28  O   UNL     1       7.771  -3.869  -2.115  0.00  0.00    +0.000 OA
ENDBRANCH  25  28
ENDBRANCH   1  25
TORSDOF 5
