REMARK  Name = 
REMARK  6 active torsions:
REMARK  status: ('A' for Active; 'I' for Inactive)
REMARK    1  A    between atoms: C_2  and  C_15
REMARK    2  A    between atoms: N_3  and  C_4
REMARK    3  A    between atoms: C_4  and  C_5
REMARK    4  A    between atoms: C_19  and  O_20
REMARK    5  A    between atoms: O_20  and  C_21
REMARK    6  A    between atoms: C_21  and  C_22
REMARK                            x       y       z     vdW  Elec       q    Type
REMARK                         _______ _______ _______ _____ _____    ______ ____
ROOT
ATOM      1  O   UNL     1       1.252   0.674  -0.513  0.00  0.00    +0.000 OA
ATOM      2  C   UNL     1       2.224   0.061  -0.086  0.00  0.00    +0.000 C 
ATOM      3  N   UNL     1       2.666   0.158   1.210  0.00  0.00    +0.000 N 
ATOM      4  H   UNL     1       3.502  -0.325   1.509  0.00  0.00    +0.000 HD
ENDROOT
BRANCH   2   5
ATOM      5  C   UNL     1       3.001  -0.865  -0.966  0.00  0.00    +0.000 A 
ATOM      6  C   UNL     1       2.601  -0.966  -2.238  0.00  0.00    +0.000 A 
ATOM      7  C   UNL     1       3.302  -1.895  -3.147  0.00  0.00    +0.000 A 
ATOM      8  O   UNL     1       2.995  -1.934  -4.329  0.00  0.00    +0.000 OA
ATOM      9  C   UNL     1       4.359  -2.761  -2.530  0.00  0.00    +0.000 A 
ATOM     10  C   UNL     1       4.647  -2.529  -1.248  0.00  0.00    +0.000 A 
ATOM     11  O   UNL     1       4.056  -1.585  -0.438  0.00  0.00    +0.000 OA
BRANCH   9  12
ATOM     12  O   UNL     1       5.056  -3.747  -3.207  0.00  0.00    +0.000 OA
BRANCH  12  13
ATOM     13  C   UNL     1       4.381  -4.431  -4.265  0.00  0.00    +0.000 C 
BRANCH  13  14
ATOM     14  C   UNL     1       4.934  -5.837  -4.339  0.00  0.00    +0.000 A 
ATOM     15  C   UNL     1       4.092  -6.944  -4.156  0.00  0.00    +0.000 A 
ATOM     16  C   UNL     1       4.594  -8.243  -4.260  0.00  0.00    +0.000 A 
ATOM     17  C   UNL     1       5.942  -8.449  -4.550  0.00  0.00    +0.000 A 
ATOM     18  C   UNL     1       6.791  -7.359  -4.725  0.00  0.00    +0.000 A 
ATOM     19  C   UNL     1       6.292  -6.059  -4.617  0.00  0.00    +0.000 A 
ENDBRANCH  13  14
ENDBRANCH  12  13
ENDBRANCH   9  12
ENDBRANCH   2   5
BRANCH   3  20
ATOM     20  C   UNL     1       1.981   1.050   2.119  0.00  0.00    +0.000 C 
BRANCH  20  21
ATOM     21  C   UNL     1       2.093   0.544   3.516  0.00  0.00    +0.000 A 
ATOM     22  C   UNL     1       3.063   0.868   4.449  0.00  0.00    +0.000 A 
ATOM     23  N   UNL     1       2.824   0.155   5.594  0.00  0.00    +0.000 N 
ATOM     24  C   UNL     1       1.712  -0.639   5.437  0.00  0.00    +0.000 A 
ATOM     25  C   UNL     1       1.125  -1.555   6.324  0.00  0.00    +0.000 A 
ATOM     26  C   UNL     1      -0.011  -2.240   5.887  0.00  0.00    +0.000 A 
ATOM     27  C   UNL     1      -0.528  -2.007   4.621  0.00  0.00    +0.000 A 
ATOM     28  F   UNL     1      -1.619  -2.680   4.227  0.00  0.00    +0.000 F 
ATOM     29  C   UNL     1       0.061  -1.097   3.742  0.00  0.00    +0.000 A 
ATOM     30  C   UNL     1       1.215  -0.398   4.154  0.00  0.00    +0.000 A 
ATOM     31  H   UNL     1       3.397   0.175   6.427  0.00  0.00    +0.000 HD
ENDBRANCH  20  21
ENDBRANCH   3  20
TORSDOF 6
