REMARK  Name = 
REMARK  5 active torsions:
REMARK  status: ('A' for Active; 'I' for Inactive)
REMARK    1  A    between atoms: C_1  and  C_2
REMARK    2  A    between atoms: N_12  and  C_13
REMARK    3  A    between atoms: C_16  and  C_17
REMARK    4  A    between atoms: C_22  and  O_23
REMARK    5  A    between atoms: O_23  and  C_24
REMARK                            x       y       z     vdW  Elec       q    Type
REMARK                         _______ _______ _______ _____ _____    ______ ____
ROOT
ATOM      1  C   UNL     1       2.393  -2.468   0.018  0.00  0.00    +0.000 A 
ATOM      2  C   UNL     1       1.429  -2.685  -0.965  0.00  0.00    +0.000 A 
ATOM      3  C   UNL     1       0.596  -3.803  -0.899  0.00  0.00    +0.000 A 
ATOM      4  C   UNL     1       0.691  -4.724   0.160  0.00  0.00    +0.000 A 
ATOM      5  C   UNL     1       1.703  -4.513   1.113  0.00  0.00    +0.000 A 
ATOM      6  C   UNL     1       2.547  -3.401   1.046  0.00  0.00    +0.000 A 
ENDROOT
BRANCH   1  18
ATOM      7  C   UNL     1       5.250  -2.602  -0.334  0.00  0.00    +0.000 C 
ATOM      8  C   UNL     1       4.534  -1.287  -0.115  0.00  0.00    +0.000 A 
ATOM      9  N   UNL     1       5.273  -0.220  -0.098  0.00  0.00    +0.000 NA
ATOM     10  C   UNL     1       4.655   1.019   0.088  0.00  0.00    +0.000 A 
ATOM     11  C   UNL     1       5.457   2.161   0.164  0.00  0.00    +0.000 A 
ATOM     12  C   UNL     1       4.894   3.410   0.436  0.00  0.00    +0.000 A 
ATOM     13  C   UNL     1       3.518   3.530   0.619  0.00  0.00    +0.000 A 
ATOM     14  C   UNL     1       2.703   2.404   0.501  0.00  0.00    +0.000 A 
ATOM     15  C   UNL     1       3.277   1.157   0.233  0.00  0.00    +0.000 A 
ATOM     16  C   UNL     1       2.450  -0.060   0.127  0.00  0.00    +0.000 A 
ATOM     17  O   UNL     1       1.224   0.056   0.177  0.00  0.00    +0.000 OA
ATOM     18  N   UNL     1       3.156  -1.268   0.006  0.00  0.00    +0.000 N 
ENDBRANCH   1  18
BRANCH   4  19
ATOM     19  C   UNL     1      -0.262  -5.842   0.285  0.00  0.00    +0.000 A 
ATOM     20  C   UNL     1       0.078  -7.059   0.872  0.00  0.00    +0.000 A 
ATOM     21  N   UNL     1      -0.756  -8.118   1.015  0.00  0.00    +0.000 NA
ATOM     22  C   UNL     1      -2.019  -7.977   0.575  0.00  0.00    +0.000 A 
ATOM     23  N   UNL     1      -2.799  -9.123   0.743  0.00  0.00    +0.000 N 
ATOM     24  C   UNL     1      -2.489  -6.798   0.005  0.00  0.00    +0.000 A 
ATOM     25  C   UNL     1      -1.585  -5.741  -0.156  0.00  0.00    +0.000 A 
ATOM     26  H   UNL     1      -2.173  -9.792   1.190  0.00  0.00    +0.000 HD
ATOM     27  H   UNL     1      -3.567  -8.916   1.377  0.00  0.00    +0.000 HD
BRANCH  24  28
ATOM     28  O   UNL     1      -3.733  -6.516  -0.482  0.00  0.00    +0.000 OA
BRANCH  28  29
ATOM     29  C   UNL     1      -4.840  -7.160   0.120  0.00  0.00    +0.000 C 
ATOM     30  F   UNL     1      -4.614  -7.398   1.439  0.00  0.00    +0.000 F 
ATOM     31  F   UNL     1      -5.874  -6.278   0.078  0.00  0.00    +0.000 F 
ENDBRANCH  28  29
ENDBRANCH  24  28
ENDBRANCH   4  19
TORSDOF 4
