REMARK  Name = 
REMARK  7 active torsions:
REMARK  status: ('A' for Active; 'I' for Inactive)
REMARK    1  A    between atoms: C_1  and  N_2
REMARK    2  A    between atoms: C_5  and  C_6
REMARK    3  A    between atoms: C_6  and  N_7
REMARK    4  A    between atoms: C_6  and  C_24
REMARK    5  A    between atoms: C_8  and  C_10
REMARK    6  A    between atoms: C_14  and  O_15
REMARK    7  A    between atoms: O_15  and  C_16
REMARK                            x       y       z     vdW  Elec       q    Type
REMARK                         _______ _______ _______ _____ _____    ______ ____
ROOT
ATOM      1  N   UNL     1       2.433   2.579   1.107  0.00  0.00    +0.000 N 
ATOM      2  C   UNL     1       1.665   3.715   1.143  0.00  0.00    +0.000 C 
ATOM      3  O   UNL     1       0.953   4.075   0.217  0.00  0.00    +0.000 OA
ATOM      4  H   UNL     1       2.562   2.115   1.994  0.00  0.00    +0.000 HD
ENDROOT
BRANCH   2   5
ATOM      5  C   UNL     1       1.764   4.454   2.372  0.00  0.00    +0.000 A 
ATOM      6  C   UNL     1       2.740   4.588   3.333  0.00  0.00    +0.000 A 
ATOM      7  C   UNL     1       4.002   3.994   3.332  0.00  0.00    +0.000 A 
ATOM      8  C   UNL     1       4.780   4.397   4.437  0.00  0.00    +0.000 A 
ATOM      9  C   UNL     1       4.314   5.277   5.460  0.00  0.00    +0.000 A 
ATOM     10  C   UNL     1       3.040   5.894   5.414  0.00  0.00    +0.000 A 
ATOM     11  C   UNL     1       2.249   5.527   4.313  0.00  0.00    +0.000 A 
ATOM     12  N   UNL     1       1.019   5.934   3.958  0.00  0.00    +0.000 NA
ATOM     13  N   UNL     1       0.780   5.316   2.785  0.00  0.00    +0.000 N 
ATOM     14  H   UNL     1      -0.089   5.516   2.300  0.00  0.00    +0.000 HD
BRANCH   9  15
ATOM     15  O   UNL     1       5.068   5.670   6.534  0.00  0.00    +0.000 OA
BRANCH  15  16
ATOM     16  C   UNL     1       6.040   4.789   7.080  0.00  0.00    +0.000 C 
ATOM     17  F   UNL     1       5.989   3.531   6.592  0.00  0.00    +0.000 F 
ATOM     18  F   UNL     1       7.275   5.291   6.855  0.00  0.00    +0.000 F 
ATOM     19  F   UNL     1       5.851   4.717   8.415  0.00  0.00    +0.000 F 
ENDBRANCH  15  16
ENDBRANCH   9  15
ENDBRANCH   2   5
BRANCH   1  20
ATOM     20  C   UNL     1       2.420   1.693  -0.030  0.00  0.00    +0.000 C 
BRANCH  20  21
ATOM     21  C   UNL     1       3.735   0.928  -0.144  0.00  0.00    +0.000 A 
ATOM     22  C   UNL     1       4.554   1.137  -1.271  0.00  0.00    +0.000 A 
ATOM     23  C   UNL     1       5.760   0.444  -1.418  0.00  0.00    +0.000 A 
ATOM     24  C   UNL     1       6.162  -0.451  -0.437  0.00  0.00    +0.000 A 
ATOM     25  F   UNL     1       7.309  -1.126  -0.589  0.00  0.00    +0.000 F 
ATOM     26  C   UNL     1       5.391  -0.657   0.700  0.00  0.00    +0.000 A 
ATOM     27  C   UNL     1       4.187   0.036   0.851  0.00  0.00    +0.000 A 
ENDBRANCH  20  21
BRANCH  20  32
ATOM     28  C   UNL     1      -0.870  -1.199   2.110  0.00  0.00    +0.000 C 
ATOM     29  N   UNL     1      -0.113  -0.600   1.037  0.00  0.00    +0.000 N 
ATOM     30  C   UNL     1      -0.274  -0.816  -0.298  0.00  0.00    +0.000 A 
ATOM     31  C   UNL     1       0.648  -0.016  -0.926  0.00  0.00    +0.000 A 
ATOM     32  C   UNL     1       1.329   0.658   0.119  0.00  0.00    +0.000 A 
ATOM     33  N   UNL     1       0.861   0.283   1.327  0.00  0.00    +0.000 NA
ENDBRANCH  20  32
ENDBRANCH   1  20
TORSDOF 6
