REMARK  Name = 
REMARK  6 active torsions:
REMARK  status: ('A' for Active; 'I' for Inactive)
REMARK    1  A    between atoms: C_2  and  C_16
REMARK    2  A    between atoms: N_3  and  C_4
REMARK    3  A    between atoms: C_4  and  C_5
REMARK    4  A    between atoms: C_8  and  C_9
REMARK    5  A    between atoms: C_18  and  C_19
REMARK    6  A    between atoms: C_28  and  O_29
REMARK                            x       y       z     vdW  Elec       q    Type
REMARK                         _______ _______ _______ _____ _____    ______ ____
ROOT
ATOM      1  O   UNL     1       1.036   0.078   0.313  0.00  0.00    +0.000 OA
ATOM      2  C   UNL     1       2.234  -0.066   0.085  0.00  0.00    +0.000 C 
ATOM      3  N   UNL     1       2.945  -1.135   0.560  0.00  0.00    +0.000 N 
ATOM      4  H   UNL     1       3.899  -1.290   0.241  0.00  0.00    +0.000 HD
ENDROOT
BRANCH   2   5
ATOM      5  C   UNL     1       2.965   0.950  -0.709  0.00  0.00    +0.000 A 
ATOM      6  C   UNL     1       2.247   2.054  -1.185  0.00  0.00    +0.000 A 
ATOM      7  C   UNL     1       2.871   3.086  -1.904  0.00  0.00    +0.000 A 
ATOM      8  C   UNL     1       4.243   2.922  -2.114  0.00  0.00    +0.000 A 
ATOM      9  N   UNL     1       4.981   1.863  -1.686  0.00  0.00    +0.000 NA
ATOM     10  C   UNL     1       4.317   0.916  -1.000  0.00  0.00    +0.000 A 
BRANCH   7  11
ATOM     11  C   UNL     1       2.101   4.247  -2.404  0.00  0.00    +0.000 A 
ATOM     12  C   UNL     1       0.986   4.736  -1.695  0.00  0.00    +0.000 A 
ATOM     13  C   UNL     1       0.198   5.780  -2.194  0.00  0.00    +0.000 A 
ATOM     14  C   UNL     1       0.521   6.376  -3.408  0.00  0.00    +0.000 A 
ATOM     15  C   UNL     1       1.636   5.938  -4.114  0.00  0.00    +0.000 A 
ATOM     16  C   UNL     1       2.410   4.888  -3.615  0.00  0.00    +0.000 A 
ATOM     17  F   UNL     1       3.456   4.488  -4.352  0.00  0.00    +0.000 F 
ENDBRANCH   7  11
BRANCH  10  18
ATOM     18  O   UNL     1       5.133  -0.103  -0.625  0.00  0.00    +0.000 OA
ATOM     19  H   UNL     1       5.971   0.205  -1.017  0.00  0.00    +0.000 HD
ENDBRANCH  10  18
ENDBRANCH   2   5
BRANCH   3  20
ATOM     20  C   UNL     1       2.301  -2.159   1.346  0.00  0.00    +0.000 C 
BRANCH  20  21
ATOM     21  C   UNL     1       3.305  -3.156   1.797  0.00  0.00    +0.000 A 
ATOM     22  N   UNL     1       4.035  -3.843   0.906  0.00  0.00    +0.000 NA
ATOM     23  O   UNL     1       4.826  -4.696   1.651  0.00  0.00    +0.000 OA
ATOM     24  C   UNL     1       4.571  -4.520   2.980  0.00  0.00    +0.000 A 
ATOM     25  C   UNL     1       3.627  -3.530   3.121  0.00  0.00    +0.000 A 
BRANCH  24  26
ATOM     26  C   UNL     1       5.277  -5.395   3.901  0.00  0.00    +0.000 A 
ATOM     27  C   UNL     1       6.203  -6.341   3.474  0.00  0.00    +0.000 A 
ATOM     28  C   UNL     1       6.766  -7.198   4.415  0.00  0.00    +0.000 A 
ATOM     29  C   UNL     1       6.398  -7.079   5.749  0.00  0.00    +0.000 A 
ATOM     30  C   UNL     1       5.486  -6.093   6.092  0.00  0.00    +0.000 A 
ATOM     31  N   UNL     1       4.918  -5.250   5.201  0.00  0.00    +0.000 NA
ENDBRANCH  24  26
ENDBRANCH  20  21
ENDBRANCH   3  20
TORSDOF 6
