REMARK  Name = 
REMARK  5 active torsions:
REMARK  status: ('A' for Active; 'I' for Inactive)
REMARK    1  A    between atoms: C_1  and  N_2
REMARK    2  A    between atoms: C_4  and  C_5
REMARK    3  A    between atoms: C_8  and  N_9
REMARK    4  A    between atoms: C_10  and  C_12
REMARK    5  A    between atoms: C_15  and  N_16
REMARK                            x       y       z     vdW  Elec       q    Type
REMARK                         _______ _______ _______ _____ _____    ______ ____
ROOT
ATOM      1  C   UNL     1       7.313   3.840   0.390  0.00  0.00    +0.000 A 
ATOM      2  C   UNL     1       6.634   5.015   0.656  0.00  0.00    +0.000 A 
ATOM      3  C   UNL     1       7.141   6.180   0.118  0.00  0.00    +0.000 A 
ATOM      4  C   UNL     1       8.315   6.174  -0.667  0.00  0.00    +0.000 A 
ATOM      5  C   UNL     1       9.101   5.024  -0.709  0.00  0.00    +0.000 A 
ATOM      6  C   UNL     1       8.581   3.843  -0.207  0.00  0.00    +0.000 A 
ENDROOT
BRANCH   4   7
ATOM      7  N   UNL     1       8.690   7.364  -1.345  0.00  0.00    +0.000 N 
ATOM      8  C   UNL     1      10.010   7.693  -1.528  0.00  0.00    +0.000 A 
ATOM      9  N   UNL     1      10.482   8.859  -1.214  0.00  0.00    +0.000 NA
ATOM     10  C   UNL     1       9.576   9.688  -0.530  0.00  0.00    +0.000 A 
ATOM     11  C   UNL     1      10.016  10.482   0.517  0.00  0.00    +0.000 A 
ATOM     12  C   UNL     1       9.091  11.111   1.356  0.00  0.00    +0.000 A 
ATOM     13  C   UNL     1       7.719  11.012   1.122  0.00  0.00    +0.000 A 
ATOM     14  C   UNL     1       7.255  10.242   0.057  0.00  0.00    +0.000 A 
ATOM     15  C   UNL     1       8.195   9.573  -0.720  0.00  0.00    +0.000 A 
ATOM     16  C   UNL     1       7.758   8.393  -1.454  0.00  0.00    +0.000 A 
ATOM     17  O   UNL     1       6.644   8.320  -1.954  0.00  0.00    +0.000 OA
ENDBRANCH   4   7
BRANCH   1  19
ATOM     18  N   UNL     1       5.322   2.481   0.375  0.00  0.00    +0.000 N 
ATOM     19  C   UNL     1       6.687   2.545   0.614  0.00  0.00    +0.000 C 
ATOM     20  O   UNL     1       7.433   1.619   0.912  0.00  0.00    +0.000 OA
ATOM     21  H   UNL     1       4.778   3.324   0.205  0.00  0.00    +0.000 HD
BRANCH  18  27
ATOM     22  C   UNL     1       0.968   0.142   0.099  0.00  0.00    +0.000 C 
ATOM     23  N   UNL     1       2.418   0.148   0.173  0.00  0.00    +0.000 N 
ATOM     24  C   UNL     1       3.102  -1.056   0.234  0.00  0.00    +0.000 A 
ATOM     25  C   UNL     1       4.439  -1.074   0.287  0.00  0.00    +0.000 A 
ATOM     26  C   UNL     1       5.190   0.121   0.293  0.00  0.00    +0.000 A 
ATOM     27  C   UNL     1       4.602   1.315   0.300  0.00  0.00    +0.000 A 
ATOM     28  C   UNL     1       3.090   1.386   0.187  0.00  0.00    +0.000 A 
ATOM     29  O   UNL     1       2.534   2.482   0.128  0.00  0.00    +0.000 OA
BRANCH  25  30
ATOM     30  C   UNL     1       5.234  -2.365   0.395  0.00  0.00    +0.000 C 
ATOM     31  N   UNL     1       5.894  -3.435   0.484  0.00  0.00    +0.000 NA
ENDBRANCH  25  30
ENDBRANCH  18  27
ENDBRANCH   1  19
TORSDOF 4
