REMARK  Name = 
REMARK  4 active torsions:
REMARK  status: ('A' for Active; 'I' for Inactive)
REMARK    1  A    between atoms: C_2  and  C_4
REMARK    2  A    between atoms: C_8  and  C_9
REMARK    3  A    between atoms: N_11  and  C_12
REMARK    4  A    between atoms: C_16  and  C_17
REMARK                            x       y       z     vdW  Elec       q    Type
REMARK                         _______ _______ _______ _____ _____    ______ ____
ROOT
ATOM      1  C   UNL     1       2.101  -2.681   3.365  0.00  0.00    +0.000 C 
ATOM      2  O   UNL     1       1.752  -3.799   2.997  0.00  0.00    +0.000 OA
ATOM      3  N   UNL     1       1.954  -2.189   4.657  0.00  0.00    +0.000 N 
ATOM      4  H   UNL     1       2.283  -1.246   4.837  0.00  0.00    +0.000 HD
ENDROOT
BRANCH   3   5
ATOM      5  C   UNL     1       1.399  -2.861   5.730  0.00  0.00    +0.000 A 
ATOM      6  C   UNL     1       0.921  -4.117   5.680  0.00  0.00    +0.000 A 
ATOM      7  N   UNL     1       0.393  -4.708   6.818  0.00  0.00    +0.000 N 
ATOM      8  C   UNL     1      -0.102  -5.975   6.976  0.00  0.00    +0.000 A 
ATOM      9  C   UNL     1      -0.447  -6.073   8.306  0.00  0.00    +0.000 A 
ATOM     10  N   UNL     1      -0.212  -4.874   8.955  0.00  0.00    +0.000 NA
ATOM     11  C   UNL     1       0.307  -4.076   8.047  0.00  0.00    +0.000 A 
ATOM     12  C   UNL     1       0.802  -2.744   8.119  0.00  0.00    +0.000 A 
ATOM     13  C   UNL     1       1.331  -2.163   7.020  0.00  0.00    +0.000 A 
BRANCH   9  14
ATOM     14  C   UNL     1      -0.925  -7.269   8.984  0.00  0.00    +0.000 A 
ATOM     15  C   UNL     1      -1.090  -8.493   8.318  0.00  0.00    +0.000 A 
ATOM     16  C   UNL     1      -1.473  -9.640   9.020  0.00  0.00    +0.000 A 
ATOM     17  C   UNL     1      -1.703  -9.574  10.392  0.00  0.00    +0.000 A 
ATOM     18  C   UNL     1      -1.565  -8.361  11.062  0.00  0.00    +0.000 A 
ATOM     19  C   UNL     1      -1.182  -7.216  10.361  0.00  0.00    +0.000 A 
ENDBRANCH   9  14
ENDBRANCH   3   5
BRANCH   1  24
ATOM     20  C   UNL     1       3.820   0.235   1.587  0.00  0.00    +0.000 A 
ATOM     21  C   UNL     1       3.859  -0.274   0.279  0.00  0.00    +0.000 A 
ATOM     22  C   UNL     1       3.340  -1.534  -0.005  0.00  0.00    +0.000 A 
ATOM     23  C   UNL     1       2.776  -2.290   1.018  0.00  0.00    +0.000 A 
ATOM     24  C   UNL     1       2.720  -1.798   2.336  0.00  0.00    +0.000 A 
ATOM     25  C   UNL     1       3.245  -0.533   2.609  0.00  0.00    +0.000 A 
ATOM     26  F   UNL     1       3.196  -0.056   3.865  0.00  0.00    +0.000 F 
BRANCH  20  28
ATOM     27  N   UNL     1       4.403   2.084   3.086  0.00  0.00    +0.000 N 
ATOM     28  C   UNL     1       4.406   1.581   1.818  0.00  0.00    +0.000 C 
ATOM     29  O   UNL     1       4.888   2.230   0.897  0.00  0.00    +0.000 OA
ATOM     30  H   UNL     1       4.816   2.997   3.228  0.00  0.00    +0.000 HD
ATOM     31  H   UNL     1       4.031   1.591   3.886  0.00  0.00    +0.000 HD
ENDBRANCH  20  28
ENDBRANCH   1  24
TORSDOF 4
