REMARK  Name = 
REMARK  4 active torsions:
REMARK  status: ('A' for Active; 'I' for Inactive)
REMARK    1  A    between atoms: C_2  and  C_15
REMARK    2  A    between atoms: N_3  and  C_4
REMARK    3  A    between atoms: C_8  and  C_9
REMARK    4  A    between atoms: C_19  and  C_20
REMARK                            x       y       z     vdW  Elec       q    Type
REMARK                         _______ _______ _______ _____ _____    ______ ____
ROOT
ATOM      1  O   UNL     1       0.954  -0.145   0.843  0.00  0.00    +0.000 OA
ATOM      2  C   UNL     1       2.164  -0.183   0.623  0.00  0.00    +0.000 C 
ATOM      3  N   UNL     1       2.798  -1.034  -0.259  0.00  0.00    +0.000 N 
ATOM      4  H   UNL     1       3.809  -1.096  -0.204  0.00  0.00    +0.000 HD
ENDROOT
BRANCH   2   5
ATOM      5  C   UNL     1       3.076   0.780   1.324  0.00  0.00    +0.000 A 
ATOM      6  C   UNL     1       2.502   1.712   2.096  0.00  0.00    +0.000 A 
ATOM      7  C   UNL     1       3.289   2.872   2.473  0.00  0.00    +0.000 A 
ATOM      8  C   UNL     1       2.662   4.007   3.002  0.00  0.00    +0.000 A 
ATOM      9  C   UNL     1       3.366   5.216   3.123  0.00  0.00    +0.000 A 
ATOM     10  C   UNL     1       4.724   5.249   2.769  0.00  0.00    +0.000 A 
ATOM     11  C   UNL     1       5.367   4.099   2.301  0.00  0.00    +0.000 A 
ATOM     12  C   UNL     1       4.642   2.913   2.140  0.00  0.00    +0.000 A 
ATOM     13  C   UNL     1       5.289   1.719   1.541  0.00  0.00    +0.000 A 
ATOM     14  O   UNL     1       6.507   1.639   1.450  0.00  0.00    +0.000 OA
ATOM     15  O   UNL     1       4.458   0.750   1.044  0.00  0.00    +0.000 OA
BRANCH   9  16
ATOM     16  C   UNL     1       2.665   6.483   3.558  0.00  0.00    +0.000 C 
ATOM     17  F   UNL     1       1.350   6.301   3.861  0.00  0.00    +0.000 F 
ATOM     18  F   UNL     1       3.232   7.041   4.663  0.00  0.00    +0.000 F 
ATOM     19  F   UNL     1       2.696   7.443   2.594  0.00  0.00    +0.000 F 
ENDBRANCH   9  16
ENDBRANCH   2   5
BRANCH   3  20
ATOM     20  C   UNL     1       2.141  -1.883  -1.184  0.00  0.00    +0.000 A 
ATOM     21  C   UNL     1       0.803  -1.697  -1.547  0.00  0.00    +0.000 A 
ATOM     22  C   UNL     1       0.171  -2.569  -2.430  0.00  0.00    +0.000 A 
ATOM     23  C   UNL     1       0.872  -3.646  -2.961  0.00  0.00    +0.000 A 
ATOM     24  C   UNL     1       2.221  -3.843  -2.637  0.00  0.00    +0.000 A 
ATOM     25  C   UNL     1       2.860  -2.937  -1.768  0.00  0.00    +0.000 A 
BRANCH  24  26
ATOM     26  C   UNL     1       2.942  -4.972  -3.184  0.00  0.00    +0.000 A 
ATOM     27  C   UNL     1       2.400  -6.182  -3.563  0.00  0.00    +0.000 A 
ATOM     28  N   UNL     1       3.471  -6.892  -4.012  0.00  0.00    +0.000 N 
ATOM     29  N   UNL     1       4.604  -6.189  -3.915  0.00  0.00    +0.000 NA
ATOM     30  N   UNL     1       4.296  -5.008  -3.395  0.00  0.00    +0.000 NA
ATOM     31  H   UNL     1       3.509  -7.835  -4.391  0.00  0.00    +0.000 HD
ENDBRANCH  24  26
ENDBRANCH   3  20
TORSDOF 4
