REMARK  Name = 
REMARK  6 active torsions:
REMARK  status: ('A' for Active; 'I' for Inactive)
REMARK    1  A    between atoms: C_2  and  C_3
REMARK    2  A    between atoms: C_3  and  N_4
REMARK    3  A    between atoms: N_4  and  C_18
REMARK    4  A    between atoms: C_5  and  C_7
REMARK    5  A    between atoms: N_11  and  C_12
REMARK    6  A    between atoms: N_24  and  C_25
REMARK                            x       y       z     vdW  Elec       q    Type
REMARK                         _______ _______ _______ _____ _____    ______ ____
ROOT
ATOM      1  N   UNL     1       2.002   2.239   1.030  0.00  0.00    +0.000 N 
ATOM      2  C   UNL     1       0.607   1.937   0.962  0.00  0.00    +0.000 C 
ATOM      3  O   UNL     1      -0.230   2.813   1.180  0.00  0.00    +0.000 OA
ENDROOT
BRANCH   1   4
ATOM      4  C   UNL     1       2.484   3.425   1.712  0.00  0.00    +0.000 A 
ATOM      5  C   UNL     1       1.763   4.015   2.761  0.00  0.00    +0.000 A 
ATOM      6  C   UNL     1       2.283   5.092   3.490  0.00  0.00    +0.000 A 
ATOM      7  C   UNL     1       3.527   5.621   3.167  0.00  0.00    +0.000 A 
ATOM      8  C   UNL     1       4.252   5.069   2.118  0.00  0.00    +0.000 A 
ATOM      9  C   UNL     1       3.738   3.981   1.400  0.00  0.00    +0.000 A 
ENDBRANCH   1   4
BRANCH   2  10
ATOM     10  C   UNL     1       0.163   0.600   0.613  0.00  0.00    +0.000 A 
ATOM     11  C   UNL     1       0.511  -0.191  -0.473  0.00  0.00    +0.000 A 
ATOM     12  C   UNL     1      -0.316  -1.313  -0.431  0.00  0.00    +0.000 A 
ATOM     13  N   UNL     1      -1.192  -1.240   0.558  0.00  0.00    +0.000 NA
ATOM     14  N   UNL     1      -0.910  -0.074   1.208  0.00  0.00    +0.000 N 
BRANCH  14  15
ATOM     15  C   UNL     1      -1.707   0.248   2.346  0.00  0.00    +0.000 A 
ATOM     16  C   UNL     1      -1.258   1.073   3.372  0.00  0.00    +0.000 A 
ATOM     17  C   UNL     1      -2.124   1.339   4.426  0.00  0.00    +0.000 A 
ATOM     18  N   UNL     1      -3.373   0.830   4.520  0.00  0.00    +0.000 NA
ATOM     19  C   UNL     1      -3.777   0.015   3.527  0.00  0.00    +0.000 A 
ATOM     20  C   UNL     1      -2.985  -0.320   2.447  0.00  0.00    +0.000 A 
ENDBRANCH  14  15
ENDBRANCH   2  10
BRANCH   1  21
ATOM     21  C   UNL     1       3.035   1.250   0.657  0.00  0.00    +0.000 C 
BRANCH  21  23
ATOM     22  O   UNL     1       4.048   0.176  -1.217  0.00  0.00    +0.000 OA
ATOM     23  C   UNL     1       3.367   1.130  -0.834  0.00  0.00    +0.000 C 
ATOM     24  N   UNL     1       2.913   2.143  -1.658  0.00  0.00    +0.000 N 
ATOM     25  H   UNL     1       2.719   3.038  -1.219  0.00  0.00    +0.000 HD
BRANCH  24  26
ATOM     26  C   UNL     1       3.150   2.136  -3.051  0.00  0.00    +0.000 A 
ATOM     27  C   UNL     1       3.004   0.974  -3.819  0.00  0.00    +0.000 A 
ATOM     28  C   UNL     1       3.338   0.974  -5.174  0.00  0.00    +0.000 A 
ATOM     29  C   UNL     1       3.845   2.130  -5.762  0.00  0.00    +0.000 A 
ATOM     30  C   UNL     1       3.957   3.299  -5.011  0.00  0.00    +0.000 A 
ATOM     31  C   UNL     1       3.575   3.314  -3.666  0.00  0.00    +0.000 A 
ENDBRANCH  24  26
ENDBRANCH  21  23
ENDBRANCH   1  21
TORSDOF 6
