REMARK  Name = 
REMARK  5 active torsions:
REMARK  status: ('A' for Active; 'I' for Inactive)
REMARK    1  A    between atoms: C_1  and  O_2
REMARK    2  A    between atoms: O_2  and  C_3
REMARK    3  A    between atoms: C_6  and  C_7
REMARK    4  A    between atoms: C_14  and  C_15
REMARK    5  A    between atoms: N_19  and  C_20
REMARK                            x       y       z     vdW  Elec       q    Type
REMARK                         _______ _______ _______ _____ _____    ______ ____
ROOT
ATOM      1  C   UNL     1       3.043   0.800  -0.807  0.00  0.00    +0.000 A 
ATOM      2  C   UNL     1       2.728   2.158  -0.837  0.00  0.00    +0.000 A 
ATOM      3  C   UNL     1       3.404   3.027  -1.702  0.00  0.00    +0.000 A 
ATOM      4  C   UNL     1       4.412   2.573  -2.568  0.00  0.00    +0.000 A 
ATOM      5  C   UNL     1       4.735   1.207  -2.513  0.00  0.00    +0.000 A 
ATOM      6  C   UNL     1       4.058   0.322  -1.654  0.00  0.00    +0.000 A 
ENDROOT
BRANCH   6   7
ATOM      7  C   UNL     1       4.409  -1.101  -1.698  0.00  0.00    +0.000 A 
ATOM      8  C   UNL     1       5.372  -1.631  -0.944  0.00  0.00    +0.000 A 
ATOM      9  C   UNL     1       5.697  -3.075  -1.008  0.00  0.00    +0.000 A 
ATOM     10  O   UNL     1       6.620  -3.459  -0.292  0.00  0.00    +0.000 OA
ATOM     11  N   UNL     1       4.941  -3.840  -1.907  0.00  0.00    +0.000 N 
ATOM     12  N   UNL     1       3.968  -3.293  -2.728  0.00  0.00    +0.000 NA
ATOM     13  C   UNL     1       3.720  -2.033  -2.605  0.00  0.00    +0.000 A 
BRANCH  11  14
ATOM     14  C   UNL     1       5.078  -5.263  -2.043  0.00  0.00    +0.000 A 
ATOM     15  C   UNL     1       5.632  -6.059  -1.030  0.00  0.00    +0.000 A 
ATOM     16  C   UNL     1       5.739  -7.447  -1.174  0.00  0.00    +0.000 A 
ATOM     17  C   UNL     1       5.305  -8.066  -2.342  0.00  0.00    +0.000 A 
ATOM     18  C   UNL     1       4.751  -7.299  -3.361  0.00  0.00    +0.000 A 
ATOM     19  C   UNL     1       4.628  -5.913  -3.207  0.00  0.00    +0.000 A 
ENDBRANCH  11  14
ENDBRANCH   6   7
BRANCH   4  20
ATOM     20  C   UNL     1       5.072   3.487  -3.527  0.00  0.00    +0.000 A 
ATOM     21  C   UNL     1       6.426   3.361  -3.862  0.00  0.00    +0.000 A 
ATOM     22  C   UNL     1       6.980   4.228  -4.794  0.00  0.00    +0.000 A 
ATOM     23  N   UNL     1       6.293   5.213  -5.408  0.00  0.00    +0.000 NA
ATOM     24  C   UNL     1       4.994   5.330  -5.079  0.00  0.00    +0.000 A 
ATOM     25  C   UNL     1       4.352   4.508  -4.165  0.00  0.00    +0.000 A 
ENDBRANCH   4  20
BRANCH   1  27
ATOM     26  C   UNL     1       1.429   0.352   0.890  0.00  0.00    +0.000 C 
ATOM     27  O   UNL     1       2.423  -0.126  -0.010  0.00  0.00    +0.000 OA
ENDBRANCH   1  27
TORSDOF 4
