REMARK  Name = 
REMARK  6 active torsions:
REMARK  status: ('A' for Active; 'I' for Inactive)
REMARK    1  A    between atoms: C_2  and  C_19
REMARK    2  A    between atoms: N_3  and  C_4
REMARK    3  A    between atoms: C_8  and  C_9
REMARK    4  A    between atoms: C_9  and  O_10
REMARK    5  A    between atoms: O_10  and  C_11
REMARK    6  A    between atoms: C_11  and  C_12
REMARK                            x       y       z     vdW  Elec       q    Type
REMARK                         _______ _______ _______ _____ _____    ______ ____
ROOT
ATOM      1  O   UNL     1       0.752   0.111  -0.558  0.00  0.00    +0.000 OA
ATOM      2  C   UNL     1       1.892   0.034  -0.103  0.00  0.00    +0.000 C 
ATOM      3  N   UNL     1       2.594  -1.127   0.197  0.00  0.00    +0.000 N 
ATOM      4  H   UNL     1       3.520  -1.053   0.596  0.00  0.00    +0.000 HD
ENDROOT
BRANCH   2   5
ATOM      5  C   UNL     1       2.619   1.295   0.130  0.00  0.00    +0.000 A 
ATOM      6  C   UNL     1       3.596   1.421   1.117  0.00  0.00    +0.000 A 
ATOM      7  C   UNL     1       4.423   2.548   1.118  0.00  0.00    +0.000 A 
ATOM      8  C   UNL     1       4.409   3.433   0.026  0.00  0.00    +0.000 A 
ATOM      9  C   UNL     1       3.449   3.261  -0.968  0.00  0.00    +0.000 A 
ATOM     10  C   UNL     1       2.456   2.328  -0.778  0.00  0.00    +0.000 A 
ATOM     11  C   UNL     1       1.263   2.547  -1.586  0.00  0.00    +0.000 A 
ATOM     12  N   UNL     1       1.337   2.892  -2.831  0.00  0.00    +0.000 NA
ATOM     13  N   UNL     1       2.602   3.237  -3.240  0.00  0.00    +0.000 N 
ATOM     14  C   UNL     1       3.503   3.831  -2.342  0.00  0.00    +0.000 A 
ATOM     15  O   UNL     1       4.318   4.652  -2.664  0.00  0.00    +0.000 OA
ATOM     16  H   UNL     1       2.647   3.555  -4.204  0.00  0.00    +0.000 HD
ENDBRANCH   2   5
BRANCH   3  17
ATOM     17  C   UNL     1       2.087  -2.430   0.050  0.00  0.00    +0.000 A 
ATOM     18  C   UNL     1       0.993  -2.677  -0.778  0.00  0.00    +0.000 A 
ATOM     19  C   UNL     1       0.465  -3.954  -0.898  0.00  0.00    +0.000 A 
ATOM     20  C   UNL     1       1.036  -5.006  -0.196  0.00  0.00    +0.000 A 
ATOM     21  C   UNL     1       2.171  -4.796   0.601  0.00  0.00    +0.000 A 
ATOM     22  C   UNL     1       2.695  -3.494   0.723  0.00  0.00    +0.000 A 
BRANCH  21  23
ATOM     23  C   UNL     1       2.775  -5.951   1.366  0.00  0.00    +0.000 C 
BRANCH  23  24
ATOM     24  O   UNL     1       2.772  -5.713   2.776  0.00  0.00    +0.000 OA
BRANCH  24  25
ATOM     25  C   UNL     1       1.446  -5.548   3.286  0.00  0.00    +0.000 C 
BRANCH  25  26
ATOM     26  C   UNL     1       1.468  -5.278   4.768  0.00  0.00    +0.000 A 
ATOM     27  C   UNL     1       0.455  -4.493   5.337  0.00  0.00    +0.000 A 
ATOM     28  C   UNL     1       0.402  -4.288   6.716  0.00  0.00    +0.000 A 
ATOM     29  C   UNL     1       1.356  -4.872   7.546  0.00  0.00    +0.000 A 
ATOM     30  C   UNL     1       2.372  -5.650   6.995  0.00  0.00    +0.000 A 
ATOM     31  C   UNL     1       2.427  -5.854   5.614  0.00  0.00    +0.000 A 
ENDBRANCH  25  26
ENDBRANCH  24  25
ENDBRANCH  23  24
ENDBRANCH  21  23
ENDBRANCH   3  17
TORSDOF 6
