REMARK  Name = 
REMARK  5 active torsions:
REMARK  status: ('A' for Active; 'I' for Inactive)
REMARK    1  A    between atoms: C_2  and  C_3
REMARK    2  A    between atoms: C_3  and  O_4
REMARK    3  A    between atoms: O_4  and  C_5
REMARK    4  A    between atoms: C_5  and  C_7
REMARK    5  A    between atoms: N_19  and  C_20
REMARK                            x       y       z     vdW  Elec       q    Type
REMARK                         _______ _______ _______ _____ _____    ______ ____
ROOT
ATOM      1  O   UNL     1       2.123   1.903  -1.583  0.00  0.00    +0.000 OA
ENDROOT
BRANCH   1   2
ATOM      2  C   UNL     1       1.579   1.312  -2.671  0.00  0.00    +0.000 C 
ATOM      3  O   UNL     1       1.797   0.163  -3.028  0.00  0.00    +0.000 OA
BRANCH   2   4
ATOM      4  C   UNL     1       0.582   2.192  -3.319  0.00  0.00    +0.000 A 
ATOM      5  C   UNL     1      -0.147   1.653  -4.393  0.00  0.00    +0.000 A 
ATOM      6  C   UNL     1      -1.175   2.388  -4.982  0.00  0.00    +0.000 A 
ATOM      7  C   UNL     1      -1.457   3.675  -4.510  0.00  0.00    +0.000 A 
ATOM      8  N   UNL     1      -2.514   4.399  -5.081  0.00  0.00    +0.000 N 
ATOM      9  C   UNL     1      -3.320   3.902  -6.067  0.00  0.00    +0.000 A 
ATOM     10  O   UNL     1      -4.258   4.539  -6.537  0.00  0.00    +0.000 OA
ATOM     11  C   UNL     1      -3.011   2.535  -6.558  0.00  0.00    +0.000 A 
ATOM     12  C   UNL     1      -1.993   1.826  -6.056  0.00  0.00    +0.000 A 
ATOM     13  C   UNL     1      -0.709   4.219  -3.467  0.00  0.00    +0.000 A 
ATOM     14  F   UNL     1      -0.985   5.452  -3.017  0.00  0.00    +0.000 F 
ATOM     15  C   UNL     1       0.304   3.486  -2.861  0.00  0.00    +0.000 A 
ATOM     16  H   UNL     1      -2.728   5.327  -4.738  0.00  0.00    +0.000 HD
ENDBRANCH   2   4
ENDBRANCH   1   2
BRANCH   1  17
ATOM     17  C   UNL     1       2.999   1.071  -0.823  0.00  0.00    +0.000 C 
BRANCH  17  19
ATOM     18  O   UNL     1       2.477   0.196   1.350  0.00  0.00    +0.000 OA
ATOM     19  C   UNL     1       2.275   0.122   0.139  0.00  0.00    +0.000 C 
ATOM     20  N   UNL     1       1.447  -0.801  -0.478  0.00  0.00    +0.000 N 
ATOM     21  H   UNL     1       1.506  -0.863  -1.495  0.00  0.00    +0.000 HD
BRANCH  20  22
ATOM     22  C   UNL     1       0.605  -1.728   0.173  0.00  0.00    +0.000 A 
ATOM     23  C   UNL     1       0.322  -1.716   1.533  0.00  0.00    +0.000 A 
ATOM     24  N   UNL     1      -0.476  -2.616   2.160  0.00  0.00    +0.000 NA
ATOM     25  C   UNL     1      -1.034  -3.585   1.422  0.00  0.00    +0.000 A 
ATOM     26  C   UNL     1      -1.838  -4.528   2.046  0.00  0.00    +0.000 A 
ATOM     27  C   UNL     1      -2.456  -5.554   1.330  0.00  0.00    +0.000 A 
ATOM     28  C   UNL     1      -2.267  -5.648  -0.044  0.00  0.00    +0.000 A 
ATOM     29  C   UNL     1      -1.456  -4.718  -0.695  0.00  0.00    +0.000 A 
ATOM     30  C   UNL     1      -0.836  -3.681   0.028  0.00  0.00    +0.000 A 
ATOM     31  C   UNL     1      -0.009  -2.724  -0.589  0.00  0.00    +0.000 A 
ENDBRANCH  20  22
ENDBRANCH  17  19
ENDBRANCH   1  17
TORSDOF 5
