REMARK  Name = 
REMARK  6 active torsions:
REMARK  status: ('A' for Active; 'I' for Inactive)
REMARK    1  A    between atoms: C_4  and  C_5
REMARK    2  A    between atoms: N_7  and  C_8
REMARK    3  A    between atoms: C_8  and  C_9
REMARK    4  A    between atoms: C_8  and  C_18
REMARK    5  A    between atoms: C_9  and  C_11
REMARK    6  A    between atoms: C_11  and  C_12
REMARK                            x       y       z     vdW  Elec       q    Type
REMARK                         _______ _______ _______ _____ _____    ______ ____
ROOT
ATOM      1  C   UNL     1       4.129  -3.148  -1.217  0.00  0.00    +0.000 C 
ATOM      2  O   UNL     1       4.496  -3.650  -2.271  0.00  0.00    +0.000 OA
ATOM      3  N   UNL     1       4.262  -3.786  -0.000  0.00  0.00    +0.000 N 
ATOM      4  H   UNL     1       3.983  -3.268   0.829  0.00  0.00    +0.000 HD
ENDROOT
BRANCH   1   8
ATOM      5  N   UNL     1       3.421   0.733   1.360  0.00  0.00    +0.000 N 
ATOM      6  C   UNL     1       3.191   0.045   0.190  0.00  0.00    +0.000 A 
ATOM      7  N   UNL     1       3.722  -1.165   0.065  0.00  0.00    +0.000 NA
ATOM      8  C   UNL     1       3.509  -1.780  -1.129  0.00  0.00    +0.000 A 
ATOM      9  C   UNL     1       2.742  -1.247  -2.177  0.00  0.00    +0.000 A 
ATOM     10  C   UNL     1       2.461  -1.846  -3.434  0.00  0.00    +0.000 A 
ATOM     11  C   UNL     1       1.615  -1.228  -4.350  0.00  0.00    +0.000 A 
ATOM     12  C   UNL     1       1.045  -0.006  -4.029  0.00  0.00    +0.000 A 
ATOM     13  C   UNL     1       1.344   0.595  -2.803  0.00  0.00    +0.000 A 
ATOM     14  C   UNL     1       2.189  -0.002  -1.876  0.00  0.00    +0.000 A 
ATOM     15  N   UNL     1       2.414   0.636  -0.718  0.00  0.00    +0.000 NA
ATOM     16  H   UNL     1       3.621   0.103   2.123  0.00  0.00    +0.000 HD
ATOM     17  H   UNL     1       2.701   1.428   1.506  0.00  0.00    +0.000 HD
ENDBRANCH   1   8
BRANCH   3  18
ATOM     18  C   UNL     1       4.844  -5.114   0.124  0.00  0.00    +0.000 C 
BRANCH  18  19
ATOM     19  C   UNL     1       3.833  -6.227  -0.117  0.00  0.00    +0.000 A 
ATOM     20  C   UNL     1       4.008  -7.110  -1.197  0.00  0.00    +0.000 A 
ATOM     21  C   UNL     1       3.143  -8.189  -1.393  0.00  0.00    +0.000 A 
ATOM     22  C   UNL     1       2.085  -8.399  -0.516  0.00  0.00    +0.000 A 
ATOM     23  C   UNL     1       1.880  -7.522   0.546  0.00  0.00    +0.000 A 
ATOM     24  C   UNL     1       2.742  -6.439   0.742  0.00  0.00    +0.000 A 
ENDBRANCH  18  19
BRANCH  18  25
ATOM     25  C   UNL     1       5.587  -5.228   1.470  0.00  0.00    +0.000 C 
ATOM     26  O   UNL     1       5.428  -6.168   2.253  0.00  0.00    +0.000 OA
BRANCH  25  27
ATOM     27  C   UNL     1       6.643  -4.168   1.744  0.00  0.00    +0.000 C 
BRANCH  27  28
ATOM     28  C   UNL     1       6.369  -3.332   2.970  0.00  0.00    +0.000 A 
ATOM     29  C   UNL     1       6.295  -3.926   4.239  0.00  0.00    +0.000 A 
ATOM     30  C   UNL     1       6.097  -3.148   5.380  0.00  0.00    +0.000 A 
ATOM     31  C   UNL     1       5.982  -1.765   5.268  0.00  0.00    +0.000 A 
ATOM     32  C   UNL     1       6.054  -1.161   4.014  0.00  0.00    +0.000 A 
ATOM     33  C   UNL     1       6.241  -1.939   2.869  0.00  0.00    +0.000 A 
ENDBRANCH  27  28
ENDBRANCH  25  27
ENDBRANCH  18  25
ENDBRANCH   3  18
TORSDOF 6
