REMARK  Name = 
REMARK  7 active torsions:
REMARK  status: ('A' for Active; 'I' for Inactive)
REMARK    1  A    between atoms: C_1  and  O_2
REMARK    2  A    between atoms: O_2  and  C_3
REMARK    3  A    between atoms: C_3  and  C_5
REMARK    4  A    between atoms: C_7  and  N_8
REMARK    5  A    between atoms: C_9  and  C_11
REMARK    6  A    between atoms: N_13  and  C_14
REMARK    7  A    between atoms: C_26  and  C_27
REMARK                            x       y       z     vdW  Elec       q    Type
REMARK                         _______ _______ _______ _____ _____    ______ ____
ROOT
ATOM      1  N   UNL     1       0.452   0.578   4.750  0.00  0.00    +0.000 N 
ATOM      2  C   UNL     1      -0.357  -0.452   4.298  0.00  0.00    +0.000 C 
ATOM      3  O   UNL     1      -0.385  -0.894   3.154  0.00  0.00    +0.000 OA
ATOM      4  H   UNL     1       0.304   0.916   5.690  0.00  0.00    +0.000 HD
ENDROOT
BRANCH   1   7
ATOM      5  C   UNL     1       2.691   1.727   1.976  0.00  0.00    +0.000 A 
ATOM      6  C   UNL     1       1.740   0.974   2.678  0.00  0.00    +0.000 A 
ATOM      7  C   UNL     1       1.446   1.261   4.009  0.00  0.00    +0.000 A 
ATOM      8  C   UNL     1       2.168   2.278   4.656  0.00  0.00    +0.000 A 
ATOM      9  C   UNL     1       3.161   3.007   3.976  0.00  0.00    +0.000 A 
ATOM     10  C   UNL     1       3.983   4.054   4.671  0.00  0.00    +0.000 C 
ATOM     11  C   UNL     1       3.399   2.732   2.625  0.00  0.00    +0.000 A 
ATOM     12  F   UNL     1       4.345   3.432   1.980  0.00  0.00    +0.000 F 
BRANCH   5  13
ATOM     13  C   UNL     1       2.903   1.397   0.557  0.00  0.00    +0.000 C 
ATOM     14  O   UNL     1       2.853   0.257   0.124  0.00  0.00    +0.000 OA
BRANCH  13  16
ATOM     15  C   UNL     1       3.088   2.328  -1.583  0.00  0.00    +0.000 C 
ATOM     16  O   UNL     1       3.029   2.532  -0.170  0.00  0.00    +0.000 OA
ENDBRANCH  13  16
ENDBRANCH   5  13
ENDBRANCH   1   7
BRANCH   2  17
ATOM     17  C   UNL     1      -1.286  -1.030   5.330  0.00  0.00    +0.000 A 
ATOM     18  C   UNL     1      -2.374  -1.685   4.879  0.00  0.00    +0.000 A 
ATOM     19  N   UNL     1      -3.313  -2.291   5.726  0.00  0.00    +0.000 N 
ATOM     20  C   UNL     1      -3.108  -2.254   7.125  0.00  0.00    +0.000 A 
ATOM     21  O   UNL     1      -3.794  -2.787   7.994  0.00  0.00    +0.000 OA
ATOM     22  C   UNL     1      -1.898  -1.535   7.603  0.00  0.00    +0.000 A 
ATOM     23  C   UNL     1      -1.036  -0.978   6.748  0.00  0.00    +0.000 A 
BRANCH  19  24
ATOM     24  C   UNL     1      -4.480  -2.973   5.191  0.00  0.00    +0.000 A 
ATOM     25  C   UNL     1      -5.659  -3.109   5.940  0.00  0.00    +0.000 A 
ATOM     26  C   UNL     1      -6.771  -3.772   5.423  0.00  0.00    +0.000 A 
ATOM     27  F   UNL     1      -7.879  -3.878   6.170  0.00  0.00    +0.000 F 
ATOM     28  C   UNL     1      -6.756  -4.314   4.149  0.00  0.00    +0.000 A 
ATOM     29  C   UNL     1      -5.609  -4.185   3.376  0.00  0.00    +0.000 A 
ATOM     30  C   UNL     1      -4.484  -3.519   3.891  0.00  0.00    +0.000 A 
ENDBRANCH  19  24
ENDBRANCH   2  17
TORSDOF 5
