REMARK  Name = 
REMARK  6 active torsions:
REMARK  status: ('A' for Active; 'I' for Inactive)
REMARK    1  A    between atoms: C_1  and  C_2
REMARK    2  A    between atoms: C_7  and  C_8
REMARK    3  A    between atoms: N_10  and  C_11
REMARK    4  A    between atoms: C_14  and  O_15
REMARK    5  A    between atoms: O_15  and  C_16
REMARK    6  A    between atoms: C_22  and  C_23
REMARK                            x       y       z     vdW  Elec       q    Type
REMARK                         _______ _______ _______ _____ _____    ______ ____
ROOT
ATOM      1  C   UNL     1       8.810  -3.394  -1.221  0.00  0.00    +0.000 C 
ATOM      2  O   UNL     1       9.299  -4.254  -1.948  0.00  0.00    +0.000 OA
ATOM      3  N   UNL     1       9.505  -2.495  -0.431  0.00  0.00    +0.000 N 
ATOM      4  H   UNL     1       8.937  -1.924   0.189  0.00  0.00    +0.000 HD
ENDROOT
BRANCH   1  11
ATOM      5  C   UNL     1       1.167  -1.933  -0.262  0.00  0.00    +0.000 C 
ATOM      6  C   UNL     1       2.657  -2.093  -0.332  0.00  0.00    +0.000 A 
ATOM      7  N   UNL     1       3.183  -3.051  -1.019  0.00  0.00    +0.000 NA
ATOM      8  C   UNL     1       4.583  -3.138  -1.050  0.00  0.00    +0.000 A 
ATOM      9  C   UNL     1       5.178  -4.144  -1.800  0.00  0.00    +0.000 A 
ATOM     10  C   UNL     1       6.565  -4.228  -1.854  0.00  0.00    +0.000 A 
ATOM     11  C   UNL     1       7.323  -3.303  -1.137  0.00  0.00    +0.000 A 
ATOM     12  N   UNL     1       6.795  -2.310  -0.377  0.00  0.00    +0.000 NA
ATOM     13  C   UNL     1       5.433  -2.259  -0.373  0.00  0.00    +0.000 A 
ATOM     14  C   UNL     1       4.774  -1.179   0.396  0.00  0.00    +0.000 A 
ATOM     15  O   UNL     1       5.395  -0.330   1.032  0.00  0.00    +0.000 OA
ATOM     16  N   UNL     1       3.397  -1.170   0.358  0.00  0.00    +0.000 N 
ATOM     17  H   UNL     1       2.946  -0.431   0.879  0.00  0.00    +0.000 HD
ENDBRANCH   1  11
BRANCH   3  18
ATOM     18  C   UNL     1      10.909  -2.370  -0.377  0.00  0.00    +0.000 A 
ATOM     19  C   UNL     1      11.758  -2.978  -1.301  0.00  0.00    +0.000 A 
ATOM     20  C   UNL     1      13.142  -2.861  -1.188  0.00  0.00    +0.000 A 
ATOM     21  C   UNL     1      13.714  -2.129  -0.146  0.00  0.00    +0.000 A 
ATOM     22  C   UNL     1      12.872  -1.445   0.748  0.00  0.00    +0.000 A 
ATOM     23  C   UNL     1      11.473  -1.589   0.635  0.00  0.00    +0.000 A 
BRANCH  22  24
ATOM     24  C   UNL     1      13.341  -0.581   1.795  0.00  0.00    +0.000 C 
ATOM     25  N   UNL     1      13.645   0.108   2.679  0.00  0.00    +0.000 NA
ENDBRANCH  22  24
BRANCH  21  26
ATOM     26  O   UNL     1      15.090  -2.124  -0.199  0.00  0.00    +0.000 OA
BRANCH  26  27
ATOM     27  C   UNL     1      15.831  -2.115   0.954  0.00  0.00    +0.000 A 
ATOM     28  C   UNL     1      15.451  -2.747   2.138  0.00  0.00    +0.000 A 
ATOM     29  C   UNL     1      16.167  -2.495   3.307  0.00  0.00    +0.000 A 
ATOM     30  C   UNL     1      17.311  -1.698   3.268  0.00  0.00    +0.000 A 
ATOM     31  C   UNL     1      17.768  -1.189   2.053  0.00  0.00    +0.000 A 
ATOM     32  C   UNL     1      17.029  -1.403   0.892  0.00  0.00    +0.000 A 
ENDBRANCH  26  27
ENDBRANCH  21  26
ENDBRANCH   3  18
TORSDOF 5
