REMARK  Name = 
REMARK  6 active torsions:
REMARK  status: ('A' for Active; 'I' for Inactive)
REMARK    1  A    between atoms: C_1  and  C_2
REMARK    2  A    between atoms: C_5  and  C_6
REMARK    3  A    between atoms: N_8  and  C_9
REMARK    4  A    between atoms: C_14  and  C_15
REMARK    5  A    between atoms: C_15  and  C_17
REMARK    6  A    between atoms: C_25  and  C_26
REMARK                            x       y       z     vdW  Elec       q    Type
REMARK                         _______ _______ _______ _____ _____    ______ ____
ROOT
ATOM      1  C   UNL     1      -3.215   0.129   0.302  0.00  0.00    +0.000 C 
ATOM      2  O   UNL     1      -3.650  -0.882   0.840  0.00  0.00    +0.000 OA
ATOM      3  N   UNL     1      -3.962   1.208  -0.150  0.00  0.00    +0.000 N 
ATOM      4  H   UNL     1      -3.436   1.902  -0.675  0.00  0.00    +0.000 HD
ENDROOT
BRANCH   1   9
ATOM      5  C   UNL     1       2.414   0.638  -0.719  0.00  0.00    +0.000 C 
ATOM      6  C   UNL     1       0.959   0.436  -0.412  0.00  0.00    +0.000 A 
ATOM      7  C   UNL     1       0.056   1.473  -0.662  0.00  0.00    +0.000 A 
ATOM      8  N   UNL     1      -1.281   1.404  -0.455  0.00  0.00    +0.000 NA
ATOM      9  C   UNL     1      -1.743   0.231   0.046  0.00  0.00    +0.000 A 
ATOM     10  C   UNL     1      -0.935  -0.863   0.326  0.00  0.00    +0.000 A 
ATOM     11  C   UNL     1       0.442  -0.766   0.101  0.00  0.00    +0.000 A 
BRANCH  11  12
ATOM     12  C   UNL     1       1.277  -1.926   0.397  0.00  0.00    +0.000 A 
ATOM     13  N   UNL     1       0.858  -3.200   0.308  0.00  0.00    +0.000 NA
ATOM     14  N   UNL     1       1.978  -3.846   0.666  0.00  0.00    +0.000 N 
ATOM     15  N   UNL     1       3.023  -3.075   0.980  0.00  0.00    +0.000 NA
ATOM     16  N   UNL     1       2.584  -1.835   0.816  0.00  0.00    +0.000 NA
ATOM     17  H   UNL     1       2.036  -4.861   0.694  0.00  0.00    +0.000 HD
ENDBRANCH  11  12
ENDBRANCH   1   9
BRANCH   3  18
ATOM     18  C   UNL     1      -5.368   1.319  -0.082  0.00  0.00    +0.000 A 
ATOM     19  C   UNL     1      -6.152   0.507   0.747  0.00  0.00    +0.000 A 
ATOM     20  C   UNL     1      -7.544   0.592   0.724  0.00  0.00    +0.000 A 
ATOM     21  C   UNL     1      -8.166   1.501  -0.120  0.00  0.00    +0.000 A 
ATOM     22  F   UNL     1      -9.506   1.548  -0.119  0.00  0.00    +0.000 F 
ATOM     23  C   UNL     1      -7.408   2.352  -0.923  0.00  0.00    +0.000 A 
ATOM     24  C   UNL     1      -6.003   2.264  -0.900  0.00  0.00    +0.000 A 
BRANCH  23  25
ATOM     25  C   UNL     1      -8.107   3.271  -1.851  0.00  0.00    +0.000 C 
ATOM     26  O   UNL     1      -9.115   2.884  -2.436  0.00  0.00    +0.000 OA
BRANCH  25  27
ATOM     27  C   UNL     1      -7.593   4.636  -2.140  0.00  0.00    +0.000 A 
ATOM     28  C   UNL     1      -6.871   5.377  -1.198  0.00  0.00    +0.000 A 
ATOM     29  C   UNL     1      -6.404   6.653  -1.523  0.00  0.00    +0.000 A 
ATOM     30  C   UNL     1      -6.673   7.196  -2.780  0.00  0.00    +0.000 A 
ATOM     31  C   UNL     1      -7.414   6.473  -3.712  0.00  0.00    +0.000 A 
ATOM     32  C   UNL     1      -7.876   5.197  -3.393  0.00  0.00    +0.000 A 
ENDBRANCH  25  27
ENDBRANCH  23  25
ENDBRANCH   3  18
TORSDOF 5
