REMARK  Name = 
REMARK  7 active torsions:
REMARK  status: ('A' for Active; 'I' for Inactive)
REMARK    1  A    between atoms: C_1  and  C_2
REMARK    2  A    between atoms: N_4  and  C_5
REMARK    3  A    between atoms: C_8  and  O_9
REMARK    4  A    between atoms: O_9  and  C_10
REMARK    5  A    between atoms: C_16  and  N_17
REMARK    6  A    between atoms: C_18  and  C_20
REMARK    7  A    between atoms: C_24  and  C_25
REMARK                            x       y       z     vdW  Elec       q    Type
REMARK                         _______ _______ _______ _____ _____    ______ ____
ROOT
ATOM      1  C   UNL     1       1.083   0.127   0.177  0.00  0.00    +0.000 C 
ATOM      2  C   UNL     1       2.561  -0.001   0.178  0.00  0.00    +0.000 A 
ATOM      3  N   UNL     1       3.340   1.038   0.497  0.00  0.00    +0.000 NA
ATOM      4  N   UNL     1       4.604   0.594   0.277  0.00  0.00    +0.000 N 
ATOM      5  C   UNL     1       4.625  -0.780   0.086  0.00  0.00    +0.000 A 
ATOM      6  C   UNL     1       3.317  -1.165  -0.087  0.00  0.00    +0.000 A 
ENDROOT
BRANCH   4   7
ATOM      7  C   UNL     1       5.692   1.504   0.171  0.00  0.00    +0.000 A 
ATOM      8  C   UNL     1       5.617   2.753   0.793  0.00  0.00    +0.000 A 
ATOM      9  C   UNL     1       6.687   3.654   0.699  0.00  0.00    +0.000 A 
ATOM     10  C   UNL     1       7.838   3.311  -0.013  0.00  0.00    +0.000 A 
ATOM     11  C   UNL     1       7.878   2.095  -0.695  0.00  0.00    +0.000 A 
ATOM     12  C   UNL     1       6.819   1.193  -0.605  0.00  0.00    +0.000 A 
BRANCH  10  13
ATOM     13  O   UNL     1       8.939   4.088  -0.186  0.00  0.00    +0.000 OA
BRANCH  13  14
ATOM     14  C   UNL     1       9.331   4.992   0.835  0.00  0.00    +0.000 C 
ATOM     15  F   UNL     1       8.647   4.856   1.990  0.00  0.00    +0.000 F 
ATOM     16  F   UNL     1      10.639   4.783   1.108  0.00  0.00    +0.000 F 
ATOM     17  F   UNL     1       9.191   6.259   0.389  0.00  0.00    +0.000 F 
ENDBRANCH  13  14
ENDBRANCH  10  13
ENDBRANCH   4   7
BRANCH   5  18
ATOM     18  N   UNL     1       5.779  -1.548   0.119  0.00  0.00    +0.000 N 
ATOM     19  C   UNL     1       6.056  -2.410  -0.924  0.00  0.00    +0.000 C 
ATOM     20  O   UNL     1       5.343  -2.583  -1.906  0.00  0.00    +0.000 OA
ATOM     21  H   UNL     1       6.526  -1.232   0.723  0.00  0.00    +0.000 HD
BRANCH  19  22
ATOM     22  C   UNL     1       7.348  -3.138  -0.832  0.00  0.00    +0.000 A 
ATOM     23  C   UNL     1       8.467  -2.654  -0.151  0.00  0.00    +0.000 A 
ATOM     24  C   UNL     1       9.578  -3.474  -0.078  0.00  0.00    +0.000 A 
ATOM     25  N   UNL     1       9.639  -4.710  -0.616  0.00  0.00    +0.000 NA
ATOM     26  C   UNL     1       8.550  -5.151  -1.297  0.00  0.00    +0.000 A 
ATOM     27  C   UNL     1       7.403  -4.388  -1.442  0.00  0.00    +0.000 A 
BRANCH  26  28
ATOM     28  C   UNL     1       8.601  -6.516  -1.839  0.00  0.00    +0.000 A 
ATOM     29  N   UNL     1       7.603  -7.032  -2.579  0.00  0.00    +0.000 NA
ATOM     30  N   UNL     1       7.995  -8.280  -2.850  0.00  0.00    +0.000 N 
ATOM     31  C   UNL     1       9.200  -8.606  -2.315  0.00  0.00    +0.000 A 
ATOM     32  C   UNL     1       9.629  -7.479  -1.655  0.00  0.00    +0.000 A 
ATOM     33  H   UNL     1       7.377  -8.868  -3.410  0.00  0.00    +0.000 HD
ENDBRANCH  26  28
ENDBRANCH  19  22
ENDBRANCH   5  18
TORSDOF 6
