REMARK  Name = 
REMARK  5 active torsions:
REMARK  status: ('A' for Active; 'I' for Inactive)
REMARK    1  A    between atoms: C_1  and  C_2
REMARK    2  A    between atoms: C_2  and  N_3
REMARK    3  A    between atoms: C_2  and  C_18
REMARK    4  A    between atoms: C_4  and  C_6
REMARK    5  A    between atoms: C_21  and  C_22
REMARK                            x       y       z     vdW  Elec       q    Type
REMARK                         _______ _______ _______ _____ _____    ______ ____
ROOT
ATOM      1  N   UNL     1       3.035   0.543   1.368  0.00  0.00    +0.000 N 
ATOM      2  C   UNL     1       3.363   1.851   1.632  0.00  0.00    +0.000 C 
ATOM      3  O   UNL     1       3.341   2.745   0.796  0.00  0.00    +0.000 OA
ATOM      4  H   UNL     1       3.160  -0.167   2.074  0.00  0.00    +0.000 HD
ENDROOT
BRANCH   2   5
ATOM      5  C   UNL     1       3.780   2.157   3.028  0.00  0.00    +0.000 A 
ATOM      6  C   UNL     1       4.681   3.212   3.242  0.00  0.00    +0.000 A 
ATOM      7  C   UNL     1       5.046   3.585   4.541  0.00  0.00    +0.000 A 
ATOM      8  C   UNL     1       4.495   2.909   5.626  0.00  0.00    +0.000 A 
ATOM      9  N   UNL     1       4.808   3.297   6.930  0.00  0.00    +0.000 N 
ATOM     10  C   UNL     1       4.266   2.708   8.036  0.00  0.00    +0.000 A 
ATOM     11  O   UNL     1       4.542   3.092   9.168  0.00  0.00    +0.000 OA
ATOM     12  N   UNL     1       3.403   1.673   7.815  0.00  0.00    +0.000 N 
ATOM     13  C   UNL     1       3.031   1.176   6.590  0.00  0.00    +0.000 A 
ATOM     14  O   UNL     1       2.269   0.226   6.468  0.00  0.00    +0.000 OA
ATOM     15  C   UNL     1       3.605   1.854   5.413  0.00  0.00    +0.000 A 
ATOM     16  C   UNL     1       3.243   1.470   4.120  0.00  0.00    +0.000 A 
ATOM     17  H   UNL     1       5.439   4.069   7.106  0.00  0.00    +0.000 HD
ATOM     18  H   UNL     1       3.007   1.232   8.631  0.00  0.00    +0.000 HD
ENDBRANCH   2   5
BRANCH   1  20
ATOM     19  C   UNL     1       1.026   0.190  -0.002  0.00  0.00    +0.000 C 
ATOM     20  C   UNL     1       2.554   0.115   0.062  0.00  0.00    +0.000 C 
BRANCH  20  21
ATOM     21  C   UNL     1       3.058  -1.284  -0.236  0.00  0.00    +0.000 A 
ATOM     22  C   UNL     1       3.926  -1.514  -1.311  0.00  0.00    +0.000 A 
ATOM     23  C   UNL     1       4.386  -2.808  -1.601  0.00  0.00    +0.000 A 
ATOM     24  C   UNL     1       4.013  -3.913  -0.817  0.00  0.00    +0.000 A 
ATOM     25  C   UNL     1       3.169  -3.654   0.277  0.00  0.00    +0.000 A 
ATOM     26  C   UNL     1       2.686  -2.374   0.558  0.00  0.00    +0.000 A 
BRANCH  24  27
ATOM     27  C   UNL     1       4.474  -5.296  -1.106  0.00  0.00    +0.000 A 
ATOM     28  C   UNL     1       5.712  -5.568  -1.717  0.00  0.00    +0.000 A 
ATOM     29  C   UNL     1       6.147  -6.883  -1.928  0.00  0.00    +0.000 A 
ATOM     30  C   UNL     1       5.360  -7.958  -1.526  0.00  0.00    +0.000 A 
ATOM     31  C   UNL     1       4.125  -7.721  -0.939  0.00  0.00    +0.000 A 
ATOM     32  C   UNL     1       3.685  -6.408  -0.748  0.00  0.00    +0.000 A 
ENDBRANCH  24  27
ENDBRANCH  20  21
ENDBRANCH   1  20
TORSDOF 4
