REMARK  Name = 
REMARK  5 active torsions:
REMARK  status: ('A' for Active; 'I' for Inactive)
REMARK    1  A    between atoms: C_2  and  C_19
REMARK    2  A    between atoms: N_3  and  C_4
REMARK    3  A    between atoms: N_8  and  C_9
REMARK    4  A    between atoms: C_9  and  C_10
REMARK    5  A    between atoms: N_21  and  C_22
REMARK                            x       y       z     vdW  Elec       q    Type
REMARK                         _______ _______ _______ _____ _____    ______ ____
ROOT
ATOM      1  O   UNL     1       5.133   0.924   1.935  0.00  0.00    +0.000 OA
ATOM      2  C   UNL     1       4.409   0.462   1.056  0.00  0.00    +0.000 C 
ATOM      3  N   UNL     1       3.069   0.154   1.204  0.00  0.00    +0.000 N 
ATOM      4  H   UNL     1       2.662  -0.411   0.461  0.00  0.00    +0.000 HD
ENDROOT
BRANCH   3   5
ATOM      5  C   UNL     1       2.329   0.281   2.362  0.00  0.00    +0.000 A 
ATOM      6  C   UNL     1       2.617   1.131   3.360  0.00  0.00    +0.000 A 
ATOM      7  C   UNL     1       1.864   1.143   4.581  0.00  0.00    +0.000 A 
ATOM      8  C   UNL     1       0.896   0.245   4.779  0.00  0.00    +0.000 A 
ATOM      9  N   UNL     1       0.544  -0.661   3.793  0.00  0.00    +0.000 N 
ATOM     10  C   UNL     1       1.144  -0.652   2.525  0.00  0.00    +0.000 A 
ATOM     11  O   UNL     1       0.814  -1.381   1.594  0.00  0.00    +0.000 OA
BRANCH   9  12
ATOM     12  C   UNL     1      -0.383  -1.746   4.125  0.00  0.00    +0.000 C 
BRANCH  12  13
ATOM     13  C   UNL     1       0.365  -2.921   4.728  0.00  0.00    +0.000 A 
ATOM     14  C   UNL     1       0.589  -3.004   6.113  0.00  0.00    +0.000 A 
ATOM     15  C   UNL     1       1.396  -4.014   6.640  0.00  0.00    +0.000 A 
ATOM     16  C   UNL     1       1.975  -4.945   5.787  0.00  0.00    +0.000 A 
ATOM     17  F   UNL     1       2.779  -5.891   6.291  0.00  0.00    +0.000 F 
ATOM     18  C   UNL     1       1.744  -4.901   4.418  0.00  0.00    +0.000 A 
ATOM     19  C   UNL     1       0.939  -3.892   3.889  0.00  0.00    +0.000 A 
ENDBRANCH  12  13
ENDBRANCH   9  12
ENDBRANCH   3   5
BRANCH   2  20
ATOM     20  C   UNL     1       4.956   0.113  -0.260  0.00  0.00    +0.000 A 
ATOM     21  N   UNL     1       4.176  -0.250  -1.296  0.00  0.00    +0.000 NA
ATOM     22  N   UNL     1       5.040  -0.527  -2.307  0.00  0.00    +0.000 N 
ATOM     23  C   UNL     1       6.348  -0.337  -1.921  0.00  0.00    +0.000 A 
ATOM     24  C   UNL     1       6.324   0.089  -0.617  0.00  0.00    +0.000 A 
BRANCH  22  25
ATOM     25  C   UNL     1       4.562  -0.962  -3.564  0.00  0.00    +0.000 A 
ATOM     26  C   UNL     1       5.420  -1.425  -4.565  0.00  0.00    +0.000 A 
ATOM     27  C   UNL     1       4.880  -1.841  -5.781  0.00  0.00    +0.000 A 
ATOM     28  C   UNL     1       3.506  -1.767  -5.955  0.00  0.00    +0.000 A 
ATOM     29  N   UNL     1       2.655  -1.325  -5.008  0.00  0.00    +0.000 NA
ATOM     30  C   UNL     1       3.197  -0.937  -3.829  0.00  0.00    +0.000 A 
ENDBRANCH  22  25
ENDBRANCH   2  20
TORSDOF 5
