REMARK  Name = 
REMARK  6 active torsions:
REMARK  status: ('A' for Active; 'I' for Inactive)
REMARK    1  A    between atoms: C_2  and  C_3
REMARK    2  A    between atoms: C_3  and  C_4
REMARK    3  A    between atoms: N_8  and  C_9
REMARK    4  A    between atoms: N_17  and  C_18
REMARK    5  A    between atoms: C_18  and  C_19
REMARK    6  A    between atoms: C_18  and  C_25
REMARK                            x       y       z     vdW  Elec       q    Type
REMARK                         _______ _______ _______ _____ _____    ______ ____
ROOT
ATOM      1  O   UNL     1       1.069  -0.607  -0.070  0.00  0.00    +0.000 OA
ATOM      2  C   UNL     1       2.252  -0.288  -0.042  0.00  0.00    +0.000 C 
ATOM      3  N   UNL     1       3.229  -0.964   0.672  0.00  0.00    +0.000 N 
ATOM      4  H   UNL     1       4.148  -0.552   0.739  0.00  0.00    +0.000 HD
ENDROOT
BRANCH   3   5
ATOM      5  C   UNL     1       2.942  -2.031   1.613  0.00  0.00    +0.000 C 
BRANCH   5   6
ATOM      6  C   UNL     1       3.854  -3.235   1.410  0.00  0.00    +0.000 A 
ATOM      7  C   UNL     1       5.259  -3.119   1.364  0.00  0.00    +0.000 A 
ATOM      8  C   UNL     1       6.075  -4.253   1.337  0.00  0.00    +0.000 A 
ATOM      9  C   UNL     1       5.505  -5.522   1.301  0.00  0.00    +0.000 A 
ATOM     10  C   UNL     1       4.119  -5.657   1.263  0.00  0.00    +0.000 A 
ATOM     11  C   UNL     1       3.300  -4.524   1.319  0.00  0.00    +0.000 A 
ENDBRANCH   5   6
BRANCH   5  12
ATOM     12  C   UNL     1       3.183  -1.483   3.008  0.00  0.00    +0.000 A 
ATOM     13  C   UNL     1       4.097  -1.854   3.984  0.00  0.00    +0.000 A 
ATOM     14  O   UNL     1       4.019  -1.050   5.074  0.00  0.00    +0.000 OA
ATOM     15  C   UNL     1       3.025  -0.163   4.838  0.00  0.00    +0.000 A 
ATOM     16  C   UNL     1       2.468  -0.392   3.603  0.00  0.00    +0.000 A 
ENDBRANCH   5  12
ENDBRANCH   3   5
BRANCH   2  17
ATOM     17  C   UNL     1       2.826   0.941  -0.768  0.00  0.00    +0.000 C 
BRANCH  17  18
ATOM     18  C   UNL     1       1.887   1.703  -1.656  0.00  0.00    +0.000 A 
ATOM     19  C   UNL     1       2.236   2.305  -2.803  0.00  0.00    +0.000 A 
ATOM     20  C   UNL     1       0.978   2.812  -3.401  0.00  0.00    +0.000 A 
ATOM     21  O   UNL     1       0.948   3.375  -4.482  0.00  0.00    +0.000 OA
ATOM     22  N   UNL     1      -0.039   2.463  -2.513  0.00  0.00    +0.000 N 
ATOM     23  N   UNL     1       0.531   1.839  -1.384  0.00  0.00    +0.000 N 
ATOM     24  H   UNL     1       0.110   0.933  -1.139  0.00  0.00    +0.000 HD
BRANCH  22  25
ATOM     25  C   UNL     1      -1.438   2.524  -2.687  0.00  0.00    +0.000 A 
ATOM     26  C   UNL     1      -1.998   2.898  -3.919  0.00  0.00    +0.000 A 
ATOM     27  C   UNL     1      -3.382   2.859  -4.121  0.00  0.00    +0.000 A 
ATOM     28  C   UNL     1      -4.215   2.467  -3.083  0.00  0.00    +0.000 A 
ATOM     29  F   UNL     1      -5.537   2.404  -3.283  0.00  0.00    +0.000 F 
ATOM     30  C   UNL     1      -3.692   2.135  -1.841  0.00  0.00    +0.000 A 
ATOM     31  C   UNL     1      -2.307   2.167  -1.643  0.00  0.00    +0.000 A 
ENDBRANCH  22  25
ENDBRANCH  17  18
ENDBRANCH   2  17
TORSDOF 6
