REMARK  Name = 
REMARK  5 active torsions:
REMARK  status: ('A' for Active; 'I' for Inactive)
REMARK    1  A    between atoms: C_1  and  O_2
REMARK    2  A    between atoms: O_2  and  C_3
REMARK    3  A    between atoms: C_5  and  N_6
REMARK    4  A    between atoms: C_11  and  C_13
REMARK    5  A    between atoms: C_19  and  N_20
REMARK                            x       y       z     vdW  Elec       q    Type
REMARK                         _______ _______ _______ _____ _____    ______ ____
ROOT
ATOM      1  N   UNL     1       6.317   1.427  -2.611  0.00  0.00    +0.000 N 
ATOM      2  C   UNL     1       7.627   1.810  -2.418  0.00  0.00    +0.000 A 
ATOM      3  C   UNL     1       8.363   1.221  -3.418  0.00  0.00    +0.000 A 
ATOM      4  C   UNL     1       7.432   0.472  -4.168  0.00  0.00    +0.000 A 
ATOM      5  N   UNL     1       7.758  -0.242  -5.307  0.00  0.00    +0.000 N 
ATOM      6  C   UNL     1       6.904  -1.128  -5.935  0.00  0.00    +0.000 C 
ATOM      7  O   UNL     1       5.817  -1.519  -5.532  0.00  0.00    +0.000 OA
ATOM      8  N   UNL     1       6.211   0.576  -3.655  0.00  0.00    +0.000 NA
ATOM      9  H   UNL     1       8.685  -0.082  -5.665  0.00  0.00    +0.000 HD
ENDROOT
BRANCH   1  12
ATOM     10  C   UNL     1       2.755   1.673  -1.514  0.00  0.00    +0.000 A 
ATOM     11  C   UNL     1       3.912   1.276  -2.197  0.00  0.00    +0.000 A 
ATOM     12  C   UNL     1       5.164   1.842  -1.889  0.00  0.00    +0.000 A 
ATOM     13  C   UNL     1       5.251   2.819  -0.889  0.00  0.00    +0.000 A 
ATOM     14  C   UNL     1       4.097   3.225  -0.216  0.00  0.00    +0.000 A 
ATOM     15  C   UNL     1       2.864   2.655  -0.528  0.00  0.00    +0.000 A 
ATOM     16  F   UNL     1       1.795   3.094   0.153  0.00  0.00    +0.000 F 
BRANCH  10  18
ATOM     17  C   UNL     1       0.417   1.338  -1.212  0.00  0.00    +0.000 C 
ATOM     18  O   UNL     1       1.615   1.028  -1.912  0.00  0.00    +0.000 OA
ENDBRANCH  10  18
ENDBRANCH   1  12
BRANCH   6  19
ATOM     19  C   UNL     1       7.416  -1.722  -7.208  0.00  0.00    +0.000 A 
ATOM     20  C   UNL     1       8.758  -2.145  -7.222  0.00  0.00    +0.000 A 
ATOM     21  C   UNL     1       9.249  -2.884  -8.290  0.00  0.00    +0.000 A 
ATOM     22  F   UNL     1      10.529  -3.277  -8.282  0.00  0.00    +0.000 F 
ATOM     23  C   UNL     1       8.430  -3.245  -9.347  0.00  0.00    +0.000 A 
ATOM     24  C   UNL     1       7.094  -2.842  -9.349  0.00  0.00    +0.000 A 
ATOM     25  C   UNL     1       6.575  -2.061  -8.294  0.00  0.00    +0.000 A 
BRANCH  25  26
ATOM     26  N   UNL     1       5.220  -1.625  -8.400  0.00  0.00    +0.000 N 
ATOM     27  C   UNL     1       4.661  -0.449  -7.952  0.00  0.00    +0.000 A 
ATOM     28  C   UNL     1       3.336  -0.488  -8.323  0.00  0.00    +0.000 A 
ATOM     29  N   UNL     1       3.067  -1.614  -9.046  0.00  0.00    +0.000 NA
ATOM     30  C   UNL     1       4.202  -2.274  -9.077  0.00  0.00    +0.000 A 
ENDBRANCH  25  26
ENDBRANCH   6  19
TORSDOF 4
