REMARK  Name = 
REMARK  5 active torsions:
REMARK  status: ('A' for Active; 'I' for Inactive)
REMARK    1  A    between atoms: C_1  and  N_2
REMARK    2  A    between atoms: C_3  and  C_4
REMARK    3  A    between atoms: C_7  and  C_8
REMARK    4  A    between atoms: N_10  and  C_11
REMARK    5  A    between atoms: C_16  and  C_17
REMARK                            x       y       z     vdW  Elec       q    Type
REMARK                         _______ _______ _______ _____ _____    ______ ____
ROOT
ATOM      1  C   UNL     1       1.082   6.513  -0.242  0.00  0.00    +0.000 C 
ATOM      2  O   UNL     1       0.423   6.747   0.765  0.00  0.00    +0.000 OA
ATOM      3  N   UNL     1       1.268   7.367  -1.318  0.00  0.00    +0.000 N 
ATOM      4  H   UNL     1       1.647   6.972  -2.167  0.00  0.00    +0.000 HD
ENDROOT
BRANCH   3   5
ATOM      5  C   UNL     1       0.821   8.704  -1.394  0.00  0.00    +0.000 A 
ATOM      6  C   UNL     1       0.357   9.411  -0.284  0.00  0.00    +0.000 A 
ATOM      7  C   UNL     1      -0.112  10.712  -0.425  0.00  0.00    +0.000 A 
ATOM      8  C   UNL     1      -0.104  11.319  -1.674  0.00  0.00    +0.000 A 
ATOM      9  F   UNL     1      -0.607  12.561  -1.755  0.00  0.00    +0.000 F 
ATOM     10  C   UNL     1       0.401  10.673  -2.817  0.00  0.00    +0.000 A 
ATOM     11  C   UNL     1       0.863   9.348  -2.645  0.00  0.00    +0.000 A 
BRANCH  10  12
ATOM     12  C   UNL     1       0.465  11.354  -4.134  0.00  0.00    +0.000 A 
ATOM     13  C   UNL     1       0.720  12.732  -4.227  0.00  0.00    +0.000 A 
ATOM     14  C   UNL     1       0.771  13.343  -5.470  0.00  0.00    +0.000 A 
ATOM     15  N   UNL     1       0.606  12.685  -6.634  0.00  0.00    +0.000 NA
ATOM     16  C   UNL     1       0.367  11.363  -6.543  0.00  0.00    +0.000 A 
ATOM     17  C   UNL     1       0.284  10.668  -5.343  0.00  0.00    +0.000 A 
ENDBRANCH  10  12
ENDBRANCH   3   5
BRANCH   1  21
ATOM     18  C   UNL     1       2.776   2.578  -0.496  0.00  0.00    +0.000 A 
ATOM     19  C   UNL     1       1.645   2.825   0.285  0.00  0.00    +0.000 A 
ATOM     20  C   UNL     1       1.096   4.107   0.332  0.00  0.00    +0.000 A 
ATOM     21  C   UNL     1       1.698   5.164  -0.364  0.00  0.00    +0.000 A 
ATOM     22  C   UNL     1       2.874   4.936  -1.086  0.00  0.00    +0.000 A 
ATOM     23  C   UNL     1       3.406   3.644  -1.155  0.00  0.00    +0.000 A 
BRANCH  18  26
ATOM     24  C   UNL     1       1.219  -0.182  -0.689  0.00  0.00    +0.000 C 
ATOM     25  N   UNL     1       2.642   0.081  -0.637  0.00  0.00    +0.000 N 
ATOM     26  C   UNL     1       3.371   1.232  -0.605  0.00  0.00    +0.000 A 
ATOM     27  N   UNL     1       4.660   1.046  -0.708  0.00  0.00    +0.000 NA
ATOM     28  N   UNL     1       4.799  -0.310  -0.787  0.00  0.00    +0.000 N 
ATOM     29  C   UNL     1       3.562  -0.933  -0.756  0.00  0.00    +0.000 A 
ATOM     30  O   UNL     1       3.349  -2.130  -0.848  0.00  0.00    +0.000 OA
ATOM     31  H   UNL     1       5.691  -0.769  -0.897  0.00  0.00    +0.000 HD
ENDBRANCH  18  26
ENDBRANCH   1  21
TORSDOF 4
