REMARK  Name = 
REMARK  6 active torsions:
REMARK  status: ('A' for Active; 'I' for Inactive)
REMARK    1  A    between atoms: C_1  and  O_2
REMARK    2  A    between atoms: O_2  and  C_3
REMARK    3  A    between atoms: C_3  and  C_5
REMARK    4  A    between atoms: C_11  and  N_12
REMARK    5  A    between atoms: C_13  and  C_15
REMARK    6  A    between atoms: N_17  and  C_18
REMARK                            x       y       z     vdW  Elec       q    Type
REMARK                         _______ _______ _______ _____ _____    ______ ____
ROOT
ATOM      1  N   UNL     1       7.339  -1.048  -4.102  0.00  0.00    +0.000 N 
ATOM      2  C   UNL     1       6.742  -1.567  -5.239  0.00  0.00    +0.000 C 
ATOM      3  O   UNL     1       5.535  -1.596  -5.457  0.00  0.00    +0.000 OA
ATOM      4  H   UNL     1       8.346  -0.968  -4.097  0.00  0.00    +0.000 HD
ENDROOT
BRANCH   1  11
ATOM      5  C   UNL     1       4.556   1.402   0.197  0.00  0.00    +0.000 A 
ATOM      6  N   UNL     1       3.211   1.206   0.364  0.00  0.00    +0.000 NA
ATOM      7  C   UNL     1       2.594   0.391  -0.506  0.00  0.00    +0.000 A 
ATOM      8  C   UNL     1       3.244  -0.241  -1.547  0.00  0.00    +0.000 A 
ATOM      9  C   UNL     1       4.618  -0.038  -1.716  0.00  0.00    +0.000 A 
ATOM     10  C   UNL     1       5.286  -0.662  -2.781  0.00  0.00    +0.000 A 
ATOM     11  C   UNL     1       6.654  -0.486  -3.000  0.00  0.00    +0.000 A 
ATOM     12  C   UNL     1       7.379   0.282  -2.092  0.00  0.00    +0.000 A 
ATOM     13  C   UNL     1       6.727   0.918  -1.028  0.00  0.00    +0.000 A 
ATOM     14  C   UNL     1       5.326   0.792  -0.825  0.00  0.00    +0.000 A 
BRANCH   5  15
ATOM     15  C   UNL     1       5.178   2.353   1.173  0.00  0.00    +0.000 C 
ATOM     16  O   UNL     1       6.143   3.067   0.943  0.00  0.00    +0.000 OA
BRANCH  15  18
ATOM     17  C   UNL     1       5.059   3.127   3.375  0.00  0.00    +0.000 C 
ATOM     18  O   UNL     1       4.527   2.275   2.364  0.00  0.00    +0.000 OA
ENDBRANCH  15  18
ENDBRANCH   5  15
ENDBRANCH   1  11
BRANCH   2  19
ATOM     19  C   UNL     1       7.649  -2.087  -6.246  0.00  0.00    +0.000 A 
ATOM     20  C   UNL     1       9.027  -2.135  -6.289  0.00  0.00    +0.000 A 
ATOM     21  N   UNL     1       9.387  -2.764  -7.466  0.00  0.00    +0.000 N 
ATOM     22  N   UNL     1       8.288  -3.080  -8.202  0.00  0.00    +0.000 NA
ATOM     23  C   UNL     1       7.257  -2.683  -7.459  0.00  0.00    +0.000 A 
BRANCH  21  24
ATOM     24  C   UNL     1      10.681  -3.095  -7.944  0.00  0.00    +0.000 A 
ATOM     25  C   UNL     1      10.811  -3.720  -9.199  0.00  0.00    +0.000 A 
ATOM     26  C   UNL     1      12.072  -4.063  -9.692  0.00  0.00    +0.000 A 
ATOM     27  C   UNL     1      13.213  -3.790  -8.940  0.00  0.00    +0.000 A 
ATOM     28  C   UNL     1      13.092  -3.176  -7.695  0.00  0.00    +0.000 A 
ATOM     29  C   UNL     1      11.834  -2.831  -7.204  0.00  0.00    +0.000 A 
ATOM     30  F   UNL     1      11.790  -2.251  -5.997  0.00  0.00    +0.000 F 
ENDBRANCH  21  24
ENDBRANCH   2  19
TORSDOF 5
