REMARK  Name = 
REMARK  8 active torsions:
REMARK  status: ('A' for Active; 'I' for Inactive)
REMARK    1  A    between atoms: C_1  and  O_2
REMARK    2  A    between atoms: O_2  and  C_3
REMARK    3  A    between atoms: C_3  and  C_5
REMARK    4  A    between atoms: C_9  and  C_10
REMARK    5  A    between atoms: C_15  and  C_16
REMARK    6  A    between atoms: C_16  and  N_17
REMARK    7  A    between atoms: C_18  and  C_20
REMARK    8  A    between atoms: C_20  and  C_21
REMARK                            x       y       z     vdW  Elec       q    Type
REMARK                         _______ _______ _______ _____ _____    ______ ____
ROOT
ATOM      1  C   UNL     1       7.444  -0.716   3.496  0.00  0.00    +0.000 A 
ATOM      2  C   UNL     1       8.078   0.153   4.425  0.00  0.00    +0.000 A 
ATOM      3  C   UNL     1       8.636  -0.293   5.623  0.00  0.00    +0.000 A 
ATOM      4  C   UNL     1       8.597  -1.638   5.934  0.00  0.00    +0.000 A 
ATOM      5  C   UNL     1       8.045  -2.533   5.023  0.00  0.00    +0.000 A 
ATOM      6  C   UNL     1       7.488  -2.109   3.790  0.00  0.00    +0.000 A 
ENDROOT
BRANCH   1  11
ATOM      7  C   UNL     1       5.324   1.772   1.496  0.00  0.00    +0.000 A 
ATOM      8  C   UNL     1       5.253   1.169   0.242  0.00  0.00    +0.000 A 
ATOM      9  C   UNL     1       5.924  -0.029   0.021  0.00  0.00    +0.000 A 
ATOM     10  C   UNL     1       6.675  -0.622   1.046  0.00  0.00    +0.000 A 
ATOM     11  C   UNL     1       6.720  -0.088   2.343  0.00  0.00    +0.000 A 
ATOM     12  C   UNL     1       6.025   1.130   2.532  0.00  0.00    +0.000 A 
BRANCH   7  13
ATOM     13  C   UNL     1       4.706   3.095   1.785  0.00  0.00    +0.000 C 
ATOM     14  O   UNL     1       4.812   3.668   2.859  0.00  0.00    +0.000 OA
BRANCH  13  16
ATOM     15  C   UNL     1       3.460   4.853   0.889  0.00  0.00    +0.000 C 
ATOM     16  O   UNL     1       4.047   3.565   0.697  0.00  0.00    +0.000 OA
ENDBRANCH  13  16
ENDBRANCH   7  13
ENDBRANCH   1  11
BRANCH   6  17
ATOM     17  C   UNL     1       6.975  -3.161   2.819  0.00  0.00    +0.000 C 
BRANCH  17  18
ATOM     18  N   UNL     1       7.103  -4.538   3.262  0.00  0.00    +0.000 N 
ATOM     19  C   UNL     1       8.242  -5.272   3.003  0.00  0.00    +0.000 C 
ATOM     20  O   UNL     1       9.198  -4.842   2.369  0.00  0.00    +0.000 OA
ATOM     21  H   UNL     1       6.316  -4.964   3.730  0.00  0.00    +0.000 HD
BRANCH  19  22
ATOM     22  C   UNL     1       8.225  -6.677   3.581  0.00  0.00    +0.000 C 
BRANCH  22  23
ATOM     23  C   UNL     1       7.703  -7.711   2.613  0.00  0.00    +0.000 A 
ATOM     24  C   UNL     1       8.315  -7.883   1.362  0.00  0.00    +0.000 A 
ATOM     25  C   UNL     1       7.862  -8.837   0.443  0.00  0.00    +0.000 A 
ATOM     26  C   UNL     1       6.790  -9.636   0.840  0.00  0.00    +0.000 A 
ATOM     27  N   UNL     1       6.114 -10.641   0.198  0.00  0.00    +0.000 N 
ATOM     28  N   UNL     1       5.157 -11.224   0.942  0.00  0.00    +0.000 NA
ATOM     29  C   UNL     1       5.204 -10.543   2.091  0.00  0.00    +0.000 A 
ATOM     30  C   UNL     1       6.182  -9.524   2.083  0.00  0.00    +0.000 A 
ATOM     31  C   UNL     1       6.627  -8.539   2.983  0.00  0.00    +0.000 A 
ATOM     32  H   UNL     1       6.262 -10.979  -0.746  0.00  0.00    +0.000 HD
ENDBRANCH  22  23
ENDBRANCH  19  22
ENDBRANCH  17  18
ENDBRANCH   6  17
TORSDOF 7
