REMARK  Name = 
REMARK  6 active torsions:
REMARK  status: ('A' for Active; 'I' for Inactive)
REMARK    1  A    between atoms: C_1  and  O_2
REMARK    2  A    between atoms: O_2  and  C_3
REMARK    3  A    between atoms: C_3  and  C_5
REMARK    4  A    between atoms: C_9  and  C_10
REMARK    5  A    between atoms: N_12  and  C_13
REMARK    6  A    between atoms: C_17  and  N_18
REMARK                            x       y       z     vdW  Elec       q    Type
REMARK                         _______ _______ _______ _____ _____    ______ ____
ROOT
ATOM      1  C   UNL     1      10.040   0.205   0.548  0.00  0.00    +0.000 C 
ATOM      2  O   UNL     1      11.130  -0.358   0.572  0.00  0.00    +0.000 OA
ATOM      3  N   UNL     1       9.826   1.484   0.062  0.00  0.00    +0.000 N 
ATOM      4  H   UNL     1       8.946   1.916   0.315  0.00  0.00    +0.000 HD
ENDROOT
BRANCH   1   9
ATOM      5  C   UNL     1       4.688  -0.860   0.643  0.00  0.00    +0.000 A 
ATOM      6  C   UNL     1       5.317   0.032  -0.233  0.00  0.00    +0.000 A 
ATOM      7  C   UNL     1       6.700   0.269  -0.161  0.00  0.00    +0.000 A 
ATOM      8  C   UNL     1       7.475  -0.391   0.817  0.00  0.00    +0.000 A 
ATOM      9  C   UNL     1       8.873  -0.439   1.147  0.00  0.00    +0.000 A 
ATOM     10  C   UNL     1       8.996  -1.337   2.197  0.00  0.00    +0.000 A 
ATOM     11  N   UNL     1       7.761  -1.815   2.518  0.00  0.00    +0.000 N 
ATOM     12  C   UNL     1       6.815  -1.273   1.683  0.00  0.00    +0.000 A 
ATOM     13  C   UNL     1       5.437  -1.522   1.624  0.00  0.00    +0.000 A 
ATOM     14  H   UNL     1       7.571  -2.500   3.239  0.00  0.00    +0.000 HD
BRANCH   5  15
ATOM     15  C   UNL     1       3.230  -1.160   0.562  0.00  0.00    +0.000 C 
ATOM     16  O   UNL     1       2.647  -1.912   1.326  0.00  0.00    +0.000 OA
BRANCH  15  18
ATOM     17  C   UNL     1       1.277  -0.729  -0.659  0.00  0.00    +0.000 C 
ATOM     18  O   UNL     1       2.672  -0.487  -0.475  0.00  0.00    +0.000 OA
ENDBRANCH  15  18
ENDBRANCH   5  15
ENDBRANCH   1   9
BRANCH   3  19
ATOM     19  C   UNL     1      10.816   2.311  -0.520  0.00  0.00    +0.000 A 
ATOM     20  C   UNL     1      12.031   1.822  -1.008  0.00  0.00    +0.000 A 
ATOM     21  C   UNL     1      12.992   2.688  -1.532  0.00  0.00    +0.000 A 
ATOM     22  F   UNL     1      14.152   2.152  -1.937  0.00  0.00    +0.000 F 
ATOM     23  C   UNL     1      12.779   4.064  -1.555  0.00  0.00    +0.000 A 
ATOM     24  C   UNL     1      11.559   4.549  -1.083  0.00  0.00    +0.000 A 
ATOM     25  F   UNL     1      11.269   5.857  -1.125  0.00  0.00    +0.000 F 
ATOM     26  C   UNL     1      10.572   3.683  -0.599  0.00  0.00    +0.000 A 
BRANCH  23  27
ATOM     27  N   UNL     1      13.779   4.939  -2.034  0.00  0.00    +0.000 N 
ATOM     28  C   UNL     1      14.753   4.662  -2.968  0.00  0.00    +0.000 A 
ATOM     29  C   UNL     1      15.490   5.814  -3.103  0.00  0.00    +0.000 A 
ATOM     30  N   UNL     1      15.018   6.790  -2.273  0.00  0.00    +0.000 NA
ATOM     31  C   UNL     1      13.996   6.245  -1.651  0.00  0.00    +0.000 A 
ENDBRANCH  23  27
ENDBRANCH   3  19
TORSDOF 5
