REMARK  Name = 
REMARK  3 active torsions:
REMARK  status: ('A' for Active; 'I' for Inactive)
REMARK    1  A    between atoms: C_2  and  C_3
REMARK    2  A    between atoms: C_3  and  C_4
REMARK    3  A    between atoms: C_18  and  C_19
REMARK                            x       y       z     vdW  Elec       q    Type
REMARK                         _______ _______ _______ _____ _____    ______ ____
ROOT
ATOM      1  O   UNL     1       1.002  -0.297   0.117  0.00  0.00    +0.000 OA
ATOM      2  C   UNL     1       2.224  -0.209  -0.017  0.00  0.00    +0.000 C 
ATOM      3  N   UNL     1       3.077  -1.263  -0.168  0.00  0.00    +0.000 N 
ATOM      4  C   UNL     1       2.730  -2.594  -0.286  0.00  0.00    +0.000 A 
ATOM      5  N   UNL     1       3.731  -3.461  -0.061  0.00  0.00    +0.000 NA
ATOM      6  C   UNL     1       3.442  -4.777  -0.123  0.00  0.00    +0.000 A 
ATOM      7  C   UNL     1       2.182  -5.228  -0.471  0.00  0.00    +0.000 A 
ATOM      8  C   UNL     1       1.242  -4.263  -0.726  0.00  0.00    +0.000 A 
ATOM      9  N   UNL     1       1.491  -2.951  -0.626  0.00  0.00    +0.000 NA
ATOM     10  H   UNL     1       4.079  -1.103  -0.110  0.00  0.00    +0.000 HD
ENDROOT
BRANCH   6  11
ATOM     11  C   UNL     1       4.549  -5.694   0.211  0.00  0.00    +0.000 A 
ATOM     12  C   UNL     1       5.545  -5.318   1.132  0.00  0.00    +0.000 A 
ATOM     13  C   UNL     1       6.594  -6.182   1.443  0.00  0.00    +0.000 A 
ATOM     14  F   UNL     1       7.527  -5.794   2.322  0.00  0.00    +0.000 F 
ATOM     15  C   UNL     1       6.689  -7.434   0.857  0.00  0.00    +0.000 A 
ATOM     16  C   UNL     1       5.713  -7.817  -0.046  0.00  0.00    +0.000 A 
ATOM     17  F   UNL     1       5.784  -9.021  -0.628  0.00  0.00    +0.000 F 
ATOM     18  C   UNL     1       4.655  -6.970  -0.369  0.00  0.00    +0.000 A 
ENDBRANCH   6  11
BRANCH   2  19
ATOM     19  C   UNL     1       2.851   1.177   0.029  0.00  0.00    +0.000 C 
BRANCH  19  20
ATOM     20  C   UNL     1       4.357   1.347  -0.076  0.00  0.00    +0.000 A 
ATOM     21  N   UNL     1       5.100   0.284  -0.185  0.00  0.00    +0.000 NA
ATOM     22  N   UNL     1       6.444   0.419  -0.274  0.00  0.00    +0.000 N 
ATOM     23  C   UNL     1       7.136   1.601  -0.237  0.00  0.00    +0.000 A 
ATOM     24  O   UNL     1       8.359   1.649  -0.313  0.00  0.00    +0.000 OA
ATOM     25  C   UNL     1       6.325   2.821  -0.107  0.00  0.00    +0.000 A 
ATOM     26  C   UNL     1       6.952   4.071  -0.070  0.00  0.00    +0.000 A 
ATOM     27  C   UNL     1       6.182   5.227   0.025  0.00  0.00    +0.000 A 
ATOM     28  C   UNL     1       4.791   5.132   0.086  0.00  0.00    +0.000 A 
ATOM     29  C   UNL     1       4.164   3.880   0.059  0.00  0.00    +0.000 A 
ATOM     30  C   UNL     1       4.935   2.716  -0.037  0.00  0.00    +0.000 A 
ATOM     31  H   UNL     1       6.988  -0.432  -0.379  0.00  0.00    +0.000 HD
ENDBRANCH  19  20
ENDBRANCH   2  19
TORSDOF 3
