REMARK  Name = 
REMARK  8 active torsions:
REMARK  status: ('A' for Active; 'I' for Inactive)
REMARK    1  A    between atoms: C_1  and  C_2
REMARK    2  A    between atoms: C_5  and  C_6
REMARK    3  A    between atoms: N_8  and  C_9
REMARK    4  A    between atoms: N_8  and  C_13
REMARK    5  A    between atoms: C_9  and  C_10
REMARK    6  A    between atoms: C_13  and  C_14
REMARK    7  A    between atoms: C_18  and  O_19
REMARK    8  A    between atoms: O_19  and  C_20
REMARK                            x       y       z     vdW  Elec       q    Type
REMARK                         _______ _______ _______ _____ _____    ______ ____
ROOT
ATOM      1  C   UNL     1       5.339  -3.567   0.834  0.00  0.00    +0.000 C 
ATOM      2  O   UNL     1       5.505  -2.350   0.938  0.00  0.00    +0.000 OA
ATOM      3  N   UNL     1       6.452  -4.382   0.526  0.00  0.00    +0.000 N 
ENDROOT
BRANCH   1   8
ATOM      4  C   UNL     1       1.608  -0.745   3.939  0.00  0.00    +0.000 C 
ATOM      5  C   UNL     1       1.857  -2.068   3.284  0.00  0.00    +0.000 A 
ATOM      6  C   UNL     1       2.950  -2.362   2.547  0.00  0.00    +0.000 A 
ATOM      7  N   UNL     1       3.029  -3.588   1.870  0.00  0.00    +0.000 N 
ATOM      8  C   UNL     1       4.018  -4.131   1.044  0.00  0.00    +0.000 A 
ATOM      9  C   UNL     1       3.352  -5.175   0.418  0.00  0.00    +0.000 A 
ATOM     10  N   UNL     1       2.158  -5.467   1.013  0.00  0.00    +0.000 NA
ATOM     11  C   UNL     1       1.985  -4.514   1.898  0.00  0.00    +0.000 A 
ATOM     12  C   UNL     1       0.898  -4.263   2.777  0.00  0.00    +0.000 A 
ATOM     13  C   UNL     1       0.829  -3.092   3.436  0.00  0.00    +0.000 A 
ENDBRANCH   1   8
BRANCH   3  14
ATOM     14  C   UNL     1       7.688  -3.679   0.122  0.00  0.00    +0.000 C 
BRANCH  14  15
ATOM     15  C   UNL     1       8.825  -3.596   1.144  0.00  0.00    +0.000 C 
ATOM     16  N   UNL     1       8.533  -3.914   2.435  0.00  0.00    +0.000 N 
ATOM     17  O   UNL     1       9.951  -3.207   0.841  0.00  0.00    +0.000 OA
ATOM     18  H   UNL     1       7.693  -4.429   2.660  0.00  0.00    +0.000 HD
ATOM     19  H   UNL     1       9.308  -3.959   3.083  0.00  0.00    +0.000 HD
ENDBRANCH  14  15
ENDBRANCH   3  14
BRANCH   3  20
ATOM     20  C   UNL     1       6.453  -5.834   0.330  0.00  0.00    +0.000 C 
BRANCH  20  21
ATOM     21  C   UNL     1       7.278  -6.668   1.286  0.00  0.00    +0.000 A 
ATOM     22  C   UNL     1       8.561  -7.113   0.935  0.00  0.00    +0.000 A 
ATOM     23  C   UNL     1       9.231  -8.044   1.734  0.00  0.00    +0.000 A 
ATOM     24  C   UNL     1       8.612  -8.569   2.868  0.00  0.00    +0.000 A 
ATOM     25  C   UNL     1       7.333  -8.146   3.223  0.00  0.00    +0.000 A 
ATOM     26  C   UNL     1       6.701  -7.142   2.475  0.00  0.00    +0.000 A 
BRANCH  25  27
ATOM     27  O   UNL     1       6.781  -8.769   4.322  0.00  0.00    +0.000 OA
BRANCH  27  28
ATOM     28  C   UNL     1       5.419  -8.967   4.389  0.00  0.00    +0.000 A 
ATOM     29  C   UNL     1       4.590  -9.180   3.284  0.00  0.00    +0.000 A 
ATOM     30  C   UNL     1       3.207  -9.257   3.453  0.00  0.00    +0.000 A 
ATOM     31  C   UNL     1       2.658  -9.205   4.732  0.00  0.00    +0.000 A 
ATOM     32  C   UNL     1       3.491  -9.102   5.845  0.00  0.00    +0.000 A 
ATOM     33  C   UNL     1       4.871  -8.985   5.673  0.00  0.00    +0.000 A 
ENDBRANCH  27  28
ENDBRANCH  25  27
ENDBRANCH  20  21
ENDBRANCH   3  20
TORSDOF 7
