REMARK  Name = 
REMARK  3 active torsions:
REMARK  status: ('A' for Active; 'I' for Inactive)
REMARK    1  A    between atoms: C_2  and  C_18
REMARK    2  A    between atoms: N_3  and  S_4
REMARK    3  A    between atoms: S_4  and  C_7
REMARK                            x       y       z     vdW  Elec       q    Type
REMARK                         _______ _______ _______ _____ _____    ______ ____
ROOT
ATOM      1  O   UNL     1       0.928   0.019   0.222  0.00  0.00    +0.000 OA
ATOM      2  C   UNL     1       2.138  -0.065   0.064  0.00  0.00    +0.000 C 
ATOM      3  N   UNL     1       2.760  -1.097  -0.648  0.00  0.00    +0.000 N 
ATOM      4  H   UNL     1       3.766  -1.240  -0.639  0.00  0.00    +0.000 HD
ENDROOT
BRANCH   2   5
ATOM      5  C   UNL     1       3.030   0.990   0.612  0.00  0.00    +0.000 A 
ATOM      6  C   UNL     1       2.602   1.717   1.736  0.00  0.00    +0.000 A 
ATOM      7  C   UNL     1       3.406   2.723   2.287  0.00  0.00    +0.000 A 
ATOM      8  C   UNL     1       4.645   3.019   1.718  0.00  0.00    +0.000 A 
ATOM      9  N   UNL     1       5.462   4.032   2.235  0.00  0.00    +0.000 N 
ATOM     10  C   UNL     1       6.675   4.317   1.668  0.00  0.00    +0.000 A 
ATOM     11  C   UNL     1       7.169   3.705   0.586  0.00  0.00    +0.000 A 
ATOM     12  C   UNL     1       6.361   2.633  -0.041  0.00  0.00    +0.000 A 
ATOM     13  O   UNL     1       6.766   2.035  -1.031  0.00  0.00    +0.000 OA
ATOM     14  C   UNL     1       5.054   2.301   0.580  0.00  0.00    +0.000 A 
ATOM     15  C   UNL     1       4.263   1.287   0.028  0.00  0.00    +0.000 A 
ATOM     16  H   UNL     1       5.200   4.499   3.095  0.00  0.00    +0.000 HD
ENDBRANCH   2   5
BRANCH   3  17
ATOM     17  S   UNL     1       1.949  -2.405  -1.291  0.00  0.00    +0.000 S 
ATOM     18  O   UNL     1       2.987  -3.284  -1.793  0.00  0.00    +0.000 OA
ATOM     19  O   UNL     1       0.973  -2.891  -0.343  0.00  0.00    +0.000 OA
BRANCH  17  20
ATOM     20  C   UNL     1       1.101  -1.731  -2.700  0.00  0.00    +0.000 A 
ATOM     21  C   UNL     1      -0.191  -1.206  -2.558  0.00  0.00    +0.000 A 
ATOM     22  C   UNL     1      -0.915  -0.773  -3.686  0.00  0.00    +0.000 A 
ATOM     23  C   UNL     1      -2.214  -0.246  -3.576  0.00  0.00    +0.000 A 
ATOM     24  C   UNL     1      -2.923   0.157  -4.711  0.00  0.00    +0.000 A 
ATOM     25  C   UNL     1      -2.347   0.042  -5.973  0.00  0.00    +0.000 A 
ATOM     26  C   UNL     1      -1.059  -0.476  -6.101  0.00  0.00    +0.000 A 
ATOM     27  C   UNL     1      -0.331  -0.888  -4.970  0.00  0.00    +0.000 A 
ATOM     28  C   UNL     1       0.961  -1.425  -5.078  0.00  0.00    +0.000 A 
ATOM     29  F   UNL     1       1.528  -1.566  -6.287  0.00  0.00    +0.000 F 
ATOM     30  C   UNL     1       1.678  -1.846  -3.963  0.00  0.00    +0.000 A 
ENDBRANCH  17  20
ENDBRANCH   3  17
TORSDOF 3
