REMARK  Name = 
REMARK  7 active torsions:
REMARK  status: ('A' for Active; 'I' for Inactive)
REMARK    1  A    between atoms: C_1  and  O_2
REMARK    2  A    between atoms: O_2  and  C_3
REMARK    3  A    between atoms: C_6  and  N_7
REMARK    4  A    between atoms: C_8  and  C_10
REMARK    5  A    between atoms: C_13  and  C_14
REMARK    6  A    between atoms: C_22  and  C_23
REMARK    7  A    between atoms: C_23  and  C_25
REMARK                            x       y       z     vdW  Elec       q    Type
REMARK                         _______ _______ _______ _____ _____    ______ ____
ROOT
ATOM      1  C   UNL     1       3.009   0.393   1.067  0.00  0.00    +0.000 A 
ATOM      2  C   UNL     1       2.590   0.015   2.342  0.00  0.00    +0.000 A 
ATOM      3  C   UNL     1       3.284   0.429   3.478  0.00  0.00    +0.000 A 
ATOM      4  C   UNL     1       4.430   1.215   3.385  0.00  0.00    +0.000 A 
ATOM      5  C   UNL     1       4.844   1.626   2.108  0.00  0.00    +0.000 A 
ATOM      6  C   UNL     1       4.116   1.251   0.952  0.00  0.00    +0.000 A 
ENDROOT
BRANCH   4   7
ATOM      7  N   UNL     1       5.182   1.595   4.522  0.00  0.00    +0.000 N 
ATOM      8  C   UNL     1       4.909   1.269   5.848  0.00  0.00    +0.000 C 
ATOM      9  O   UNL     1       3.935   0.640   6.247  0.00  0.00    +0.000 OA
ATOM     10  H   UNL     1       6.033   2.132   4.372  0.00  0.00    +0.000 HD
BRANCH   8  11
ATOM     11  C   UNL     1       5.908   1.717   6.790  0.00  0.00    +0.000 A 
ATOM     12  N   UNL     1       6.961   2.457   6.516  0.00  0.00    +0.000 NA
ATOM     13  N   UNL     1       7.684   2.594   7.682  0.00  0.00    +0.000 NA
ATOM     14  C   UNL     1       7.067   1.929   8.643  0.00  0.00    +0.000 A 
ATOM     15  N   UNL     1       5.917   1.405   8.123  0.00  0.00    +0.000 N 
ATOM     16  H   UNL     1       5.241   0.836   8.620  0.00  0.00    +0.000 HD
BRANCH  14  17
ATOM     17  C   UNL     1       7.498   1.717  10.021  0.00  0.00    +0.000 A 
ATOM     18  C   UNL     1       8.721   2.202  10.470  0.00  0.00    +0.000 A 
ATOM     19  C   UNL     1       9.101   1.935  11.783  0.00  0.00    +0.000 A 
ATOM     20  C   UNL     1       8.252   1.204  12.604  0.00  0.00    +0.000 A 
ATOM     21  C   UNL     1       7.049   0.762  12.073  0.00  0.00    +0.000 A 
ATOM     22  N   UNL     1       6.649   0.997  10.798  0.00  0.00    +0.000 NA
ENDBRANCH  14  17
ENDBRANCH   8  11
ENDBRANCH   4   7
BRANCH   6  23
ATOM     23  C   UNL     1       4.594   1.768  -0.369  0.00  0.00    +0.000 C 
ATOM     24  O   UNL     1       5.806   1.878  -0.549  0.00  0.00    +0.000 OA
BRANCH  23  25
ATOM     25  C   UNL     1       3.659   2.199  -1.455  0.00  0.00    +0.000 A 
ATOM     26  C   UNL     1       4.095   2.148  -2.787  0.00  0.00    +0.000 A 
ATOM     27  C   UNL     1       3.246   2.546  -3.827  0.00  0.00    +0.000 A 
ATOM     28  C   UNL     1       1.959   2.999  -3.543  0.00  0.00    +0.000 A 
ATOM     29  C   UNL     1       1.523   3.071  -2.221  0.00  0.00    +0.000 A 
ATOM     30  C   UNL     1       2.374   2.688  -1.180  0.00  0.00    +0.000 A 
ENDBRANCH  23  25
ENDBRANCH   6  23
BRANCH   1  32
ATOM     31  C   UNL     1       1.309  -0.949   0.065  0.00  0.00    +0.000 C 
ATOM     32  O   UNL     1       2.405  -0.051  -0.079  0.00  0.00    +0.000 OA
ENDBRANCH   1  32
TORSDOF 6
