REMARK  Name = 
REMARK  6 active torsions:
REMARK  status: ('A' for Active; 'I' for Inactive)
REMARK    1  A    between atoms: C_2  and  C_18
REMARK    2  A    between atoms: N_3  and  C_4
REMARK    3  A    between atoms: C_8  and  C_9
REMARK    4  A    between atoms: C_9  and  O_10
REMARK    5  A    between atoms: O_10  and  C_11
REMARK    6  A    between atoms: C_23  and  C_24
REMARK                            x       y       z     vdW  Elec       q    Type
REMARK                         _______ _______ _______ _____ _____    ______ ____
ROOT
ATOM      1  O   UNL     1       1.270   0.924  -0.339  0.00  0.00    +0.000 OA
ATOM      2  C   UNL     1       2.269   0.232  -0.205  0.00  0.00    +0.000 C 
ATOM      3  N   UNL     1       2.740  -0.698  -1.112  0.00  0.00    +0.000 N 
ATOM      4  H   UNL     1       3.362  -1.426  -0.783  0.00  0.00    +0.000 HD
ENDROOT
BRANCH   3   5
ATOM      5  C   UNL     1       2.068  -1.036  -2.290  0.00  0.00    +0.000 A 
ATOM      6  C   UNL     1       1.415  -0.102  -3.062  0.00  0.00    +0.000 A 
ATOM      7  C   UNL     1       0.752  -0.595  -4.158  0.00  0.00    +0.000 A 
ATOM      8  N   UNL     1       0.689  -1.903  -4.456  0.00  0.00    +0.000 NA
ATOM      9  C   UNL     1       1.360  -2.742  -3.640  0.00  0.00    +0.000 A 
ATOM     10  N   UNL     1       2.100  -2.345  -2.584  0.00  0.00    +0.000 NA
BRANCH   9  11
ATOM     11  C   UNL     1       1.174  -4.229  -3.853  0.00  0.00    +0.000 C 
BRANCH  11  12
ATOM     12  O   UNL     1       2.157  -4.721  -4.761  0.00  0.00    +0.000 OA
BRANCH  12  13
ATOM     13  C   UNL     1       2.055  -6.037  -5.118  0.00  0.00    +0.000 A 
ATOM     14  C   UNL     1       1.139  -6.964  -4.616  0.00  0.00    +0.000 A 
ATOM     15  C   UNL     1       1.152  -8.285  -5.077  0.00  0.00    +0.000 A 
ATOM     16  C   UNL     1       2.079  -8.683  -6.038  0.00  0.00    +0.000 A 
ATOM     17  C   UNL     1       2.995  -7.763  -6.540  0.00  0.00    +0.000 A 
ATOM     18  C   UNL     1       2.982  -6.445  -6.082  0.00  0.00    +0.000 A 
ENDBRANCH  12  13
ENDBRANCH  11  12
ENDBRANCH   9  11
ENDBRANCH   3   5
BRANCH   2  19
ATOM     19  C   UNL     1       3.059   0.320   1.041  0.00  0.00    +0.000 A 
ATOM     20  C   UNL     1       4.427   0.613   0.906  0.00  0.00    +0.000 A 
ATOM     21  C   UNL     1       5.204   0.805   2.034  0.00  0.00    +0.000 A 
ATOM     22  C   UNL     1       4.590   0.709   3.267  0.00  0.00    +0.000 A 
ATOM     23  N   UNL     1       3.282   0.413   3.431  0.00  0.00    +0.000 NA
ATOM     24  C   UNL     1       2.503   0.208   2.324  0.00  0.00    +0.000 A 
BRANCH  24  25
ATOM     25  C   UNL     1       1.107  -0.175   2.660  0.00  0.00    +0.000 A 
ATOM     26  C   UNL     1       0.490   0.329   3.820  0.00  0.00    +0.000 A 
ATOM     27  C   UNL     1      -0.799  -0.070   4.150  0.00  0.00    +0.000 A 
ATOM     28  N   UNL     1      -1.528  -0.929   3.413  0.00  0.00    +0.000 NA
ATOM     29  C   UNL     1      -0.933  -1.416   2.307  0.00  0.00    +0.000 A 
ATOM     30  C   UNL     1       0.358  -1.090   1.908  0.00  0.00    +0.000 A 
ENDBRANCH  24  25
ENDBRANCH   2  19
TORSDOF 6
