REMARK  Name = 
REMARK  8 active torsions:
REMARK  status: ('A' for Active; 'I' for Inactive)
REMARK    1  A    between atoms: C_1  and  O_2
REMARK    2  A    between atoms: O_2  and  C_3
REMARK    3  A    between atoms: C_3  and  C_5
REMARK    4  A    between atoms: C_10  and  C_11
REMARK    5  A    between atoms: C_13  and  C_14
REMARK    6  A    between atoms: C_17  and  C_18
REMARK    7  A    between atoms: C_20  and  C_21
REMARK    8  A    between atoms: C_21  and  O_22
REMARK                            x       y       z     vdW  Elec       q    Type
REMARK                         _______ _______ _______ _____ _____    ______ ____
ROOT
ATOM      1  C   UNL     1       4.540  -1.143  -0.470  0.00  0.00    +0.000 A 
ATOM      2  C   UNL     1       5.249  -0.591   0.611  0.00  0.00    +0.000 A 
ATOM      3  C   UNL     1       6.637  -0.436   0.525  0.00  0.00    +0.000 A 
ATOM      4  C   UNL     1       7.341  -0.839  -0.610  0.00  0.00    +0.000 A 
ATOM      5  C   UNL     1       6.636  -1.413  -1.668  0.00  0.00    +0.000 A 
ATOM      6  C   UNL     1       5.237  -1.559  -1.625  0.00  0.00    +0.000 A 
ATOM      7  C   UNL     1       4.535  -2.105  -2.839  0.00  0.00    +0.000 C 
ATOM      8  N   UNL     1       8.730  -0.669  -0.745  0.00  0.00    +0.000 NA
ATOM      9  C   UNL     1       9.371  -0.098   0.224  0.00  0.00    +0.000 A 
ATOM     10  N   UNL     1       8.750   0.330   1.376  0.00  0.00    +0.000 N 
ATOM     11  C   UNL     1       7.408   0.185   1.616  0.00  0.00    +0.000 A 
ATOM     12  O   UNL     1       6.877   0.550   2.659  0.00  0.00    +0.000 OA
ATOM     13  H   UNL     1       9.320   0.757   2.098  0.00  0.00    +0.000 HD
ENDROOT
BRANCH   9  14
ATOM     14  C   UNL     1      10.844   0.134   0.174  0.00  0.00    +0.000 A 
ATOM     15  C   UNL     1      11.572  -0.220  -0.951  0.00  0.00    +0.000 A 
ATOM     16  C   UNL     1      12.957  -0.053  -0.923  0.00  0.00    +0.000 A 
ATOM     17  C   UNL     1      13.600   0.443   0.222  0.00  0.00    +0.000 A 
ATOM     18  C   UNL     1      12.752   0.796   1.281  0.00  0.00    +0.000 A 
ATOM     19  N   UNL     1      11.399   0.663   1.292  0.00  0.00    +0.000 NA
BRANCH  17  20
ATOM     20  C   UNL     1      15.075   0.532   0.327  0.00  0.00    +0.000 A 
ATOM     21  C   UNL     1      15.911  -0.411  -0.308  0.00  0.00    +0.000 A 
ATOM     22  C   UNL     1      17.311  -0.399  -0.159  0.00  0.00    +0.000 A 
ATOM     23  C   UNL     1      17.893   0.612   0.611  0.00  0.00    +0.000 A 
ATOM     24  C   UNL     1      17.096   1.567   1.235  0.00  0.00    +0.000 A 
ATOM     25  C   UNL     1      15.706   1.527   1.094  0.00  0.00    +0.000 A 
BRANCH  22  26
ATOM     26  C   UNL     1      18.186  -1.411  -0.854  0.00  0.00    +0.000 C 
BRANCH  26  27
ATOM     27  O   UNL     1      17.540  -2.672  -0.971  0.00  0.00    +0.000 OA
ATOM     28  H   UNL     1      17.268  -2.931  -0.074  0.00  0.00    +0.000 HD
ENDBRANCH  26  27
ENDBRANCH  22  26
ENDBRANCH  17  20
ENDBRANCH   9  14
BRANCH   1  29
ATOM     29  C   UNL     1       3.056  -1.273  -0.384  0.00  0.00    +0.000 C 
ATOM     30  O   UNL     1       2.405  -2.155  -0.915  0.00  0.00    +0.000 OA
BRANCH  29  32
ATOM     31  C   UNL     1       1.125  -0.212   0.385  0.00  0.00    +0.000 C 
ATOM     32  O   UNL     1       2.553  -0.228   0.321  0.00  0.00    +0.000 OA
ENDBRANCH  29  32
ENDBRANCH   1  29
TORSDOF 6
