REMARK  Name = 
REMARK  7 active torsions:
REMARK  status: ('A' for Active; 'I' for Inactive)
REMARK    1  A    between atoms: C_1  and  C_2
REMARK    2  A    between atoms: C_5  and  C_6
REMARK    3  A    between atoms: N_8  and  C_9
REMARK    4  A    between atoms: C_11  and  S_12
REMARK    5  A    between atoms: S_12  and  N_15
REMARK    6  A    between atoms: N_15  and  C_16
REMARK    7  A    between atoms: C_25  and  C_26
REMARK                            x       y       z     vdW  Elec       q    Type
REMARK                         _______ _______ _______ _____ _____    ______ ____
ROOT
ATOM      1  C   UNL     1       6.097  -5.962   0.056  0.00  0.00    +0.000 A 
ATOM      2  C   UNL     1       5.096  -6.577  -0.711  0.00  0.00    +0.000 A 
ATOM      3  C   UNL     1       4.815  -7.937  -0.574  0.00  0.00    +0.000 A 
ATOM      4  C   UNL     1       5.613  -8.725   0.233  0.00  0.00    +0.000 A 
ATOM      5  F   UNL     1       5.364 -10.027   0.416  0.00  0.00    +0.000 F 
ATOM      6  C   UNL     1       6.677  -8.154   0.929  0.00  0.00    +0.000 A 
ATOM      7  C   UNL     1       6.924  -6.768   0.866  0.00  0.00    +0.000 A 
ATOM      8  C   UNL     1       8.018  -6.200   1.730  0.00  0.00    +0.000 C 
ENDROOT
BRANCH   1  11
ATOM      9  C   UNL     1       5.287  -3.641  -0.340  0.00  0.00    +0.000 C 
ATOM     10  O   UNL     1       4.181  -3.985  -0.738  0.00  0.00    +0.000 OA
ATOM     11  N   UNL     1       6.258  -4.551   0.067  0.00  0.00    +0.000 N 
ATOM     12  H   UNL     1       7.064  -4.183   0.548  0.00  0.00    +0.000 HD
BRANCH   9  17
ATOM     13  C   UNL     1       1.311  -0.005  -1.532  0.00  0.00    +0.000 C 
ATOM     14  C   UNL     1       2.744  -0.060  -1.104  0.00  0.00    +0.000 A 
ATOM     15  C   UNL     1       3.403  -1.212  -0.884  0.00  0.00    +0.000 A 
ATOM     16  N   UNL     1       4.747  -1.198  -0.491  0.00  0.00    +0.000 N 
ATOM     17  C   UNL     1       5.629  -2.242  -0.223  0.00  0.00    +0.000 A 
ATOM     18  C   UNL     1       6.806  -1.607   0.131  0.00  0.00    +0.000 A 
ATOM     19  N   UNL     1       6.689  -0.244   0.092  0.00  0.00    +0.000 NA
ATOM     20  C   UNL     1       5.454  -0.014  -0.295  0.00  0.00    +0.000 A 
ATOM     21  C   UNL     1       4.762   1.209  -0.534  0.00  0.00    +0.000 A 
ATOM     22  C   UNL     1       3.472   1.191  -0.922  0.00  0.00    +0.000 A 
ENDBRANCH   9  17
ENDBRANCH   1  11
BRANCH   3  23
ATOM     23  S   UNL     1       3.409  -8.619  -1.395  0.00  0.00    +0.000 S 
ATOM     24  O   UNL     1       3.072  -7.754  -2.507  0.00  0.00    +0.000 OA
ATOM     25  O   UNL     1       3.654 -10.026  -1.614  0.00  0.00    +0.000 OA
BRANCH  23  26
ATOM     26  N   UNL     1       2.187  -8.518  -0.226  0.00  0.00    +0.000 N 
ATOM     27  H   UNL     1       2.231  -9.282   0.446  0.00  0.00    +0.000 HD
BRANCH  26  28
ATOM     28  C   UNL     1       1.783  -7.239   0.249  0.00  0.00    +0.000 A 
ATOM     29  C   UNL     1       0.833  -6.510  -0.466  0.00  0.00    +0.000 A 
ATOM     30  C   UNL     1       0.441  -5.245  -0.021  0.00  0.00    +0.000 A 
ATOM     31  C   UNL     1       1.017  -4.700   1.126  0.00  0.00    +0.000 A 
ATOM     32  C   UNL     1       1.975  -5.425   1.836  0.00  0.00    +0.000 A 
ATOM     33  C   UNL     1       2.352  -6.699   1.404  0.00  0.00    +0.000 A 
ENDBRANCH  26  28
ENDBRANCH  23  26
ENDBRANCH   3  23
TORSDOF 5
