REMARK  Name = 
REMARK  6 active torsions:
REMARK  status: ('A' for Active; 'I' for Inactive)
REMARK    1  A    between atoms: C_1  and  N_2
REMARK    2  A    between atoms: C_10  and  N_11
REMARK    3  A    between atoms: N_14  and  C_15
REMARK    4  A    between atoms: C_15  and  C_16
REMARK    5  A    between atoms: C_18  and  O_19
REMARK    6  A    between atoms: O_19  and  C_20
REMARK                            x       y       z     vdW  Elec       q    Type
REMARK                         _______ _______ _______ _____ _____    ______ ____
ROOT
ATOM      1  N   UNL     1       3.101   4.926   0.338  0.00  0.00    +0.000 N 
ATOM      2  C   UNL     1       3.800   6.117   0.393  0.00  0.00    +0.000 C 
ATOM      3  O   UNL     1       5.004   6.250   0.563  0.00  0.00    +0.000 OA
ATOM      4  N   UNL     1       2.985   7.214   0.245  0.00  0.00    +0.000 N 
ATOM      5  H   UNL     1       2.099   4.994   0.246  0.00  0.00    +0.000 HD
ATOM      6  H   UNL     1       2.042   7.114  -0.093  0.00  0.00    +0.000 HD
ENDROOT
BRANCH   1  16
ATOM      7  C   UNL     1       1.037   0.145   0.127  0.00  0.00    +0.000 C 
ATOM      8  N   UNL     1       2.474   0.037   0.278  0.00  0.00    +0.000 N 
ATOM      9  C   UNL     1       3.047  -1.232   0.294  0.00  0.00    +0.000 C 
ATOM     10  O   UNL     1       2.455  -2.265  -0.016  0.00  0.00    +0.000 OA
ATOM     11  C   UNL     1       4.452  -1.268   0.877  0.00  0.00    +0.000 C 
ATOM     12  O   UNL     1       5.317  -0.198   0.568  0.00  0.00    +0.000 OA
ATOM     13  C   UNL     1       4.686   1.014   0.559  0.00  0.00    +0.000 A 
ATOM     14  C   UNL     1       5.538   2.108   0.650  0.00  0.00    +0.000 A 
ATOM     15  C   UNL     1       5.024   3.400   0.595  0.00  0.00    +0.000 A 
ATOM     16  C   UNL     1       3.655   3.622   0.440  0.00  0.00    +0.000 A 
ATOM     17  C   UNL     1       2.796   2.509   0.362  0.00  0.00    +0.000 A 
ATOM     18  C   UNL     1       3.302   1.191   0.419  0.00  0.00    +0.000 A 
ENDBRANCH   1  16
BRANCH   4  19
ATOM     19  C   UNL     1       3.546   8.552   0.290  0.00  0.00    +0.000 C 
BRANCH  19  20
ATOM     20  C   UNL     1       3.655   9.100   1.696  0.00  0.00    +0.000 A 
ATOM     21  C   UNL     1       4.788   8.838   2.462  0.00  0.00    +0.000 A 
ATOM     22  C   UNL     1       4.927   9.461   3.701  0.00  0.00    +0.000 A 
ATOM     23  C   UNL     1       3.880  10.226   4.197  0.00  0.00    +0.000 A 
ATOM     24  C   UNL     1       2.764  10.393   3.396  0.00  0.00    +0.000 A 
ATOM     25  N   UNL     1       2.635   9.866   2.157  0.00  0.00    +0.000 NA
BRANCH  22  26
ATOM     26  O   UNL     1       6.049   9.357   4.498  0.00  0.00    +0.000 OA
BRANCH  26  27
ATOM     27  C   UNL     1       7.274   9.191   3.886  0.00  0.00    +0.000 A 
ATOM     28  C   UNL     1       7.643   9.872   2.716  0.00  0.00    +0.000 A 
ATOM     29  C   UNL     1       8.849   9.571   2.083  0.00  0.00    +0.000 A 
ATOM     30  C   UNL     1       9.710   8.646   2.660  0.00  0.00    +0.000 A 
ATOM     31  F   UNL     1      10.858   8.344   2.039  0.00  0.00    +0.000 F 
ATOM     32  C   UNL     1       9.385   8.041   3.870  0.00  0.00    +0.000 A 
ATOM     33  F   UNL     1      10.238   7.178   4.439  0.00  0.00    +0.000 F 
ATOM     34  C   UNL     1       8.170   8.310   4.493  0.00  0.00    +0.000 A 
ENDBRANCH  26  27
ENDBRANCH  22  26
ENDBRANCH  19  20
ENDBRANCH   4  19
TORSDOF 5
