REMARK  Name = 
REMARK  6 active torsions:
REMARK  status: ('A' for Active; 'I' for Inactive)
REMARK    1  A    between atoms: C_1  and  O_2
REMARK    2  A    between atoms: O_2  and  C_3
REMARK    3  A    between atoms: C_5  and  C_6
REMARK    4  A    between atoms: C_14  and  N_15
REMARK    5  A    between atoms: C_16  and  C_18
REMARK    6  A    between atoms: C_23  and  N_24
REMARK                            x       y       z     vdW  Elec       q    Type
REMARK                         _______ _______ _______ _____ _____    ______ ____
ROOT
ATOM      1  N   UNL     1       4.471   1.571   0.689  0.00  0.00    +0.000 N 
ATOM      2  C   UNL     1       5.703   2.202   0.567  0.00  0.00    +0.000 C 
ATOM      3  O   UNL     1       6.789   1.721   0.869  0.00  0.00    +0.000 OA
ATOM      4  H   UNL     1       3.692   1.863   0.111  0.00  0.00    +0.000 HD
ENDROOT
BRANCH   1  10
ATOM      5  C   UNL     1       3.057  -0.328   1.274  0.00  0.00    +0.000 A 
ATOM      6  C   UNL     1       2.777  -1.409   2.125  0.00  0.00    +0.000 A 
ATOM      7  C   UNL     1       3.607  -1.743   3.212  0.00  0.00    +0.000 A 
ATOM      8  C   UNL     1       4.717  -0.920   3.447  0.00  0.00    +0.000 A 
ATOM      9  C   UNL     1       5.010   0.162   2.612  0.00  0.00    +0.000 A 
ATOM     10  C   UNL     1       4.201   0.455   1.514  0.00  0.00    +0.000 A 
BRANCH   7  11
ATOM     11  C   UNL     1       3.332  -2.934   4.048  0.00  0.00    +0.000 A 
ATOM     12  C   UNL     1       2.803  -4.111   3.484  0.00  0.00    +0.000 A 
ATOM     13  C   UNL     1       2.565  -5.251   4.256  0.00  0.00    +0.000 A 
ATOM     14  C   UNL     1       2.865  -5.245   5.614  0.00  0.00    +0.000 A 
ATOM     15  C   UNL     1       3.387  -4.095   6.199  0.00  0.00    +0.000 A 
ATOM     16  C   UNL     1       3.609  -2.951   5.427  0.00  0.00    +0.000 A 
ENDBRANCH   7  11
BRANCH   5  18
ATOM     17  C   UNL     1       1.111  -0.776  -0.030  0.00  0.00    +0.000 C 
ATOM     18  O   UNL     1       2.290   0.004   0.178  0.00  0.00    +0.000 OA
ENDBRANCH   5  18
ENDBRANCH   1  10
BRANCH   2  19
ATOM     19  C   UNL     1       5.676   3.534  -0.100  0.00  0.00    +0.000 A 
ATOM     20  C   UNL     1       4.988   3.619  -1.325  0.00  0.00    +0.000 A 
ATOM     21  C   UNL     1       4.970   4.806  -2.057  0.00  0.00    +0.000 A 
ATOM     22  C   UNL     1       5.646   5.924  -1.585  0.00  0.00    +0.000 A 
ATOM     23  C   UNL     1       6.375   5.847  -0.398  0.00  0.00    +0.000 A 
ATOM     24  C   UNL     1       6.410   4.652   0.351  0.00  0.00    +0.000 A 
BRANCH  24  25
ATOM     25  N   UNL     1       7.206   4.631   1.526  0.00  0.00    +0.000 N 
ATOM     26  C   UNL     1       8.316   5.408   1.795  0.00  0.00    +0.000 A 
ATOM     27  N   UNL     1       8.824   5.105   2.968  0.00  0.00    +0.000 NA
ATOM     28  C   UNL     1       7.974   4.141   3.412  0.00  0.00    +0.000 A 
ATOM     29  N   UNL     1       6.940   3.877   2.610  0.00  0.00    +0.000 NA
ENDBRANCH  24  25
ENDBRANCH   2  19
TORSDOF 5
