REMARK  Name = 
REMARK  7 active torsions:
REMARK  status: ('A' for Active; 'I' for Inactive)
REMARK    1  A    between atoms: C_1  and  C_2
REMARK    2  A    between atoms: C_10  and  C_11
REMARK    3  A    between atoms: N_13  and  C_14
REMARK    4  A    between atoms: C_14  and  C_15
REMARK    5  A    between atoms: C_18  and  N_19
REMARK    6  A    between atoms: C_20  and  C_22
REMARK    7  A    between atoms: C_27  and  O_28
REMARK                            x       y       z     vdW  Elec       q    Type
REMARK                         _______ _______ _______ _____ _____    ______ ____
ROOT
ATOM      1  C   UNL     1      -1.309   3.462   0.180  0.00  0.00    +0.000 A 
ATOM      2  C   UNL     1      -1.771   2.143   0.168  0.00  0.00    +0.000 A 
ATOM      3  C   UNL     1      -3.137   1.868   0.032  0.00  0.00    +0.000 A 
ATOM      4  C   UNL     1      -4.068   2.900  -0.101  0.00  0.00    +0.000 A 
ATOM      5  C   UNL     1      -3.607   4.221  -0.084  0.00  0.00    +0.000 A 
ATOM      6  C   UNL     1      -2.241   4.500   0.059  0.00  0.00    +0.000 A 
ENDROOT
BRANCH   4   7
ATOM      7  N   UNL     1      -5.452   2.683  -0.279  0.00  0.00    +0.000 N 
ATOM      8  C   UNL     1      -6.119   1.475  -0.203  0.00  0.00    +0.000 C 
ATOM      9  O   UNL     1      -5.622   0.398   0.110  0.00  0.00    +0.000 OA
ATOM     10  H   UNL     1      -6.034   3.500  -0.441  0.00  0.00    +0.000 HD
BRANCH   8  11
ATOM     11  C   UNL     1      -7.575   1.490  -0.544  0.00  0.00    +0.000 A 
ATOM     12  C   UNL     1      -8.143   0.265  -0.936  0.00  0.00    +0.000 A 
ATOM     13  C   UNL     1      -9.502   0.168  -1.234  0.00  0.00    +0.000 A 
ATOM     14  C   UNL     1     -10.313   1.294  -1.133  0.00  0.00    +0.000 A 
ATOM     15  C   UNL     1      -9.765   2.521  -0.752  0.00  0.00    +0.000 A 
ATOM     16  C   UNL     1      -8.398   2.621  -0.468  0.00  0.00    +0.000 A 
BRANCH  16  17
ATOM     17  O   UNL     1      -7.883   3.839  -0.108  0.00  0.00    +0.000 OA
ATOM     18  H   UNL     1      -8.623   4.449   0.058  0.00  0.00    +0.000 HD
ENDBRANCH  16  17
ENDBRANCH   8  11
ENDBRANCH   4   7
BRANCH   1  19
ATOM     19  C   UNL     1       0.168   3.754   0.242  0.00  0.00    +0.000 C 
BRANCH  19  22
ATOM     20  C   UNL     1       2.067   4.006  -1.305  0.00  0.00    +0.000 C 
ATOM     21  O   UNL     1       2.875   4.053  -0.383  0.00  0.00    +0.000 OA
ATOM     22  N   UNL     1       0.714   3.876  -1.093  0.00  0.00    +0.000 N 
ATOM     23  H   UNL     1       0.072   4.090  -1.842  0.00  0.00    +0.000 HD
BRANCH  20  33
ATOM     24  C   UNL     1       0.895   2.386  -3.668  0.00  0.00    +0.000 C 
ATOM     25  C   UNL     1       2.006   3.391  -3.812  0.00  0.00    +0.000 A 
ATOM     26  C   UNL     1       2.563   3.555  -5.095  0.00  0.00    +0.000 A 
ATOM     27  C   UNL     1       3.632   4.420  -5.346  0.00  0.00    +0.000 A 
ATOM     28  C   UNL     1       4.124   5.138  -4.260  0.00  0.00    +0.000 A 
ATOM     29  N   UNL     1       5.150   6.044  -4.170  0.00  0.00    +0.000 N 
ATOM     30  N   UNL     1       5.332   6.545  -2.939  0.00  0.00    +0.000 NA
ATOM     31  C   UNL     1       4.409   5.912  -2.208  0.00  0.00    +0.000 A 
ATOM     32  C   UNL     1       3.610   5.022  -2.971  0.00  0.00    +0.000 A 
ATOM     33  C   UNL     1       2.529   4.139  -2.720  0.00  0.00    +0.000 A 
ATOM     34  H   UNL     1       5.762   6.362  -4.912  0.00  0.00    +0.000 HD
ENDBRANCH  20  33
ENDBRANCH  19  22
ENDBRANCH   1  19
TORSDOF 6
