REMARK  Name = 
REMARK  7 active torsions:
REMARK  status: ('A' for Active; 'I' for Inactive)
REMARK    1  A    between atoms: C_1  and  N_2
REMARK    2  A    between atoms: C_3  and  C_5
REMARK    3  A    between atoms: C_8  and  C_9
REMARK    4  A    between atoms: N_11  and  C_12
REMARK    5  A    between atoms: C_15  and  C_16
REMARK    6  A    between atoms: C_16  and  C_17
REMARK    7  A    between atoms: C_16  and  C_19
REMARK                            x       y       z     vdW  Elec       q    Type
REMARK                         _______ _______ _______ _____ _____    ______ ____
ROOT
ATOM      1  C   UNL     1       8.993   0.960   0.552  0.00  0.00    +0.000 C 
ATOM      2  O   UNL     1       9.443   0.955   1.696  0.00  0.00    +0.000 OA
ATOM      3  N   UNL     1       9.727   0.832  -0.619  0.00  0.00    +0.000 N 
ATOM      4  H   UNL     1       9.275   1.062  -1.495  0.00  0.00    +0.000 HD
ENDROOT
BRANCH   1   8
ATOM      5  C   UNL     1       4.747   1.577   0.409  0.00  0.00    +0.000 A 
ATOM      6  C   UNL     1       5.534   2.164   1.407  0.00  0.00    +0.000 A 
ATOM      7  C   UNL     1       6.915   1.968   1.414  0.00  0.00    +0.000 A 
ATOM      8  C   UNL     1       7.534   1.193   0.421  0.00  0.00    +0.000 A 
ATOM      9  C   UNL     1       6.760   0.605  -0.579  0.00  0.00    +0.000 A 
ATOM     10  C   UNL     1       5.377   0.802  -0.573  0.00  0.00    +0.000 A 
ATOM     11  F   UNL     1       4.664   0.203  -1.540  0.00  0.00    +0.000 F 
BRANCH   5  14
ATOM     12  C   UNL     1       1.084   1.331  -0.548  0.00  0.00    +0.000 C 
ATOM     13  N   UNL     1       2.516   1.206  -0.527  0.00  0.00    +0.000 N 
ATOM     14  C   UNL     1       3.274   1.794   0.460  0.00  0.00    +0.000 C 
ATOM     15  O   UNL     1       2.784   2.470   1.358  0.00  0.00    +0.000 OA
ATOM     16  H   UNL     1       2.968   0.667  -1.257  0.00  0.00    +0.000 HD
ENDBRANCH   5  14
ENDBRANCH   1   8
BRANCH   3  17
ATOM     17  C   UNL     1      11.132   0.652  -0.657  0.00  0.00    +0.000 A 
ATOM     18  C   UNL     1      11.866   0.220   0.449  0.00  0.00    +0.000 A 
ATOM     19  C   UNL     1      13.260   0.139   0.409  0.00  0.00    +0.000 A 
ATOM     20  C   UNL     1      13.962   0.465  -0.758  0.00  0.00    +0.000 A 
ATOM     21  C   UNL     1      13.220   0.845  -1.889  0.00  0.00    +0.000 A 
ATOM     22  C   UNL     1      11.819   0.932  -1.842  0.00  0.00    +0.000 A 
BRANCH  20  23
ATOM     23  C   UNL     1      15.487   0.379  -0.773  0.00  0.00    +0.000 C 
BRANCH  23  24
ATOM     24  C   UNL     1      16.166   1.746  -0.889  0.00  0.00    +0.000 A 
ATOM     25  C   UNL     1      16.482   2.465   0.279  0.00  0.00    +0.000 A 
ATOM     26  C   UNL     1      17.097   3.718   0.206  0.00  0.00    +0.000 A 
ATOM     27  C   UNL     1      17.412   4.271  -1.033  0.00  0.00    +0.000 A 
ATOM     28  C   UNL     1      17.105   3.575  -2.199  0.00  0.00    +0.000 A 
ATOM     29  C   UNL     1      16.479   2.328  -2.130  0.00  0.00    +0.000 A 
ENDBRANCH  23  24
BRANCH  23  30
ATOM     30  C   UNL     1      15.965  -0.607  -1.773  0.00  0.00    +0.000 C 
ATOM     31  N   UNL     1      16.334  -1.378  -2.561  0.00  0.00    +0.000 NA
ENDBRANCH  23  30
ENDBRANCH  20  23
ENDBRANCH   3  17
TORSDOF 6
