REMARK  Name = 
REMARK  4 active torsions:
REMARK  status: ('A' for Active; 'I' for Inactive)
REMARK    1  A    between atoms: C_2  and  C_3
REMARK    2  A    between atoms: N_14  and  C_15
REMARK    3  A    between atoms: C_15  and  C_16
REMARK    4  A    between atoms: C_26  and  O_27
REMARK                            x       y       z     vdW  Elec       q    Type
REMARK                         _______ _______ _______ _____ _____    ______ ____
ROOT
ATOM      1  O   UNL     1       1.361  -0.232  -0.591  0.00  0.00    +0.000 OA
ATOM      2  C   UNL     1       2.533  -0.164  -0.212  0.00  0.00    +0.000 C 
ATOM      3  N   UNL     1       3.123  -1.133   0.611  0.00  0.00    +0.000 N 
ATOM      4  C   UNL     1       4.537  -1.352   0.650  0.00  0.00    +0.000 A 
ATOM      5  N   UNL     1       5.277  -0.893  -0.380  0.00  0.00    +0.000 NA
ATOM      6  C   UNL     1       6.587  -1.183  -0.381  0.00  0.00    +0.000 A 
ATOM      7  N   UNL     1       7.235  -1.895   0.539  0.00  0.00    +0.000 NA
ATOM      8  C   UNL     1       6.461  -2.306   1.548  0.00  0.00    +0.000 A 
ATOM      9  C   UNL     1       5.121  -2.067   1.674  0.00  0.00    +0.000 A 
ENDROOT
BRANCH   2  10
ATOM     10  C   UNL     1       3.269   1.044  -0.653  0.00  0.00    +0.000 A 
ATOM     11  C   UNL     1       3.102   1.464  -1.978  0.00  0.00    +0.000 A 
ATOM     12  C   UNL     1       3.677   2.666  -2.418  0.00  0.00    +0.000 A 
ATOM     13  C   UNL     1       3.487   3.127  -3.726  0.00  0.00    +0.000 A 
ATOM     14  C   UNL     1       4.028   4.345  -4.113  0.00  0.00    +0.000 A 
ATOM     15  C   UNL     1       4.759   5.054  -3.178  0.00  0.00    +0.000 A 
ATOM     16  N   UNL     1       4.983   4.629  -1.913  0.00  0.00    +0.000 NA
ATOM     17  C   UNL     1       4.443   3.458  -1.534  0.00  0.00    +0.000 A 
ATOM     18  C   UNL     1       4.611   3.013  -0.230  0.00  0.00    +0.000 A 
ATOM     19  C   UNL     1       4.015   1.833   0.216  0.00  0.00    +0.000 A 
ATOM     20  F   UNL     1       4.151   1.498   1.508  0.00  0.00    +0.000 F 
ENDBRANCH   2  10
BRANCH   8  21
ATOM     21  O   UNL     1       7.113  -3.046   2.481  0.00  0.00    +0.000 OA
ATOM     22  H   UNL     1       8.004  -3.084   2.091  0.00  0.00    +0.000 HD
ENDBRANCH   8  21
BRANCH   3  23
ATOM     23  C   UNL     1       2.250  -2.228   1.067  0.00  0.00    +0.000 C 
BRANCH  23  24
ATOM     24  C   UNL     1       2.038  -2.316   2.562  0.00  0.00    +0.000 A 
ATOM     25  C   UNL     1       1.858  -1.173   3.353  0.00  0.00    +0.000 A 
ATOM     26  C   UNL     1       1.745  -1.289   4.740  0.00  0.00    +0.000 A 
ATOM     27  C   UNL     1       1.785  -2.544   5.346  0.00  0.00    +0.000 A 
ATOM     28  C   UNL     1       1.899  -3.690   4.564  0.00  0.00    +0.000 A 
ATOM     29  C   UNL     1       2.010  -3.578   3.179  0.00  0.00    +0.000 A 
ENDBRANCH  23  24
ENDBRANCH   3  23
TORSDOF 4
