REMARK  Name = 
REMARK  9 active torsions:
REMARK  status: ('A' for Active; 'I' for Inactive)
REMARK    1  A    between atoms: C_2  and  C_3
REMARK    2  A    between atoms: C_4  and  N_5
REMARK    3  A    between atoms: N_6  and  C_7
REMARK    4  A    between atoms: C_10  and  C_11
REMARK    5  A    between atoms: N_13  and  C_14
REMARK    6  A    between atoms: N_13  and  C_18
REMARK    7  A    between atoms: C_14  and  C_15
REMARK    8  A    between atoms: C_18  and  C_19
REMARK    9  A    between atoms: C_22  and  C_23
REMARK                            x       y       z     vdW  Elec       q    Type
REMARK                         _______ _______ _______ _____ _____    ______ ____
ROOT
ATOM      1  C   UNL     1      10.365   4.087   0.036  0.00  0.00    +0.000 C 
ATOM      2  O   UNL     1      10.536   4.864   0.979  0.00  0.00    +0.000 OA
ATOM      3  N   UNL     1      11.204   4.140  -1.093  0.00  0.00    +0.000 N 
ENDROOT
BRANCH   1   7
ATOM      4  C   UNL     1       6.988   1.420   0.654  0.00  0.00    +0.000 A 
ATOM      5  C   UNL     1       7.337   1.815  -0.637  0.00  0.00    +0.000 A 
ATOM      6  C   UNL     1       8.434   2.654  -0.857  0.00  0.00    +0.000 A 
ATOM      7  C   UNL     1       9.223   3.122   0.192  0.00  0.00    +0.000 A 
ATOM      8  C   UNL     1       8.829   2.768   1.497  0.00  0.00    +0.000 A 
ATOM      9  C   UNL     1       7.717   1.938   1.731  0.00  0.00    +0.000 A 
BRANCH   4  12
ATOM     10  C   UNL     1       4.189  -0.872   0.623  0.00  0.00    +0.000 A 
ATOM     11  C   UNL     1       5.299  -0.377  -0.025  0.00  0.00    +0.000 A 
ATOM     12  N   UNL     1       5.892   0.532   0.873  0.00  0.00    +0.000 N 
ATOM     13  N   UNL     1       5.281   0.485   2.090  0.00  0.00    +0.000 NA
ATOM     14  C   UNL     1       4.228  -0.314   1.907  0.00  0.00    +0.000 A 
BRANCH  11  15
ATOM     15  N   UNL     1       5.801  -0.697  -1.254  0.00  0.00    +0.000 N 
ATOM     16  H   UNL     1       5.409  -1.483  -1.770  0.00  0.00    +0.000 HD
ATOM     17  H   UNL     1       6.801  -0.606  -1.437  0.00  0.00    +0.000 HD
ENDBRANCH  11  15
BRANCH  10  19
ATOM     18  N   UNL     1       2.493  -2.598  -0.294  0.00  0.00    +0.000 NA
ATOM     19  C   UNL     1       3.245  -1.817   0.119  0.00  0.00    +0.000 C 
ENDBRANCH  10  19
ENDBRANCH   4  12
ENDBRANCH   1   7
BRANCH   3  20
ATOM     20  C   UNL     1      12.347   5.074  -1.056  0.00  0.00    +0.000 C 
BRANCH  20  21
ATOM     21  C   UNL     1      13.632   4.401  -0.612  0.00  0.00    +0.000 A 
ATOM     22  C   UNL     1      14.775   4.368  -1.423  0.00  0.00    +0.000 A 
ATOM     23  C   UNL     1      15.931   3.674  -1.015  0.00  0.00    +0.000 A 
ATOM     24  C   UNL     1      15.990   3.000   0.218  0.00  0.00    +0.000 A 
ATOM     25  C   UNL     1      14.859   3.107   1.046  0.00  0.00    +0.000 A 
ATOM     26  C   UNL     1      13.708   3.791   0.644  0.00  0.00    +0.000 A 
BRANCH  24  27
ATOM     27  C   UNL     1      17.170   2.209   0.654  0.00  0.00    +0.000 A 
ATOM     28  C   UNL     1      18.486   2.567   0.313  0.00  0.00    +0.000 A 
ATOM     29  C   UNL     1      19.587   1.838   0.786  0.00  0.00    +0.000 A 
ATOM     30  C   UNL     1      19.398   0.736   1.615  0.00  0.00    +0.000 A 
ATOM     31  C   UNL     1      18.108   0.344   1.949  0.00  0.00    +0.000 A 
ATOM     32  C   UNL     1      17.013   1.064   1.463  0.00  0.00    +0.000 A 
ENDBRANCH  24  27
ENDBRANCH  20  21
ENDBRANCH   3  20
BRANCH   3  33
ATOM     33  C   UNL     1      11.197   3.210  -2.234  0.00  0.00    +0.000 C 
BRANCH  33  34
ATOM     34  C   UNL     1      10.278   3.650  -3.385  0.00  0.00    +0.000 C 
ATOM     35  N   UNL     1       9.583   4.813  -3.205  0.00  0.00    +0.000 N 
ATOM     36  O   UNL     1      10.112   2.976  -4.397  0.00  0.00    +0.000 OA
ATOM     37  H   UNL     1       9.596   5.296  -2.314  0.00  0.00    +0.000 HD
ATOM     38  H   UNL     1       8.861   5.047  -3.875  0.00  0.00    +0.000 HD
ENDBRANCH  33  34
ENDBRANCH   3  33
TORSDOF 9
