REMARK  Name = 
REMARK  6 active torsions:
REMARK  status: ('A' for Active; 'I' for Inactive)
REMARK    1  A    between atoms: C_2  and  O_3
REMARK    2  A    between atoms: C_2  and  C_18
REMARK    3  A    between atoms: O_3  and  C_4
REMARK    4  A    between atoms: C_4  and  C_5
REMARK    5  A    between atoms: C_7  and  C_8
REMARK    6  A    between atoms: N_22  and  C_23
REMARK                            x       y       z     vdW  Elec       q    Type
REMARK                         _______ _______ _______ _____ _____    ______ ____
ROOT
ATOM      1  O   UNL     1       2.804   1.160   0.390  0.00  0.00    +0.000 OA
ENDROOT
BRANCH   1   3
ATOM      2  O   UNL     1       2.937   0.715   2.637  0.00  0.00    +0.000 OA
ATOM      3  C   UNL     1       2.283   0.874   1.616  0.00  0.00    +0.000 C 
BRANCH   3   4
ATOM      4  C   UNL     1       0.854   0.770   1.523  0.00  0.00    +0.000 A 
ATOM      5  C   UNL     1       0.069   0.336   0.469  0.00  0.00    +0.000 A 
ATOM      6  C   UNL     1      -1.222   0.212   0.999  0.00  0.00    +0.000 A 
ATOM      7  N   UNL     1      -1.265   0.522   2.293  0.00  0.00    +0.000 NA
ATOM      8  N   UNL     1      -0.025   1.014   2.565  0.00  0.00    +0.000 N 
BRANCH   8   9
ATOM      9  C   UNL     1       0.155   1.794   3.737  0.00  0.00    +0.000 A 
ATOM     10  C   UNL     1      -0.622   1.519   4.864  0.00  0.00    +0.000 A 
ATOM     11  C   UNL     1      -0.492   2.353   5.960  0.00  0.00    +0.000 A 
ATOM     12  N   UNL     1       0.318   3.433   5.990  0.00  0.00    +0.000 NA
ATOM     13  C   UNL     1       1.042   3.685   4.878  0.00  0.00    +0.000 A 
ATOM     14  C   UNL     1       1.013   2.895   3.740  0.00  0.00    +0.000 A 
ENDBRANCH   8   9
ENDBRANCH   3   4
ENDBRANCH   1   3
BRANCH   1  15
ATOM     15  C   UNL     1       4.235   1.228   0.324  0.00  0.00    +0.000 C 
BRANCH  15  16
ATOM     16  C   UNL     1       4.735   2.584   0.755  0.00  0.00    +0.000 A 
ATOM     17  C   UNL     1       5.179   2.780   2.075  0.00  0.00    +0.000 A 
ATOM     18  C   UNL     1       5.619   4.030   2.553  0.00  0.00    +0.000 A 
ATOM     19  C   UNL     1       5.615   5.096   1.641  0.00  0.00    +0.000 A 
ATOM     20  C   UNL     1       5.193   4.906   0.325  0.00  0.00    +0.000 A 
ATOM     21  F   UNL     1       5.218   5.940  -0.526  0.00  0.00    +0.000 F 
ATOM     22  C   UNL     1       4.746   3.668  -0.123  0.00  0.00    +0.000 A 
BRANCH  18  23
ATOM     23  C   UNL     1       6.074   4.185   3.952  0.00  0.00    +0.000 A 
ATOM     24  C   UNL     1       5.523   3.437   5.005  0.00  0.00    +0.000 A 
ATOM     25  C   UNL     1       6.005   3.569   6.307  0.00  0.00    +0.000 A 
ATOM     26  C   UNL     1       7.029   4.468   6.539  0.00  0.00    +0.000 A 
ATOM     27  N   UNL     1       7.587   5.221   5.571  0.00  0.00    +0.000 NA
ATOM     28  C   UNL     1       7.103   5.062   4.314  0.00  0.00    +0.000 A 
ENDBRANCH  18  23
ENDBRANCH  15  16
ENDBRANCH   1  15
TORSDOF 6
