REMARK  Name = 
REMARK  6 active torsions:
REMARK  status: ('A' for Active; 'I' for Inactive)
REMARK    1  A    between atoms: C_2  and  C_20
REMARK    2  A    between atoms: N_3  and  C_4
REMARK    3  A    between atoms: C_4  and  C_5
REMARK    4  A    between atoms: C_7  and  O_8
REMARK    5  A    between atoms: O_8  and  C_9
REMARK    6  A    between atoms: N_24  and  C_25
REMARK                            x       y       z     vdW  Elec       q    Type
REMARK                         _______ _______ _______ _____ _____    ______ ____
ROOT
ATOM      1  O   UNL     1       1.931   1.195   1.544  0.00  0.00    +0.000 OA
ATOM      2  C   UNL     1       2.696   0.558   0.828  0.00  0.00    +0.000 C 
ATOM      3  N   UNL     1       2.903  -0.784   1.020  0.00  0.00    +0.000 N 
ATOM      4  H   UNL     1       3.584  -1.295   0.478  0.00  0.00    +0.000 HD
ENDROOT
BRANCH   2   5
ATOM      5  C   UNL     1       3.430   1.143  -0.255  0.00  0.00    +0.000 A 
ATOM      6  C   UNL     1       3.826   0.597  -1.460  0.00  0.00    +0.000 A 
ATOM      7  N   UNL     1       4.302   1.569  -2.283  0.00  0.00    +0.000 NA
ATOM      8  N   UNL     1       4.209   2.723  -1.642  0.00  0.00    +0.000 NA
ATOM      9  N   UNL     1       3.780   2.480  -0.375  0.00  0.00    +0.000 N 
BRANCH   9  10
ATOM     10  C   UNL     1       3.786   3.517   0.593  0.00  0.00    +0.000 A 
ATOM     11  C   UNL     1       3.956   3.233   1.953  0.00  0.00    +0.000 A 
ATOM     12  C   UNL     1       3.909   4.265   2.881  0.00  0.00    +0.000 A 
ATOM     13  F   UNL     1       4.070   3.987   4.181  0.00  0.00    +0.000 F 
ATOM     14  C   UNL     1       3.701   5.581   2.481  0.00  0.00    +0.000 A 
ATOM     15  C   UNL     1       3.567   5.874   1.125  0.00  0.00    +0.000 A 
ATOM     16  C   UNL     1       3.630   4.848   0.177  0.00  0.00    +0.000 A 
ENDBRANCH   9  10
ENDBRANCH   2   5
BRANCH   3  17
ATOM     17  C   UNL     1       2.247  -1.501   2.092  0.00  0.00    +0.000 C 
BRANCH  17  18
ATOM     18  C   UNL     1       3.241  -2.049   3.087  0.00  0.00    +0.000 A 
ATOM     19  C   UNL     1       3.700  -1.253   4.133  0.00  0.00    +0.000 A 
ATOM     20  C   UNL     1       4.497  -1.839   5.113  0.00  0.00    +0.000 A 
ATOM     21  C   UNL     1       4.911  -3.157   4.960  0.00  0.00    +0.000 A 
ATOM     22  C   UNL     1       4.468  -3.854   3.851  0.00  0.00    +0.000 A 
ATOM     23  N   UNL     1       3.639  -3.335   2.921  0.00  0.00    +0.000 NA
BRANCH  20  24
ATOM     24  O   UNL     1       4.951  -1.192   6.241  0.00  0.00    +0.000 OA
BRANCH  24  25
ATOM     25  C   UNL     1       4.178  -0.221   6.840  0.00  0.00    +0.000 A 
ATOM     26  C   UNL     1       2.776  -0.221   6.857  0.00  0.00    +0.000 A 
ATOM     27  C   UNL     1       2.081   0.835   7.450  0.00  0.00    +0.000 A 
ATOM     28  C   UNL     1       2.788   1.851   8.082  0.00  0.00    +0.000 A 
ATOM     29  F   UNL     1       2.117   2.861   8.652  0.00  0.00    +0.000 F 
ATOM     30  C   UNL     1       4.176   1.812   8.134  0.00  0.00    +0.000 A 
ATOM     31  F   UNL     1       4.853   2.771   8.782  0.00  0.00    +0.000 F 
ATOM     32  C   UNL     1       4.878   0.781   7.517  0.00  0.00    +0.000 A 
ENDBRANCH  24  25
ENDBRANCH  20  24
ENDBRANCH  17  18
ENDBRANCH   3  17
TORSDOF 6
