REMARK  Name = 
REMARK  5 active torsions:
REMARK  status: ('A' for Active; 'I' for Inactive)
REMARK    1  A    between atoms: C_2  and  C_3
REMARK    2  A    between atoms: C_3  and  N_4
REMARK    3  A    between atoms: C_7  and  C_8
REMARK    4  A    between atoms: N_17  and  C_18
REMARK    5  A    between atoms: C_21  and  C_22
REMARK                            x       y       z     vdW  Elec       q    Type
REMARK                         _______ _______ _______ _____ _____    ______ ____
ROOT
ATOM      1  O   UNL     1       1.077  -0.283   0.558  0.00  0.00    +0.000 OA
ATOM      2  C   UNL     1       2.213  -0.041   0.157  0.00  0.00    +0.000 C 
ATOM      3  N   UNL     1       2.996   1.016   0.585  0.00  0.00    +0.000 N 
ATOM      4  H   UNL     1       3.768   1.313  -0.004  0.00  0.00    +0.000 HD
ENDROOT
BRANCH   3   5
ATOM      5  C   UNL     1       2.631   1.903   1.616  0.00  0.00    +0.000 A 
ATOM      6  C   UNL     1       2.954   3.256   1.464  0.00  0.00    +0.000 A 
ATOM      7  F   UNL     1       3.579   3.624   0.330  0.00  0.00    +0.000 F 
ATOM      8  C   UNL     1       2.589   4.227   2.416  0.00  0.00    +0.000 A 
ATOM      9  C   UNL     1       1.989   3.758   3.600  0.00  0.00    +0.000 A 
ATOM     10  C   UNL     1       1.712   2.397   3.786  0.00  0.00    +0.000 A 
ATOM     11  C   UNL     1       2.000   1.475   2.781  0.00  0.00    +0.000 A 
BRANCH   8  12
ATOM     12  C   UNL     1       2.783   5.673   2.160  0.00  0.00    +0.000 A 
ATOM     13  C   UNL     1       2.587   6.215   0.881  0.00  0.00    +0.000 A 
ATOM     14  C   UNL     1       2.795   7.568   0.663  0.00  0.00    +0.000 A 
ATOM     15  N   UNL     1       3.156   8.432   1.633  0.00  0.00    +0.000 NA
ATOM     16  C   UNL     1       3.322   7.912   2.865  0.00  0.00    +0.000 A 
ATOM     17  C   UNL     1       3.149   6.568   3.173  0.00  0.00    +0.000 A 
ENDBRANCH   8  12
ENDBRANCH   3   5
BRANCH   2  18
ATOM     18  C   UNL     1       2.919  -0.986  -0.815  0.00  0.00    +0.000 C 
BRANCH  18  19
ATOM     19  N   UNL     1       3.372  -2.109  -0.014  0.00  0.00    +0.000 N 
ATOM     20  C   UNL     1       2.555  -3.192   0.206  0.00  0.00    +0.000 A 
ATOM     21  N   UNL     1       2.815  -4.153   1.030  0.00  0.00    +0.000 NA
ATOM     22  C   UNL     1       3.964  -4.035   1.762  0.00  0.00    +0.000 A 
ATOM     23  C   UNL     1       4.852  -3.045   1.629  0.00  0.00    +0.000 A 
ATOM     24  C   UNL     1       4.556  -1.975   0.671  0.00  0.00    +0.000 A 
ATOM     25  O   UNL     1       5.321  -1.020   0.559  0.00  0.00    +0.000 OA
BRANCH  22  26
ATOM     26  C   UNL     1       4.226  -5.002   2.836  0.00  0.00    +0.000 A 
ATOM     27  C   UNL     1       3.736  -4.743   4.123  0.00  0.00    +0.000 A 
ATOM     28  C   UNL     1       4.104  -5.559   5.194  0.00  0.00    +0.000 A 
ATOM     29  C   UNL     1       4.951  -6.645   4.979  0.00  0.00    +0.000 A 
ATOM     30  C   UNL     1       5.411  -6.931   3.694  0.00  0.00    +0.000 A 
ATOM     31  C   UNL     1       5.049  -6.113   2.622  0.00  0.00    +0.000 A 
ENDBRANCH  22  26
ENDBRANCH  18  19
ENDBRANCH   2  18
TORSDOF 5
