REMARK  Name = 
REMARK  5 active torsions:
REMARK  status: ('A' for Active; 'I' for Inactive)
REMARK    1  A    between atoms: C_2  and  C_17
REMARK    2  A    between atoms: N_3  and  C_4
REMARK    3  A    between atoms: C_8  and  C_9
REMARK    4  A    between atoms: C_9  and  C_10
REMARK    5  A    between atoms: N_19  and  C_20
REMARK                            x       y       z     vdW  Elec       q    Type
REMARK                         _______ _______ _______ _____ _____    ______ ____
ROOT
ATOM      1  O   UNL     1       0.941   0.106   0.116  0.00  0.00    +0.000 OA
ATOM      2  C   UNL     1       2.134  -0.129  -0.021  0.00  0.00    +0.000 C 
ATOM      3  N   UNL     1       2.775  -0.536  -1.177  0.00  0.00    +0.000 N 
ATOM      4  H   UNL     1       3.747  -0.832  -1.126  0.00  0.00    +0.000 HD
ENDROOT
BRANCH   2   5
ATOM      5  C   UNL     1       3.020   0.025   1.212  0.00  0.00    +0.000 A 
ATOM      6  N   UNL     1       2.429   0.400   2.317  0.00  0.00    +0.000 NA
ATOM      7  N   UNL     1       3.189   0.618   3.441  0.00  0.00    +0.000 N 
ATOM      8  C   UNL     1       4.567   0.584   3.398  0.00  0.00    +0.000 A 
ATOM      9  C   UNL     1       5.293   0.202   2.351  0.00  0.00    +0.000 A 
ATOM     10  C   UNL     1       4.516  -0.202   1.177  0.00  0.00    +0.000 A 
ATOM     11  O   UNL     1       5.046  -0.690   0.184  0.00  0.00    +0.000 OA
BRANCH   7  12
ATOM     12  C   UNL     1       2.440   0.785   4.651  0.00  0.00    +0.000 A 
ATOM     13  C   UNL     1       1.118   1.273   4.618  0.00  0.00    +0.000 A 
ATOM     14  C   UNL     1       0.338   1.350   5.779  0.00  0.00    +0.000 A 
ATOM     15  C   UNL     1       0.861   0.942   7.003  0.00  0.00    +0.000 A 
ATOM     16  C   UNL     1       2.176   0.495   7.072  0.00  0.00    +0.000 A 
ATOM     17  C   UNL     1       2.949   0.425   5.914  0.00  0.00    +0.000 A 
ATOM     18  F   UNL     1       4.194  -0.061   6.048  0.00  0.00    +0.000 F 
ENDBRANCH   7  12
ENDBRANCH   2   5
BRANCH   3  19
ATOM     19  C   UNL     1       2.166  -0.521  -2.439  0.00  0.00    +0.000 A 
ATOM     20  C   UNL     1       2.799  -1.156  -3.500  0.00  0.00    +0.000 A 
ATOM     21  C   UNL     1       2.218  -1.082  -4.766  0.00  0.00    +0.000 A 
ATOM     22  C   UNL     1       1.041  -0.359  -4.943  0.00  0.00    +0.000 A 
ATOM     23  C   UNL     1       0.456   0.234  -3.831  0.00  0.00    +0.000 A 
ATOM     24  N   UNL     1       1.014   0.150  -2.601  0.00  0.00    +0.000 NA
BRANCH  23  25
ATOM     25  C   UNL     1      -0.835   1.016  -3.936  0.00  0.00    +0.000 C 
BRANCH  25  26
ATOM     26  C   UNL     1      -0.647   2.492  -4.214  0.00  0.00    +0.000 A 
ATOM     27  C   UNL     1      -1.183   3.071  -5.372  0.00  0.00    +0.000 A 
ATOM     28  C   UNL     1      -0.971   4.422  -5.655  0.00  0.00    +0.000 A 
ATOM     29  C   UNL     1      -0.238   5.215  -4.773  0.00  0.00    +0.000 A 
ATOM     30  C   UNL     1       0.263   4.662  -3.597  0.00  0.00    +0.000 A 
ATOM     31  C   UNL     1       0.056   3.311  -3.315  0.00  0.00    +0.000 A 
ENDBRANCH  25  26
ENDBRANCH  23  25
ENDBRANCH   3  19
TORSDOF 5
