REMARK  Name = 
REMARK  3 active torsions:
REMARK  status: ('A' for Active; 'I' for Inactive)
REMARK    1  A    between atoms: C_2  and  C_18
REMARK    2  A    between atoms: N_3  and  C_4
REMARK    3  A    between atoms: C_11  and  C_12
REMARK                            x       y       z     vdW  Elec       q    Type
REMARK                         _______ _______ _______ _____ _____    ______ ____
ROOT
ATOM      1  O   UNL     1       3.440  -1.548   2.353  0.00  0.00    +0.000 OA
ATOM      2  C   UNL     1       3.399  -0.977   1.265  0.00  0.00    +0.000 C 
ATOM      3  N   UNL     1       2.837   0.278   1.064  0.00  0.00    +0.000 N 
ATOM      4  H   UNL     1       3.216   0.821   0.294  0.00  0.00    +0.000 HD
ENDROOT
BRANCH   2   5
ATOM      5  C   UNL     1       4.049  -1.621   0.083  0.00  0.00    +0.000 A 
ATOM      6  C   UNL     1       4.511  -2.930   0.233  0.00  0.00    +0.000 A 
ATOM      7  C   UNL     1       5.023  -3.594  -0.874  0.00  0.00    +0.000 A 
ATOM      8  C   UNL     1       5.056  -2.932  -2.095  0.00  0.00    +0.000 A 
ATOM      9  C   UNL     1       5.511  -3.601  -3.311  0.00  0.00    +0.000 A 
ATOM     10  C   UNL     1       5.509  -2.932  -4.470  0.00  0.00    +0.000 A 
ATOM     11  C   UNL     1       5.083  -1.510  -4.534  0.00  0.00    +0.000 A 
ATOM     12  O   UNL     1       5.114  -0.903  -5.594  0.00  0.00    +0.000 OA
ATOM     13  N   UNL     1       4.659  -0.937  -3.366  0.00  0.00    +0.000 N 
ATOM     14  C   UNL     1       4.607  -1.603  -2.144  0.00  0.00    +0.000 A 
ATOM     15  N   UNL     1       4.111  -0.922  -1.084  0.00  0.00    +0.000 NA
ATOM     16  H   UNL     1       4.359   0.026  -3.395  0.00  0.00    +0.000 HD
ENDBRANCH   2   5
BRANCH   3  17
ATOM     17  C   UNL     1       2.176   0.933   2.135  0.00  0.00    +0.000 A 
ATOM     18  C   UNL     1       1.105   0.253   2.763  0.00  0.00    +0.000 A 
ATOM     19  F   UNL     1       0.709  -0.948   2.311  0.00  0.00    +0.000 F 
ATOM     20  C   UNL     1       0.376   0.823   3.795  0.00  0.00    +0.000 A 
ATOM     21  C   UNL     1       0.732   2.083   4.229  0.00  0.00    +0.000 A 
ATOM     22  F   UNL     1       0.046   2.656   5.226  0.00  0.00    +0.000 F 
ATOM     23  C   UNL     1       1.789   2.775   3.640  0.00  0.00    +0.000 A 
ATOM     24  C   UNL     1       2.530   2.237   2.558  0.00  0.00    +0.000 A 
BRANCH  24  25
ATOM     25  C   UNL     1       3.649   3.037   1.989  0.00  0.00    +0.000 A 
ATOM     26  C   UNL     1       4.871   2.460   1.601  0.00  0.00    +0.000 A 
ATOM     27  C   UNL     1       5.899   3.224   1.038  0.00  0.00    +0.000 A 
ATOM     28  C   UNL     1       5.750   4.599   0.898  0.00  0.00    +0.000 A 
ATOM     29  C   UNL     1       4.575   5.208   1.320  0.00  0.00    +0.000 A 
ATOM     30  C   UNL     1       3.536   4.435   1.847  0.00  0.00    +0.000 A 
ENDBRANCH  24  25
ENDBRANCH   3  17
TORSDOF 3
