REMARK  Name = 
REMARK  5 active torsions:
REMARK  status: ('A' for Active; 'I' for Inactive)
REMARK    1  A    between atoms: C_2  and  C_3
REMARK    2  A    between atoms: C_3  and  N_4
REMARK    3  A    between atoms: C_7  and  C_8
REMARK    4  A    between atoms: N_17  and  C_18
REMARK    5  A    between atoms: N_22  and  C_23
REMARK                            x       y       z     vdW  Elec       q    Type
REMARK                         _______ _______ _______ _____ _____    ______ ____
ROOT
ATOM      1  O   UNL     1       0.978  -0.129  -0.080  0.00  0.00    +0.000 OA
ATOM      2  C   UNL     1       2.205  -0.063  -0.089  0.00  0.00    +0.000 C 
ATOM      3  N   UNL     1       3.062  -0.648   0.839  0.00  0.00    +0.000 N 
ATOM      4  H   UNL     1       4.059  -0.581   0.633  0.00  0.00    +0.000 HD
ENDROOT
BRANCH   3   5
ATOM      5  C   UNL     1       2.708  -1.341   1.983  0.00  0.00    +0.000 A 
ATOM      6  C   UNL     1       1.449  -1.575   2.370  0.00  0.00    +0.000 A 
ATOM      7  C   UNL     1       1.123  -2.226   3.667  0.00  0.00    +0.000 A 
ATOM      8  O   UNL     1      -0.075  -2.301   3.935  0.00  0.00    +0.000 OA
ATOM      9  N   UNL     1       2.214  -2.624   4.474  0.00  0.00    +0.000 N 
ATOM     10  C   UNL     1       3.512  -2.440   3.989  0.00  0.00    +0.000 A 
ATOM     11  C   UNL     1       3.775  -1.845   2.818  0.00  0.00    +0.000 A 
BRANCH   9  12
ATOM     12  C   UNL     1       1.968  -3.158   5.808  0.00  0.00    +0.000 A 
ATOM     13  C   UNL     1       0.731  -3.711   6.181  0.00  0.00    +0.000 A 
ATOM     14  C   UNL     1       0.474  -4.142   7.489  0.00  0.00    +0.000 A 
ATOM     15  C   UNL     1       1.462  -4.055   8.459  0.00  0.00    +0.000 A 
ATOM     16  C   UNL     1       2.708  -3.547   8.116  0.00  0.00    +0.000 A 
ATOM     17  C   UNL     1       2.959  -3.105   6.808  0.00  0.00    +0.000 A 
ENDBRANCH   9  12
ENDBRANCH   3   5
BRANCH   2  18
ATOM     18  C   UNL     1       2.914   0.630  -1.250  0.00  0.00    +0.000 C 
BRANCH  18  19
ATOM     19  N   UNL     1       3.197  -0.379  -2.253  0.00  0.00    +0.000 N 
ATOM     20  C   UNL     1       2.273  -0.691  -3.217  0.00  0.00    +0.000 A 
ATOM     21  N   UNL     1       2.394  -1.653  -4.070  0.00  0.00    +0.000 NA
ATOM     22  C   UNL     1       3.522  -2.422  -3.969  0.00  0.00    +0.000 A 
ATOM     23  C   UNL     1       4.506  -2.214  -3.083  0.00  0.00    +0.000 A 
ATOM     24  C   UNL     1       4.344  -1.125  -2.117  0.00  0.00    +0.000 A 
ATOM     25  O   UNL     1       5.166  -0.958  -1.218  0.00  0.00    +0.000 OA
BRANCH  22  26
ATOM     26  C   UNL     1       3.656  -3.603  -4.835  0.00  0.00    +0.000 A 
ATOM     27  C   UNL     1       3.161  -4.840  -4.399  0.00  0.00    +0.000 A 
ATOM     28  C   UNL     1       3.399  -5.997  -5.142  0.00  0.00    +0.000 A 
ATOM     29  C   UNL     1       4.124  -5.923  -6.330  0.00  0.00    +0.000 A 
ATOM     30  C   UNL     1       4.592  -4.690  -6.788  0.00  0.00    +0.000 A 
ATOM     31  C   UNL     1       4.357  -3.532  -6.044  0.00  0.00    +0.000 A 
ENDBRANCH  22  26
ENDBRANCH  18  19
ENDBRANCH   2  18
TORSDOF 5
