REMARK  Name = 
REMARK  5 active torsions:
REMARK  status: ('A' for Active; 'I' for Inactive)
REMARK    1  A    between atoms: C_2  and  C_18
REMARK    2  A    between atoms: N_3  and  C_4
REMARK    3  A    between atoms: C_4  and  C_5
REMARK    4  A    between atoms: C_10  and  C_11
REMARK    5  A    between atoms: C_25  and  O_26
REMARK                            x       y       z     vdW  Elec       q    Type
REMARK                         _______ _______ _______ _____ _____    ______ ____
ROOT
ATOM      1  O   UNL     1       0.997   0.050  -0.006  0.00  0.00    +0.000 OA
ATOM      2  C   UNL     1       2.222   0.117  -0.038  0.00  0.00    +0.000 C 
ATOM      3  N   UNL     1       2.976   0.570   1.015  0.00  0.00    +0.000 N 
ATOM      4  H   UNL     1       3.977   0.722   0.928  0.00  0.00    +0.000 HD
ENDROOT
BRANCH   2   5
ATOM      5  C   UNL     1       3.018  -0.247  -1.250  0.00  0.00    +0.000 A 
ATOM      6  C   UNL     1       2.340  -0.701  -2.314  0.00  0.00    +0.000 A 
ATOM      7  C   UNL     1       3.078  -1.058  -3.534  0.00  0.00    +0.000 A 
ATOM      8  O   UNL     1       2.498  -1.467  -4.530  0.00  0.00    +0.000 OA
ATOM      9  C   UNL     1       4.536  -0.900  -3.483  0.00  0.00    +0.000 A 
ATOM     10  C   UNL     1       5.330  -1.234  -4.585  0.00  0.00    +0.000 A 
ATOM     11  C   UNL     1       6.717  -1.088  -4.508  0.00  0.00    +0.000 A 
ATOM     12  C   UNL     1       7.291  -0.608  -3.330  0.00  0.00    +0.000 A 
ATOM     13  C   UNL     1       6.502  -0.269  -2.233  0.00  0.00    +0.000 A 
ATOM     14  C   UNL     1       5.120  -0.420  -2.311  0.00  0.00    +0.000 A 
ATOM     15  O   UNL     1       4.391  -0.081  -1.200  0.00  0.00    +0.000 OA
BRANCH  12  16
ATOM     16  O   UNL     1       8.637  -0.456  -3.211  0.00  0.00    +0.000 OA
ATOM     17  H   UNL     1       9.064  -0.756  -4.029  0.00  0.00    +0.000 HD
ENDBRANCH  12  16
ENDBRANCH   2   5
BRANCH   3  18
ATOM     18  C   UNL     1       2.326   1.167   2.162  0.00  0.00    +0.000 C 
BRANCH  18  19
ATOM     19  C   UNL     1       3.280   1.731   3.195  0.00  0.00    +0.000 A 
ATOM     20  N   UNL     1       4.606   1.660   2.839  0.00  0.00    +0.000 NA
ATOM     21  C   UNL     1       5.523   2.129   3.706  0.00  0.00    +0.000 A 
ATOM     22  C   UNL     1       5.196   2.696   4.917  0.00  0.00    +0.000 A 
ATOM     23  C   UNL     1       3.848   2.785   5.260  0.00  0.00    +0.000 A 
ATOM     24  C   UNL     1       2.829   2.292   4.416  0.00  0.00    +0.000 A 
BRANCH  24  25
ATOM     25  C   UNL     1       1.405   2.353   4.877  0.00  0.00    +0.000 A 
ATOM     26  C   UNL     1       0.320   2.595   4.014  0.00  0.00    +0.000 A 
ATOM     27  C   UNL     1      -1.009   2.555   4.455  0.00  0.00    +0.000 A 
ATOM     28  C   UNL     1      -1.279   2.351   5.796  0.00  0.00    +0.000 A 
ATOM     29  F   UNL     1      -2.548   2.326   6.222  0.00  0.00    +0.000 F 
ATOM     30  C   UNL     1      -0.244   2.185   6.700  0.00  0.00    +0.000 A 
ATOM     31  C   UNL     1       1.080   2.169   6.241  0.00  0.00    +0.000 A 
ENDBRANCH  24  25
ENDBRANCH  18  19
ENDBRANCH   3  18
TORSDOF 5
