REMARK  Name = 
REMARK  6 active torsions:
REMARK  status: ('A' for Active; 'I' for Inactive)
REMARK    1  A    between atoms: C_1  and  C_2
REMARK    2  A    between atoms: C_6  and  C_7
REMARK    3  A    between atoms: C_7  and  N_8
REMARK    4  A    between atoms: C_12  and  C_13
REMARK    5  A    between atoms: N_15  and  C_16
REMARK    6  A    between atoms: N_22  and  C_23
REMARK                            x       y       z     vdW  Elec       q    Type
REMARK                         _______ _______ _______ _____ _____    ______ ____
ROOT
ATOM      1  C   UNL     1      -5.978  -0.726  -2.275  0.00  0.00    +0.000 C 
ATOM      2  O   UNL     1      -7.012  -0.090  -2.087  0.00  0.00    +0.000 OA
ATOM      3  N   UNL     1      -5.433  -0.983  -3.499  0.00  0.00    +0.000 N 
ATOM      4  H   UNL     1      -4.615  -1.595  -3.515  0.00  0.00    +0.000 HD
ENDROOT
BRANCH   3   5
ATOM      5  C   UNL     1      -5.813  -0.495  -4.751  0.00  0.00    +0.000 A 
ATOM      6  C   UNL     1      -5.427  -1.329  -5.805  0.00  0.00    +0.000 A 
ATOM      7  C   UNL     1      -5.391  -0.839  -7.086  0.00  0.00    +0.000 A 
ATOM      8  C   UNL     1      -5.793   0.469  -7.288  0.00  0.00    +0.000 A 
ATOM      9  C   UNL     1      -5.707   1.004  -8.640  0.00  0.00    +0.000 A 
ATOM     10  O   UNL     1      -4.694   0.876  -9.314  0.00  0.00    +0.000 OA
ATOM     11  N   UNL     1      -6.946   1.425  -9.084  0.00  0.00    +0.000 N 
ATOM     12  C   UNL     1      -7.448   0.578 -10.145  0.00  0.00    +0.000 C 
ATOM     13  C   UNL     1      -7.801   2.068  -8.193  0.00  0.00    +0.000 A 
ATOM     14  C   UNL     1      -7.530   2.127  -6.869  0.00  0.00    +0.000 A 
ATOM     15  C   UNL     1      -6.538   1.166  -6.335  0.00  0.00    +0.000 A 
ATOM     16  C   UNL     1      -6.461   0.727  -5.007  0.00  0.00    +0.000 A 
ENDBRANCH   3   5
BRANCH   1  21
ATOM     17  N   UNL     1      -3.243  -2.289  -0.022  0.00  0.00    +0.000 N 
ATOM     18  C   UNL     1      -4.008  -2.491   1.114  0.00  0.00    +0.000 A 
ATOM     19  C   UNL     1      -5.311  -2.196   1.136  0.00  0.00    +0.000 A 
ATOM     20  C   UNL     1      -5.934  -1.610  -0.023  0.00  0.00    +0.000 A 
ATOM     21  C   UNL     1      -5.241  -1.394  -1.149  0.00  0.00    +0.000 A 
ATOM     22  C   UNL     1      -3.801  -1.815  -1.210  0.00  0.00    +0.000 A 
ATOM     23  O   UNL     1      -3.183  -1.712  -2.281  0.00  0.00    +0.000 OA
BRANCH  17  24
ATOM     24  C   UNL     1      -1.796  -2.485   0.052  0.00  0.00    +0.000 C 
BRANCH  24  30
ATOM     25  C   UNL     1      -0.074  -5.958  -3.159  0.00  0.00    +0.000 C 
ATOM     26  C   UNL     1      -0.462  -5.575  -1.761  0.00  0.00    +0.000 A 
ATOM     27  C   UNL     1      -0.290  -6.463  -0.695  0.00  0.00    +0.000 A 
ATOM     28  C   UNL     1      -0.650  -6.086   0.599  0.00  0.00    +0.000 A 
ATOM     29  C   UNL     1      -1.169  -4.813   0.841  0.00  0.00    +0.000 A 
ATOM     30  C   UNL     1      -1.329  -3.898  -0.209  0.00  0.00    +0.000 A 
ATOM     31  C   UNL     1      -0.987  -4.299  -1.510  0.00  0.00    +0.000 A 
ENDBRANCH  24  30
ENDBRANCH  17  24
ENDBRANCH   1  21
TORSDOF 4
