REMARK  Name = 
REMARK  5 active torsions:
REMARK  status: ('A' for Active; 'I' for Inactive)
REMARK    1  A    between atoms: C_2  and  C_3
REMARK    2  A    between atoms: C_5  and  C_6
REMARK    3  A    between atoms: N_16  and  C_17
REMARK    4  A    between atoms: C_17  and  C_18
REMARK    5  A    between atoms: C_28  and  O_29
REMARK                            x       y       z     vdW  Elec       q    Type
REMARK                         _______ _______ _______ _____ _____    ______ ____
ROOT
ATOM      1  O   UNL     1       1.374  -0.019   0.905  0.00  0.00    +0.000 OA
ATOM      2  C   UNL     1       2.545  -0.060   0.519  0.00  0.00    +0.000 C 
ATOM      3  N   UNL     1       3.114  -1.190  -0.106  0.00  0.00    +0.000 N 
ATOM      4  C   UNL     1       4.518  -1.441   0.010  0.00  0.00    +0.000 A 
ATOM      5  N   UNL     1       5.177  -0.925   1.070  0.00  0.00    +0.000 NA
ATOM      6  C   UNL     1       6.483  -1.203   1.179  0.00  0.00    +0.000 A 
ATOM      7  N   UNL     1       7.181  -2.001   0.369  0.00  0.00    +0.000 NA
ATOM      8  C   UNL     1       6.474  -2.499  -0.646  0.00  0.00    +0.000 A 
ATOM      9  C   UNL     1       5.150  -2.254  -0.902  0.00  0.00    +0.000 A 
ENDROOT
BRANCH   2  10
ATOM     10  C   UNL     1       3.387   1.160   0.753  0.00  0.00    +0.000 A 
ATOM     11  N   UNL     1       4.302   1.480  -0.191  0.00  0.00    +0.000 NA
ATOM     12  C   UNL     1       5.187   2.431   0.152  0.00  0.00    +0.000 A 
ATOM     13  N   UNL     1       5.156   3.115   1.315  0.00  0.00    +0.000 NA
ATOM     14  C   UNL     1       4.180   2.803   2.186  0.00  0.00    +0.000 A 
ATOM     15  C   UNL     1       3.254   1.820   1.957  0.00  0.00    +0.000 A 
BRANCH  12  16
ATOM     16  C   UNL     1       6.336   2.659  -0.752  0.00  0.00    +0.000 A 
ATOM     17  C   UNL     1       6.462   1.957  -1.969  0.00  0.00    +0.000 A 
ATOM     18  C   UNL     1       7.573   2.136  -2.801  0.00  0.00    +0.000 A 
ATOM     19  C   UNL     1       8.573   3.022  -2.429  0.00  0.00    +0.000 A 
ATOM     20  F   UNL     1       9.639   3.189  -3.221  0.00  0.00    +0.000 F 
ATOM     21  C   UNL     1       8.483   3.735  -1.243  0.00  0.00    +0.000 A 
ATOM     22  C   UNL     1       7.373   3.554  -0.413  0.00  0.00    +0.000 A 
ENDBRANCH  12  16
ENDBRANCH   2  10
BRANCH   8  23
ATOM     23  O   UNL     1       7.176  -3.341  -1.446  0.00  0.00    +0.000 OA
ATOM     24  H   UNL     1       8.035  -3.344  -0.984  0.00  0.00    +0.000 HD
ENDBRANCH   8  23
BRANCH   3  25
ATOM     25  C   UNL     1       2.273  -2.389  -0.228  0.00  0.00    +0.000 C 
BRANCH  25  26
ATOM     26  C   UNL     1       1.436  -2.542  -1.484  0.00  0.00    +0.000 A 
ATOM     27  C   UNL     1       1.693  -3.593  -2.380  0.00  0.00    +0.000 A 
ATOM     28  C   UNL     1       0.787  -3.902  -3.398  0.00  0.00    +0.000 A 
ATOM     29  C   UNL     1      -0.383  -3.162  -3.541  0.00  0.00    +0.000 A 
ATOM     30  C   UNL     1      -0.625  -2.084  -2.693  0.00  0.00    +0.000 A 
ATOM     31  C   UNL     1       0.283  -1.769  -1.677  0.00  0.00    +0.000 A 
ENDBRANCH  25  26
ENDBRANCH   3  25
TORSDOF 5
