REMARK  Name = 
REMARK  5 active torsions:
REMARK  status: ('A' for Active; 'I' for Inactive)
REMARK    1  A    between atoms: C_2  and  C_17
REMARK    2  A    between atoms: N_3  and  C_4
REMARK    3  A    between atoms: C_7  and  O_8
REMARK    4  A    between atoms: O_8  and  C_9
REMARK    5  A    between atoms: N_19  and  C_20
REMARK                            x       y       z     vdW  Elec       q    Type
REMARK                         _______ _______ _______ _____ _____    ______ ____
ROOT
ATOM      1  O   UNL     1       1.022  -0.011   0.168  0.00  0.00    +0.000 OA
ATOM      2  C   UNL     1       2.232   0.038  -0.004  0.00  0.00    +0.000 C 
ATOM      3  N   UNL     1       2.895   0.815  -0.940  0.00  0.00    +0.000 N 
ATOM      4  H   UNL     1       3.881   0.617  -1.079  0.00  0.00    +0.000 HD
ENDROOT
BRANCH   3   5
ATOM      5  C   UNL     1       2.259   1.714  -1.819  0.00  0.00    +0.000 A 
ATOM      6  C   UNL     1       0.954   2.158  -1.600  0.00  0.00    +0.000 A 
ATOM      7  C   UNL     1       0.302   2.954  -2.535  0.00  0.00    +0.000 A 
ATOM      8  C   UNL     1       0.980   3.400  -3.667  0.00  0.00    +0.000 A 
ATOM      9  C   UNL     1       2.296   2.987  -3.882  0.00  0.00    +0.000 A 
ATOM     10  C   UNL     1       2.942   2.156  -2.956  0.00  0.00    +0.000 A 
BRANCH   8  11
ATOM     11  O   UNL     1       0.413   4.200  -4.634  0.00  0.00    +0.000 OA
BRANCH  11  12
ATOM     12  C   UNL     1      -0.536   5.126  -4.274  0.00  0.00    +0.000 A 
ATOM     13  C   UNL     1      -0.576   5.790  -3.048  0.00  0.00    +0.000 A 
ATOM     14  C   UNL     1      -1.613   6.675  -2.776  0.00  0.00    +0.000 A 
ATOM     15  C   UNL     1      -2.543   6.920  -3.771  0.00  0.00    +0.000 A 
ATOM     16  N   UNL     1      -2.503   6.346  -4.993  0.00  0.00    +0.000 NA
ATOM     17  C   UNL     1      -1.499   5.462  -5.216  0.00  0.00    +0.000 A 
ENDBRANCH  11  12
ENDBRANCH   8  11
ENDBRANCH   3   5
BRANCH   2  18
ATOM     18  C   UNL     1       3.099  -0.819   0.779  0.00  0.00    +0.000 A 
ATOM     19  C   UNL     1       2.663  -1.777   1.665  0.00  0.00    +0.000 A 
ATOM     20  N   UNL     1       3.797  -2.362   2.159  0.00  0.00    +0.000 N 
ATOM     21  N   UNL     1       4.878  -1.732   1.625  0.00  0.00    +0.000 NA
ATOM     22  N   UNL     1       4.461  -0.810   0.764  0.00  0.00    +0.000 NA
BRANCH  20  23
ATOM     23  C   UNL     1       3.907  -3.467   3.027  0.00  0.00    +0.000 A 
ATOM     24  C   UNL     1       2.780  -4.197   3.421  0.00  0.00    +0.000 A 
ATOM     25  F   UNL     1       1.540  -3.858   3.046  0.00  0.00    +0.000 F 
ATOM     26  C   UNL     1       2.901  -5.338   4.214  0.00  0.00    +0.000 A 
ATOM     27  C   UNL     1       4.157  -5.764   4.632  0.00  0.00    +0.000 A 
ATOM     28  C   UNL     1       5.287  -5.032   4.276  0.00  0.00    +0.000 A 
ATOM     29  C   UNL     1       5.159  -3.892   3.482  0.00  0.00    +0.000 A 
ATOM     30  F   UNL     1       6.284  -3.224   3.189  0.00  0.00    +0.000 F 
ENDBRANCH  20  23
ENDBRANCH   2  18
TORSDOF 5
