REMARK  Name = 
REMARK  5 active torsions:
REMARK  status: ('A' for Active; 'I' for Inactive)
REMARK    1  A    between atoms: C_2  and  C_18
REMARK    2  A    between atoms: N_3  and  C_4
REMARK    3  A    between atoms: C_9  and  C_10
REMARK    4  A    between atoms: C_10  and  O_11
REMARK    5  A    between atoms: C_10  and  C_12
REMARK                            x       y       z     vdW  Elec       q    Type
REMARK                         _______ _______ _______ _____ _____    ______ ____
ROOT
ATOM      1  O   UNL     1       1.122   1.214  -0.403  0.00  0.00    +0.000 OA
ATOM      2  C   UNL     1       2.275   0.812  -0.237  0.00  0.00    +0.000 C 
ATOM      3  N   UNL     1       2.913  -0.145  -1.067  0.00  0.00    +0.000 N 
ATOM      4  H   UNL     1       3.676  -0.673  -0.662  0.00  0.00    +0.000 HD
ENDROOT
BRANCH   2   5
ATOM      5  C   UNL     1       2.997   1.261   1.027  0.00  0.00    +0.000 A 
ATOM      6  C   UNL     1       4.423   1.438   1.085  0.00  0.00    +0.000 A 
ATOM      7  C   UNL     1       5.041   2.042   2.205  0.00  0.00    +0.000 A 
ATOM      8  C   UNL     1       4.234   2.249   3.328  0.00  0.00    +0.000 A 
ATOM      9  N   UNL     1       4.916   2.428   4.548  0.00  0.00    +0.000 N 
ATOM     10  C   UNL     1       6.275   2.241   4.427  0.00  0.00    +0.000 A 
ATOM     11  O   UNL     1       6.883   1.209   4.698  0.00  0.00    +0.000 OA
ATOM     12  C   UNL     1       6.898   3.265   3.468  0.00  0.00    +0.000 A 
ATOM     13  C   UNL     1       6.426   2.671   2.353  0.00  0.00    +0.000 A 
ATOM     14  C   UNL     1       2.850   2.166   3.256  0.00  0.00    +0.000 A 
ATOM     15  F   UNL     1       2.107   2.610   4.277  0.00  0.00    +0.000 F 
ATOM     16  C   UNL     1       2.221   1.653   2.127  0.00  0.00    +0.000 A 
ATOM     17  H   UNL     1       4.534   3.107   5.191  0.00  0.00    +0.000 HD
ENDBRANCH   2   5
BRANCH   3  18
ATOM     18  C   UNL     1       2.266  -0.743  -2.211  0.00  0.00    +0.000 A 
ATOM     19  C   UNL     1       1.157  -0.069  -2.736  0.00  0.00    +0.000 A 
ATOM     20  C   UNL     1       0.480  -0.518  -3.868  0.00  0.00    +0.000 A 
ATOM     21  C   UNL     1       0.912  -1.651  -4.541  0.00  0.00    +0.000 A 
ATOM     22  C   UNL     1       2.019  -2.339  -4.064  0.00  0.00    +0.000 A 
ATOM     23  C   UNL     1       2.676  -1.948  -2.862  0.00  0.00    +0.000 A 
BRANCH  23  24
ATOM     24  C   UNL     1       3.606  -3.012  -2.284  0.00  0.00    +0.000 C 
BRANCH  24  25
ATOM     25  C   UNL     1       5.078  -2.871  -2.620  0.00  0.00    +0.000 A 
ATOM     26  C   UNL     1       5.852  -4.026  -2.709  0.00  0.00    +0.000 A 
ATOM     27  C   UNL     1       7.223  -3.897  -2.839  0.00  0.00    +0.000 A 
ATOM     28  C   UNL     1       7.798  -2.633  -2.863  0.00  0.00    +0.000 A 
ATOM     29  C   UNL     1       6.961  -1.536  -2.812  0.00  0.00    +0.000 A 
ATOM     30  N   UNL     1       5.622  -1.625  -2.660  0.00  0.00    +0.000 NA
ENDBRANCH  24  25
BRANCH  24  31
ATOM     31  O   UNL     1       3.096  -4.310  -2.637  0.00  0.00    +0.000 OA
ATOM     32  H   UNL     1       3.252  -4.394  -3.591  0.00  0.00    +0.000 HD
ENDBRANCH  24  31
ENDBRANCH  23  24
ENDBRANCH   3  18
TORSDOF 5
