REMARK  Name = 
REMARK  7 active torsions:
REMARK  status: ('A' for Active; 'I' for Inactive)
REMARK    1  A    between atoms: C_2  and  C_3
REMARK    2  A    between atoms: C_2  and  O_15
REMARK    3  A    between atoms: C_3  and  N_4
REMARK    4  A    between atoms: O_15  and  C_16
REMARK    5  A    between atoms: C_16  and  C_17
REMARK    6  A    between atoms: C_20  and  C_21
REMARK    7  A    between atoms: C_23  and  C_24
REMARK                            x       y       z     vdW  Elec       q    Type
REMARK                         _______ _______ _______ _____ _____    ______ ____
ROOT
ATOM      1  C   UNL     1       4.301  -0.869  -0.863  0.00  0.00    +0.000 C 
ENDROOT
BRANCH   1   2
ATOM      2  C   UNL     1       4.751  -1.873  -1.862  0.00  0.00    +0.000 A 
ATOM      3  C   UNL     1       5.031  -3.209  -1.690  0.00  0.00    +0.000 A 
ATOM      4  O   UNL     1       5.330  -3.743  -2.906  0.00  0.00    +0.000 OA
ATOM      5  C   UNL     1       5.216  -2.688  -3.775  0.00  0.00    +0.000 A 
ATOM      6  N   UNL     1       4.917  -1.543  -3.190  0.00  0.00    +0.000 NA
BRANCH   5   7
ATOM      7  C   UNL     1       5.346  -2.979  -5.201  0.00  0.00    +0.000 A 
ATOM      8  C   UNL     1       5.267  -1.925  -6.126  0.00  0.00    +0.000 A 
ATOM      9  C   UNL     1       5.278  -2.164  -7.510  0.00  0.00    +0.000 A 
ATOM     10  C   UNL     1       5.392  -3.485  -7.967  0.00  0.00    +0.000 A 
ATOM     11  C   UNL     1       5.496  -4.540  -7.060  0.00  0.00    +0.000 A 
ATOM     12  C   UNL     1       5.473  -4.288  -5.686  0.00  0.00    +0.000 A 
BRANCH   9  13
ATOM     13  C   UNL     1       5.138  -1.030  -8.495  0.00  0.00    +0.000 C 
ATOM     14  F   UNL     1       5.003   0.192  -7.909  0.00  0.00    +0.000 F 
ATOM     15  F   UNL     1       6.211  -0.927  -9.327  0.00  0.00    +0.000 F 
ATOM     16  F   UNL     1       4.052  -1.177  -9.304  0.00  0.00    +0.000 F 
ENDBRANCH   9  13
ENDBRANCH   5   7
ENDBRANCH   1   2
BRANCH   1  17
ATOM     17  O   UNL     1       2.867  -0.723  -0.876  0.00  0.00    +0.000 OA
BRANCH  17  19
ATOM     18  O   UNL     1       2.725  -1.527   1.262  0.00  0.00    +0.000 OA
ATOM     19  C   UNL     1       2.200  -1.079   0.250  0.00  0.00    +0.000 C 
BRANCH  19  20
ATOM     20  C   UNL     1       0.696  -0.891   0.083  0.00  0.00    +0.000 C 
BRANCH  20  21
ATOM     21  N   UNL     1      -0.005  -2.130  -0.247  0.00  0.00    +0.000 N 
ATOM     22  C   UNL     1      -0.250  -2.381  -1.591  0.00  0.00    +0.000 A 
ATOM     23  O   UNL     1       0.048  -1.656  -2.528  0.00  0.00    +0.000 OA
ATOM     24  C   UNL     1      -0.970  -3.665  -1.913  0.00  0.00    +0.000 A 
ATOM     25  N   UNL     1      -1.301  -4.555  -1.035  0.00  0.00    +0.000 NA
ATOM     26  C   UNL     1      -0.965  -4.301   0.304  0.00  0.00    +0.000 A 
ATOM     27  C   UNL     1      -1.253  -5.307   1.234  0.00  0.00    +0.000 A 
ATOM     28  C   UNL     1      -0.939  -5.143   2.581  0.00  0.00    +0.000 A 
ATOM     29  C   UNL     1      -0.368  -3.950   3.013  0.00  0.00    +0.000 A 
ATOM     30  C   UNL     1      -0.084  -2.931   2.098  0.00  0.00    +0.000 A 
ATOM     31  C   UNL     1      -0.350  -3.103   0.732  0.00  0.00    +0.000 A 
ENDBRANCH  20  21
ENDBRANCH  19  20
ENDBRANCH  17  19
ENDBRANCH   1  17
TORSDOF 7
