REMARK  Name = 
REMARK  6 active torsions:
REMARK  status: ('A' for Active; 'I' for Inactive)
REMARK    1  A    between atoms: C_1  and  N_2
REMARK    2  A    between atoms: C_4  and  C_5
REMARK    3  A    between atoms: C_5  and  C_6
REMARK    4  A    between atoms: N_8  and  C_9
REMARK    5  A    between atoms: C_9  and  C_10
REMARK    6  A    between atoms: C_15  and  C_16
REMARK                            x       y       z     vdW  Elec       q    Type
REMARK                         _______ _______ _______ _____ _____    ______ ____
ROOT
ATOM      1  C   UNL     1      -1.104  -4.352   0.350  0.00  0.00    +0.000 C 
ATOM      2  O   UNL     1      -2.259  -3.926   0.272  0.00  0.00    +0.000 OA
ATOM      3  N   UNL     1      -0.833  -5.685   0.572  0.00  0.00    +0.000 N 
ATOM      4  H   UNL     1       0.095  -6.087   0.469  0.00  0.00    +0.000 HD
ENDROOT
BRANCH   1   5
ATOM      5  C   UNL     1       0.099  -3.430   0.218  0.00  0.00    +0.000 C 
BRANCH   5   9
ATOM      6  C   UNL     1      -1.399  -1.353   4.479  0.00  0.00    +0.000 C 
ATOM      7  N   UNL     1      -0.428  -1.399   3.398  0.00  0.00    +0.000 N 
ATOM      8  C   UNL     1      -0.586  -2.312   2.376  0.00  0.00    +0.000 A 
ATOM      9  C   UNL     1       0.236  -2.392   1.314  0.00  0.00    +0.000 A 
ATOM     10  C   UNL     1       1.340  -1.403   1.223  0.00  0.00    +0.000 A 
ATOM     11  C   UNL     1       2.192  -1.315   0.109  0.00  0.00    +0.000 A 
ATOM     12  C   UNL     1       3.235  -0.382   0.067  0.00  0.00    +0.000 A 
ATOM     13  C   UNL     1       3.454   0.473   1.143  0.00  0.00    +0.000 A 
ATOM     14  C   UNL     1       2.612   0.416   2.249  0.00  0.00    +0.000 A 
ATOM     15  C   UNL     1       1.554  -0.504   2.281  0.00  0.00    +0.000 A 
ATOM     16  C   UNL     1       0.628  -0.493   3.442  0.00  0.00    +0.000 A 
ATOM     17  O   UNL     1       0.805   0.301   4.365  0.00  0.00    +0.000 OA
ENDBRANCH   5   9
ENDBRANCH   1   5
BRANCH   3  18
ATOM     18  C   UNL     1      -1.955  -6.595   0.573  0.00  0.00    +0.000 C 
BRANCH  18  19
ATOM     19  C   UNL     1      -1.639  -8.072   0.664  0.00  0.00    +0.000 A 
ATOM     20  N   UNL     1      -0.308  -8.395   0.585  0.00  0.00    +0.000 NA
ATOM     21  C   UNL     1       0.026  -9.698   0.687  0.00  0.00    +0.000 A 
ATOM     22  C   UNL     1      -0.894 -10.710   0.865  0.00  0.00    +0.000 A 
ATOM     23  C   UNL     1      -2.245 -10.371   0.918  0.00  0.00    +0.000 A 
ATOM     24  C   UNL     1      -2.674  -9.033   0.811  0.00  0.00    +0.000 A 
BRANCH  24  25
ATOM     25  C   UNL     1      -4.135  -8.716   0.897  0.00  0.00    +0.000 A 
ATOM     26  C   UNL     1      -4.980  -9.410   1.790  0.00  0.00    +0.000 A 
ATOM     27  C   UNL     1      -6.340  -9.092   1.918  0.00  0.00    +0.000 A 
ATOM     28  C   UNL     1      -6.874  -8.047   1.182  0.00  0.00    +0.000 A 
ATOM     29  F   UNL     1      -8.161  -7.712   1.334  0.00  0.00    +0.000 F 
ATOM     30  C   UNL     1      -6.090  -7.357   0.276  0.00  0.00    +0.000 A 
ATOM     31  C   UNL     1      -4.750  -7.725   0.105  0.00  0.00    +0.000 A 
ENDBRANCH  24  25
ENDBRANCH  18  19
ENDBRANCH   3  18
TORSDOF 5
