REMARK  Name = 
REMARK  5 active torsions:
REMARK  status: ('A' for Active; 'I' for Inactive)
REMARK    1  A    between atoms: C_2  and  C_16
REMARK    2  A    between atoms: N_3  and  C_4
REMARK    3  A    between atoms: C_4  and  C_5
REMARK    4  A    between atoms: C_4  and  C_11
REMARK    5  A    between atoms: N_18  and  C_19
REMARK                            x       y       z     vdW  Elec       q    Type
REMARK                         _______ _______ _______ _____ _____    ______ ____
ROOT
ATOM      1  O   UNL     1       0.986   0.029  -0.861  0.00  0.00    +0.000 OA
ATOM      2  C   UNL     1       2.161   0.029  -0.523  0.00  0.00    +0.000 C 
ATOM      3  N   UNL     1       2.857   1.152  -0.141  0.00  0.00    +0.000 N 
ATOM      4  H   UNL     1       3.737   1.019   0.348  0.00  0.00    +0.000 HD
ENDROOT
BRANCH   2   5
ATOM      5  C   UNL     1       2.957  -1.275  -0.515  0.00  0.00    +0.000 A 
ATOM      6  N   UNL     1       2.568  -2.202  -1.346  0.00  0.00    +0.000 NA
ATOM      7  N   UNL     1       3.220  -3.410  -1.340  0.00  0.00    +0.000 N 
ATOM      8  C   UNL     1       4.248  -3.693  -0.463  0.00  0.00    +0.000 A 
ATOM      9  C   UNL     1       4.762  -2.825   0.407  0.00  0.00    +0.000 A 
ATOM     10  C   UNL     1       4.155  -1.488   0.385  0.00  0.00    +0.000 A 
ATOM     11  O   UNL     1       4.619  -0.556   1.029  0.00  0.00    +0.000 OA
BRANCH   7  12
ATOM     12  C   UNL     1       2.812  -4.304  -2.378  0.00  0.00    +0.000 A 
ATOM     13  C   UNL     1       2.432  -3.794  -3.632  0.00  0.00    +0.000 A 
ATOM     14  C   UNL     1       2.083  -4.650  -4.670  0.00  0.00    +0.000 A 
ATOM     15  F   UNL     1       1.766  -4.139  -5.867  0.00  0.00    +0.000 F 
ATOM     16  C   UNL     1       2.071  -6.026  -4.490  0.00  0.00    +0.000 A 
ATOM     17  C   UNL     1       2.412  -6.555  -3.248  0.00  0.00    +0.000 A 
ATOM     18  C   UNL     1       2.784  -5.700  -2.202  0.00  0.00    +0.000 A 
ENDBRANCH   7  12
ENDBRANCH   2   5
BRANCH   3  19
ATOM     19  C   UNL     1       2.195   2.427  -0.004  0.00  0.00    +0.000 C 
BRANCH  19  20
ATOM     20  C   UNL     1       1.684   2.647   1.410  0.00  0.00    +0.000 A 
ATOM     21  C   UNL     1       2.536   2.699   2.528  0.00  0.00    +0.000 A 
ATOM     22  C   UNL     1       2.022   2.861   3.817  0.00  0.00    +0.000 A 
ATOM     23  C   UNL     1       0.648   2.960   4.016  0.00  0.00    +0.000 A 
ATOM     24  C   UNL     1      -0.215   2.895   2.925  0.00  0.00    +0.000 A 
ATOM     25  C   UNL     1       0.297   2.738   1.634  0.00  0.00    +0.000 A 
ENDBRANCH  19  20
BRANCH  19  26
ATOM     26  C   UNL     1       3.155   3.537  -0.324  0.00  0.00    +0.000 A 
ATOM     27  C   UNL     1       2.832   4.755  -0.896  0.00  0.00    +0.000 A 
ATOM     28  O   UNL     1       3.940   5.509  -1.108  0.00  0.00    +0.000 OA
ATOM     29  C   UNL     1       4.999   4.786  -0.671  0.00  0.00    +0.000 A 
ATOM     30  C   UNL     1       4.579   3.576  -0.175  0.00  0.00    +0.000 A 
ENDBRANCH  19  26
ENDBRANCH   3  19
TORSDOF 5
