REMARK  Name = 
REMARK  3 active torsions:
REMARK  status: ('A' for Active; 'I' for Inactive)
REMARK    1  A    between atoms: C_2  and  C_15
REMARK    2  A    between atoms: N_3  and  C_4
REMARK    3  A    between atoms: C_17  and  C_18
REMARK                            x       y       z     vdW  Elec       q    Type
REMARK                         _______ _______ _______ _____ _____    ______ ____
ROOT
ATOM      1  O   UNL     1       0.965   0.060  -0.190  0.00  0.00    +0.000 OA
ATOM      2  C   UNL     1       2.184   0.117  -0.064  0.00  0.00    +0.000 C 
ATOM      3  N   UNL     1       2.855  -0.076   1.139  0.00  0.00    +0.000 N 
ATOM      4  H   UNL     1       3.841   0.160   1.168  0.00  0.00    +0.000 HD
ENDROOT
BRANCH   3   5
ATOM      5  C   UNL     1       2.214  -0.424   2.356  0.00  0.00    +0.000 A 
ATOM      6  C   UNL     1       0.909  -0.940   2.383  0.00  0.00    +0.000 A 
ATOM      7  C   UNL     1       0.267  -1.250   3.579  0.00  0.00    +0.000 A 
ATOM      8  C   UNL     1       0.928  -1.050   4.777  0.00  0.00    +0.000 A 
ATOM      9  O   UNL     1       0.239  -1.373   5.921  0.00  0.00    +0.000 OA
ATOM     10  C   UNL     1       0.875  -1.171   7.119  0.00  0.00    +0.000 A 
ATOM     11  C   UNL     1       2.109  -0.683   7.275  0.00  0.00    +0.000 A 
ATOM     12  C   UNL     1       2.887  -0.325   6.074  0.00  0.00    +0.000 A 
ATOM     13  O   UNL     1       4.016   0.136   6.167  0.00  0.00    +0.000 OA
ATOM     14  C   UNL     1       2.231  -0.549   4.775  0.00  0.00    +0.000 A 
ATOM     15  C   UNL     1       2.888  -0.245   3.569  0.00  0.00    +0.000 A 
ENDBRANCH   3   5
BRANCH   2  16
ATOM     16  C   UNL     1       2.981   0.447  -1.213  0.00  0.00    +0.000 A 
ATOM     17  C   UNL     1       2.541   0.837  -2.451  0.00  0.00    +0.000 A 
ATOM     18  C   UNL     1       3.705   1.015  -3.228  0.00  0.00    +0.000 A 
ATOM     19  N   UNL     1       4.795   0.733  -2.494  0.00  0.00    +0.000 NA
ATOM     20  O   UNL     1       4.336   0.381  -1.227  0.00  0.00    +0.000 OA
BRANCH  18  21
ATOM     21  C   UNL     1       3.739   1.440  -4.620  0.00  0.00    +0.000 A 
ATOM     22  C   UNL     1       2.762   2.320  -5.109  0.00  0.00    +0.000 A 
ATOM     23  F   UNL     1       1.827   2.829  -4.292  0.00  0.00    +0.000 F 
ATOM     24  C   UNL     1       2.712   2.691  -6.449  0.00  0.00    +0.000 A 
ATOM     25  C   UNL     1       3.655   2.175  -7.320  0.00  0.00    +0.000 A 
ATOM     26  F   UNL     1       3.604   2.509  -8.615  0.00  0.00    +0.000 F 
ATOM     27  C   UNL     1       4.644   1.309  -6.873  0.00  0.00    +0.000 A 
ATOM     28  C   UNL     1       4.682   0.947  -5.526  0.00  0.00    +0.000 A 
ATOM     29  F   UNL     1       5.622   0.073  -5.139  0.00  0.00    +0.000 F 
ENDBRANCH  18  21
ENDBRANCH   2  16
TORSDOF 3
