REMARK  Name = 
REMARK  5 active torsions:
REMARK  status: ('A' for Active; 'I' for Inactive)
REMARK    1  A    between atoms: C_2  and  C_17
REMARK    2  A    between atoms: N_3  and  C_4
REMARK    3  A    between atoms: C_4  and  C_5
REMARK    4  A    between atoms: C_9  and  C_10
REMARK    5  A    between atoms: C_18  and  C_19
REMARK                            x       y       z     vdW  Elec       q    Type
REMARK                         _______ _______ _______ _____ _____    ______ ____
ROOT
ATOM      1  O   UNL     1       0.962  -0.099  -0.146  0.00  0.00    +0.000 OA
ATOM      2  C   UNL     1       2.188  -0.014  -0.043  0.00  0.00    +0.000 C 
ATOM      3  N   UNL     1       2.934   0.697  -0.953  0.00  0.00    +0.000 N 
ATOM      4  H   UNL     1       3.937   0.764  -0.827  0.00  0.00    +0.000 HD
ENDROOT
BRANCH   2   5
ATOM      5  C   UNL     1       2.952  -0.699   0.979  0.00  0.00    +0.000 A 
ATOM      6  C   UNL     1       2.773  -1.929   1.605  0.00  0.00    +0.000 A 
ATOM      7  C   UNL     1       3.771  -1.992   2.622  0.00  0.00    +0.000 A 
ATOM      8  C   UNL     1       4.520  -0.846   2.512  0.00  0.00    +0.000 A 
ATOM      9  O   UNL     1       4.054  -0.070   1.500  0.00  0.00    +0.000 OA
BRANCH   6  10
ATOM     10  C   UNL     1       1.764  -2.921   1.247  0.00  0.00    +0.000 A 
ATOM     11  C   UNL     1       1.353  -3.096  -0.088  0.00  0.00    +0.000 A 
ATOM     12  C   UNL     1       0.381  -4.039  -0.430  0.00  0.00    +0.000 A 
ATOM     13  C   UNL     1      -0.160  -4.846   0.560  0.00  0.00    +0.000 A 
ATOM     14  F   UNL     1      -1.082  -5.760   0.231  0.00  0.00    +0.000 F 
ATOM     15  C   UNL     1       0.259  -4.710   1.877  0.00  0.00    +0.000 A 
ATOM     16  F   UNL     1      -0.251  -5.505   2.828  0.00  0.00    +0.000 F 
ATOM     17  C   UNL     1       1.212  -3.755   2.229  0.00  0.00    +0.000 A 
ENDBRANCH   6  10
ENDBRANCH   2   5
BRANCH   3  18
ATOM     18  C   UNL     1       2.317   1.352  -2.087  0.00  0.00    +0.000 C 
BRANCH  18  19
ATOM     19  C   UNL     1       1.787   2.728  -1.762  0.00  0.00    +0.000 A 
ATOM     20  C   UNL     1       0.525   2.886  -1.222  0.00  0.00    +0.000 A 
ATOM     21  C   UNL     1       0.125   4.176  -0.974  0.00  0.00    +0.000 A 
ATOM     22  N   UNL     1       0.890   5.250  -1.230  0.00  0.00    +0.000 NA
ATOM     23  C   UNL     1       2.114   5.014  -1.756  0.00  0.00    +0.000 A 
ATOM     24  N   UNL     1       2.594   3.780  -2.025  0.00  0.00    +0.000 NA
BRANCH  23  25
ATOM     25  C   UNL     1       2.956   6.195  -2.086  0.00  0.00    +0.000 A 
ATOM     26  C   UNL     1       2.519   7.497  -1.813  0.00  0.00    +0.000 A 
ATOM     27  C   UNL     1       3.318   8.583  -2.161  0.00  0.00    +0.000 A 
ATOM     28  C   UNL     1       4.541   8.356  -2.776  0.00  0.00    +0.000 A 
ATOM     29  C   UNL     1       4.917   7.047  -3.011  0.00  0.00    +0.000 A 
ATOM     30  N   UNL     1       4.162   5.977  -2.683  0.00  0.00    +0.000 NA
ENDBRANCH  23  25
ENDBRANCH  18  19
ENDBRANCH   3  18
TORSDOF 5
