REMARK  Name = 
REMARK  5 active torsions:
REMARK  status: ('A' for Active; 'I' for Inactive)
REMARK    1  A    between atoms: C_2  and  C_3
REMARK    2  A    between atoms: C_5  and  O_6
REMARK    3  A    between atoms: O_6  and  C_7
REMARK    4  A    between atoms: C_12  and  N_13
REMARK    5  A    between atoms: C_14  and  C_16
REMARK                            x       y       z     vdW  Elec       q    Type
REMARK                         _______ _______ _______ _____ _____    ______ ____
ROOT
ATOM      1  N   UNL     1       2.506  -3.945   2.195  0.00  0.00    +0.000 N 
ATOM      2  C   UNL     1       2.702  -4.625   3.392  0.00  0.00    +0.000 C 
ATOM      3  O   UNL     1       2.293  -5.756   3.638  0.00  0.00    +0.000 OA
ATOM      4  H   UNL     1       2.912  -3.020   2.076  0.00  0.00    +0.000 HD
ENDROOT
BRANCH   2   5
ATOM      5  C   UNL     1       3.473  -3.966   4.493  0.00  0.00    +0.000 A 
ATOM      6  C   UNL     1       3.955  -4.815   5.518  0.00  0.00    +0.000 A 
ATOM      7  C   UNL     1       4.551  -4.306   6.672  0.00  0.00    +0.000 A 
ATOM      8  C   UNL     1       4.733  -2.937   6.766  0.00  0.00    +0.000 A 
ATOM      9  C   UNL     1       5.296  -2.326   7.965  0.00  0.00    +0.000 A 
ATOM     10  N   UNL     1       5.832  -1.149   7.979  0.00  0.00    +0.000 NA
ATOM     11  N   UNL     1       5.780  -0.441   6.810  0.00  0.00    +0.000 N 
ATOM     12  C   UNL     1       4.952  -0.733   5.744  0.00  0.00    +0.000 A 
ATOM     13  O   UNL     1       4.741   0.049   4.824  0.00  0.00    +0.000 OA
ATOM     14  C   UNL     1       4.405  -2.102   5.706  0.00  0.00    +0.000 A 
ATOM     15  C   UNL     1       3.706  -2.590   4.591  0.00  0.00    +0.000 A 
ATOM     16  H   UNL     1       6.255   0.458   6.810  0.00  0.00    +0.000 HD
ENDBRANCH   2   5
BRANCH   1  22
ATOM     17  C   UNL     1       1.619  -3.599  -0.067  0.00  0.00    +0.000 A 
ATOM     18  C   UNL     1       0.752  -3.987  -1.103  0.00  0.00    +0.000 A 
ATOM     19  C   UNL     1       0.137  -5.240  -1.087  0.00  0.00    +0.000 A 
ATOM     20  C   UNL     1       0.320  -6.075  -0.005  0.00  0.00    +0.000 A 
ATOM     21  C   UNL     1       1.087  -5.651   1.081  0.00  0.00    +0.000 A 
ATOM     22  C   UNL     1       1.737  -4.408   1.087  0.00  0.00    +0.000 A 
BRANCH  17  23
ATOM     23  O   UNL     1       2.352  -2.424  -0.143  0.00  0.00    +0.000 OA
BRANCH  23  26
ATOM     24  C   UNL     1       3.582  -2.390  -3.647  0.00  0.00    +0.000 A 
ATOM     25  C   UNL     1       3.281  -2.867  -2.362  0.00  0.00    +0.000 A 
ATOM     26  C   UNL     1       2.758  -1.998  -1.398  0.00  0.00    +0.000 A 
ATOM     27  C   UNL     1       2.632  -0.637  -1.687  0.00  0.00    +0.000 A 
ATOM     28  C   UNL     1       2.964  -0.156  -2.951  0.00  0.00    +0.000 A 
ATOM     29  C   UNL     1       3.427  -1.033  -3.937  0.00  0.00    +0.000 A 
BRANCH  24  31
ATOM     30  N   UNL     1       4.366  -4.033  -5.496  0.00  0.00    +0.000 NA
ATOM     31  C   UNL     1       4.026  -3.296  -4.667  0.00  0.00    +0.000 C 
ENDBRANCH  24  31
ENDBRANCH  23  26
ENDBRANCH  17  23
ENDBRANCH   1  22
TORSDOF 5
