REMARK  Name = 
REMARK  10 active torsions:
REMARK  status: ('A' for Active; 'I' for Inactive)
REMARK    1  A    between atoms: C_1  and  C_2
REMARK    2  A    between atoms: C_2  and  O_3
REMARK    3  A    between atoms: O_3  and  C_4
REMARK    4  A    between atoms: C_7  and  N_8
REMARK    5  A    between atoms: C_11  and  C_12
REMARK    6  A    between atoms: N_14  and  C_15
REMARK    7  A    between atoms: C_15  and  C_16
REMARK    8  A    between atoms: C_18  and  O_19
REMARK    9  A    between atoms: O_19  and  C_20
REMARK   10  A    between atoms: C_30  and  C_31
REMARK                            x       y       z     vdW  Elec       q    Type
REMARK                         _______ _______ _______ _____ _____    ______ ____
ROOT
ATOM      1  C   UNL     1      11.599  -1.450   2.960  0.00  0.00    +0.000 C 
ATOM      2  O   UNL     1      11.404  -2.659   2.928  0.00  0.00    +0.000 OA
ATOM      3  N   UNL     1      12.841  -0.891   3.149  0.00  0.00    +0.000 N 
ATOM      4  H   UNL     1      12.973   0.092   2.965  0.00  0.00    +0.000 HD
ENDROOT
BRANCH   1   8
ATOM      5  N   UNL     1       9.123   1.244   2.845  0.00  0.00    +0.000 N 
ATOM      6  N   UNL     1       8.522   0.345   2.016  0.00  0.00    +0.000 NA
ATOM      7  C   UNL     1       9.345  -0.703   2.005  0.00  0.00    +0.000 A 
ATOM      8  C   UNL     1      10.517  -0.500   2.762  0.00  0.00    +0.000 A 
ATOM      9  C   UNL     1      10.331   0.749   3.342  0.00  0.00    +0.000 A 
ATOM     10  C   UNL     1      11.138   1.460   4.375  0.00  0.00    +0.000 C 
BRANCH   5  14
ATOM     11  C   UNL     1       7.412   4.876   3.859  0.00  0.00    +0.000 A 
ATOM     12  C   UNL     1       6.698   4.055   3.007  0.00  0.00    +0.000 A 
ATOM     13  C   UNL     1       7.257   2.829   2.640  0.00  0.00    +0.000 A 
ATOM     14  C   UNL     1       8.511   2.502   3.139  0.00  0.00    +0.000 A 
ATOM     15  N   UNL     1       9.187   3.359   3.938  0.00  0.00    +0.000 NA
ATOM     16  N   UNL     1       8.639   4.546   4.303  0.00  0.00    +0.000 NA
BRANCH  11  17
ATOM     17  O   UNL     1       6.855   6.078   4.237  0.00  0.00    +0.000 OA
BRANCH  17  19
ATOM     18  C   UNL     1       6.865   7.944   5.743  0.00  0.00    +0.000 C 
ATOM     19  C   UNL     1       7.416   6.559   5.465  0.00  0.00    +0.000 C 
ENDBRANCH  17  19
ENDBRANCH  11  17
ENDBRANCH   5  14
ENDBRANCH   1   8
BRANCH   3  20
ATOM     20  C   UNL     1      14.023  -1.682   3.452  0.00  0.00    +0.000 C 
BRANCH  20  21
ATOM     21  C   UNL     1      14.824  -2.043   2.217  0.00  0.00    +0.000 A 
ATOM     22  C   UNL     1      14.252  -2.833   1.235  0.00  0.00    +0.000 A 
ATOM     23  C   UNL     1      14.926  -3.001   0.030  0.00  0.00    +0.000 A 
ATOM     24  C   UNL     1      16.224  -2.527  -0.097  0.00  0.00    +0.000 A 
ATOM     25  C   UNL     1      16.753  -1.809   0.960  0.00  0.00    +0.000 A 
ATOM     26  N   UNL     1      16.071  -1.523   2.093  0.00  0.00    +0.000 NA
BRANCH  23  27
ATOM     27  O   UNL     1      14.379  -3.638  -1.064  0.00  0.00    +0.000 OA
BRANCH  27  28
ATOM     28  C   UNL     1      13.019  -3.531  -1.279  0.00  0.00    +0.000 A 
ATOM     29  C   UNL     1      12.270  -2.377  -1.005  0.00  0.00    +0.000 A 
ATOM     30  C   UNL     1      10.884  -2.378  -1.174  0.00  0.00    +0.000 A 
ATOM     31  C   UNL     1      10.251  -3.513  -1.673  0.00  0.00    +0.000 A 
ATOM     32  C   UNL     1      11.011  -4.626  -2.018  0.00  0.00    +0.000 A 
ATOM     33  F   UNL     1      10.402  -5.701  -2.536  0.00  0.00    +0.000 F 
ATOM     34  C   UNL     1      12.389  -4.646  -1.828  0.00  0.00    +0.000 A 
ENDBRANCH  27  28
ENDBRANCH  23  27
ENDBRANCH  20  21
ENDBRANCH   3  20
TORSDOF 8
