REMARK  Name = 
REMARK  5 active torsions:
REMARK  status: ('A' for Active; 'I' for Inactive)
REMARK    1  A    between atoms: C_2  and  C_3
REMARK    2  A    between atoms: N_5  and  C_6
REMARK    3  A    between atoms: N_17  and  C_18
REMARK    4  A    between atoms: N_17  and  C_24
REMARK    5  A    between atoms: C_18  and  C_19
REMARK                            x       y       z     vdW  Elec       q    Type
REMARK                         _______ _______ _______ _____ _____    ______ ____
ROOT
ATOM      1  O   UNL     1       1.201  -0.075   0.704  0.00  0.00    +0.000 OA
ATOM      2  C   UNL     1       2.359  -0.040   0.267  0.00  0.00    +0.000 C 
ATOM      3  N   UNL     1       2.999  -1.210  -0.172  0.00  0.00    +0.000 N 
ENDROOT
BRANCH   2   4
ATOM      4  C   UNL     1       3.060   1.314   0.172  0.00  0.00    +0.000 A 
ATOM      5  C   UNL     1       2.593   2.319   0.943  0.00  0.00    +0.000 A 
ATOM      6  N   UNL     1       3.121   3.623   0.916  0.00  0.00    +0.000 N 
ATOM      7  C   UNL     1       4.275   3.900   0.147  0.00  0.00    +0.000 A 
ATOM      8  O   UNL     1       4.942   4.930   0.148  0.00  0.00    +0.000 OA
ATOM      9  C   UNL     1       4.720   2.819  -0.765  0.00  0.00    +0.000 A 
ATOM     10  C   UNL     1       4.102   1.638  -0.776  0.00  0.00    +0.000 A 
BRANCH   6  11
ATOM     11  C   UNL     1       2.497   4.707   1.648  0.00  0.00    +0.000 A 
ATOM     12  C   UNL     1       2.584   6.038   1.198  0.00  0.00    +0.000 A 
ATOM     13  C   UNL     1       1.939   7.066   1.884  0.00  0.00    +0.000 A 
ATOM     14  F   UNL     1       2.023   8.321   1.416  0.00  0.00    +0.000 F 
ATOM     15  C   UNL     1       1.197   6.815   3.024  0.00  0.00    +0.000 A 
ATOM     16  C   UNL     1       1.096   5.509   3.491  0.00  0.00    +0.000 A 
ATOM     17  C   UNL     1       1.738   4.465   2.808  0.00  0.00    +0.000 A 
ENDBRANCH   6  11
ENDBRANCH   2   4
BRANCH   3  18
ATOM     18  C   UNL     1       4.413  -1.307  -0.265  0.00  0.00    +0.000 A 
ATOM     19  C   UNL     1       5.222  -1.037   0.844  0.00  0.00    +0.000 A 
ATOM     20  C   UNL     1       6.599  -0.886   0.677  0.00  0.00    +0.000 A 
ATOM     21  C   UNL     1       7.162  -0.996  -0.595  0.00  0.00    +0.000 A 
ATOM     22  C   UNL     1       6.363  -1.327  -1.690  0.00  0.00    +0.000 A 
ATOM     23  C   UNL     1       4.990  -1.519  -1.523  0.00  0.00    +0.000 A 
ENDBRANCH   3  18
BRANCH   3  24
ATOM     24  C   UNL     1       2.312  -2.494   0.031  0.00  0.00    +0.000 C 
BRANCH  24  25
ATOM     25  C   UNL     1       1.484  -2.898  -1.139  0.00  0.00    +0.000 A 
ATOM     26  C   UNL     1       1.577  -3.982  -1.986  0.00  0.00    +0.000 A 
ATOM     27  N   UNL     1       0.493  -4.054  -2.819  0.00  0.00    +0.000 NA
ATOM     28  C   UNL     1      -0.267  -3.037  -2.487  0.00  0.00    +0.000 A 
ATOM     29  N   UNL     1       0.307  -2.289  -1.498  0.00  0.00    +0.000 N 
ATOM     30  H   UNL     1      -0.094  -1.461  -1.067  0.00  0.00    +0.000 HD
ENDBRANCH  24  25
ENDBRANCH   3  24
TORSDOF 5
