REMARK  Name = 
REMARK  8 active torsions:
REMARK  status: ('A' for Active; 'I' for Inactive)
REMARK    1  A    between atoms: C_1  and  O_2
REMARK    2  A    between atoms: O_2  and  C_3
REMARK    3  A    between atoms: C_3  and  C_4
REMARK    4  A    between atoms: C_7  and  N_8
REMARK    5  A    between atoms: C_9  and  C_11
REMARK    6  A    between atoms: C_12  and  C_13
REMARK    7  A    between atoms: C_19  and  C_20
REMARK    8  A    between atoms: C_30  and  C_31
REMARK                            x       y       z     vdW  Elec       q    Type
REMARK                         _______ _______ _______ _____ _____    ______ ____
ROOT
ATOM      1  C   UNL     1      10.767   1.581  -1.272  0.00  0.00    +0.000 A 
ATOM      2  C   UNL     1      11.300   2.524  -2.090  0.00  0.00    +0.000 A 
ATOM      3  C   UNL     1      12.803   2.715  -2.017  0.00  0.00    +0.000 A 
ATOM      4  N   UNL     1      13.581   1.986  -1.273  0.00  0.00    +0.000 NA
ATOM      5  N   UNL     1      13.004   1.066  -0.469  0.00  0.00    +0.000 N 
ATOM      6  C   UNL     1      11.662   0.874  -0.317  0.00  0.00    +0.000 A 
ATOM      7  O   UNL     1      11.215   0.133   0.557  0.00  0.00    +0.000 OA
ATOM      8  H   UNL     1      13.627   0.551   0.145  0.00  0.00    +0.000 HD
ENDROOT
BRANCH   3   9
ATOM      9  C   UNL     1      13.482   3.747  -2.881  0.00  0.00    +0.000 A 
ATOM     10  C   UNL     1      12.959   5.026  -3.089  0.00  0.00    +0.000 A 
ATOM     11  C   UNL     1      13.561   5.926  -3.971  0.00  0.00    +0.000 A 
ATOM     12  C   UNL     1      14.765   5.591  -4.578  0.00  0.00    +0.000 A 
ATOM     13  C   UNL     1      15.360   4.363  -4.297  0.00  0.00    +0.000 A 
ATOM     14  C   UNL     1      14.720   3.439  -3.463  0.00  0.00    +0.000 A 
ENDBRANCH   3   9
BRANCH   2  15
ATOM     15  C   UNL     1      10.481   3.280  -3.068  0.00  0.00    +0.000 A 
ATOM     16  C   UNL     1       9.799   4.449  -2.687  0.00  0.00    +0.000 A 
ATOM     17  C   UNL     1       9.162   5.237  -3.649  0.00  0.00    +0.000 A 
ATOM     18  C   UNL     1       9.137   4.826  -4.980  0.00  0.00    +0.000 A 
ATOM     19  C   UNL     1       9.739   3.625  -5.351  0.00  0.00    +0.000 A 
ATOM     20  C   UNL     1      10.418   2.858  -4.403  0.00  0.00    +0.000 A 
ENDBRANCH   2  15
BRANCH   1  22
ATOM     21  N   UNL     1       8.775   0.509  -0.284  0.00  0.00    +0.000 N 
ATOM     22  C   UNL     1       9.316   1.183  -1.367  0.00  0.00    +0.000 C 
ATOM     23  O   UNL     1       8.688   1.379  -2.404  0.00  0.00    +0.000 OA
ATOM     24  H   UNL     1       9.424   0.199   0.440  0.00  0.00    +0.000 HD
BRANCH  21  28
ATOM     25  C   UNL     1       4.891  -0.986  -0.279  0.00  0.00    +0.000 A 
ATOM     26  N   UNL     1       5.176   0.018  -1.118  0.00  0.00    +0.000 NA
ATOM     27  C   UNL     1       6.441   0.482  -1.082  0.00  0.00    +0.000 A 
ATOM     28  C   UNL     1       7.444   0.006  -0.247  0.00  0.00    +0.000 A 
ATOM     29  C   UNL     1       7.034  -1.005   0.619  0.00  0.00    +0.000 A 
ATOM     30  C   UNL     1       7.909  -1.634   1.659  0.00  0.00    +0.000 C 
ATOM     31  N   UNL     1       5.770  -1.503   0.602  0.00  0.00    +0.000 NA
BRANCH  25  32
ATOM     32  C   UNL     1       3.471  -1.515  -0.286  0.00  0.00    +0.000 C 
BRANCH  32  34
ATOM     33  C   UNL     1       2.577   0.099   1.209  0.00  0.00    +0.000 C 
ATOM     34  O   UNL     1       2.756  -1.286   0.938  0.00  0.00    +0.000 OA
ENDBRANCH  32  34
ENDBRANCH  25  32
ENDBRANCH  21  28
ENDBRANCH   1  22
TORSDOF 6
