REMARK  Name = 
REMARK  5 active torsions:
REMARK  status: ('A' for Active; 'I' for Inactive)
REMARK    1  A    between atoms: C_1  and  C_2
REMARK    2  A    between atoms: C_4  and  C_5
REMARK    3  A    between atoms: N_7  and  C_8
REMARK    4  A    between atoms: C_11  and  N_12
REMARK    5  A    between atoms: C_23  and  C_24
REMARK                            x       y       z     vdW  Elec       q    Type
REMARK                         _______ _______ _______ _____ _____    ______ ____
ROOT
ATOM      1  C   UNL     1      -1.906   2.510   0.135  0.00  0.00    +0.000 C 
ATOM      2  O   UNL     1      -3.107   2.366   0.358  0.00  0.00    +0.000 OA
ATOM      3  N   UNL     1      -1.264   3.717  -0.098  0.00  0.00    +0.000 N 
ATOM      4  H   UNL     1      -0.322   3.685  -0.467  0.00  0.00    +0.000 HD
ENDROOT
BRANCH   1   8
ATOM      5  C   UNL     1       2.425   0.064   0.764  0.00  0.00    +0.000 C 
ATOM      6  C   UNL     1       0.971  -0.006   0.366  0.00  0.00    +0.000 A 
ATOM      7  C   UNL     1       0.249   1.213   0.426  0.00  0.00    +0.000 A 
ATOM      8  C   UNL     1      -1.088   1.276   0.039  0.00  0.00    +0.000 A 
ATOM      9  C   UNL     1      -1.722   0.116  -0.396  0.00  0.00    +0.000 A 
ATOM     10  C   UNL     1      -1.031  -1.098  -0.428  0.00  0.00    +0.000 A 
ATOM     11  C   UNL     1       0.325  -1.207  -0.047  0.00  0.00    +0.000 A 
BRANCH  11  12
ATOM     12  C   UNL     1       0.975  -2.554  -0.100  0.00  0.00    +0.000 A 
ATOM     13  C   UNL     1       0.615  -3.505  -1.071  0.00  0.00    +0.000 A 
ATOM     14  C   UNL     1       1.222  -4.755  -1.078  0.00  0.00    +0.000 A 
ATOM     15  N   UNL     1       2.188  -5.128  -0.220  0.00  0.00    +0.000 NA
ATOM     16  C   UNL     1       2.530  -4.222   0.712  0.00  0.00    +0.000 A 
ATOM     17  C   UNL     1       1.938  -2.971   0.826  0.00  0.00    +0.000 A 
ENDBRANCH  11  12
ENDBRANCH   1   8
BRANCH   3  18
ATOM     18  C   UNL     1      -1.909   4.974  -0.083  0.00  0.00    +0.000 A 
ATOM     19  C   UNL     1      -3.156   5.185   0.489  0.00  0.00    +0.000 A 
ATOM     20  C   UNL     1      -3.756   6.441   0.421  0.00  0.00    +0.000 A 
ATOM     21  C   UNL     1      -3.105   7.501  -0.212  0.00  0.00    +0.000 A 
ATOM     22  N   UNL     1      -1.880   7.311  -0.768  0.00  0.00    +0.000 NA
ATOM     23  C   UNL     1      -1.310   6.079  -0.674  0.00  0.00    +0.000 A 
BRANCH  21  24
ATOM     24  N   UNL     1      -3.746   8.781  -0.297  0.00  0.00    +0.000 N 
ATOM     25  C   UNL     1      -3.498   9.615  -1.384  0.00  0.00    +0.000 A 
ATOM     26  C   UNL     1      -4.074  10.811  -1.568  0.00  0.00    +0.000 A 
ATOM     27  C   UNL     1      -5.025  11.290  -0.538  0.00  0.00    +0.000 A 
ATOM     28  O   UNL     1      -5.604  12.364  -0.645  0.00  0.00    +0.000 OA
ATOM     29  C   UNL     1      -5.255  10.420   0.639  0.00  0.00    +0.000 A 
ATOM     30  C   UNL     1      -4.616   9.243   0.693  0.00  0.00    +0.000 A 
ENDBRANCH  21  24
ENDBRANCH   3  18
TORSDOF 4
