REMARK  Name = 
REMARK  10 active torsions:
REMARK  status: ('A' for Active; 'I' for Inactive)
REMARK    1  A    between atoms: C_2  and  C_3
REMARK    2  A    between atoms: C_3  and  C_4
REMARK    3  A    between atoms: C_9  and  O_10
REMARK    4  A    between atoms: O_10  and  C_11
REMARK    5  A    between atoms: C_11  and  C_12
REMARK    6  A    between atoms: N_18  and  CA_19
REMARK    7  A    between atoms: CA_19  and  C_20
REMARK    8  A    between atoms: CA_19  and  C_31
REMARK    9  A    between atoms: C_20  and  C_21
REMARK   10  A    between atoms: C_31  and  OXT_33
REMARK                            x       y       z     vdW  Elec       q    Type
REMARK                         _______ _______ _______ _____ _____    ______ ____
ROOT
ATOM      1  O   UNL     1       1.607  -1.014  -0.561  0.00  0.00    +0.000 OA
ATOM      2  C   UNL     1       2.589  -0.353  -0.247  0.00  0.00    +0.000 C 
ATOM      3  N   UNL     1       3.468  -0.706   0.749  0.00  0.00    +0.000 N 
ATOM      4  H   UNL     1       4.113   0.017   1.066  0.00  0.00    +0.000 HD
ENDROOT
BRANCH   3   5
ATOM      5  CA  UNL     1       3.218  -1.768   1.720  0.00  0.00    +0.000 C 
BRANCH   5   6
ATOM      6  C   UNL     1       4.363  -1.664   2.750  0.00  0.00    +0.000 C 
ATOM      7  O   UNL     1       4.828  -0.578   3.071  0.00  0.00    +0.000 OA
BRANCH   6   8
ATOM      8  OXT UNL     1       4.788  -2.801   3.334  0.00  0.00    +0.000 OA
ATOM      9  HXT UNL     1       4.464  -3.643   2.982  0.00  0.00    +0.000 HD
ENDBRANCH   6   8
ENDBRANCH   5   6
BRANCH   5  10
ATOM     10  C   UNL     1       2.892  -3.147   1.125  0.00  0.00    +0.000 C 
BRANCH  10  11
ATOM     11  C   UNL     1       3.971  -3.922   0.415  0.00  0.00    +0.000 A 
ATOM     12  C   UNL     1       4.932  -3.378  -0.423  0.00  0.00    +0.000 A 
ATOM     13  N   UNL     1       5.947  -4.090  -0.976  0.00  0.00    +0.000 NA
ATOM     14  C   UNL     1       6.058  -5.394  -0.656  0.00  0.00    +0.000 A 
ATOM     15  C   UNL     1       7.157  -6.137  -1.073  0.00  0.00    +0.000 A 
ATOM     16  C   UNL     1       7.362  -7.452  -0.635  0.00  0.00    +0.000 A 
ATOM     17  C   UNL     1       6.427  -8.066   0.191  0.00  0.00    +0.000 A 
ATOM     18  C   UNL     1       5.275  -7.377   0.550  0.00  0.00    +0.000 A 
ATOM     19  C   UNL     1       5.104  -6.044   0.149  0.00  0.00    +0.000 A 
ATOM     20  C   UNL     1       4.016  -5.305   0.609  0.00  0.00    +0.000 A 
ENDBRANCH  10  11
ENDBRANCH   5  10
ENDBRANCH   3   5
BRANCH   2  21
ATOM     21  C   UNL     1       2.927   0.969  -0.899  0.00  0.00    +0.000 C 
BRANCH  21  22
ATOM     22  C   UNL     1       3.756   0.864  -2.154  0.00  0.00    +0.000 A 
ATOM     23  C   UNL     1       3.075   0.746  -3.380  0.00  0.00    +0.000 A 
ATOM     24  C   UNL     1       3.758   0.825  -4.590  0.00  0.00    +0.000 A 
ATOM     25  C   UNL     1       5.131   1.028  -4.592  0.00  0.00    +0.000 A 
ATOM     26  C   UNL     1       5.828   1.080  -3.382  0.00  0.00    +0.000 A 
ATOM     27  C   UNL     1       5.161   0.942  -2.155  0.00  0.00    +0.000 A 
BRANCH  27  28
ATOM     28  O   UNL     1       5.816   0.887  -0.940  0.00  0.00    +0.000 OA
BRANCH  28  29
ATOM     29  C   UNL     1       7.215   0.561  -1.040  0.00  0.00    +0.000 C 
BRANCH  29  30
ATOM     30  C   UNL     1       7.845   0.132   0.264  0.00  0.00    +0.000 A 
ATOM     31  C   UNL     1       8.897  -0.795   0.242  0.00  0.00    +0.000 A 
ATOM     32  C   UNL     1       9.517  -1.144   1.431  0.00  0.00    +0.000 A 
ATOM     33  N   UNL     1       9.174  -0.627   2.627  0.00  0.00    +0.000 NA
ATOM     34  C   UNL     1       8.165   0.269   2.631  0.00  0.00    +0.000 A 
ATOM     35  C   UNL     1       7.489   0.688   1.492  0.00  0.00    +0.000 A 
ENDBRANCH  29  30
ENDBRANCH  28  29
ENDBRANCH  27  28
ENDBRANCH  21  22
ENDBRANCH   2  21
TORSDOF 10
