REMARK  Name = 
REMARK  4 active torsions:
REMARK  status: ('A' for Active; 'I' for Inactive)
REMARK    1  A    between atoms: C_2  and  C_15
REMARK    2  A    between atoms: N_3  and  C_4
REMARK    3  A    between atoms: C_4  and  C_5
REMARK    4  A    between atoms: N_17  and  C_18
REMARK                            x       y       z     vdW  Elec       q    Type
REMARK                         _______ _______ _______ _____ _____    ______ ____
ROOT
ATOM      1  O   UNL     1       2.860   0.223   1.042  0.00  0.00    +0.000 OA
ATOM      2  C   UNL     1       2.252   0.245  -0.024  0.00  0.00    +0.000 C 
ATOM      3  N   UNL     1       0.920   0.561  -0.134  0.00  0.00    +0.000 N 
ATOM      4  H   UNL     1       0.441   0.469  -1.018  0.00  0.00    +0.000 HD
ENDROOT
BRANCH   2   5
ATOM      5  C   UNL     1       2.931  -0.139  -1.307  0.00  0.00    +0.000 A 
ATOM      6  C   UNL     1       2.500   0.346  -2.480  0.00  0.00    +0.000 A 
ATOM      7  N   UNL     1       3.080   0.010  -3.699  0.00  0.00    +0.000 N 
ATOM      8  C   UNL     1       4.216  -0.816  -3.759  0.00  0.00    +0.000 A 
ATOM      9  O   UNL     1       4.800  -1.179  -4.778  0.00  0.00    +0.000 OA
ATOM     10  C   UNL     1       4.708  -1.330  -2.446  0.00  0.00    +0.000 A 
ATOM     11  C   UNL     1       4.089  -1.007  -1.302  0.00  0.00    +0.000 A 
BRANCH   7  12
ATOM     12  C   UNL     1       2.464   0.457  -4.912  0.00  0.00    +0.000 A 
ATOM     13  C   UNL     1       3.219   1.023  -5.945  0.00  0.00    +0.000 A 
ATOM     14  C   UNL     1       2.583   1.529  -7.084  0.00  0.00    +0.000 A 
ATOM     15  C   UNL     1       1.198   1.436  -7.220  0.00  0.00    +0.000 A 
ATOM     16  C   UNL     1       0.437   0.848  -6.214  0.00  0.00    +0.000 A 
ATOM     17  C   UNL     1       1.068   0.379  -5.068  0.00  0.00    +0.000 A 
ATOM     18  F   UNL     1       0.307  -0.192  -4.119  0.00  0.00    +0.000 F 
ENDBRANCH   7  12
ENDBRANCH   2   5
BRANCH   3  19
ATOM     19  C   UNL     1       0.108   0.913   1.005  0.00  0.00    +0.000 C 
BRANCH  19  20
ATOM     20  C   UNL     1      -0.373   2.307   0.827  0.00  0.00    +0.000 A 
ATOM     21  C   UNL     1      -1.557   2.715   0.242  0.00  0.00    +0.000 A 
ATOM     22  O   UNL     1      -1.688   4.064   0.287  0.00  0.00    +0.000 OA
ATOM     23  C   UNL     1      -0.578   4.551   0.906  0.00  0.00    +0.000 A 
ATOM     24  C   UNL     1      -0.327   5.897   1.169  0.00  0.00    +0.000 A 
ATOM     25  C   UNL     1       0.878   6.189   1.822  0.00  0.00    +0.000 A 
ATOM     26  C   UNL     1       1.759   5.166   2.174  0.00  0.00    +0.000 A 
ATOM     27  F   UNL     1       2.902   5.483   2.795  0.00  0.00    +0.000 F 
ATOM     28  C   UNL     1       1.484   3.823   1.901  0.00  0.00    +0.000 A 
ATOM     29  C   UNL     1       0.277   3.509   1.251  0.00  0.00    +0.000 A 
ENDBRANCH  19  20
ENDBRANCH   3  19
TORSDOF 4
