REMARK  Name = 
REMARK  7 active torsions:
REMARK  status: ('A' for Active; 'I' for Inactive)
REMARK    1  A    between atoms: C_1  and  C_2
REMARK    2  A    between atoms: C_7  and  C_8
REMARK    3  A    between atoms: C_8  and  O_9
REMARK    4  A    between atoms: C_10  and  C_11
REMARK    5  A    between atoms: C_19  and  O_20
REMARK    6  A    between atoms: O_20  and  C_21
REMARK    7  A    between atoms: C_21  and  C_22
REMARK                            x       y       z     vdW  Elec       q    Type
REMARK                         _______ _______ _______ _____ _____    ______ ____
ROOT
ATOM      1  C   UNL     1       2.823  -1.640  -0.136  0.00  0.00    +0.000 A 
ATOM      2  C   UNL     1       3.676  -1.513   0.884  0.00  0.00    +0.000 A 
ATOM      3  C   UNL     1       4.966  -2.208   0.806  0.00  0.00    +0.000 A 
ATOM      4  O   UNL     1       5.761  -2.075   1.736  0.00  0.00    +0.000 OA
ATOM      5  N   UNL     1       5.168  -2.986  -0.323  0.00  0.00    +0.000 N 
ATOM      6  C   UNL     1       6.351  -3.708  -0.426  0.00  0.00    +0.000 A 
ATOM      7  C   UNL     1       6.615  -4.488  -1.475  0.00  0.00    +0.000 A 
ATOM      8  C   UNL     1       5.673  -4.580  -2.552  0.00  0.00    +0.000 A 
ATOM      9  C   UNL     1       4.525  -3.879  -2.552  0.00  0.00    +0.000 A 
ATOM     10  C   UNL     1       4.204  -3.022  -1.333  0.00  0.00    +0.000 A 
ATOM     11  N   UNL     1       3.080  -2.366  -1.270  0.00  0.00    +0.000 NA
ENDROOT
BRANCH   1  19
ATOM     12  C   UNL     1       0.611  -3.200   1.014  0.00  0.00    +0.000 C 
ATOM     13  C   UNL     1       0.427  -1.766   0.586  0.00  0.00    +0.000 A 
ATOM     14  C   UNL     1      -0.834  -1.175   0.759  0.00  0.00    +0.000 A 
ATOM     15  C   UNL     1      -1.050   0.136   0.366  0.00  0.00    +0.000 A 
ATOM     16  F   UNL     1      -2.258   0.688   0.541  0.00  0.00    +0.000 F 
ATOM     17  C   UNL     1      -0.030   0.884  -0.202  0.00  0.00    +0.000 A 
ATOM     18  C   UNL     1       1.250   0.327  -0.391  0.00  0.00    +0.000 A 
ATOM     19  C   UNL     1       1.486  -1.013   0.006  0.00  0.00    +0.000 A 
BRANCH  18  20
ATOM     20  C   UNL     1       2.311   1.217  -0.990  0.00  0.00    +0.000 C 
BRANCH  20  21
ATOM     21  O   UNL     1       1.896   1.683  -2.268  0.00  0.00    +0.000 OA
ATOM     22  H   UNL     1       1.676   0.890  -2.789  0.00  0.00    +0.000 HD
ENDBRANCH  20  21
ENDBRANCH  18  20
ENDBRANCH   1  19
BRANCH   9  23
ATOM     23  O   UNL     1       3.609  -3.854  -3.587  0.00  0.00    +0.000 OA
BRANCH  23  24
ATOM     24  C   UNL     1       4.091  -4.260  -4.871  0.00  0.00    +0.000 C 
BRANCH  24  25
ATOM     25  C   UNL     1       3.219  -3.731  -5.982  0.00  0.00    +0.000 A 
ATOM     26  C   UNL     1       2.439  -2.577  -5.810  0.00  0.00    +0.000 A 
ATOM     27  C   UNL     1       1.708  -2.049  -6.874  0.00  0.00    +0.000 A 
ATOM     28  C   UNL     1       1.757  -2.659  -8.125  0.00  0.00    +0.000 A 
ATOM     29  C   UNL     1       2.534  -3.800  -8.313  0.00  0.00    +0.000 A 
ATOM     30  C   UNL     1       3.264  -4.332  -7.250  0.00  0.00    +0.000 A 
ENDBRANCH  24  25
ENDBRANCH  23  24
ENDBRANCH   9  23
TORSDOF 6
