REMARK  Name = 
REMARK  7 active torsions:
REMARK  status: ('A' for Active; 'I' for Inactive)
REMARK    1  A    between atoms: C_1  and  C_2
REMARK    2  A    between atoms: C_5  and  C_6
REMARK    3  A    between atoms: N_8  and  C_9
REMARK    4  A    between atoms: C_13  and  N_14
REMARK    5  A    between atoms: N_17  and  C_18
REMARK    6  A    between atoms: C_18  and  C_19
REMARK    7  A    between atoms: N_26  and  C_27
REMARK                            x       y       z     vdW  Elec       q    Type
REMARK                         _______ _______ _______ _____ _____    ______ ____
ROOT
ATOM      1  C   UNL     1       8.256  -1.907   0.030  0.00  0.00    +0.000 A 
ATOM      2  C   UNL     1       8.098  -3.072  -0.716  0.00  0.00    +0.000 A 
ATOM      3  C   UNL     1       9.185  -3.913  -0.919  0.00  0.00    +0.000 A 
ATOM      4  C   UNL     1      10.419  -3.614  -0.339  0.00  0.00    +0.000 A 
ATOM      5  C   UNL     1      10.604  -2.452   0.417  0.00  0.00    +0.000 A 
ATOM      6  C   UNL     1       9.505  -1.597   0.604  0.00  0.00    +0.000 A 
ENDROOT
BRANCH   5   7
ATOM      7  N   UNL     1      11.860  -2.101   0.985  0.00  0.00    +0.000 N 
ATOM      8  C   UNL     1      13.075  -2.651   0.626  0.00  0.00    +0.000 C 
ATOM      9  O   UNL     1      13.251  -3.534  -0.215  0.00  0.00    +0.000 OA
ATOM     10  N   UNL     1      14.145  -2.066   1.265  0.00  0.00    +0.000 N 
ATOM     11  H   UNL     1      11.897  -1.256   1.533  0.00  0.00    +0.000 HD
ATOM     12  H   UNL     1      13.993  -1.767   2.216  0.00  0.00    +0.000 HD
BRANCH  10  13
ATOM     13  C   UNL     1      15.470  -2.572   0.949  0.00  0.00    +0.000 C 
BRANCH  13  14
ATOM     14  C   UNL     1      16.562  -1.576   1.220  0.00  0.00    +0.000 A 
ATOM     15  C   UNL     1      17.641  -1.897   2.049  0.00  0.00    +0.000 A 
ATOM     16  C   UNL     1      18.664  -0.972   2.197  0.00  0.00    +0.000 A 
ATOM     17  N   UNL     1      18.686   0.230   1.584  0.00  0.00    +0.000 NA
ATOM     18  C   UNL     1      17.642   0.517   0.777  0.00  0.00    +0.000 A 
ATOM     19  C   UNL     1      16.574  -0.340   0.566  0.00  0.00    +0.000 A 
ENDBRANCH  13  14
ENDBRANCH  10  13
ENDBRANCH   5   7
BRANCH   1  22
ATOM     20  C   UNL     1       7.150   0.278  -0.077  0.00  0.00    +0.000 C 
ATOM     21  O   UNL     1       8.136   0.827  -0.562  0.00  0.00    +0.000 OA
ATOM     22  N   UNL     1       7.124  -1.081   0.199  0.00  0.00    +0.000 N 
ATOM     23  H   UNL     1       6.223  -1.534   0.145  0.00  0.00    +0.000 HD
BRANCH  20  28
ATOM     24  C   UNL     1       3.788   3.834   1.188  0.00  0.00    +0.000 C 
ATOM     25  C   UNL     1       4.420   2.584   0.680  0.00  0.00    +0.000 A 
ATOM     26  N   UNL     1       3.716   1.509   0.389  0.00  0.00    +0.000 NA
ATOM     27  C   UNL     1       4.620   0.532   0.116  0.00  0.00    +0.000 A 
ATOM     28  C   UNL     1       5.921   0.987   0.219  0.00  0.00    +0.000 A 
ATOM     29  N   UNL     1       5.797   2.336   0.587  0.00  0.00    +0.000 N 
BRANCH  29  30
ATOM     30  C   UNL     1       6.854   3.258   0.895  0.00  0.00    +0.000 A 
ATOM     31  C   UNL     1       6.716   4.626   0.645  0.00  0.00    +0.000 A 
ATOM     32  C   UNL     1       7.737   5.522   0.982  0.00  0.00    +0.000 A 
ATOM     33  C   UNL     1       8.925   5.052   1.530  0.00  0.00    +0.000 A 
ATOM     34  C   UNL     1       9.091   3.690   1.753  0.00  0.00    +0.000 A 
ATOM     35  C   UNL     1       8.055   2.802   1.460  0.00  0.00    +0.000 A 
ENDBRANCH  29  30
ENDBRANCH  20  28
ENDBRANCH   1  22
TORSDOF 6
