REMARK  Name = 
REMARK  5 active torsions:
REMARK  status: ('A' for Active; 'I' for Inactive)
REMARK    1  A    between atoms: C_2  and  C_17
REMARK    2  A    between atoms: N_3  and  C_4
REMARK    3  A    between atoms: N_8  and  C_9
REMARK    4  A    between atoms: C_17  and  C_18
REMARK    5  A    between atoms: C_17  and  N_24
REMARK                            x       y       z     vdW  Elec       q    Type
REMARK                         _______ _______ _______ _____ _____    ______ ____
ROOT
ATOM      1  O   UNL     1       1.068  -0.196  -0.470  0.00  0.00    +0.000 OA
ATOM      2  C   UNL     1       2.227   0.038  -0.117  0.00  0.00    +0.000 C 
ATOM      3  N   UNL     1       2.788  -0.453   1.062  0.00  0.00    +0.000 N 
ATOM      4  H   UNL     1       3.614   0.002   1.443  0.00  0.00    +0.000 HD
ENDROOT
BRANCH   3   5
ATOM      5  C   UNL     1       2.210  -1.377   1.919  0.00  0.00    +0.000 A 
ATOM      6  C   UNL     1       1.171  -2.171   1.603  0.00  0.00    +0.000 A 
ATOM      7  C   UNL     1       0.613  -3.095   2.545  0.00  0.00    +0.000 A 
ATOM      8  C   UNL     1       1.091  -3.155   3.789  0.00  0.00    +0.000 A 
ATOM      9  N   UNL     1       2.163  -2.373   4.207  0.00  0.00    +0.000 N 
ATOM     10  C   UNL     1       2.813  -1.493   3.313  0.00  0.00    +0.000 A 
ATOM     11  O   UNL     1       3.777  -0.768   3.572  0.00  0.00    +0.000 OA
BRANCH   9  12
ATOM     12  C   UNL     1       2.575  -2.417   5.578  0.00  0.00    +0.000 A 
ATOM     13  C   UNL     1       1.613  -2.353   6.600  0.00  0.00    +0.000 A 
ATOM     14  C   UNL     1       1.996  -2.353   7.942  0.00  0.00    +0.000 A 
ATOM     15  C   UNL     1       3.343  -2.461   8.279  0.00  0.00    +0.000 A 
ATOM     16  C   UNL     1       4.304  -2.564   7.275  0.00  0.00    +0.000 A 
ATOM     17  C   UNL     1       3.924  -2.527   5.930  0.00  0.00    +0.000 A 
ENDBRANCH   9  12
ENDBRANCH   3   5
BRANCH   2  18
ATOM     18  C   UNL     1       3.163   0.917  -0.954  0.00  0.00    +0.000 C 
BRANCH  18  19
ATOM     19  C   UNL     1       3.082   0.587  -2.446  0.00  0.00    +0.000 A 
ATOM     20  C   UNL     1       2.099   1.136  -3.291  0.00  0.00    +0.000 A 
ATOM     21  C   UNL     1       2.051   0.803  -4.646  0.00  0.00    +0.000 A 
ATOM     22  C   UNL     1       2.974  -0.096  -5.181  0.00  0.00    +0.000 A 
ATOM     23  C   UNL     1       3.928  -0.678  -4.353  0.00  0.00    +0.000 A 
ATOM     24  C   UNL     1       3.979  -0.348  -2.996  0.00  0.00    +0.000 A 
ENDBRANCH  18  19
BRANCH  18  25
ATOM     25  N   UNL     1       2.981   2.357  -0.679  0.00  0.00    +0.000 N 
ATOM     26  C   UNL     1       1.838   2.980  -0.238  0.00  0.00    +0.000 A 
ATOM     27  C   UNL     1       2.110   4.321  -0.076  0.00  0.00    +0.000 A 
ATOM     28  C   UNL     1       3.465   4.521  -0.419  0.00  0.00    +0.000 A 
ATOM     29  C   UNL     1       3.983   3.297  -0.783  0.00  0.00    +0.000 A 
ENDBRANCH  18  25
ENDBRANCH   2  18
TORSDOF 5
