REMARK  Name = 
REMARK  4 active torsions:
REMARK  status: ('A' for Active; 'I' for Inactive)
REMARK    1  A    between atoms: C_2  and  C_17
REMARK    2  A    between atoms: N_3  and  C_4
REMARK    3  A    between atoms: N_8  and  C_9
REMARK    4  A    between atoms: C_18  and  C_19
REMARK                            x       y       z     vdW  Elec       q    Type
REMARK                         _______ _______ _______ _____ _____    ______ ____
ROOT
ATOM      1  O   UNL     1       3.837  -2.384   1.406  0.00  0.00    +0.000 OA
ATOM      2  C   UNL     1       3.719  -1.420   0.651  0.00  0.00    +0.000 C 
ATOM      3  N   UNL     1       2.950  -1.458  -0.491  0.00  0.00    +0.000 N 
ATOM      4  H   UNL     1       2.783  -0.607  -1.018  0.00  0.00    +0.000 HD
ENDROOT
BRANCH   2   5
ATOM      5  C   UNL     1       4.372  -0.172   0.966  0.00  0.00    +0.000 A 
ATOM      6  C   UNL     1       5.623  -0.018   1.578  0.00  0.00    +0.000 A 
ATOM      7  N   UNL     1       5.846   1.317   1.880  0.00  0.00    +0.000 NA
ATOM      8  C   UNL     1       4.710   1.923   1.647  0.00  0.00    +0.000 A 
ATOM      9  C   UNL     1       4.264   3.204   2.068  0.00  0.00    +0.000 A 
ATOM     10  C   UNL     1       3.014   3.604   1.772  0.00  0.00    +0.000 A 
ATOM     11  C   UNL     1       2.135   2.782   0.960  0.00  0.00    +0.000 A 
ATOM     12  C   UNL     1       2.534   1.548   0.605  0.00  0.00    +0.000 A 
ATOM     13  N   UNL     1       3.803   1.095   0.988  0.00  0.00    +0.000 N 
BRANCH   6  14
ATOM     14  C   UNL     1       6.641  -1.038   2.028  0.00  0.00    +0.000 C 
ATOM     15  F   UNL     1       6.255  -2.329   1.895  0.00  0.00    +0.000 F 
ATOM     16  F   UNL     1       7.808  -0.923   1.337  0.00  0.00    +0.000 F 
ATOM     17  F   UNL     1       6.953  -0.866   3.343  0.00  0.00    +0.000 F 
ENDBRANCH   6  14
ENDBRANCH   2   5
BRANCH   3  18
ATOM     18  C   UNL     1       2.276  -2.562  -0.997  0.00  0.00    +0.000 A 
ATOM     19  C   UNL     1       2.519  -3.841  -0.674  0.00  0.00    +0.000 A 
ATOM     20  C   UNL     1       1.819  -4.921  -1.309  0.00  0.00    +0.000 A 
ATOM     21  C   UNL     1       0.932  -4.674  -2.279  0.00  0.00    +0.000 A 
ATOM     22  N   UNL     1       0.606  -3.375  -2.649  0.00  0.00    +0.000 N 
ATOM     23  C   UNL     1       1.206  -2.261  -2.029  0.00  0.00    +0.000 A 
ATOM     24  O   UNL     1       0.977  -1.073  -2.277  0.00  0.00    +0.000 OA
BRANCH  22  25
ATOM     25  C   UNL     1      -0.304  -3.149  -3.726  0.00  0.00    +0.000 A 
ATOM     26  C   UNL     1      -0.078  -3.775  -4.960  0.00  0.00    +0.000 A 
ATOM     27  C   UNL     1      -0.915  -3.518  -6.046  0.00  0.00    +0.000 A 
ATOM     28  C   UNL     1      -2.012  -2.673  -5.893  0.00  0.00    +0.000 A 
ATOM     29  C   UNL     1      -2.270  -2.079  -4.658  0.00  0.00    +0.000 A 
ATOM     30  C   UNL     1      -1.409  -2.302  -3.580  0.00  0.00    +0.000 A 
ENDBRANCH  22  25
ENDBRANCH   3  18
TORSDOF 4
