REMARK  Name = 
REMARK  5 active torsions:
REMARK  status: ('A' for Active; 'I' for Inactive)
REMARK    1  A    between atoms: C_1  and  O_2
REMARK    2  A    between atoms: O_2  and  C_3
REMARK    3  A    between atoms: C_9  and  C_10
REMARK    4  A    between atoms: C_14  and  C_15
REMARK    5  A    between atoms: C_15  and  N_16
REMARK                            x       y       z     vdW  Elec       q    Type
REMARK                         _______ _______ _______ _____ _____    ______ ____
ROOT
ATOM      1  C   UNL     1       4.662  -1.148  -1.555  0.00  0.00    +0.000 A 
ATOM      2  C   UNL     1       6.010  -1.334  -1.232  0.00  0.00    +0.000 A 
ATOM      3  N   UNL     1       6.638  -2.533  -1.092  0.00  0.00    +0.000 NA
ATOM      4  C   UNL     1       5.889  -3.632  -1.271  0.00  0.00    +0.000 A 
ATOM      5  C   UNL     1       4.537  -3.589  -1.564  0.00  0.00    +0.000 A 
ATOM      6  C   UNL     1       3.927  -2.327  -1.703  0.00  0.00    +0.000 A 
ENDROOT
BRANCH   1  13
ATOM      7  C   UNL     1       2.781   0.610  -1.404  0.00  0.00    +0.000 A 
ATOM      8  C   UNL     1       2.359   1.940  -1.593  0.00  0.00    +0.000 A 
ATOM      9  C   UNL     1       3.206   2.885  -2.169  0.00  0.00    +0.000 A 
ATOM     10  C   UNL     1       4.472   2.500  -2.565  0.00  0.00    +0.000 A 
ATOM     11  F   UNL     1       5.293   3.399  -3.123  0.00  0.00    +0.000 F 
ATOM     12  C   UNL     1       4.912   1.194  -2.379  0.00  0.00    +0.000 A 
ATOM     13  C   UNL     1       4.096   0.216  -1.767  0.00  0.00    +0.000 A 
BRANCH   7  15
ATOM     14  C   UNL     1       0.565  -0.142  -0.988  0.00  0.00    +0.000 C 
ATOM     15  O   UNL     1       1.969  -0.323  -0.802  0.00  0.00    +0.000 OA
ENDBRANCH   7  15
ENDBRANCH   1  13
BRANCH   5  16
ATOM     16  C   UNL     1       3.768  -4.863  -1.708  0.00  0.00    +0.000 C 
BRANCH  16  17
ATOM     17  N   UNL     1       3.555  -5.328  -3.069  0.00  0.00    +0.000 N 
ATOM     18  C   UNL     1       2.900  -4.457  -3.909  0.00  0.00    +0.000 A 
ATOM     19  N   UNL     1       1.703  -4.638  -4.351  0.00  0.00    +0.000 NA
ATOM     20  C   UNL     1       1.027  -5.775  -3.873  0.00  0.00    +0.000 A 
ATOM     21  C   UNL     1      -0.365  -5.807  -3.808  0.00  0.00    +0.000 A 
ATOM     22  F   UNL     1      -1.081  -4.742  -4.200  0.00  0.00    +0.000 F 
ATOM     23  C   UNL     1      -1.019  -6.906  -3.256  0.00  0.00    +0.000 A 
ATOM     24  F   UNL     1      -2.350  -6.888  -3.114  0.00  0.00    +0.000 F 
ATOM     25  C   UNL     1      -0.304  -8.012  -2.798  0.00  0.00    +0.000 A 
ATOM     26  C   UNL     1       1.087  -8.001  -2.851  0.00  0.00    +0.000 A 
ATOM     27  C   UNL     1       1.731  -6.866  -3.354  0.00  0.00    +0.000 A 
ATOM     28  C   UNL     1       3.168  -6.661  -3.110  0.00  0.00    +0.000 A 
ATOM     29  O   UNL     1       3.908  -7.600  -2.844  0.00  0.00    +0.000 OA
ENDBRANCH  16  17
ENDBRANCH   5  16
TORSDOF 4
