REMARK  Name = 
REMARK  7 active torsions:
REMARK  status: ('A' for Active; 'I' for Inactive)
REMARK    1  A    between atoms: C_1  and  N_2
REMARK    2  A    between atoms: N_2  and  C_3
REMARK    3  A    between atoms: C_3  and  C_4
REMARK    4  A    between atoms: C_9  and  O_10
REMARK    5  A    between atoms: O_10  and  C_11
REMARK    6  A    between atoms: C_11  and  C_12
REMARK    7  A    between atoms: C_18  and  C_20
REMARK                            x       y       z     vdW  Elec       q    Type
REMARK                         _______ _______ _______ _____ _____    ______ ____
ROOT
ATOM      1  C   UNL     1       3.394   1.060   0.821  0.00  0.00    +0.000 C 
ATOM      2  N   UNL     1       2.531   0.288  -0.063  0.00  0.00    +0.000 N 
ATOM      3  C   UNL     1       1.402  -0.361   0.459  0.00  0.00    +0.000 C 
ATOM      4  O   UNL     1       0.936  -1.401  -0.007  0.00  0.00    +0.000 OA
ENDROOT
BRANCH   3   5
ATOM      5  C   UNL     1       0.654   0.343   1.584  0.00  0.00    +0.000 A 
ATOM      6  C   UNL     1      -0.644   0.617   1.390  0.00  0.00    +0.000 A 
ATOM      7  C   UNL     1      -1.402   1.266   2.482  0.00  0.00    +0.000 A 
ATOM      8  O   UNL     1      -2.587   1.560   2.292  0.00  0.00    +0.000 OA
ATOM      9  N   UNL     1      -0.697   1.487   3.655  0.00  0.00    +0.000 N 
ATOM     10  C   UNL     1      -1.330   2.044   4.763  0.00  0.00    +0.000 A 
ATOM     11  C   UNL     1      -0.677   2.261   5.915  0.00  0.00    +0.000 A 
ATOM     12  C   UNL     1       0.722   1.934   6.024  0.00  0.00    +0.000 A 
ATOM     13  C   UNL     1       1.375   1.416   4.980  0.00  0.00    +0.000 A 
ATOM     14  C   UNL     1       0.647   1.155   3.710  0.00  0.00    +0.000 A 
ATOM     15  N   UNL     1       1.319   0.613   2.747  0.00  0.00    +0.000 NA
ENDBRANCH   3   5
BRANCH   2  16
ATOM     16  C   UNL     1       3.032   0.002  -1.446  0.00  0.00    +0.000 C 
BRANCH  16  17
ATOM     17  C   UNL     1       2.164   0.578  -2.566  0.00  0.00    +0.000 A 
ATOM     18  C   UNL     1       0.767   0.397  -2.486  0.00  0.00    +0.000 A 
ATOM     19  C   UNL     1      -0.135   0.978  -3.367  0.00  0.00    +0.000 A 
ATOM     20  C   UNL     1       0.340   1.764  -4.391  0.00  0.00    +0.000 A 
ATOM     21  C   UNL     1       1.715   1.886  -4.568  0.00  0.00    +0.000 A 
ATOM     22  C   UNL     1       2.643   1.232  -3.723  0.00  0.00    +0.000 A 
BRANCH  22  23
ATOM     23  O   UNL     1       3.993   1.174  -4.058  0.00  0.00    +0.000 OA
BRANCH  23  24
ATOM     24  C   UNL     1       4.224   1.377  -5.478  0.00  0.00    +0.000 C 
BRANCH  24  25
ATOM     25  C   UNL     1       5.541   0.909  -6.059  0.00  0.00    +0.000 A 
ATOM     26  C   UNL     1       6.601   0.449  -5.279  0.00  0.00    +0.000 A 
ATOM     27  C   UNL     1       7.768  -0.024  -5.890  0.00  0.00    +0.000 A 
ATOM     28  C   UNL     1       7.891  -0.029  -7.281  0.00  0.00    +0.000 A 
ATOM     29  C   UNL     1       6.858   0.461  -8.068  0.00  0.00    +0.000 A 
ATOM     30  C   UNL     1       5.695   0.937  -7.462  0.00  0.00    +0.000 A 
ENDBRANCH  24  25
ENDBRANCH  23  24
ENDBRANCH  22  23
ENDBRANCH  16  17
ENDBRANCH   2  16
TORSDOF 6
