REMARK  Name = 
REMARK  7 active torsions:
REMARK  status: ('A' for Active; 'I' for Inactive)
REMARK    1  A    between atoms: N_1  and  S_2
REMARK    2  A    between atoms: S_2  and  C_5
REMARK    3  A    between atoms: C_8  and  S_9
REMARK    4  A    between atoms: S_9  and  C_10
REMARK    5  A    between atoms: C_15  and  C_16
REMARK    6  A    between atoms: N_18  and  C_19
REMARK    7  A    between atoms: C_19  and  C_20
REMARK                            x       y       z     vdW  Elec       q    Type
REMARK                         _______ _______ _______ _____ _____    ______ ____
ROOT
ATOM      1  C   UNL     1       4.673  -4.603   5.105  0.00  0.00    +0.000 A 
ATOM      2  C   UNL     1       3.881  -3.882   6.019  0.00  0.00    +0.000 A 
ATOM      3  C   UNL     1       4.339  -3.601   7.308  0.00  0.00    +0.000 A 
ATOM      4  C   UNL     1       5.595  -4.040   7.707  0.00  0.00    +0.000 A 
ATOM      5  C   UNL     1       6.402  -4.736   6.808  0.00  0.00    +0.000 A 
ATOM      6  C   UNL     1       5.962  -5.008   5.498  0.00  0.00    +0.000 A 
ENDROOT
BRANCH   6   7
ATOM      7  C   UNL     1       6.947  -5.721   4.633  0.00  0.00    +0.000 C 
ATOM      8  O   UNL     1       7.698  -6.554   5.129  0.00  0.00    +0.000 OA
ATOM      9  N   UNL     1       7.014  -5.344   3.313  0.00  0.00    +0.000 N 
ATOM     10  H   UNL     1       6.375  -4.642   2.961  0.00  0.00    +0.000 HD
BRANCH   9  11
ATOM     11  C   UNL     1       8.021  -5.862   2.407  0.00  0.00    +0.000 C 
BRANCH  11  12
ATOM     12  C   UNL     1       8.880  -4.754   1.842  0.00  0.00    +0.000 A 
ATOM     13  C   UNL     1       9.423  -3.774   2.693  0.00  0.00    +0.000 A 
ATOM     14  C   UNL     1      10.120  -2.666   2.190  0.00  0.00    +0.000 A 
ATOM     15  C   UNL     1      10.382  -2.614   0.814  0.00  0.00    +0.000 A 
ATOM     16  C   UNL     1      10.990  -1.691  -0.073  0.00  0.00    +0.000 A 
ATOM     17  C   UNL     1      11.213  -2.388  -1.238  0.00  0.00    +0.000 A 
ATOM     18  O   UNL     1      10.543  -3.572  -1.218  0.00  0.00    +0.000 OA
ATOM     19  C   UNL     1       9.997  -3.689   0.025  0.00  0.00    +0.000 A 
ATOM     20  C   UNL     1       9.192  -4.736   0.471  0.00  0.00    +0.000 A 
ENDBRANCH  11  12
ENDBRANCH   9  11
ENDBRANCH   6   7
BRANCH   1  21
ATOM     21  S   UNL     1       3.914  -4.974   3.522  0.00  0.00    +0.000 S 
BRANCH  21  25
ATOM     22  C   UNL     1       2.320  -9.176   4.433  0.00  0.00    +0.000 A 
ATOM     23  C   UNL     1       1.502  -8.068   4.659  0.00  0.00    +0.000 A 
ATOM     24  C   UNL     1       1.983  -6.785   4.365  0.00  0.00    +0.000 A 
ATOM     25  C   UNL     1       3.280  -6.609   3.863  0.00  0.00    +0.000 A 
ATOM     26  C   UNL     1       4.085  -7.730   3.632  0.00  0.00    +0.000 A 
ATOM     27  C   UNL     1       3.612  -9.011   3.925  0.00  0.00    +0.000 A 
BRANCH  22  28
ATOM     28  S   UNL     1       1.771 -10.797   4.860  0.00  0.00    +0.000 S 
ATOM     29  O   UNL     1       0.694 -10.702   5.827  0.00  0.00    +0.000 OA
ATOM     30  O   UNL     1       2.911 -11.656   5.055  0.00  0.00    +0.000 OA
BRANCH  28  31
ATOM     31  N   UNL     1       1.050 -11.315   3.420  0.00  0.00    +0.000 NA
ATOM     32  H   UNL     1       0.124 -11.691   3.623  0.00  0.00    +0.000 HD
ATOM     33  H   UNL     1       1.669 -11.978   2.951  0.00  0.00    +0.000 HD
ENDBRANCH  28  31
ENDBRANCH  22  28
ENDBRANCH  21  25
ENDBRANCH   1  21
TORSDOF 7
