REMARK  Name = 
REMARK  4 active torsions:
REMARK  status: ('A' for Active; 'I' for Inactive)
REMARK    1  A    between atoms: C_2  and  C_4
REMARK    2  A    between atoms: C_7  and  C_8
REMARK    3  A    between atoms: C_8  and  N_9
REMARK    4  A    between atoms: C_11  and  C_12
REMARK                            x       y       z     vdW  Elec       q    Type
REMARK                         _______ _______ _______ _____ _____    ______ ____
ROOT
ATOM      1  N   UNL     1       6.429   3.609   3.297  0.00  0.00    +0.000 N 
ATOM      2  N   UNL     1       6.072   4.735   2.584  0.00  0.00    +0.000 NA
ATOM      3  C   UNL     1       7.040   5.412   2.055  0.00  0.00    +0.000 A 
ATOM      4  C   UNL     1       8.462   5.027   2.058  0.00  0.00    +0.000 A 
ATOM      5  C   UNL     1       8.786   4.008   2.848  0.00  0.00    +0.000 A 
ATOM      6  C   UNL     1       7.745   3.263   3.571  0.00  0.00    +0.000 A 
ATOM      7  O   UNL     1       8.089   2.371   4.340  0.00  0.00    +0.000 OA
ENDROOT
BRANCH   3   8
ATOM      8  C   UNL     1       6.801   6.750   1.495  0.00  0.00    +0.000 A 
ATOM      9  C   UNL     1       7.252   7.017   0.193  0.00  0.00    +0.000 A 
ATOM     10  C   UNL     1       7.158   8.302  -0.305  0.00  0.00    +0.000 A 
ATOM     11  C   UNL     1       6.576   9.273   0.494  0.00  0.00    +0.000 A 
ATOM     12  C   UNL     1       6.494   9.098   1.878  0.00  0.00    +0.000 A 
ATOM     13  C   UNL     1       6.563  10.195   2.753  0.00  0.00    +0.000 A 
ATOM     14  C   UNL     1       6.518  10.005   4.133  0.00  0.00    +0.000 A 
ATOM     15  C   UNL     1       6.253   8.741   4.640  0.00  0.00    +0.000 A 
ATOM     16  C   UNL     1       6.200   7.647   3.776  0.00  0.00    +0.000 A 
ATOM     17  C   UNL     1       6.463   7.797   2.392  0.00  0.00    +0.000 A 
ENDBRANCH   3   8
BRANCH   1  18
ATOM     18  C   UNL     1       5.349   2.835   3.889  0.00  0.00    +0.000 C 
BRANCH  18  22
ATOM     19  C   UNL     1       4.417  -0.597   1.461  0.00  0.00    +0.000 A 
ATOM     20  C   UNL     1       5.430  -0.686   2.430  0.00  0.00    +0.000 A 
ATOM     21  C   UNL     1       5.712   0.418   3.231  0.00  0.00    +0.000 A 
ATOM     22  C   UNL     1       5.011   1.636   3.057  0.00  0.00    +0.000 A 
ATOM     23  C   UNL     1       4.062   1.708   2.042  0.00  0.00    +0.000 A 
ATOM     24  F   UNL     1       3.396   2.852   1.843  0.00  0.00    +0.000 F 
ATOM     25  C   UNL     1       3.762   0.616   1.242  0.00  0.00    +0.000 A 
BRANCH  19  27
ATOM     26  N   UNL     1       4.298  -2.981   1.086  0.00  0.00    +0.000 N 
ATOM     27  C   UNL     1       4.064  -1.732   0.591  0.00  0.00    +0.000 C 
ATOM     28  O   UNL     1       3.572  -1.587  -0.517  0.00  0.00    +0.000 OA
ATOM     29  H   UNL     1       4.000  -3.737   0.512  0.00  0.00    +0.000 HD
ATOM     30  H   UNL     1       4.535  -3.179   2.033  0.00  0.00    +0.000 HD
ENDBRANCH  19  27
ENDBRANCH  18  22
ENDBRANCH   1  18
TORSDOF 4
