REMARK  Name = 
REMARK  5 active torsions:
REMARK  status: ('A' for Active; 'I' for Inactive)
REMARK    1  A    between atoms: C_1  and  N_2
REMARK    2  A    between atoms: C_9  and  N_10
REMARK    3  A    between atoms: N_13  and  C_14
REMARK    4  A    between atoms: C_14  and  C_15
REMARK    5  A    between atoms: C_14  and  C_21
REMARK                            x       y       z     vdW  Elec       q    Type
REMARK                         _______ _______ _______ _____ _____    ______ ____
ROOT
ATOM      1  N   UNL     1       5.322  -4.957   0.527  0.00  0.00    +0.000 N 
ATOM      2  C   UNL     1       4.647  -6.151   0.327  0.00  0.00    +0.000 C 
ATOM      3  O   UNL     1       3.441  -6.309   0.419  0.00  0.00    +0.000 OA
ATOM      4  N   UNL     1       5.492  -7.200   0.054  0.00  0.00    +0.000 N 
ATOM      5  H   UNL     1       6.313  -5.013   0.694  0.00  0.00    +0.000 HD
ATOM      6  H   UNL     1       6.431  -7.002  -0.237  0.00  0.00    +0.000 HD
ENDROOT
BRANCH   1  15
ATOM      7  C   UNL     1       3.834   1.339   1.496  0.00  0.00    +0.000 C 
ATOM      8  N   UNL     1       3.002   0.211   1.084  0.00  0.00    +0.000 N 
ATOM      9  C   UNL     1       1.662   0.364   0.774  0.00  0.00    +0.000 A 
ATOM     10  C   UNL     1       0.844  -0.602   0.350  0.00  0.00    +0.000 A 
ATOM     11  C   UNL     1       1.405  -1.954   0.166  0.00  0.00    +0.000 A 
ATOM     12  O   UNL     1       0.692  -2.857  -0.256  0.00  0.00    +0.000 OA
ATOM     13  C   UNL     1       2.833  -2.157   0.514  0.00  0.00    +0.000 A 
ATOM     14  C   UNL     1       3.386  -3.438   0.362  0.00  0.00    +0.000 A 
ATOM     15  C   UNL     1       4.712  -3.688   0.702  0.00  0.00    +0.000 A 
ATOM     16  C   UNL     1       5.476  -2.624   1.204  0.00  0.00    +0.000 A 
ATOM     17  C   UNL     1       4.927  -1.339   1.337  0.00  0.00    +0.000 A 
ATOM     18  C   UNL     1       3.594  -1.072   0.984  0.00  0.00    +0.000 A 
ENDBRANCH   1  15
BRANCH   4  19
ATOM     19  C   UNL     1       4.953  -8.530  -0.236  0.00  0.00    +0.000 C 
BRANCH  19  20
ATOM     20  C   UNL     1       5.857  -9.643   0.322  0.00  0.00    +0.000 A 
ATOM     21  C   UNL     1       7.020  -9.380   1.070  0.00  0.00    +0.000 A 
ATOM     22  C   UNL     1       7.904 -10.411   1.396  0.00  0.00    +0.000 A 
ATOM     23  C   UNL     1       7.626 -11.710   0.992  0.00  0.00    +0.000 A 
ATOM     24  F   UNL     1       8.514 -12.682   1.237  0.00  0.00    +0.000 F 
ATOM     25  C   UNL     1       6.446 -12.012   0.330  0.00  0.00    +0.000 A 
ATOM     26  C   UNL     1       5.548 -10.988   0.027  0.00  0.00    +0.000 A 
ENDBRANCH  19  20
BRANCH  19  27
ATOM     27  C   UNL     1       4.692  -8.694  -1.744  0.00  0.00    +0.000 A 
ATOM     28  C   UNL     1       5.686  -9.150  -2.627  0.00  0.00    +0.000 A 
ATOM     29  C   UNL     1       5.372  -9.354  -3.965  0.00  0.00    +0.000 A 
ATOM     30  N   UNL     1       4.155  -9.125  -4.490  0.00  0.00    +0.000 NA
ATOM     31  C   UNL     1       3.207  -8.670  -3.645  0.00  0.00    +0.000 A 
ATOM     32  C   UNL     1       3.422  -8.443  -2.286  0.00  0.00    +0.000 A 
ENDBRANCH  19  27
ENDBRANCH   4  19
TORSDOF 4
