REMARK  Name = 
REMARK  6 active torsions:
REMARK  status: ('A' for Active; 'I' for Inactive)
REMARK    1  A    between atoms: N_1  and  C_2
REMARK    2  A    between atoms: C_2  and  C_3
REMARK    3  A    between atoms: C_10  and  C_11
REMARK    4  A    between atoms: N_13  and  C_14
REMARK    5  A    between atoms: N_16  and  C_17
REMARK    6  A    between atoms: C_17  and  C_18
REMARK                            x       y       z     vdW  Elec       q    Type
REMARK                         _______ _______ _______ _____ _____    ______ ____
ROOT
ATOM      1  C   UNL     1       6.239   0.755  -3.694  0.00  0.00    +0.000 C 
ATOM      2  O   UNL     1       6.828   0.481  -4.740  0.00  0.00    +0.000 OA
ATOM      3  N   UNL     1       6.134   2.029  -3.148  0.00  0.00    +0.000 N 
ATOM      4  H   UNL     1       5.844   2.099  -2.180  0.00  0.00    +0.000 HD
ENDROOT
BRANCH   1  12
ATOM      5  C   UNL     1       2.714  -1.536  -0.904  0.00  0.00    +0.000 A 
ATOM      6  C   UNL     1       2.292  -2.737  -0.297  0.00  0.00    +0.000 A 
ATOM      7  C   UNL     1       3.061  -3.893  -0.377  0.00  0.00    +0.000 A 
ATOM      8  C   UNL     1       4.262  -3.875  -1.073  0.00  0.00    +0.000 A 
ATOM      9  C   UNL     1       4.718  -2.700  -1.681  0.00  0.00    +0.000 A 
ATOM     10  C   UNL     1       5.929  -2.728  -2.378  0.00  0.00    +0.000 A 
ATOM     11  C   UNL     1       6.414  -1.584  -2.997  0.00  0.00    +0.000 A 
ATOM     12  C   UNL     1       5.699  -0.386  -2.923  0.00  0.00    +0.000 A 
ATOM     13  C   UNL     1       4.484  -0.340  -2.233  0.00  0.00    +0.000 A 
ATOM     14  C   UNL     1       3.957  -1.499  -1.600  0.00  0.00    +0.000 A 
BRANCH   5  15
ATOM     15  C   UNL     1       1.818  -0.324  -0.756  0.00  0.00    +0.000 C 
BRANCH  15  16
ATOM     16  N   UNL     1       1.285   0.137  -2.032  0.00  0.00    +0.000 NA
ATOM     17  H   UNL     1       0.643   0.910  -1.868  0.00  0.00    +0.000 HD
ATOM     18  H   UNL     1       0.731  -0.610  -2.449  0.00  0.00    +0.000 HD
ENDBRANCH  15  16
ENDBRANCH   5  15
ENDBRANCH   1  12
BRANCH   3  19
ATOM     19  C   UNL     1       6.681   3.159  -3.740  0.00  0.00    +0.000 A 
ATOM     20  C   UNL     1       6.939   3.247  -5.054  0.00  0.00    +0.000 A 
ATOM     21  N   UNL     1       7.622   4.311  -5.617  0.00  0.00    +0.000 N 
ATOM     22  C   UNL     1       8.087   5.369  -4.850  0.00  0.00    +0.000 A 
ATOM     23  O   UNL     1       8.746   6.316  -5.272  0.00  0.00    +0.000 OA
ATOM     24  C   UNL     1       7.727   5.318  -3.403  0.00  0.00    +0.000 A 
ATOM     25  C   UNL     1       7.047   4.279  -2.896  0.00  0.00    +0.000 A 
BRANCH  21  26
ATOM     26  C   UNL     1       7.877   4.293  -7.060  0.00  0.00    +0.000 C 
BRANCH  26  27
ATOM     27  C   UNL     1       6.733   4.916  -7.828  0.00  0.00    +0.000 A 
ATOM     28  C   UNL     1       6.760   6.283  -8.135  0.00  0.00    +0.000 A 
ATOM     29  C   UNL     1       5.647   6.901  -8.707  0.00  0.00    +0.000 A 
ATOM     30  C   UNL     1       4.500   6.158  -8.980  0.00  0.00    +0.000 A 
ATOM     31  C   UNL     1       4.477   4.789  -8.719  0.00  0.00    +0.000 A 
ATOM     32  C   UNL     1       5.591   4.168  -8.152  0.00  0.00    +0.000 A 
ENDBRANCH  26  27
ENDBRANCH  21  26
ENDBRANCH   3  19
TORSDOF 6
