REMARK  Name = 
REMARK  5 active torsions:
REMARK  status: ('A' for Active; 'I' for Inactive)
REMARK    1  A    between atoms: C_1  and  N_2
REMARK    2  A    between atoms: C_3  and  C_4
REMARK    3  A    between atoms: N_6  and  C_7
REMARK    4  A    between atoms: C_9  and  C_10
REMARK    5  A    between atoms: C_13  and  C_14
REMARK                            x       y       z     vdW  Elec       q    Type
REMARK                         _______ _______ _______ _____ _____    ______ ____
ROOT
ATOM      1  C   UNL     1      -2.591  -2.741   0.210  0.00  0.00    +0.000 C 
ATOM      2  O   UNL     1      -2.111  -3.870   0.086  0.00  0.00    +0.000 OA
ATOM      3  N   UNL     1      -3.937  -2.506   0.437  0.00  0.00    +0.000 N 
ATOM      4  H   UNL     1      -4.268  -1.556   0.453  0.00  0.00    +0.000 HD
ENDROOT
BRANCH   1   7
ATOM      5  C   UNL     1      -3.256   0.157  -0.790  0.00  0.00    +0.000 C 
ATOM      6  N   UNL     1      -2.001  -0.229  -0.179  0.00  0.00    +0.000 N 
ATOM      7  C   UNL     1      -1.654  -1.545   0.134  0.00  0.00    +0.000 A 
ATOM      8  C   UNL     1      -0.372  -1.865   0.406  0.00  0.00    +0.000 A 
ATOM      9  C   UNL     1       0.680  -0.856   0.400  0.00  0.00    +0.000 A 
ATOM     10  C   UNL     1       2.031  -1.197   0.545  0.00  0.00    +0.000 A 
ATOM     11  C   UNL     1       3.008  -0.197   0.585  0.00  0.00    +0.000 A 
ATOM     12  C   UNL     1       2.641   1.145   0.495  0.00  0.00    +0.000 A 
ATOM     13  C   UNL     1       1.300   1.489   0.330  0.00  0.00    +0.000 A 
ATOM     14  C   UNL     1       0.327   0.485   0.267  0.00  0.00    +0.000 A 
ATOM     15  C   UNL     1      -1.085   0.832  -0.022  0.00  0.00    +0.000 A 
ATOM     16  O   UNL     1      -1.395   2.012  -0.159  0.00  0.00    +0.000 OA
ENDBRANCH   1   7
BRANCH   3  17
ATOM     17  C   UNL     1      -4.921  -3.515   0.612  0.00  0.00    +0.000 A 
ATOM     18  C   UNL     1      -4.588  -4.814   0.996  0.00  0.00    +0.000 A 
ATOM     19  C   UNL     1      -5.577  -5.774   1.197  0.00  0.00    +0.000 A 
ATOM     20  C   UNL     1      -6.916  -5.453   0.973  0.00  0.00    +0.000 A 
ATOM     21  C   UNL     1      -7.298  -4.165   0.556  0.00  0.00    +0.000 A 
ATOM     22  C   UNL     1      -6.275  -3.196   0.417  0.00  0.00    +0.000 A 
BRANCH  21  23
ATOM     23  C   UNL     1      -8.720  -3.870   0.250  0.00  0.00    +0.000 A 
ATOM     24  C   UNL     1      -9.282  -2.606   0.466  0.00  0.00    +0.000 A 
ATOM     25  C   UNL     1     -10.612  -2.384   0.134  0.00  0.00    +0.000 A 
ATOM     26  N   UNL     1     -11.427  -3.323  -0.384  0.00  0.00    +0.000 NA
ATOM     27  C   UNL     1     -10.889  -4.540  -0.581  0.00  0.00    +0.000 A 
ATOM     28  C   UNL     1      -9.569  -4.853  -0.288  0.00  0.00    +0.000 A 
ENDBRANCH  21  23
BRANCH  19  29
ATOM     29  C   UNL     1      -5.213  -7.080   1.650  0.00  0.00    +0.000 C 
ATOM     30  N   UNL     1      -4.925  -8.138   2.035  0.00  0.00    +0.000 NA
ENDBRANCH  19  29
ENDBRANCH   3  17
TORSDOF 4
