REMARK  Name = 
REMARK  3 active torsions:
REMARK  status: ('A' for Active; 'I' for Inactive)
REMARK    1  A    between atoms: C_2  and  C_17
REMARK    2  A    between atoms: N_3  and  C_4
REMARK    3  A    between atoms: N_8  and  C_9
REMARK                            x       y       z     vdW  Elec       q    Type
REMARK                         _______ _______ _______ _____ _____    ______ ____
ROOT
ATOM      1  O   UNL     1       5.188   2.042   1.269  0.00  0.00    +0.000 OA
ATOM      2  C   UNL     1       4.578   1.025   0.950  0.00  0.00    +0.000 C 
ATOM      3  N   UNL     1       3.305   0.695   1.353  0.00  0.00    +0.000 N 
ATOM      4  H   UNL     1       3.003  -0.289   1.280  0.00  0.00    +0.000 HD
ENDROOT
BRANCH   2   5
ATOM      5  C   UNL     1       5.277   0.076   0.022  0.00  0.00    +0.000 A 
ATOM      6  C   UNL     1       4.611  -0.994  -0.570  0.00  0.00    +0.000 A 
ATOM      7  F   UNL     1       3.370  -1.323  -0.163  0.00  0.00    +0.000 F 
ATOM      8  C   UNL     1       5.125  -1.581  -1.730  0.00  0.00    +0.000 A 
ATOM      9  C   UNL     1       4.390  -2.532  -2.435  0.00  0.00    +0.000 A 
ATOM     10  C   UNL     1       4.416  -2.472  -3.808  0.00  0.00    +0.000 A 
ATOM     11  C   UNL     1       5.527  -1.887  -4.367  0.00  0.00    +0.000 A 
ATOM     12  N   UNL     1       6.529  -1.333  -3.635  0.00  0.00    +0.000 NA
ATOM     13  C   UNL     1       6.264  -1.084  -2.344  0.00  0.00    +0.000 A 
ATOM     14  C   UNL     1       7.057  -0.207  -1.626  0.00  0.00    +0.000 A 
ATOM     15  C   UNL     1       6.560   0.405  -0.470  0.00  0.00    +0.000 A 
ENDBRANCH   2   5
BRANCH   3  16
ATOM     16  C   UNL     1       2.448   1.450   2.137  0.00  0.00    +0.000 A 
ATOM     17  C   UNL     1       2.558   2.810   2.271  0.00  0.00    +0.000 A 
ATOM     18  C   UNL     1       1.624   3.514   3.108  0.00  0.00    +0.000 A 
ATOM     19  C   UNL     1       0.713   2.843   3.820  0.00  0.00    +0.000 A 
ATOM     20  N   UNL     1       0.562   1.464   3.718  0.00  0.00    +0.000 N 
ATOM     21  C   UNL     1       1.352   0.716   2.835  0.00  0.00    +0.000 A 
ATOM     22  O   UNL     1       1.286  -0.502   2.629  0.00  0.00    +0.000 OA
BRANCH  20  23
ATOM     23  C   UNL     1      -0.350   0.777   4.601  0.00  0.00    +0.000 A 
ATOM     24  C   UNL     1      -0.348   1.080   5.963  0.00  0.00    +0.000 A 
ATOM     25  C   UNL     1      -1.185   0.376   6.832  0.00  0.00    +0.000 A 
ATOM     26  C   UNL     1      -2.042  -0.604   6.336  0.00  0.00    +0.000 A 
ATOM     27  C   UNL     1      -2.058  -0.890   4.974  0.00  0.00    +0.000 A 
ATOM     28  C   UNL     1      -1.201  -0.215   4.101  0.00  0.00    +0.000 A 
ENDBRANCH  20  23
ENDBRANCH   3  16
TORSDOF 3
