REMARK  Name = 
REMARK  7 active torsions:
REMARK  status: ('A' for Active; 'I' for Inactive)
REMARK    1  A    between atoms: C_1  and  O_2
REMARK    2  A    between atoms: O_2  and  C_3
REMARK    3  A    between atoms: C_7  and  O_8
REMARK    4  A    between atoms: O_8  and  C_9
REMARK    5  A    between atoms: C_9  and  C_10
REMARK    6  A    between atoms: C_16  and  C_17
REMARK    7  A    between atoms: N_19  and  C_20
REMARK                            x       y       z     vdW  Elec       q    Type
REMARK                         _______ _______ _______ _____ _____    ______ ____
ROOT
ATOM      1  C   UNL     1       3.089  -1.090  -0.168  0.00  0.00    +0.000 A 
ATOM      2  C   UNL     1       2.736  -1.815  -1.315  0.00  0.00    +0.000 A 
ATOM      3  C   UNL     1       3.495  -2.903  -1.738  0.00  0.00    +0.000 A 
ATOM      4  C   UNL     1       4.655  -3.249  -1.052  0.00  0.00    +0.000 A 
ATOM      5  C   UNL     1       5.051  -2.515   0.070  0.00  0.00    +0.000 A 
ATOM      6  C   UNL     1       4.236  -1.468   0.567  0.00  0.00    +0.000 A 
ENDROOT
BRANCH   6   7
ATOM      7  C   UNL     1       4.572  -0.863   1.904  0.00  0.00    +0.000 C 
ATOM      8  O   UNL     1       5.223  -1.522   2.716  0.00  0.00    +0.000 OA
ATOM      9  N   UNL     1       4.052   0.380   2.227  0.00  0.00    +0.000 N 
ATOM     10  H   UNL     1       3.310   0.732   1.631  0.00  0.00    +0.000 HD
BRANCH   9  11
ATOM     11  C   UNL     1       4.249   1.053   3.414  0.00  0.00    +0.000 A 
ATOM     12  C   UNL     1       5.286   0.896   4.250  0.00  0.00    +0.000 A 
ATOM     13  N   UNL     1       5.499   1.573   5.414  0.00  0.00    +0.000 NA
ATOM     14  C   UNL     1       4.611   2.460   5.751  0.00  0.00    +0.000 A 
ATOM     15  C   UNL     1       4.829   3.228   7.005  0.00  0.00    +0.000 A 
ATOM     16  C   UNL     1       3.932   4.149   7.386  0.00  0.00    +0.000 A 
ATOM     17  C   UNL     1       2.761   4.394   6.589  0.00  0.00    +0.000 A 
ATOM     18  C   UNL     1       2.567   3.710   5.452  0.00  0.00    +0.000 A 
ATOM     19  N   UNL     1       3.470   2.748   5.011  0.00  0.00    +0.000 N 
ATOM     20  C   UNL     1       3.216   2.054   3.826  0.00  0.00    +0.000 A 
ATOM     21  O   UNL     1       2.207   2.199   3.127  0.00  0.00    +0.000 OA
ENDBRANCH   9  11
ENDBRANCH   6   7
BRANCH   1  23
ATOM     22  C   UNL     1       1.016   0.103  -0.118  0.00  0.00    +0.000 C 
ATOM     23  O   UNL     1       2.390   0.016   0.251  0.00  0.00    +0.000 OA
ENDBRANCH   1  23
BRANCH   5  24
ATOM     24  O   UNL     1       6.217  -2.799   0.732  0.00  0.00    +0.000 OA
BRANCH  24  25
ATOM     25  C   UNL     1       7.316  -3.300  -0.026  0.00  0.00    +0.000 C 
BRANCH  25  26
ATOM     26  C   UNL     1       8.622  -2.868   0.606  0.00  0.00    +0.000 A 
ATOM     27  C   UNL     1       8.727  -2.661   1.987  0.00  0.00    +0.000 A 
ATOM     28  C   UNL     1       9.944  -2.290   2.562  0.00  0.00    +0.000 A 
ATOM     29  C   UNL     1      11.074  -2.131   1.762  0.00  0.00    +0.000 A 
ATOM     30  C   UNL     1      10.985  -2.339   0.387  0.00  0.00    +0.000 A 
ATOM     31  C   UNL     1       9.768  -2.708  -0.189  0.00  0.00    +0.000 A 
ENDBRANCH  25  26
ENDBRANCH  24  25
ENDBRANCH   5  24
TORSDOF 6
