REMARK  Name = 
REMARK  5 active torsions:
REMARK  status: ('A' for Active; 'I' for Inactive)
REMARK    1  A    between atoms: C_2  and  C_4
REMARK    2  A    between atoms: C_8  and  C_9
REMARK    3  A    between atoms: C_9  and  O_10
REMARK    4  A    between atoms: O_10  and  C_11
REMARK    5  A    between atoms: C_14  and  C_15
REMARK                            x       y       z     vdW  Elec       q    Type
REMARK                         _______ _______ _______ _____ _____    ______ ____
ROOT
ATOM      1  C   UNL     1       8.653   0.247   3.992  0.00  0.00    +0.000 A 
ATOM      2  C   UNL     1       9.028   1.579   3.950  0.00  0.00    +0.000 A 
ATOM      3  C   UNL     1      10.312   1.946   4.332  0.00  0.00    +0.000 A 
ATOM      4  C   UNL     1      11.243   1.016   4.844  0.00  0.00    +0.000 A 
ATOM      5  C   UNL     1      10.865  -0.330   4.845  0.00  0.00    +0.000 A 
ATOM      6  C   UNL     1       9.576  -0.712   4.424  0.00  0.00    +0.000 A 
ENDROOT
BRANCH   4   7
ATOM      7  C   UNL     1      12.501   1.540   5.433  0.00  0.00    +0.000 A 
ATOM      8  C   UNL     1      12.408   2.776   6.116  0.00  0.00    +0.000 A 
ATOM      9  C   UNL     1      13.521   3.462   6.566  0.00  0.00    +0.000 A 
ATOM     10  C   UNL     1      14.759   2.870   6.442  0.00  0.00    +0.000 A 
ATOM     11  O   UNL     1      15.829   3.613   6.937  0.00  0.00    +0.000 OA
ATOM     12  C   UNL     1      17.019   2.960   7.210  0.00  0.00    +0.000 A 
ATOM     13  O   UNL     1      17.919   3.514   7.831  0.00  0.00    +0.000 OA
ATOM     14  N   UNL     1      17.137   1.675   6.753  0.00  0.00    +0.000 N 
ATOM     15  C   UNL     1      16.203   0.970   6.031  0.00  0.00    +0.000 A 
ATOM     16  O   UNL     1      16.440  -0.144   5.565  0.00  0.00    +0.000 OA
ATOM     17  C   UNL     1      14.883   1.598   5.910  0.00  0.00    +0.000 A 
ATOM     18  C   UNL     1      13.766   0.932   5.368  0.00  0.00    +0.000 A 
ATOM     19  H   UNL     1      18.021   1.231   6.945  0.00  0.00    +0.000 HD
ENDBRANCH   4   7
BRANCH   1  20
ATOM     20  O   UNL     1       7.362   0.022   3.610  0.00  0.00    +0.000 OA
BRANCH  20  21
ATOM     21  C   UNL     1       7.085  -1.286   3.121  0.00  0.00    +0.000 C 
BRANCH  21  26
ATOM     22  C   UNL     1       4.443  -2.260   0.556  0.00  0.00    +0.000 A 
ATOM     23  C   UNL     1       3.365  -1.449   0.924  0.00  0.00    +0.000 A 
ATOM     24  C   UNL     1       3.497  -0.559   1.991  0.00  0.00    +0.000 A 
ATOM     25  C   UNL     1       4.700  -0.481   2.697  0.00  0.00    +0.000 A 
ATOM     26  C   UNL     1       5.791  -1.287   2.340  0.00  0.00    +0.000 A 
ATOM     27  C   UNL     1       5.646  -2.180   1.267  0.00  0.00    +0.000 A 
BRANCH  22  29
ATOM     28  N   UNL     1       3.423  -3.028  -1.522  0.00  0.00    +0.000 N 
ATOM     29  C   UNL     1       4.348  -3.256  -0.542  0.00  0.00    +0.000 C 
ATOM     30  O   UNL     1       5.086  -4.233  -0.589  0.00  0.00    +0.000 OA
ATOM     31  H   UNL     1       3.437  -3.666  -2.307  0.00  0.00    +0.000 HD
ATOM     32  H   UNL     1       2.981  -2.130  -1.653  0.00  0.00    +0.000 HD
ENDBRANCH  22  29
ENDBRANCH  21  26
ENDBRANCH  20  21
ENDBRANCH   1  20
TORSDOF 5
