REMARK  Name = 
REMARK  3 active torsions:
REMARK  status: ('A' for Active; 'I' for Inactive)
REMARK    1  A    between atoms: C_2  and  C_17
REMARK    2  A    between atoms: N_3  and  C_4
REMARK    3  A    between atoms: N_8  and  C_9
REMARK                            x       y       z     vdW  Elec       q    Type
REMARK                         _______ _______ _______ _____ _____    ______ ____
ROOT
ATOM      1  O   UNL     1       5.063   2.291   0.835  0.00  0.00    +0.000 OA
ATOM      2  C   UNL     1       4.470   1.317   0.379  0.00  0.00    +0.000 C 
ATOM      3  N   UNL     1       3.198   0.939   0.770  0.00  0.00    +0.000 N 
ATOM      4  H   UNL     1       2.906  -0.031   0.691  0.00  0.00    +0.000 HD
ENDROOT
BRANCH   2   5
ATOM      5  C   UNL     1       5.159   0.528  -0.687  0.00  0.00    +0.000 A 
ATOM      6  C   UNL     1       6.459   0.935  -1.023  0.00  0.00    +0.000 A 
ATOM      7  C   UNL     1       7.075   0.497  -2.205  0.00  0.00    +0.000 A 
ATOM      8  C   UNL     1       8.316   1.016  -2.596  0.00  0.00    +0.000 A 
ATOM      9  C   UNL     1       8.838   0.686  -3.838  0.00  0.00    +0.000 A 
ATOM     10  C   UNL     1       8.118  -0.188  -4.627  0.00  0.00    +0.000 A 
ATOM     11  N   UNL     1       6.952  -0.761  -4.249  0.00  0.00    +0.000 NA
ATOM     12  C   UNL     1       6.421  -0.415  -3.054  0.00  0.00    +0.000 A 
ATOM     13  C   UNL     1       5.181  -0.901  -2.623  0.00  0.00    +0.000 A 
ATOM     14  F   UNL     1       4.529  -1.807  -3.373  0.00  0.00    +0.000 F 
ATOM     15  C   UNL     1       4.535  -0.438  -1.469  0.00  0.00    +0.000 A 
ENDBRANCH   2   5
BRANCH   3  16
ATOM     16  C   UNL     1       2.337   1.739   1.515  0.00  0.00    +0.000 A 
ATOM     17  C   UNL     1       2.427   3.076   1.593  0.00  0.00    +0.000 A 
ATOM     18  C   UNL     1       1.550   3.845   2.426  0.00  0.00    +0.000 A 
ATOM     19  C   UNL     1       0.661   3.224   3.204  0.00  0.00    +0.000 A 
ATOM     20  N   UNL     1       0.493   1.844   3.178  0.00  0.00    +0.000 N 
ATOM     21  C   UNL     1       1.230   1.036   2.286  0.00  0.00    +0.000 A 
ATOM     22  O   UNL     1       1.113  -0.183   2.130  0.00  0.00    +0.000 OA
BRANCH  20  23
ATOM     23  C   UNL     1      -0.384   1.228   4.123  0.00  0.00    +0.000 A 
ATOM     24  C   UNL     1      -0.293   1.585   5.479  0.00  0.00    +0.000 A 
ATOM     25  C   UNL     1      -1.113   0.981   6.433  0.00  0.00    +0.000 A 
ATOM     26  C   UNL     1      -2.061   0.043   6.033  0.00  0.00    +0.000 A 
ATOM     27  C   UNL     1      -2.180  -0.298   4.685  0.00  0.00    +0.000 A 
ATOM     28  C   UNL     1      -1.333   0.278   3.734  0.00  0.00    +0.000 A 
ENDBRANCH  20  23
ENDBRANCH   3  16
TORSDOF 3
