REMARK  Name = 
REMARK  4 active torsions:
REMARK  status: ('A' for Active; 'I' for Inactive)
REMARK    1  A    between atoms: C_1  and  N_2
REMARK    2  A    between atoms: N_2  and  C_19
REMARK    3  A    between atoms: C_3  and  C_5
REMARK    4  A    between atoms: N_7  and  C_8
REMARK                            x       y       z     vdW  Elec       q    Type
REMARK                         _______ _______ _______ _____ _____    ______ ____
ROOT
ATOM      1  C   UNL     1       1.289   0.808  -0.750  0.00  0.00    +0.000 C 
ATOM      2  N   UNL     1       2.586   0.256  -0.359  0.00  0.00    +0.000 N 
ATOM      3  C   UNL     1       3.223   0.685   0.840  0.00  0.00    +0.000 C 
ATOM      4  O   UNL     1       4.319   0.272   1.218  0.00  0.00    +0.000 OA
ENDROOT
BRANCH   2   5
ATOM      5  C   UNL     1       3.033  -0.922  -0.983  0.00  0.00    +0.000 A 
ATOM      6  C   UNL     1       2.233  -1.663  -1.775  0.00  0.00    +0.000 A 
ATOM      7  C   UNL     1       2.554  -3.076  -1.994  0.00  0.00    +0.000 A 
ATOM      8  C   UNL     1       1.551  -3.960  -2.402  0.00  0.00    +0.000 A 
ATOM      9  C   UNL     1       1.748  -5.336  -2.282  0.00  0.00    +0.000 A 
ATOM     10  C   UNL     1       2.959  -5.835  -1.798  0.00  0.00    +0.000 A 
ATOM     11  C   UNL     1       3.995  -4.962  -1.470  0.00  0.00    +0.000 A 
ATOM     12  C   UNL     1       3.784  -3.584  -1.563  0.00  0.00    +0.000 A 
ATOM     13  C   UNL     1       4.786  -2.636  -1.034  0.00  0.00    +0.000 A 
ATOM     14  O   UNL     1       5.947  -2.973  -0.838  0.00  0.00    +0.000 OA
ATOM     15  N   UNL     1       4.296  -1.393  -0.709  0.00  0.00    +0.000 N 
ATOM     16  H   UNL     1       4.918  -0.807  -0.154  0.00  0.00    +0.000 HD
ENDBRANCH   2   5
BRANCH   3  17
ATOM     17  C   UNL     1       2.519   1.653   1.780  0.00  0.00    +0.000 A 
ATOM     18  N   UNL     1       1.217   1.558   1.914  0.00  0.00    +0.000 NA
ATOM     19  N   UNL     1       0.572   2.460   2.738  0.00  0.00    +0.000 N 
ATOM     20  C   UNL     1       1.266   3.319   3.565  0.00  0.00    +0.000 A 
ATOM     21  C   UNL     1       2.590   3.458   3.585  0.00  0.00    +0.000 A 
ATOM     22  C   UNL     1       3.321   2.650   2.604  0.00  0.00    +0.000 A 
ATOM     23  O   UNL     1       4.525   2.789   2.460  0.00  0.00    +0.000 OA
BRANCH  19  24
ATOM     24  C   UNL     1      -0.860   2.431   2.683  0.00  0.00    +0.000 A 
ATOM     25  C   UNL     1      -1.543   1.238   2.382  0.00  0.00    +0.000 A 
ATOM     26  C   UNL     1      -2.943   1.184   2.376  0.00  0.00    +0.000 A 
ATOM     27  C   UNL     1      -3.696   2.324   2.649  0.00  0.00    +0.000 A 
ATOM     28  C   UNL     1      -3.047   3.524   2.910  0.00  0.00    +0.000 A 
ATOM     29  C   UNL     1      -1.652   3.571   2.921  0.00  0.00    +0.000 A 
ATOM     30  F   UNL     1      -1.084   4.770   3.137  0.00  0.00    +0.000 F 
ENDBRANCH  19  24
ENDBRANCH   3  17
TORSDOF 3
