REMARK  Name = 
REMARK  3 active torsions:
REMARK  status: ('A' for Active; 'I' for Inactive)
REMARK    1  A    between atoms: C_2  and  C_17
REMARK    2  A    between atoms: N_3  and  C_4
REMARK    3  A    between atoms: N_6  and  C_7
REMARK                            x       y       z     vdW  Elec       q    Type
REMARK                         _______ _______ _______ _____ _____    ______ ____
ROOT
ATOM      1  O   UNL     1       5.399   0.335  -1.130  0.00  0.00    +0.000 OA
ATOM      2  C   UNL     1       4.650   0.585  -0.182  0.00  0.00    +0.000 C 
ATOM      3  N   UNL     1       3.329   1.042  -0.318  0.00  0.00    +0.000 N 
ATOM      4  H   UNL     1       2.856   1.306   0.537  0.00  0.00    +0.000 HD
ENDROOT
BRANCH   2   5
ATOM      5  C   UNL     1       5.202   0.259   1.204  0.00  0.00    +0.000 A 
ATOM      6  C   UNL     1       4.659   0.661   2.446  0.00  0.00    +0.000 A 
ATOM      7  C   UNL     1       5.098   1.753   3.245  0.00  0.00    +0.000 A 
ATOM      8  C   UNL     1       4.603   1.944   4.559  0.00  0.00    +0.000 A 
ATOM      9  C   UNL     1       3.576   1.138   5.031  0.00  0.00    +0.000 A 
ATOM     10  C   UNL     1       3.316  -0.020   4.332  0.00  0.00    +0.000 A 
ATOM     11  F   UNL     1       2.432  -0.909   4.799  0.00  0.00    +0.000 F 
ATOM     12  C   UNL     1       4.117  -0.329   3.242  0.00  0.00    +0.000 A 
ATOM     13  C   UNL     1       4.789  -1.545   3.191  0.00  0.00    +0.000 A 
ATOM     14  N   UNL     1       5.721  -1.851   2.261  0.00  0.00    +0.000 NA
ATOM     15  C   UNL     1       5.830  -0.985   1.229  0.00  0.00    +0.000 A 
ENDBRANCH   2   5
BRANCH   3  16
ATOM     16  C   UNL     1       2.564   1.140  -1.486  0.00  0.00    +0.000 A 
ATOM     17  C   UNL     1       1.309   1.695  -1.492  0.00  0.00    +0.000 A 
ATOM     18  N   UNL     1       0.481   1.821  -2.639  0.00  0.00    +0.000 N 
ATOM     19  C   UNL     1       0.954   1.384  -3.901  0.00  0.00    +0.000 A 
ATOM     20  O   UNL     1       0.428   1.520  -5.000  0.00  0.00    +0.000 OA
ATOM     21  C   UNL     1       2.281   0.713  -3.883  0.00  0.00    +0.000 A 
ATOM     22  C   UNL     1       3.015   0.625  -2.772  0.00  0.00    +0.000 A 
BRANCH  18  23
ATOM     23  C   UNL     1      -0.841   2.480  -2.587  0.00  0.00    +0.000 A 
ATOM     24  C   UNL     1      -1.827   2.273  -3.573  0.00  0.00    +0.000 A 
ATOM     25  C   UNL     1      -3.047   2.965  -3.580  0.00  0.00    +0.000 A 
ATOM     26  C   UNL     1      -3.341   3.869  -2.567  0.00  0.00    +0.000 A 
ATOM     27  C   UNL     1      -2.416   4.058  -1.548  0.00  0.00    +0.000 A 
ATOM     28  C   UNL     1      -1.188   3.369  -1.549  0.00  0.00    +0.000 A 
ENDBRANCH  18  23
ENDBRANCH   3  16
TORSDOF 3
