REMARK  Name = 
REMARK  4 active torsions:
REMARK  status: ('A' for Active; 'I' for Inactive)
REMARK    1  A    between atoms: C_1  and  N_2
REMARK    2  A    between atoms: C_3  and  C_4
REMARK    3  A    between atoms: C_20  and  C_21
REMARK    4  A    between atoms: C_21  and  C_23
REMARK                            x       y       z     vdW  Elec       q    Type
REMARK                         _______ _______ _______ _____ _____    ______ ____
ROOT
ATOM      1  C   UNL     1       0.608  -2.612   0.074  0.00  0.00    +0.000 C 
ATOM      2  O   UNL     1       1.786  -2.904  -0.116  0.00  0.00    +0.000 OA
ATOM      3  N   UNL     1      -0.358  -3.560   0.347  0.00  0.00    +0.000 N 
ATOM      4  C   UNL     1      -0.128  -4.903   0.250  0.00  0.00    +0.000 A 
ATOM      5  N   UNL     1      -1.030  -5.744  -0.194  0.00  0.00    +0.000 NA
ATOM      6  C   UNL     1      -0.412  -6.964  -0.208  0.00  0.00    +0.000 A 
ATOM      7  C   UNL     1       0.844  -6.891   0.390  0.00  0.00    +0.000 A 
ATOM      8  C   UNL     1       1.640  -8.016   0.616  0.00  0.00    +0.000 A 
ATOM      9  C   UNL     1       1.140  -9.230   0.134  0.00  0.00    +0.000 A 
ATOM     10  F   UNL     1       1.867 -10.343   0.311  0.00  0.00    +0.000 F 
ATOM     11  C   UNL     1      -0.080  -9.308  -0.534  0.00  0.00    +0.000 A 
ATOM     12  F   UNL     1      -0.500 -10.482  -1.026  0.00  0.00    +0.000 F 
ATOM     13  C   UNL     1      -0.886  -8.185  -0.703  0.00  0.00    +0.000 A 
ATOM     14  N   UNL     1       1.024  -5.546   0.623  0.00  0.00    +0.000 N 
ATOM     15  H   UNL     1      -1.329  -3.314   0.257  0.00  0.00    +0.000 HD
ATOM     16  H   UNL     1       1.838  -5.097   1.019  0.00  0.00    +0.000 HD
ENDROOT
BRANCH   1  19
ATOM     17  C   UNL     1       2.251   0.055   0.003  0.00  0.00    +0.000 C 
ATOM     18  N   UNL     1       0.804  -0.059  -0.012  0.00  0.00    +0.000 N 
ATOM     19  C   UNL     1       0.073  -1.247  -0.000  0.00  0.00    +0.000 A 
ATOM     20  C   UNL     1      -1.260  -0.865  -0.088  0.00  0.00    +0.000 A 
ATOM     21  C   UNL     1      -1.333   0.535  -0.110  0.00  0.00    +0.000 A 
ATOM     22  C   UNL     1      -0.051   1.042   0.011  0.00  0.00    +0.000 A 
BRANCH  22  23
ATOM     23  C   UNL     1       0.343   2.448   0.112  0.00  0.00    +0.000 C 
ATOM     24  O   UNL     1       1.454   2.864  -0.206  0.00  0.00    +0.000 OA
BRANCH  23  25
ATOM     25  C   UNL     1      -0.663   3.456   0.565  0.00  0.00    +0.000 A 
ATOM     26  C   UNL     1      -0.741   4.695  -0.081  0.00  0.00    +0.000 A 
ATOM     27  C   UNL     1      -1.750   5.602   0.264  0.00  0.00    +0.000 A 
ATOM     28  C   UNL     1      -2.681   5.275   1.253  0.00  0.00    +0.000 A 
ATOM     29  C   UNL     1      -2.576   4.064   1.931  0.00  0.00    +0.000 A 
ATOM     30  C   UNL     1      -1.554   3.174   1.607  0.00  0.00    +0.000 A 
ATOM     31  F   UNL     1      -1.461   2.043   2.319  0.00  0.00    +0.000 F 
ENDBRANCH  23  25
ENDBRANCH  22  23
ENDBRANCH   1  19
TORSDOF 3
