REMARK  Name = 
REMARK  4 active torsions:
REMARK  status: ('A' for Active; 'I' for Inactive)
REMARK    1  A    between atoms: C_2  and  C_20
REMARK    2  A    between atoms: N_3  and  C_4
REMARK    3  A    between atoms: C_6  and  C_7
REMARK    4  A    between atoms: C_14  and  C_15
REMARK                            x       y       z     vdW  Elec       q    Type
REMARK                         _______ _______ _______ _____ _____    ______ ____
ROOT
ATOM      1  C   UNL     1       2.253  -1.989   1.295  0.00  0.00    +0.000 A 
ATOM      2  C   UNL     1       1.146  -2.549   0.669  0.00  0.00    +0.000 A 
ATOM      3  C   UNL     1       0.559  -3.738   1.113  0.00  0.00    +0.000 A 
ATOM      4  C   UNL     1       1.081  -4.337   2.264  0.00  0.00    +0.000 A 
ATOM      5  C   UNL     1       2.206  -3.808   2.910  0.00  0.00    +0.000 A 
ATOM      6  C   UNL     1       2.792  -2.628   2.416  0.00  0.00    +0.000 A 
ENDROOT
BRANCH   3   7
ATOM      7  C   UNL     1      -0.491  -4.385   0.317  0.00  0.00    +0.000 A 
ATOM      8  C   UNL     1      -0.482  -4.260  -1.085  0.00  0.00    +0.000 A 
ATOM      9  C   UNL     1      -1.433  -4.897  -1.873  0.00  0.00    +0.000 A 
ATOM     10  C   UNL     1      -2.412  -5.682  -1.273  0.00  0.00    +0.000 A 
ATOM     11  C   UNL     1      -2.441  -5.819   0.114  0.00  0.00    +0.000 A 
ATOM     12  C   UNL     1      -1.491  -5.174   0.904  0.00  0.00    +0.000 A 
ENDBRANCH   3   7
BRANCH   1  15
ATOM     13  O   UNL     1       1.149  -0.018  -0.566  0.00  0.00    +0.000 OA
ATOM     14  C   UNL     1       2.274   0.063  -0.099  0.00  0.00    +0.000 C 
ATOM     15  N   UNL     1       2.864  -0.819   0.802  0.00  0.00    +0.000 N 
ATOM     16  H   UNL     1       3.725  -0.553   1.255  0.00  0.00    +0.000 HD
BRANCH  14  17
ATOM     17  C   UNL     1       3.091   1.198  -0.438  0.00  0.00    +0.000 A 
ATOM     18  C   UNL     1       2.779   2.260  -1.263  0.00  0.00    +0.000 A 
ATOM     19  N   UNL     1       1.623   2.538  -1.969  0.00  0.00    +0.000 N 
ATOM     20  C   UNL     1       1.520   3.749  -2.743  0.00  0.00    +0.000 A 
ATOM     21  O   UNL     1       0.504   3.980  -3.341  0.00  0.00    +0.000 OA
ATOM     22  C   UNL     1       2.724   4.629  -2.709  0.00  0.00    +0.000 A 
ATOM     23  C   UNL     1       3.809   4.304  -1.991  0.00  0.00    +0.000 A 
ATOM     24  N   UNL     1       3.860   3.129  -1.252  0.00  0.00    +0.000 N 
ATOM     25  N   UNL     1       4.842   2.676  -0.444  0.00  0.00    +0.000 NA
ATOM     26  C   UNL     1       4.367   1.544   0.050  0.00  0.00    +0.000 A 
ATOM     27  H   UNL     1       0.810   1.925  -1.930  0.00  0.00    +0.000 HD
ENDBRANCH  14  17
ENDBRANCH   1  15
BRANCH   5  28
ATOM     28  C   UNL     1       2.812  -4.552   4.076  0.00  0.00    +0.000 C 
ATOM     29  F   UNL     1       2.149  -5.706   4.371  0.00  0.00    +0.000 F 
ATOM     30  F   UNL     1       4.104  -4.912   3.844  0.00  0.00    +0.000 F 
ATOM     31  F   UNL     1       2.826  -3.822   5.223  0.00  0.00    +0.000 F 
ENDBRANCH   5  28
TORSDOF 4
