REMARK  Name = 
REMARK  7 active torsions:
REMARK  status: ('A' for Active; 'I' for Inactive)
REMARK    1  A    between atoms: C_1  and  O_2
REMARK    2  A    between atoms: O_2  and  C_3
REMARK    3  A    between atoms: C_7  and  O_8
REMARK    4  A    between atoms: O_8  and  C_9
REMARK    5  A    between atoms: C_9  and  C_10
REMARK    6  A    between atoms: C_16  and  C_17
REMARK    7  A    between atoms: N_19  and  C_20
REMARK                            x       y       z     vdW  Elec       q    Type
REMARK                         _______ _______ _______ _____ _____    ______ ____
ROOT
ATOM      1  C   UNL     1       3.170   0.665  -1.166  0.00  0.00    +0.000 A 
ATOM      2  C   UNL     1       2.707   1.971  -1.409  0.00  0.00    +0.000 A 
ATOM      3  C   UNL     1       3.335   2.795  -2.336  0.00  0.00    +0.000 A 
ATOM      4  C   UNL     1       4.461   2.352  -3.018  0.00  0.00    +0.000 A 
ATOM      5  C   UNL     1       4.959   1.070  -2.784  0.00  0.00    +0.000 A 
ATOM      6  C   UNL     1       4.295   0.195  -1.893  0.00  0.00    +0.000 A 
ENDROOT
BRANCH   6   7
ATOM      7  C   UNL     1       4.857  -1.217  -1.790  0.00  0.00    +0.000 C 
ATOM      8  O   UNL     1       5.483  -1.726  -2.701  0.00  0.00    +0.000 OA
ATOM      9  N   UNL     1       4.565  -1.893  -0.647  0.00  0.00    +0.000 N 
ATOM     10  H   UNL     1       3.719  -1.605  -0.167  0.00  0.00    +0.000 HD
BRANCH   9  11
ATOM     11  C   UNL     1       4.998  -3.209  -0.404  0.00  0.00    +0.000 A 
ATOM     12  C   UNL     1       6.311  -3.653  -0.524  0.00  0.00    +0.000 A 
ATOM     13  C   UNL     1       6.677  -4.894   0.027  0.00  0.00    +0.000 A 
ATOM     14  C   UNL     1       5.747  -5.632   0.772  0.00  0.00    +0.000 A 
ATOM     15  C   UNL     1       4.441  -5.153   0.880  0.00  0.00    +0.000 A 
ATOM     16  C   UNL     1       4.046  -4.018   0.190  0.00  0.00    +0.000 A 
ATOM     17  N   UNL     1       2.669  -3.678   0.127  0.00  0.00    +0.000 N 
ATOM     18  C   UNL     1       2.056  -3.896   1.326  0.00  0.00    +0.000 A 
ATOM     19  N   UNL     1       2.379  -4.800   2.187  0.00  0.00    +0.000 NA
ATOM     20  C   UNL     1       3.426  -5.636   1.841  0.00  0.00    +0.000 A 
ATOM     21  O   UNL     1       3.581  -6.748   2.337  0.00  0.00    +0.000 OA
ATOM     22  H   UNL     1       2.269  -4.330  -0.561  0.00  0.00    +0.000 HD
ENDBRANCH   9  11
ENDBRANCH   6   7
BRANCH   1  24
ATOM     23  C   UNL     1       1.440   0.363   0.465  0.00  0.00    +0.000 C 
ATOM     24  O   UNL     1       2.557  -0.170  -0.259  0.00  0.00    +0.000 OA
ENDBRANCH   1  24
BRANCH   5  25
ATOM     25  O   UNL     1       6.054   0.596  -3.447  0.00  0.00    +0.000 OA
BRANCH  25  26
ATOM     26  C   UNL     1       7.120   1.492  -3.729  0.00  0.00    +0.000 C 
BRANCH  26  27
ATOM     27  C   UNL     1       8.270   0.713  -4.330  0.00  0.00    +0.000 A 
ATOM     28  C   UNL     1       9.093   1.321  -5.286  0.00  0.00    +0.000 A 
ATOM     29  C   UNL     1      10.158   0.621  -5.856  0.00  0.00    +0.000 A 
ATOM     30  C   UNL     1      10.421  -0.691  -5.466  0.00  0.00    +0.000 A 
ATOM     31  C   UNL     1       9.621  -1.304  -4.507  0.00  0.00    +0.000 A 
ATOM     32  C   UNL     1       8.555  -0.605  -3.937  0.00  0.00    +0.000 A 
ENDBRANCH  26  27
ENDBRANCH  25  26
ENDBRANCH   5  25
TORSDOF 6
