REMARK  Name = 
REMARK  7 active torsions:
REMARK  status: ('A' for Active; 'I' for Inactive)
REMARK    1  A    between atoms: C_1  and  O_2
REMARK    2  A    between atoms: O_2  and  C_3
REMARK    3  A    between atoms: C_6  and  N_7
REMARK    4  A    between atoms: C_8  and  C_10
REMARK    5  A    between atoms: C_13  and  C_14
REMARK    6  A    between atoms: C_21  and  C_22
REMARK    7  A    between atoms: C_22  and  C_24
REMARK                            x       y       z     vdW  Elec       q    Type
REMARK                         _______ _______ _______ _____ _____    ______ ____
ROOT
ATOM      1  C   UNL     1       3.084   1.151   0.305  0.00  0.00    +0.000 A 
ATOM      2  C   UNL     1       2.724   2.108   1.248  0.00  0.00    +0.000 A 
ATOM      3  C   UNL     1       3.414   3.307   1.355  0.00  0.00    +0.000 A 
ATOM      4  C   UNL     1       4.501   3.595   0.541  0.00  0.00    +0.000 A 
ATOM      5  C   UNL     1       4.866   2.656  -0.432  0.00  0.00    +0.000 A 
ATOM      6  C   UNL     1       4.142   1.444  -0.579  0.00  0.00    +0.000 A 
ENDROOT
BRANCH   4   7
ATOM      7  N   UNL     1       5.225   4.808   0.679  0.00  0.00    +0.000 N 
ATOM      8  C   UNL     1       4.939   5.811   1.598  0.00  0.00    +0.000 C 
ATOM      9  O   UNL     1       4.041   5.779   2.441  0.00  0.00    +0.000 OA
ATOM     10  H   UNL     1       6.009   4.939   0.047  0.00  0.00    +0.000 HD
BRANCH   8  11
ATOM     11  C   UNL     1       5.735   7.061   1.572  0.00  0.00    +0.000 A 
ATOM     12  C   UNL     1       6.847   7.240   0.754  0.00  0.00    +0.000 A 
ATOM     13  F   UNL     1       7.278   6.218  -0.004  0.00  0.00    +0.000 F 
ATOM     14  C   UNL     1       7.500   8.475   0.712  0.00  0.00    +0.000 A 
ATOM     15  C   UNL     1       7.040   9.532   1.516  0.00  0.00    +0.000 A 
ATOM     16  C   UNL     1       5.947   9.353   2.364  0.00  0.00    +0.000 A 
ATOM     17  C   UNL     1       5.303   8.121   2.392  0.00  0.00    +0.000 A 
BRANCH  14  18
ATOM     18  C   UNL     1       8.651   8.723  -0.185  0.00  0.00    +0.000 C 
ATOM     19  N   UNL     1       9.097   7.701  -0.975  0.00  0.00    +0.000 N 
ATOM     20  O   UNL     1       9.195   9.824  -0.231  0.00  0.00    +0.000 OA
ATOM     21  H   UNL     1       8.696   6.777  -0.979  0.00  0.00    +0.000 HD
ATOM     22  H   UNL     1       9.877   7.886  -1.594  0.00  0.00    +0.000 HD
ENDBRANCH  14  18
ENDBRANCH   8  11
ENDBRANCH   4   7
BRANCH   6  23
ATOM     23  C   UNL     1       4.562   0.514  -1.675  0.00  0.00    +0.000 C 
ATOM     24  O   UNL     1       5.753   0.470  -1.984  0.00  0.00    +0.000 OA
BRANCH  23  25
ATOM     25  C   UNL     1       3.587  -0.304  -2.457  0.00  0.00    +0.000 A 
ATOM     26  C   UNL     1       4.011  -1.505  -3.047  0.00  0.00    +0.000 A 
ATOM     27  C   UNL     1       3.124  -2.260  -3.823  0.00  0.00    +0.000 A 
ATOM     28  C   UNL     1       1.812  -1.825  -4.010  0.00  0.00    +0.000 A 
ATOM     29  C   UNL     1       1.384  -0.636  -3.425  0.00  0.00    +0.000 A 
ATOM     30  C   UNL     1       2.273   0.131  -2.670  0.00  0.00    +0.000 A 
ENDBRANCH  23  25
ENDBRANCH   6  23
BRANCH   1  32
ATOM     31  C   UNL     1       1.425  -0.304   1.185  0.00  0.00    +0.000 C 
ATOM     32  O   UNL     1       2.450  -0.059   0.223  0.00  0.00    +0.000 OA
ENDBRANCH   1  32
TORSDOF 6
