REMARK  Name = 
REMARK  6 active torsions:
REMARK  status: ('A' for Active; 'I' for Inactive)
REMARK    1  A    between atoms: C_2  and  C_10
REMARK    2  A    between atoms: N_3  and  C_4
REMARK    3  A    between atoms: C_13  and  C_14
REMARK    4  A    between atoms: C_14  and  N_15
REMARK    5  A    between atoms: C_16  and  C_18
REMARK    6  A    between atoms: C_20  and  C_21
REMARK                            x       y       z     vdW  Elec       q    Type
REMARK                         _______ _______ _______ _____ _____    ______ ____
ROOT
ATOM      1  C   UNL     1       5.259  -0.327   5.013  0.00  0.00    +0.000 C 
ENDROOT
BRANCH   1   5
ATOM      2  C   UNL     1       3.252  -0.279   1.188  0.00  0.00    +0.000 A 
ATOM      3  C   UNL     1       2.808   0.541   2.236  0.00  0.00    +0.000 A 
ATOM      4  C   UNL     1       3.434   0.498   3.482  0.00  0.00    +0.000 A 
ATOM      5  C   UNL     1       4.530  -0.348   3.694  0.00  0.00    +0.000 A 
ATOM      6  C   UNL     1       4.947  -1.194   2.653  0.00  0.00    +0.000 A 
ATOM      7  C   UNL     1       4.317  -1.157   1.401  0.00  0.00    +0.000 A 
BRANCH   2   9
ATOM      8  O   UNL     1       2.253   1.023  -0.457  0.00  0.00    +0.000 OA
ATOM      9  C   UNL     1       2.609  -0.109  -0.142  0.00  0.00    +0.000 C 
ATOM     10  N   UNL     1       2.414  -1.263  -0.880  0.00  0.00    +0.000 N 
ATOM     11  H   UNL     1       2.587  -2.147  -0.417  0.00  0.00    +0.000 HD
BRANCH  10  12
ATOM     12  C   UNL     1       1.777  -1.324  -2.144  0.00  0.00    +0.000 A 
ATOM     13  C   UNL     1       1.546  -0.212  -2.953  0.00  0.00    +0.000 A 
ATOM     14  C   UNL     1       0.858  -0.351  -4.157  0.00  0.00    +0.000 A 
ATOM     15  C   UNL     1       0.429  -1.613  -4.528  0.00  0.00    +0.000 A 
ATOM     16  N   UNL     1       0.660  -2.724  -3.797  0.00  0.00    +0.000 NA
ATOM     17  C   UNL     1       1.331  -2.552  -2.630  0.00  0.00    +0.000 A 
ENDBRANCH  10  12
ENDBRANCH   2   9
ENDBRANCH   1   5
BRANCH   1  18
ATOM     18  N   UNL     1       4.694  -1.256   5.956  0.00  0.00    +0.000 N 
ATOM     19  C   UNL     1       5.263  -1.439   7.194  0.00  0.00    +0.000 C 
ATOM     20  O   UNL     1       6.266  -0.831   7.556  0.00  0.00    +0.000 OA
ATOM     21  H   UNL     1       3.825  -1.714   5.732  0.00  0.00    +0.000 HD
BRANCH  19  22
ATOM     22  C   UNL     1       4.597  -2.402   8.042  0.00  0.00    +0.000 A 
ATOM     23  C   UNL     1       3.505  -3.228   7.825  0.00  0.00    +0.000 A 
ATOM     24  C   UNL     1       3.291  -4.015   8.991  0.00  0.00    +0.000 A 
ATOM     25  C   UNL     1       4.261  -3.643   9.899  0.00  0.00    +0.000 A 
ATOM     26  N   UNL     1       5.039  -2.674   9.319  0.00  0.00    +0.000 N 
ATOM     27  H   UNL     1       5.848  -2.230   9.740  0.00  0.00    +0.000 HD
BRANCH  24  28
ATOM     28  C   UNL     1       2.308  -5.068   9.202  0.00  0.00    +0.000 A 
ATOM     29  C   UNL     1       1.782  -5.340  10.460  0.00  0.00    +0.000 A 
ATOM     30  C   UNL     1       0.874  -6.389  10.592  0.00  0.00    +0.000 A 
ATOM     31  C   UNL     1       0.525  -7.132   9.471  0.00  0.00    +0.000 A 
ATOM     32  C   UNL     1       1.085  -6.782   8.254  0.00  0.00    +0.000 A 
ATOM     33  N   UNL     1       1.957  -5.763   8.091  0.00  0.00    +0.000 NA
ENDBRANCH  24  28
ENDBRANCH  19  22
ENDBRANCH   1  18
TORSDOF 6
