REMARK  Name = 
REMARK  6 active torsions:
REMARK  status: ('A' for Active; 'I' for Inactive)
REMARK    1  A    between atoms: C_2  and  C_11
REMARK    2  A    between atoms: N_3  and  C_4
REMARK    3  A    between atoms: C_4  and  C_5
REMARK    4  A    between atoms: C_14  and  C_15
REMARK    5  A    between atoms: C_15  and  N_16
REMARK    6  A    between atoms: C_17  and  C_19
REMARK                            x       y       z     vdW  Elec       q    Type
REMARK                         _______ _______ _______ _____ _____    ______ ____
ROOT
ATOM      1  C   UNL     1       2.958  -1.202  -0.147  0.00  0.00    +0.000 A 
ATOM      2  C   UNL     1       2.495  -2.183  -1.028  0.00  0.00    +0.000 A 
ATOM      3  C   UNL     1       3.195  -3.381  -1.177  0.00  0.00    +0.000 A 
ATOM      4  C   UNL     1       4.353  -3.625  -0.427  0.00  0.00    +0.000 A 
ATOM      5  C   UNL     1       4.815  -2.635   0.452  0.00  0.00    +0.000 A 
ATOM      6  C   UNL     1       4.119  -1.429   0.598  0.00  0.00    +0.000 A 
ENDROOT
BRANCH   1   8
ATOM      7  O   UNL     1       0.937   0.002  -0.136  0.00  0.00    +0.000 OA
ATOM      8  C   UNL     1       2.153   0.039  -0.001  0.00  0.00    +0.000 C 
ATOM      9  N   UNL     1       2.856   1.198   0.250  0.00  0.00    +0.000 N 
ATOM     10  H   UNL     1       3.853   1.217   0.092  0.00  0.00    +0.000 HD
BRANCH   9  11
ATOM     11  C   UNL     1       2.182   2.482   0.299  0.00  0.00    +0.000 C 
BRANCH  11  12
ATOM     12  C   UNL     1       2.113   3.148  -1.057  0.00  0.00    +0.000 A 
ATOM     13  C   UNL     1       1.026   2.904  -1.897  0.00  0.00    +0.000 A 
ATOM     14  C   UNL     1       0.979   3.533  -3.138  0.00  0.00    +0.000 A 
ATOM     15  C   UNL     1       2.015   4.379  -3.511  0.00  0.00    +0.000 A 
ATOM     16  C   UNL     1       3.066   4.559  -2.626  0.00  0.00    +0.000 A 
ATOM     17  N   UNL     1       3.142   3.958  -1.418  0.00  0.00    +0.000 NA
ENDBRANCH  11  12
ENDBRANCH   9  11
ENDBRANCH   1   8
BRANCH   4  18
ATOM     18  C   UNL     1       5.042  -4.960  -0.537  0.00  0.00    +0.000 C 
BRANCH  18  19
ATOM     19  N   UNL     1       6.018  -5.009  -1.595  0.00  0.00    +0.000 N 
ATOM     20  C   UNL     1       6.753  -6.161  -1.757  0.00  0.00    +0.000 C 
ATOM     21  O   UNL     1       6.589  -7.128  -1.013  0.00  0.00    +0.000 OA
ATOM     22  H   UNL     1       5.973  -4.337  -2.341  0.00  0.00    +0.000 HD
BRANCH  20  23
ATOM     23  C   UNL     1       7.790  -6.160  -2.786  0.00  0.00    +0.000 A 
ATOM     24  C   UNL     1       8.591  -7.281  -2.983  0.00  0.00    +0.000 A 
ATOM     25  N   UNL     1       9.677  -6.906  -3.705  0.00  0.00    +0.000 N 
ATOM     26  C   UNL     1       9.550  -5.603  -4.099  0.00  0.00    +0.000 A 
ATOM     27  C   UNL     1       8.295  -5.148  -3.678  0.00  0.00    +0.000 A 
ATOM     28  C   UNL     1       7.896  -3.862  -4.108  0.00  0.00    +0.000 A 
ATOM     29  C   UNL     1       8.781  -3.058  -4.844  0.00  0.00    +0.000 A 
ATOM     30  C   UNL     1      10.067  -3.500  -5.137  0.00  0.00    +0.000 A 
ATOM     31  C   UNL     1      10.456  -4.785  -4.782  0.00  0.00    +0.000 A 
ATOM     32  F   UNL     1      11.691  -5.221  -5.067  0.00  0.00    +0.000 F 
ATOM     33  H   UNL     1      10.496  -7.485  -3.894  0.00  0.00    +0.000 HD
ENDBRANCH  20  23
ENDBRANCH  18  19
ENDBRANCH   4  18
TORSDOF 6
