REMARK  Name = 
REMARK  7 active torsions:
REMARK  status: ('A' for Active; 'I' for Inactive)
REMARK    1  A    between atoms: C_2  and  C_19
REMARK    2  A    between atoms: N_3  and  C_4
REMARK    3  A    between atoms: C_4  and  C_5
REMARK    4  A    between atoms: C_4  and  C_13
REMARK    5  A    between atoms: C_5  and  N_6
REMARK    6  A    between atoms: N_21  and  C_22
REMARK    7  A    between atoms: C_24  and  O_25
REMARK                            x       y       z     vdW  Elec       q    Type
REMARK                         _______ _______ _______ _____ _____    ______ ____
ROOT
ATOM      1  O   UNL     1       3.195  -2.433   0.660  0.00  0.00    +0.000 OA
ATOM      2  C   UNL     1       3.454  -1.279   0.326  0.00  0.00    +0.000 C 
ATOM      3  N   UNL     1       3.057  -0.758  -0.881  0.00  0.00    +0.000 N 
ATOM      4  H   UNL     1       3.251   0.206  -1.129  0.00  0.00    +0.000 HD
ENDROOT
BRANCH   2   5
ATOM      5  C   UNL     1       4.214  -0.403   1.198  0.00  0.00    +0.000 A 
ATOM      6  C   UNL     1       4.759  -0.824   2.394  0.00  0.00    +0.000 A 
ATOM      7  N   UNL     1       5.470   0.216   2.936  0.00  0.00    +0.000 N 
ATOM      8  N   UNL     1       5.335   1.339   2.179  0.00  0.00    +0.000 NA
ATOM      9  C   UNL     1       4.601   0.949   1.128  0.00  0.00    +0.000 A 
BRANCH   7  10
ATOM     10  C   UNL     1       6.287   0.180   4.101  0.00  0.00    +0.000 A 
ATOM     11  C   UNL     1       6.916   1.349   4.555  0.00  0.00    +0.000 A 
ATOM     12  C   UNL     1       7.752   1.285   5.669  0.00  0.00    +0.000 A 
ATOM     13  C   UNL     1       7.977   0.085   6.334  0.00  0.00    +0.000 A 
ATOM     14  C   UNL     1       7.346  -1.075   5.895  0.00  0.00    +0.000 A 
ATOM     15  C   UNL     1       6.499  -1.029   4.786  0.00  0.00    +0.000 A 
BRANCH  12  16
ATOM     16  O   UNL     1       8.388   2.394   6.146  0.00  0.00    +0.000 OA
ATOM     17  H   UNL     1       8.141   3.152   5.592  0.00  0.00    +0.000 HD
ENDBRANCH  12  16
ENDBRANCH   7  10
ENDBRANCH   2   5
BRANCH   3  18
ATOM     18  C   UNL     1       2.382  -1.603  -1.861  0.00  0.00    +0.000 C 
BRANCH  18  19
ATOM     19  C   UNL     1       3.405  -2.376  -2.679  0.00  0.00    +0.000 A 
ATOM     20  C   UNL     1       3.393  -3.780  -2.668  0.00  0.00    +0.000 A 
ATOM     21  C   UNL     1       4.349  -4.508  -3.378  0.00  0.00    +0.000 A 
ATOM     22  C   UNL     1       5.330  -3.842  -4.108  0.00  0.00    +0.000 A 
ATOM     23  C   UNL     1       5.352  -2.449  -4.136  0.00  0.00    +0.000 A 
ATOM     24  C   UNL     1       4.394  -1.719  -3.428  0.00  0.00    +0.000 A 
ENDBRANCH  18  19
BRANCH  18  25
ATOM     25  C   UNL     1       1.411  -0.818  -2.773  0.00  0.00    +0.000 C 
BRANCH  25  26
ATOM     26  N   UNL     1       0.363  -0.123  -2.016  0.00  0.00    +0.000 N 
ATOM     27  C   UNL     1      -0.834  -0.771  -1.756  0.00  0.00    +0.000 A 
ATOM     28  C   UNL     1      -1.794  -0.187  -1.030  0.00  0.00    +0.000 A 
ATOM     29  C   UNL     1      -1.595   1.142  -0.511  0.00  0.00    +0.000 A 
ATOM     30  C   UNL     1      -0.442   1.789  -0.722  0.00  0.00    +0.000 A 
ATOM     31  C   UNL     1       0.651   1.139  -1.494  0.00  0.00    +0.000 A 
ATOM     32  O   UNL     1       1.733   1.711  -1.625  0.00  0.00    +0.000 OA
ENDBRANCH  25  26
ENDBRANCH  18  25
ENDBRANCH   3  18
TORSDOF 7
