REMARK  Name = 
REMARK  6 active torsions:
REMARK  status: ('A' for Active; 'I' for Inactive)
REMARK    1  A    between atoms: C_1  and  N_2
REMARK    2  A    between atoms: N_2  and  C_16
REMARK    3  A    between atoms: C_3  and  C_5
REMARK    4  A    between atoms: C_14  and  N_15
REMARK    5  A    between atoms: C_16  and  C_17
REMARK    6  A    between atoms: C_16  and  C_23
REMARK                            x       y       z     vdW  Elec       q    Type
REMARK                         _______ _______ _______ _____ _____    ______ ____
ROOT
ATOM      1  C   UNL     1       1.009   0.087  -0.196  0.00  0.00    +0.000 C 
ATOM      2  N   UNL     1       2.440  -0.061   0.081  0.00  0.00    +0.000 N 
ATOM      3  C   UNL     1       2.960  -0.939   1.065  0.00  0.00    +0.000 C 
ATOM      4  O   UNL     1       4.168  -1.162   1.168  0.00  0.00    +0.000 OA
ENDROOT
BRANCH   3   5
ATOM      5  C   UNL     1       2.026  -1.679   1.990  0.00  0.00    +0.000 A 
ATOM      6  N   UNL     1       0.912  -0.995   2.335  0.00  0.00    +0.000 NA
ATOM      7  N   UNL     1      -0.083  -1.614   3.024  0.00  0.00    +0.000 NA
ATOM      8  C   UNL     1       0.032  -2.895   3.389  0.00  0.00    +0.000 A 
ATOM      9  C   UNL     1      -1.036  -3.481   4.059  0.00  0.00    +0.000 A 
ATOM     10  C   UNL     1      -0.999  -4.809   4.476  0.00  0.00    +0.000 A 
ATOM     11  C   UNL     1       0.133  -5.570   4.229  0.00  0.00    +0.000 A 
ATOM     12  C   UNL     1       1.223  -4.994   3.568  0.00  0.00    +0.000 A 
ATOM     13  C   UNL     1       1.196  -3.645   3.121  0.00  0.00    +0.000 A 
ATOM     14  C   UNL     1       2.255  -3.005   2.411  0.00  0.00    +0.000 A 
BRANCH  14  15
ATOM     15  N   UNL     1       3.522  -3.616   2.321  0.00  0.00    +0.000 N 
ATOM     16  H   UNL     1       3.559  -4.623   2.230  0.00  0.00    +0.000 HD
ATOM     17  H   UNL     1       4.206  -3.112   1.749  0.00  0.00    +0.000 HD
ENDBRANCH  14  15
ENDBRANCH   3   5
BRANCH   2  18
ATOM     18  C   UNL     1       3.293   1.004  -0.496  0.00  0.00    +0.000 C 
BRANCH  18  19
ATOM     19  C   UNL     1       4.458   0.600  -1.414  0.00  0.00    +0.000 A 
ATOM     20  C   UNL     1       5.258   1.613  -1.997  0.00  0.00    +0.000 A 
ATOM     21  C   UNL     1       6.274   1.314  -2.911  0.00  0.00    +0.000 A 
ATOM     22  C   UNL     1       6.506  -0.014  -3.257  0.00  0.00    +0.000 A 
ATOM     23  F   UNL     1       7.463  -0.301  -4.149  0.00  0.00    +0.000 F 
ATOM     24  C   UNL     1       5.742  -1.023  -2.693  0.00  0.00    +0.000 A 
ATOM     25  F   UNL     1       5.973  -2.301  -3.022  0.00  0.00    +0.000 F 
ATOM     26  C   UNL     1       4.716  -0.726  -1.791  0.00  0.00    +0.000 A 
ENDBRANCH  18  19
BRANCH  18  27
ATOM     27  C   UNL     1       3.629   2.060   0.549  0.00  0.00    +0.000 A 
ATOM     28  C   UNL     1       4.740   1.966   1.389  0.00  0.00    +0.000 A 
ATOM     29  C   UNL     1       4.995   2.970   2.314  0.00  0.00    +0.000 A 
ATOM     30  C   UNL     1       4.124   4.044   2.380  0.00  0.00    +0.000 A 
ATOM     31  N   UNL     1       3.032   4.172   1.594  0.00  0.00    +0.000 NA
ATOM     32  C   UNL     1       2.805   3.176   0.709  0.00  0.00    +0.000 A 
ENDBRANCH  18  27
ENDBRANCH   2  18
TORSDOF 5
