REMARK  Name = 
REMARK  6 active torsions:
REMARK  status: ('A' for Active; 'I' for Inactive)
REMARK    1  A    between atoms: C_1  and  C_2
REMARK    2  A    between atoms: N_5  and  C_6
REMARK    3  A    between atoms: C_6  and  C_7
REMARK    4  A    between atoms: C_6  and  C_15
REMARK    5  A    between atoms: C_7  and  N_8
REMARK    6  A    between atoms: N_24  and  C_25
REMARK                            x       y       z     vdW  Elec       q    Type
REMARK                         _______ _______ _______ _____ _____    ______ ____
ROOT
ATOM      1  C   UNL     1       5.626   2.153   2.173  0.00  0.00    +0.000 C 
ATOM      2  C   UNL     1       5.238   0.699   2.236  0.00  0.00    +0.000 A 
ATOM      3  C   UNL     1       5.288  -0.045   1.126  0.00  0.00    +0.000 A 
ATOM      4  C   UNL     1       5.065  -1.504   1.245  0.00  0.00    +0.000 A 
ATOM      5  N   UNL     1       5.211  -2.258   0.103  0.00  0.00    +0.000 N 
ATOM      6  N   UNL     1       4.767  -2.058   2.372  0.00  0.00    +0.000 NA
ATOM      7  C   UNL     1       4.668  -1.300   3.516  0.00  0.00    +0.000 A 
ATOM      8  O   UNL     1       4.331  -1.853   4.566  0.00  0.00    +0.000 OA
ATOM      9  N   UNL     1       4.936   0.096   3.457  0.00  0.00    +0.000 N 
ATOM     10  H   UNL     1       5.236  -1.725  -0.771  0.00  0.00    +0.000 HD
ENDROOT
BRANCH   9  11
ATOM     11  C   UNL     1       4.876   0.816   4.691  0.00  0.00    +0.000 A 
ATOM     12  C   UNL     1       5.718   0.444   5.748  0.00  0.00    +0.000 A 
ATOM     13  C   UNL     1       5.634   1.086   6.984  0.00  0.00    +0.000 A 
ATOM     14  C   UNL     1       4.695   2.096   7.179  0.00  0.00    +0.000 A 
ATOM     15  C   UNL     1       3.859   2.482   6.131  0.00  0.00    +0.000 A 
ATOM     16  C   UNL     1       3.957   1.855   4.885  0.00  0.00    +0.000 A 
ENDBRANCH   9  11
BRANCH   5  17
ATOM     17  C   UNL     1       4.686  -3.609  -0.074  0.00  0.00    +0.000 C 
BRANCH  17  18
ATOM     18  C   UNL     1       5.841  -4.604   0.016  0.00  0.00    +0.000 A 
ATOM     19  C   UNL     1       5.790  -5.673   0.925  0.00  0.00    +0.000 A 
ATOM     20  C   UNL     1       6.840  -6.597   0.998  0.00  0.00    +0.000 A 
ATOM     21  C   UNL     1       7.948  -6.467   0.166  0.00  0.00    +0.000 A 
ATOM     22  C   UNL     1       8.014  -5.412  -0.740  0.00  0.00    +0.000 A 
ATOM     23  C   UNL     1       6.970  -4.488  -0.815  0.00  0.00    +0.000 A 
ENDBRANCH  17  18
BRANCH  17  24
ATOM     24  C   UNL     1       3.977  -3.770  -1.459  0.00  0.00    +0.000 C 
BRANCH  24  25
ATOM     25  N   UNL     1       2.823  -2.884  -1.692  0.00  0.00    +0.000 N 
ATOM     26  C   UNL     1       1.563  -3.440  -1.859  0.00  0.00    +0.000 A 
ATOM     27  C   UNL     1       0.497  -2.676  -2.134  0.00  0.00    +0.000 A 
ATOM     28  C   UNL     1       0.632  -1.244  -2.196  0.00  0.00    +0.000 A 
ATOM     29  C   UNL     1       1.837  -0.673  -2.075  0.00  0.00    +0.000 A 
ATOM     30  C   UNL     1       3.045  -1.520  -1.898  0.00  0.00    +0.000 A 
ATOM     31  O   UNL     1       4.156  -0.991  -1.933  0.00  0.00    +0.000 OA
ENDBRANCH  24  25
ENDBRANCH  17  24
ENDBRANCH   5  17
TORSDOF 5
