REMARK  Name = 
REMARK  6 active torsions:
REMARK  status: ('A' for Active; 'I' for Inactive)
REMARK    1  A    between atoms: C_2  and  C_18
REMARK    2  A    between atoms: N_3  and  C_4
REMARK    3  A    between atoms: C_8  and  C_9
REMARK    4  A    between atoms: C_9  and  O_10
REMARK    5  A    between atoms: O_10  and  C_11
REMARK    6  A    between atoms: C_21  and  N_22
REMARK                            x       y       z     vdW  Elec       q    Type
REMARK                         _______ _______ _______ _____ _____    ______ ____
ROOT
ATOM      1  O   UNL     1       4.893   1.953  -1.018  0.00  0.00    +0.000 OA
ATOM      2  C   UNL     1       4.148   1.094  -0.567  0.00  0.00    +0.000 C 
ATOM      3  N   UNL     1       2.875   1.265  -0.056  0.00  0.00    +0.000 N 
ATOM      4  H   UNL     1       2.455   0.513   0.469  0.00  0.00    +0.000 HD
ENDROOT
BRANCH   2   5
ATOM      5  C   UNL     1       4.689  -0.286  -0.497  0.00  0.00    +0.000 A 
ATOM      6  C   UNL     1       6.042  -0.451  -0.169  0.00  0.00    +0.000 A 
ATOM      7  C   UNL     1       6.624  -1.721  -0.177  0.00  0.00    +0.000 A 
ATOM      8  C   UNL     1       5.862  -2.832  -0.562  0.00  0.00    +0.000 A 
ATOM      9  C   UNL     1       4.512  -2.654  -0.891  0.00  0.00    +0.000 A 
ATOM     10  F   UNL     1       3.733  -3.695  -1.216  0.00  0.00    +0.000 F 
ATOM     11  C   UNL     1       3.916  -1.394  -0.847  0.00  0.00    +0.000 A 
BRANCH   8  12
ATOM     12  N   UNL     1       6.468  -4.109  -0.642  0.00  0.00    +0.000 N 
ATOM     13  C   UNL     1       7.581  -4.542   0.047  0.00  0.00    +0.000 A 
ATOM     14  C   UNL     1       7.790  -5.842  -0.351  0.00  0.00    +0.000 A 
ATOM     15  N   UNL     1       6.869  -6.216  -1.287  0.00  0.00    +0.000 NA
ATOM     16  C   UNL     1       6.093  -5.166  -1.442  0.00  0.00    +0.000 A 
ENDBRANCH   8  12
ENDBRANCH   2   5
BRANCH   3  17
ATOM     17  C   UNL     1       2.182   2.487  -0.109  0.00  0.00    +0.000 A 
ATOM     18  C   UNL     1       1.044   2.626   0.655  0.00  0.00    +0.000 A 
ATOM     19  C   UNL     1       0.409   3.845   0.574  0.00  0.00    +0.000 A 
ATOM     20  N   UNL     1       0.821   4.849  -0.218  0.00  0.00    +0.000 NA
ATOM     21  C   UNL     1       1.932   4.617  -0.946  0.00  0.00    +0.000 A 
ATOM     22  N   UNL     1       2.619   3.463  -0.913  0.00  0.00    +0.000 NA
BRANCH  21  23
ATOM     23  C   UNL     1       2.386   5.674  -1.931  0.00  0.00    +0.000 C 
BRANCH  23  24
ATOM     24  O   UNL     1       3.241   6.634  -1.304  0.00  0.00    +0.000 OA
BRANCH  24  25
ATOM     25  C   UNL     1       3.696   7.651  -2.102  0.00  0.00    +0.000 A 
ATOM     26  C   UNL     1       3.414   7.822  -3.460  0.00  0.00    +0.000 A 
ATOM     27  C   UNL     1       3.937   8.916  -4.157  0.00  0.00    +0.000 A 
ATOM     28  C   UNL     1       4.743   9.845  -3.504  0.00  0.00    +0.000 A 
ATOM     29  C   UNL     1       5.034   9.678  -2.151  0.00  0.00    +0.000 A 
ATOM     30  C   UNL     1       4.512   8.586  -1.457  0.00  0.00    +0.000 A 
ENDBRANCH  24  25
ENDBRANCH  23  24
ENDBRANCH  21  23
ENDBRANCH   3  17
TORSDOF 6
