REMARK  Name = 
REMARK  7 active torsions:
REMARK  status: ('A' for Active; 'I' for Inactive)
REMARK    1  A    between atoms: C_2  and  C_20
REMARK    2  A    between atoms: N_3  and  CA_4
REMARK    3  A    between atoms: CA_4  and  C_5
REMARK    4  A    between atoms: CA_4  and  C_8
REMARK    5  A    between atoms: C_5  and  OXT_7
REMARK    6  A    between atoms: C_12  and  C_13
REMARK    7  A    between atoms: C_23  and  C_24
REMARK                            x       y       z     vdW  Elec       q    Type
REMARK                         _______ _______ _______ _____ _____    ______ ____
ROOT
ATOM      1  CA  UNL     1       2.328   1.309   1.951  0.00  0.00    +0.000 C 
ENDROOT
BRANCH   1   2
ATOM      2  C   UNL     1       3.399   2.082   2.696  0.00  0.00    +0.000 A 
ATOM      3  C   UNL     1       4.280   1.453   3.582  0.00  0.00    +0.000 A 
ATOM      4  C   UNL     1       5.279   2.190   4.214  0.00  0.00    +0.000 A 
ATOM      5  C   UNL     1       5.421   3.556   3.952  0.00  0.00    +0.000 A 
ATOM      6  C   UNL     1       4.580   4.222   3.045  0.00  0.00    +0.000 A 
ATOM      7  C   UNL     1       3.556   3.464   2.447  0.00  0.00    +0.000 A 
BRANCH   6   8
ATOM      8  C   UNL     1       4.814   5.639   2.679  0.00  0.00    +0.000 A 
ATOM      9  C   UNL     1       6.119   6.125   2.511  0.00  0.00    +0.000 A 
ATOM     10  C   UNL     1       6.321   7.442   2.129  0.00  0.00    +0.000 A 
ATOM     11  N   UNL     1       5.321   8.315   1.895  0.00  0.00    +0.000 NA
ATOM     12  C   UNL     1       4.067   7.843   2.055  0.00  0.00    +0.000 A 
ATOM     13  C   UNL     1       3.768   6.541   2.442  0.00  0.00    +0.000 A 
ENDBRANCH   6   8
ENDBRANCH   1   2
BRANCH   1  16
ATOM     14  O   UNL     1       3.022   2.105  -0.598  0.00  0.00    +0.000 OA
ATOM     15  C   UNL     1       3.293   0.947  -0.293  0.00  0.00    +0.000 C 
ATOM     16  N   UNL     1       2.913   0.421   0.930  0.00  0.00    +0.000 N 
ATOM     17  H   UNL     1       3.411  -0.411   1.229  0.00  0.00    +0.000 HD
BRANCH  15  18
ATOM     18  C   UNL     1       3.998   0.050  -1.189  0.00  0.00    +0.000 A 
ATOM     19  C   UNL     1       4.552   0.321  -2.425  0.00  0.00    +0.000 A 
ATOM     20  C   UNL     1       5.042  -0.899  -2.933  0.00  0.00    +0.000 A 
ATOM     21  C   UNL     1       4.791  -1.861  -1.975  0.00  0.00    +0.000 A 
ATOM     22  O   UNL     1       4.155  -1.286  -0.897  0.00  0.00    +0.000 OA
BRANCH  21  23
ATOM     23  C   UNL     1       5.085  -3.291  -1.931  0.00  0.00    +0.000 A 
ATOM     24  C   UNL     1       4.697  -4.120  -0.886  0.00  0.00    +0.000 A 
ATOM     25  C   UNL     1       5.062  -5.462  -0.923  0.00  0.00    +0.000 A 
ATOM     26  C   UNL     1       5.800  -5.944  -2.003  0.00  0.00    +0.000 A 
ATOM     27  C   UNL     1       6.131  -5.055  -3.011  0.00  0.00    +0.000 A 
ATOM     28  N   UNL     1       5.790  -3.747  -2.999  0.00  0.00    +0.000 NA
ENDBRANCH  21  23
ENDBRANCH  15  18
ENDBRANCH   1  16
BRANCH   1  29
ATOM     29  C   UNL     1       1.356   0.531   2.864  0.00  0.00    +0.000 C 
ATOM     30  O   UNL     1       0.991   0.860   3.982  0.00  0.00    +0.000 OA
BRANCH  29  31
ATOM     31  OXT UNL     1       0.820  -0.553   2.229  0.00  0.00    +0.000 OA
ATOM     32  HXT UNL     1       1.128  -0.594   1.298  0.00  0.00    +0.000 HD
ENDBRANCH  29  31
ENDBRANCH   1  29
TORSDOF 7
