REMARK  Name = 
REMARK  7 active torsions:
REMARK  status: ('A' for Active; 'I' for Inactive)
REMARK    1  A    between atoms: C_1  and  O_2
REMARK    2  A    between atoms: O_2  and  C_3
REMARK    3  A    between atoms: C_5  and  C_6
REMARK    4  A    between atoms: N_8  and  C_9
REMARK    5  A    between atoms: C_12  and  C_13
REMARK    6  A    between atoms: C_14  and  C_15
REMARK    7  A    between atoms: C_15  and  C_17
REMARK                            x       y       z     vdW  Elec       q    Type
REMARK                         _______ _______ _______ _____ _____    ______ ____
ROOT
ATOM      1  C   UNL     1       5.649   3.527  -0.595  0.00  0.00    +0.000 C 
ATOM      2  O   UNL     1       5.390   3.341  -1.777  0.00  0.00    +0.000 OA
ATOM      3  N   UNL     1       6.704   4.269  -0.088  0.00  0.00    +0.000 N 
ATOM      4  H   UNL     1       6.912   4.180   0.896  0.00  0.00    +0.000 HD
ENDROOT
BRANCH   1   7
ATOM      5  C   UNL     1       3.334   0.866   0.794  0.00  0.00    +0.000 A 
ATOM      6  C   UNL     1       4.261   1.562   0.008  0.00  0.00    +0.000 A 
ATOM      7  C   UNL     1       4.771   2.833   0.387  0.00  0.00    +0.000 A 
ATOM      8  C   UNL     1       4.373   3.434   1.583  0.00  0.00    +0.000 A 
ATOM      9  C   UNL     1       3.472   2.724   2.347  0.00  0.00    +0.000 A 
ATOM     10  C   UNL     1       2.961   1.470   1.976  0.00  0.00    +0.000 A 
ATOM     11  N   UNL     1       2.107   1.058   3.000  0.00  0.00    +0.000 N 
ATOM     12  C   UNL     1       2.062   2.043   3.990  0.00  0.00    +0.000 A 
ATOM     13  O   UNL     1       1.413   2.009   5.019  0.00  0.00    +0.000 OA
ATOM     14  N   UNL     1       2.909   3.074   3.570  0.00  0.00    +0.000 N 
ATOM     15  H   UNL     1       1.602   0.193   3.078  0.00  0.00    +0.000 HD
ATOM     16  H   UNL     1       3.062   3.914   4.104  0.00  0.00    +0.000 HD
BRANCH   5  18
ATOM     17  C   UNL     1       1.602  -0.727   0.553  0.00  0.00    +0.000 C 
ATOM     18  O   UNL     1       2.948  -0.343   0.304  0.00  0.00    +0.000 OA
ENDBRANCH   5  18
ENDBRANCH   1   7
BRANCH   3  19
ATOM     19  C   UNL     1       7.671   4.931  -0.889  0.00  0.00    +0.000 A 
ATOM     20  C   UNL     1       7.484   5.191  -2.246  0.00  0.00    +0.000 A 
ATOM     21  C   UNL     1       8.510   5.732  -3.022  0.00  0.00    +0.000 A 
ATOM     22  C   UNL     1       9.747   6.062  -2.457  0.00  0.00    +0.000 A 
ATOM     23  C   UNL     1      10.837   6.544  -3.377  0.00  0.00    +0.000 C 
ATOM     24  C   UNL     1       9.915   5.901  -1.066  0.00  0.00    +0.000 A 
ATOM     25  C   UNL     1       8.880   5.317  -0.299  0.00  0.00    +0.000 A 
BRANCH  24  26
ATOM     26  C   UNL     1      11.200   6.274  -0.393  0.00  0.00    +0.000 C 
ATOM     27  O   UNL     1      12.268   6.143  -0.983  0.00  0.00    +0.000 OA
BRANCH  26  28
ATOM     28  C   UNL     1      11.232   6.769   1.011  0.00  0.00    +0.000 A 
ATOM     29  C   UNL     1      10.202   7.546   1.554  0.00  0.00    +0.000 A 
ATOM     30  C   UNL     1      10.269   7.960   2.887  0.00  0.00    +0.000 A 
ATOM     31  C   UNL     1      11.373   7.623   3.671  0.00  0.00    +0.000 A 
ATOM     32  C   UNL     1      12.418   6.880   3.123  0.00  0.00    +0.000 A 
ATOM     33  C   UNL     1      12.350   6.457   1.795  0.00  0.00    +0.000 A 
ENDBRANCH  26  28
ENDBRANCH  24  26
ENDBRANCH   3  19
TORSDOF 5
