REMARK  Name = 
REMARK  6 active torsions:
REMARK  status: ('A' for Active; 'I' for Inactive)
REMARK    1  A    between atoms: C_2  and  C_3
REMARK    2  A    between atoms: C_3  and  C_4
REMARK    3  A    between atoms: N_15  and  C_16
REMARK    4  A    between atoms: C_16  and  C_17
REMARK    5  A    between atoms: C_22  and  O_23
REMARK    6  A    between atoms: O_23  and  C_24
REMARK                            x       y       z     vdW  Elec       q    Type
REMARK                         _______ _______ _______ _____ _____    ______ ____
ROOT
ATOM      1  O   UNL     1       1.278  -0.194  -0.919  0.00  0.00    +0.000 OA
ATOM      2  C   UNL     1       2.507  -0.138  -0.855  0.00  0.00    +0.000 C 
ATOM      3  N   UNL     1       3.107   1.027  -0.500  0.00  0.00    +0.000 N 
ATOM      4  H   UNL     1       2.452   1.789  -0.372  0.00  0.00    +0.000 HD
ENDROOT
BRANCH   2   5
ATOM      5  C   UNL     1       3.354  -1.383  -1.149  0.00  0.00    +0.000 C 
BRANCH   5   6
ATOM      6  C   UNL     1       3.568  -2.202   0.090  0.00  0.00    +0.000 A 
ATOM      7  C   UNL     1       2.582  -2.816   0.754  0.00  0.00    +0.000 A 
ATOM      8  C   UNL     1       2.911  -3.630   1.912  0.00  0.00    +0.000 A 
ATOM      9  C   UNL     1       1.907  -4.293   2.627  0.00  0.00    +0.000 A 
ATOM     10  C   UNL     1       2.235  -5.081   3.733  0.00  0.00    +0.000 A 
ATOM     11  C   UNL     1       3.565  -5.213   4.129  0.00  0.00    +0.000 A 
ATOM     12  C   UNL     1       4.572  -4.556   3.420  0.00  0.00    +0.000 A 
ATOM     13  C   UNL     1       4.242  -3.765   2.310  0.00  0.00    +0.000 A 
ATOM     14  C   UNL     1       5.316  -3.076   1.555  0.00  0.00    +0.000 A 
ATOM     15  O   UNL     1       6.494  -3.173   1.881  0.00  0.00    +0.000 OA
ATOM     16  O   UNL     1       4.923  -2.325   0.477  0.00  0.00    +0.000 OA
ENDBRANCH   5   6
ENDBRANCH   2   5
BRANCH   3  17
ATOM     17  C   UNL     1       4.511   1.337  -0.291  0.00  0.00    +0.000 C 
BRANCH  17  18
ATOM     18  C   UNL     1       5.012   2.321  -1.322  0.00  0.00    +0.000 A 
ATOM     19  C   UNL     1       5.442   1.794  -2.559  0.00  0.00    +0.000 A 
ATOM     20  C   UNL     1       5.857   2.623  -3.600  0.00  0.00    +0.000 A 
ATOM     21  C   UNL     1       5.869   3.997  -3.424  0.00  0.00    +0.000 A 
ATOM     22  C   UNL     1       5.490   4.538  -2.199  0.00  0.00    +0.000 A 
ATOM     23  C   UNL     1       5.023   3.721  -1.152  0.00  0.00    +0.000 A 
BRANCH  23  24
ATOM     24  O   UNL     1       4.632   4.293   0.053  0.00  0.00    +0.000 OA
BRANCH  24  25
ATOM     25  C   UNL     1       3.970   5.522  -0.025  0.00  0.00    +0.000 A 
ATOM     26  C   UNL     1       4.189   6.467   0.971  0.00  0.00    +0.000 A 
ATOM     27  C   UNL     1       3.502   7.683   0.891  0.00  0.00    +0.000 A 
ATOM     28  C   UNL     1       2.653   7.923  -0.185  0.00  0.00    +0.000 A 
ATOM     29  C   UNL     1       2.520   6.934  -1.141  0.00  0.00    +0.000 A 
ATOM     30  N   UNL     1       3.132   5.735  -1.067  0.00  0.00    +0.000 NA
ENDBRANCH  24  25
ENDBRANCH  23  24
ENDBRANCH  17  18
ENDBRANCH   3  17
TORSDOF 6
