REMARK  Name = 
REMARK  6 active torsions:
REMARK  status: ('A' for Active; 'I' for Inactive)
REMARK    1  A    between atoms: C_2  and  C_3
REMARK    2  A    between atoms: C_6  and  C_7
REMARK    3  A    between atoms: C_7  and  C_8
REMARK    4  A    between atoms: N_10  and  C_11
REMARK    5  A    between atoms: C_13  and  N_14
REMARK    6  A    between atoms: C_15  and  C_17
REMARK                            x       y       z     vdW  Elec       q    Type
REMARK                         _______ _______ _______ _____ _____    ______ ____
ROOT
ATOM      1  C   UNL     1       6.346  -2.984   0.342  0.00  0.00    +0.000 A 
ATOM      2  C   UNL     1       5.691  -3.875  -0.506  0.00  0.00    +0.000 A 
ATOM      3  C   UNL     1       6.131  -5.192  -0.680  0.00  0.00    +0.000 A 
ATOM      4  C   UNL     1       7.204  -5.635   0.101  0.00  0.00    +0.000 A 
ATOM      5  C   UNL     1       7.834  -4.759   0.999  0.00  0.00    +0.000 A 
ATOM      6  C   UNL     1       7.423  -3.425   1.101  0.00  0.00    +0.000 A 
ENDROOT
BRANCH   1   9
ATOM      7  C   UNL     1       6.675  -0.561   0.184  0.00  0.00    +0.000 C 
ATOM      8  O   UNL     1       7.887  -0.607  -0.011  0.00  0.00    +0.000 OA
ATOM      9  N   UNL     1       5.855  -1.662   0.380  0.00  0.00    +0.000 N 
ATOM     10  H   UNL     1       4.906  -1.538   0.044  0.00  0.00    +0.000 HD
BRANCH   7  11
ATOM     11  C   UNL     1       5.919   0.759   0.211  0.00  0.00    +0.000 C 
BRANCH  11  15
ATOM     12  C   UNL     1       4.203   2.269  -3.474  0.00  0.00    +0.000 A 
ATOM     13  C   UNL     1       3.404   2.089  -2.343  0.00  0.00    +0.000 A 
ATOM     14  C   UNL     1       3.953   1.560  -1.167  0.00  0.00    +0.000 A 
ATOM     15  C   UNL     1       5.309   1.201  -1.104  0.00  0.00    +0.000 A 
ATOM     16  C   UNL     1       6.101   1.376  -2.248  0.00  0.00    +0.000 A 
ATOM     17  C   UNL     1       5.552   1.904  -3.425  0.00  0.00    +0.000 A 
BRANCH  12  19
ATOM     18  N   UNL     1       3.197   3.312  -5.630  0.00  0.00    +0.000 NA
ATOM     19  C   UNL     1       3.649   2.842  -4.667  0.00  0.00    +0.000 C 
ENDBRANCH  12  19
ENDBRANCH  11  15
ENDBRANCH   7  11
ENDBRANCH   1   9
BRANCH   3  20
ATOM     20  N   UNL     1       5.553  -6.074  -1.635  0.00  0.00    +0.000 N 
ATOM     21  C   UNL     1       4.543  -5.718  -2.515  0.00  0.00    +0.000 C 
ATOM     22  O   UNL     1       3.999  -4.615  -2.574  0.00  0.00    +0.000 OA
ATOM     23  H   UNL     1       5.989  -6.982  -1.730  0.00  0.00    +0.000 HD
BRANCH  21  24
ATOM     24  C   UNL     1       4.076  -6.699  -3.518  0.00  0.00    +0.000 A 
ATOM     25  C   UNL     1       4.122  -8.082  -3.388  0.00  0.00    +0.000 A 
ATOM     26  C   UNL     1       3.530  -8.859  -4.380  0.00  0.00    +0.000 A 
ATOM     27  N   UNL     1       2.910  -8.400  -5.491  0.00  0.00    +0.000 NA
ATOM     28  C   UNL     1       2.876  -7.052  -5.609  0.00  0.00    +0.000 A 
ATOM     29  C   UNL     1       3.439  -6.207  -4.667  0.00  0.00    +0.000 A 
ATOM     30  N   UNL     1       3.203  -4.916  -5.091  0.00  0.00    +0.000 N 
ATOM     31  C   UNL     1       2.508  -4.921  -6.272  0.00  0.00    +0.000 A 
ATOM     32  C   UNL     1       2.289  -6.237  -6.608  0.00  0.00    +0.000 A 
ATOM     33  H   UNL     1       3.480  -4.099  -4.556  0.00  0.00    +0.000 HD
ENDBRANCH  21  24
ENDBRANCH   3  20
TORSDOF 6
