REMARK  Name = 
REMARK  6 active torsions:
REMARK  status: ('A' for Active; 'I' for Inactive)
REMARK    1  A    between atoms: C_2  and  O_3
REMARK    2  A    between atoms: C_2  and  C_17
REMARK    3  A    between atoms: O_3  and  C_4
REMARK    4  A    between atoms: C_4  and  C_5
REMARK    5  A    between atoms: C_8  and  C_9
REMARK    6  A    between atoms: C_22  and  C_23
REMARK                            x       y       z     vdW  Elec       q    Type
REMARK                         _______ _______ _______ _____ _____    ______ ____
ROOT
ATOM      1  O   UNL     1       0.968  -0.053  -0.405  0.00  0.00    +0.000 OA
ATOM      2  C   UNL     1       2.150  -0.035  -0.088  0.00  0.00    +0.000 C 
ENDROOT
BRANCH   2   3
ATOM      3  C   UNL     1       3.001   1.169  -0.255  0.00  0.00    +0.000 A 
ATOM      4  C   UNL     1       2.365   2.381   0.088  0.00  0.00    +0.000 A 
ATOM      5  C   UNL     1       3.025   3.601  -0.028  0.00  0.00    +0.000 A 
ATOM      6  C   UNL     1       4.333   3.624  -0.484  0.00  0.00    +0.000 A 
ATOM      7  C   UNL     1       4.963   2.432  -0.852  0.00  0.00    +0.000 A 
ATOM      8  C   UNL     1       4.322   1.170  -0.773  0.00  0.00    +0.000 A 
BRANCH   8   9
ATOM      9  C   UNL     1       5.039  -0.017  -1.316  0.00  0.00    +0.000 A 
ATOM     10  C   UNL     1       6.434  -0.161  -1.162  0.00  0.00    +0.000 A 
ATOM     11  C   UNL     1       7.139  -1.208  -1.768  0.00  0.00    +0.000 A 
ATOM     12  C   UNL     1       6.459  -2.164  -2.513  0.00  0.00    +0.000 A 
ATOM     13  C   UNL     1       5.080  -2.064  -2.663  0.00  0.00    +0.000 A 
ATOM     14  C   UNL     1       4.386  -0.992  -2.091  0.00  0.00    +0.000 A 
ENDBRANCH   8   9
ENDBRANCH   2   3
BRANCH   2  15
ATOM     15  O   UNL     1       2.818  -1.049   0.512  0.00  0.00    +0.000 OA
BRANCH  15  16
ATOM     16  C   UNL     1       2.057  -2.257   0.668  0.00  0.00    +0.000 C 
BRANCH  16  17
ATOM     17  C   UNL     1       1.418  -2.295   2.017  0.00  0.00    +0.000 A 
ATOM     18  C   UNL     1       0.053  -2.311   2.204  0.00  0.00    +0.000 A 
ATOM     19  N   UNL     1      -0.539  -2.313   3.417  0.00  0.00    +0.000 NA
ATOM     20  C   UNL     1       0.277  -2.290   4.488  0.00  0.00    +0.000 A 
ATOM     21  N   UNL     1       1.622  -2.298   4.414  0.00  0.00    +0.000 NA
ATOM     22  C   UNL     1       2.161  -2.298   3.178  0.00  0.00    +0.000 A 
BRANCH  20  23
ATOM     23  C   UNL     1      -0.327  -2.194   5.812  0.00  0.00    +0.000 A 
ATOM     24  C   UNL     1      -1.693  -2.118   6.026  0.00  0.00    +0.000 A 
ATOM     25  N   UNL     1      -2.281  -1.992   7.240  0.00  0.00    +0.000 NA
ATOM     26  C   UNL     1      -1.446  -1.941   8.286  0.00  0.00    +0.000 A 
ATOM     27  N   UNL     1      -0.110  -2.014   8.226  0.00  0.00    +0.000 NA
ATOM     28  C   UNL     1       0.413  -2.139   6.982  0.00  0.00    +0.000 A 
ENDBRANCH  20  23
ENDBRANCH  16  17
ENDBRANCH  15  16
ENDBRANCH   2  15
TORSDOF 6
