REMARK  Name = 
REMARK  6 active torsions:
REMARK  status: ('A' for Active; 'I' for Inactive)
REMARK    1  A    between atoms: C_2  and  C_19
REMARK    2  A    between atoms: N_3  and  C_4
REMARK    3  A    between atoms: C_6  and  C_7
REMARK    4  A    between atoms: C_15  and  C_16
REMARK    5  A    between atoms: C_16  and  O_18
REMARK    6  A    between atoms: C_26  and  O_27
REMARK                            x       y       z     vdW  Elec       q    Type
REMARK                         _______ _______ _______ _____ _____    ______ ____
ROOT
ATOM      1  O   UNL     1       2.310   1.764  -1.327  0.00  0.00    +0.000 OA
ATOM      2  C   UNL     1       2.790   0.842  -0.667  0.00  0.00    +0.000 C 
ATOM      3  N   UNL     1       2.861  -0.487  -1.078  0.00  0.00    +0.000 N 
ATOM      4  H   UNL     1       3.478  -1.111  -0.550  0.00  0.00    +0.000 HD
ENDROOT
BRANCH   2   5
ATOM      5  C   UNL     1       3.342   1.183   0.674  0.00  0.00    +0.000 A 
ATOM      6  C   UNL     1       3.059   2.444   1.192  0.00  0.00    +0.000 A 
ATOM      7  C   UNL     1       3.531   2.768   2.454  0.00  0.00    +0.000 A 
ATOM      8  C   UNL     1       4.281   1.831   3.165  0.00  0.00    +0.000 A 
ATOM      9  C   UNL     1       4.760   2.135   4.446  0.00  0.00    +0.000 A 
ATOM     10  C   UNL     1       5.516   1.188   5.113  0.00  0.00    +0.000 A 
ATOM     11  N   UNL     1       5.830  -0.010   4.589  0.00  0.00    +0.000 NA
ATOM     12  C   UNL     1       5.339  -0.262   3.352  0.00  0.00    +0.000 A 
ATOM     13  C   UNL     1       4.547   0.579   2.565  0.00  0.00    +0.000 A 
ATOM     14  N   UNL     1       4.070   0.250   1.329  0.00  0.00    +0.000 NA
BRANCH  12  15
ATOM     15  O   UNL     1       5.727  -1.484   2.891  0.00  0.00    +0.000 OA
ATOM     16  H   UNL     1       6.281  -1.780   3.633  0.00  0.00    +0.000 HD
ENDBRANCH  12  15
ENDBRANCH   2   5
BRANCH   3  17
ATOM     17  C   UNL     1       2.209  -0.989  -2.242  0.00  0.00    +0.000 A 
ATOM     18  C   UNL     1       1.119  -0.284  -2.782  0.00  0.00    +0.000 A 
ATOM     19  C   UNL     1       0.479  -0.631  -3.984  0.00  0.00    +0.000 A 
ATOM     20  C   UNL     1       0.917  -1.797  -4.617  0.00  0.00    +0.000 A 
ATOM     21  C   UNL     1       1.939  -2.577  -4.062  0.00  0.00    +0.000 A 
ATOM     22  C   UNL     1       2.600  -2.171  -2.887  0.00  0.00    +0.000 A 
BRANCH  19  23
ATOM     23  C   UNL     1      -0.600   0.228  -4.527  0.00  0.00    +0.000 A 
ATOM     24  C   UNL     1      -0.587   1.625  -4.335  0.00  0.00    +0.000 A 
ATOM     25  C   UNL     1      -1.600   2.446  -4.837  0.00  0.00    +0.000 A 
ATOM     26  C   UNL     1      -2.648   1.887  -5.559  0.00  0.00    +0.000 A 
ATOM     27  C   UNL     1      -2.690   0.511  -5.762  0.00  0.00    +0.000 A 
ATOM     28  C   UNL     1      -1.680  -0.309  -5.247  0.00  0.00    +0.000 A 
ENDBRANCH  19  23
BRANCH  22  29
ATOM     29  C   UNL     1       3.692  -3.015  -2.346  0.00  0.00    +0.000 C 
ATOM     30  O   UNL     1       3.883  -3.163  -1.151  0.00  0.00    +0.000 OA
BRANCH  29  31
ATOM     31  O   UNL     1       4.463  -3.591  -3.295  0.00  0.00    +0.000 OA
ATOM     32  H   UNL     1       4.335  -3.247  -4.199  0.00  0.00    +0.000 HD
ENDBRANCH  29  31
ENDBRANCH  22  29
ENDBRANCH   3  17
TORSDOF 6
