REMARK  Name = 
REMARK  6 active torsions:
REMARK  status: ('A' for Active; 'I' for Inactive)
REMARK    1  A    between atoms: C_2  and  C_3
REMARK    2  A    between atoms: C_3  and  C_4
REMARK    3  A    between atoms: C_9  and  O_10
REMARK    4  A    between atoms: O_10  and  C_11
REMARK    5  A    between atoms: N_17  and  C_18
REMARK    6  A    between atoms: C_21  and  C_22
REMARK                            x       y       z     vdW  Elec       q    Type
REMARK                         _______ _______ _______ _____ _____    ______ ____
ROOT
ATOM      1  O   UNL     1       2.042   0.453  -0.612  0.00  0.00    +0.000 OA
ATOM      2  C   UNL     1       2.548  -0.640  -0.375  0.00  0.00    +0.000 C 
ATOM      3  N   UNL     1       2.708  -1.689  -1.270  0.00  0.00    +0.000 N 
ATOM      4  H   UNL     1       2.944  -2.598  -0.888  0.00  0.00    +0.000 HD
ENDROOT
BRANCH   3   5
ATOM      5  C   UNL     1       2.472  -1.617  -2.654  0.00  0.00    +0.000 A 
ATOM      6  C   UNL     1       2.323  -0.400  -3.312  0.00  0.00    +0.000 A 
ATOM      7  C   UNL     1       2.104  -0.359  -4.684  0.00  0.00    +0.000 A 
ATOM      8  C   UNL     1       2.040  -1.534  -5.439  0.00  0.00    +0.000 A 
ATOM      9  C   UNL     1       2.185  -2.761  -4.779  0.00  0.00    +0.000 A 
ATOM     10  C   UNL     1       2.414  -2.802  -3.396  0.00  0.00    +0.000 A 
BRANCH   8  11
ATOM     11  C   UNL     1       1.804  -1.423  -6.874  0.00  0.00    +0.000 A 
ATOM     12  C   UNL     1       2.215  -0.439  -7.697  0.00  0.00    +0.000 A 
ATOM     13  N   UNL     1       1.710  -0.671  -8.946  0.00  0.00    +0.000 N 
ATOM     14  C   UNL     1       0.948  -1.842  -8.922  0.00  0.00    +0.000 A 
ATOM     15  O   UNL     1       0.323  -2.343  -9.840  0.00  0.00    +0.000 OA
ATOM     16  N   UNL     1       1.047  -2.303  -7.605  0.00  0.00    +0.000 N 
ATOM     17  H   UNL     1       1.813  -0.083  -9.758  0.00  0.00    +0.000 HD
ATOM     18  H   UNL     1       0.555  -3.111  -7.261  0.00  0.00    +0.000 HD
ENDBRANCH   8  11
ENDBRANCH   3   5
BRANCH   2  19
ATOM     19  C   UNL     1       3.066  -0.960   1.008  0.00  0.00    +0.000 C 
BRANCH  19  20
ATOM     20  C   UNL     1       1.988  -1.436   1.951  0.00  0.00    +0.000 A 
ATOM     21  C   UNL     1       0.886  -0.578   2.162  0.00  0.00    +0.000 A 
ATOM     22  C   UNL     1      -0.213  -0.973   2.923  0.00  0.00    +0.000 A 
ATOM     23  C   UNL     1      -0.227  -2.231   3.507  0.00  0.00    +0.000 A 
ATOM     24  C   UNL     1       0.874  -3.072   3.355  0.00  0.00    +0.000 A 
ATOM     25  C   UNL     1       1.996  -2.678   2.607  0.00  0.00    +0.000 A 
BRANCH  25  26
ATOM     26  O   UNL     1       2.942  -3.670   2.484  0.00  0.00    +0.000 OA
BRANCH  26  27
ATOM     27  C   UNL     1       4.290  -3.425   2.581  0.00  0.00    +0.000 A 
ATOM     28  C   UNL     1       4.887  -2.312   3.163  0.00  0.00    +0.000 A 
ATOM     29  C   UNL     1       6.262  -2.179   3.037  0.00  0.00    +0.000 A 
ATOM     30  N   UNL     1       7.058  -3.094   2.442  0.00  0.00    +0.000 NA
ATOM     31  C   UNL     1       6.459  -4.203   1.965  0.00  0.00    +0.000 A 
ATOM     32  C   UNL     1       5.093  -4.411   2.010  0.00  0.00    +0.000 A 
ENDBRANCH  26  27
ENDBRANCH  25  26
ENDBRANCH  19  20
ENDBRANCH   2  19
TORSDOF 6
