REMARK  Name = 
REMARK  4 active torsions:
REMARK  status: ('A' for Active; 'I' for Inactive)
REMARK    1  A    between atoms: C_2  and  C_17
REMARK    2  A    between atoms: N_3  and  C_4
REMARK    3  A    between atoms: C_4  and  C_5
REMARK    4  A    between atoms: C_4  and  C_11
REMARK                            x       y       z     vdW  Elec       q    Type
REMARK                         _______ _______ _______ _____ _____    ______ ____
ROOT
ATOM      1  O   UNL     1       2.242   0.153  -1.907  0.00  0.00    +0.000 OA
ATOM      2  C   UNL     1       2.971   0.077  -0.913  0.00  0.00    +0.000 C 
ATOM      3  N   UNL     1       3.190   1.176  -0.115  0.00  0.00    +0.000 N 
ATOM      4  H   UNL     1       3.914   1.174   0.600  0.00  0.00    +0.000 HD
ENDROOT
BRANCH   2   5
ATOM      5  C   UNL     1       3.513  -1.274  -0.534  0.00  0.00    +0.000 A 
ATOM      6  C   UNL     1       2.881  -2.334  -1.167  0.00  0.00    +0.000 A 
ATOM      7  C   UNL     1       3.150  -3.630  -0.768  0.00  0.00    +0.000 A 
ATOM      8  C   UNL     1       4.160  -3.842   0.156  0.00  0.00    +0.000 A 
ATOM      9  C   UNL     1       4.488  -5.167   0.458  0.00  0.00    +0.000 A 
ATOM     10  C   UNL     1       5.732  -5.422   0.991  0.00  0.00    +0.000 A 
ATOM     11  F   UNL     1       6.186  -6.684   1.006  0.00  0.00    +0.000 F 
ATOM     12  C   UNL     1       6.526  -4.369   1.411  0.00  0.00    +0.000 A 
ATOM     13  F   UNL     1       7.769  -4.614   1.855  0.00  0.00    +0.000 F 
ATOM     14  C   UNL     1       6.072  -3.044   1.325  0.00  0.00    +0.000 A 
ATOM     15  C   UNL     1       4.891  -2.730   0.646  0.00  0.00    +0.000 A 
ATOM     16  N   UNL     1       4.512  -1.440   0.383  0.00  0.00    +0.000 NA
ENDBRANCH   2   5
BRANCH   3  17
ATOM     17  C   UNL     1       2.467   2.429  -0.426  0.00  0.00    +0.000 C 
BRANCH  17  18
ATOM     18  C   UNL     1       1.637   2.908   0.759  0.00  0.00    +0.000 A 
ATOM     19  C   UNL     1       0.629   2.086   1.284  0.00  0.00    +0.000 A 
ATOM     20  C   UNL     1      -0.211   2.558   2.289  0.00  0.00    +0.000 A 
ATOM     21  C   UNL     1      -0.025   3.852   2.741  0.00  0.00    +0.000 A 
ATOM     22  N   UNL     1       0.929   4.678   2.268  0.00  0.00    +0.000 NA
ATOM     23  C   UNL     1       1.739   4.189   1.299  0.00  0.00    +0.000 A 
ENDBRANCH  17  18
BRANCH  17  24
ATOM     24  C   UNL     1       3.357   3.494  -1.073  0.00  0.00    +0.000 A 
ATOM     25  C   UNL     1       2.790   4.393  -1.994  0.00  0.00    +0.000 A 
ATOM     26  C   UNL     1       3.571   5.419  -2.504  0.00  0.00    +0.000 A 
ATOM     27  C   UNL     1       4.882   5.539  -2.066  0.00  0.00    +0.000 A 
ATOM     28  C   UNL     1       5.370   4.614  -1.154  0.00  0.00    +0.000 A 
ATOM     29  N   UNL     1       4.639   3.603  -0.638  0.00  0.00    +0.000 NA
ENDBRANCH  17  24
ENDBRANCH   3  17
TORSDOF 4
