REMARK  Name = 
REMARK  6 active torsions:
REMARK  status: ('A' for Active; 'I' for Inactive)
REMARK    1  A    between atoms: C_1  and  O_2
REMARK    2  A    between atoms: O_2  and  C_3
REMARK    3  A    between atoms: C_5  and  N_6
REMARK    4  A    between atoms: C_13  and  N_14
REMARK    5  A    between atoms: C_15  and  C_17
REMARK    6  A    between atoms: C_21  and  C_22
REMARK                            x       y       z     vdW  Elec       q    Type
REMARK                         _______ _______ _______ _____ _____    ______ ____
ROOT
ATOM      1  N   UNL     1       4.415  -1.323  -1.177  0.00  0.00    +0.000 N 
ATOM      2  C   UNL     1       5.302  -2.185  -1.821  0.00  0.00    +0.000 C 
ATOM      3  O   UNL     1       5.857  -1.946  -2.888  0.00  0.00    +0.000 OA
ATOM      4  H   UNL     1       3.916  -1.663  -0.361  0.00  0.00    +0.000 HD
ENDROOT
BRANCH   1  10
ATOM      5  C   UNL     1       3.110   0.761  -0.973  0.00  0.00    +0.000 A 
ATOM      6  C   UNL     1       2.834   2.071  -1.423  0.00  0.00    +0.000 A 
ATOM      7  C   UNL     1       3.493   2.617  -2.533  0.00  0.00    +0.000 A 
ATOM      8  C   UNL     1       4.472   1.862  -3.165  0.00  0.00    +0.000 A 
ATOM      9  C   UNL     1       4.784   0.589  -2.692  0.00  0.00    +0.000 A 
ATOM     10  C   UNL     1       4.107   0.000  -1.613  0.00  0.00    +0.000 A 
BRANCH   7  11
ATOM     11  N   UNL     1       3.168   3.913  -3.014  0.00  0.00    +0.000 N 
ATOM     12  C   UNL     1       3.651   4.524  -4.154  0.00  0.00    +0.000 A 
ATOM     13  C   UNL     1       3.051   5.760  -4.208  0.00  0.00    +0.000 A 
ATOM     14  N   UNL     1       2.208   5.938  -3.148  0.00  0.00    +0.000 NA
ATOM     15  C   UNL     1       2.294   4.824  -2.457  0.00  0.00    +0.000 A 
ENDBRANCH   7  11
BRANCH   5  17
ATOM     16  C   UNL     1       1.203   0.823   0.446  0.00  0.00    +0.000 C 
ATOM     17  O   UNL     1       2.436   0.187   0.084  0.00  0.00    +0.000 OA
ENDBRANCH   5  17
ENDBRANCH   1  10
BRANCH   2  18
ATOM     18  C   UNL     1       5.601  -3.462  -1.168  0.00  0.00    +0.000 A 
ATOM     19  N   UNL     1       4.701  -4.127  -0.426  0.00  0.00    +0.000 NA
ATOM     20  O   UNL     1       5.260  -5.378  -0.205  0.00  0.00    +0.000 OA
ATOM     21  C   UNL     1       6.499  -5.431  -0.754  0.00  0.00    +0.000 A 
ATOM     22  C   UNL     1       6.813  -4.221  -1.321  0.00  0.00    +0.000 A 
BRANCH  22  23
ATOM     23  C   UNL     1       8.103  -3.883  -1.920  0.00  0.00    +0.000 A 
ATOM     24  C   UNL     1       8.610  -2.575  -1.798  0.00  0.00    +0.000 A 
ATOM     25  C   UNL     1       9.849  -2.226  -2.348  0.00  0.00    +0.000 A 
ATOM     26  C   UNL     1      10.600  -3.186  -3.008  0.00  0.00    +0.000 A 
ATOM     27  F   UNL     1      11.791  -2.858  -3.520  0.00  0.00    +0.000 F 
ATOM     28  C   UNL     1      10.133  -4.485  -3.141  0.00  0.00    +0.000 A 
ATOM     29  C   UNL     1       8.890  -4.825  -2.600  0.00  0.00    +0.000 A 
ATOM     30  F   UNL     1       8.465  -6.089  -2.753  0.00  0.00    +0.000 F 
ENDBRANCH  22  23
ENDBRANCH   2  18
TORSDOF 5
