REMARK  Name = 
REMARK  5 active torsions:
REMARK  status: ('A' for Active; 'I' for Inactive)
REMARK    1  A    between atoms: C_1  and  C_2
REMARK    2  A    between atoms: C_6  and  C_7
REMARK    3  A    between atoms: C_13  and  C_15
REMARK    4  A    between atoms: N_17  and  C_18
REMARK    5  A    between atoms: C_18  and  C_19
REMARK                            x       y       z     vdW  Elec       q    Type
REMARK                         _______ _______ _______ _____ _____    ______ ____
ROOT
ATOM      1  C   UNL     1      -2.021   4.722  -1.013  0.00  0.00    +0.000 A 
ATOM      2  N   UNL     1      -1.416   3.517  -1.050  0.00  0.00    +0.000 NA
ATOM      3  C   UNL     1      -1.654   2.693  -0.020  0.00  0.00    +0.000 A 
ATOM      4  C   UNL     1      -2.463   3.023   1.042  0.00  0.00    +0.000 A 
ATOM      5  C   UNL     1      -3.048   4.273   0.998  0.00  0.00    +0.000 A 
ATOM      6  N   UNL     1      -3.897   4.641   2.059  0.00  0.00    +0.000 N 
ATOM      7  C   UNL     1      -4.571   5.846   2.150  0.00  0.00    +0.000 C 
ATOM      8  O   UNL     1      -4.442   6.810   1.400  0.00  0.00    +0.000 OA
ATOM      9  N   UNL     1      -2.841   5.115  -0.018  0.00  0.00    +0.000 NA
ATOM     10  H   UNL     1      -3.997   3.969   2.802  0.00  0.00    +0.000 HD
ENDROOT
BRANCH   1  16
ATOM     11  C   UNL     1       0.445   5.741  -5.063  0.00  0.00    +0.000 C 
ATOM     12  C   UNL     1      -0.566   6.199  -4.057  0.00  0.00    +0.000 A 
ATOM     13  C   UNL     1      -1.151   7.455  -4.143  0.00  0.00    +0.000 A 
ATOM     14  C   UNL     1      -2.074   7.828  -3.174  0.00  0.00    +0.000 A 
ATOM     15  C   UNL     1      -2.381   6.941  -2.147  0.00  0.00    +0.000 A 
ATOM     16  C   UNL     1      -1.757   5.691  -2.106  0.00  0.00    +0.000 A 
ATOM     17  N   UNL     1      -0.858   5.326  -3.065  0.00  0.00    +0.000 NA
ENDBRANCH   1  16
BRANCH   7  18
ATOM     18  C   UNL     1      -5.520   5.940   3.320  0.00  0.00    +0.000 A 
ATOM     19  C   UNL     1      -5.884   7.170   3.733  0.00  0.00    +0.000 A 
ATOM     20  N   UNL     1      -6.789   7.361   4.774  0.00  0.00    +0.000 N 
ATOM     21  C   UNL     1      -7.385   6.289   5.439  0.00  0.00    +0.000 A 
ATOM     22  O   UNL     1      -8.181   6.387   6.368  0.00  0.00    +0.000 OA
ATOM     23  C   UNL     1      -7.012   4.939   4.952  0.00  0.00    +0.000 A 
ATOM     24  C   UNL     1      -6.136   4.787   3.950  0.00  0.00    +0.000 A 
BRANCH  20  25
ATOM     25  C   UNL     1      -7.192   8.720   5.154  0.00  0.00    +0.000 C 
BRANCH  25  26
ATOM     26  C   UNL     1      -8.387   9.202   4.358  0.00  0.00    +0.000 A 
ATOM     27  C   UNL     1      -9.692   8.929   4.796  0.00  0.00    +0.000 A 
ATOM     28  C   UNL     1     -10.793   9.282   4.014  0.00  0.00    +0.000 A 
ATOM     29  C   UNL     1     -10.603   9.918   2.790  0.00  0.00    +0.000 A 
ATOM     30  C   UNL     1      -9.313  10.224   2.359  0.00  0.00    +0.000 A 
ATOM     31  C   UNL     1      -8.211   9.871   3.139  0.00  0.00    +0.000 A 
ENDBRANCH  25  26
ENDBRANCH  20  25
ENDBRANCH   7  18
TORSDOF 4
