REMARK  Name = 
REMARK  4 active torsions:
REMARK  status: ('A' for Active; 'I' for Inactive)
REMARK    1  A    between atoms: C_2  and  C_16
REMARK    2  A    between atoms: N_3  and  C_4
REMARK    3  A    between atoms: C_8  and  N_9
REMARK    4  A    between atoms: C_19  and  C_20
REMARK                            x       y       z     vdW  Elec       q    Type
REMARK                         _______ _______ _______ _____ _____    ______ ____
ROOT
ATOM      1  O   UNL     1       0.843  -0.008   0.163  0.00  0.00    +0.000 OA
ATOM      2  C   UNL     1       2.054  -0.071  -0.024  0.00  0.00    +0.000 C 
ATOM      3  N   UNL     1       2.750   0.627  -1.000  0.00  0.00    +0.000 N 
ATOM      4  H   UNL     1       3.724   0.365  -1.120  0.00  0.00    +0.000 HD
ENDROOT
BRANCH   3   5
ATOM      5  C   UNL     1       2.182   1.575  -1.883  0.00  0.00    +0.000 A 
ATOM      6  C   UNL     1       0.923   2.140  -1.662  0.00  0.00    +0.000 A 
ATOM      7  C   UNL     1       0.380   3.047  -2.565  0.00  0.00    +0.000 A 
ATOM      8  C   UNL     1       1.102   3.420  -3.692  0.00  0.00    +0.000 A 
ATOM      9  C   UNL     1       2.381   2.900  -3.935  0.00  0.00    +0.000 A 
ATOM     10  C   UNL     1       2.911   1.970  -3.015  0.00  0.00    +0.000 A 
BRANCH   9  11
ATOM     11  N   UNL     1       3.106   3.308  -5.076  0.00  0.00    +0.000 N 
ATOM     12  C   UNL     1       4.187   2.716  -5.630  0.00  0.00    +0.000 A 
ATOM     13  N   UNL     1       4.689   3.313  -6.667  0.00  0.00    +0.000 NA
ATOM     14  N   UNL     1       3.878   4.396  -6.832  0.00  0.00    +0.000 N 
ATOM     15  C   UNL     1       2.885   4.428  -5.855  0.00  0.00    +0.000 A 
ATOM     16  O   UNL     1       2.056   5.318  -5.751  0.00  0.00    +0.000 OA
ATOM     17  H   UNL     1       4.029   5.101  -7.541  0.00  0.00    +0.000 HD
ENDBRANCH   9  11
ENDBRANCH   3   5
BRANCH   2  18
ATOM     18  C   UNL     1       2.853  -0.970   0.803  0.00  0.00    +0.000 A 
ATOM     19  N   UNL     1       4.185  -1.114   0.714  0.00  0.00    +0.000 NA
ATOM     20  O   UNL     1       4.524  -2.034   1.708  0.00  0.00    +0.000 OA
ATOM     21  C   UNL     1       3.401  -2.429   2.376  0.00  0.00    +0.000 A 
ATOM     22  C   UNL     1       2.320  -1.795   1.819  0.00  0.00    +0.000 A 
BRANCH  21  23
ATOM     23  C   UNL     1       3.543  -3.354   3.490  0.00  0.00    +0.000 A 
ATOM     24  C   UNL     1       2.576  -3.386   4.506  0.00  0.00    +0.000 A 
ATOM     25  F   UNL     1       1.526  -2.551   4.474  0.00  0.00    +0.000 F 
ATOM     26  C   UNL     1       2.662  -4.269   5.579  0.00  0.00    +0.000 A 
ATOM     27  C   UNL     1       3.735  -5.143   5.643  0.00  0.00    +0.000 A 
ATOM     28  F   UNL     1       3.825  -5.997   6.668  0.00  0.00    +0.000 F 
ATOM     29  C   UNL     1       4.711  -5.146   4.656  0.00  0.00    +0.000 A 
ATOM     30  C   UNL     1       4.611  -4.252   3.590  0.00  0.00    +0.000 A 
ATOM     31  F   UNL     1       5.555  -4.303   2.639  0.00  0.00    +0.000 F 
ENDBRANCH  21  23
ENDBRANCH   2  18
TORSDOF 4
