REMARK  Name = 
REMARK  4 active torsions:
REMARK  status: ('A' for Active; 'I' for Inactive)
REMARK    1  A    between atoms: C_2  and  C_21
REMARK    2  A    between atoms: N_3  and  C_4
REMARK    3  A    between atoms: N_10  and  C_11
REMARK    4  A    between atoms: C_11  and  C_12
REMARK                            x       y       z     vdW  Elec       q    Type
REMARK                         _______ _______ _______ _____ _____    ______ ____
ROOT
ATOM      1  C   UNL     1       2.019   1.105   2.225  0.00  0.00    +0.000 A 
ATOM      2  C   UNL     1       0.891   0.486   2.761  0.00  0.00    +0.000 A 
ATOM      3  C   UNL     1       0.173   1.072   3.805  0.00  0.00    +0.000 A 
ATOM      4  C   UNL     1       0.571   2.322   4.308  0.00  0.00    +0.000 A 
ATOM      5  C   UNL     1       0.013   3.198   5.272  0.00  0.00    +0.000 A 
ATOM      6  C   UNL     1       0.792   4.327   5.309  0.00  0.00    +0.000 A 
ATOM      7  N   UNL     1       1.828   4.167   4.415  0.00  0.00    +0.000 N 
ATOM      8  C   UNL     1       1.722   2.930   3.794  0.00  0.00    +0.000 A 
ATOM      9  C   UNL     1       2.489   2.310   2.784  0.00  0.00    +0.000 A 
ENDROOT
BRANCH   1  12
ATOM     10  O   UNL     1       1.127  -0.906   0.255  0.00  0.00    +0.000 OA
ATOM     11  C   UNL     1       2.210  -0.329   0.195  0.00  0.00    +0.000 C 
ATOM     12  N   UNL     1       2.703   0.598   1.094  0.00  0.00    +0.000 N 
ATOM     13  H   UNL     1       3.571   1.070   0.868  0.00  0.00    +0.000 HD
BRANCH  11  14
ATOM     14  C   UNL     1       3.076  -0.639  -0.996  0.00  0.00    +0.000 A 
ATOM     15  C   UNL     1       4.193   0.017  -1.304  0.00  0.00    +0.000 A 
ATOM     16  F   UNL     1       4.688   1.038  -0.577  0.00  0.00    +0.000 F 
ATOM     17  C   UNL     1       4.942  -0.357  -2.520  0.00  0.00    +0.000 A 
ATOM     18  O   UNL     1       5.972   0.221  -2.854  0.00  0.00    +0.000 OA
ATOM     19  N   UNL     1       4.411  -1.385  -3.255  0.00  0.00    +0.000 N 
ATOM     20  C   UNL     1       3.255  -2.055  -2.955  0.00  0.00    +0.000 A 
ATOM     21  O   UNL     1       2.821  -2.954  -3.668  0.00  0.00    +0.000 OA
ATOM     22  N   UNL     1       2.625  -1.652  -1.816  0.00  0.00    +0.000 N 
ATOM     23  H   UNL     1       4.893  -1.656  -4.097  0.00  0.00    +0.000 HD
ATOM     24  H   UNL     1       1.750  -2.115  -1.568  0.00  0.00    +0.000 HD
ENDBRANCH  11  14
ENDBRANCH   1  12
BRANCH   7  25
ATOM     25  C   UNL     1       2.679   5.273   3.988  0.00  0.00    +0.000 C 
BRANCH  25  26
ATOM     26  C   UNL     1       3.879   5.516   4.860  0.00  0.00    +0.000 A 
ATOM     27  C   UNL     1       3.797   6.304   6.019  0.00  0.00    +0.000 A 
ATOM     28  C   UNL     1       4.955   6.656   6.722  0.00  0.00    +0.000 A 
ATOM     29  C   UNL     1       6.203   6.214   6.284  0.00  0.00    +0.000 A 
ATOM     30  C   UNL     1       6.291   5.394   5.161  0.00  0.00    +0.000 A 
ATOM     31  C   UNL     1       5.135   5.048   4.466  0.00  0.00    +0.000 A 
ATOM     32  F   UNL     1       5.249   4.291   3.365  0.00  0.00    +0.000 F 
ENDBRANCH  25  26
ENDBRANCH   7  25
TORSDOF 4
