REMARK  Name = 
REMARK  5 active torsions:
REMARK  status: ('A' for Active; 'I' for Inactive)
REMARK    1  A    between atoms: C_2  and  C_18
REMARK    2  A    between atoms: N_3  and  C_4
REMARK    3  A    between atoms: C_7  and  O_8
REMARK    4  A    between atoms: O_8  and  C_9
REMARK    5  A    between atoms: C_21  and  O_22
REMARK                            x       y       z     vdW  Elec       q    Type
REMARK                         _______ _______ _______ _____ _____    ______ ____
ROOT
ATOM      1  O   UNL     1       1.083  -0.480   0.495  0.00  0.00    +0.000 OA
ATOM      2  C   UNL     1       2.187  -0.158   0.077  0.00  0.00    +0.000 C 
ATOM      3  N   UNL     1       2.745   1.106   0.171  0.00  0.00    +0.000 N 
ATOM      4  H   UNL     1       3.603   1.298  -0.332  0.00  0.00    +0.000 HD
ENDROOT
BRANCH   2   5
ATOM      5  C   UNL     1       3.003  -1.203  -0.595  0.00  0.00    +0.000 A 
ATOM      6  C   UNL     1       4.382  -1.236  -0.382  0.00  0.00    +0.000 A 
ATOM      7  N   UNL     1       5.202  -2.203  -0.849  0.00  0.00    +0.000 NA
ATOM      8  C   UNL     1       4.604  -3.206  -1.513  0.00  0.00    +0.000 A 
ATOM      9  C   UNL     1       3.237  -3.312  -1.782  0.00  0.00    +0.000 A 
ATOM     10  C   UNL     1       2.673  -4.413  -2.452  0.00  0.00    +0.000 A 
ATOM     11  C   UNL     1       1.312  -4.429  -2.685  0.00  0.00    +0.000 A 
ATOM     12  N   UNL     1       0.491  -3.426  -2.329  0.00  0.00    +0.000 NA
ATOM     13  C   UNL     1       1.047  -2.381  -1.668  0.00  0.00    +0.000 A 
ATOM     14  C   UNL     1       2.411  -2.263  -1.336  0.00  0.00    +0.000 A 
BRANCH   8  15
ATOM     15  O   UNL     1       5.477  -4.163  -1.915  0.00  0.00    +0.000 OA
ATOM     16  H   UNL     1       6.312  -3.801  -1.565  0.00  0.00    +0.000 HD
ENDBRANCH   8  15
ENDBRANCH   2   5
BRANCH   3  17
ATOM     17  C   UNL     1       2.136   2.223   0.793  0.00  0.00    +0.000 A 
ATOM     18  C   UNL     1       0.987   2.161   1.583  0.00  0.00    +0.000 A 
ATOM     19  C   UNL     1       0.451   3.325   2.137  0.00  0.00    +0.000 A 
ATOM     20  C   UNL     1       1.101   4.522   1.897  0.00  0.00    +0.000 A 
ATOM     21  N   UNL     1       2.209   4.627   1.129  0.00  0.00    +0.000 NA
ATOM     22  C   UNL     1       2.706   3.481   0.614  0.00  0.00    +0.000 A 
BRANCH  20  23
ATOM     23  O   UNL     1       0.584   5.655   2.514  0.00  0.00    +0.000 OA
BRANCH  23  24
ATOM     24  C   UNL     1       1.482   6.647   2.834  0.00  0.00    +0.000 A 
ATOM     25  C   UNL     1       2.752   6.377   3.355  0.00  0.00    +0.000 A 
ATOM     26  C   UNL     1       3.640   7.421   3.618  0.00  0.00    +0.000 A 
ATOM     27  C   UNL     1       3.243   8.742   3.419  0.00  0.00    +0.000 A 
ATOM     28  C   UNL     1       1.955   9.019   2.963  0.00  0.00    +0.000 A 
ATOM     29  C   UNL     1       1.080   7.972   2.673  0.00  0.00    +0.000 A 
ATOM     30  F   UNL     1      -0.153   8.258   2.232  0.00  0.00    +0.000 F 
ENDBRANCH  23  24
ENDBRANCH  20  23
ENDBRANCH   3  17
TORSDOF 5
