REMARK  Name = 
REMARK  7 active torsions:
REMARK  status: ('A' for Active; 'I' for Inactive)
REMARK    1  A    between atoms: C_2  and  C_20
REMARK    2  A    between atoms: N_3  and  CA_4
REMARK    3  A    between atoms: CA_4  and  C_5
REMARK    4  A    between atoms: CA_4  and  C_8
REMARK    5  A    between atoms: C_5  and  OXT_7
REMARK    6  A    between atoms: C_12  and  C_13
REMARK    7  A    between atoms: C_23  and  C_24
REMARK                            x       y       z     vdW  Elec       q    Type
REMARK                         _______ _______ _______ _____ _____    ______ ____
ROOT
ATOM      1  CA  UNL     1       2.224  -1.574  -1.825  0.00  0.00    +0.000 C 
ENDROOT
BRANCH   1   2
ATOM      2  C   UNL     1       3.273  -2.378  -2.569  0.00  0.00    +0.000 A 
ATOM      3  C   UNL     1       4.202  -1.762  -3.418  0.00  0.00    +0.000 A 
ATOM      4  C   UNL     1       5.121  -2.532  -4.125  0.00  0.00    +0.000 A 
ATOM      5  C   UNL     1       5.130  -3.922  -3.985  0.00  0.00    +0.000 A 
ATOM      6  C   UNL     1       4.241  -4.583  -3.119  0.00  0.00    +0.000 A 
ATOM      7  C   UNL     1       3.313  -3.782  -2.425  0.00  0.00    +0.000 A 
BRANCH   6   8
ATOM      8  C   UNL     1       4.308  -6.053  -2.930  0.00  0.00    +0.000 A 
ATOM      9  C   UNL     1       5.539  -6.726  -2.942  0.00  0.00    +0.000 A 
ATOM     10  C   UNL     1       5.576  -8.100  -2.752  0.00  0.00    +0.000 A 
ATOM     11  N   UNL     1       4.481  -8.858  -2.546  0.00  0.00    +0.000 NA
ATOM     12  C   UNL     1       3.302  -8.207  -2.529  0.00  0.00    +0.000 A 
ATOM     13  C   UNL     1       3.165  -6.836  -2.717  0.00  0.00    +0.000 A 
ENDBRANCH   6   8
ENDBRANCH   1   2
BRANCH   1  16
ATOM     14  O   UNL     1       2.904  -2.119   0.839  0.00  0.00    +0.000 OA
ATOM     15  C   UNL     1       3.195  -1.018   0.384  0.00  0.00    +0.000 C 
ATOM     16  N   UNL     1       2.835  -0.609  -0.888  0.00  0.00    +0.000 N 
ATOM     17  H   UNL     1       3.385   0.132  -1.311  0.00  0.00    +0.000 HD
BRANCH  15  18
ATOM     18  C   UNL     1       3.990  -0.071   1.198  0.00  0.00    +0.000 A 
ATOM     19  C   UNL     1       4.928  -0.554   2.110  0.00  0.00    +0.000 A 
ATOM     20  C   UNL     1       5.679   0.347   2.867  0.00  0.00    +0.000 A 
ATOM     21  C   UNL     1       5.469   1.713   2.697  0.00  0.00    +0.000 A 
ATOM     22  N   UNL     1       4.533   2.203   1.842  0.00  0.00    +0.000 NA
ATOM     23  C   UNL     1       3.814   1.303   1.124  0.00  0.00    +0.000 A 
BRANCH  21  24
ATOM     24  C   UNL     1       6.275   2.721   3.376  0.00  0.00    +0.000 A 
ATOM     25  C   UNL     1       6.236   4.101   3.438  0.00  0.00    +0.000 A 
ATOM     26  C   UNL     1       7.356   4.510   4.203  0.00  0.00    +0.000 A 
ATOM     27  C   UNL     1       8.003   3.356   4.576  0.00  0.00    +0.000 A 
ATOM     28  O   UNL     1       7.354   2.268   4.088  0.00  0.00    +0.000 OA
ENDBRANCH  21  24
ENDBRANCH  15  18
ENDBRANCH   1  16
BRANCH   1  29
ATOM     29  C   UNL     1       1.243  -0.843  -2.768  0.00  0.00    +0.000 C 
ATOM     30  O   UNL     1       0.854  -1.245  -3.854  0.00  0.00    +0.000 OA
BRANCH  29  31
ATOM     31  OXT UNL     1       0.746   0.297  -2.210  0.00  0.00    +0.000 OA
ATOM     32  HXT UNL     1       1.064   0.383  -1.288  0.00  0.00    +0.000 HD
ENDBRANCH  29  31
ENDBRANCH   1  29
TORSDOF 7
