REMARK  Name = 
REMARK  7 active torsions:
REMARK  status: ('A' for Active; 'I' for Inactive)
REMARK    1  A    between atoms: C_1  and  O_2
REMARK    2  A    between atoms: O_2  and  C_3
REMARK    3  A    between atoms: C_7  and  C_8
REMARK    4  A    between atoms: N_10  and  C_11
REMARK    5  A    between atoms: C_14  and  N_15
REMARK    6  A    between atoms: C_16  and  C_18
REMARK    7  A    between atoms: C_20  and  O_21
REMARK                            x       y       z     vdW  Elec       q    Type
REMARK                         _______ _______ _______ _____ _____    ______ ____
ROOT
ATOM      1  C   UNL     1       4.197  -7.326  -2.892  0.00  0.00    +0.000 A 
ATOM      2  C   UNL     1       4.165  -8.599  -2.326  0.00  0.00    +0.000 A 
ATOM      3  C   UNL     1       4.024  -9.731  -3.135  0.00  0.00    +0.000 A 
ATOM      4  C   UNL     1       3.904  -9.569  -4.508  0.00  0.00    +0.000 A 
ATOM      5  N   UNL     1       3.870  -8.350  -5.070  0.00  0.00    +0.000 NA
ATOM      6  C   UNL     1       4.010  -7.266  -4.265  0.00  0.00    +0.000 A 
ENDROOT
BRANCH   1   9
ATOM      7  C   UNL     1       4.964  -6.089  -0.882  0.00  0.00    +0.000 C 
ATOM      8  O   UNL     1       5.345  -7.070  -0.251  0.00  0.00    +0.000 OA
ATOM      9  N   UNL     1       4.423  -6.137  -2.156  0.00  0.00    +0.000 N 
ATOM     10  H   UNL     1       4.372  -5.259  -2.657  0.00  0.00    +0.000 HD
BRANCH   7  15
ATOM     11  C   UNL     1       3.322  -0.948  -0.129  0.00  0.00    +0.000 A 
ATOM     12  C   UNL     1       2.705  -1.867  -0.974  0.00  0.00    +0.000 A 
ATOM     13  C   UNL     1       3.224  -3.163  -1.135  0.00  0.00    +0.000 A 
ATOM     14  C   UNL     1       4.396  -3.543  -0.446  0.00  0.00    +0.000 A 
ATOM     15  C   UNL     1       5.159  -4.752  -0.324  0.00  0.00    +0.000 A 
ATOM     16  C   UNL     1       6.188  -4.477   0.564  0.00  0.00    +0.000 A 
ATOM     17  N   UNL     1       6.091  -3.178   0.966  0.00  0.00    +0.000 N 
ATOM     18  C   UNL     1       4.998  -2.588   0.381  0.00  0.00    +0.000 A 
ATOM     19  C   UNL     1       4.495  -1.292   0.547  0.00  0.00    +0.000 A 
ATOM     20  H   UNL     1       6.705  -2.725   1.629  0.00  0.00    +0.000 HD
BRANCH  11  22
ATOM     21  C   UNL     1       1.483   0.533  -0.032  0.00  0.00    +0.000 C 
ATOM     22  O   UNL     1       2.887   0.333   0.089  0.00  0.00    +0.000 OA
ENDBRANCH  11  22
ENDBRANCH   7  15
ENDBRANCH   1   9
BRANCH   4  23
ATOM     23  N   UNL     1       3.853 -10.730  -5.300  0.00  0.00    +0.000 N 
ATOM     24  C   UNL     1       3.738 -10.730  -6.677  0.00  0.00    +0.000 C 
ATOM     25  O   UNL     1       3.522  -9.766  -7.400  0.00  0.00    +0.000 OA
ATOM     26  H   UNL     1       3.904 -11.614  -4.816  0.00  0.00    +0.000 HD
BRANCH  24  27
ATOM     27  C   UNL     1       3.875 -12.059  -7.342  0.00  0.00    +0.000 A 
ATOM     28  C   UNL     1       3.190 -12.255  -8.551  0.00  0.00    +0.000 A 
ATOM     29  C   UNL     1       3.364 -13.439  -9.258  0.00  0.00    +0.000 A 
ATOM     30  C   UNL     1       4.206 -14.435  -8.780  0.00  0.00    +0.000 A 
ATOM     31  C   UNL     1       4.889 -14.248  -7.578  0.00  0.00    +0.000 A 
ATOM     32  C   UNL     1       4.728 -13.061  -6.857  0.00  0.00    +0.000 A 
BRANCH  29  33
ATOM     33  O   UNL     1       2.733 -13.654 -10.448  0.00  0.00    +0.000 OA
ATOM     34  H   UNL     1       2.256 -12.844 -10.697  0.00  0.00    +0.000 HD
ENDBRANCH  29  33
ENDBRANCH  24  27
ENDBRANCH   4  23
TORSDOF 6
