REMARK  Name = 
REMARK  6 active torsions:
REMARK  status: ('A' for Active; 'I' for Inactive)
REMARK    1  A    between atoms: C_1  and  O_2
REMARK    2  A    between atoms: O_2  and  C_3
REMARK    3  A    between atoms: C_7  and  C_8
REMARK    4  A    between atoms: C_11  and  C_12
REMARK    5  A    between atoms: C_12  and  N_13
REMARK    6  A    between atoms: C_14  and  C_16
REMARK                            x       y       z     vdW  Elec       q    Type
REMARK                         _______ _______ _______ _____ _____    ______ ____
ROOT
ATOM      1  N   UNL     1      11.112   0.746  -3.178  0.00  0.00    +0.000 N 
ATOM      2  C   UNL     1      12.335   0.365  -3.675  0.00  0.00    +0.000 C 
ATOM      3  O   UNL     1      13.082   1.091  -4.299  0.00  0.00    +0.000 OA
ATOM      4  H   UNL     1      10.662   0.186  -2.464  0.00  0.00    +0.000 HD
ENDROOT
BRANCH   2   5
ATOM      5  C   UNL     1      12.746  -1.032  -3.336  0.00  0.00    +0.000 A 
ATOM      6  C   UNL     1      11.757  -1.997  -3.060  0.00  0.00    +0.000 A 
ATOM      7  C   UNL     1      12.117  -3.269  -2.638  0.00  0.00    +0.000 A 
ATOM      8  C   UNL     1      13.466  -3.597  -2.603  0.00  0.00    +0.000 A 
ATOM      9  C   UNL     1      13.890  -4.946  -2.231  0.00  0.00    +0.000 A 
ATOM     10  O   UNL     1      13.291  -5.583  -1.396  0.00  0.00    +0.000 OA
ATOM     11  N   UNL     1      14.931  -5.402  -2.998  0.00  0.00    +0.000 N 
ATOM     12  N   UNL     1      15.925  -4.581  -3.507  0.00  0.00    +0.000 NA
ATOM     13  C   UNL     1      15.723  -3.304  -3.414  0.00  0.00    +0.000 A 
ATOM     14  C   UNL     1      14.432  -2.716  -3.055  0.00  0.00    +0.000 A 
ATOM     15  C   UNL     1      14.102  -1.397  -3.357  0.00  0.00    +0.000 A 
ATOM     16  H   UNL     1      14.724  -6.203  -3.567  0.00  0.00    +0.000 HD
ENDBRANCH   2   5
BRANCH   1  17
ATOM     17  C   UNL     1      10.558   2.056  -3.411  0.00  0.00    +0.000 C 
BRANCH  17  21
ATOM     18  C   UNL     1       6.489   2.218  -1.846  0.00  0.00    +0.000 A 
ATOM     19  C   UNL     1       7.605   2.502  -1.043  0.00  0.00    +0.000 A 
ATOM     20  C   UNL     1       8.909   2.463  -1.553  0.00  0.00    +0.000 A 
ATOM     21  C   UNL     1       9.141   2.127  -2.888  0.00  0.00    +0.000 A 
ATOM     22  C   UNL     1       8.046   1.805  -3.694  0.00  0.00    +0.000 A 
ATOM     23  C   UNL     1       6.735   1.863  -3.184  0.00  0.00    +0.000 A 
BRANCH  18  28
ATOM     24  C   UNL     1       2.876   1.293  -0.973  0.00  0.00    +0.000 A 
ATOM     25  C   UNL     1       2.597   2.211   0.036  0.00  0.00    +0.000 A 
ATOM     26  C   UNL     1       3.544   3.172   0.379  0.00  0.00    +0.000 A 
ATOM     27  C   UNL     1       4.781   3.198  -0.271  0.00  0.00    +0.000 A 
ATOM     28  C   UNL     1       5.118   2.260  -1.263  0.00  0.00    +0.000 A 
ATOM     29  C   UNL     1       4.121   1.331  -1.623  0.00  0.00    +0.000 A 
BRANCH  24  31
ATOM     30  C   UNL     1       0.840   0.111  -0.649  0.00  0.00    +0.000 C 
ATOM     31  O   UNL     1       2.030   0.305  -1.405  0.00  0.00    +0.000 OA
ENDBRANCH  24  31
ENDBRANCH  18  28
ENDBRANCH  17  21
ENDBRANCH   1  17
TORSDOF 5
