REMARK  Name = 
REMARK  7 active torsions:
REMARK  status: ('A' for Active; 'I' for Inactive)
REMARK    1  A    between atoms: C_2  and  C_4
REMARK    2  A    between atoms: C_7  and  C_8
REMARK    3  A    between atoms: C_8  and  O_9
REMARK    4  A    between atoms: O_9  and  C_10
REMARK    5  A    between atoms: C_10  and  C_12
REMARK    6  A    between atoms: C_13  and  C_14
REMARK    7  A    between atoms: N_18  and  C_19
REMARK                            x       y       z     vdW  Elec       q    Type
REMARK                         _______ _______ _______ _____ _____    ______ ____
ROOT
ATOM      1  C   UNL     1       7.044  -4.842  -4.106  0.00  0.00    +0.000 C 
ATOM      2  O   UNL     1       7.081  -4.786  -5.327  0.00  0.00    +0.000 OA
ENDROOT
BRANCH   1   3
ATOM      3  C   UNL     1       7.807  -5.812  -3.328  0.00  0.00    +0.000 A 
ATOM      4  C   UNL     1       8.590  -6.861  -3.784  0.00  0.00    +0.000 A 
ATOM      5  N   UNL     1       9.074  -7.466  -2.641  0.00  0.00    +0.000 N 
ATOM      6  N   UNL     1       8.505  -6.885  -1.555  0.00  0.00    +0.000 NA
ATOM      7  N   UNL     1       7.787  -5.846  -1.957  0.00  0.00    +0.000 NA
BRANCH   5   8
ATOM      8  C   UNL     1       9.958  -8.567  -2.480  0.00  0.00    +0.000 A 
ATOM      9  C   UNL     1      10.988  -8.816  -3.398  0.00  0.00    +0.000 A 
ATOM     10  C   UNL     1      11.738  -9.993  -3.321  0.00  0.00    +0.000 A 
ATOM     11  C   UNL     1      11.489 -10.908  -2.306  0.00  0.00    +0.000 A 
ATOM     12  C   UNL     1      10.527 -10.616  -1.344  0.00  0.00    +0.000 A 
ATOM     13  F   UNL     1      10.307 -11.492  -0.356  0.00  0.00    +0.000 F 
ATOM     14  C   UNL     1       9.770  -9.450  -1.406  0.00  0.00    +0.000 A 
ENDBRANCH   5   8
BRANCH   4  15
ATOM     15  C   UNL     1       8.797  -7.406  -5.127  0.00  0.00    +0.000 C 
ATOM     16  F   UNL     1       7.935  -6.938  -6.057  0.00  0.00    +0.000 F 
ATOM     17  F   UNL     1      10.040  -7.139  -5.595  0.00  0.00    +0.000 F 
ATOM     18  F   UNL     1       8.642  -8.755  -5.141  0.00  0.00    +0.000 F 
ENDBRANCH   4  15
ENDBRANCH   1   3
BRANCH   1  19
ATOM     19  O   UNL     1       6.300  -4.012  -3.328  0.00  0.00    +0.000 OA
BRANCH  19  20
ATOM     20  C   UNL     1       5.429  -3.101  -4.016  0.00  0.00    +0.000 C 
BRANCH  20  24
ATOM     21  C   UNL     1       1.354  -3.538  -2.654  0.00  0.00    +0.000 A 
ATOM     22  C   UNL     1       2.410  -3.850  -1.792  0.00  0.00    +0.000 A 
ATOM     23  C   UNL     1       3.732  -3.715  -2.224  0.00  0.00    +0.000 A 
ATOM     24  C   UNL     1       4.013  -3.285  -3.529  0.00  0.00    +0.000 A 
ATOM     25  C   UNL     1       2.943  -2.980  -4.376  0.00  0.00    +0.000 A 
ATOM     26  F   UNL     1       3.184  -2.543  -5.620  0.00  0.00    +0.000 F 
ATOM     27  C   UNL     1       1.625  -3.112  -3.957  0.00  0.00    +0.000 A 
BRANCH  21  29
ATOM     28  N   UNL     1      -0.334  -3.509  -0.899  0.00  0.00    +0.000 N 
ATOM     29  C   UNL     1      -0.064  -3.656  -2.225  0.00  0.00    +0.000 C 
ATOM     30  O   UNL     1      -0.957  -3.834  -3.039  0.00  0.00    +0.000 OA
ATOM     31  H   UNL     1      -1.313  -3.478  -0.643  0.00  0.00    +0.000 HD
ATOM     32  H   UNL     1       0.330  -3.114  -0.247  0.00  0.00    +0.000 HD
ENDBRANCH  21  29
ENDBRANCH  20  24
ENDBRANCH  19  20
ENDBRANCH   1  19
TORSDOF 7
