REMARK  Name = 
REMARK  9 active torsions:
REMARK  status: ('A' for Active; 'I' for Inactive)
REMARK    1  A    between atoms: C_1  and  N_2
REMARK    2  A    between atoms: N_2  and  C_3
REMARK    3  A    between atoms: C_3  and  C_4
REMARK    4  A    between atoms: C_8  and  O_9
REMARK    5  A    between atoms: O_9  and  C_10
REMARK    6  A    between atoms: C_14  and  C_16
REMARK    7  A    between atoms: C_21  and  O_22
REMARK    8  A    between atoms: O_22  and  C_23
REMARK    9  A    between atoms: C_28  and  C_29
REMARK                            x       y       z     vdW  Elec       q    Type
REMARK                         _______ _______ _______ _____ _____    ______ ____
ROOT
ATOM      1  C   UNL     1       4.631  -1.223   0.101  0.00  0.00    +0.000 A 
ATOM      2  C   UNL     1       5.379  -2.063   0.952  0.00  0.00    +0.000 A 
ATOM      3  C   UNL     1       6.750  -2.215   0.775  0.00  0.00    +0.000 A 
ATOM      4  C   UNL     1       7.348  -1.492  -0.236  0.00  0.00    +0.000 A 
ATOM      5  N   UNL     1       6.669  -0.694  -1.091  0.00  0.00    +0.000 NA
ATOM      6  C   UNL     1       5.311  -0.619  -0.953  0.00  0.00    +0.000 A 
ENDROOT
BRANCH   1   9
ATOM      7  C   UNL     1       0.969  -0.206   0.620  0.00  0.00    +0.000 C 
ATOM      8  N   UNL     1       2.397  -0.043   0.381  0.00  0.00    +0.000 N 
ATOM      9  C   UNL     1       3.169  -1.208   0.345  0.00  0.00    +0.000 C 
ATOM     10  O   UNL     1       2.677  -2.309   0.619  0.00  0.00    +0.000 OA
BRANCH   8  11
ATOM     11  C   UNL     1       2.803   1.310   0.001  0.00  0.00    +0.000 C 
BRANCH  11  12
ATOM     12  C   UNL     1       3.962   1.913   0.746  0.00  0.00    +0.000 A 
ATOM     13  C   UNL     1       4.982   2.582   0.050  0.00  0.00    +0.000 A 
ATOM     14  C   UNL     1       6.070   3.138   0.718  0.00  0.00    +0.000 A 
ATOM     15  C   UNL     1       6.115   3.097   2.105  0.00  0.00    +0.000 A 
ATOM     16  C   UNL     1       5.049   2.542   2.816  0.00  0.00    +0.000 A 
ATOM     17  C   UNL     1       4.002   1.911   2.141  0.00  0.00    +0.000 A 
BRANCH  16  18
ATOM     18  O   UNL     1       4.944   2.575   4.179  0.00  0.00    +0.000 OA
BRANCH  18  19
ATOM     19  C   UNL     1       5.448   3.771   4.751  0.00  0.00    +0.000 C 
ATOM     20  F   UNL     1       4.715   4.034   5.862  0.00  0.00    +0.000 F 
ATOM     21  F   UNL     1       6.721   3.543   5.163  0.00  0.00    +0.000 F 
ENDBRANCH  18  19
ENDBRANCH  16  18
ENDBRANCH  11  12
ENDBRANCH   8  11
ENDBRANCH   1   9
BRANCH   6  22
ATOM     22  O   UNL     1       4.589   0.060  -1.936  0.00  0.00    +0.000 OA
BRANCH  22  23
ATOM     23  C   UNL     1       5.134   0.212  -3.199  0.00  0.00    +0.000 A 
ATOM     24  C   UNL     1       5.827  -0.850  -3.795  0.00  0.00    +0.000 A 
ATOM     25  C   UNL     1       6.408  -0.714  -5.056  0.00  0.00    +0.000 A 
ATOM     26  C   UNL     1       6.264   0.474  -5.758  0.00  0.00    +0.000 A 
ATOM     27  C   UNL     1       5.526   1.520  -5.213  0.00  0.00    +0.000 A 
ATOM     28  C   UNL     1       4.943   1.400  -3.933  0.00  0.00    +0.000 A 
BRANCH  28  29
ATOM     29  C   UNL     1       4.079   2.530  -3.491  0.00  0.00    +0.000 C 
ATOM     30  N   UNL     1       4.517   3.802  -3.756  0.00  0.00    +0.000 N 
ATOM     31  O   UNL     1       2.999   2.367  -2.945  0.00  0.00    +0.000 OA
ATOM     32  H   UNL     1       5.388   4.024  -4.216  0.00  0.00    +0.000 HD
ATOM     33  H   UNL     1       3.909   4.565  -3.485  0.00  0.00    +0.000 HD
ENDBRANCH  28  29
ENDBRANCH  22  23
ENDBRANCH   6  22
TORSDOF 8
