REMARK  Name = 
REMARK  6 active torsions:
REMARK  status: ('A' for Active; 'I' for Inactive)
REMARK    1  A    between atoms: C_2  and  C_18
REMARK    2  A    between atoms: N_3  and  C_4
REMARK    3  A    between atoms: C_7  and  O_8
REMARK    4  A    between atoms: O_8  and  C_9
REMARK    5  A    between atoms: C_23  and  C_24
REMARK    6  A    between atoms: C_24  and  C_25
REMARK                            x       y       z     vdW  Elec       q    Type
REMARK                         _______ _______ _______ _____ _____    ______ ____
ROOT
ATOM      1  O   UNL     1       0.967   0.137   0.177  0.00  0.00    +0.000 OA
ATOM      2  C   UNL     1       2.118  -0.276   0.197  0.00  0.00    +0.000 C 
ATOM      3  N   UNL     1       2.636  -1.220  -0.670  0.00  0.00    +0.000 N 
ATOM      4  H   UNL     1       3.522  -1.646  -0.420  0.00  0.00    +0.000 HD
ENDROOT
BRANCH   3   5
ATOM      5  C   UNL     1       1.960  -1.783  -1.774  0.00  0.00    +0.000 A 
ATOM      6  C   UNL     1       0.812  -1.243  -2.354  0.00  0.00    +0.000 A 
ATOM      7  C   UNL     1       0.209  -1.887  -3.436  0.00  0.00    +0.000 A 
ATOM      8  C   UNL     1       0.789  -3.050  -3.914  0.00  0.00    +0.000 A 
ATOM      9  N   UNL     1       1.895  -3.609  -3.372  0.00  0.00    +0.000 NA
ATOM     10  C   UNL     1       2.462  -2.953  -2.337  0.00  0.00    +0.000 A 
BRANCH   8  11
ATOM     11  O   UNL     1       0.179  -3.657  -5.004  0.00  0.00    +0.000 OA
BRANCH  11  12
ATOM     12  C   UNL     1       0.987  -4.362  -5.870  0.00  0.00    +0.000 A 
ATOM     13  C   UNL     1       2.276  -3.953  -6.221  0.00  0.00    +0.000 A 
ATOM     14  C   UNL     1       3.023  -4.723  -7.101  0.00  0.00    +0.000 A 
ATOM     15  F   UNL     1       4.276  -4.353  -7.397  0.00  0.00    +0.000 F 
ATOM     16  C   UNL     1       2.495  -5.876  -7.669  0.00  0.00    +0.000 A 
ATOM     17  C   UNL     1       1.194  -6.264  -7.356  0.00  0.00    +0.000 A 
ATOM     18  C   UNL     1       0.438  -5.505  -6.458  0.00  0.00    +0.000 A 
ENDBRANCH  11  12
ENDBRANCH   8  11
ENDBRANCH   3   5
BRANCH   2  19
ATOM     19  C   UNL     1       3.047   0.190   1.271  0.00  0.00    +0.000 A 
ATOM     20  C   UNL     1       4.406   0.376   0.949  0.00  0.00    +0.000 A 
ATOM     21  C   UNL     1       5.312   0.824   1.911  0.00  0.00    +0.000 A 
ATOM     22  C   UNL     1       4.870   1.111   3.196  0.00  0.00    +0.000 A 
ATOM     23  C   UNL     1       3.526   0.940   3.525  0.00  0.00    +0.000 A 
ATOM     24  C   UNL     1       2.591   0.479   2.576  0.00  0.00    +0.000 A 
BRANCH  24  25
ATOM     25  C   UNL     1       1.169   0.259   3.056  0.00  0.00    +0.000 C 
BRANCH  25  26
ATOM     26  C   UNL     1       0.947  -1.117   3.578  0.00  0.00    +0.000 A 
ATOM     27  N   UNL     1       1.167  -1.566   4.798  0.00  0.00    +0.000 NA
ATOM     28  C   UNL     1       0.770  -2.870   4.727  0.00  0.00    +0.000 A 
ATOM     29  N   UNL     1       0.323  -3.264   3.532  0.00  0.00    +0.000 NA
ATOM     30  N   UNL     1       0.433  -2.130   2.818  0.00  0.00    +0.000 N 
ATOM     31  H   UNL     1       0.145  -2.116   1.845  0.00  0.00    +0.000 HD
ENDBRANCH  25  26
ENDBRANCH  24  25
ENDBRANCH   2  19
TORSDOF 6
