REMARK  Name = 
REMARK  4 active torsions:
REMARK  status: ('A' for Active; 'I' for Inactive)
REMARK    1  A    between atoms: C_1  and  C_2
REMARK    2  A    between atoms: N_4  and  C_5
REMARK    3  A    between atoms: C_14  and  C_16
REMARK    4  A    between atoms: N_18  and  C_19
REMARK                            x       y       z     vdW  Elec       q    Type
REMARK                         _______ _______ _______ _____ _____    ______ ____
ROOT
ATOM      1  C   UNL     1       5.756  -1.185  -0.485  0.00  0.00    +0.000 C 
ATOM      2  C   UNL     1       4.491  -0.451  -0.237  0.00  0.00    +0.000 A 
ATOM      3  C   UNL     1       4.363   0.924  -0.227  0.00  0.00    +0.000 A 
ATOM      4  N   UNL     1       3.050   1.211   0.057  0.00  0.00    +0.000 N 
ATOM      5  N   UNL     1       2.335   0.083   0.227  0.00  0.00    +0.000 NA
ATOM      6  C   UNL     1       3.178  -0.929   0.029  0.00  0.00    +0.000 A 
ATOM      7  N   UNL     1       2.801  -2.258   0.061  0.00  0.00    +0.000 N 
ATOM      8  C   UNL     1       1.508  -2.703   0.309  0.00  0.00    +0.000 C 
ATOM      9  O   UNL     1       0.535  -2.031   0.629  0.00  0.00    +0.000 OA
ATOM     10  H   UNL     1       3.524  -2.937  -0.165  0.00  0.00    +0.000 HD
ENDROOT
BRANCH   8  11
ATOM     11  C   UNL     1       1.300  -4.214   0.142  0.00  0.00    +0.000 A 
ATOM     12  N   UNL     1       0.109  -4.696   0.402  0.00  0.00    +0.000 NA
ATOM     13  N   UNL     1      -0.113  -6.045   0.235  0.00  0.00    +0.000 N 
ATOM     14  C   UNL     1       0.842  -6.872  -0.326  0.00  0.00    +0.000 A 
ATOM     15  C   UNL     1       2.082  -6.517  -0.642  0.00  0.00    +0.000 A 
ATOM     16  C   UNL     1       2.412  -5.122  -0.344  0.00  0.00    +0.000 A 
ATOM     17  O   UNL     1       3.545  -4.685  -0.502  0.00  0.00    +0.000 OA
BRANCH  13  18
ATOM     18  C   UNL     1      -1.466  -6.491   0.410  0.00  0.00    +0.000 A 
ATOM     19  C   UNL     1      -2.550  -5.630   0.160  0.00  0.00    +0.000 A 
ATOM     20  C   UNL     1      -3.868  -6.109   0.158  0.00  0.00    +0.000 A 
ATOM     21  C   UNL     1      -4.134  -7.447   0.443  0.00  0.00    +0.000 A 
ATOM     22  C   UNL     1      -3.086  -8.300   0.770  0.00  0.00    +0.000 A 
ATOM     23  C   UNL     1      -1.776  -7.820   0.762  0.00  0.00    +0.000 A 
ATOM     24  F   UNL     1      -0.804  -8.681   1.106  0.00  0.00    +0.000 F 
ENDBRANCH  13  18
ENDBRANCH   8  11
BRANCH   4  25
ATOM     25  C   UNL     1       2.450   2.493   0.179  0.00  0.00    +0.000 A 
ATOM     26  C   UNL     1       3.178   3.656  -0.104  0.00  0.00    +0.000 A 
ATOM     27  C   UNL     1       2.576   4.909   0.030  0.00  0.00    +0.000 A 
ATOM     28  C   UNL     1       1.252   5.007   0.449  0.00  0.00    +0.000 A 
ATOM     29  C   UNL     1       0.519   3.854   0.728  0.00  0.00    +0.000 A 
ATOM     30  C   UNL     1       1.111   2.597   0.589  0.00  0.00    +0.000 A 
ENDBRANCH   4  25
TORSDOF 3
