REMARK  Name = 
REMARK  6 active torsions:
REMARK  status: ('A' for Active; 'I' for Inactive)
REMARK    1  A    between atoms: C_2  and  C_16
REMARK    2  A    between atoms: N_3  and  C_4
REMARK    3  A    between atoms: C_4  and  C_5
REMARK    4  A    between atoms: C_8  and  C_9
REMARK    5  A    between atoms: C_21  and  O_22
REMARK    6  A    between atoms: O_22  and  C_23
REMARK                            x       y       z     vdW  Elec       q    Type
REMARK                         _______ _______ _______ _____ _____    ______ ____
ROOT
ATOM      1  O   UNL     1       1.167  -0.551   0.563  0.00  0.00    +0.000 OA
ATOM      2  C   UNL     1       2.383  -0.426   0.412  0.00  0.00    +0.000 C 
ATOM      3  N   UNL     1       3.118  -1.407  -0.206  0.00  0.00    +0.000 N 
ATOM      4  H   UNL     1       4.110  -1.307  -0.395  0.00  0.00    +0.000 HD
ENDROOT
BRANCH   2   5
ATOM      5  C   UNL     1       3.050   0.818   0.892  0.00  0.00    +0.000 A 
ATOM      6  C   UNL     1       2.187   1.770   1.466  0.00  0.00    +0.000 A 
ATOM      7  C   UNL     1       2.698   2.970   1.921  0.00  0.00    +0.000 A 
ATOM      8  N   UNL     1       3.992   3.305   1.799  0.00  0.00    +0.000 NA
ATOM      9  C   UNL     1       4.807   2.385   1.233  0.00  0.00    +0.000 A 
ATOM     10  C   UNL     1       4.415   1.109   0.816  0.00  0.00    +0.000 A 
BRANCH  10  11
ATOM     11  O   UNL     1       5.306   0.174   0.330  0.00  0.00    +0.000 OA
BRANCH  11  12
ATOM     12  C   UNL     1       6.628   0.267   0.726  0.00  0.00    +0.000 A 
ATOM     13  C   UNL     1       7.004   0.457   2.064  0.00  0.00    +0.000 A 
ATOM     14  C   UNL     1       8.345   0.674   2.383  0.00  0.00    +0.000 A 
ATOM     15  C   UNL     1       9.305   0.631   1.379  0.00  0.00    +0.000 A 
ATOM     16  F   UNL     1      10.588   0.860   1.682  0.00  0.00    +0.000 F 
ATOM     17  C   UNL     1       8.947   0.355   0.061  0.00  0.00    +0.000 A 
ATOM     18  C   UNL     1       7.603   0.172  -0.268  0.00  0.00    +0.000 A 
ENDBRANCH  11  12
ENDBRANCH  10  11
ENDBRANCH   2   5
BRANCH   3  19
ATOM     19  C   UNL     1       2.424  -2.585  -0.695  0.00  0.00    +0.000 C 
BRANCH  19  20
ATOM     20  C   UNL     1       3.329  -3.555  -1.359  0.00  0.00    +0.000 A 
ATOM     21  N   UNL     1       2.900  -4.774  -1.706  0.00  0.00    +0.000 NA
ATOM     22  O   UNL     1       3.982  -5.312  -2.393  0.00  0.00    +0.000 OA
ATOM     23  C   UNL     1       4.963  -4.360  -2.392  0.00  0.00    +0.000 A 
ATOM     24  N   UNL     1       4.625  -3.267  -1.739  0.00  0.00    +0.000 NA
BRANCH  23  25
ATOM     25  C   UNL     1       6.164  -4.667  -3.158  0.00  0.00    +0.000 A 
ATOM     26  C   UNL     1       6.215  -5.761  -4.037  0.00  0.00    +0.000 A 
ATOM     27  C   UNL     1       7.349  -6.001  -4.818  0.00  0.00    +0.000 A 
ATOM     28  C   UNL     1       8.449  -5.152  -4.724  0.00  0.00    +0.000 A 
ATOM     29  C   UNL     1       8.421  -4.073  -3.844  0.00  0.00    +0.000 A 
ATOM     30  C   UNL     1       7.284  -3.829  -3.067  0.00  0.00    +0.000 A 
ENDBRANCH  23  25
ENDBRANCH  19  20
ENDBRANCH   3  19
TORSDOF 6
