REMARK  Name = 
REMARK  5 active torsions:
REMARK  status: ('A' for Active; 'I' for Inactive)
REMARK    1  A    between atoms: C_1  and  N_2
REMARK    2  A    between atoms: C_5  and  N_6
REMARK    3  A    between atoms: C_7  and  C_9
REMARK    4  A    between atoms: N_11  and  C_12
REMARK    5  A    between atoms: C_23  and  C_24
REMARK                            x       y       z     vdW  Elec       q    Type
REMARK                         _______ _______ _______ _____ _____    ______ ____
ROOT
ATOM      1  N   UNL     1      -2.580  -1.466   0.125  0.00  0.00    +0.000 N 
ATOM      2  C   UNL     1      -3.838  -0.907   0.284  0.00  0.00    +0.000 C 
ATOM      3  O   UNL     1      -4.140   0.270   0.416  0.00  0.00    +0.000 OA
ATOM      4  H   UNL     1      -2.506  -2.468   0.018  0.00  0.00    +0.000 HD
ENDROOT
BRANCH   2   5
ATOM      5  C   UNL     1      -4.971  -1.920   0.259  0.00  0.00    +0.000 A 
ATOM      6  N   UNL     1      -4.743  -3.088   0.805  0.00  0.00    +0.000 NA
ATOM      7  N   UNL     1      -5.771  -4.012   0.813  0.00  0.00    +0.000 N 
ATOM      8  C   UNL     1      -7.033  -3.721   0.333  0.00  0.00    +0.000 A 
ATOM      9  C   UNL     1      -7.387  -2.572  -0.241  0.00  0.00    +0.000 A 
ATOM     10  C   UNL     1      -6.315  -1.581  -0.372  0.00  0.00    +0.000 A 
ATOM     11  O   UNL     1      -6.502  -0.553  -1.001  0.00  0.00    +0.000 OA
BRANCH   7  12
ATOM     12  C   UNL     1      -5.503  -5.221   1.528  0.00  0.00    +0.000 A 
ATOM     13  C   UNL     1      -6.116  -6.436   1.179  0.00  0.00    +0.000 A 
ATOM     14  C   UNL     1      -5.876  -7.588   1.923  0.00  0.00    +0.000 A 
ATOM     15  F   UNL     1      -6.475  -8.733   1.569  0.00  0.00    +0.000 F 
ATOM     16  C   UNL     1      -5.033  -7.571   3.025  0.00  0.00    +0.000 A 
ATOM     17  C   UNL     1      -4.403  -6.383   3.382  0.00  0.00    +0.000 A 
ATOM     18  C   UNL     1      -4.629  -5.223   2.634  0.00  0.00    +0.000 A 
ENDBRANCH   7  12
ENDBRANCH   2   5
BRANCH   1  23
ATOM     19  C   UNL     1       1.995   0.216  -0.576  0.00  0.00    +0.000 C 
ATOM     20  N   UNL     1       0.622  -0.007  -0.189  0.00  0.00    +0.000 N 
ATOM     21  C   UNL     1      -0.160   0.973   0.352  0.00  0.00    +0.000 A 
ATOM     22  N   UNL     1      -1.389   0.575   0.512  0.00  0.00    +0.000 NA
ATOM     23  C   UNL     1      -1.420  -0.720   0.085  0.00  0.00    +0.000 A 
ATOM     24  C   UNL     1      -0.162  -1.143  -0.353  0.00  0.00    +0.000 A 
BRANCH  24  25
ATOM     25  C   UNL     1       0.287  -2.416  -0.952  0.00  0.00    +0.000 A 
ATOM     26  C   UNL     1      -0.579  -3.174  -1.754  0.00  0.00    +0.000 A 
ATOM     27  C   UNL     1      -0.175  -4.401  -2.294  0.00  0.00    +0.000 A 
ATOM     28  C   UNL     1       1.118  -4.868  -2.083  0.00  0.00    +0.000 A 
ATOM     29  C   UNL     1       2.002  -4.117  -1.318  0.00  0.00    +0.000 A 
ATOM     30  C   UNL     1       1.577  -2.920  -0.737  0.00  0.00    +0.000 A 
ENDBRANCH  24  25
ENDBRANCH   1  23
TORSDOF 4
