REMARK  Name = 
REMARK  5 active torsions:
REMARK  status: ('A' for Active; 'I' for Inactive)
REMARK    1  A    between atoms: C_1  and  C_2
REMARK    2  A    between atoms: N_6  and  C_7
REMARK    3  A    between atoms: C_11  and  N_12
REMARK    4  A    between atoms: C_13  and  C_15
REMARK    5  A    between atoms: N_17  and  C_18
REMARK                            x       y       z     vdW  Elec       q    Type
REMARK                         _______ _______ _______ _____ _____    ______ ____
ROOT
ATOM      1  N   UNL     1       3.525  -5.726   1.516  0.00  0.00    +0.000 N 
ATOM      2  C   UNL     1       3.221  -7.079   1.529  0.00  0.00    +0.000 C 
ATOM      3  O   UNL     1       2.319  -7.612   0.889  0.00  0.00    +0.000 OA
ATOM      4  H   UNL     1       4.294  -5.396   2.081  0.00  0.00    +0.000 HD
ENDROOT
BRANCH   2   5
ATOM      5  C   UNL     1       4.089  -7.982   2.365  0.00  0.00    +0.000 A 
ATOM      6  C   UNL     1       4.746  -7.593   3.470  0.00  0.00    +0.000 A 
ATOM      7  N   UNL     1       5.538  -8.475   4.210  0.00  0.00    +0.000 N 
ATOM      8  C   UNL     1       5.639  -9.838   3.878  0.00  0.00    +0.000 A 
ATOM      9  O   UNL     1       6.277 -10.691   4.491  0.00  0.00    +0.000 OA
ATOM     10  C   UNL     1       4.857 -10.274   2.695  0.00  0.00    +0.000 A 
ATOM     11  C   UNL     1       4.146  -9.387   1.992  0.00  0.00    +0.000 A 
BRANCH   7  12
ATOM     12  C   UNL     1       6.273  -8.007   5.344  0.00  0.00    +0.000 A 
ATOM     13  C   UNL     1       7.647  -8.264   5.446  0.00  0.00    +0.000 A 
ATOM     14  C   UNL     1       8.384  -7.754   6.517  0.00  0.00    +0.000 A 
ATOM     15  C   UNL     1       7.750  -7.016   7.516  0.00  0.00    +0.000 A 
ATOM     16  C   UNL     1       6.379  -6.777   7.439  0.00  0.00    +0.000 A 
ATOM     17  C   UNL     1       5.654  -7.255   6.350  0.00  0.00    +0.000 A 
ATOM     18  F   UNL     1       4.334  -7.018   6.307  0.00  0.00    +0.000 F 
ENDBRANCH   7  12
ENDBRANCH   2   5
BRANCH   1  23
ATOM     19  C   UNL     1       2.624  -2.384   0.117  0.00  0.00    +0.000 A 
ATOM     20  C   UNL     1       1.655  -2.732  -0.829  0.00  0.00    +0.000 A 
ATOM     21  C   UNL     1       1.274  -4.057  -0.980  0.00  0.00    +0.000 A 
ATOM     22  C   UNL     1       1.866  -5.045  -0.198  0.00  0.00    +0.000 A 
ATOM     23  C   UNL     1       2.871  -4.737   0.726  0.00  0.00    +0.000 A 
ATOM     24  C   UNL     1       3.264  -3.394   0.868  0.00  0.00    +0.000 A 
BRANCH  19  30
ATOM     25  C   UNL     1       0.804   0.231  -0.209  0.00  0.00    +0.000 C 
ATOM     26  C   UNL     1       2.265   0.138   0.024  0.00  0.00    +0.000 A 
ATOM     27  C   UNL     1       3.198   1.143   0.157  0.00  0.00    +0.000 A 
ATOM     28  N   UNL     1       4.380   0.625   0.585  0.00  0.00    +0.000 NA
ATOM     29  N   UNL     1       4.223  -0.683   0.732  0.00  0.00    +0.000 NA
ATOM     30  N   UNL     1       2.989  -1.023   0.280  0.00  0.00    +0.000 N 
ENDBRANCH  19  30
ENDBRANCH   1  23
TORSDOF 4
