REMARK  Name = 
REMARK  6 active torsions:
REMARK  status: ('A' for Active; 'I' for Inactive)
REMARK    1  A    between atoms: C_1  and  O_2
REMARK    2  A    between atoms: O_2  and  C_3
REMARK    3  A    between atoms: C_3  and  C_5
REMARK    4  A    between atoms: C_11  and  N_12
REMARK    5  A    between atoms: C_13  and  C_15
REMARK    6  A    between atoms: N_17  and  C_18
REMARK                            x       y       z     vdW  Elec       q    Type
REMARK                         _______ _______ _______ _____ _____    ______ ____
ROOT
ATOM      1  N   UNL     1       7.254  -0.482  -4.191  0.00  0.00    +0.000 N 
ATOM      2  C   UNL     1       6.638  -0.743  -5.409  0.00  0.00    +0.000 C 
ATOM      3  O   UNL     1       5.430  -0.665  -5.617  0.00  0.00    +0.000 OA
ATOM      4  H   UNL     1       8.266  -0.458  -4.211  0.00  0.00    +0.000 HD
ENDROOT
BRANCH   1  11
ATOM      5  C   UNL     1       4.440   1.246   0.444  0.00  0.00    +0.000 A 
ATOM      6  N   UNL     1       3.092   1.047   0.563  0.00  0.00    +0.000 NA
ATOM      7  C   UNL     1       2.474   0.401  -0.438  0.00  0.00    +0.000 A 
ATOM      8  C   UNL     1       3.130  -0.054  -1.566  0.00  0.00    +0.000 A 
ATOM      9  C   UNL     1       4.509   0.152  -1.687  0.00  0.00    +0.000 A 
ATOM     10  C   UNL     1       5.192  -0.292  -2.835  0.00  0.00    +0.000 A 
ATOM     11  C   UNL     1       6.569  -0.106  -3.010  0.00  0.00    +0.000 A 
ATOM     12  C   UNL     1       7.287   0.481  -1.974  0.00  0.00    +0.000 A 
ATOM     13  C   UNL     1       6.622   0.939  -0.825  0.00  0.00    +0.000 A 
ATOM     14  C   UNL     1       5.218   0.807  -0.660  0.00  0.00    +0.000 A 
BRANCH   5  15
ATOM     15  C   UNL     1       5.069   1.996   1.580  0.00  0.00    +0.000 C 
ATOM     16  O   UNL     1       6.049   2.720   1.491  0.00  0.00    +0.000 OA
BRANCH  15  18
ATOM     17  C   UNL     1       4.938   2.367   3.886  0.00  0.00    +0.000 C 
ATOM     18  O   UNL     1       4.402   1.720   2.734  0.00  0.00    +0.000 OA
ENDBRANCH  15  18
ENDBRANCH   5  15
ENDBRANCH   1  11
BRANCH   2  19
ATOM     19  C   UNL     1       7.530  -1.109  -6.519  0.00  0.00    +0.000 A 
ATOM     20  N   UNL     1       8.874  -1.164  -6.470  0.00  0.00    +0.000 NA
ATOM     21  N   UNL     1       9.247  -1.555  -7.730  0.00  0.00    +0.000 N 
ATOM     22  C   UNL     1       8.158  -1.730  -8.551  0.00  0.00    +0.000 A 
ATOM     23  C   UNL     1       7.047  -1.456  -7.806  0.00  0.00    +0.000 A 
BRANCH  21  24
ATOM     24  C   UNL     1      10.610  -1.758  -8.088  0.00  0.00    +0.000 A 
ATOM     25  C   UNL     1      11.616  -1.582  -7.133  0.00  0.00    +0.000 A 
ATOM     26  C   UNL     1      12.943  -1.802  -7.494  0.00  0.00    +0.000 A 
ATOM     27  F   UNL     1      13.907  -1.648  -6.576  0.00  0.00    +0.000 F 
ATOM     28  C   UNL     1      13.290  -2.182  -8.785  0.00  0.00    +0.000 A 
ATOM     29  C   UNL     1      12.297  -2.352  -9.743  0.00  0.00    +0.000 A 
ATOM     30  C   UNL     1      10.959  -2.145  -9.396  0.00  0.00    +0.000 A 
ENDBRANCH  21  24
ENDBRANCH   2  19
TORSDOF 5
