REMARK  Name = 
REMARK  7 active torsions:
REMARK  status: ('A' for Active; 'I' for Inactive)
REMARK    1  A    between atoms: C_2  and  C_17
REMARK    2  A    between atoms: N_3  and  C_4
REMARK    3  A    between atoms: C_4  and  C_5
REMARK    4  A    between atoms: C_5  and  C_6
REMARK    5  A    between atoms: C_9  and  N_10
REMARK    6  A    between atoms: N_19  and  C_20
REMARK    7  A    between atoms: C_29  and  O_30
REMARK                            x       y       z     vdW  Elec       q    Type
REMARK                         _______ _______ _______ _____ _____    ______ ____
ROOT
ATOM      1  O   UNL     1       1.087  -0.007  -0.039  0.00  0.00    +0.000 OA
ATOM      2  C   UNL     1       2.315  -0.028  -0.068  0.00  0.00    +0.000 C 
ATOM      3  N   UNL     1       3.041   0.701  -0.992  0.00  0.00    +0.000 N 
ATOM      4  H   UNL     1       4.051   0.616  -0.941  0.00  0.00    +0.000 HD
ENDROOT
BRANCH   2   5
ATOM      5  C   UNL     1       3.140  -0.820   0.860  0.00  0.00    +0.000 A 
ATOM      6  N   UNL     1       4.492  -0.861   0.783  0.00  0.00    +0.000 NA
ATOM      7  N   UNL     1       4.882  -1.707   1.788  0.00  0.00    +0.000 N 
ATOM      8  C   UNL     1       3.800  -2.176   2.497  0.00  0.00    +0.000 A 
ATOM      9  C   UNL     1       2.690  -1.629   1.922  0.00  0.00    +0.000 A 
BRANCH   7  10
ATOM     10  C   UNL     1       6.263  -1.995   2.000  0.00  0.00    +0.000 A 
ATOM     11  C   UNL     1       7.231  -1.400   1.169  0.00  0.00    +0.000 A 
ATOM     12  C   UNL     1       8.591  -1.665   1.369  0.00  0.00    +0.000 A 
ATOM     13  C   UNL     1       8.985  -2.519   2.392  0.00  0.00    +0.000 A 
ATOM     14  F   UNL     1      10.287  -2.763   2.587  0.00  0.00    +0.000 F 
ATOM     15  C   UNL     1       8.048  -3.119   3.217  0.00  0.00    +0.000 A 
ATOM     16  C   UNL     1       6.694  -2.857   3.018  0.00  0.00    +0.000 A 
ATOM     17  F   UNL     1       5.837  -3.472   3.843  0.00  0.00    +0.000 F 
ENDBRANCH   7  10
BRANCH   9  18
ATOM     18  O   UNL     1       1.438  -1.858   2.340  0.00  0.00    +0.000 OA
ATOM     19  H   UNL     1       1.425  -2.466   3.099  0.00  0.00    +0.000 HD
ENDBRANCH   9  18
ENDBRANCH   2   5
BRANCH   3  20
ATOM     20  C   UNL     1       2.374   1.505  -1.994  0.00  0.00    +0.000 C 
BRANCH  20  21
ATOM     21  C   UNL     1       3.350   2.220  -2.927  0.00  0.00    +0.000 C 
BRANCH  21  22
ATOM     22  C   UNL     1       2.634   3.063  -3.954  0.00  0.00    +0.000 A 
ATOM     23  C   UNL     1       2.313   4.399  -3.679  0.00  0.00    +0.000 A 
ATOM     24  C   UNL     1       1.611   5.173  -4.610  0.00  0.00    +0.000 A 
ATOM     25  C   UNL     1       1.207   4.613  -5.829  0.00  0.00    +0.000 A 
ATOM     26  C   UNL     1       1.538   3.280  -6.113  0.00  0.00    +0.000 A 
ATOM     27  C   UNL     1       2.244   2.512  -5.181  0.00  0.00    +0.000 A 
BRANCH  25  28
ATOM     28  N   UNL     1       0.429   5.356  -6.762  0.00  0.00    +0.000 N 
ATOM     29  C   UNL     1       0.005   6.667  -6.666  0.00  0.00    +0.000 A 
ATOM     30  C   UNL     1      -0.819   6.909  -7.740  0.00  0.00    +0.000 A 
ATOM     31  C   UNL     1      -0.811   5.709  -8.463  0.00  0.00    +0.000 A 
ATOM     32  N   UNL     1      -0.040   4.778  -7.901  0.00  0.00    +0.000 NA
ENDBRANCH  25  28
ENDBRANCH  21  22
ENDBRANCH  20  21
ENDBRANCH   3  20
TORSDOF 7
