REMARK  Name = 
REMARK  7 active torsions:
REMARK  status: ('A' for Active; 'I' for Inactive)
REMARK    1  A    between atoms: C_2  and  O_3
REMARK    2  A    between atoms: C_2  and  C_4
REMARK    3  A    between atoms: C_8  and  C_9
REMARK    4  A    between atoms: C_13  and  C_14
REMARK    5  A    between atoms: C_14  and  N_15
REMARK    6  A    between atoms: C_16  and  C_18
REMARK    7  A    between atoms: N_20  and  C_21
REMARK                            x       y       z     vdW  Elec       q    Type
REMARK                         _______ _______ _______ _____ _____    ______ ____
ROOT
ATOM      1  C   UNL     1       6.439  -1.802   1.990  0.00  0.00    +0.000 A 
ATOM      2  C   UNL     1       7.531  -2.237   1.216  0.00  0.00    +0.000 A 
ATOM      3  C   UNL     1       8.847  -1.967   1.585  0.00  0.00    +0.000 A 
ATOM      4  C   UNL     1       9.111  -1.225   2.733  0.00  0.00    +0.000 A 
ATOM      5  C   UNL     1       8.059  -0.765   3.531  0.00  0.00    +0.000 A 
ATOM      6  C   UNL     1       6.734  -1.082   3.166  0.00  0.00    +0.000 A 
ENDROOT
BRANCH   1  11
ATOM      7  C   UNL     1       2.824  -1.079   1.064  0.00  0.00    +0.000 A 
ATOM      8  C   UNL     1       2.512  -2.173   0.252  0.00  0.00    +0.000 A 
ATOM      9  C   UNL     1       3.445  -3.191   0.081  0.00  0.00    +0.000 A 
ATOM     10  C   UNL     1       4.696  -3.100   0.698  0.00  0.00    +0.000 A 
ATOM     11  C   UNL     1       5.053  -1.994   1.496  0.00  0.00    +0.000 A 
ATOM     12  C   UNL     1       4.068  -1.012   1.708  0.00  0.00    +0.000 A 
BRANCH   7  14
ATOM     13  O   UNL     1       0.620  -0.205   1.156  0.00  0.00    +0.000 OA
ATOM     14  C   UNL     1       1.822   0.001   1.205  0.00  0.00    +0.000 C 
BRANCH  14  15
ATOM     15  O   UNL     1       2.352   1.236   1.335  0.00  0.00    +0.000 OA
ATOM     16  H   UNL     1       3.318   1.291   1.196  0.00  0.00    +0.000 HD
ENDBRANCH  14  15
ENDBRANCH   7  14
ENDBRANCH   1  11
BRANCH   5  17
ATOM     17  C   UNL     1       8.342   0.158   4.692  0.00  0.00    +0.000 C 
BRANCH  17  18
ATOM     18  N   UNL     1       7.838  -0.351   5.940  0.00  0.00    +0.000 N 
ATOM     19  C   UNL     1       6.904   0.338   6.688  0.00  0.00    +0.000 C 
ATOM     20  O   UNL     1       6.438   1.418   6.331  0.00  0.00    +0.000 OA
ATOM     21  H   UNL     1       8.184  -1.225   6.320  0.00  0.00    +0.000 HD
BRANCH  19  22
ATOM     22  C   UNL     1       6.497  -0.344   7.935  0.00  0.00    +0.000 A 
ATOM     23  N   UNL     1       6.998  -1.534   8.334  0.00  0.00    +0.000 NA
ATOM     24  N   UNL     1       6.280  -1.794   9.461  0.00  0.00    +0.000 N 
ATOM     25  C   UNL     1       5.425  -0.747   9.708  0.00  0.00    +0.000 A 
ATOM     26  N   UNL     1       5.541   0.169   8.780  0.00  0.00    +0.000 NA
BRANCH  24  27
ATOM     27  C   UNL     1       6.430  -2.996  10.204  0.00  0.00    +0.000 A 
ATOM     28  C   UNL     1       7.381  -3.947   9.812  0.00  0.00    +0.000 A 
ATOM     29  C   UNL     1       7.526  -5.132  10.536  0.00  0.00    +0.000 A 
ATOM     30  C   UNL     1       6.721  -5.380  11.647  0.00  0.00    +0.000 A 
ATOM     31  C   UNL     1       5.772  -4.441  12.041  0.00  0.00    +0.000 A 
ATOM     32  C   UNL     1       5.625  -3.248  11.328  0.00  0.00    +0.000 A 
ENDBRANCH  24  27
ENDBRANCH  19  22
ENDBRANCH  17  18
ENDBRANCH   5  17
TORSDOF 7
