REMARK  Name = 
REMARK  7 active torsions:
REMARK  status: ('A' for Active; 'I' for Inactive)
REMARK    1  A    between atoms: C_1  and  C_2
REMARK    2  A    between atoms: C_8  and  O_9
REMARK    3  A    between atoms: C_11  and  C_12
REMARK    4  A    between atoms: N_14  and  C_15
REMARK    5  A    between atoms: C_15  and  C_16
REMARK    6  A    between atoms: C_15  and  C_23
REMARK    7  A    between atoms: N_25  and  C_26
REMARK                            x       y       z     vdW  Elec       q    Type
REMARK                         _______ _______ _______ _____ _____    ______ ____
ROOT
ATOM      1  C   UNL     1       4.574   3.812  -0.422  0.00  0.00    +0.000 C 
ATOM      2  O   UNL     1       3.413   3.824  -0.822  0.00  0.00    +0.000 OA
ATOM      3  N   UNL     1       5.201   4.952   0.024  0.00  0.00    +0.000 N 
ATOM      4  H   UNL     1       6.160   4.976   0.345  0.00  0.00    +0.000 HD
ENDROOT
BRANCH   1  14
ATOM      5  C   UNL     1       1.368  -0.330   0.655  0.00  0.00    +0.000 C 
ATOM      6  C   UNL     1       2.812  -0.191   0.274  0.00  0.00    +0.000 A 
ATOM      7  C   UNL     1       3.614  -1.302   0.054  0.00  0.00    +0.000 A 
ATOM      8  C   UNL     1       4.955  -1.127  -0.280  0.00  0.00    +0.000 A 
ATOM      9  F   UNL     1       5.693  -2.234  -0.474  0.00  0.00    +0.000 F 
ATOM     10  C   UNL     1       5.547   0.129  -0.421  0.00  0.00    +0.000 A 
ATOM     11  N   UNL     1       6.857   0.209  -0.730  0.00  0.00    +0.000 NA
ATOM     12  C   UNL     1       7.391   1.425  -0.879  0.00  0.00    +0.000 A 
ATOM     13  C   UNL     1       6.720   2.614  -0.762  0.00  0.00    +0.000 A 
ATOM     14  C   UNL     1       5.366   2.545  -0.442  0.00  0.00    +0.000 A 
ATOM     15  C   UNL     1       4.740   1.276  -0.241  0.00  0.00    +0.000 A 
ATOM     16  C   UNL     1       3.380   1.081   0.131  0.00  0.00    +0.000 A 
BRANCH  12  17
ATOM     17  O   UNL     1       8.707   1.401  -1.196  0.00  0.00    +0.000 OA
ATOM     18  H   UNL     1       8.862   0.439  -1.220  0.00  0.00    +0.000 HD
ENDBRANCH  12  17
ENDBRANCH   1  14
BRANCH   3  19
ATOM     19  C   UNL     1       4.500   6.221   0.067  0.00  0.00    +0.000 C 
BRANCH  19  20
ATOM     20  C   UNL     1       3.863   6.486   1.425  0.00  0.00    +0.000 A 
ATOM     21  C   UNL     1       4.612   6.486   2.619  0.00  0.00    +0.000 A 
ATOM     22  C   UNL     1       3.996   6.720   3.851  0.00  0.00    +0.000 A 
ATOM     23  C   UNL     1       2.627   6.951   3.900  0.00  0.00    +0.000 A 
ATOM     24  F   UNL     1       2.036   7.173   5.081  0.00  0.00    +0.000 F 
ATOM     25  C   UNL     1       1.862   6.950   2.741  0.00  0.00    +0.000 A 
ATOM     26  C   UNL     1       2.477   6.717   1.508  0.00  0.00    +0.000 A 
ENDBRANCH  19  20
BRANCH  19  27
ATOM     27  C   UNL     1       5.459   7.362  -0.190  0.00  0.00    +0.000 A 
ATOM     28  N   UNL     1       6.781   7.266   0.063  0.00  0.00    +0.000 NA
ATOM     29  N   UNL     1       7.272   8.461  -0.324  0.00  0.00    +0.000 N 
ATOM     30  C   UNL     1       8.688   8.730  -0.249  0.00  0.00    +0.000 C 
ATOM     31  C   UNL     1       6.324   9.312  -0.808  0.00  0.00    +0.000 A 
ATOM     32  C   UNL     1       5.137   8.624  -0.758  0.00  0.00    +0.000 A 
ENDBRANCH  19  27
ENDBRANCH   3  19
TORSDOF 5
