REMARK  Name = 
REMARK  9 active torsions:
REMARK  status: ('A' for Active; 'I' for Inactive)
REMARK    1  A    between atoms: C_1  and  O_2
REMARK    2  A    between atoms: O_2  and  C_3
REMARK    3  A    between atoms: C_7  and  C_8
REMARK    4  A    between atoms: C_8  and  C_9
REMARK    5  A    between atoms: C_9  and  N_10
REMARK    6  A    between atoms: C_9  and  C_25
REMARK    7  A    between atoms: C_11  and  C_13
REMARK    8  A    between atoms: C_14  and  N_15
REMARK    9  A    between atoms: N_16  and  C_17
REMARK                            x       y       z     vdW  Elec       q    Type
REMARK                         _______ _______ _______ _____ _____    ______ ____
ROOT
ATOM      1  N   UNL     1       7.221   3.281   1.942  0.00  0.00    +0.000 N 
ATOM      2  C   UNL     1       7.307   4.152   3.004  0.00  0.00    +0.000 C 
ATOM      3  O   UNL     1       7.317   5.370   2.861  0.00  0.00    +0.000 OA
ATOM      4  H   UNL     1       7.424   2.305   2.122  0.00  0.00    +0.000 HD
ENDROOT
BRANCH   2   5
ATOM      5  C   UNL     1       7.393   3.554   4.322  0.00  0.00    +0.000 A 
ATOM      6  C   UNL     1       7.053   2.293   4.785  0.00  0.00    +0.000 A 
ATOM      7  N   UNL     1       7.230   2.331   6.183  0.00  0.00    +0.000 N 
ATOM      8  N   UNL     1       7.785   3.512   6.583  0.00  0.00    +0.000 NA
ATOM      9  C   UNL     1       7.844   4.239   5.471  0.00  0.00    +0.000 A 
BRANCH   7  10
ATOM     10  C   UNL     1       6.834   1.347   7.155  0.00  0.00    +0.000 A 
ATOM     11  C   UNL     1       7.016   1.641   8.509  0.00  0.00    +0.000 A 
ATOM     12  C   UNL     1       6.589   0.724   9.466  0.00  0.00    +0.000 A 
ATOM     13  C   UNL     1       6.000  -0.464   9.053  0.00  0.00    +0.000 A 
ATOM     14  C   UNL     1       5.858  -0.686   7.692  0.00  0.00    +0.000 A 
ATOM     15  N   UNL     1       6.251   0.186   6.734  0.00  0.00    +0.000 NA
ENDBRANCH   7  10
BRANCH   6  16
ATOM     16  N   UNL     1       6.563   1.199   4.130  0.00  0.00    +0.000 N 
ATOM     17  H   UNL     1       5.929   1.340   3.344  0.00  0.00    +0.000 HD
ATOM     18  H   UNL     1       6.215   0.441   4.735  0.00  0.00    +0.000 HD
ENDBRANCH   6  16
ENDBRANCH   2   5
BRANCH   1  19
ATOM     19  C   UNL     1       7.184   3.782   0.572  0.00  0.00    +0.000 C 
BRANCH  19  20
ATOM     20  C   UNL     1       8.593   4.046   0.069  0.00  0.00    +0.000 A 
ATOM     21  C   UNL     1       9.001   5.366  -0.188  0.00  0.00    +0.000 A 
ATOM     22  C   UNL     1      10.301   5.642  -0.613  0.00  0.00    +0.000 A 
ATOM     23  C   UNL     1      11.211   4.602  -0.783  0.00  0.00    +0.000 A 
ATOM     24  C   UNL     1      10.823   3.288  -0.528  0.00  0.00    +0.000 A 
ATOM     25  C   UNL     1       9.523   3.010  -0.103  0.00  0.00    +0.000 A 
ENDBRANCH  19  20
BRANCH  19  26
ATOM     26  C   UNL     1       6.378   2.861  -0.379  0.00  0.00    +0.000 C 
BRANCH  26  31
ATOM     27  C   UNL     1       3.208   1.212   0.970  0.00  0.00    +0.000 A 
ATOM     28  C   UNL     1       2.405   2.326   1.210  0.00  0.00    +0.000 A 
ATOM     29  C   UNL     1       2.838   3.595   0.827  0.00  0.00    +0.000 A 
ATOM     30  C   UNL     1       4.093   3.760   0.246  0.00  0.00    +0.000 A 
ATOM     31  C   UNL     1       4.950   2.662   0.087  0.00  0.00    +0.000 A 
ATOM     32  C   UNL     1       4.483   1.384   0.424  0.00  0.00    +0.000 A 
BRANCH  27  34
ATOM     33  C   UNL     1       1.466  -0.337   1.336  0.00  0.00    +0.000 C 
ATOM     34  O   UNL     1       2.866  -0.079   1.270  0.00  0.00    +0.000 OA
ENDBRANCH  27  34
ENDBRANCH  26  31
ENDBRANCH  19  26
ENDBRANCH   1  19
TORSDOF 8
