REMARK  Name = 
REMARK  3 active torsions:
REMARK  status: ('A' for Active; 'I' for Inactive)
REMARK    1  A    between atoms: C_2  and  C_3
REMARK    2  A    between atoms: C_2  and  C_11
REMARK    3  A    between atoms: C_16  and  C_17
REMARK                            x       y       z     vdW  Elec       q    Type
REMARK                         _______ _______ _______ _____ _____    ______ ____
ROOT
ATOM      1  C   UNL     1       2.957   1.050  -0.021  0.00  0.00    +0.000 A 
ATOM      2  C   UNL     1       2.695   2.168   0.819  0.00  0.00    +0.000 A 
ATOM      3  C   UNL     1       3.414   3.357   0.729  0.00  0.00    +0.000 A 
ATOM      4  C   UNL     1       4.498   3.423  -0.124  0.00  0.00    +0.000 A 
ATOM      5  C   UNL     1       4.830   2.311  -0.897  0.00  0.00    +0.000 A 
ATOM      6  C   UNL     1       4.038   1.143  -0.936  0.00  0.00    +0.000 A 
ENDROOT
BRANCH   6   7
ATOM      7  C   UNL     1       4.465   0.069  -1.909  0.00  0.00    +0.000 C 
ATOM      8  O   UNL     1       4.421  -1.112  -1.586  0.00  0.00    +0.000 OA
ATOM      9  N   UNL     1       4.956   0.402  -3.173  0.00  0.00    +0.000 N 
ATOM     10  C   UNL     1       5.091   1.711  -3.820  0.00  0.00    +0.000 C 
ATOM     11  C   UNL     1       5.350   1.389  -5.250  0.00  0.00    +0.000 A 
ATOM     12  C   UNL     1       5.465   2.238  -6.334  0.00  0.00    +0.000 A 
ATOM     13  C   UNL     1       5.726   1.655  -7.566  0.00  0.00    +0.000 A 
ATOM     14  F   UNL     1       5.827   2.421  -8.659  0.00  0.00    +0.000 F 
ATOM     15  C   UNL     1       5.877   0.271  -7.654  0.00  0.00    +0.000 A 
ATOM     16  N   UNL     1       5.793  -0.576  -6.595  0.00  0.00    +0.000 NA
ATOM     17  C   UNL     1       5.527   0.019  -5.417  0.00  0.00    +0.000 A 
ATOM     18  C   UNL     1       5.372  -0.679  -4.084  0.00  0.00    +0.000 C 
ENDBRANCH   6   7
BRANCH   1  20
ATOM     19  O   UNL     1       2.593  -1.299   0.156  0.00  0.00    +0.000 OA
ATOM     20  C   UNL     1       2.127  -0.171   0.243  0.00  0.00    +0.000 C 
BRANCH  20  21
ATOM     21  C   UNL     1       0.746  -0.082   0.829  0.00  0.00    +0.000 A 
ATOM     22  C   UNL     1       0.372  -1.066   1.763  0.00  0.00    +0.000 A 
ATOM     23  C   UNL     1      -0.830  -0.955   2.470  0.00  0.00    +0.000 A 
ATOM     24  C   UNL     1      -1.656   0.137   2.242  0.00  0.00    +0.000 A 
ATOM     25  F   UNL     1      -2.772   0.283   2.968  0.00  0.00    +0.000 F 
ATOM     26  C   UNL     1      -1.317   1.081   1.277  0.00  0.00    +0.000 A 
ATOM     27  F   UNL     1      -2.109   2.143   1.073  0.00  0.00    +0.000 F 
ATOM     28  C   UNL     1      -0.134   0.965   0.545  0.00  0.00    +0.000 A 
ENDBRANCH  20  21
ENDBRANCH   1  20
TORSDOF 3
