REMARK  Name = 
REMARK  4 active torsions:
REMARK  status: ('A' for Active; 'I' for Inactive)
REMARK    1  A    between atoms: C_2  and  C_15
REMARK    2  A    between atoms: N_3  and  C_4
REMARK    3  A    between atoms: C_19  and  N_20
REMARK    4  A    between atoms: C_23  and  C_24
REMARK                            x       y       z     vdW  Elec       q    Type
REMARK                         _______ _______ _______ _____ _____    ______ ____
ROOT
ATOM      1  O   UNL     1       1.052   0.070   0.300  0.00  0.00    +0.000 OA
ATOM      2  C   UNL     1       2.261   0.103   0.083  0.00  0.00    +0.000 C 
ATOM      3  N   UNL     1       2.933   1.176  -0.479  0.00  0.00    +0.000 N 
ATOM      4  H   UNL     1       3.919   1.069  -0.688  0.00  0.00    +0.000 HD
ENDROOT
BRANCH   3   5
ATOM      5  C   UNL     1       2.344   2.352  -0.884  0.00  0.00    +0.000 A 
ATOM      6  C   UNL     1       3.071   3.324  -1.454  0.00  0.00    +0.000 A 
ATOM      7  C   UNL     1       2.409   4.543  -1.936  0.00  0.00    +0.000 A 
ATOM      8  C   UNL     1       3.121   5.537  -2.616  0.00  0.00    +0.000 A 
ATOM      9  C   UNL     1       2.457   6.669  -3.103  0.00  0.00    +0.000 A 
ATOM     10  C   UNL     1       1.084   6.824  -2.901  0.00  0.00    +0.000 A 
ATOM     11  C   UNL     1       0.367   5.845  -2.216  0.00  0.00    +0.000 A 
ATOM     12  C   UNL     1       1.029   4.707  -1.745  0.00  0.00    +0.000 A 
ATOM     13  C   UNL     1       0.271   3.628  -1.069  0.00  0.00    +0.000 A 
ATOM     14  O   UNL     1      -0.934   3.722  -0.866  0.00  0.00    +0.000 OA
ATOM     15  N   UNL     1       0.997   2.520  -0.707  0.00  0.00    +0.000 N 
ATOM     16  H   UNL     1       0.479   1.758  -0.272  0.00  0.00    +0.000 HD
ENDBRANCH   3   5
BRANCH   2  17
ATOM     17  C   UNL     1       3.067  -1.100   0.399  0.00  0.00    +0.000 A 
ATOM     18  C   UNL     1       2.457  -2.347   0.258  0.00  0.00    +0.000 A 
ATOM     19  C   UNL     1       3.192  -3.473   0.567  0.00  0.00    +0.000 A 
ATOM     20  N   UNL     1       4.464  -3.428   1.015  0.00  0.00    +0.000 NA
ATOM     21  C   UNL     1       5.030  -2.202   1.188  0.00  0.00    +0.000 A 
ATOM     22  C   UNL     1       4.372  -1.014   0.882  0.00  0.00    +0.000 A 
BRANCH  21  23
ATOM     23  N   UNL     1       6.341  -2.146   1.749  0.00  0.00    +0.000 N 
ATOM     24  C   UNL     1       7.119  -3.225   2.103  0.00  0.00    +0.000 A 
ATOM     25  C   UNL     1       8.267  -2.727   2.665  0.00  0.00    +0.000 A 
ATOM     26  C   UNL     1       8.124  -1.317   2.621  0.00  0.00    +0.000 A 
ATOM     27  N   UNL     1       6.964  -0.967   2.025  0.00  0.00    +0.000 NA
BRANCH  26  28
ATOM     28  C   UNL     1       9.102  -0.304   3.159  0.00  0.00    +0.000 C 
ATOM     29  F   UNL     1      10.176  -0.901   3.745  0.00  0.00    +0.000 F 
ATOM     30  F   UNL     1       9.594   0.506   2.185  0.00  0.00    +0.000 F 
ATOM     31  F   UNL     1       8.546   0.499   4.104  0.00  0.00    +0.000 F 
ENDBRANCH  26  28
ENDBRANCH  21  23
ENDBRANCH   2  17
TORSDOF 4
