REMARK  Name = 
REMARK  7 active torsions:
REMARK  status: ('A' for Active; 'I' for Inactive)
REMARK    1  A    between atoms: C_1  and  N_2
REMARK    2  A    between atoms: C_3  and  C_5
REMARK    3  A    between atoms: C_7  and  O_8
REMARK    4  A    between atoms: O_8  and  C_9
REMARK    5  A    between atoms: C_12  and  N_13
REMARK    6  A    between atoms: C_14  and  C_16
REMARK    7  A    between atoms: C_22  and  C_23
REMARK                            x       y       z     vdW  Elec       q    Type
REMARK                         _______ _______ _______ _____ _____    ______ ____
ROOT
ATOM      1  C   UNL     1       6.658  -2.010  -2.402  0.00  0.00    +0.000 A 
ATOM      2  C   UNL     1       6.888  -3.332  -2.020  0.00  0.00    +0.000 A 
ATOM      3  C   UNL     1       6.246  -4.382  -2.682  0.00  0.00    +0.000 A 
ATOM      4  C   UNL     1       5.357  -4.146  -3.734  0.00  0.00    +0.000 A 
ATOM      5  C   UNL     1       5.145  -2.820  -4.131  0.00  0.00    +0.000 A 
ATOM      6  C   UNL     1       5.815  -1.773  -3.488  0.00  0.00    +0.000 A 
ATOM      7  F   UNL     1       5.641  -0.530  -3.963  0.00  0.00    +0.000 F 
ENDROOT
BRANCH   4   8
ATOM      8  N   UNL     1       4.682  -5.176  -4.436  0.00  0.00    +0.000 N 
ATOM      9  C   UNL     1       4.994  -6.533  -4.404  0.00  0.00    +0.000 C 
ATOM     10  O   UNL     1       5.874  -7.031  -3.720  0.00  0.00    +0.000 OA
ATOM     11  H   UNL     1       4.023  -4.885  -5.152  0.00  0.00    +0.000 HD
BRANCH   9  12
ATOM     12  C   UNL     1       4.251  -7.312  -5.353  0.00  0.00    +0.000 A 
ATOM     13  C   UNL     1       2.892  -7.433  -5.582  0.00  0.00    +0.000 A 
ATOM     14  N   UNL     1       2.636  -8.221  -6.676  0.00  0.00    +0.000 NA
ATOM     15  C   UNL     1       3.816  -8.598  -7.120  0.00  0.00    +0.000 A 
ATOM     16  C   UNL     1       4.199  -9.332  -8.278  0.00  0.00    +0.000 A 
ATOM     17  C   UNL     1       5.503  -9.567  -8.526  0.00  0.00    +0.000 A 
ATOM     18  C   UNL     1       6.551  -9.124  -7.608  0.00  0.00    +0.000 A 
ATOM     19  C   UNL     1       7.984  -9.411  -7.925  0.00  0.00    +0.000 C 
ATOM     20  C   UNL     1       6.186  -8.420  -6.521  0.00  0.00    +0.000 A 
ATOM     21  N   UNL     1       4.836  -8.136  -6.298  0.00  0.00    +0.000 N 
ENDBRANCH   9  12
ENDBRANCH   4   8
BRANCH   1  22
ATOM     22  O   UNL     1       7.356  -1.052  -1.708  0.00  0.00    +0.000 OA
BRANCH  22  25
ATOM     23  C   UNL     1       4.982   1.658  -0.978  0.00  0.00    +0.000 A 
ATOM     24  C   UNL     1       5.413   0.364  -1.238  0.00  0.00    +0.000 A 
ATOM     25  C   UNL     1       6.775   0.157  -1.403  0.00  0.00    +0.000 A 
ATOM     26  C   UNL     1       7.657   1.216  -1.203  0.00  0.00    +0.000 A 
ATOM     27  C   UNL     1       7.136   2.466  -0.910  0.00  0.00    +0.000 A 
ATOM     28  N   UNL     1       5.814   2.722  -0.808  0.00  0.00    +0.000 NA
BRANCH  23  31
ATOM     29  C   UNL     1       1.816   3.690  -0.596  0.00  0.00    +0.000 C 
ATOM     30  N   UNL     1       3.182   3.257  -0.699  0.00  0.00    +0.000 N 
ATOM     31  C   UNL     1       3.510   1.933  -0.897  0.00  0.00    +0.000 C 
ATOM     32  O   UNL     1       2.682   1.036  -1.010  0.00  0.00    +0.000 OA
ATOM     33  H   UNL     1       3.953   3.917  -0.626  0.00  0.00    +0.000 HD
ENDBRANCH  23  31
ENDBRANCH  22  25
ENDBRANCH   1  22
TORSDOF 5
