REMARK  Name = 
REMARK  5 active torsions:
REMARK  status: ('A' for Active; 'I' for Inactive)
REMARK    1  A    between atoms: C_1  and  C_2
REMARK    2  A    between atoms: C_2  and  N_3
REMARK    3  A    between atoms: C_2  and  C_18
REMARK    4  A    between atoms: C_4  and  C_6
REMARK    5  A    between atoms: C_21  and  C_22
REMARK                            x       y       z     vdW  Elec       q    Type
REMARK                         _______ _______ _______ _____ _____    ______ ____
ROOT
ATOM      1  N   UNL     1       2.987  -1.089  -0.649  0.00  0.00    +0.000 N 
ATOM      2  C   UNL     1       3.148  -2.258   0.055  0.00  0.00    +0.000 C 
ATOM      3  O   UNL     1       2.894  -2.361   1.249  0.00  0.00    +0.000 OA
ATOM      4  H   UNL     1       3.073  -1.065  -1.658  0.00  0.00    +0.000 HD
ENDROOT
BRANCH   2   5
ATOM      5  C   UNL     1       3.608  -3.448  -0.714  0.00  0.00    +0.000 A 
ATOM      6  C   UNL     1       3.229  -4.720  -0.249  0.00  0.00    +0.000 A 
ATOM      7  C   UNL     1       3.577  -5.869  -0.967  0.00  0.00    +0.000 A 
ATOM      8  C   UNL     1       4.337  -5.743  -2.136  0.00  0.00    +0.000 A 
ATOM      9  N   UNL     1       4.658  -6.891  -2.877  0.00  0.00    +0.000 N 
ATOM     10  C   UNL     1       4.242  -8.148  -2.539  0.00  0.00    +0.000 A 
ATOM     11  O   UNL     1       4.498  -9.135  -3.219  0.00  0.00    +0.000 OA
ATOM     12  C   UNL     1       3.444  -8.273  -1.293  0.00  0.00    +0.000 A 
ATOM     13  C   UNL     1       3.143  -7.202  -0.545  0.00  0.00    +0.000 A 
ATOM     14  C   UNL     1       4.749  -4.483  -2.567  0.00  0.00    +0.000 A 
ATOM     15  F   UNL     1       5.488  -4.367  -3.681  0.00  0.00    +0.000 F 
ATOM     16  C   UNL     1       4.390  -3.333  -1.870  0.00  0.00    +0.000 A 
ATOM     17  H   UNL     1       5.200  -6.802  -3.728  0.00  0.00    +0.000 HD
ENDBRANCH   2   5
BRANCH   1  19
ATOM     18  C   UNL     1       0.920   0.090  -0.028  0.00  0.00    +0.000 C 
ATOM     19  C   UNL     1       2.447   0.123  -0.032  0.00  0.00    +0.000 C 
BRANCH  19  20
ATOM     20  C   UNL     1       2.926   1.297  -0.831  0.00  0.00    +0.000 A 
ATOM     21  N   UNL     1       3.222   1.333  -2.118  0.00  0.00    +0.000 NA
ATOM     22  C   UNL     1       3.566   2.642  -2.328  0.00  0.00    +0.000 A 
ATOM     23  C   UNL     1       3.471   3.367  -1.158  0.00  0.00    +0.000 A 
ATOM     24  O   UNL     1       3.055   2.498  -0.180  0.00  0.00    +0.000 OA
BRANCH  23  25
ATOM     25  C   UNL     1       3.717   4.756  -0.790  0.00  0.00    +0.000 A 
ATOM     26  C   UNL     1       4.031   5.696  -1.790  0.00  0.00    +0.000 A 
ATOM     27  C   UNL     1       4.324   7.022  -1.464  0.00  0.00    +0.000 A 
ATOM     28  C   UNL     1       4.301   7.421  -0.136  0.00  0.00    +0.000 A 
ATOM     29  F   UNL     1       4.602   8.687   0.178  0.00  0.00    +0.000 F 
ATOM     30  C   UNL     1       3.974   6.521   0.871  0.00  0.00    +0.000 A 
ATOM     31  C   UNL     1       3.679   5.191   0.544  0.00  0.00    +0.000 A 
ENDBRANCH  23  25
ENDBRANCH  19  20
ENDBRANCH   1  19
TORSDOF 4
