REMARK  Name = 
REMARK  5 active torsions:
REMARK  status: ('A' for Active; 'I' for Inactive)
REMARK    1  A    between atoms: C_2  and  C_3
REMARK    2  A    between atoms: C_8  and  O_9
REMARK    3  A    between atoms: O_9  and  C_10
REMARK    4  A    between atoms: C_19  and  O_20
REMARK    5  A    between atoms: C_19  and  C_21
REMARK                            x       y       z     vdW  Elec       q    Type
REMARK                         _______ _______ _______ _____ _____    ______ ____
ROOT
ATOM      1  O   UNL     1       1.265   0.217   0.069  0.00  0.00    +0.000 OA
ATOM      2  C   UNL     1       2.469   0.471   0.179  0.00  0.00    +0.000 C 
ATOM      3  N   UNL     1       2.946   1.056   1.327  0.00  0.00    +0.000 N 
ATOM      4  C   UNL     1       2.139   1.174   2.544  0.00  0.00    +0.000 C 
ATOM      5  C   UNL     1       3.452   1.530   3.299  0.00  0.00    +0.000 C 
ATOM      6  C   UNL     1       4.182   0.868   2.073  0.00  0.00    +0.000 C 
ENDROOT
BRANCH   5   7
ATOM      7  C   UNL     1       3.694   0.849   4.742  0.00  0.00    +0.000 A 
ATOM      8  C   UNL     1       2.637   0.469   5.603  0.00  0.00    +0.000 A 
ATOM      9  C   UNL     1       2.866  -0.045   6.885  0.00  0.00    +0.000 A 
ATOM     10  C   UNL     1       4.167  -0.186   7.342  0.00  0.00    +0.000 A 
ATOM     11  F   UNL     1       4.387  -0.664   8.581  0.00  0.00    +0.000 F 
ATOM     12  C   UNL     1       5.228   0.171   6.531  0.00  0.00    +0.000 A 
ATOM     13  F   UNL     1       6.489   0.050   6.969  0.00  0.00    +0.000 F 
ATOM     14  C   UNL     1       4.999   0.680   5.253  0.00  0.00    +0.000 A 
ENDBRANCH   5   7
BRANCH   2  15
ATOM     15  C   UNL     1       3.348   0.107  -0.967  0.00  0.00    +0.000 A 
ATOM     16  C   UNL     1       2.896  -0.988  -1.729  0.00  0.00    +0.000 A 
ATOM     17  C   UNL     1       3.553  -1.329  -2.896  0.00  0.00    +0.000 A 
ATOM     18  N   UNL     1       4.587  -0.629  -3.386  0.00  0.00    +0.000 NA
ATOM     19  C   UNL     1       4.992   0.433  -2.656  0.00  0.00    +0.000 A 
ATOM     20  C   UNL     1       4.468   0.809  -1.413  0.00  0.00    +0.000 A 
BRANCH  20  21
ATOM     21  O   UNL     1       5.020   1.846  -0.695  0.00  0.00    +0.000 OA
BRANCH  21  22
ATOM     22  C   UNL     1       6.402   1.971  -0.744  0.00  0.00    +0.000 A 
ATOM     23  C   UNL     1       6.931   3.258  -0.831  0.00  0.00    +0.000 A 
ATOM     24  C   UNL     1       8.306   3.425  -1.036  0.00  0.00    +0.000 A 
ATOM     25  C   UNL     1       9.129   2.308  -1.152  0.00  0.00    +0.000 A 
ATOM     26  F   UNL     1      10.431   2.468  -1.425  0.00  0.00    +0.000 F 
ATOM     27  C   UNL     1       8.620   1.026  -0.998  0.00  0.00    +0.000 A 
ATOM     28  C   UNL     1       7.260   0.857  -0.752  0.00  0.00    +0.000 A 
ENDBRANCH  21  22
ENDBRANCH  20  21
ENDBRANCH   2  15
BRANCH   5  29
ATOM     29  O   UNL     1       3.694   2.966   3.412  0.00  0.00    +0.000 OA
ATOM     30  H   UNL     1       2.972   3.291   3.979  0.00  0.00    +0.000 HD
ENDBRANCH   5  29
TORSDOF 5
