REMARK  Name = 
REMARK  11 active torsions:
REMARK  status: ('A' for Active; 'I' for Inactive)
REMARK    1  A    between atoms: C_1  and  C_2
REMARK    2  A    between atoms: C_2  and  N_3
REMARK    3  A    between atoms: C_2  and  C_26
REMARK    4  A    between atoms: C_4  and  C_6
REMARK    5  A    between atoms: C_6  and  C_7
REMARK    6  A    between atoms: C_7  and  C_8
REMARK    7  A    between atoms: N_10  and  C_11
REMARK    8  A    between atoms: C_11  and  C_12
REMARK    9  A    between atoms: C_14  and  O_15
REMARK   10  A    between atoms: O_15  and  C_16
REMARK   11  A    between atoms: C_26  and  C_28
REMARK                            x       y       z     vdW  Elec       q    Type
REMARK                         _______ _______ _______ _____ _____    ______ ____
ROOT
ATOM      1  C   UNL     1       3.036   1.360   6.224  0.00  0.00    +0.000 C 
ATOM      2  O   UNL     1       2.353   0.727   7.024  0.00  0.00    +0.000 OA
ATOM      3  N   UNL     1       4.294   1.831   6.505  0.00  0.00    +0.000 N 
ATOM      4  H   UNL     1       4.788   2.410   5.840  0.00  0.00    +0.000 HD
ENDROOT
BRANCH   1   5
ATOM      5  C   UNL     1       2.551   1.656   4.822  0.00  0.00    +0.000 C 
BRANCH   5   6
ATOM      6  C   UNL     1       2.995   0.583   3.842  0.00  0.00    +0.000 C 
BRANCH   6   8
ATOM      7  N   UNL     1       1.159  -0.992   4.160  0.00  0.00    +0.000 N 
ATOM      8  C   UNL     1       2.514  -0.794   4.245  0.00  0.00    +0.000 C 
ATOM      9  O   UNL     1       3.303  -1.662   4.610  0.00  0.00    +0.000 OA
ATOM     10  H   UNL     1       0.535  -0.270   3.814  0.00  0.00    +0.000 HD
BRANCH   7  12
ATOM     11  C   UNL     1       0.842  -3.365   3.591  0.00  0.00    +0.000 C 
ATOM     12  C   UNL     1       0.545  -2.248   4.587  0.00  0.00    +0.000 C 
BRANCH  12  13
ATOM     13  C   UNL     1      -0.976  -2.056   4.707  0.00  0.00    +0.000 C 
ATOM     14  O   UNL     1      -1.560  -1.205   4.027  0.00  0.00    +0.000 OA
BRANCH  13  15
ATOM     15  C   UNL     1      -1.764  -2.929   5.635  0.00  0.00    +0.000 A 
ATOM     16  C   UNL     1      -1.172  -3.914   6.442  0.00  0.00    +0.000 A 
ATOM     17  C   UNL     1      -1.955  -4.691   7.304  0.00  0.00    +0.000 A 
ATOM     18  C   UNL     1      -3.332  -4.496   7.371  0.00  0.00    +0.000 A 
ATOM     19  C   UNL     1      -3.934  -3.530   6.566  0.00  0.00    +0.000 A 
ATOM     20  C   UNL     1      -3.156  -2.753   5.702  0.00  0.00    +0.000 A 
ENDBRANCH  13  15
ENDBRANCH  12  13
ENDBRANCH   7  12
ENDBRANCH   6   8
ENDBRANCH   5   6
ENDBRANCH   1   5
BRANCH   3  21
ATOM     21  C   UNL     1       4.899   1.654   7.808  0.00  0.00    +0.000 C 
BRANCH  21  22
ATOM     22  C   UNL     1       4.499   2.715   8.811  0.00  0.00    +0.000 A 
ATOM     23  C   UNL     1       3.337   2.557   9.563  0.00  0.00    +0.000 A 
ATOM     24  C   UNL     1       3.088   3.442  10.610  0.00  0.00    +0.000 A 
ATOM     25  C   UNL     1       3.930   4.532  10.795  0.00  0.00    +0.000 A 
ATOM     26  C   UNL     1       5.024   4.656   9.958  0.00  0.00    +0.000 A 
ATOM     27  N   UNL     1       5.336   3.769   8.986  0.00  0.00    +0.000 NA
BRANCH  24  28
ATOM     28  O   UNL     1       2.025   3.341  11.480  0.00  0.00    +0.000 OA
BRANCH  28  29
ATOM     29  C   UNL     1       1.541   2.100  11.836  0.00  0.00    +0.000 A 
ATOM     30  C   UNL     1       2.323   0.943  11.946  0.00  0.00    +0.000 A 
ATOM     31  C   UNL     1       1.730  -0.281  12.264  0.00  0.00    +0.000 A 
ATOM     32  C   UNL     1       0.366  -0.340  12.539  0.00  0.00    +0.000 A 
ATOM     33  C   UNL     1      -0.389   0.828  12.504  0.00  0.00    +0.000 A 
ATOM     34  F   UNL     1      -1.693   0.776  12.806  0.00  0.00    +0.000 F 
ATOM     35  C   UNL     1       0.185   2.046  12.156  0.00  0.00    +0.000 A 
ENDBRANCH  28  29
ENDBRANCH  24  28
ENDBRANCH  21  22
ENDBRANCH   3  21
TORSDOF 10
