REMARK  Name = 
REMARK  11 active torsions:
REMARK  status: ('A' for Active; 'I' for Inactive)
REMARK    1  A    between atoms: C_1  and  O_2
REMARK    2  A    between atoms: O_2  and  C_3
REMARK    3  A    between atoms: C_5  and  C_6
REMARK    4  A    between atoms: N_8  and  C_9
REMARK    5  A    between atoms: C_9  and  C_10
REMARK    6  A    between atoms: C_9  and  C_17
REMARK    7  A    between atoms: N_19  and  C_20
REMARK    8  A    between atoms: C_25  and  O_26
REMARK    9  A    between atoms: O_26  and  C_27
REMARK   10  A    between atoms: C_27  and  C_28
REMARK   11  A    between atoms: N_30  and  C_31
REMARK                            x       y       z     vdW  Elec       q    Type
REMARK                         _______ _______ _______ _____ _____    ______ ____
ROOT
ATOM      1  C   UNL     1       3.207  -4.019   2.519  0.00  0.00    +0.000 C 
ATOM      2  O   UNL     1       2.037  -4.383   2.513  0.00  0.00    +0.000 OA
ATOM      3  N   UNL     1       4.262  -4.843   2.806  0.00  0.00    +0.000 N 
ATOM      4  H   UNL     1       5.226  -4.550   2.724  0.00  0.00    +0.000 HD
ENDROOT
BRANCH   1   7
ATOM      5  C   UNL     1       3.107  -0.643   0.848  0.00  0.00    +0.000 A 
ATOM      6  C   UNL     1       2.750  -1.927   1.272  0.00  0.00    +0.000 A 
ATOM      7  C   UNL     1       3.561  -2.622   2.175  0.00  0.00    +0.000 A 
ATOM      8  C   UNL     1       4.674  -1.999   2.740  0.00  0.00    +0.000 A 
ATOM      9  C   UNL     1       5.004  -0.700   2.363  0.00  0.00    +0.000 A 
ATOM     10  C   UNL     1       4.255  -0.030   1.385  0.00  0.00    +0.000 A 
BRANCH   5  12
ATOM     11  C   UNL     1       1.761  -0.705  -1.092  0.00  0.00    +0.000 C 
ATOM     12  O   UNL     1       2.365   0.072  -0.060  0.00  0.00    +0.000 OA
ENDBRANCH   5  12
BRANCH  10  13
ATOM     13  O   UNL     1       4.602   1.212   0.905  0.00  0.00    +0.000 OA
BRANCH  13  14
ATOM     14  C   UNL     1       5.987   1.551   1.060  0.00  0.00    +0.000 C 
BRANCH  14  15
ATOM     15  C   UNL     1       6.436   2.604   0.114  0.00  0.00    +0.000 A 
ATOM     16  C   UNL     1       5.694   3.390  -0.743  0.00  0.00    +0.000 A 
ATOM     17  N   UNL     1       6.588   4.146  -1.438  0.00  0.00    +0.000 N 
ATOM     18  C   UNL     1       6.296   5.059  -2.514  0.00  0.00    +0.000 C 
ATOM     19  N   UNL     1       7.866   3.946  -1.065  0.00  0.00    +0.000 NA
ATOM     20  C   UNL     1       7.771   3.006  -0.124  0.00  0.00    +0.000 A 
ENDBRANCH  14  15
ENDBRANCH  13  14
ENDBRANCH  10  13
ENDBRANCH   1   7
BRANCH   3  21
ATOM     21  C   UNL     1       4.072  -6.220   3.182  0.00  0.00    +0.000 C 
BRANCH  21  22
ATOM     22  C   UNL     1       4.139  -7.170   1.997  0.00  0.00    +0.000 A 
ATOM     23  C   UNL     1       5.247  -7.212   1.126  0.00  0.00    +0.000 A 
ATOM     24  C   UNL     1       5.311  -8.155   0.099  0.00  0.00    +0.000 A 
ATOM     25  C   UNL     1       4.264  -9.049  -0.075  0.00  0.00    +0.000 A 
ATOM     26  F   UNL     1       4.339  -9.973  -1.042  0.00  0.00    +0.000 F 
ATOM     27  C   UNL     1       3.142  -9.004   0.742  0.00  0.00    +0.000 A 
ATOM     28  C   UNL     1       3.076  -8.064   1.772  0.00  0.00    +0.000 A 
ENDBRANCH  21  22
BRANCH  21  29
ATOM     29  C   UNL     1       5.189  -6.645   4.111  0.00  0.00    +0.000 A 
ATOM     30  N   UNL     1       6.419  -6.090   4.063  0.00  0.00    +0.000 NA
ATOM     31  N   UNL     1       7.113  -6.760   5.005  0.00  0.00    +0.000 N 
ATOM     32  C   UNL     1       8.511  -6.490   5.215  0.00  0.00    +0.000 C 
ATOM     33  C   UNL     1       6.358  -7.669   5.687  0.00  0.00    +0.000 A 
ATOM     34  C   UNL     1       5.105  -7.623   5.133  0.00  0.00    +0.000 A 
ENDBRANCH  21  29
ENDBRANCH   3  21
TORSDOF 8
