REMARK  Name = 
REMARK  4 active torsions:
REMARK  status: ('A' for Active; 'I' for Inactive)
REMARK    1  A    between atoms: C_1  and  C_2
REMARK    2  A    between atoms: C_3  and  C_4
REMARK    3  A    between atoms: N_6  and  C_7
REMARK    4  A    between atoms: N_9  and  C_10
REMARK                            x       y       z     vdW  Elec       q    Type
REMARK                         _______ _______ _______ _____ _____    ______ ____
ROOT
ATOM      1  C   UNL     1       2.285  -2.442  -0.262  0.00  0.00    +0.000 C 
ATOM      2  O   UNL     1       1.118  -2.345  -0.626  0.00  0.00    +0.000 OA
ATOM      3  N   UNL     1       2.966  -3.652  -0.110  0.00  0.00    +0.000 N 
ATOM      4  H   UNL     1       3.869  -3.626   0.345  0.00  0.00    +0.000 HD
ENDROOT
BRANCH   1   7
ATOM      5  C   UNL     1       1.002  -0.078   1.072  0.00  0.00    +0.000 C 
ATOM      6  C   UNL     1       2.436  -0.121   0.596  0.00  0.00    +0.000 A 
ATOM      7  C   UNL     1       3.063  -1.199   0.068  0.00  0.00    +0.000 A 
ATOM      8  N   UNL     1       4.388  -1.158  -0.298  0.00  0.00    +0.000 N 
ATOM      9  C   UNL     1       5.179  -0.037  -0.241  0.00  0.00    +0.000 A 
ATOM     10  O   UNL     1       6.351  -0.067  -0.598  0.00  0.00    +0.000 OA
ATOM     11  C   UNL     1       4.531   1.205   0.236  0.00  0.00    +0.000 A 
ATOM     12  C   UNL     1       5.243   2.415   0.206  0.00  0.00    +0.000 A 
ATOM     13  C   UNL     1       4.621   3.600   0.600  0.00  0.00    +0.000 A 
ATOM     14  C   UNL     1       3.302   3.574   1.040  0.00  0.00    +0.000 A 
ATOM     15  C   UNL     1       2.599   2.368   1.077  0.00  0.00    +0.000 A 
ATOM     16  C   UNL     1       3.193   1.161   0.666  0.00  0.00    +0.000 A 
ATOM     17  H   UNL     1       4.820  -1.957  -0.748  0.00  0.00    +0.000 HD
ENDBRANCH   1   7
BRANCH   3  18
ATOM     18  C   UNL     1       2.366  -4.895  -0.271  0.00  0.00    +0.000 A 
ATOM     19  C   UNL     1       1.208  -5.080  -0.925  0.00  0.00    +0.000 A 
ATOM     20  N   UNL     1       0.491  -6.270  -0.914  0.00  0.00    +0.000 N 
ATOM     21  C   UNL     1       0.989  -7.396  -0.239  0.00  0.00    +0.000 A 
ATOM     22  O   UNL     1       0.417  -8.472  -0.078  0.00  0.00    +0.000 OA
ATOM     23  C   UNL     1       2.338  -7.226   0.381  0.00  0.00    +0.000 A 
ATOM     24  C   UNL     1       2.979  -6.049   0.352  0.00  0.00    +0.000 A 
BRANCH  20  25
ATOM     25  C   UNL     1      -0.850  -6.289  -1.428  0.00  0.00    +0.000 A 
ATOM     26  C   UNL     1      -1.706  -5.196  -1.197  0.00  0.00    +0.000 A 
ATOM     27  C   UNL     1      -3.025  -5.208  -1.651  0.00  0.00    +0.000 A 
ATOM     28  C   UNL     1      -3.496  -6.299  -2.375  0.00  0.00    +0.000 A 
ATOM     29  C   UNL     1      -2.650  -7.376  -2.639  0.00  0.00    +0.000 A 
ATOM     30  C   UNL     1      -1.338  -7.379  -2.155  0.00  0.00    +0.000 A 
ENDBRANCH  20  25
ENDBRANCH   3  18
TORSDOF 3
