REMARK  Name = 
REMARK  5 active torsions:
REMARK  status: ('A' for Active; 'I' for Inactive)
REMARK    1  A    between atoms: C_2  and  C_19
REMARK    2  A    between atoms: N_3  and  C_4
REMARK    3  A    between atoms: C_7  and  N_8
REMARK    4  A    between atoms: C_11  and  C_12
REMARK    5  A    between atoms: C_22  and  O_23
REMARK                            x       y       z     vdW  Elec       q    Type
REMARK                         _______ _______ _______ _____ _____    ______ ____
ROOT
ATOM      1  O   UNL     1       1.202  -0.381  -0.762  0.00  0.00    +0.000 OA
ATOM      2  C   UNL     1       2.226  -0.087  -0.158  0.00  0.00    +0.000 C 
ATOM      3  N   UNL     1       2.726  -0.719   0.971  0.00  0.00    +0.000 N 
ATOM      4  H   UNL     1       3.503  -0.289   1.458  0.00  0.00    +0.000 HD
ENDROOT
BRANCH   2   5
ATOM      5  C   UNL     1       3.013   1.067  -0.652  0.00  0.00    +0.000 A 
ATOM      6  C   UNL     1       4.401   0.967  -0.691  0.00  0.00    +0.000 A 
ATOM      7  N   UNL     1       5.221   1.937  -1.150  0.00  0.00    +0.000 NA
ATOM      8  C   UNL     1       4.610   3.034  -1.633  0.00  0.00    +0.000 A 
ATOM      9  C   UNL     1       3.231   3.252  -1.688  0.00  0.00    +0.000 A 
ATOM     10  C   UNL     1       2.661   4.415  -2.235  0.00  0.00    +0.000 A 
ATOM     11  C   UNL     1       1.286   4.548  -2.234  0.00  0.00    +0.000 A 
ATOM     12  N   UNL     1       0.453   3.628  -1.721  0.00  0.00    +0.000 NA
ATOM     13  C   UNL     1       1.019   2.506  -1.207  0.00  0.00    +0.000 A 
ATOM     14  C   UNL     1       2.400   2.241  -1.167  0.00  0.00    +0.000 A 
BRANCH   8  15
ATOM     15  O   UNL     1       5.491   3.965  -2.083  0.00  0.00    +0.000 OA
ATOM     16  H   UNL     1       6.332   3.509  -1.896  0.00  0.00    +0.000 HD
ENDBRANCH   8  15
ENDBRANCH   2   5
BRANCH   3  17
ATOM     17  C   UNL     1       2.160  -1.844   1.611  0.00  0.00    +0.000 A 
ATOM     18  C   UNL     1       1.127  -2.602   1.058  0.00  0.00    +0.000 A 
ATOM     19  C   UNL     1       0.577  -3.682   1.753  0.00  0.00    +0.000 A 
ATOM     20  C   UNL     1       1.054  -4.022   3.022  0.00  0.00    +0.000 A 
ATOM     21  C   UNL     1       2.106  -3.280   3.576  0.00  0.00    +0.000 A 
ATOM     22  C   UNL     1       2.663  -2.207   2.866  0.00  0.00    +0.000 A 
BRANCH  20  23
ATOM     23  N   UNL     1       0.468  -5.092   3.752  0.00  0.00    +0.000 N 
ATOM     24  C   UNL     1      -0.514  -5.959   3.328  0.00  0.00    +0.000 A 
ATOM     25  C   UNL     1      -0.816  -6.781   4.385  0.00  0.00    +0.000 A 
ATOM     26  C   UNL     1       0.034  -6.364   5.435  0.00  0.00    +0.000 A 
ATOM     27  N   UNL     1       0.838  -5.359   5.032  0.00  0.00    +0.000 NA
BRANCH  26  28
ATOM     28  C   UNL     1       0.066  -6.933   6.828  0.00  0.00    +0.000 C 
ATOM     29  F   UNL     1      -0.875  -7.905   6.994  0.00  0.00    +0.000 F 
ATOM     30  F   UNL     1       1.262  -7.505   7.130  0.00  0.00    +0.000 F 
ATOM     31  F   UNL     1      -0.181  -5.996   7.780  0.00  0.00    +0.000 F 
ENDBRANCH  26  28
ENDBRANCH  20  23
ENDBRANCH   3  17
TORSDOF 5
