REMARK  Name = 
REMARK  6 active torsions:
REMARK  status: ('A' for Active; 'I' for Inactive)
REMARK    1  A    between atoms: C_2  and  C_15
REMARK    2  A    between atoms: N_3  and  C_4
REMARK    3  A    between atoms: C_4  and  C_5
REMARK    4  A    between atoms: C_5  and  N_6
REMARK    5  A    between atoms: C_19  and  O_20
REMARK    6  A    between atoms: O_20  and  C_21
REMARK                            x       y       z     vdW  Elec       q    Type
REMARK                         _______ _______ _______ _____ _____    ______ ____
ROOT
ATOM      1  O   UNL     1       0.952  -0.030  -0.259  0.00  0.00    +0.000 OA
ATOM      2  C   UNL     1       2.163   0.074  -0.087  0.00  0.00    +0.000 C 
ATOM      3  N   UNL     1       2.902   1.095  -0.631  0.00  0.00    +0.000 N 
ATOM      4  H   UNL     1       3.910   1.018  -0.681  0.00  0.00    +0.000 HD
ENDROOT
BRANCH   2   5
ATOM      5  C   UNL     1       2.867  -0.944   0.724  0.00  0.00    +0.000 A 
ATOM      6  C   UNL     1       2.271  -2.203   0.798  0.00  0.00    +0.000 A 
ATOM      7  C   UNL     1       2.826  -3.190   1.602  0.00  0.00    +0.000 A 
ATOM      8  F   UNL     1       2.171  -4.356   1.676  0.00  0.00    +0.000 F 
ATOM      9  C   UNL     1       4.020  -2.972   2.291  0.00  0.00    +0.000 A 
ATOM     10  C   UNL     1       4.584  -1.693   2.237  0.00  0.00    +0.000 A 
ATOM     11  F   UNL     1       5.687  -1.417   2.948  0.00  0.00    +0.000 F 
ATOM     12  C   UNL     1       4.020  -0.678   1.459  0.00  0.00    +0.000 A 
BRANCH   9  13
ATOM     13  O   UNL     1       4.675  -3.907   3.065  0.00  0.00    +0.000 OA
BRANCH  13  14
ATOM     14  C   UNL     1       4.612  -5.237   2.710  0.00  0.00    +0.000 A 
ATOM     15  C   UNL     1       4.548  -5.687   1.388  0.00  0.00    +0.000 A 
ATOM     16  C   UNL     1       4.344  -7.039   1.117  0.00  0.00    +0.000 A 
ATOM     17  C   UNL     1       4.296  -7.957   2.163  0.00  0.00    +0.000 A 
ATOM     18  C   UNL     1       4.475  -7.527   3.477  0.00  0.00    +0.000 A 
ATOM     19  C   UNL     1       4.633  -6.166   3.753  0.00  0.00    +0.000 A 
ENDBRANCH  13  14
ENDBRANCH   9  13
ENDBRANCH   2   5
BRANCH   3  20
ATOM     20  C   UNL     1       2.244   2.082  -1.480  0.00  0.00    +0.000 C 
BRANCH  20  21
ATOM     21  C   UNL     1       1.217   2.924  -0.717  0.00  0.00    +0.000 C 
BRANCH  21  22
ATOM     22  N   UNL     1       0.568   3.891  -1.568  0.00  0.00    +0.000 N 
ATOM     23  C   UNL     1      -0.611   3.716  -2.240  0.00  0.00    +0.000 A 
ATOM     24  N   UNL     1      -0.943   4.788  -2.929  0.00  0.00    +0.000 NA
ATOM     25  C   UNL     1       0.059   5.694  -2.677  0.00  0.00    +0.000 A 
ATOM     26  C   UNL     1       0.256   7.003  -3.127  0.00  0.00    +0.000 A 
ATOM     27  C   UNL     1       1.402   7.665  -2.676  0.00  0.00    +0.000 A 
ATOM     28  C   UNL     1       2.277   7.005  -1.817  0.00  0.00    +0.000 A 
ATOM     29  N   UNL     1       2.136   5.737  -1.358  0.00  0.00    +0.000 NA
ATOM     30  C   UNL     1       1.014   5.154  -1.824  0.00  0.00    +0.000 A 
ENDBRANCH  21  22
ENDBRANCH  20  21
ENDBRANCH   3  20
TORSDOF 6
