REMARK  Name = 
REMARK  7 active torsions:
REMARK  status: ('A' for Active; 'I' for Inactive)
REMARK    1  A    between atoms: C_2  and  C_3
REMARK    2  A    between atoms: C_3  and  C_4
REMARK    3  A    between atoms: C_10  and  O_11
REMARK    4  A    between atoms: N_14  and  C_15
REMARK    5  A    between atoms: C_15  and  C_16
REMARK    6  A    between atoms: C_18  and  C_19
REMARK    7  A    between atoms: C_21  and  O_22
REMARK                            x       y       z     vdW  Elec       q    Type
REMARK                         _______ _______ _______ _____ _____    ______ ____
ROOT
ATOM      1  O   UNL     1       1.109   0.756   0.098  0.00  0.00    +0.000 OA
ATOM      2  C   UNL     1       2.329   0.863   0.258  0.00  0.00    +0.000 C 
ATOM      3  N   UNL     1       3.147   0.716  -0.824  0.00  0.00    +0.000 N 
ATOM      4  H   UNL     1       2.653   0.513  -1.685  0.00  0.00    +0.000 HD
ENDROOT
BRANCH   2   5
ATOM      5  C   UNL     1       2.927   1.167   1.620  0.00  0.00    +0.000 C 
BRANCH   5   6
ATOM      6  C   UNL     1       3.293  -0.075   2.369  0.00  0.00    +0.000 A 
ATOM      7  C   UNL     1       2.417  -1.053   2.804  0.00  0.00    +0.000 A 
ATOM      8  N   UNL     1       3.127  -1.998   3.491  0.00  0.00    +0.000 N 
ATOM      9  C   UNL     1       4.460  -1.660   3.524  0.00  0.00    +0.000 A 
ATOM     10  C   UNL     1       5.542  -2.311   4.131  0.00  0.00    +0.000 A 
ATOM     11  C   UNL     1       6.808  -1.732   4.001  0.00  0.00    +0.000 A 
ATOM     12  C   UNL     1       6.969  -0.552   3.287  0.00  0.00    +0.000 A 
ATOM     13  C   UNL     1       5.886   0.094   2.693  0.00  0.00    +0.000 A 
ATOM     14  C   UNL     1       4.598  -0.466   2.812  0.00  0.00    +0.000 A 
ATOM     15  H   UNL     1       2.732  -2.821   3.925  0.00  0.00    +0.000 HD
BRANCH  12  16
ATOM     16  O   UNL     1       8.196   0.031   3.144  0.00  0.00    +0.000 OA
ATOM     17  H   UNL     1       8.840  -0.473   3.668  0.00  0.00    +0.000 HD
ENDBRANCH  12  16
ENDBRANCH   5   6
ENDBRANCH   2   5
BRANCH   3  18
ATOM     18  C   UNL     1       4.588   0.802  -0.885  0.00  0.00    +0.000 C 
BRANCH  18  19
ATOM     19  C   UNL     1       5.027   1.918  -1.795  0.00  0.00    +0.000 A 
ATOM     20  C   UNL     1       4.648   3.245  -1.525  0.00  0.00    +0.000 A 
ATOM     21  C   UNL     1       5.037   4.322  -2.345  0.00  0.00    +0.000 A 
ATOM     22  C   UNL     1       5.840   4.016  -3.455  0.00  0.00    +0.000 A 
ATOM     23  C   UNL     1       6.250   2.706  -3.722  0.00  0.00    +0.000 A 
ATOM     24  C   UNL     1       5.845   1.662  -2.896  0.00  0.00    +0.000 A 
BRANCH  21  25
ATOM     25  C   UNL     1       4.629   5.714  -2.030  0.00  0.00    +0.000 A 
ATOM     26  C   UNL     1       3.412   5.991  -1.374  0.00  0.00    +0.000 A 
ATOM     27  C   UNL     1       3.061   7.297  -1.033  0.00  0.00    +0.000 A 
ATOM     28  C   UNL     1       3.888   8.363  -1.353  0.00  0.00    +0.000 A 
ATOM     29  C   UNL     1       5.082   8.123  -2.025  0.00  0.00    +0.000 A 
ATOM     30  C   UNL     1       5.448   6.814  -2.354  0.00  0.00    +0.000 A 
BRANCH  27  31
ATOM     31  O   UNL     1       1.900   7.568  -0.368  0.00  0.00    +0.000 OA
ATOM     32  H   UNL     1       1.429   6.733  -0.210  0.00  0.00    +0.000 HD
ENDBRANCH  27  31
ENDBRANCH  21  25
ENDBRANCH  18  19
ENDBRANCH   3  18
TORSDOF 7
