REMARK  Name = 
REMARK  5 active torsions:
REMARK  status: ('A' for Active; 'I' for Inactive)
REMARK    1  A    between atoms: C_1  and  N_2
REMARK    2  A    between atoms: C_8  and  C_9
REMARK    3  A    between atoms: N_11  and  C_12
REMARK    4  A    between atoms: N_11  and  C_18
REMARK    5  A    between atoms: C_12  and  C_13
REMARK                            x       y       z     vdW  Elec       q    Type
REMARK                         _______ _______ _______ _____ _____    ______ ____
ROOT
ATOM      1  C   UNL     1       7.526   3.415   0.065  0.00  0.00    +0.000 C 
ATOM      2  O   UNL     1       6.952   2.329   0.167  0.00  0.00    +0.000 OA
ATOM      3  N   UNL     1       8.803   3.524  -0.519  0.00  0.00    +0.000 N 
ENDROOT
BRANCH   1  11
ATOM      4  C   UNL     1       3.146   6.524   5.204  0.00  0.00    +0.000 C 
ATOM      5  N   UNL     1       4.077   6.596   4.098  0.00  0.00    +0.000 N 
ATOM      6  C   UNL     1       4.474   7.816   3.610  0.00  0.00    +0.000 A 
ATOM      7  N   UNL     1       5.199   7.991   2.558  0.00  0.00    +0.000 NA
ATOM      8  C   UNL     1       5.637   6.848   1.876  0.00  0.00    +0.000 A 
ATOM      9  C   UNL     1       6.381   7.009   0.710  0.00  0.00    +0.000 A 
ATOM     10  C   UNL     1       6.914   5.898   0.044  0.00  0.00    +0.000 A 
ATOM     11  C   UNL     1       6.790   4.615   0.589  0.00  0.00    +0.000 A 
ATOM     12  C   UNL     1       5.949   4.439   1.700  0.00  0.00    +0.000 A 
ATOM     13  C   UNL     1       5.372   5.554   2.326  0.00  0.00    +0.000 A 
ATOM     14  C   UNL     1       4.470   5.411   3.487  0.00  0.00    +0.000 A 
ATOM     15  O   UNL     1       4.090   4.298   3.842  0.00  0.00    +0.000 OA
ENDBRANCH   1  11
BRANCH   3  16
ATOM     16  C   UNL     1       9.620   4.686  -0.480  0.00  0.00    +0.000 A 
ATOM     17  C   UNL     1      10.112   5.204  -1.686  0.00  0.00    +0.000 A 
ATOM     18  C   UNL     1      10.839   6.397  -1.693  0.00  0.00    +0.000 A 
ATOM     19  C   UNL     1      11.098   7.049  -0.492  0.00  0.00    +0.000 A 
ATOM     20  F   UNL     1      11.781   8.201  -0.507  0.00  0.00    +0.000 F 
ATOM     21  C   UNL     1      10.655   6.533   0.719  0.00  0.00    +0.000 A 
ATOM     22  C   UNL     1       9.922   5.350   0.718  0.00  0.00    +0.000 A 
ATOM     23  F   UNL     1       9.507   4.853   1.891  0.00  0.00    +0.000 F 
ENDBRANCH   3  16
BRANCH   3  24
ATOM     24  C   UNL     1       9.510   2.279  -0.862  0.00  0.00    +0.000 C 
BRANCH  24  25
ATOM     25  C   UNL     1       9.357   1.946  -2.302  0.00  0.00    +0.000 A 
ATOM     26  C   UNL     1       8.305   1.484  -3.065  0.00  0.00    +0.000 A 
ATOM     27  C   UNL     1       8.801   1.333  -4.382  0.00  0.00    +0.000 A 
ATOM     28  C   UNL     1      10.127   1.696  -4.337  0.00  0.00    +0.000 A 
ATOM     29  O   UNL     1      10.474   2.071  -3.079  0.00  0.00    +0.000 OA
ENDBRANCH  24  25
ENDBRANCH   3  24
TORSDOF 4
