REMARK  Name = 
REMARK  3 active torsions:
REMARK  status: ('A' for Active; 'I' for Inactive)
REMARK    1  A    between atoms: N_3  and  C_4
REMARK    2  A    between atoms: C_7  and  C_8
REMARK    3  A    between atoms: C_21  and  C_22
REMARK                            x       y       z     vdW  Elec       q    Type
REMARK                         _______ _______ _______ _____ _____    ______ ____
ROOT
ATOM      1  O   UNL     1       1.092  -0.370  -0.099  0.00  0.00    +0.000 OA
ATOM      2  C   UNL     1       2.270  -0.021  -0.046  0.00  0.00    +0.000 C 
ATOM      3  N   UNL     1       2.815   0.823   0.883  0.00  0.00    +0.000 N 
ATOM      4  N   UNL     1       3.127  -0.522  -0.989  0.00  0.00    +0.000 N 
ATOM      5  C   UNL     1       4.491  -0.339  -1.099  0.00  0.00    +0.000 A 
ATOM      6  N   UNL     1       5.177   0.554  -0.369  0.00  0.00    +0.000 NA
ATOM      7  O   UNL     1       6.499   0.410  -0.716  0.00  0.00    +0.000 OA
ATOM      8  C   UNL     1       6.611  -0.552  -1.656  0.00  0.00    +0.000 A 
ATOM      9  C   UNL     1       5.366  -1.050  -1.975  0.00  0.00    +0.000 A 
ATOM     10  H   UNL     1       3.773   1.102   0.693  0.00  0.00    +0.000 HD
ATOM     11  H   UNL     1       2.694  -1.204  -1.597  0.00  0.00    +0.000 HD
ENDROOT
BRANCH   9  12
ATOM     12  C   UNL     1       5.176  -2.141  -2.921  0.00  0.00    +0.000 A 
ATOM     13  C   UNL     1       6.007  -2.254  -4.050  0.00  0.00    +0.000 A 
ATOM     14  C   UNL     1       5.901  -3.357  -4.903  0.00  0.00    +0.000 A 
ATOM     15  C   UNL     1       4.958  -4.342  -4.641  0.00  0.00    +0.000 A 
ATOM     16  F   UNL     1       4.881  -5.411  -5.442  0.00  0.00    +0.000 F 
ATOM     17  C   UNL     1       4.100  -4.237  -3.558  0.00  0.00    +0.000 A 
ATOM     18  C   UNL     1       4.213  -3.139  -2.710  0.00  0.00    +0.000 A 
ATOM     19  F   UNL     1       3.380  -3.075  -1.662  0.00  0.00    +0.000 F 
ENDBRANCH   9  12
BRANCH   3  20
ATOM     20  C   UNL     1       2.195   1.421   1.990  0.00  0.00    +0.000 A 
ATOM     21  C   UNL     1       0.937   1.054   2.461  0.00  0.00    +0.000 A 
ATOM     22  C   UNL     1       0.372   1.720   3.553  0.00  0.00    +0.000 A 
ATOM     23  C   UNL     1       1.052   2.767   4.192  0.00  0.00    +0.000 A 
ATOM     24  C   UNL     1       2.327   3.112   3.729  0.00  0.00    +0.000 A 
ATOM     25  C   UNL     1       2.898   2.436   2.647  0.00  0.00    +0.000 A 
BRANCH  23  26
ATOM     26  C   UNL     1       0.422   3.512   5.287  0.00  0.00    +0.000 A 
ATOM     27  C   UNL     1      -0.447   3.017   6.180  0.00  0.00    +0.000 A 
ATOM     28  C   UNL     1      -0.894   4.191   6.959  0.00  0.00    +0.000 A 
ATOM     29  O   UNL     1      -1.625   4.148   7.928  0.00  0.00    +0.000 OA
ATOM     30  N   UNL     1      -0.323   5.304   6.370  0.00  0.00    +0.000 N 
ATOM     31  N   UNL     1       0.626   4.881   5.435  0.00  0.00    +0.000 N 
ATOM     32  H   UNL     1      -0.217   6.174   6.877  0.00  0.00    +0.000 HD
ATOM     33  H   UNL     1       0.583   5.365   4.534  0.00  0.00    +0.000 HD
ENDBRANCH  23  26
ENDBRANCH   3  20
TORSDOF 3
