REMARK  Name = 
REMARK  7 active torsions:
REMARK  status: ('A' for Active; 'I' for Inactive)
REMARK    1  A    between atoms: C_1  and  N_2
REMARK    2  A    between atoms: C_7  and  C_8
REMARK    3  A    between atoms: N_10  and  C_11
REMARK    4  A    between atoms: C_14  and  O_15
REMARK    5  A    between atoms: O_15  and  C_16
REMARK    6  A    between atoms: C_16  and  C_17
REMARK    7  A    between atoms: C_21  and  C_22
REMARK                            x       y       z     vdW  Elec       q    Type
REMARK                         _______ _______ _______ _____ _____    ______ ____
ROOT
ATOM      1  C   UNL     1      10.838  -1.349   0.094  0.00  0.00    +0.000 A 
ATOM      2  C   UNL     1      11.827  -1.067   1.038  0.00  0.00    +0.000 A 
ATOM      3  C   UNL     1      13.027  -1.769   1.060  0.00  0.00    +0.000 A 
ATOM      4  C   UNL     1      13.274  -2.761   0.117  0.00  0.00    +0.000 A 
ATOM      5  C   UNL     1      12.263  -3.089  -0.790  0.00  0.00    +0.000 A 
ATOM      6  F   UNL     1      12.459  -4.062  -1.694  0.00  0.00    +0.000 F 
ATOM      7  C   UNL     1      11.046  -2.398  -0.804  0.00  0.00    +0.000 A 
ENDROOT
BRANCH   1  10
ATOM      8  C   UNL     1       9.443   0.622   0.647  0.00  0.00    +0.000 C 
ATOM      9  O   UNL     1      10.303   1.302   1.196  0.00  0.00    +0.000 OA
ATOM     10  N   UNL     1       9.633  -0.613   0.040  0.00  0.00    +0.000 N 
ATOM     11  H   UNL     1       8.917  -0.956  -0.588  0.00  0.00    +0.000 HD
BRANCH   8  18
ATOM     12  C   UNL     1       2.304   1.717   0.412  0.00  0.00    +0.000 C 
ATOM     13  N   UNL     1       3.742   1.828   0.478  0.00  0.00    +0.000 N 
ATOM     14  C   UNL     1       4.463   2.983   0.466  0.00  0.00    +0.000 A 
ATOM     15  C   UNL     1       5.761   2.573   0.513  0.00  0.00    +0.000 A 
ATOM     16  N   UNL     1       6.851   3.370   0.515  0.00  0.00    +0.000 NA
ATOM     17  C   UNL     1       7.992   2.612   0.558  0.00  0.00    +0.000 A 
ATOM     18  C   UNL     1       8.086   1.195   0.576  0.00  0.00    +0.000 A 
ATOM     19  C   UNL     1       6.943   0.381   0.595  0.00  0.00    +0.000 A 
ATOM     20  C   UNL     1       5.757   1.130   0.554  0.00  0.00    +0.000 A 
ATOM     21  N   UNL     1       4.484   0.699   0.541  0.00  0.00    +0.000 NA
ENDBRANCH   8  18
ENDBRANCH   1  10
BRANCH   4  22
ATOM     22  O   UNL     1      14.459  -3.440   0.031  0.00  0.00    +0.000 OA
BRANCH  22  23
ATOM     23  C   UNL     1      15.581  -2.747   0.593  0.00  0.00    +0.000 C 
BRANCH  23  24
ATOM     24  C   UNL     1      16.877  -3.300   0.059  0.00  0.00    +0.000 A 
ATOM     25  C   UNL     1      18.052  -3.179   0.816  0.00  0.00    +0.000 A 
ATOM     26  C   UNL     1      19.268  -3.644   0.316  0.00  0.00    +0.000 A 
ATOM     27  C   UNL     1      19.323  -4.223  -0.952  0.00  0.00    +0.000 A 
ATOM     28  C   UNL     1      18.164  -4.326  -1.726  0.00  0.00    +0.000 A 
ATOM     29  C   UNL     1      16.948  -3.859  -1.224  0.00  0.00    +0.000 A 
BRANCH  28  30
ATOM     30  C   UNL     1      18.219  -4.900  -3.034  0.00  0.00    +0.000 C 
ATOM     31  N   UNL     1      18.257  -5.360  -4.101  0.00  0.00    +0.000 NA
ENDBRANCH  28  30
ENDBRANCH  23  24
ENDBRANCH  22  23
ENDBRANCH   4  22
TORSDOF 6
