REMARK  Name = 
REMARK  5 active torsions:
REMARK  status: ('A' for Active; 'I' for Inactive)
REMARK    1  A    between atoms: C_1  and  N_2
REMARK    2  A    between atoms: C_4  and  N_5
REMARK    3  A    between atoms: C_6  and  C_8
REMARK    4  A    between atoms: C_12  and  N_13
REMARK    5  A    between atoms: C_20  and  C_21
REMARK                            x       y       z     vdW  Elec       q    Type
REMARK                         _______ _______ _______ _____ _____    ______ ____
ROOT
ATOM      1  N   UNL     1       2.599  -1.588  -0.017  0.00  0.00    +0.000 N 
ATOM      2  C   UNL     1       2.512  -2.966  -0.095  0.00  0.00    +0.000 C 
ATOM      3  O   UNL     1       1.469  -3.606  -0.189  0.00  0.00    +0.000 OA
ATOM      4  H   UNL     1       3.429  -1.167  -0.420  0.00  0.00    +0.000 HD
ENDROOT
BRANCH   1   8
ATOM      5  C   UNL     1      -1.720   0.366   1.173  0.00  0.00    +0.000 C 
ATOM      6  N   UNL     1      -0.464   0.070   0.530  0.00  0.00    +0.000 N 
ATOM      7  C   UNL     1       0.422  -0.900   0.876  0.00  0.00    +0.000 A 
ATOM      8  C   UNL     1       1.460  -0.798  -0.020  0.00  0.00    +0.000 A 
ATOM      9  C   UNL     1       1.104   0.276  -0.898  0.00  0.00    +0.000 A 
ATOM     10  N   UNL     1      -0.085   0.795  -0.535  0.00  0.00    +0.000 NA
BRANCH   9  11
ATOM     11  C   UNL     1       1.778   0.757  -2.108  0.00  0.00    +0.000 A 
ATOM     12  C   UNL     1       1.012   1.300  -3.159  0.00  0.00    +0.000 A 
ATOM     13  C   UNL     1       1.623   1.759  -4.329  0.00  0.00    +0.000 A 
ATOM     14  C   UNL     1       3.003   1.675  -4.456  0.00  0.00    +0.000 A 
ATOM     15  F   UNL     1       3.593   2.122  -5.572  0.00  0.00    +0.000 F 
ATOM     16  C   UNL     1       3.781   1.138  -3.443  0.00  0.00    +0.000 A 
ATOM     17  C   UNL     1       3.166   0.686  -2.278  0.00  0.00    +0.000 A 
ATOM     18  F   UNL     1       3.959   0.185  -1.318  0.00  0.00    +0.000 F 
ENDBRANCH   9  11
ENDBRANCH   1   8
BRANCH   2  19
ATOM     19  C   UNL     1       3.814  -3.702  -0.122  0.00  0.00    +0.000 A 
ATOM     20  C   UNL     1       4.963  -3.188   0.482  0.00  0.00    +0.000 A 
ATOM     21  C   UNL     1       6.109  -3.979   0.553  0.00  0.00    +0.000 A 
ATOM     22  C   UNL     1       6.106  -5.280   0.041  0.00  0.00    +0.000 A 
ATOM     23  C   UNL     1       4.967  -5.812  -0.579  0.00  0.00    +0.000 A 
ATOM     24  C   UNL     1       3.833  -4.995  -0.674  0.00  0.00    +0.000 A 
BRANCH  23  25
ATOM     25  N   UNL     1       4.925  -7.161  -1.027  0.00  0.00    +0.000 N 
ATOM     26  C   UNL     1       3.797  -7.886  -1.403  0.00  0.00    +0.000 A 
ATOM     27  C   UNL     1       4.144  -9.144  -1.702  0.00  0.00    +0.000 A 
ATOM     28  N   UNL     1       5.501  -9.271  -1.552  0.00  0.00    +0.000 N 
ATOM     29  C   UNL     1       6.050  -8.055  -1.124  0.00  0.00    +0.000 A 
ATOM     30  O   UNL     1       7.239  -7.871  -0.902  0.00  0.00    +0.000 OA
ATOM     31  H   UNL     1       6.050 -10.098  -1.699  0.00  0.00    +0.000 HD
ENDBRANCH  23  25
ENDBRANCH   2  19
TORSDOF 4
