REMARK  Name = 
REMARK  5 active torsions:
REMARK  status: ('A' for Active; 'I' for Inactive)
REMARK    1  A    between atoms: C_2  and  C_4
REMARK    2  A    between atoms: C_9  and  O_10
REMARK    3  A    between atoms: O_10  and  C_11
REMARK    4  A    between atoms: C_15  and  N_16
REMARK    5  A    between atoms: C_17  and  C_19
REMARK                            x       y       z     vdW  Elec       q    Type
REMARK                         _______ _______ _______ _____ _____    ______ ____
ROOT
ATOM      1  C   UNL     1       3.860   0.930  -2.052  0.00  0.00    +0.000 A 
ATOM      2  C   UNL     1       2.660   1.626  -2.234  0.00  0.00    +0.000 A 
ATOM      3  C   UNL     1       1.733   1.162  -3.151  0.00  0.00    +0.000 A 
ATOM      4  C   UNL     1       2.058   0.089  -3.976  0.00  0.00    +0.000 A 
ATOM      5  C   UNL     1       3.331  -0.497  -3.950  0.00  0.00    +0.000 A 
ATOM      6  C   UNL     1       4.220  -0.102  -2.938  0.00  0.00    +0.000 A 
ENDROOT
BRANCH   5   7
ATOM      7  N   UNL     1       3.730  -1.466  -4.919  0.00  0.00    +0.000 N 
ATOM      8  C   UNL     1       3.083  -1.637  -6.136  0.00  0.00    +0.000 C 
ATOM      9  O   UNL     1       2.131  -0.965  -6.530  0.00  0.00    +0.000 OA
ATOM     10  H   UNL     1       4.639  -1.892  -4.797  0.00  0.00    +0.000 HD
BRANCH   8  11
ATOM     11  C   UNL     1       3.619  -2.704  -7.051  0.00  0.00    +0.000 A 
ATOM     12  C   UNL     1       3.287  -2.577  -8.349  0.00  0.00    +0.000 A 
ATOM     13  C   UNL     1       3.617  -3.608  -9.253  0.00  0.00    +0.000 A 
ATOM     14  C   UNL     1       3.370  -3.808 -10.594  0.00  0.00    +0.000 A 
ATOM     15  C   UNL     1       3.887  -5.080 -10.928  0.00  0.00    +0.000 A 
ATOM     16  C   UNL     1       4.456  -5.606  -9.787  0.00  0.00    +0.000 A 
ATOM     17  N   UNL     1       4.294  -4.705  -8.749  0.00  0.00    +0.000 N 
ATOM     18  C   UNL     1       4.698  -4.864  -7.406  0.00  0.00    +0.000 A 
ATOM     19  O   UNL     1       5.295  -5.865  -7.037  0.00  0.00    +0.000 OA
ATOM     20  N   UNL     1       4.320  -3.803  -6.602  0.00  0.00    +0.000 N 
ATOM     21  H   UNL     1       4.498  -3.928  -5.614  0.00  0.00    +0.000 HD
ENDBRANCH   8  11
ENDBRANCH   5   7
BRANCH   1  22
ATOM     22  O   UNL     1       4.723   1.235  -1.010  0.00  0.00    +0.000 OA
BRANCH  22  28
ATOM     23  C   UNL     1       4.830   2.451   1.088  0.00  0.00    +0.000 A 
ATOM     24  C   UNL     1       4.230   2.769   2.325  0.00  0.00    +0.000 A 
ATOM     25  C   UNL     1       2.994   2.235   2.695  0.00  0.00    +0.000 A 
ATOM     26  C   UNL     1       2.358   1.334   1.855  0.00  0.00    +0.000 A 
ATOM     27  C   UNL     1       2.964   0.960   0.656  0.00  0.00    +0.000 A 
ATOM     28  C   UNL     1       4.172   1.551   0.228  0.00  0.00    +0.000 A 
BRANCH  23  30
ATOM     29  N   UNL     1       6.716   2.968  -0.414  0.00  0.00    +0.000 N 
ATOM     30  C   UNL     1       6.123   3.145   0.799  0.00  0.00    +0.000 C 
ATOM     31  O   UNL     1       6.648   3.888   1.626  0.00  0.00    +0.000 OA
ATOM     32  H   UNL     1       7.563   3.487  -0.603  0.00  0.00    +0.000 HD
ATOM     33  H   UNL     1       6.304   2.401  -1.141  0.00  0.00    +0.000 HD
ENDBRANCH  23  30
ENDBRANCH  22  28
ENDBRANCH   1  22
TORSDOF 5
