REMARK  Name = 
REMARK  6 active torsions:
REMARK  status: ('A' for Active; 'I' for Inactive)
REMARK    1  A    between atoms: C_2  and  O_3
REMARK    2  A    between atoms: C_2  and  C_4
REMARK    3  A    between atoms: C_7  and  C_8
REMARK    4  A    between atoms: N_10  and  C_11
REMARK    5  A    between atoms: C_14  and  N_15
REMARK    6  A    between atoms: C_24  and  C_25
REMARK                            x       y       z     vdW  Elec       q    Type
REMARK                         _______ _______ _______ _____ _____    ______ ____
ROOT
ATOM      1  C   UNL     1       4.931  -5.085  -0.622  0.00  0.00    +0.000 C 
ATOM      2  O   UNL     1       5.266  -5.486   0.488  0.00  0.00    +0.000 OA
ATOM      3  N   UNL     1       4.973  -5.788  -1.812  0.00  0.00    +0.000 N 
ATOM      4  H   UNL     1       4.742  -5.298  -2.666  0.00  0.00    +0.000 HD
ENDROOT
BRANCH   3   5
ATOM      5  C   UNL     1       5.458  -7.111  -1.971  0.00  0.00    +0.000 A 
ATOM      6  C   UNL     1       5.764  -7.953  -0.900  0.00  0.00    +0.000 A 
ATOM      7  C   UNL     1       6.307  -9.228  -1.114  0.00  0.00    +0.000 A 
ATOM      8  C   UNL     1       6.579  -9.667  -2.411  0.00  0.00    +0.000 A 
ATOM      9  C   UNL     1       6.241  -8.843  -3.488  0.00  0.00    +0.000 A 
ATOM     10  C   UNL     1       5.654  -7.589  -3.273  0.00  0.00    +0.000 A 
BRANCH   8  11
ATOM     11  N   UNL     1       7.239 -10.916  -2.628  0.00  0.00    +0.000 N 
ATOM     12  C   UNL     1       8.379 -10.969  -3.425  0.00  0.00    +0.000 A 
ATOM     13  C   UNL     1       9.037 -12.113  -3.647  0.00  0.00    +0.000 A 
ATOM     14  C   UNL     1       8.539 -13.345  -3.099  0.00  0.00    +0.000 A 
ATOM     15  C   UNL     1       7.455 -13.345  -2.316  0.00  0.00    +0.000 A 
ATOM     16  C   UNL     1       6.742 -12.073  -1.999  0.00  0.00    +0.000 A 
ATOM     17  O   UNL     1       5.757 -12.137  -1.264  0.00  0.00    +0.000 OA
ENDBRANCH   8  11
ENDBRANCH   3   5
BRANCH   1  21
ATOM     18  C   UNL     1       2.964  -1.304  -0.288  0.00  0.00    +0.000 A 
ATOM     19  C   UNL     1       2.517  -2.255  -1.212  0.00  0.00    +0.000 A 
ATOM     20  C   UNL     1       3.216  -3.453  -1.391  0.00  0.00    +0.000 A 
ATOM     21  C   UNL     1       4.390  -3.702  -0.661  0.00  0.00    +0.000 A 
ATOM     22  C   UNL     1       4.907  -2.710   0.198  0.00  0.00    +0.000 A 
ATOM     23  C   UNL     1       4.154  -1.533   0.411  0.00  0.00    +0.000 A 
BRANCH  22  24
ATOM     24  C   UNL     1       6.233  -2.824   0.920  0.00  0.00    +0.000 C 
ATOM     25  F   UNL     1       7.107  -3.739   0.431  0.00  0.00    +0.000 F 
ATOM     26  F   UNL     1       6.910  -1.634   0.829  0.00  0.00    +0.000 F 
ATOM     27  F   UNL     1       6.098  -3.047   2.253  0.00  0.00    +0.000 F 
ENDBRANCH  22  24
BRANCH  18  29
ATOM     28  O   UNL     1       0.896  -0.147  -0.176  0.00  0.00    +0.000 OA
ATOM     29  C   UNL     1       2.106  -0.119  -0.028  0.00  0.00    +0.000 C 
BRANCH  29  30
ATOM     30  O   UNL     1       2.777   0.985   0.355  0.00  0.00    +0.000 OA
ATOM     31  H   UNL     1       3.747   0.950   0.279  0.00  0.00    +0.000 HD
ENDBRANCH  29  30
ENDBRANCH  18  29
ENDBRANCH   1  21
TORSDOF 6
