REMARK  Name = 
REMARK  7 active torsions:
REMARK  status: ('A' for Active; 'I' for Inactive)
REMARK    1  A    between atoms: C_2  and  C_3
REMARK    2  A    between atoms: C_5  and  N_6
REMARK    3  A    between atoms: C_9  and  C_10
REMARK    4  A    between atoms: N_12  and  C_13
REMARK    5  A    between atoms: C_13  and  C_14
REMARK    6  A    between atoms: C_16  and  O_17
REMARK    7  A    between atoms: O_17  and  C_18
REMARK                            x       y       z     vdW  Elec       q    Type
REMARK                         _______ _______ _______ _____ _____    ______ ____
ROOT
ATOM      1  C   UNL     1       5.230  -4.106   1.469  0.00  0.00    +0.000 C 
ATOM      2  O   UNL     1       6.362  -4.295   1.032  0.00  0.00    +0.000 OA
ATOM      3  N   UNL     1       4.852  -4.482   2.736  0.00  0.00    +0.000 N 
ATOM      4  H   UNL     1       3.899  -4.286   3.021  0.00  0.00    +0.000 HD
ENDROOT
BRANCH   1   8
ATOM      5  N   UNL     1       2.300  -2.636   0.013  0.00  0.00    +0.000 N 
ATOM      6  C   UNL     1       3.140  -2.546  -1.073  0.00  0.00    +0.000 A 
ATOM      7  C   UNL     1       4.347  -3.070  -0.695  0.00  0.00    +0.000 A 
ATOM      8  C   UNL     1       4.183  -3.462   0.654  0.00  0.00    +0.000 A 
ATOM      9  N   UNL     1       2.941  -3.171   1.097  0.00  0.00    +0.000 NA
BRANCH   5  12
ATOM     10  C   UNL     1      -1.129  -1.937   1.325  0.00  0.00    +0.000 A 
ATOM     11  C   UNL     1       0.221  -2.316   1.275  0.00  0.00    +0.000 A 
ATOM     12  C   UNL     1       0.927  -2.247   0.064  0.00  0.00    +0.000 A 
ATOM     13  C   UNL     1       0.262  -1.799  -1.091  0.00  0.00    +0.000 A 
ATOM     14  C   UNL     1      -1.085  -1.432  -1.039  0.00  0.00    +0.000 A 
ATOM     15  C   UNL     1      -1.780  -1.500   0.166  0.00  0.00    +0.000 A 
BRANCH  10  17
ATOM     16  N   UNL     1      -2.439  -2.022   3.563  0.00  0.00    +0.000 NA
ATOM     17  C   UNL     1      -1.848  -1.990   2.564  0.00  0.00    +0.000 C 
ENDBRANCH  10  17
ENDBRANCH   5  12
ENDBRANCH   1   8
BRANCH   3  18
ATOM     18  C   UNL     1       5.753  -5.194   3.629  0.00  0.00    +0.000 C 
BRANCH  18  19
ATOM     19  C   UNL     1       6.073  -4.400   4.875  0.00  0.00    +0.000 A 
ATOM     20  C   UNL     1       6.679  -3.155   4.762  0.00  0.00    +0.000 A 
ATOM     21  C   UNL     1       6.779  -2.355   5.897  0.00  0.00    +0.000 A 
ATOM     22  C   UNL     1       6.440  -2.883   7.136  0.00  0.00    +0.000 A 
ATOM     23  C   UNL     1       5.926  -4.166   7.174  0.00  0.00    +0.000 A 
ATOM     24  N   UNL     1       5.703  -4.918   6.073  0.00  0.00    +0.000 NA
BRANCH  21  25
ATOM     25  O   UNL     1       7.219  -1.050   5.883  0.00  0.00    +0.000 OA
BRANCH  25  26
ATOM     26  C   UNL     1       6.947  -0.251   4.792  0.00  0.00    +0.000 A 
ATOM     27  C   UNL     1       5.811  -0.375   3.978  0.00  0.00    +0.000 A 
ATOM     28  C   UNL     1       5.663   0.432   2.848  0.00  0.00    +0.000 A 
ATOM     29  C   UNL     1       6.614   1.408   2.578  0.00  0.00    +0.000 A 
ATOM     30  F   UNL     1       6.471   2.182   1.493  0.00  0.00    +0.000 F 
ATOM     31  C   UNL     1       7.699   1.587   3.430  0.00  0.00    +0.000 A 
ATOM     32  F   UNL     1       8.594   2.554   3.184  0.00  0.00    +0.000 F 
ATOM     33  C   UNL     1       7.873   0.762   4.537  0.00  0.00    +0.000 A 
ENDBRANCH  25  26
ENDBRANCH  21  25
ENDBRANCH  18  19
ENDBRANCH   3  18
TORSDOF 7
