REMARK  Name = 
REMARK  7 active torsions:
REMARK  status: ('A' for Active; 'I' for Inactive)
REMARK    1  A    between atoms: C_2  and  C_15
REMARK    2  A    between atoms: N_3  and  C_4
REMARK    3  A    between atoms: C_8  and  O_9
REMARK    4  A    between atoms: O_9  and  C_10
REMARK    5  A    between atoms: C_10  and  C_11
REMARK    6  A    between atoms: C_16  and  C_17
REMARK    7  A    between atoms: C_23  and  C_24
REMARK                            x       y       z     vdW  Elec       q    Type
REMARK                         _______ _______ _______ _____ _____    ______ ____
ROOT
ATOM      1  C   UNL     1       2.842  -0.750   0.981  0.00  0.00    +0.000 A 
ATOM      2  C   UNL     1       3.881  -0.275   1.707  0.00  0.00    +0.000 A 
ATOM      3  C   UNL     1       4.547  -1.247   2.660  0.00  0.00    +0.000 A 
ATOM      4  N   UNL     1       4.224  -2.507   2.734  0.00  0.00    +0.000 NA
ATOM      5  N   UNL     1       3.254  -2.961   1.915  0.00  0.00    +0.000 N 
ATOM      6  C   UNL     1       2.543  -2.215   1.019  0.00  0.00    +0.000 A 
ATOM      7  O   UNL     1       1.716  -2.732   0.272  0.00  0.00    +0.000 OA
ATOM      8  H   UNL     1       3.038  -3.953   1.963  0.00  0.00    +0.000 HD
ENDROOT
BRANCH   3   9
ATOM      9  C   UNL     1       5.586  -0.793   3.664  0.00  0.00    +0.000 A 
ATOM     10  C   UNL     1       5.590  -1.387   4.937  0.00  0.00    +0.000 A 
ATOM     11  C   UNL     1       6.504  -1.002   5.928  0.00  0.00    +0.000 A 
ATOM     12  C   UNL     1       7.425   0.011   5.659  0.00  0.00    +0.000 A 
ATOM     13  C   UNL     1       7.462   0.586   4.396  0.00  0.00    +0.000 A 
ATOM     14  C   UNL     1       6.587   0.143   3.397  0.00  0.00    +0.000 A 
ENDBRANCH   3   9
BRANCH   2  15
ATOM     15  C   UNL     1       4.342   1.126   1.579  0.00  0.00    +0.000 A 
ATOM     16  C   UNL     1       3.881   2.120   2.451  0.00  0.00    +0.000 A 
ATOM     17  C   UNL     1       4.424   3.407   2.399  0.00  0.00    +0.000 A 
ATOM     18  C   UNL     1       5.444   3.703   1.496  0.00  0.00    +0.000 A 
ATOM     19  C   UNL     1       5.889   2.728   0.604  0.00  0.00    +0.000 A 
ATOM     20  C   UNL     1       5.320   1.453   0.622  0.00  0.00    +0.000 A 
ENDBRANCH   2  15
BRANCH   1  22
ATOM     21  O   UNL     1       1.713   1.293   0.507  0.00  0.00    +0.000 OA
ATOM     22  C   UNL     1       1.950   0.139   0.157  0.00  0.00    +0.000 C 
ATOM     23  N   UNL     1       1.453  -0.425  -0.995  0.00  0.00    +0.000 N 
ATOM     24  H   UNL     1       1.782  -1.334  -1.308  0.00  0.00    +0.000 HD
BRANCH  23  25
ATOM     25  C   UNL     1       0.539   0.214  -1.818  0.00  0.00    +0.000 A 
ATOM     26  C   UNL     1      -0.510   1.020  -1.444  0.00  0.00    +0.000 A 
ATOM     27  N   UNL     1      -1.133   1.396  -2.600  0.00  0.00    +0.000 N 
ATOM     28  N   UNL     1      -0.526   0.939  -3.712  0.00  0.00    +0.000 NA
ATOM     29  C   UNL     1       0.476   0.206  -3.225  0.00  0.00    +0.000 A 
ATOM     30  H   UNL     1      -1.966   1.968  -2.705  0.00  0.00    +0.000 HD
BRANCH  29  31
ATOM     31  O   UNL     1       1.365  -0.361  -4.066  0.00  0.00    +0.000 OA
BRANCH  31  32
ATOM     32  C   UNL     1       1.549   0.401  -5.272  0.00  0.00    +0.000 C 
BRANCH  32  33
ATOM     33  C   UNL     1       0.543   0.095  -6.371  0.00  0.00    +0.000 C 
ATOM     34  F   UNL     1      -0.331  -0.881  -6.053  0.00  0.00    +0.000 F 
ATOM     35  F   UNL     1      -0.160   1.195  -6.734  0.00  0.00    +0.000 F 
ATOM     36  F   UNL     1       1.199  -0.325  -7.488  0.00  0.00    +0.000 F 
ENDBRANCH  32  33
ENDBRANCH  31  32
ENDBRANCH  29  31
ENDBRANCH  23  25
ENDBRANCH   1  22
TORSDOF 7
