REMARK  Name = 
REMARK  4 active torsions:
REMARK  status: ('A' for Active; 'I' for Inactive)
REMARK    1  A    between atoms: C_2  and  C_19
REMARK    2  A    between atoms: N_3  and  C_4
REMARK    3  A    between atoms: N_6  and  C_7
REMARK    4  A    between atoms: C_7  and  C_8
REMARK                            x       y       z     vdW  Elec       q    Type
REMARK                         _______ _______ _______ _____ _____    ______ ____
ROOT
ATOM      1  O   UNL     1       4.503  -2.292  -0.532  0.00  0.00    +0.000 OA
ATOM      2  C   UNL     1       3.954  -1.196  -0.458  0.00  0.00    +0.000 C 
ATOM      3  N   UNL     1       2.841  -0.819  -1.182  0.00  0.00    +0.000 N 
ATOM      4  H   UNL     1       2.491   0.120  -1.047  0.00  0.00    +0.000 HD
ENDROOT
BRANCH   2   5
ATOM      5  C   UNL     1       4.574  -0.202   0.460  0.00  0.00    +0.000 A 
ATOM      6  C   UNL     1       4.564   1.175   0.187  0.00  0.00    +0.000 A 
ATOM      7  C   UNL     1       5.391   2.041   0.917  0.00  0.00    +0.000 A 
ATOM      8  C   UNL     1       6.307   1.524   1.834  0.00  0.00    +0.000 A 
ATOM      9  C   UNL     1       6.340   0.150   2.073  0.00  0.00    +0.000 A 
ATOM     10  C   UNL     1       5.403  -0.684   1.481  0.00  0.00    +0.000 A 
ATOM     11  C   UNL     1       5.367  -2.067   1.971  0.00  0.00    +0.000 A 
ATOM     12  N   UNL     1       6.355  -2.638   2.586  0.00  0.00    +0.000 NA
ATOM     13  N   UNL     1       7.450  -1.863   2.824  0.00  0.00    +0.000 N 
ATOM     14  C   UNL     1       7.468  -0.487   2.779  0.00  0.00    +0.000 A 
ATOM     15  O   UNL     1       8.398   0.183   3.216  0.00  0.00    +0.000 OA
ATOM     16  H   UNL     1       8.257  -2.341   3.216  0.00  0.00    +0.000 HD
ENDBRANCH   2   5
BRANCH   3  17
ATOM     17  C   UNL     1       2.091  -1.624  -2.026  0.00  0.00    +0.000 A 
ATOM     18  C   UNL     1       0.995  -1.123  -2.619  0.00  0.00    +0.000 A 
ATOM     19  N   UNL     1       0.131  -1.916  -3.364  0.00  0.00    +0.000 N 
ATOM     20  C   UNL     1       0.361  -3.280  -3.561  0.00  0.00    +0.000 A 
ATOM     21  O   UNL     1      -0.395  -4.041  -4.158  0.00  0.00    +0.000 OA
ATOM     22  C   UNL     1       1.611  -3.818  -2.976  0.00  0.00    +0.000 A 
ATOM     23  C   UNL     1       2.410  -3.019  -2.250  0.00  0.00    +0.000 A 
BRANCH  19  24
ATOM     24  C   UNL     1      -1.159  -1.376  -3.772  0.00  0.00    +0.000 C 
BRANCH  24  25
ATOM     25  C   UNL     1      -1.188  -0.710  -5.128  0.00  0.00    +0.000 A 
ATOM     26  C   UNL     1      -1.548   0.641  -5.236  0.00  0.00    +0.000 A 
ATOM     27  C   UNL     1      -1.775   1.205  -6.487  0.00  0.00    +0.000 A 
ATOM     28  F   UNL     1      -2.174   2.482  -6.568  0.00  0.00    +0.000 F 
ATOM     29  C   UNL     1      -1.634   0.457  -7.648  0.00  0.00    +0.000 A 
ATOM     30  C   UNL     1      -1.230  -0.874  -7.558  0.00  0.00    +0.000 A 
ATOM     31  C   UNL     1      -1.006  -1.453  -6.305  0.00  0.00    +0.000 A 
ENDBRANCH  24  25
ENDBRANCH  19  24
ENDBRANCH   3  17
TORSDOF 4
