REMARK  Name = 
REMARK  6 active torsions:
REMARK  status: ('A' for Active; 'I' for Inactive)
REMARK    1  A    between atoms: C_2  and  C_16
REMARK    2  A    between atoms: N_3  and  CA_4
REMARK    3  A    between atoms: CA_4  and  C_5
REMARK    4  A    between atoms: CA_4  and  C_8
REMARK    5  A    between atoms: C_5  and  OXT_7
REMARK    6  A    between atoms: C_19  and  N_20
REMARK                            x       y       z     vdW  Elec       q    Type
REMARK                         _______ _______ _______ _____ _____    ______ ____
ROOT
ATOM      1  O   UNL     1       1.044  -0.004  -0.239  0.00  0.00    +0.000 OA
ATOM      2  C   UNL     1       2.228   0.222  -0.004  0.00  0.00    +0.000 C 
ATOM      3  N   UNL     1       2.884   1.297  -0.553  0.00  0.00    +0.000 N 
ATOM      4  H   UNL     1       3.835   1.538  -0.307  0.00  0.00    +0.000 HD
ENDROOT
BRANCH   2   5
ATOM      5  C   UNL     1       3.022  -0.736   0.821  0.00  0.00    +0.000 A 
ATOM      6  C   UNL     1       2.407  -1.945   1.164  0.00  0.00    +0.000 A 
ATOM      7  C   UNL     1       3.168  -3.018   1.628  0.00  0.00    +0.000 A 
ATOM      8  C   UNL     1       4.564  -2.908   1.683  0.00  0.00    +0.000 A 
ATOM      9  C   UNL     1       5.134  -1.627   1.597  0.00  0.00    +0.000 A 
ATOM     10  C   UNL     1       4.369  -0.547   1.144  0.00  0.00    +0.000 A 
BRANCH   8  11
ATOM     11  N   UNL     1       5.391  -4.107   1.514  0.00  0.00    +0.000 N 
ATOM     12  C   UNL     1       6.645  -3.845   0.994  0.00  0.00    +0.000 A 
ATOM     13  N   UNL     1       6.896  -3.797  -0.277  0.00  0.00    +0.000 NA
ATOM     14  C   UNL     1       5.789  -4.053  -1.114  0.00  0.00    +0.000 A 
ATOM     15  C   UNL     1       5.681  -3.458  -2.367  0.00  0.00    +0.000 A 
ATOM     16  C   UNL     1       4.530  -3.658  -3.140  0.00  0.00    +0.000 A 
ATOM     17  C   UNL     1       3.508  -4.502  -2.689  0.00  0.00    +0.000 A 
ATOM     18  C   UNL     1       3.605  -5.114  -1.440  0.00  0.00    +0.000 A 
ATOM     19  C   UNL     1       4.727  -4.845  -0.658  0.00  0.00    +0.000 A 
ATOM     20  C   UNL     1       4.751  -5.119   0.798  0.00  0.00    +0.000 A 
ATOM     21  O   UNL     1       4.201  -6.101   1.282  0.00  0.00    +0.000 OA
ENDBRANCH   8  11
ENDBRANCH   2   5
BRANCH   3  22
ATOM     22  CA  UNL     1       2.208   2.234  -1.442  0.00  0.00    +0.000 C 
BRANCH  22  23
ATOM     23  C   UNL     1       2.357   1.803  -2.888  0.00  0.00    +0.000 A 
ATOM     24  C   UNL     1       1.451   0.872  -3.436  0.00  0.00    +0.000 A 
ATOM     25  C   UNL     1       1.602   0.406  -4.744  0.00  0.00    +0.000 A 
ATOM     26  C   UNL     1       2.660   0.866  -5.517  0.00  0.00    +0.000 A 
ATOM     27  F   UNL     1       2.811   0.409  -6.767  0.00  0.00    +0.000 F 
ATOM     28  C   UNL     1       3.568   1.784  -5.008  0.00  0.00    +0.000 A 
ATOM     29  C   UNL     1       3.415   2.236  -3.701  0.00  0.00    +0.000 A 
ATOM     30  F   UNL     1       4.317   3.106  -3.227  0.00  0.00    +0.000 F 
ENDBRANCH  22  23
BRANCH  22  31
ATOM     31  C   UNL     1       2.713   3.651  -1.115  0.00  0.00    +0.000 C 
ATOM     32  O   UNL     1       3.683   3.882  -0.400  0.00  0.00    +0.000 OA
BRANCH  31  33
ATOM     33  OXT UNL     1       1.972   4.645  -1.663  0.00  0.00    +0.000 OA
ATOM     34  HXT UNL     1       1.221   4.337  -2.204  0.00  0.00    +0.000 HD
ENDBRANCH  31  33
ENDBRANCH  22  31
ENDBRANCH   3  22
TORSDOF 6
