REMARK  Name = 
REMARK  10 active torsions:
REMARK  status: ('A' for Active; 'I' for Inactive)
REMARK    1  A    between atoms: C_1  and  O_2
REMARK    2  A    between atoms: O_2  and  C_3
REMARK    3  A    between atoms: C_3  and  C_5
REMARK    4  A    between atoms: C_5  and  N_6
REMARK    5  A    between atoms: C_5  and  C_25
REMARK    6  A    between atoms: C_7  and  C_9
REMARK    7  A    between atoms: C_12  and  C_13
REMARK    8  A    between atoms: C_13  and  C_15
REMARK    9  A    between atoms: C_19  and  O_20
REMARK   10  A    between atoms: O_20  and  C_21
REMARK                            x       y       z     vdW  Elec       q    Type
REMARK                         _______ _______ _______ _____ _____    ______ ____
ROOT
ATOM      1  N   UNL     1       3.459   1.037  -1.237  0.00  0.00    +0.000 N 
ATOM      2  C   UNL     1       4.790   0.846  -1.516  0.00  0.00    +0.000 C 
ATOM      3  O   UNL     1       5.503   0.063  -0.911  0.00  0.00    +0.000 OA
ATOM      4  H   UNL     1       2.924   1.713  -1.763  0.00  0.00    +0.000 HD
ENDROOT
BRANCH   2   5
ATOM      5  C   UNL     1       5.329   1.685  -2.624  0.00  0.00    +0.000 A 
ATOM      6  C   UNL     1       6.667   2.094  -2.590  0.00  0.00    +0.000 A 
ATOM      7  C   UNL     1       7.179   2.917  -3.604  0.00  0.00    +0.000 A 
ATOM      8  C   UNL     1       6.357   3.320  -4.665  0.00  0.00    +0.000 A 
ATOM      9  C   UNL     1       5.040   2.845  -4.730  0.00  0.00    +0.000 A 
ATOM     10  C   UNL     1       4.521   2.053  -3.707  0.00  0.00    +0.000 A 
BRANCH   8  11
ATOM     11  C   UNL     1       6.897   4.222  -5.722  0.00  0.00    +0.000 C 
ATOM     12  O   UNL     1       8.099   4.206  -5.973  0.00  0.00    +0.000 OA
BRANCH  11  13
ATOM     13  C   UNL     1       5.996   5.129  -6.493  0.00  0.00    +0.000 A 
ATOM     14  C   UNL     1       4.858   5.695  -5.902  0.00  0.00    +0.000 A 
ATOM     15  C   UNL     1       3.987   6.473  -6.662  0.00  0.00    +0.000 A 
ATOM     16  C   UNL     1       4.283   6.746  -7.997  0.00  0.00    +0.000 A 
ATOM     17  C   UNL     1       5.457   6.250  -8.570  0.00  0.00    +0.000 A 
ATOM     18  C   UNL     1       6.299   5.420  -7.826  0.00  0.00    +0.000 A 
BRANCH  17  19
ATOM     19  O   UNL     1       5.847   6.486  -9.860  0.00  0.00    +0.000 OA
ATOM     20  C   UNL     1       5.441   7.743 -10.394  0.00  0.00    +0.000 C 
ENDBRANCH  17  19
ENDBRANCH  11  13
ENDBRANCH   8  11
ENDBRANCH   2   5
BRANCH   1  21
ATOM     21  C   UNL     1       2.722   0.241  -0.252  0.00  0.00    +0.000 C 
BRANCH  21  22
ATOM     22  C   UNL     1       1.631   1.125   0.331  0.00  0.00    +0.000 A 
ATOM     23  C   UNL     1       1.636   1.489   1.685  0.00  0.00    +0.000 A 
ATOM     24  C   UNL     1       0.715   2.428   2.160  0.00  0.00    +0.000 A 
ATOM     25  C   UNL     1      -0.208   2.997   1.287  0.00  0.00    +0.000 A 
ATOM     26  F   UNL     1      -1.045   3.941   1.735  0.00  0.00    +0.000 F 
ATOM     27  C   UNL     1      -0.260   2.619  -0.045  0.00  0.00    +0.000 A 
ATOM     28  C   UNL     1       0.648   1.676  -0.507  0.00  0.00    +0.000 A 
ATOM     29  F   UNL     1       0.629   1.350  -1.808  0.00  0.00    +0.000 F 
ENDBRANCH  21  22
BRANCH  21  30
ATOM     30  C   UNL     1       2.138  -1.090  -0.786  0.00  0.00    +0.000 C 
ATOM     31  O   UNL     1       1.493  -1.875  -0.098  0.00  0.00    +0.000 OA
BRANCH  30  33
ATOM     32  C   UNL     1       1.897  -2.500  -2.647  0.00  0.00    +0.000 C 
ATOM     33  O   UNL     1       2.403  -1.276  -2.114  0.00  0.00    +0.000 OA
ENDBRANCH  30  33
ENDBRANCH  21  30
ENDBRANCH   1  21
TORSDOF 8
