REMARK  Name = 
REMARK  6 active torsions:
REMARK  status: ('A' for Active; 'I' for Inactive)
REMARK    1  A    between atoms: C_1  and  C_2
REMARK    2  A    between atoms: C_2  and  N_3
REMARK    3  A    between atoms: C_2  and  C_20
REMARK    4  A    between atoms: C_4  and  C_6
REMARK    5  A    between atoms: N_8  and  C_9
REMARK    6  A    between atoms: C_23  and  C_24
REMARK                            x       y       z     vdW  Elec       q    Type
REMARK                         _______ _______ _______ _____ _____    ______ ____
ROOT
ATOM      1  N   UNL     1       3.209  -0.718   1.244  0.00  0.00    +0.000 N 
ATOM      2  C   UNL     1       3.353  -0.078   2.451  0.00  0.00    +0.000 C 
ATOM      3  O   UNL     1       3.174   1.123   2.631  0.00  0.00    +0.000 OA
ATOM      4  H   UNL     1       3.341  -1.723   1.248  0.00  0.00    +0.000 HD
ENDROOT
BRANCH   2   5
ATOM      5  C   UNL     1       3.706  -0.981   3.641  0.00  0.00    +0.000 A 
ATOM      6  N   UNL     1       3.822  -2.262   3.462  0.00  0.00    +0.000 NA
ATOM      7  N   UNL     1       4.042  -3.056   4.587  0.00  0.00    +0.000 N 
ATOM      8  C   UNL     1       4.061  -2.539   5.893  0.00  0.00    +0.000 A 
ATOM      9  O   UNL     1       4.204  -3.156   6.947  0.00  0.00    +0.000 OA
ATOM     10  C   UNL     1       3.968  -1.070   6.011  0.00  0.00    +0.000 A 
ATOM     11  C   UNL     1       3.845  -0.295   4.936  0.00  0.00    +0.000 A 
BRANCH   7  12
ATOM     12  C   UNL     1       4.236  -4.456   4.312  0.00  0.00    +0.000 A 
ATOM     13  C   UNL     1       4.010  -5.435   5.298  0.00  0.00    +0.000 A 
ATOM     14  C   UNL     1       4.274  -6.790   5.068  0.00  0.00    +0.000 A 
ATOM     15  C   UNL     1       4.757  -7.207   3.835  0.00  0.00    +0.000 A 
ATOM     16  C   UNL     1       4.956  -6.267   2.828  0.00  0.00    +0.000 A 
ATOM     17  C   UNL     1       4.694  -4.912   3.063  0.00  0.00    +0.000 A 
ATOM     18  F   UNL     1       4.963  -4.061   2.059  0.00  0.00    +0.000 F 
ENDBRANCH   7  12
ENDBRANCH   2   5
BRANCH   1  20
ATOM     19  C   UNL     1       1.150   0.011   0.074  0.00  0.00    +0.000 C 
ATOM     20  C   UNL     1       2.686  -0.026   0.075  0.00  0.00    +0.000 C 
BRANCH  20  21
ATOM     21  C   UNL     1       3.142  -0.643  -1.234  0.00  0.00    +0.000 A 
ATOM     22  C   UNL     1       3.378   0.184  -2.339  0.00  0.00    +0.000 A 
ATOM     23  C   UNL     1       3.570  -0.364  -3.614  0.00  0.00    +0.000 A 
ATOM     24  C   UNL     1       3.556  -1.754  -3.826  0.00  0.00    +0.000 A 
ATOM     25  C   UNL     1       3.411  -2.569  -2.691  0.00  0.00    +0.000 A 
ATOM     26  C   UNL     1       3.184  -2.030  -1.423  0.00  0.00    +0.000 A 
BRANCH  24  27
ATOM     27  C   UNL     1       3.599  -2.331  -5.188  0.00  0.00    +0.000 A 
ATOM     28  C   UNL     1       4.248  -1.703  -6.259  0.00  0.00    +0.000 A 
ATOM     29  C   UNL     1       4.179  -2.236  -7.547  0.00  0.00    +0.000 A 
ATOM     30  C   UNL     1       3.466  -3.405  -7.739  0.00  0.00    +0.000 A 
ATOM     31  N   UNL     1       2.848  -4.070  -6.746  0.00  0.00    +0.000 NA
ATOM     32  C   UNL     1       2.928  -3.518  -5.509  0.00  0.00    +0.000 A 
ENDBRANCH  24  27
ENDBRANCH  20  21
ENDBRANCH   1  20
TORSDOF 5
