REMARK  Name = 
REMARK  8 active torsions:
REMARK  status: ('A' for Active; 'I' for Inactive)
REMARK    1  A    between atoms: C_1  and  C_2
REMARK    2  A    between atoms: C_2  and  N_3
REMARK    3  A    between atoms: C_2  and  C_16
REMARK    4  A    between atoms: C_4  and  C_6
REMARK    5  A    between atoms: C_16  and  N_17
REMARK    6  A    between atoms: C_16  and  C_29
REMARK    7  A    between atoms: C_18  and  C_20
REMARK    8  A    between atoms: C_23  and  C_24
REMARK                            x       y       z     vdW  Elec       q    Type
REMARK                         _______ _______ _______ _____ _____    ______ ____
ROOT
ATOM      1  C   UNL     1       2.902   0.962   0.944  0.00  0.00    +0.000 C 
ENDROOT
BRANCH   1   2
ATOM      2  C   UNL     1       4.430   1.041   1.004  0.00  0.00    +0.000 A 
ATOM      3  C   UNL     1       5.058   2.268   1.282  0.00  0.00    +0.000 A 
ATOM      4  C   UNL     1       6.450   2.353   1.387  0.00  0.00    +0.000 A 
ATOM      5  C   UNL     1       7.236   1.215   1.221  0.00  0.00    +0.000 A 
ATOM      6  C   UNL     1       6.632  -0.009   0.954  0.00  0.00    +0.000 A 
ATOM      7  C   UNL     1       5.242  -0.095   0.852  0.00  0.00    +0.000 A 
ENDBRANCH   1   2
BRANCH   1   8
ATOM      8  N   UNL     1       2.368   0.840   2.300  0.00  0.00    +0.000 N 
ATOM      9  C   UNL     1       2.515  -0.279   3.083  0.00  0.00    +0.000 C 
ATOM     10  O   UNL     1       3.036  -1.319   2.694  0.00  0.00    +0.000 OA
ATOM     11  H   UNL     1       1.919   1.664   2.682  0.00  0.00    +0.000 HD
BRANCH   9  12
ATOM     12  C   UNL     1       2.002  -0.209   4.477  0.00  0.00    +0.000 A 
ATOM     13  C   UNL     1       2.193  -1.326   5.308  0.00  0.00    +0.000 A 
ATOM     14  C   UNL     1       1.738  -1.313   6.629  0.00  0.00    +0.000 A 
ATOM     15  C   UNL     1       1.085  -0.183   7.133  0.00  0.00    +0.000 A 
ATOM     16  C   UNL     1       0.887   0.929   6.310  0.00  0.00    +0.000 A 
ATOM     17  C   UNL     1       1.346   0.908   4.995  0.00  0.00    +0.000 A 
ATOM     18  F   UNL     1       1.132   2.000   4.243  0.00  0.00    +0.000 F 
BRANCH  15  19
ATOM     19  C   UNL     1       0.617  -0.166   8.488  0.00  0.00    +0.000 C 
ATOM     20  N   UNL     1       0.249  -0.144   9.585  0.00  0.00    +0.000 NA
ENDBRANCH  15  19
ENDBRANCH   9  12
ENDBRANCH   1   8
BRANCH   1  22
ATOM     21  C   UNL     1       0.781  -0.095  -0.093  0.00  0.00    +0.000 C 
ATOM     22  C   UNL     1       2.312  -0.100  -0.048  0.00  0.00    +0.000 C 
BRANCH  22  23
ATOM     23  N   UNL     1       2.849   0.022  -1.403  0.00  0.00    +0.000 N 
ATOM     24  C   UNL     1       2.715   1.138  -2.186  0.00  0.00    +0.000 C 
ATOM     25  O   UNL     1       2.111   2.143  -1.820  0.00  0.00    +0.000 OA
ATOM     26  H   UNL     1       3.246  -0.831  -1.789  0.00  0.00    +0.000 HD
BRANCH  24  27
ATOM     27  C   UNL     1       3.384   1.141  -3.510  0.00  0.00    +0.000 A 
ATOM     28  C   UNL     1       3.685   2.398  -4.069  0.00  0.00    +0.000 A 
ATOM     29  C   UNL     1       4.348   2.512  -5.302  0.00  0.00    +0.000 A 
ATOM     30  C   UNL     1       4.721   1.371  -6.013  0.00  0.00    +0.000 A 
ATOM     31  C   UNL     1       4.403   0.134  -5.481  0.00  0.00    +0.000 A 
ATOM     32  C   UNL     1       3.749   0.028  -4.249  0.00  0.00    +0.000 A 
ATOM     33  C   UNL     1       3.590  -1.414  -4.053  0.00  0.00    +0.000 A 
ATOM     34  O   UNL     1       3.183  -1.973  -3.053  0.00  0.00    +0.000 OA
ATOM     35  N   UNL     1       4.051  -2.028  -5.203  0.00  0.00    +0.000 N 
ATOM     36  N   UNL     1       4.730  -1.120  -6.048  0.00  0.00    +0.000 N 
ATOM     37  H   UNL     1       4.348  -2.999  -5.169  0.00  0.00    +0.000 HD
ATOM     38  H   UNL     1       4.421  -1.166  -7.022  0.00  0.00    +0.000 HD
ENDBRANCH  24  27
ENDBRANCH  22  23
ENDBRANCH   1  22
TORSDOF 7
