REMARK  Name = 
REMARK  6 active torsions:
REMARK  status: ('A' for Active; 'I' for Inactive)
REMARK    1  A    between atoms: N_1  and  C_2
REMARK    2  A    between atoms: C_2  and  C_3
REMARK    3  A    between atoms: C_6  and  C_7
REMARK    4  A    between atoms: C_12  and  C_13
REMARK    5  A    between atoms: N_15  and  C_16
REMARK    6  A    between atoms: C_18  and  C_19
REMARK                            x       y       z     vdW  Elec       q    Type
REMARK                         _______ _______ _______ _____ _____    ______ ____
ROOT
ATOM      1  C   UNL     1       1.525  -3.352  -5.090  0.00  0.00    +0.000 C 
ATOM      2  O   UNL     1       0.741  -4.288  -5.234  0.00  0.00    +0.000 OA
ATOM      3  N   UNL     1       1.164  -2.042  -4.821  0.00  0.00    +0.000 N 
ATOM      4  H   UNL     1       1.894  -1.355  -4.641  0.00  0.00    +0.000 HD
ENDROOT
BRANCH   3   5
ATOM      5  C   UNL     1      -0.126  -1.572  -4.615  0.00  0.00    +0.000 A 
ATOM      6  C   UNL     1      -1.253  -2.270  -4.822  0.00  0.00    +0.000 A 
ATOM      7  C   UNL     1      -2.578  -1.730  -4.575  0.00  0.00    +0.000 A 
ATOM      8  C   UNL     1      -2.687  -0.474  -4.116  0.00  0.00    +0.000 A 
ATOM      9  N   UNL     1      -1.564   0.285  -3.888  0.00  0.00    +0.000 N 
ATOM     10  C   UNL     1      -0.276  -0.157  -4.103  0.00  0.00    +0.000 A 
ATOM     11  O   UNL     1       0.702   0.553  -3.877  0.00  0.00    +0.000 OA
ATOM     12  H   UNL     1      -1.655   1.233  -3.542  0.00  0.00    +0.000 HD
BRANCH   7  13
ATOM     13  C   UNL     1      -3.788  -2.530  -4.822  0.00  0.00    +0.000 A 
ATOM     14  C   UNL     1      -4.399  -2.509  -6.075  0.00  0.00    +0.000 A 
ATOM     15  C   UNL     1      -5.487  -3.338  -6.286  0.00  0.00    +0.000 A 
ATOM     16  N   UNL     1      -5.992  -4.167  -5.347  0.00  0.00    +0.000 NA
ATOM     17  C   UNL     1      -5.372  -4.179  -4.147  0.00  0.00    +0.000 A 
ATOM     18  C   UNL     1      -4.278  -3.388  -3.838  0.00  0.00    +0.000 A 
ENDBRANCH   7  13
ENDBRANCH   3   5
BRANCH   1  24
ATOM     19  C   UNL     1       4.018  -3.257  -4.394  0.00  0.00    +0.000 A 
ATOM     20  C   UNL     1       5.324  -3.660  -4.766  0.00  0.00    +0.000 A 
ATOM     21  C   UNL     1       5.582  -4.426  -5.910  0.00  0.00    +0.000 A 
ATOM     22  C   UNL     1       4.535  -4.848  -6.713  0.00  0.00    +0.000 A 
ATOM     23  C   UNL     1       3.240  -4.471  -6.386  0.00  0.00    +0.000 A 
ATOM     24  C   UNL     1       2.972  -3.659  -5.261  0.00  0.00    +0.000 A 
BRANCH  19  28
ATOM     25  C   UNL     1       3.304  -0.612  -1.046  0.00  0.00    +0.000 A 
ATOM     26  C   UNL     1       4.524  -0.586  -1.727  0.00  0.00    +0.000 A 
ATOM     27  C   UNL     1       4.771  -1.476  -2.776  0.00  0.00    +0.000 A 
ATOM     28  C   UNL     1       3.830  -2.450  -3.156  0.00  0.00    +0.000 A 
ATOM     29  C   UNL     1       2.692  -2.573  -2.340  0.00  0.00    +0.000 A 
ATOM     30  C   UNL     1       2.406  -1.641  -1.335  0.00  0.00    +0.000 A 
BRANCH  25  31
ATOM     31  C   UNL     1       2.959   0.464  -0.050  0.00  0.00    +0.000 C 
BRANCH  31  32
ATOM     32  N   UNL     1       3.046   1.789  -0.659  0.00  0.00    +0.000 NA
ATOM     33  H   UNL     1       2.659   2.480  -0.023  0.00  0.00    +0.000 HD
ATOM     34  H   UNL     1       2.456   1.799  -1.494  0.00  0.00    +0.000 HD
ENDBRANCH  31  32
ENDBRANCH  25  31
ENDBRANCH  19  28
ENDBRANCH   1  24
TORSDOF 6
