REMARK  Name = 
REMARK  4 active torsions:
REMARK  status: ('A' for Active; 'I' for Inactive)
REMARK    1  A    between atoms: C_2  and  C_18
REMARK    2  A    between atoms: N_3  and  C_4
REMARK    3  A    between atoms: C_8  and  C_9
REMARK    4  A    between atoms: C_9  and  N_10
REMARK                            x       y       z     vdW  Elec       q    Type
REMARK                         _______ _______ _______ _____ _____    ______ ____
ROOT
ATOM      1  O   UNL     1       2.435   1.153  -0.160  0.00  0.00    +0.000 OA
ATOM      2  C   UNL     1       3.315   0.341  -0.415  0.00  0.00    +0.000 C 
ATOM      3  N   UNL     1       3.437  -0.449  -1.537  0.00  0.00    +0.000 N 
ATOM      4  H   UNL     1       4.259  -1.051  -1.529  0.00  0.00    +0.000 HD
ENDROOT
BRANCH   2   5
ATOM      5  C   UNL     1       4.396   0.058   0.584  0.00  0.00    +0.000 A 
ATOM      6  C   UNL     1       4.349   0.645   1.836  0.00  0.00    +0.000 A 
ATOM      7  C   UNL     1       5.250   0.195   2.791  0.00  0.00    +0.000 A 
ATOM      8  C   UNL     1       6.206  -0.770   2.446  0.00  0.00    +0.000 A 
ATOM      9  C   UNL     1       7.153  -1.221   3.377  0.00  0.00    +0.000 A 
ATOM     10  C   UNL     1       8.124  -2.129   2.978  0.00  0.00    +0.000 A 
ATOM     11  F   UNL     1       9.058  -2.518   3.855  0.00  0.00    +0.000 F 
ATOM     12  C   UNL     1       8.139  -2.611   1.678  0.00  0.00    +0.000 A 
ATOM     13  F   UNL     1       9.084  -3.478   1.292  0.00  0.00    +0.000 F 
ATOM     14  C   UNL     1       7.181  -2.194   0.760  0.00  0.00    +0.000 A 
ATOM     15  C   UNL     1       6.213  -1.270   1.121  0.00  0.00    +0.000 A 
ATOM     16  N   UNL     1       5.316  -0.879   0.208  0.00  0.00    +0.000 NA
ENDBRANCH   2   5
BRANCH   3  17
ATOM     17  C   UNL     1       2.528  -0.619  -2.588  0.00  0.00    +0.000 A 
ATOM     18  C   UNL     1       1.341   0.096  -2.719  0.00  0.00    +0.000 A 
ATOM     19  C   UNL     1       0.477  -0.175  -3.783  0.00  0.00    +0.000 A 
ATOM     20  C   UNL     1       0.804  -1.146  -4.731  0.00  0.00    +0.000 A 
ATOM     21  C   UNL     1       2.007  -1.854  -4.628  0.00  0.00    +0.000 A 
ATOM     22  C   UNL     1       2.851  -1.591  -3.539  0.00  0.00    +0.000 A 
BRANCH  21  23
ATOM     23  C   UNL     1       2.410  -2.890  -5.652  0.00  0.00    +0.000 C 
BRANCH  23  24
ATOM     24  N   UNL     1       1.927  -4.229  -5.327  0.00  0.00    +0.000 N 
ATOM     25  C   UNL     1       0.726  -4.666  -5.867  0.00  0.00    +0.000 A 
ATOM     26  C   UNL     1       0.236  -5.877  -5.579  0.00  0.00    +0.000 A 
ATOM     27  C   UNL     1       0.949  -6.745  -4.675  0.00  0.00    +0.000 A 
ATOM     28  C   UNL     1       2.112  -6.358  -4.141  0.00  0.00    +0.000 A 
ATOM     29  C   UNL     1       2.689  -5.021  -4.474  0.00  0.00    +0.000 A 
ATOM     30  O   UNL     1       3.779  -4.708  -3.997  0.00  0.00    +0.000 OA
ENDBRANCH  23  24
ENDBRANCH  21  23
ENDBRANCH   3  17
TORSDOF 4
