REMARK  Name = 
REMARK  8 active torsions:
REMARK  status: ('A' for Active; 'I' for Inactive)
REMARK    1  A    between atoms: C_1  and  N_2
REMARK    2  A    between atoms: C_8  and  C_9
REMARK    3  A    between atoms: N_11  and  C_12
REMARK    4  A    between atoms: C_16  and  C_17
REMARK    5  A    between atoms: C_17  and  O_18
REMARK    6  A    between atoms: O_18  and  C_19
REMARK    7  A    between atoms: C_22  and  C_23
REMARK    8  A    between atoms: C_23  and  C_24
REMARK                            x       y       z     vdW  Elec       q    Type
REMARK                         _______ _______ _______ _____ _____    ______ ____
ROOT
ATOM      1  C   UNL     1       8.822  -1.343   0.442  0.00  0.00    +0.000 C 
ATOM      2  O   UNL     1       9.292  -0.387   1.059  0.00  0.00    +0.000 OA
ATOM      3  N   UNL     1       9.565  -2.280  -0.259  0.00  0.00    +0.000 N 
ATOM      4  H   UNL     1       9.102  -2.850  -0.950  0.00  0.00    +0.000 HD
ENDROOT
BRANCH   1  12
ATOM      5  C   UNL     1       1.013  -0.427   1.173  0.00  0.00    +0.000 C 
ATOM      6  N   UNL     1       2.462  -0.436   1.164  0.00  0.00    +0.000 N 
ATOM      7  C   UNL     1       3.142   0.671   1.645  0.00  0.00    +0.000 A 
ATOM      8  O   UNL     1       2.602   1.684   2.083  0.00  0.00    +0.000 OA
ATOM      9  N   UNL     1       4.508   0.608   1.612  0.00  0.00    +0.000 N 
ATOM     10  C   UNL     1       5.220  -0.458   1.070  0.00  0.00    +0.000 A 
ATOM     11  C   UNL     1       6.608  -0.412   1.014  0.00  0.00    +0.000 A 
ATOM     12  C   UNL     1       7.336  -1.462   0.421  0.00  0.00    +0.000 A 
ATOM     13  C   UNL     1       6.646  -2.561  -0.108  0.00  0.00    +0.000 A 
ATOM     14  C   UNL     1       5.250  -2.613  -0.023  0.00  0.00    +0.000 A 
ATOM     15  C   UNL     1       4.544  -1.560   0.568  0.00  0.00    +0.000 A 
ATOM     16  C   UNL     1       3.074  -1.582   0.661  0.00  0.00    +0.000 A 
ATOM     17  O   UNL     1       2.467  -2.584   0.291  0.00  0.00    +0.000 OA
ATOM     18  H   UNL     1       4.989   1.426   1.965  0.00  0.00    +0.000 HD
ENDBRANCH   1  12
BRANCH   3  19
ATOM     19  C   UNL     1      10.978  -2.337  -0.250  0.00  0.00    +0.000 A 
ATOM     20  C   UNL     1      11.748  -1.738   0.753  0.00  0.00    +0.000 A 
ATOM     21  C   UNL     1      13.138  -1.730   0.680  0.00  0.00    +0.000 A 
ATOM     22  C   UNL     1      13.775  -2.317  -0.404  0.00  0.00    +0.000 A 
ATOM     23  C   UNL     1      13.024  -2.941  -1.410  0.00  0.00    +0.000 A 
ATOM     24  C   UNL     1      11.624  -2.991  -1.301  0.00  0.00    +0.000 A 
BRANCH  23  25
ATOM     25  C   UNL     1      13.732  -3.444  -2.639  0.00  0.00    +0.000 C 
BRANCH  25  26
ATOM     26  O   UNL     1      14.348  -4.707  -2.386  0.00  0.00    +0.000 OA
BRANCH  26  27
ATOM     27  C   UNL     1      14.977  -5.230  -3.487  0.00  0.00    +0.000 A 
ATOM     28  C   UNL     1      15.610  -4.461  -4.466  0.00  0.00    +0.000 A 
ATOM     29  C   UNL     1      16.149  -5.066  -5.598  0.00  0.00    +0.000 A 
ATOM     30  C   UNL     1      16.080  -6.453  -5.757  0.00  0.00    +0.000 A 
ATOM     31  C   UNL     1      15.532  -7.232  -4.727  0.00  0.00    +0.000 A 
ATOM     32  C   UNL     1      14.982  -6.620  -3.598  0.00  0.00    +0.000 A 
BRANCH  30  33
ATOM     33  C   UNL     1      16.616  -7.080  -7.012  0.00  0.00    +0.000 C 
BRANCH  33  34
ATOM     34  C   UNL     1      18.107  -7.361  -6.909  0.00  0.00    +0.000 C 
ATOM     35  N   UNL     1      19.343  -7.593  -6.823  0.00  0.00    +0.000 NA
ENDBRANCH  33  34
ENDBRANCH  30  33
ENDBRANCH  26  27
ENDBRANCH  25  26
ENDBRANCH  23  25
ENDBRANCH   3  19
TORSDOF 7
