REMARK  Name = 
REMARK  6 active torsions:
REMARK  status: ('A' for Active; 'I' for Inactive)
REMARK    1  A    between atoms: C_2  and  C_20
REMARK    2  A    between atoms: N_3  and  C_4
REMARK    3  A    between atoms: C_4  and  C_5
REMARK    4  A    between atoms: C_7  and  O_8
REMARK    5  A    between atoms: O_8  and  C_9
REMARK    6  A    between atoms: C_22  and  C_23
REMARK                            x       y       z     vdW  Elec       q    Type
REMARK                         _______ _______ _______ _____ _____    ______ ____
ROOT
ATOM      1  C   UNL     1       2.383  -0.358   2.469  0.00  0.00    +0.000 C 
ENDROOT
BRANCH   1   2
ATOM      2  C   UNL     1       3.354  -0.346   3.632  0.00  0.00    +0.000 A 
ATOM      3  C   UNL     1       3.694   0.857   4.246  0.00  0.00    +0.000 A 
ATOM      4  C   UNL     1       4.622   0.844   5.286  0.00  0.00    +0.000 A 
ATOM      5  C   UNL     1       5.125  -0.370   5.736  0.00  0.00    +0.000 A 
ATOM      6  C   UNL     1       4.727  -1.520   5.081  0.00  0.00    +0.000 A 
ATOM      7  N   UNL     1       3.874  -1.535   4.031  0.00  0.00    +0.000 NA
BRANCH   4   8
ATOM      8  O   UNL     1       5.037   1.968   5.964  0.00  0.00    +0.000 OA
BRANCH   8   9
ATOM      9  C   UNL     1       5.193   3.157   5.286  0.00  0.00    +0.000 A 
ATOM     10  C   UNL     1       5.624   3.252   3.956  0.00  0.00    +0.000 A 
ATOM     11  C   UNL     1       5.747   4.501   3.344  0.00  0.00    +0.000 A 
ATOM     12  C   UNL     1       5.489   5.652   4.079  0.00  0.00    +0.000 A 
ATOM     13  F   UNL     1       5.618   6.849   3.492  0.00  0.00    +0.000 F 
ATOM     14  C   UNL     1       5.112   5.561   5.414  0.00  0.00    +0.000 A 
ATOM     15  F   UNL     1       4.887   6.675   6.126  0.00  0.00    +0.000 F 
ATOM     16  C   UNL     1       4.963   4.320   6.026  0.00  0.00    +0.000 A 
ENDBRANCH   8   9
ENDBRANCH   4   8
ENDBRANCH   1   2
BRANCH   1  19
ATOM     17  O   UNL     1       2.978   2.071   1.258  0.00  0.00    +0.000 OA
ATOM     18  C   UNL     1       3.316   1.044   0.669  0.00  0.00    +0.000 C 
ATOM     19  N   UNL     1       3.039  -0.201   1.184  0.00  0.00    +0.000 N 
ATOM     20  H   UNL     1       3.420  -1.024   0.734  0.00  0.00    +0.000 HD
BRANCH  18  21
ATOM     21  C   UNL     1       4.034   1.076  -0.580  0.00  0.00    +0.000 A 
ATOM     22  C   UNL     1       4.512   2.139  -1.306  0.00  0.00    +0.000 A 
ATOM     23  C   UNL     1       5.194   1.567  -2.408  0.00  0.00    +0.000 A 
ATOM     24  N   UNL     1       5.078   0.225  -2.374  0.00  0.00    +0.000 NA
ATOM     25  O   UNL     1       4.360  -0.074  -1.228  0.00  0.00    +0.000 OA
BRANCH  23  26
ATOM     26  C   UNL     1       5.963   2.288  -3.425  0.00  0.00    +0.000 A 
ATOM     27  C   UNL     1       6.564   1.633  -4.495  0.00  0.00    +0.000 A 
ATOM     28  C   UNL     1       7.349   2.372  -5.379  0.00  0.00    +0.000 A 
ATOM     29  C   UNL     1       7.506   3.738  -5.175  0.00  0.00    +0.000 A 
ATOM     30  C   UNL     1       6.859   4.316  -4.098  0.00  0.00    +0.000 A 
ATOM     31  N   UNL     1       6.094   3.628  -3.223  0.00  0.00    +0.000 NA
ENDBRANCH  23  26
ENDBRANCH  18  21
ENDBRANCH   1  19
TORSDOF 6
