REMARK  Name = 
REMARK  6 active torsions:
REMARK  status: ('A' for Active; 'I' for Inactive)
REMARK    1  A    between atoms: N_5  and  C_6
REMARK    2  A    between atoms: N_12  and  C_13
REMARK    3  A    between atoms: C_13  and  C_14
REMARK    4  A    between atoms: C_16  and  O_17
REMARK    5  A    between atoms: O_17  and  C_18
REMARK    6  A    between atoms: C_18  and  C_19
REMARK                            x       y       z     vdW  Elec       q    Type
REMARK                         _______ _______ _______ _____ _____    ______ ____
ROOT
ATOM      1  C   UNL     1       0.976  -2.564   0.001  0.00  0.00    +0.000 A 
ATOM      2  C   UNL     1       0.264  -2.059  -1.095  0.00  0.00    +0.000 A 
ATOM      3  C   UNL     1      -1.125  -2.176  -1.163  0.00  0.00    +0.000 A 
ATOM      4  C   UNL     1      -1.820  -2.759  -0.103  0.00  0.00    +0.000 A 
ATOM      5  C   UNL     1      -1.124  -3.264   0.996  0.00  0.00    +0.000 A 
ATOM      6  C   UNL     1       0.266  -3.167   1.050  0.00  0.00    +0.000 A 
ENDROOT
BRANCH   1   7
ATOM      7  C   UNL     1       2.478  -2.411   0.063  0.00  0.00    +0.000 C 
BRANCH   7  13
ATOM      8  O   UNL     1       1.876  -5.283  -0.710  0.00  0.00    +0.000 OA
ATOM      9  C   UNL     1       2.927  -4.872  -0.244  0.00  0.00    +0.000 A 
ATOM     10  C   UNL     1       4.153  -5.697  -0.245  0.00  0.00    +0.000 A 
ATOM     11  C   UNL     1       5.122  -4.862   0.127  0.00  0.00    +0.000 A 
ATOM     12  N   UNL     1       4.667  -3.616   0.487  0.00  0.00    +0.000 N 
ATOM     13  N   UNL     1       3.248  -3.625   0.305  0.00  0.00    +0.000 N 
BRANCH  12  14
ATOM     14  C   UNL     1       5.423  -2.417   0.458  0.00  0.00    +0.000 A 
ATOM     15  C   UNL     1       6.544  -2.274  -0.372  0.00  0.00    +0.000 A 
ATOM     16  C   UNL     1       7.261  -1.085  -0.348  0.00  0.00    +0.000 A 
ATOM     17  N   UNL     1       6.944  -0.034   0.432  0.00  0.00    +0.000 NA
ATOM     18  C   UNL     1       5.886  -0.192   1.249  0.00  0.00    +0.000 A 
ATOM     19  C   UNL     1       5.128  -1.351   1.312  0.00  0.00    +0.000 A 
ENDBRANCH  12  14
ENDBRANCH   7  13
ENDBRANCH   1   7
BRANCH   3  20
ATOM     20  O   UNL     1      -1.697  -1.684  -2.305  0.00  0.00    +0.000 OA
BRANCH  20  21
ATOM     21  C   UNL     1      -2.989  -2.212  -2.616  0.00  0.00    +0.000 C 
BRANCH  21  22
ATOM     22  C   UNL     1      -3.257  -2.005  -4.082  0.00  0.00    +0.000 A 
ATOM     23  C   UNL     1      -2.373  -2.511  -5.047  0.00  0.00    +0.000 A 
ATOM     24  C   UNL     1      -2.651  -2.357  -6.406  0.00  0.00    +0.000 A 
ATOM     25  C   UNL     1      -3.812  -1.700  -6.793  0.00  0.00    +0.000 A 
ATOM     26  F   UNL     1      -4.079  -1.558  -8.098  0.00  0.00    +0.000 F 
ATOM     27  C   UNL     1      -4.701  -1.194  -5.857  0.00  0.00    +0.000 A 
ATOM     28  C   UNL     1      -4.418  -1.354  -4.506  0.00  0.00    +0.000 A 
ATOM     29  F   UNL     1      -5.291  -0.881  -3.607  0.00  0.00    +0.000 F 
ENDBRANCH  21  22
ENDBRANCH  20  21
ENDBRANCH   3  20
TORSDOF 6
