REMARK  Name = 
REMARK  6 active torsions:
REMARK  status: ('A' for Active; 'I' for Inactive)
REMARK    1  A    between atoms: C_2  and  C_3
REMARK    2  A    between atoms: C_3  and  N_4
REMARK    3  A    between atoms: N_16  and  C_17
REMARK    4  A    between atoms: C_17  and  C_18
REMARK    5  A    between atoms: C_20  and  O_21
REMARK    6  A    between atoms: O_21  and  C_22
REMARK                            x       y       z     vdW  Elec       q    Type
REMARK                         _______ _______ _______ _____ _____    ______ ____
ROOT
ATOM      1  O   UNL     1       2.982   1.739   1.040  0.00  0.00    +0.000 OA
ATOM      2  C   UNL     1       2.401   0.657   1.105  0.00  0.00    +0.000 C 
ATOM      3  N   UNL     1       3.054  -0.554   1.154  0.00  0.00    +0.000 N 
ATOM      4  H   UNL     1       2.523  -1.410   1.017  0.00  0.00    +0.000 HD
ENDROOT
BRANCH   2   5
ATOM      5  C   UNL     1       0.872   0.567   1.073  0.00  0.00    +0.000 C 
BRANCH   5   6
ATOM      6  N   UNL     1       0.408   0.483  -0.306  0.00  0.00    +0.000 N 
ATOM      7  C   UNL     1       0.115   1.620  -1.010  0.00  0.00    +0.000 A 
ATOM      8  N   UNL     1      -0.255   1.640  -2.247  0.00  0.00    +0.000 NA
ATOM      9  C   UNL     1      -0.356   0.416  -2.923  0.00  0.00    +0.000 A 
ATOM     10  C   UNL     1      -0.695   0.416  -4.280  0.00  0.00    +0.000 A 
ATOM     11  C   UNL     1      -0.799  -0.786  -4.984  0.00  0.00    +0.000 A 
ATOM     12  C   UNL     1      -0.590  -1.991  -4.321  0.00  0.00    +0.000 A 
ATOM     13  F   UNL     1      -0.699  -3.143  -4.995  0.00  0.00    +0.000 F 
ATOM     14  C   UNL     1      -0.253  -2.018  -2.975  0.00  0.00    +0.000 A 
ATOM     15  C   UNL     1      -0.116  -0.807  -2.291  0.00  0.00    +0.000 A 
ATOM     16  C   UNL     1       0.333  -0.773  -0.889  0.00  0.00    +0.000 A 
ATOM     17  O   UNL     1       0.644  -1.812  -0.311  0.00  0.00    +0.000 OA
ENDBRANCH   5   6
ENDBRANCH   2   5
BRANCH   3  18
ATOM     18  C   UNL     1       4.505  -0.665   1.118  0.00  0.00    +0.000 C 
BRANCH  18  19
ATOM     19  C   UNL     1       5.049  -1.397   2.326  0.00  0.00    +0.000 A 
ATOM     20  C   UNL     1       5.418  -0.682   3.460  0.00  0.00    +0.000 A 
ATOM     21  C   UNL     1       5.812  -1.379   4.603  0.00  0.00    +0.000 A 
ATOM     22  C   UNL     1       5.932  -2.762   4.550  0.00  0.00    +0.000 A 
ATOM     23  C   UNL     1       5.574  -3.396   3.373  0.00  0.00    +0.000 A 
ATOM     24  N   UNL     1       5.114  -2.752   2.276  0.00  0.00    +0.000 NA
BRANCH  21  25
ATOM     25  O   UNL     1       6.128  -0.784   5.810  0.00  0.00    +0.000 OA
BRANCH  25  26
ATOM     26  C   UNL     1       5.484   0.379   6.173  0.00  0.00    +0.000 A 
ATOM     27  C   UNL     1       4.161   0.668   5.834  0.00  0.00    +0.000 A 
ATOM     28  C   UNL     1       3.638   1.918   6.132  0.00  0.00    +0.000 A 
ATOM     29  F   UNL     1       2.409   2.231   5.699  0.00  0.00    +0.000 F 
ATOM     30  C   UNL     1       4.377   2.855   6.843  0.00  0.00    +0.000 A 
ATOM     31  C   UNL     1       5.660   2.529   7.278  0.00  0.00    +0.000 A 
ATOM     32  C   UNL     1       6.216   1.290   6.941  0.00  0.00    +0.000 A 
ENDBRANCH  25  26
ENDBRANCH  21  25
ENDBRANCH  18  19
ENDBRANCH   3  18
TORSDOF 6
