REMARK  Name = 
REMARK  4 active torsions:
REMARK  status: ('A' for Active; 'I' for Inactive)
REMARK    1  A    between atoms: C_2  and  C_19
REMARK    2  A    between atoms: N_3  and  C_4
REMARK    3  A    between atoms: C_7  and  O_8
REMARK    4  A    between atoms: O_8  and  C_9
REMARK                            x       y       z     vdW  Elec       q    Type
REMARK                         _______ _______ _______ _____ _____    ______ ____
ROOT
ATOM      1  O   UNL     1       1.310  -0.027  -1.035  0.00  0.00    +0.000 OA
ATOM      2  C   UNL     1       2.350  -0.016  -0.389  0.00  0.00    +0.000 C 
ATOM      3  N   UNL     1       2.852  -1.060   0.369  0.00  0.00    +0.000 N 
ATOM      4  H   UNL     1       3.684  -0.897   0.923  0.00  0.00    +0.000 HD
ENDROOT
BRANCH   2   5
ATOM      5  C   UNL     1       3.142   1.236  -0.419  0.00  0.00    +0.000 A 
ATOM      6  C   UNL     1       4.537   1.154  -0.566  0.00  0.00    +0.000 A 
ATOM      7  C   UNL     1       5.291   2.314  -0.753  0.00  0.00    +0.000 A 
ATOM      8  C   UNL     1       4.661   3.555  -0.806  0.00  0.00    +0.000 A 
ATOM      9  C   UNL     1       3.275   3.641  -0.647  0.00  0.00    +0.000 A 
ATOM     10  C   UNL     1       2.510   2.492  -0.441  0.00  0.00    +0.000 A 
ATOM     11  C   UNL     1       1.069   2.696  -0.244  0.00  0.00    +0.000 A 
ATOM     12  N   UNL     1       0.475   3.851  -0.286  0.00  0.00    +0.000 NA
ATOM     13  N   UNL     1       1.240   4.945  -0.538  0.00  0.00    +0.000 N 
ATOM     14  C   UNL     1       2.603   4.950  -0.715  0.00  0.00    +0.000 A 
ATOM     15  O   UNL     1       3.238   5.979  -0.914  0.00  0.00    +0.000 OA
ATOM     16  H   UNL     1       0.756   5.837  -0.579  0.00  0.00    +0.000 HD
ENDBRANCH   2   5
BRANCH   3  17
ATOM     17  C   UNL     1       2.215  -2.312   0.548  0.00  0.00    +0.000 A 
ATOM     18  C   UNL     1       1.101  -2.730  -0.181  0.00  0.00    +0.000 A 
ATOM     19  C   UNL     1       0.505  -3.958   0.092  0.00  0.00    +0.000 A 
ATOM     20  C   UNL     1       1.059  -4.747   1.082  0.00  0.00    +0.000 A 
ATOM     21  N   UNL     1       2.126  -4.380   1.828  0.00  0.00    +0.000 NA
ATOM     22  C   UNL     1       2.693  -3.189   1.521  0.00  0.00    +0.000 A 
BRANCH  20  23
ATOM     23  O   UNL     1       0.445  -5.969   1.308  0.00  0.00    +0.000 OA
BRANCH  23  24
ATOM     24  C   UNL     1       1.243  -7.007   1.725  0.00  0.00    +0.000 A 
ATOM     25  C   UNL     1       2.523  -7.261   1.227  0.00  0.00    +0.000 A 
ATOM     26  F   UNL     1       3.061  -6.495   0.264  0.00  0.00    +0.000 F 
ATOM     27  C   UNL     1       3.248  -8.345   1.705  0.00  0.00    +0.000 A 
ATOM     28  F   UNL     1       4.490  -8.571   1.254  0.00  0.00    +0.000 F 
ATOM     29  C   UNL     1       2.696  -9.212   2.642  0.00  0.00    +0.000 A 
ATOM     30  C   UNL     1       1.398  -8.993   3.106  0.00  0.00    +0.000 A 
ATOM     31  C   UNL     1       0.672  -7.891   2.648  0.00  0.00    +0.000 A 
ENDBRANCH  23  24
ENDBRANCH  20  23
ENDBRANCH   3  17
TORSDOF 4
