REMARK  Name = 
REMARK  4 active torsions:
REMARK  status: ('A' for Active; 'I' for Inactive)
REMARK    1  A    between atoms: C_2  and  C_19
REMARK    2  A    between atoms: N_3  and  C_4
REMARK    3  A    between atoms: C_9  and  O_10
REMARK    4  A    between atoms: O_10  and  C_11
REMARK                            x       y       z     vdW  Elec       q    Type
REMARK                         _______ _______ _______ _____ _____    ______ ____
ROOT
ATOM      1  O   UNL     1       1.170   0.154   1.092  0.00  0.00    +0.000 OA
ATOM      2  C   UNL     1       2.306   0.128   0.628  0.00  0.00    +0.000 C 
ATOM      3  N   UNL     1       2.906   1.112  -0.151  0.00  0.00    +0.000 N 
ATOM      4  H   UNL     1       3.745   0.885  -0.674  0.00  0.00    +0.000 HD
ENDROOT
BRANCH   2   5
ATOM      5  C   UNL     1       3.080  -1.103   0.891  0.00  0.00    +0.000 A 
ATOM      6  C   UNL     1       2.380  -2.303   1.032  0.00  0.00    +0.000 A 
ATOM      7  N   UNL     1       2.955  -3.496   1.328  0.00  0.00    +0.000 NA
ATOM      8  C   UNL     1       4.287  -3.498   1.527  0.00  0.00    +0.000 A 
ATOM      9  N   UNL     1       4.828  -4.749   1.843  0.00  0.00    +0.000 NA
ATOM     10  C   UNL     1       6.091  -4.805   2.075  0.00  0.00    +0.000 A 
ATOM     11  N   UNL     1       6.924  -3.725   2.028  0.00  0.00    +0.000 N 
ATOM     12  C   UNL     1       6.488  -2.464   1.706  0.00  0.00    +0.000 A 
ATOM     13  O   UNL     1       7.237  -1.500   1.644  0.00  0.00    +0.000 OA
ATOM     14  C   UNL     1       5.052  -2.341   1.434  0.00  0.00    +0.000 A 
ATOM     15  C   UNL     1       4.454  -1.118   1.109  0.00  0.00    +0.000 A 
ATOM     16  H   UNL     1       7.911  -3.826   2.219  0.00  0.00    +0.000 HD
ENDBRANCH   2   5
BRANCH   3  17
ATOM     17  C   UNL     1       2.312   2.370  -0.466  0.00  0.00    +0.000 A 
ATOM     18  C   UNL     1       1.212   2.854   0.262  0.00  0.00    +0.000 A 
ATOM     19  C   UNL     1       0.592   4.062  -0.062  0.00  0.00    +0.000 A 
ATOM     20  C   UNL     1       1.038   4.797  -1.147  0.00  0.00    +0.000 A 
ATOM     21  C   UNL     1       2.124   4.337  -1.888  0.00  0.00    +0.000 A 
ATOM     22  C   UNL     1       2.819   3.168  -1.514  0.00  0.00    +0.000 A 
BRANCH  22  23
ATOM     23  O   UNL     1       3.969   2.755  -2.179  0.00  0.00    +0.000 OA
BRANCH  23  24
ATOM     24  C   UNL     1       4.718   3.714  -2.841  0.00  0.00    +0.000 A 
ATOM     25  C   UNL     1       5.054   4.945  -2.261  0.00  0.00    +0.000 A 
ATOM     26  C   UNL     1       5.697   5.915  -3.026  0.00  0.00    +0.000 A 
ATOM     27  F   UNL     1       5.915   7.126  -2.500  0.00  0.00    +0.000 F 
ATOM     28  C   UNL     1       6.085   5.660  -4.333  0.00  0.00    +0.000 A 
ATOM     29  C   UNL     1       5.826   4.407  -4.870  0.00  0.00    +0.000 A 
ATOM     30  F   UNL     1       6.217   4.139  -6.123  0.00  0.00    +0.000 F 
ATOM     31  C   UNL     1       5.147   3.429  -4.140  0.00  0.00    +0.000 A 
ENDBRANCH  23  24
ENDBRANCH  22  23
ENDBRANCH   3  17
TORSDOF 4
