REMARK  Name = 
REMARK  5 active torsions:
REMARK  status: ('A' for Active; 'I' for Inactive)
REMARK    1  A    between atoms: C_2  and  C_19
REMARK    2  A    between atoms: N_3  and  C_4
REMARK    3  A    between atoms: C_4  and  C_5
REMARK    4  A    between atoms: C_8  and  O_9
REMARK    5  A    between atoms: O_9  and  C_10
REMARK                            x       y       z     vdW  Elec       q    Type
REMARK                         _______ _______ _______ _____ _____    ______ ____
ROOT
ATOM      1  O   UNL     1       2.850   2.116  -1.158  0.00  0.00    +0.000 OA
ATOM      2  C   UNL     1       3.213   1.135  -0.508  0.00  0.00    +0.000 C 
ATOM      3  N   UNL     1       2.954   1.036   0.848  0.00  0.00    +0.000 N 
ATOM      4  H   UNL     1       3.313   0.266   1.390  0.00  0.00    +0.000 HD
ENDROOT
BRANCH   2   5
ATOM      5  C   UNL     1       3.819  -0.044  -1.193  0.00  0.00    +0.000 A 
ATOM      6  C   UNL     1       3.510  -1.360  -0.818  0.00  0.00    +0.000 A 
ATOM      7  C   UNL     1       3.658  -2.408  -1.741  0.00  0.00    +0.000 A 
ATOM      8  C   UNL     1       3.973  -2.130  -3.074  0.00  0.00    +0.000 A 
ATOM      9  C   UNL     1       4.247  -0.811  -3.426  0.00  0.00    +0.000 A 
ATOM     10  C   UNL     1       4.351   0.173  -2.458  0.00  0.00    +0.000 A 
ATOM     11  C   UNL     1       4.769   1.501  -2.893  0.00  0.00    +0.000 A 
ATOM     12  O   UNL     1       5.496   2.198  -2.200  0.00  0.00    +0.000 OA
ATOM     13  N   UNL     1       4.225   1.852  -4.102  0.00  0.00    +0.000 N 
ATOM     14  N   UNL     1       3.953   0.943  -5.100  0.00  0.00    +0.000 NA
ATOM     15  C   UNL     1       4.040  -0.321  -4.796  0.00  0.00    +0.000 A 
ATOM     16  H   UNL     1       4.115   2.834  -4.302  0.00  0.00    +0.000 HD
ENDBRANCH   2   5
BRANCH   3  17
ATOM     17  C   UNL     1       2.227   2.089   1.517  0.00  0.00    +0.000 C 
BRANCH  17  18
ATOM     18  C   UNL     1       3.144   3.062   2.193  0.00  0.00    +0.000 A 
ATOM     19  C   UNL     1       3.734   4.119   1.485  0.00  0.00    +0.000 A 
ATOM     20  C   UNL     1       4.575   5.020   2.143  0.00  0.00    +0.000 A 
ATOM     21  C   UNL     1       4.851   4.866   3.503  0.00  0.00    +0.000 A 
ATOM     22  C   UNL     1       4.239   3.837   4.219  0.00  0.00    +0.000 A 
ATOM     23  C   UNL     1       3.419   2.933   3.554  0.00  0.00    +0.000 A 
ATOM     24  F   UNL     1       2.880   1.917   4.245  0.00  0.00    +0.000 F 
BRANCH  21  25
ATOM     25  O   UNL     1       5.667   5.820   4.064  0.00  0.00    +0.000 OA
BRANCH  25  26
ATOM     26  C   UNL     1       6.529   5.480   5.081  0.00  0.00    +0.000 A 
ATOM     27  C   UNL     1       7.163   4.240   5.198  0.00  0.00    +0.000 A 
ATOM     28  C   UNL     1       8.024   3.992   6.271  0.00  0.00    +0.000 A 
ATOM     29  C   UNL     1       8.293   4.999   7.199  0.00  0.00    +0.000 A 
ATOM     30  C   UNL     1       7.702   6.253   7.056  0.00  0.00    +0.000 A 
ATOM     31  C   UNL     1       6.823   6.493   5.997  0.00  0.00    +0.000 A 
ENDBRANCH  25  26
ENDBRANCH  21  25
ENDBRANCH  17  18
ENDBRANCH   3  17
TORSDOF 5
