REMARK  Name = 
REMARK  5 active torsions:
REMARK  status: ('A' for Active; 'I' for Inactive)
REMARK    1  A    between atoms: C_2  and  C_16
REMARK    2  A    between atoms: N_3  and  C_4
REMARK    3  A    between atoms: C_5  and  C_6
REMARK    4  A    between atoms: C_6  and  C_7
REMARK    5  A    between atoms: N_18  and  C_19
REMARK                            x       y       z     vdW  Elec       q    Type
REMARK                         _______ _______ _______ _____ _____    ______ ____
ROOT
ATOM      1  O   UNL     1       1.131  -0.695   0.339  0.00  0.00    +0.000 OA
ATOM      2  C   UNL     1       2.318  -0.433   0.157  0.00  0.00    +0.000 C 
ATOM      3  N   UNL     1       2.977  -0.623  -1.050  0.00  0.00    +0.000 N 
ATOM      4  H   UNL     1       3.937  -0.926  -0.950  0.00  0.00    +0.000 HD
ENDROOT
BRANCH   2   5
ATOM      5  C   UNL     1       3.151   0.162   1.261  0.00  0.00    +0.000 A 
ATOM      6  C   UNL     1       2.478   0.668   2.315  0.00  0.00    +0.000 A 
ATOM      7  N   UNL     1       3.110   1.390   3.325  0.00  0.00    +0.000 N 
ATOM      8  C   UNL     1       4.492   1.632   3.302  0.00  0.00    +0.000 A 
ATOM      9  O   UNL     1       5.144   2.241   4.148  0.00  0.00    +0.000 OA
ATOM     10  C   UNL     1       5.234   0.988   2.184  0.00  0.00    +0.000 A 
ATOM     11  C   UNL     1       4.594   0.285   1.241  0.00  0.00    +0.000 A 
BRANCH   7  12
ATOM     12  C   UNL     1       2.364   1.916   4.422  0.00  0.00    +0.000 A 
ATOM     13  C   UNL     1       1.617   1.049   5.231  0.00  0.00    +0.000 A 
ATOM     14  C   UNL     1       0.960   1.538   6.366  0.00  0.00    +0.000 A 
ATOM     15  C   UNL     1       1.013   2.898   6.675  0.00  0.00    +0.000 A 
ATOM     16  C   UNL     1       1.715   3.775   5.849  0.00  0.00    +0.000 A 
ATOM     17  C   UNL     1       2.395   3.281   4.734  0.00  0.00    +0.000 A 
ATOM     18  F   UNL     1       3.016   4.151   3.926  0.00  0.00    +0.000 F 
ENDBRANCH   7  12
ENDBRANCH   2   5
BRANCH   3  19
ATOM     19  C   UNL     1       2.295  -1.233  -2.088  0.00  0.00    +0.000 A 
ATOM     20  C   UNL     1       1.642  -0.601  -3.125  0.00  0.00    +0.000 A 
ATOM     21  O   UNL     1       1.145  -1.546  -3.976  0.00  0.00    +0.000 OA
ATOM     22  N   UNL     1       1.505  -2.806  -3.530  0.00  0.00    +0.000 NA
ATOM     23  C   UNL     1       2.196  -2.602  -2.408  0.00  0.00    +0.000 A 
BRANCH  20  24
ATOM     24  C   UNL     1       1.465   0.811  -3.549  0.00  0.00    +0.000 C 
BRANCH  24  25
ATOM     25  C   UNL     1       0.261   1.481  -2.937  0.00  0.00    +0.000 A 
ATOM     26  C   UNL     1       0.382   2.211  -1.746  0.00  0.00    +0.000 A 
ATOM     27  C   UNL     1      -0.742   2.780  -1.148  0.00  0.00    +0.000 A 
ATOM     28  C   UNL     1      -1.996   2.632  -1.737  0.00  0.00    +0.000 A 
ATOM     29  C   UNL     1      -2.126   1.928  -2.933  0.00  0.00    +0.000 A 
ATOM     30  C   UNL     1      -1.003   1.354  -3.531  0.00  0.00    +0.000 A 
ENDBRANCH  24  25
ENDBRANCH  20  24
ENDBRANCH   3  19
TORSDOF 5
