REMARK  Name = 
REMARK  5 active torsions:
REMARK  status: ('A' for Active; 'I' for Inactive)
REMARK    1  A    between atoms: C_2  and  C_17
REMARK    2  A    between atoms: N_3  and  C_4
REMARK    3  A    between atoms: C_9  and  C_10
REMARK    4  A    between atoms: C_10  and  C_11
REMARK    5  A    between atoms: C_21  and  C_22
REMARK                            x       y       z     vdW  Elec       q    Type
REMARK                         _______ _______ _______ _____ _____    ______ ____
ROOT
ATOM      1  O   UNL     1       1.052   0.102  -0.368  0.00  0.00    +0.000 OA
ATOM      2  C   UNL     1       2.263  -0.028  -0.217  0.00  0.00    +0.000 C 
ATOM      3  N   UNL     1       2.916  -1.065   0.435  0.00  0.00    +0.000 N 
ATOM      4  H   UNL     1       3.895  -0.933   0.644  0.00  0.00    +0.000 HD
ENDROOT
BRANCH   3   5
ATOM      5  C   UNL     1       2.300  -2.248   0.928  0.00  0.00    +0.000 A 
ATOM      6  C   UNL     1       1.006  -2.603   0.514  0.00  0.00    +0.000 A 
ATOM      7  C   UNL     1       0.381  -3.763   0.969  0.00  0.00    +0.000 A 
ATOM      8  C   UNL     1       1.059  -4.623   1.816  0.00  0.00    +0.000 A 
ATOM      9  C   UNL     1       2.350  -4.303   2.233  0.00  0.00    +0.000 A 
ATOM     10  C   UNL     1       2.979  -3.105   1.828  0.00  0.00    +0.000 A 
BRANCH  10  11
ATOM     11  C   UNL     1       4.303  -2.779   2.489  0.00  0.00    +0.000 C 
BRANCH  11  12
ATOM     12  C   UNL     1       5.559  -3.357   1.886  0.00  0.00    +0.000 A 
ATOM     13  C   UNL     1       6.641  -3.708   2.708  0.00  0.00    +0.000 A 
ATOM     14  C   UNL     1       7.864  -4.061   2.143  0.00  0.00    +0.000 A 
ATOM     15  C   UNL     1       7.972  -4.052   0.765  0.00  0.00    +0.000 A 
ATOM     16  N   UNL     1       6.947  -3.756  -0.063  0.00  0.00    +0.000 NA
ATOM     17  C   UNL     1       5.767  -3.429   0.513  0.00  0.00    +0.000 A 
ENDBRANCH  11  12
ENDBRANCH  10  11
ENDBRANCH   3   5
BRANCH   2  18
ATOM     18  C   UNL     1       3.117   1.081  -0.713  0.00  0.00    +0.000 A 
ATOM     19  C   UNL     1       4.382   0.864  -1.265  0.00  0.00    +0.000 A 
ATOM     20  C   UNL     1       5.114   1.947  -1.755  0.00  0.00    +0.000 A 
ATOM     21  C   UNL     1       4.586   3.241  -1.695  0.00  0.00    +0.000 A 
ATOM     22  C   UNL     1       3.316   3.464  -1.148  0.00  0.00    +0.000 A 
ATOM     23  C   UNL     1       2.578   2.376  -0.674  0.00  0.00    +0.000 A 
BRANCH  22  24
ATOM     24  C   UNL     1       2.759   4.848  -1.124  0.00  0.00    +0.000 A 
ATOM     25  N   UNL     1       3.103   5.688  -2.054  0.00  0.00    +0.000 NA
ATOM     26  N   UNL     1       2.545   6.934  -1.998  0.00  0.00    +0.000 N 
ATOM     27  C   UNL     1       1.648   7.377  -1.061  0.00  0.00    +0.000 A 
ATOM     28  O   UNL     1       1.152   8.494  -1.071  0.00  0.00    +0.000 OA
ATOM     29  C   UNL     1       1.310   6.411   0.001  0.00  0.00    +0.000 A 
ATOM     30  C   UNL     1       1.843   5.187  -0.004  0.00  0.00    +0.000 A 
ATOM     31  H   UNL     1       2.793   7.577  -2.745  0.00  0.00    +0.000 HD
ENDBRANCH  22  24
ENDBRANCH   2  18
TORSDOF 5
