REMARK  Name = 
REMARK  6 active torsions:
REMARK  status: ('A' for Active; 'I' for Inactive)
REMARK    1  A    between atoms: C_1  and  C_2
REMARK    2  A    between atoms: C_5  and  O_6
REMARK    3  A    between atoms: O_6  and  C_7
REMARK    4  A    between atoms: C_12  and  C_13
REMARK    5  A    between atoms: C_13  and  N_14
REMARK    6  A    between atoms: C_15  and  C_17
REMARK                            x       y       z     vdW  Elec       q    Type
REMARK                         _______ _______ _______ _____ _____    ______ ____
ROOT
ATOM      1  N   UNL     1      -3.834   1.256  -3.260  0.00  0.00    +0.000 N 
ATOM      2  C   UNL     1      -4.312   1.856  -4.405  0.00  0.00    +0.000 C 
ATOM      3  O   UNL     1      -4.231   3.051  -4.654  0.00  0.00    +0.000 OA
ATOM      4  H   UNL     1      -4.120   0.316  -3.011  0.00  0.00    +0.000 HD
ENDROOT
BRANCH   2   5
ATOM      5  C   UNL     1      -4.996   0.937  -5.352  0.00  0.00    +0.000 A 
ATOM      6  C   UNL     1      -6.171   1.353  -5.993  0.00  0.00    +0.000 A 
ATOM      7  C   UNL     1      -6.924   0.439  -6.737  0.00  0.00    +0.000 A 
ATOM      8  C   UNL     1      -6.546  -0.908  -6.783  0.00  0.00    +0.000 A 
ATOM      9  C   UNL     1      -5.372  -1.312  -6.143  0.00  0.00    +0.000 A 
ATOM     10  C   UNL     1      -4.556  -0.376  -5.526  0.00  0.00    +0.000 A 
ATOM     11  C   UNL     1      -3.238  -0.839  -5.093  0.00  0.00    +0.000 A 
ATOM     12  N   UNL     1      -2.950  -2.083  -4.885  0.00  0.00    +0.000 NA
ATOM     13  N   UNL     1      -3.923  -2.995  -5.188  0.00  0.00    +0.000 N 
ATOM     14  C   UNL     1      -5.029  -2.735  -5.965  0.00  0.00    +0.000 A 
ATOM     15  O   UNL     1      -5.741  -3.622  -6.425  0.00  0.00    +0.000 OA
ATOM     16  H   UNL     1      -3.697  -3.965  -4.995  0.00  0.00    +0.000 HD
ENDBRANCH   2   5
BRANCH   1  17
ATOM     17  C   UNL     1      -3.058   1.942  -2.255  0.00  0.00    +0.000 C 
BRANCH  17  23
ATOM     18  C   UNL     1      -3.985   1.262   0.029  0.00  0.00    +0.000 A 
ATOM     19  C   UNL     1      -4.742   1.591   1.164  0.00  0.00    +0.000 A 
ATOM     20  C   UNL     1      -5.490   2.767   1.204  0.00  0.00    +0.000 A 
ATOM     21  C   UNL     1      -5.440   3.658   0.138  0.00  0.00    +0.000 A 
ATOM     22  C   UNL     1      -4.633   3.378  -0.962  0.00  0.00    +0.000 A 
ATOM     23  C   UNL     1      -3.886   2.188  -1.025  0.00  0.00    +0.000 A 
BRANCH  18  24
ATOM     24  O   UNL     1      -3.297   0.064  -0.086  0.00  0.00    +0.000 OA
BRANCH  24  29
ATOM     25  C   UNL     1      -5.167  -4.450   2.832  0.00  0.00    +0.000 C 
ATOM     26  C   UNL     1      -4.688  -3.284   2.018  0.00  0.00    +0.000 A 
ATOM     27  C   UNL     1      -5.599  -2.463   1.345  0.00  0.00    +0.000 A 
ATOM     28  C   UNL     1      -5.152  -1.373   0.597  0.00  0.00    +0.000 A 
ATOM     29  C   UNL     1      -3.792  -1.052   0.562  0.00  0.00    +0.000 A 
ATOM     30  C   UNL     1      -2.871  -1.899   1.181  0.00  0.00    +0.000 A 
ATOM     31  C   UNL     1      -3.318  -3.010   1.905  0.00  0.00    +0.000 A 
ENDBRANCH  24  29
ENDBRANCH  18  24
ENDBRANCH  17  23
ENDBRANCH   1  17
TORSDOF 5
