REMARK  Name = 
REMARK  5 active torsions:
REMARK  status: ('A' for Active; 'I' for Inactive)
REMARK    1  A    between atoms: C_2  and  C_18
REMARK    2  A    between atoms: N_3  and  C_4
REMARK    3  A    between atoms: C_4  and  C_5
REMARK    4  A    between atoms: C_8  and  C_9
REMARK    5  A    between atoms: C_19  and  O_20
REMARK                            x       y       z     vdW  Elec       q    Type
REMARK                         _______ _______ _______ _____ _____    ______ ____
ROOT
ATOM      1  O   UNL     1       1.335  -0.397   0.481  0.00  0.00    +0.000 OA
ATOM      2  C   UNL     1       2.556  -0.289   0.371  0.00  0.00    +0.000 C 
ATOM      3  N   UNL     1       3.236   0.763   0.959  0.00  0.00    +0.000 N 
ATOM      4  H   UNL     1       4.174   0.987   0.655  0.00  0.00    +0.000 HD
ENDROOT
BRANCH   2   5
ATOM      5  C   UNL     1       3.280  -1.234  -0.539  0.00  0.00    +0.000 A 
ATOM      6  C   UNL     1       2.492  -1.916  -1.497  0.00  0.00    +0.000 A 
ATOM      7  C   UNL     1       3.070  -2.713  -2.475  0.00  0.00    +0.000 A 
ATOM      8  C   UNL     1       4.449  -2.721  -2.607  0.00  0.00    +0.000 A 
ATOM      9  C   UNL     1       5.255  -2.079  -1.663  0.00  0.00    +0.000 A 
ATOM     10  C   UNL     1       6.641  -2.138  -1.827  0.00  0.00    +0.000 A 
ATOM     11  C   UNL     1       7.469  -2.023  -0.723  0.00  0.00    +0.000 A 
ATOM     12  C   UNL     1       6.933  -1.605   0.486  0.00  0.00    +0.000 A 
ATOM     13  C   UNL     1       5.585  -1.221   0.558  0.00  0.00    +0.000 A 
ATOM     14  C   UNL     1       4.690  -1.465  -0.519  0.00  0.00    +0.000 A 
BRANCH   6  15
ATOM     15  O   UNL     1       1.122  -1.860  -1.551  0.00  0.00    +0.000 OA
ATOM     16  H   UNL     1       0.811  -1.295  -0.808  0.00  0.00    +0.000 HD
ENDBRANCH   6  15
ENDBRANCH   2   5
BRANCH   3  17
ATOM     17  C   UNL     1       2.459   1.812   1.587  0.00  0.00    +0.000 C 
BRANCH  17  18
ATOM     18  C   UNL     1       3.294   2.786   2.376  0.00  0.00    +0.000 A 
ATOM     19  C   UNL     1       3.859   3.911   1.759  0.00  0.00    +0.000 A 
ATOM     20  C   UNL     1       4.577   4.847   2.510  0.00  0.00    +0.000 A 
ATOM     21  C   UNL     1       4.745   4.673   3.886  0.00  0.00    +0.000 A 
ATOM     22  C   UNL     1       4.204   3.541   4.508  0.00  0.00    +0.000 A 
ATOM     23  C   UNL     1       3.484   2.605   3.752  0.00  0.00    +0.000 A 
BRANCH  21  24
ATOM     24  C   UNL     1       5.506   5.665   4.680  0.00  0.00    +0.000 A 
ATOM     25  C   UNL     1       4.848   6.703   5.224  0.00  0.00    +0.000 A 
ATOM     26  N   UNL     1       5.525   7.646   5.961  0.00  0.00    +0.000 N 
ATOM     27  C   UNL     1       6.877   7.611   6.205  0.00  0.00    +0.000 A 
ATOM     28  O   UNL     1       7.453   8.463   6.878  0.00  0.00    +0.000 OA
ATOM     29  C   UNL     1       7.608   6.479   5.608  0.00  0.00    +0.000 A 
ATOM     30  C   UNL     1       6.951   5.559   4.881  0.00  0.00    +0.000 A 
ATOM     31  H   UNL     1       5.022   8.425   6.362  0.00  0.00    +0.000 HD
ENDBRANCH  21  24
ENDBRANCH  17  18
ENDBRANCH   3  17
TORSDOF 5
