REMARK  Name = 
REMARK  5 active torsions:
REMARK  status: ('A' for Active; 'I' for Inactive)
REMARK    1  A    between atoms: C_2  and  C_17
REMARK    2  A    between atoms: N_3  and  C_4
REMARK    3  A    between atoms: C_8  and  C_9
REMARK    4  A    between atoms: C_9  and  C_10
REMARK    5  A    between atoms: N_21  and  C_22
REMARK                            x       y       z     vdW  Elec       q    Type
REMARK                         _______ _______ _______ _____ _____    ______ ____
ROOT
ATOM      1  O   UNL     1       1.095   0.438  -0.079  0.00  0.00    +0.000 OA
ATOM      2  C   UNL     1       2.278   0.112  -0.030  0.00  0.00    +0.000 C 
ATOM      3  N   UNL     1       2.899  -0.743  -0.912  0.00  0.00    +0.000 N 
ATOM      4  H   UNL     1       3.634  -1.346  -0.571  0.00  0.00    +0.000 HD
ENDROOT
BRANCH   2   5
ATOM      5  C   UNL     1       3.116   0.608   1.077  0.00  0.00    +0.000 A 
ATOM      6  C   UNL     1       2.546   0.803   2.267  0.00  0.00    +0.000 A 
ATOM      7  C   UNL     1       3.283   1.441   3.376  0.00  0.00    +0.000 A 
ATOM      8  O   UNL     1       2.671   1.575   4.434  0.00  0.00    +0.000 OA
ATOM      9  N   UNL     1       4.582   1.870   3.081  0.00  0.00    +0.000 N 
ATOM     10  N   UNL     1       5.175   1.685   1.838  0.00  0.00    +0.000 NA
ATOM     11  C   UNL     1       4.488   1.083   0.928  0.00  0.00    +0.000 A 
BRANCH   9  12
ATOM     12  C   UNL     1       5.442   2.503   4.039  0.00  0.00    +0.000 A 
ATOM     13  C   UNL     1       5.263   2.349   5.420  0.00  0.00    +0.000 A 
ATOM     14  C   UNL     1       6.148   2.932   6.334  0.00  0.00    +0.000 A 
ATOM     15  C   UNL     1       7.217   3.697   5.882  0.00  0.00    +0.000 A 
ATOM     16  C   UNL     1       7.402   3.885   4.516  0.00  0.00    +0.000 A 
ATOM     17  C   UNL     1       6.527   3.285   3.605  0.00  0.00    +0.000 A 
ENDBRANCH   9  12
ENDBRANCH   2   5
BRANCH   3  18
ATOM     18  C   UNL     1       2.188  -1.278  -1.994  0.00  0.00    +0.000 A 
ATOM     19  C   UNL     1       1.367  -0.474  -2.777  0.00  0.00    +0.000 A 
ATOM     20  C   UNL     1       0.597  -1.066  -3.764  0.00  0.00    +0.000 A 
ATOM     21  C   UNL     1       0.656  -2.443  -3.928  0.00  0.00    +0.000 A 
ATOM     22  C   UNL     1       1.521  -3.179  -3.119  0.00  0.00    +0.000 A 
ATOM     23  N   UNL     1       2.329  -2.602  -2.186  0.00  0.00    +0.000 NA
BRANCH  22  24
ATOM     24  C   UNL     1       1.565  -4.687  -3.243  0.00  0.00    +0.000 C 
BRANCH  24  25
ATOM     25  C   UNL     1       2.483  -5.172  -4.341  0.00  0.00    +0.000 A 
ATOM     26  C   UNL     1       3.858  -4.923  -4.262  0.00  0.00    +0.000 A 
ATOM     27  C   UNL     1       4.714  -5.345  -5.282  0.00  0.00    +0.000 A 
ATOM     28  C   UNL     1       4.202  -6.024  -6.385  0.00  0.00    +0.000 A 
ATOM     29  C   UNL     1       2.836  -6.293  -6.464  0.00  0.00    +0.000 A 
ATOM     30  C   UNL     1       1.977  -5.869  -5.448  0.00  0.00    +0.000 A 
ENDBRANCH  24  25
ENDBRANCH  22  24
ENDBRANCH   3  18
TORSDOF 5
