REMARK  Name = 
REMARK  6 active torsions:
REMARK  status: ('A' for Active; 'I' for Inactive)
REMARK    1  A    between atoms: N_1  and  C_2
REMARK    2  A    between atoms: C_2  and  C_3
REMARK    3  A    between atoms: C_3  and  N_4
REMARK    4  A    between atoms: C_3  and  C_24
REMARK    5  A    between atoms: C_5  and  C_7
REMARK    6  A    between atoms: C_10  and  N_11
REMARK                            x       y       z     vdW  Elec       q    Type
REMARK                         _______ _______ _______ _____ _____    ______ ____
ROOT
ATOM      1  C   UNL     1       0.904  -3.880  -0.274  0.00  0.00    +0.000 A 
ATOM      2  C   UNL     1       1.768  -4.972  -0.114  0.00  0.00    +0.000 A 
ATOM      3  C   UNL     1       1.311  -6.264  -0.350  0.00  0.00    +0.000 A 
ATOM      4  C   UNL     1      -0.045  -6.475  -0.642  0.00  0.00    +0.000 A 
ATOM      5  C   UNL     1      -0.822  -5.377  -1.056  0.00  0.00    +0.000 A 
ATOM      6  C   UNL     1      -0.357  -4.077  -0.837  0.00  0.00    +0.000 A 
ENDROOT
BRANCH   4   7
ATOM      7  N   UNL     1      -0.682  -7.711  -0.176  0.00  0.00    +0.000 N 
ATOM      8  C   UNL     1      -2.040  -7.588   0.045  0.00  0.00    +0.000 A 
ATOM      9  N   UNL     1      -2.552  -7.193   1.171  0.00  0.00    +0.000 NA
ATOM     10  C   UNL     1      -1.610  -6.890   2.180  0.00  0.00    +0.000 A 
ATOM     11  C   UNL     1      -1.857  -5.892   3.117  0.00  0.00    +0.000 A 
ATOM     12  C   UNL     1      -0.859  -5.529   4.030  0.00  0.00    +0.000 A 
ATOM     13  C   UNL     1       0.370  -6.200   4.049  0.00  0.00    +0.000 A 
ATOM     14  C   UNL     1       0.626  -7.213   3.128  0.00  0.00    +0.000 A 
ATOM     15  C   UNL     1      -0.355  -7.513   2.183  0.00  0.00    +0.000 A 
ATOM     16  C   UNL     1      -0.040  -8.261   0.940  0.00  0.00    +0.000 A 
ATOM     17  O   UNL     1       0.742  -9.201   0.928  0.00  0.00    +0.000 OA
ENDBRANCH   4   7
BRANCH   1  19
ATOM     18  N   UNL     1       2.572  -2.349   0.538  0.00  0.00    +0.000 N 
ATOM     19  C   UNL     1       1.231  -2.566   0.355  0.00  0.00    +0.000 C 
ATOM     20  O   UNL     1       0.344  -1.820   0.755  0.00  0.00    +0.000 OA
ATOM     21  H   UNL     1       3.221  -2.815  -0.080  0.00  0.00    +0.000 HD
BRANCH  18  22
ATOM     22  C   UNL     1       3.108  -1.252   1.323  0.00  0.00    +0.000 C 
BRANCH  22  23
ATOM     23  C   UNL     1       4.359  -1.738   2.034  0.00  0.00    +0.000 A 
ATOM     24  C   UNL     1       4.404  -1.814   3.436  0.00  0.00    +0.000 A 
ATOM     25  C   UNL     1       5.532  -2.328   4.086  0.00  0.00    +0.000 A 
ATOM     26  C   UNL     1       6.627  -2.776   3.348  0.00  0.00    +0.000 A 
ATOM     27  C   UNL     1       6.596  -2.708   1.958  0.00  0.00    +0.000 A 
ATOM     28  C   UNL     1       5.472  -2.196   1.317  0.00  0.00    +0.000 A 
ATOM     29  F   UNL     1       5.449  -2.192  -0.024  0.00  0.00    +0.000 F 
ENDBRANCH  22  23
BRANCH  22  30
ATOM     30  C   UNL     1       3.350   0.012   0.450  0.00  0.00    +0.000 C 
BRANCH  30  31
ATOM     31  N   UNL     1       2.152   0.489  -0.251  0.00  0.00    +0.000 NA
ATOM     32  H   UNL     1       2.208   1.492  -0.409  0.00  0.00    +0.000 HD
ATOM     33  H   UNL     1       1.320   0.310   0.319  0.00  0.00    +0.000 HD
ENDBRANCH  30  31
ENDBRANCH  22  30
ENDBRANCH  18  22
ENDBRANCH   1  19
TORSDOF 6
