REMARK  Name = 
REMARK  5 active torsions:
REMARK  status: ('A' for Active; 'I' for Inactive)
REMARK    1  A    between atoms: C_1  and  C_2
REMARK    2  A    between atoms: C_2  and  N_3
REMARK    3  A    between atoms: C_2  and  C_17
REMARK    4  A    between atoms: C_4  and  C_6
REMARK    5  A    between atoms: C_20  and  C_21
REMARK                            x       y       z     vdW  Elec       q    Type
REMARK                         _______ _______ _______ _____ _____    ______ ____
ROOT
ATOM      1  C   UNL     1       0.986  -0.012  -0.045  0.00  0.00    +0.000 C 
ATOM      2  C   UNL     1       2.516   0.030  -0.086  0.00  0.00    +0.000 C 
ENDROOT
BRANCH   2   3
ATOM      3  C   UNL     1       3.040   1.451  -0.047  0.00  0.00    +0.000 A 
ATOM      4  C   UNL     1       3.890   1.861   0.988  0.00  0.00    +0.000 A 
ATOM      5  C   UNL     1       4.369   3.177   1.046  0.00  0.00    +0.000 A 
ATOM      6  C   UNL     1       4.008   4.136   0.083  0.00  0.00    +0.000 A 
ATOM      7  C   UNL     1       3.167   3.698  -0.954  0.00  0.00    +0.000 A 
ATOM      8  F   UNL     1       2.756   4.544  -1.912  0.00  0.00    +0.000 F 
ATOM      9  C   UNL     1       2.695   2.386  -1.027  0.00  0.00    +0.000 A 
BRANCH   6  10
ATOM     10  C   UNL     1       4.466   5.542   0.185  0.00  0.00    +0.000 A 
ATOM     11  C   UNL     1       4.735   6.318  -0.957  0.00  0.00    +0.000 A 
ATOM     12  C   UNL     1       5.096   7.664  -0.859  0.00  0.00    +0.000 A 
ATOM     13  C   UNL     1       5.217   8.264   0.389  0.00  0.00    +0.000 A 
ATOM     14  C   UNL     1       4.988   7.516   1.538  0.00  0.00    +0.000 A 
ATOM     15  C   UNL     1       4.616   6.171   1.436  0.00  0.00    +0.000 A 
ENDBRANCH   6  10
ENDBRANCH   2   3
BRANCH   2  16
ATOM     16  N   UNL     1       3.030  -0.673  -1.247  0.00  0.00    +0.000 N 
ATOM     17  C   UNL     1       3.293  -2.018  -1.226  0.00  0.00    +0.000 C 
ATOM     18  O   UNL     1       3.183  -2.720  -0.225  0.00  0.00    +0.000 OA
ATOM     19  H   UNL     1       3.102  -0.205  -2.145  0.00  0.00    +0.000 HD
BRANCH  17  20
ATOM     20  C   UNL     1       3.721  -2.571  -2.564  0.00  0.00    +0.000 A 
ATOM     21  C   UNL     1       3.997  -3.877  -2.595  0.00  0.00    +0.000 A 
ATOM     22  C   UNL     1       4.392  -4.480  -3.871  0.00  0.00    +0.000 A 
ATOM     23  O   UNL     1       4.629  -5.686  -3.909  0.00  0.00    +0.000 OA
ATOM     24  N   UNL     1       4.461  -3.612  -4.951  0.00  0.00    +0.000 N 
ATOM     25  C   UNL     1       4.831  -4.109  -6.197  0.00  0.00    +0.000 A 
ATOM     26  C   UNL     1       4.915  -3.321  -7.276  0.00  0.00    +0.000 A 
ATOM     27  C   UNL     1       4.614  -1.918  -7.162  0.00  0.00    +0.000 A 
ATOM     28  C   UNL     1       4.249  -1.395  -5.986  0.00  0.00    +0.000 A 
ATOM     29  C   UNL     1       4.153  -2.265  -4.778  0.00  0.00    +0.000 A 
ATOM     30  N   UNL     1       3.792  -1.729  -3.651  0.00  0.00    +0.000 NA
ENDBRANCH  17  20
ENDBRANCH   2  16
TORSDOF 4
