REMARK  Name = 
REMARK  7 active torsions:
REMARK  status: ('A' for Active; 'I' for Inactive)
REMARK    1  A    between atoms: C_1  and  C_2
REMARK    2  A    between atoms: C_2  and  N_3
REMARK    3  A    between atoms: C_2  and  C_20
REMARK    4  A    between atoms: C_4  and  C_6
REMARK    5  A    between atoms: N_8  and  C_9
REMARK    6  A    between atoms: C_15  and  C_16
REMARK    7  A    between atoms: C_23  and  C_24
REMARK                            x       y       z     vdW  Elec       q    Type
REMARK                         _______ _______ _______ _____ _____    ______ ____
ROOT
ATOM      1  N   UNL     1       3.010   1.146   1.044  0.00  0.00    +0.000 N 
ATOM      2  C   UNL     1       3.271   2.443   0.646  0.00  0.00    +0.000 C 
ATOM      3  O   UNL     1       3.704   3.261   1.456  0.00  0.00    +0.000 OA
ATOM      4  H   UNL     1       3.001   1.011   2.045  0.00  0.00    +0.000 HD
ENDROOT
BRANCH   2   5
ATOM      5  C   UNL     1       3.066   2.776  -0.782  0.00  0.00    +0.000 A 
ATOM      6  N   UNL     1       2.086   2.215  -1.505  0.00  0.00    +0.000 NA
ATOM      7  N   UNL     1       2.359   2.499  -2.787  0.00  0.00    +0.000 N 
ATOM      8  C   UNL     1       3.289   3.529  -2.868  0.00  0.00    +0.000 A 
ATOM      9  C   UNL     1       3.766   3.698  -1.572  0.00  0.00    +0.000 A 
BRANCH   7  10
ATOM     10  C   UNL     1       1.756   1.689  -3.798  0.00  0.00    +0.000 A 
ATOM     11  C   UNL     1       0.544   1.022  -3.541  0.00  0.00    +0.000 A 
ATOM     12  C   UNL     1      -0.062   0.248  -4.536  0.00  0.00    +0.000 A 
ATOM     13  C   UNL     1       0.555   0.104  -5.778  0.00  0.00    +0.000 A 
ATOM     14  C   UNL     1       1.777   0.726  -6.022  0.00  0.00    +0.000 A 
ATOM     15  C   UNL     1       2.380   1.511  -5.037  0.00  0.00    +0.000 A 
ENDBRANCH   7  10
BRANCH   8  16
ATOM     16  C   UNL     1       3.580   4.292  -4.041  0.00  0.00    +0.000 C 
ATOM     17  N   UNL     1       4.813   4.878  -4.071  0.00  0.00    +0.000 N 
ATOM     18  O   UNL     1       2.824   4.449  -4.983  0.00  0.00    +0.000 OA
ATOM     19  H   UNL     1       5.530   4.721  -3.378  0.00  0.00    +0.000 HD
ATOM     20  H   UNL     1       5.028   5.422  -4.891  0.00  0.00    +0.000 HD
ENDBRANCH   8  16
ENDBRANCH   2   5
BRANCH   1  22
ATOM     21  C   UNL     1       0.993   0.090   0.134  0.00  0.00    +0.000 C 
ATOM     22  C   UNL     1       2.525   0.077   0.174  0.00  0.00    +0.000 C 
BRANCH  22  23
ATOM     23  C   UNL     1       3.063  -1.276   0.563  0.00  0.00    +0.000 A 
ATOM     24  C   UNL     1       3.894  -2.000  -0.307  0.00  0.00    +0.000 A 
ATOM     25  C   UNL     1       4.397  -3.247   0.067  0.00  0.00    +0.000 A 
ATOM     26  C   UNL     1       4.077  -3.816   1.306  0.00  0.00    +0.000 A 
ATOM     27  C   UNL     1       3.218  -3.094   2.149  0.00  0.00    +0.000 A 
ATOM     28  C   UNL     1       2.718  -1.849   1.794  0.00  0.00    +0.000 A 
BRANCH  26  29
ATOM     29  C   UNL     1       4.596  -5.139   1.702  0.00  0.00    +0.000 A 
ATOM     30  C   UNL     1       4.849  -5.477   3.041  0.00  0.00    +0.000 A 
ATOM     31  C   UNL     1       5.321  -6.745   3.373  0.00  0.00    +0.000 A 
ATOM     32  C   UNL     1       5.548  -7.649   2.354  0.00  0.00    +0.000 A 
ATOM     33  N   UNL     1       5.334  -7.379   1.054  0.00  0.00    +0.000 NA
ATOM     34  C   UNL     1       4.861  -6.143   0.766  0.00  0.00    +0.000 A 
ENDBRANCH  26  29
ENDBRANCH  22  23
ENDBRANCH   1  22
TORSDOF 6
