REMARK  Name = 
REMARK  6 active torsions:
REMARK  status: ('A' for Active; 'I' for Inactive)
REMARK    1  A    between atoms: C_2  and  C_10
REMARK    2  A    between atoms: N_3  and  C_4
REMARK    3  A    between atoms: C_13  and  C_14
REMARK    4  A    between atoms: C_14  and  N_15
REMARK    5  A    between atoms: C_16  and  C_18
REMARK    6  A    between atoms: C_22  and  C_23
REMARK                            x       y       z     vdW  Elec       q    Type
REMARK                         _______ _______ _______ _____ _____    ______ ____
ROOT
ATOM      1  C   UNL     1       3.103  -1.146  -0.426  0.00  0.00    +0.000 A 
ATOM      2  C   UNL     1       2.719  -1.705  -1.650  0.00  0.00    +0.000 A 
ATOM      3  C   UNL     1       3.447  -2.761  -2.205  0.00  0.00    +0.000 A 
ATOM      4  C   UNL     1       4.557  -3.289  -1.530  0.00  0.00    +0.000 A 
ATOM      5  C   UNL     1       4.956  -2.700  -0.319  0.00  0.00    +0.000 A 
ATOM      6  C   UNL     1       4.231  -1.639   0.237  0.00  0.00    +0.000 A 
ENDROOT
BRANCH   1   8
ATOM      7  O   UNL     1       1.038  -0.137  -0.032  0.00  0.00    +0.000 OA
ATOM      8  C   UNL     1       2.247  -0.079   0.162  0.00  0.00    +0.000 C 
ATOM      9  N   UNL     1       2.923   0.926   0.832  0.00  0.00    +0.000 N 
ATOM     10  H   UNL     1       3.932   0.940   0.747  0.00  0.00    +0.000 HD
BRANCH   9  11
ATOM     11  C   UNL     1       2.330   2.049   1.453  0.00  0.00    +0.000 A 
ATOM     12  C   UNL     1       0.972   2.154   1.744  0.00  0.00    +0.000 A 
ATOM     13  C   UNL     1       0.471   3.319   2.324  0.00  0.00    +0.000 A 
ATOM     14  C   UNL     1       1.352   4.348   2.605  0.00  0.00    +0.000 A 
ATOM     15  N   UNL     1       2.679   4.281   2.366  0.00  0.00    +0.000 NA
ATOM     16  C   UNL     1       3.133   3.135   1.803  0.00  0.00    +0.000 A 
ENDBRANCH   9  11
ENDBRANCH   1   8
BRANCH   4  17
ATOM     17  C   UNL     1       5.280  -4.502  -2.066  0.00  0.00    +0.000 C 
BRANCH  17  18
ATOM     18  N   UNL     1       6.363  -4.161  -2.947  0.00  0.00    +0.000 N 
ATOM     19  C   UNL     1       7.651  -3.980  -2.494  0.00  0.00    +0.000 C 
ATOM     20  O   UNL     1       7.958  -4.098  -1.308  0.00  0.00    +0.000 OA
ATOM     21  H   UNL     1       6.201  -4.059  -3.942  0.00  0.00    +0.000 HD
BRANCH  19  22
ATOM     22  C   UNL     1       8.604  -3.600  -3.542  0.00  0.00    +0.000 A 
ATOM     23  N   UNL     1       8.409  -3.998  -4.814  0.00  0.00    +0.000 NA
ATOM     24  O   UNL     1       9.483  -3.512  -5.533  0.00  0.00    +0.000 OA
ATOM     25  C   UNL     1      10.290  -2.797  -4.715  0.00  0.00    +0.000 A 
ATOM     26  C   UNL     1       9.789  -2.809  -3.432  0.00  0.00    +0.000 A 
BRANCH  26  27
ATOM     27  C   UNL     1      10.394  -2.118  -2.305  0.00  0.00    +0.000 A 
ATOM     28  C   UNL     1       9.591  -1.588  -1.285  0.00  0.00    +0.000 A 
ATOM     29  C   UNL     1      10.162  -1.042  -0.134  0.00  0.00    +0.000 A 
ATOM     30  C   UNL     1      11.545  -0.978  -0.008  0.00  0.00    +0.000 A 
ATOM     31  C   UNL     1      12.357  -1.441  -1.042  0.00  0.00    +0.000 A 
ATOM     32  C   UNL     1      11.786  -2.008  -2.185  0.00  0.00    +0.000 A 
ENDBRANCH  26  27
ENDBRANCH  19  22
ENDBRANCH  17  18
ENDBRANCH   4  17
TORSDOF 6
