REMARK  Name = 
REMARK  5 active torsions:
REMARK  status: ('A' for Active; 'I' for Inactive)
REMARK    1  A    between atoms: C_2  and  C_3
REMARK    2  A    between atoms: C_3  and  C_4
REMARK    3  A    between atoms: C_3  and  C_10
REMARK    4  A    between atoms: C_13  and  N_14
REMARK    5  A    between atoms: C_15  and  C_17
REMARK                            x       y       z     vdW  Elec       q    Type
REMARK                         _______ _______ _______ _____ _____    ______ ____
ROOT
ATOM      1  N   UNL     1       5.498   1.904  -5.157  0.00  0.00    +0.000 N 
ATOM      2  C   UNL     1       5.353   3.157  -5.709  0.00  0.00    +0.000 C 
ATOM      3  O   UNL     1       4.797   4.115  -5.173  0.00  0.00    +0.000 OA
ATOM      4  H   UNL     1       5.960   1.207  -5.744  0.00  0.00    +0.000 HD
ENDROOT
BRANCH   2   5
ATOM      5  C   UNL     1       5.947   3.326  -7.074  0.00  0.00    +0.000 A 
ATOM      6  C   UNL     1       5.766   4.528  -7.652  0.00  0.00    +0.000 A 
ATOM      7  N   UNL     1       6.319   4.844  -8.868  0.00  0.00    +0.000 N 
ATOM      8  C   UNL     1       7.128   4.001  -9.589  0.00  0.00    +0.000 A 
ATOM      9  O   UNL     1       7.633   4.333 -10.654  0.00  0.00    +0.000 OA
ATOM     10  C   UNL     1       7.357   2.664  -9.005  0.00  0.00    +0.000 A 
ATOM     11  C   UNL     1       8.173   1.728  -9.639  0.00  0.00    +0.000 A 
ATOM     12  C   UNL     1       8.347   0.476  -9.056  0.00  0.00    +0.000 A 
ATOM     13  C   UNL     1       7.685   0.205  -7.871  0.00  0.00    +0.000 A 
ATOM     14  N   UNL     1       6.894   1.097  -7.230  0.00  0.00    +0.000 NA
ATOM     15  C   UNL     1       6.750   2.328  -7.798  0.00  0.00    +0.000 A 
ATOM     16  H   UNL     1       6.170   5.766  -9.264  0.00  0.00    +0.000 HD
ENDBRANCH   2   5
BRANCH   1  20
ATOM     17  C   UNL     1       4.230   0.522  -1.374  0.00  0.00    +0.000 A 
ATOM     18  C   UNL     1       4.075   1.868  -1.716  0.00  0.00    +0.000 A 
ATOM     19  C   UNL     1       4.495   2.336  -2.954  0.00  0.00    +0.000 A 
ATOM     20  C   UNL     1       5.082   1.480  -3.882  0.00  0.00    +0.000 A 
ATOM     21  C   UNL     1       5.273   0.138  -3.538  0.00  0.00    +0.000 A 
ATOM     22  C   UNL     1       4.849  -0.341  -2.294  0.00  0.00    +0.000 A 
BRANCH  17  23
ATOM     23  C   UNL     1       3.708   0.059  -0.035  0.00  0.00    +0.000 C 
BRANCH  23  24
ATOM     24  C   UNL     1       4.813  -0.474   0.899  0.00  0.00    +0.000 A 
ATOM     25  C   UNL     1       5.105  -1.854   0.993  0.00  0.00    +0.000 A 
ATOM     26  C   UNL     1       6.059  -2.336   1.888  0.00  0.00    +0.000 A 
ATOM     27  C   UNL     1       6.759  -1.448   2.695  0.00  0.00    +0.000 A 
ATOM     28  C   UNL     1       6.505  -0.080   2.603  0.00  0.00    +0.000 A 
ATOM     29  C   UNL     1       5.541   0.407   1.712  0.00  0.00    +0.000 A 
ENDBRANCH  23  24
BRANCH  23  31
ATOM     30  N   UNL     1       1.761  -1.911  -0.285  0.00  0.00    +0.000 NA
ATOM     31  C   UNL     1       2.644  -1.018  -0.172  0.00  0.00    +0.000 C 
ENDBRANCH  23  31
ENDBRANCH  17  23
ENDBRANCH   1  20
TORSDOF 5
