REMARK  Name = 
REMARK  11 active torsions:
REMARK  status: ('A' for Active; 'I' for Inactive)
REMARK    1  A    between atoms: N_1  and  CA_2
REMARK    2  A    between atoms: CA_2  and  C_3
REMARK    3  A    between atoms: CA_2  and  C_31
REMARK    4  A    between atoms: C_3  and  C_4
REMARK    5  A    between atoms: C_8  and  N_9
REMARK    6  A    between atoms: C_10  and  C_12
REMARK    7  A    between atoms: C_12  and  C_13
REMARK    8  A    between atoms: C_18  and  O_19
REMARK    9  A    between atoms: O_19  and  C_20
REMARK   10  A    between atoms: C_20  and  C_21
REMARK   11  A    between atoms: C_31  and  OXT_33
REMARK                            x       y       z     vdW  Elec       q    Type
REMARK                         _______ _______ _______ _____ _____    ______ ____
ROOT
ATOM      1  N   UNL     1      -0.148  -1.408  -7.502  0.00  0.00    +0.000 N 
ATOM      2  C   UNL     1      -0.293  -0.215  -6.792  0.00  0.00    +0.000 C 
ATOM      3  O   UNL     1       0.289   0.051  -5.747  0.00  0.00    +0.000 OA
ATOM      4  H   UNL     1      -0.720  -1.516  -8.329  0.00  0.00    +0.000 HD
ENDROOT
BRANCH   1   9
ATOM      5  C   UNL     1       1.691  -4.566  -8.112  0.00  0.00    +0.000 A 
ATOM      6  C   UNL     1       2.626  -4.540  -7.074  0.00  0.00    +0.000 A 
ATOM      7  C   UNL     1       2.637  -3.495  -6.156  0.00  0.00    +0.000 A 
ATOM      8  C   UNL     1       1.715  -2.455  -6.258  0.00  0.00    +0.000 A 
ATOM      9  C   UNL     1       0.786  -2.456  -7.294  0.00  0.00    +0.000 A 
ATOM     10  C   UNL     1       0.765  -3.518  -8.211  0.00  0.00    +0.000 A 
BRANCH   5  11
ATOM     11  C   UNL     1       1.752  -5.646  -9.188  0.00  0.00    +0.000 C 
BRANCH  11  12
ATOM     12  CA  UNL     1       0.949  -6.925  -8.909  0.00  0.00    +0.000 C 
BRANCH  12  13
ATOM     13  N   UNL     1       1.452  -7.670  -7.710  0.00  0.00    +0.000 NA
ATOM     14  H1  UNL     1       1.346  -7.040  -6.906  0.00  0.00    +0.000 HD
ATOM     15  H2  UNL     1       2.469  -7.767  -7.805  0.00  0.00    +0.000 HD
ENDBRANCH  12  13
BRANCH  12  16
ATOM     16  C   UNL     1       1.051  -7.869 -10.124  0.00  0.00    +0.000 C 
ATOM     17  O   UNL     1       1.109  -7.535 -11.296  0.00  0.00    +0.000 OA
BRANCH  16  18
ATOM     18  OXT UNL     1       1.070  -9.177  -9.730  0.00  0.00    +0.000 OA
ATOM     19  HXT UNL     1       1.048  -9.168  -8.740  0.00  0.00    +0.000 HD
ENDBRANCH  16  18
ENDBRANCH  12  16
ENDBRANCH  11  12
ENDBRANCH   5  11
ENDBRANCH   1   9
BRANCH   2  20
ATOM     20  C   UNL     1      -1.356   0.732  -7.335  0.00  0.00    +0.000 C 
BRANCH  20  21
ATOM     21  C   UNL     1      -1.603   0.557  -8.807  0.00  0.00    +0.000 A 
ATOM     22  C   UNL     1      -2.675  -0.086  -9.391  0.00  0.00    +0.000 A 
ATOM     23  N   UNL     1      -2.469  -0.027 -10.744  0.00  0.00    +0.000 N 
ATOM     24  C   UNL     1      -1.120   0.113 -10.962  0.00  0.00    +0.000 A 
ATOM     25  C   UNL     1      -0.273  -0.310 -11.996  0.00  0.00    +0.000 A 
ATOM     26  C   UNL     1       1.071   0.072 -11.890  0.00  0.00    +0.000 A 
ATOM     27  C   UNL     1       1.450   1.057 -10.975  0.00  0.00    +0.000 A 
ATOM     28  C   UNL     1       0.602   1.424  -9.925  0.00  0.00    +0.000 A 
ATOM     29  C   UNL     1      -0.661   0.820  -9.853  0.00  0.00    +0.000 A 
ATOM     30  H   UNL     1      -3.181  -0.084 -11.461  0.00  0.00    +0.000 HD
BRANCH  26  31
ATOM     31  O   UNL     1       1.948  -0.596 -12.712  0.00  0.00    +0.000 OA
BRANCH  31  32
ATOM     32  C   UNL     1       3.299  -0.704 -12.239  0.00  0.00    +0.000 C 
BRANCH  32  33
ATOM     33  C   UNL     1       3.742  -2.133 -12.022  0.00  0.00    +0.000 A 
ATOM     34  C   UNL     1       4.350  -2.871 -13.040  0.00  0.00    +0.000 A 
ATOM     35  C   UNL     1       4.857  -4.150 -12.780  0.00  0.00    +0.000 A 
ATOM     36  C   UNL     1       4.797  -4.678 -11.494  0.00  0.00    +0.000 A 
ATOM     37  C   UNL     1       4.217  -3.931 -10.474  0.00  0.00    +0.000 A 
ATOM     38  C   UNL     1       3.647  -2.689 -10.742  0.00  0.00    +0.000 A 
ENDBRANCH  32  33
ENDBRANCH  31  32
ENDBRANCH  26  31
ENDBRANCH  20  21
ENDBRANCH   2  20
TORSDOF 11
