REMARK  Name = 
REMARK  7 active torsions:
REMARK  status: ('A' for Active; 'I' for Inactive)
REMARK    1  A    between atoms: C_2  and  O_3
REMARK    2  A    between atoms: C_2  and  C_11
REMARK    3  A    between atoms: O_3  and  C_4
REMARK    4  A    between atoms: C_4  and  C_5
REMARK    5  A    between atoms: C_13  and  N_14
REMARK    6  A    between atoms: C_15  and  C_17
REMARK    7  A    between atoms: C_24  and  O_25
REMARK                            x       y       z     vdW  Elec       q    Type
REMARK                         _______ _______ _______ _____ _____    ______ ____
ROOT
ATOM      1  C   UNL     1       2.947  -1.279   0.361  0.00  0.00    +0.000 A 
ATOM      2  C   UNL     1       2.536  -2.317  -0.479  0.00  0.00    +0.000 A 
ATOM      3  C   UNL     1       3.220  -3.534  -0.535  0.00  0.00    +0.000 A 
ATOM      4  C   UNL     1       4.357  -3.704   0.263  0.00  0.00    +0.000 A 
ATOM      5  C   UNL     1       4.767  -2.682   1.128  0.00  0.00    +0.000 A 
ATOM      6  C   UNL     1       4.061  -1.476   1.185  0.00  0.00    +0.000 A 
ENDROOT
BRANCH   3   7
ATOM      7  N   UNL     1       2.804  -4.590  -1.370  0.00  0.00    +0.000 N 
ATOM      8  C   UNL     1       1.686  -4.595  -2.190  0.00  0.00    +0.000 C 
ATOM      9  O   UNL     1       0.859  -3.694  -2.326  0.00  0.00    +0.000 OA
ATOM     10  H   UNL     1       3.367  -5.439  -1.402  0.00  0.00    +0.000 HD
BRANCH   8  11
ATOM     11  C   UNL     1       1.512  -5.823  -3.012  0.00  0.00    +0.000 A 
ATOM     12  C   UNL     1       0.428  -5.918  -3.874  0.00  0.00    +0.000 A 
ATOM     13  C   UNL     1       0.401  -6.970  -4.776  0.00  0.00    +0.000 A 
ATOM     14  C   UNL     1       1.466  -7.880  -4.802  0.00  0.00    +0.000 A 
ATOM     15  C   UNL     1       1.540  -8.886  -5.777  0.00  0.00    +0.000 A 
ATOM     16  C   UNL     1       2.639  -9.729  -5.776  0.00  0.00    +0.000 A 
ATOM     17  N   UNL     1       3.625  -9.670  -4.857  0.00  0.00    +0.000 NA
ATOM     18  C   UNL     1       3.505  -8.692  -3.934  0.00  0.00    +0.000 A 
ATOM     19  C   UNL     1       2.492  -7.743  -3.844  0.00  0.00    +0.000 A 
ATOM     20  N   UNL     1       2.511  -6.734  -2.941  0.00  0.00    +0.000 NA
BRANCH  18  21
ATOM     21  O   UNL     1       4.545  -8.682  -3.050  0.00  0.00    +0.000 OA
ATOM     22  H   UNL     1       5.057  -9.436  -3.382  0.00  0.00    +0.000 HD
ENDBRANCH  18  21
ENDBRANCH   8  11
ENDBRANCH   3   7
BRANCH   1  24
ATOM     23  O   UNL     1       2.541   0.952   1.103  0.00  0.00    +0.000 OA
ATOM     24  C   UNL     1       2.219   0.024   0.378  0.00  0.00    +0.000 C 
BRANCH  24  25
ATOM     25  O   UNL     1       1.184   0.014  -0.496  0.00  0.00    +0.000 OA
BRANCH  25  26
ATOM     26  C   UNL     1       0.348   1.182  -0.568  0.00  0.00    +0.000 C 
BRANCH  26  27
ATOM     27  C   UNL     1       0.277   1.737  -1.978  0.00  0.00    +0.000 A 
ATOM     28  C   UNL     1       0.403   0.913  -3.104  0.00  0.00    +0.000 A 
ATOM     29  C   UNL     1       0.249   1.436  -4.392  0.00  0.00    +0.000 A 
ATOM     30  C   UNL     1      -0.045   2.787  -4.571  0.00  0.00    +0.000 A 
ATOM     31  C   UNL     1      -0.179   3.617  -3.463  0.00  0.00    +0.000 A 
ATOM     32  C   UNL     1      -0.022   3.097  -2.174  0.00  0.00    +0.000 A 
ENDBRANCH  26  27
ENDBRANCH  25  26
ENDBRANCH  24  25
ENDBRANCH   1  24
TORSDOF 7
