REMARK  Name = 
REMARK  6 active torsions:
REMARK  status: ('A' for Active; 'I' for Inactive)
REMARK    1  A    between atoms: C_2  and  C_18
REMARK    2  A    between atoms: N_3  and  C_4
REMARK    3  A    between atoms: C_4  and  C_5
REMARK    4  A    between atoms: C_6  and  C_7
REMARK    5  A    between atoms: N_20  and  C_21
REMARK    6  A    between atoms: C_28  and  O_29
REMARK                            x       y       z     vdW  Elec       q    Type
REMARK                         _______ _______ _______ _____ _____    ______ ____
ROOT
ATOM      1  O   UNL     1       1.051  -0.148   0.035  0.00  0.00    +0.000 OA
ATOM      2  C   UNL     1       2.278  -0.148  -0.002  0.00  0.00    +0.000 C 
ATOM      3  N   UNL     1       2.993  -0.520  -1.115  0.00  0.00    +0.000 N 
ATOM      4  H   UNL     1       3.994  -0.616  -0.986  0.00  0.00    +0.000 HD
ENDROOT
BRANCH   2   5
ATOM      5  C   UNL     1       3.136   0.268   1.119  0.00  0.00    +0.000 A 
ATOM      6  N   UNL     1       4.487   0.254   1.032  0.00  0.00    +0.000 NA
ATOM      7  N   UNL     1       4.928   0.674   2.251  0.00  0.00    +0.000 N 
ATOM      8  C   UNL     1       3.879   0.991   3.088  0.00  0.00    +0.000 A 
ATOM      9  C   UNL     1       2.735   0.741   2.384  0.00  0.00    +0.000 A 
BRANCH   7  10
ATOM     10  C   UNL     1       6.321   0.752   2.546  0.00  0.00    +0.000 A 
ATOM     11  C   UNL     1       7.264   0.461   1.549  0.00  0.00    +0.000 A 
ATOM     12  C   UNL     1       8.632   0.536   1.826  0.00  0.00    +0.000 A 
ATOM     13  C   UNL     1       9.067   0.893   3.100  0.00  0.00    +0.000 A 
ATOM     14  C   UNL     1       8.139   1.177   4.099  0.00  0.00    +0.000 A 
ATOM     15  C   UNL     1       6.769   1.111   3.826  0.00  0.00    +0.000 A 
ENDBRANCH   7  10
BRANCH   9  16
ATOM     16  O   UNL     1       1.497   0.935   2.860  0.00  0.00    +0.000 OA
ATOM     17  H   UNL     1       1.520   1.288   3.764  0.00  0.00    +0.000 HD
ENDBRANCH   9  16
ENDBRANCH   2   5
BRANCH   3  18
ATOM     18  C   UNL     1       2.362  -1.058  -2.290  0.00  0.00    +0.000 C 
BRANCH  18  19
ATOM     19  C   UNL     1       2.188  -2.539  -2.204  0.00  0.00    +0.000 A 
ATOM     20  C   UNL     1       1.530  -3.381  -3.087  0.00  0.00    +0.000 A 
ATOM     21  O   UNL     1       1.580  -4.648  -2.559  0.00  0.00    +0.000 OA
ATOM     22  C   UNL     1       2.284  -4.506  -1.407  0.00  0.00    +0.000 A 
ATOM     23  N   UNL     1       2.689  -3.286  -1.149  0.00  0.00    +0.000 NA
BRANCH  20  24
ATOM     24  C   UNL     1       0.860  -3.256  -4.375  0.00  0.00    +0.000 A 
ATOM     25  C   UNL     1      -0.209  -4.103  -4.713  0.00  0.00    +0.000 A 
ATOM     26  C   UNL     1      -0.824  -4.008  -5.967  0.00  0.00    +0.000 A 
ATOM     27  C   UNL     1      -0.377  -3.065  -6.885  0.00  0.00    +0.000 A 
ATOM     28  F   UNL     1      -0.954  -2.988  -8.090  0.00  0.00    +0.000 F 
ATOM     29  C   UNL     1       0.670  -2.211  -6.577  0.00  0.00    +0.000 A 
ATOM     30  C   UNL     1       1.278  -2.318  -5.330  0.00  0.00    +0.000 A 
ATOM     31  F   UNL     1       2.315  -1.505  -5.084  0.00  0.00    +0.000 F 
ENDBRANCH  20  24
ENDBRANCH  18  19
ENDBRANCH   3  18
TORSDOF 6
