REMARK  Name = 
REMARK  4 active torsions:
REMARK  status: ('A' for Active; 'I' for Inactive)
REMARK    1  A    between atoms: C_2  and  C_3
REMARK    2  A    between atoms: C_5  and  C_6
REMARK    3  A    between atoms: C_12  and  C_14
REMARK    4  A    between atoms: N_18  and  C_19
REMARK                            x       y       z     vdW  Elec       q    Type
REMARK                         _______ _______ _______ _____ _____    ______ ____
ROOT
ATOM      1  C   UNL     1       0.636   5.134   2.014  0.00  0.00    +0.000 A 
ATOM      2  C   UNL     1       0.264   3.868   1.580  0.00  0.00    +0.000 A 
ATOM      3  C   UNL     1       0.837   3.362   0.417  0.00  0.00    +0.000 A 
ATOM      4  C   UNL     1       1.758   4.133  -0.289  0.00  0.00    +0.000 A 
ATOM      5  C   UNL     1       2.064   5.402   0.179  0.00  0.00    +0.000 A 
ATOM      6  N   UNL     1       2.988   6.178  -0.548  0.00  0.00    +0.000 N 
ATOM      7  C   UNL     1       3.323   7.478  -0.214  0.00  0.00    +0.000 C 
ATOM      8  O   UNL     1       2.818   8.103   0.713  0.00  0.00    +0.000 OA
ATOM      9  N   UNL     1       1.513   5.886   1.308  0.00  0.00    +0.000 NA
ATOM     10  H   UNL     1       3.423   5.753  -1.350  0.00  0.00    +0.000 HD
ENDROOT
BRANCH   1  13
ATOM     11  C   UNL     1      -0.306   7.716   4.654  0.00  0.00    +0.000 A 
ATOM     12  C   UNL     1       0.033   7.131   3.423  0.00  0.00    +0.000 A 
ATOM     13  C   UNL     1       0.174   5.733   3.284  0.00  0.00    +0.000 A 
ATOM     14  C   UNL     1      -0.068   4.943   4.421  0.00  0.00    +0.000 A 
ATOM     15  C   UNL     1      -0.408   5.529   5.637  0.00  0.00    +0.000 A 
ATOM     16  F   UNL     1      -0.604   4.747   6.706  0.00  0.00    +0.000 F 
ATOM     17  C   UNL     1      -0.523   6.905   5.768  0.00  0.00    +0.000 A 
BRANCH  11  19
ATOM     18  N   UNL     1      -0.505  10.289   4.912  0.00  0.00    +0.000 NA
ATOM     19  C   UNL     1      -0.410   9.143   4.779  0.00  0.00    +0.000 C 
ENDBRANCH  11  19
ENDBRANCH   1  13
BRANCH   7  20
ATOM     20  C   UNL     1       4.312   8.105  -1.069  0.00  0.00    +0.000 A 
ATOM     21  C   UNL     1       4.575   7.917  -2.418  0.00  0.00    +0.000 A 
ATOM     22  C   UNL     1       5.409   8.984  -2.784  0.00  0.00    +0.000 A 
ATOM     23  N   UNL     1       5.689   9.783  -1.759  0.00  0.00    +0.000 NA
ATOM     24  N   UNL     1       5.101   9.190  -0.683  0.00  0.00    +0.000 N 
BRANCH  24  25
ATOM     25  C   UNL     1       5.368   9.693   0.614  0.00  0.00    +0.000 A 
ATOM     26  C   UNL     1       5.365   8.875   1.747  0.00  0.00    +0.000 A 
ATOM     27  C   UNL     1       5.562   9.445   3.001  0.00  0.00    +0.000 A 
ATOM     28  C   UNL     1       5.775  10.811   3.077  0.00  0.00    +0.000 A 
ATOM     29  N   UNL     1       5.836  11.623   1.998  0.00  0.00    +0.000 NA
ATOM     30  C   UNL     1       5.639  11.045   0.786  0.00  0.00    +0.000 A 
ENDBRANCH  24  25
ENDBRANCH   7  20
TORSDOF 4
