REMARK  Name = 
REMARK  5 active torsions:
REMARK  status: ('A' for Active; 'I' for Inactive)
REMARK    1  A    between atoms: C_2  and  C_4
REMARK    2  A    between atoms: C_10  and  O_11
REMARK    3  A    between atoms: O_11  and  C_12
REMARK    4  A    between atoms: C_12  and  C_13
REMARK    5  A    between atoms: N_22  and  C_23
REMARK                            x       y       z     vdW  Elec       q    Type
REMARK                         _______ _______ _______ _____ _____    ______ ____
ROOT
ATOM      1  C   UNL     1       3.458  -1.538   2.776  0.00  0.00    +0.000 A 
ATOM      2  N   UNL     1       2.126  -1.551   2.903  0.00  0.00    +0.000 NA
ATOM      3  C   UNL     1       1.896  -0.336   3.512  0.00  0.00    +0.000 A 
ATOM      4  C   UNL     1       0.757   0.475   3.521  0.00  0.00    +0.000 A 
ATOM      5  C   UNL     1       0.843   1.739   4.122  0.00  0.00    +0.000 A 
ATOM      6  C   UNL     1       2.023   2.155   4.738  0.00  0.00    +0.000 A 
ATOM      7  F   UNL     1       2.069   3.369   5.303  0.00  0.00    +0.000 F 
ATOM      8  C   UNL     1       3.160   1.349   4.787  0.00  0.00    +0.000 A 
ATOM      9  C   UNL     1       3.059   0.106   4.155  0.00  0.00    +0.000 A 
ATOM     10  N   UNL     1       3.876  -1.007   4.018  0.00  0.00    +0.000 N 
ENDROOT
BRANCH  10  11
ATOM     11  C   UNL     1       4.567  -1.661   5.081  0.00  0.00    +0.000 A 
ATOM     12  C   UNL     1       4.358  -1.233   6.409  0.00  0.00    +0.000 A 
ATOM     13  C   UNL     1       4.876  -1.961   7.484  0.00  0.00    +0.000 A 
ATOM     14  C   UNL     1       5.620  -3.111   7.245  0.00  0.00    +0.000 A 
ATOM     15  C   UNL     1       5.856  -3.522   5.932  0.00  0.00    +0.000 A 
ATOM     16  C   UNL     1       5.325  -2.811   4.846  0.00  0.00    +0.000 A 
ENDBRANCH  10  11
BRANCH   1  17
ATOM     17  C   UNL     1       4.027  -0.972   1.476  0.00  0.00    +0.000 C 
BRANCH  17  18
ATOM     18  O   UNL     1       4.521  -1.962   0.556  0.00  0.00    +0.000 OA
BRANCH  18  25
ATOM     19  C   UNL     1       4.638  -2.413  -1.830  0.00  0.00    +0.000 A 
ATOM     20  C   UNL     1       4.602  -1.936  -3.152  0.00  0.00    +0.000 A 
ATOM     21  F   UNL     1       4.733  -2.765  -4.198  0.00  0.00    +0.000 F 
ATOM     22  C   UNL     1       4.458  -0.581  -3.438  0.00  0.00    +0.000 A 
ATOM     23  C   UNL     1       4.385   0.330  -2.399  0.00  0.00    +0.000 A 
ATOM     24  C   UNL     1       4.464  -0.121  -1.080  0.00  0.00    +0.000 A 
ATOM     25  C   UNL     1       4.553  -1.497  -0.762  0.00  0.00    +0.000 A 
BRANCH  19  27
ATOM     26  N   UNL     1       5.481  -4.359  -0.631  0.00  0.00    +0.000 N 
ATOM     27  C   UNL     1       4.734  -3.885  -1.670  0.00  0.00    +0.000 C 
ATOM     28  O   UNL     1       4.194  -4.660  -2.447  0.00  0.00    +0.000 OA
ATOM     29  H   UNL     1       5.515  -5.363  -0.516  0.00  0.00    +0.000 HD
ATOM     30  H   UNL     1       5.824  -3.761   0.104  0.00  0.00    +0.000 HD
ENDBRANCH  19  27
ENDBRANCH  18  25
ENDBRANCH  17  18
ENDBRANCH   1  17
TORSDOF 5
