REMARK  Name = 
REMARK  4 active torsions:
REMARK  status: ('A' for Active; 'I' for Inactive)
REMARK    1  A    between atoms: C_2  and  C_18
REMARK    2  A    between atoms: N_3  and  C_4
REMARK    3  A    between atoms: C_4  and  C_5
REMARK    4  A    between atoms: C_8  and  C_9
REMARK                            x       y       z     vdW  Elec       q    Type
REMARK                         _______ _______ _______ _____ _____    ______ ____
ROOT
ATOM      1  O   UNL     1       3.138  -1.075  -1.516  0.00  0.00    +0.000 OA
ATOM      2  C   UNL     1       4.162  -0.605  -1.069  0.00  0.00    +0.000 C 
ATOM      3  N   UNL     1       4.232   0.642  -0.487  0.00  0.00    +0.000 N 
ATOM      4  H   UNL     1       5.103   0.990  -0.115  0.00  0.00    +0.000 HD
ENDROOT
BRANCH   2   5
ATOM      5  C   UNL     1       5.483  -1.355  -1.237  0.00  0.00    +0.000 A 
ATOM      6  C   UNL     1       6.663  -0.918  -0.609  0.00  0.00    +0.000 A 
ATOM      7  C   UNL     1       7.270  -1.504   0.528  0.00  0.00    +0.000 A 
ATOM      8  C   UNL     1       8.517  -1.043   0.995  0.00  0.00    +0.000 A 
ATOM      9  C   UNL     1       9.086   0.094   0.429  0.00  0.00    +0.000 A 
ATOM     10  C   UNL     1       8.571   0.544  -0.768  0.00  0.00    +0.000 A 
ATOM     11  F   UNL     1       9.142   1.572  -1.408  0.00  0.00    +0.000 F 
ATOM     12  C   UNL     1       7.556  -0.189  -1.371  0.00  0.00    +0.000 A 
ATOM     13  C   UNL     1       7.631  -0.586  -2.699  0.00  0.00    +0.000 A 
ATOM     14  N   UNL     1       6.761  -1.451  -3.277  0.00  0.00    +0.000 NA
ATOM     15  C   UNL     1       5.651  -1.745  -2.559  0.00  0.00    +0.000 A 
ENDBRANCH   2   5
BRANCH   3  16
ATOM     16  C   UNL     1       3.123   1.620  -0.448  0.00  0.00    +0.000 C 
BRANCH  16  17
ATOM     17  C   UNL     1       3.634   3.030  -0.168  0.00  0.00    +0.000 A 
ATOM     18  C   UNL     1       4.423   3.708  -1.111  0.00  0.00    +0.000 A 
ATOM     19  C   UNL     1       5.016   4.949  -0.809  0.00  0.00    +0.000 A 
ATOM     20  C   UNL     1       4.817   5.553   0.439  0.00  0.00    +0.000 A 
ATOM     21  C   UNL     1       3.974   4.922   1.353  0.00  0.00    +0.000 A 
ATOM     22  C   UNL     1       3.383   3.678   1.052  0.00  0.00    +0.000 A 
BRANCH  20  23
ATOM     23  C   UNL     1       5.568   6.791   0.802  0.00  0.00    +0.000 A 
ATOM     24  C   UNL     1       5.010   7.996   0.622  0.00  0.00    +0.000 A 
ATOM     25  N   UNL     1       5.686   9.156   0.943  0.00  0.00    +0.000 N 
ATOM     26  C   UNL     1       6.969   9.193   1.442  0.00  0.00    +0.000 A 
ATOM     27  O   UNL     1       7.565  10.236   1.697  0.00  0.00    +0.000 OA
ATOM     28  C   UNL     1       7.600   7.868   1.648  0.00  0.00    +0.000 A 
ATOM     29  C   UNL     1       6.924   6.745   1.341  0.00  0.00    +0.000 A 
ATOM     30  H   UNL     1       5.245  10.053   0.805  0.00  0.00    +0.000 HD
ENDBRANCH  20  23
ENDBRANCH  16  17
ENDBRANCH   3  16
TORSDOF 4
