REMARK  Name = 
REMARK  7 active torsions:
REMARK  status: ('A' for Active; 'I' for Inactive)
REMARK    1  A    between atoms: C_1  and  O_2
REMARK    2  A    between atoms: O_2  and  C_3
REMARK    3  A    between atoms: C_8  and  C_9
REMARK    4  A    between atoms: N_11  and  C_12
REMARK    5  A    between atoms: N_14  and  C_15
REMARK    6  A    between atoms: C_28  and  O_29
REMARK    7  A    between atoms: O_29  and  C_30
REMARK                            x       y       z     vdW  Elec       q    Type
REMARK                         _______ _______ _______ _____ _____    ______ ____
ROOT
ATOM      1  C   UNL     1       6.154  -3.896   5.696  0.00  0.00    +0.000 C 
ATOM      2  O   UNL     1       6.903  -3.374   6.521  0.00  0.00    +0.000 OA
ATOM      3  N   UNL     1       5.758  -5.222   5.702  0.00  0.00    +0.000 N 
ATOM      4  H   UNL     1       5.119  -5.482   4.955  0.00  0.00    +0.000 HD
ENDROOT
BRANCH   1  10
ATOM      5  C   UNL     1       3.003  -0.835   0.966  0.00  0.00    +0.000 A 
ATOM      6  C   UNL     1       4.023  -0.435   1.828  0.00  0.00    +0.000 A 
ATOM      7  C   UNL     1       4.595  -1.329   2.736  0.00  0.00    +0.000 A 
ATOM      8  C   UNL     1       5.560  -0.860   3.622  0.00  0.00    +0.000 A 
ATOM      9  C   UNL     1       6.076  -1.716   4.572  0.00  0.00    +0.000 A 
ATOM     10  C   UNL     1       5.618  -3.027   4.602  0.00  0.00    +0.000 A 
ATOM     11  N   UNL     1       4.708  -3.541   3.724  0.00  0.00    +0.000 NA
ATOM     12  C   UNL     1       4.197  -2.684   2.798  0.00  0.00    +0.000 A 
ATOM     13  C   UNL     1       3.243  -3.084   1.863  0.00  0.00    +0.000 A 
ATOM     14  C   UNL     1       2.657  -2.190   0.935  0.00  0.00    +0.000 A 
BRANCH   5  16
ATOM     15  C   UNL     1       2.263   1.393   0.697  0.00  0.00    +0.000 C 
ATOM     16  O   UNL     1       2.339   0.065   0.172  0.00  0.00    +0.000 OA
ENDBRANCH   5  16
BRANCH  14  17
ATOM     17  O   UNL     1       1.728  -2.783   0.117  0.00  0.00    +0.000 OA
ATOM     18  C   UNL     1       1.538  -2.197  -1.168  0.00  0.00    +0.000 C 
ENDBRANCH  14  17
ENDBRANCH   1  10
BRANCH   3  19
ATOM     19  C   UNL     1       6.179  -6.199   6.590  0.00  0.00    +0.000 A 
ATOM     20  C   UNL     1       7.048  -6.000   7.600  0.00  0.00    +0.000 A 
ATOM     21  N   UNL     1       7.525  -7.008   8.447  0.00  0.00    +0.000 N 
ATOM     22  C   UNL     1       7.089  -8.334   8.255  0.00  0.00    +0.000 A 
ATOM     23  O   UNL     1       7.399  -9.329   8.909  0.00  0.00    +0.000 OA
ATOM     24  C   UNL     1       6.096  -8.545   7.161  0.00  0.00    +0.000 A 
ATOM     25  C   UNL     1       5.669  -7.535   6.395  0.00  0.00    +0.000 A 
BRANCH  21  26
ATOM     26  C   UNL     1       8.479  -6.690   9.498  0.00  0.00    +0.000 A 
ATOM     27  C   UNL     1       9.402  -7.634   9.974  0.00  0.00    +0.000 A 
ATOM     28  C   UNL     1      10.328  -7.315  10.977  0.00  0.00    +0.000 A 
ATOM     29  C   UNL     1      10.353  -6.040  11.530  0.00  0.00    +0.000 A 
ATOM     30  C   UNL     1       9.456  -5.081  11.074  0.00  0.00    +0.000 A 
ATOM     31  C   UNL     1       8.532  -5.403  10.070  0.00  0.00    +0.000 A 
ENDBRANCH  21  26
ENDBRANCH   3  19
TORSDOF 5
