REMARK  Name = 
REMARK  5 active torsions:
REMARK  status: ('A' for Active; 'I' for Inactive)
REMARK    1  A    between atoms: C_1  and  C_2
REMARK    2  A    between atoms: C_6  and  C_7
REMARK    3  A    between atoms: N_9  and  C_10
REMARK    4  A    between atoms: C_12  and  N_13
REMARK    5  A    between atoms: C_14  and  C_16
REMARK                            x       y       z     vdW  Elec       q    Type
REMARK                         _______ _______ _______ _____ _____    ______ ____
ROOT
ATOM      1  C   UNL     1       1.322  -5.020  -0.180  0.00  0.00    +0.000 A 
ATOM      2  C   UNL     1       2.298  -5.513   0.686  0.00  0.00    +0.000 A 
ATOM      3  C   UNL     1       2.510  -6.878   0.884  0.00  0.00    +0.000 A 
ATOM      4  C   UNL     1       1.749  -7.780   0.144  0.00  0.00    +0.000 A 
ATOM      5  C   UNL     1       0.733  -7.306  -0.701  0.00  0.00    +0.000 A 
ATOM      6  C   UNL     1       0.502  -5.930  -0.843  0.00  0.00    +0.000 A 
ENDROOT
BRANCH   1   9
ATOM      7  C   UNL     1       2.100  -2.662  -0.087  0.00  0.00    +0.000 C 
ATOM      8  O   UNL     1       3.250  -2.890   0.282  0.00  0.00    +0.000 OA
ATOM      9  N   UNL     1       1.148  -3.631  -0.376  0.00  0.00    +0.000 N 
ATOM     10  H   UNL     1       0.295  -3.314  -0.833  0.00  0.00    +0.000 HD
BRANCH   7  16
ATOM     11  C   UNL     1      -3.054   0.781  -2.393  0.00  0.00    +0.000 C 
ATOM     12  C   UNL     1      -1.803   0.217  -1.806  0.00  0.00    +0.000 A 
ATOM     13  C   UNL     1      -1.653  -1.137  -1.567  0.00  0.00    +0.000 A 
ATOM     14  N   UNL     1      -0.509  -1.668  -1.082  0.00  0.00    +0.000 NA
ATOM     15  C   UNL     1       0.513  -0.807  -0.806  0.00  0.00    +0.000 A 
ATOM     16  C   UNL     1       1.750  -1.229  -0.309  0.00  0.00    +0.000 A 
ATOM     17  C   UNL     1       2.771  -0.298  -0.018  0.00  0.00    +0.000 A 
ATOM     18  C   UNL     1       2.582   1.054  -0.245  0.00  0.00    +0.000 A 
ATOM     19  C   UNL     1       1.365   1.478  -0.760  0.00  0.00    +0.000 A 
ATOM     20  C   UNL     1       0.339   0.583  -1.037  0.00  0.00    +0.000 A 
ATOM     21  N   UNL     1      -0.801   1.085  -1.537  0.00  0.00    +0.000 NA
ENDBRANCH   7  16
ENDBRANCH   1   9
BRANCH   3  22
ATOM     22  N   UNL     1       3.462  -7.348   1.816  0.00  0.00    +0.000 N 
ATOM     23  C   UNL     1       4.009  -6.590   2.850  0.00  0.00    +0.000 C 
ATOM     24  O   UNL     1       3.732  -5.428   3.122  0.00  0.00    +0.000 OA
ATOM     25  H   UNL     1       3.696  -8.336   1.824  0.00  0.00    +0.000 HD
BRANCH  23  26
ATOM     26  C   UNL     1       4.953  -7.322   3.736  0.00  0.00    +0.000 A 
ATOM     27  N   UNL     1       5.208  -8.627   3.413  0.00  0.00    +0.000 NA
ATOM     28  C   UNL     1       6.012  -9.300   4.267  0.00  0.00    +0.000 A 
ATOM     29  C   UNL     1       6.557  -8.749   5.422  0.00  0.00    +0.000 A 
ATOM     30  C   UNL     1       6.284  -7.418   5.720  0.00  0.00    +0.000 A 
ATOM     31  C   UNL     1       5.476  -6.688   4.861  0.00  0.00    +0.000 A 
ATOM     32  F   UNL     1       5.220  -5.410   5.170  0.00  0.00    +0.000 F 
ENDBRANCH  23  26
ENDBRANCH   3  22
TORSDOF 4
