REMARK  Name = 
REMARK  5 active torsions:
REMARK  status: ('A' for Active; 'I' for Inactive)
REMARK    1  A    between atoms: C_2  and  C_3
REMARK    2  A    between atoms: C_3  and  C_4
REMARK    3  A    between atoms: N_14  and  C_15
REMARK    4  A    between atoms: C_17  and  N_18
REMARK    5  A    between atoms: C_19  and  C_21
REMARK                            x       y       z     vdW  Elec       q    Type
REMARK                         _______ _______ _______ _____ _____    ______ ____
ROOT
ATOM      1  C   UNL     1       4.327  -1.213   0.390  0.00  0.00    +0.000 A 
ATOM      2  C   UNL     1       4.987  -0.098   0.908  0.00  0.00    +0.000 A 
ATOM      3  C   UNL     1       6.376  -0.040   1.050  0.00  0.00    +0.000 A 
ATOM      4  C   UNL     1       7.120  -1.164   0.687  0.00  0.00    +0.000 A 
ATOM      5  C   UNL     1       6.473  -2.315   0.214  0.00  0.00    +0.000 A 
ATOM      6  C   UNL     1       5.078  -2.344   0.074  0.00  0.00    +0.000 A 
ENDROOT
BRANCH   1   9
ATOM      7  O   UNL     1       2.522   1.080   0.074  0.00  0.00    +0.000 OA
ATOM      8  C   UNL     1       2.127  -0.084   0.101  0.00  0.00    +0.000 C 
ATOM      9  N   UNL     1       2.924  -1.221   0.195  0.00  0.00    +0.000 N 
ATOM     10  H   UNL     1       2.494  -2.114  -0.006  0.00  0.00    +0.000 HD
BRANCH   8  11
ATOM     11  C   UNL     1       0.640  -0.361  -0.006  0.00  0.00    +0.000 C 
BRANCH  11  12
ATOM     12  C   UNL     1      -0.069  -0.564   1.313  0.00  0.00    +0.000 A 
ATOM     13  C   UNL     1      -1.224  -1.356   1.345  0.00  0.00    +0.000 A 
ATOM     14  C   UNL     1      -1.920  -1.559   2.540  0.00  0.00    +0.000 A 
ATOM     15  C   UNL     1      -1.486  -0.962   3.732  0.00  0.00    +0.000 A 
ATOM     16  C   UNL     1      -2.147  -1.171   4.948  0.00  0.00    +0.000 A 
ATOM     17  C   UNL     1      -1.666  -0.544   6.086  0.00  0.00    +0.000 A 
ATOM     18  N   UNL     1      -0.595   0.275   6.097  0.00  0.00    +0.000 NA
ATOM     19  C   UNL     1       0.031   0.467   4.911  0.00  0.00    +0.000 A 
ATOM     20  C   UNL     1      -0.354  -0.125   3.705  0.00  0.00    +0.000 A 
ATOM     21  C   UNL     1       0.337   0.078   2.494  0.00  0.00    +0.000 A 
ENDBRANCH  11  12
ENDBRANCH   8  11
ENDBRANCH   1   9
BRANCH   3  22
ATOM     22  N   UNL     1       7.040   1.109   1.543  0.00  0.00    +0.000 N 
ATOM     23  C   UNL     1       6.426   2.290   1.955  0.00  0.00    +0.000 C 
ATOM     24  O   UNL     1       5.224   2.524   1.952  0.00  0.00    +0.000 OA
ATOM     25  H   UNL     1       8.053   1.090   1.609  0.00  0.00    +0.000 HD
BRANCH  23  26
ATOM     26  C   UNL     1       7.338   3.347   2.467  0.00  0.00    +0.000 A 
ATOM     27  N   UNL     1       8.671   3.080   2.425  0.00  0.00    +0.000 NA
ATOM     28  C   UNL     1       9.454   4.053   2.922  0.00  0.00    +0.000 A 
ATOM     29  N   UNL     1       9.033   5.221   3.446  0.00  0.00    +0.000 NA
ATOM     30  C   UNL     1       7.700   5.420   3.460  0.00  0.00    +0.000 A 
ATOM     31  C   UNL     1       6.800   4.513   2.975  0.00  0.00    +0.000 A 
ATOM     32  F   UNL     1       5.489   4.785   3.028  0.00  0.00    +0.000 F 
ENDBRANCH  23  26
ENDBRANCH   3  22
TORSDOF 5
