REMARK  Name = 
REMARK  5 active torsions:
REMARK  status: ('A' for Active; 'I' for Inactive)
REMARK    1  A    between atoms: C_2  and  C_3
REMARK    2  A    between atoms: C_4  and  N_5
REMARK    3  A    between atoms: C_6  and  C_8
REMARK    4  A    between atoms: C_9  and  C_10
REMARK    5  A    between atoms: N_21  and  C_22
REMARK                            x       y       z     vdW  Elec       q    Type
REMARK                         _______ _______ _______ _____ _____    ______ ____
ROOT
ATOM      1  C   UNL     1       3.726   0.059   0.059  0.00  0.00    +0.000 A 
ATOM      2  C   UNL     1       4.436   1.181   0.339  0.00  0.00    +0.000 A 
ATOM      3  C   UNL     1       5.880   1.103   0.387  0.00  0.00    +0.000 A 
ATOM      4  C   UNL     1       6.504  -0.071   0.289  0.00  0.00    +0.000 A 
ATOM      5  N   UNL     1       5.806  -1.253   0.113  0.00  0.00    +0.000 N 
ATOM      6  C   UNL     1       4.409  -1.261  -0.047  0.00  0.00    +0.000 A 
ATOM      7  O   UNL     1       3.725  -2.258  -0.265  0.00  0.00    +0.000 OA
ENDROOT
BRANCH   5   8
ATOM      8  C   UNL     1       6.504  -2.485   0.039  0.00  0.00    +0.000 A 
ATOM      9  C   UNL     1       7.610  -2.607  -0.810  0.00  0.00    +0.000 A 
ATOM     10  C   UNL     1       8.247  -3.838  -0.953  0.00  0.00    +0.000 A 
ATOM     11  C   UNL     1       7.807  -4.936  -0.216  0.00  0.00    +0.000 A 
ATOM     12  C   UNL     1       6.741  -4.808   0.673  0.00  0.00    +0.000 A 
ATOM     13  C   UNL     1       6.084  -3.586   0.795  0.00  0.00    +0.000 A 
ENDBRANCH   5   8
BRANCH   2  14
ATOM     14  N   UNL     1       3.815   2.382   0.667  0.00  0.00    +0.000 N 
ATOM     15  C   UNL     1       4.389   3.640   0.820  0.00  0.00    +0.000 C 
ATOM     16  O   UNL     1       5.555   3.950   0.630  0.00  0.00    +0.000 OA
ATOM     17  H   UNL     1       2.811   2.325   0.799  0.00  0.00    +0.000 HD
BRANCH  15  18
ATOM     18  C   UNL     1       3.478   4.693   1.324  0.00  0.00    +0.000 A 
ATOM     19  C   UNL     1       2.182   4.943   0.859  0.00  0.00    +0.000 A 
ATOM     20  C   UNL     1       1.426   5.894   1.543  0.00  0.00    +0.000 A 
ATOM     21  F   UNL     1       0.157   6.131   1.186  0.00  0.00    +0.000 F 
ATOM     22  C   UNL     1       1.974   6.585   2.609  0.00  0.00    +0.000 A 
ATOM     23  N   UNL     1       3.243   6.405   3.032  0.00  0.00    +0.000 NA
ATOM     24  C   UNL     1       3.970   5.470   2.376  0.00  0.00    +0.000 A 
BRANCH  19  25
ATOM     25  C   UNL     1       1.532   4.261  -0.299  0.00  0.00    +0.000 C 
ATOM     26  F   UNL     1       2.378   3.511  -1.054  0.00  0.00    +0.000 F 
ATOM     27  F   UNL     1       0.570   3.397   0.120  0.00  0.00    +0.000 F 
ATOM     28  F   UNL     1       0.941   5.115  -1.172  0.00  0.00    +0.000 F 
ENDBRANCH  19  25
ENDBRANCH  15  18
ENDBRANCH   2  14
BRANCH   1  30
ATOM     29  N   UNL     1       0.945   0.059   0.059  0.00  0.00    +0.000 NA
ATOM     30  C   UNL     1       2.206   0.059   0.059  0.00  0.00    +0.000 C 
ENDBRANCH   1  30
TORSDOF 5
