REMARK  Name = 
REMARK  2 active torsions:
REMARK  status: ('A' for Active; 'I' for Inactive)
REMARK    1  A    between atoms: C_2  and  C_17
REMARK    2  A    between atoms: N_6  and  C_7
REMARK                            x       y       z     vdW  Elec       q    Type
REMARK                         _______ _______ _______ _____ _____    ______ ____
ROOT
ATOM      1  O   UNL     1       0.938  -0.171  -0.148  0.00  0.00    +0.000 OA
ATOM      2  C   UNL     1       2.143   0.014  -0.014  0.00  0.00    +0.000 C 
ATOM      3  N   UNL     1       2.799   0.434   1.115  0.00  0.00    +0.000 N 
ATOM      4  C   UNL     1       2.170   0.672   2.306  0.00  0.00    +0.000 A 
ATOM      5  N   UNL     1       0.939   0.311   2.658  0.00  0.00    +0.000 NA
ATOM      6  N   UNL     1       0.792   0.876   3.869  0.00  0.00    +0.000 N 
ATOM      7  C   UNL     1       1.963   1.504   4.214  0.00  0.00    +0.000 A 
ATOM      8  N   UNL     1       2.857   1.362   3.260  0.00  0.00    +0.000 NA
ATOM      9  H   UNL     1       3.753   0.757   1.088  0.00  0.00    +0.000 HD
ENDROOT
BRANCH   2  10
ATOM     10  C   UNL     1       2.986  -0.169  -1.211  0.00  0.00    +0.000 A 
ATOM     11  C   UNL     1       2.467   0.183  -2.445  0.00  0.00    +0.000 A 
ATOM     12  N   UNL     1       3.131   0.021  -3.615  0.00  0.00    +0.000 NA
ATOM     13  C   UNL     1       4.352  -0.555  -3.591  0.00  0.00    +0.000 A 
ATOM     14  C   UNL     1       5.063  -0.785  -4.772  0.00  0.00    +0.000 A 
ATOM     15  F   UNL     1       4.535  -0.416  -5.950  0.00  0.00    +0.000 F 
ATOM     16  C   UNL     1       6.316  -1.399  -4.788  0.00  0.00    +0.000 A 
ATOM     17  C   UNL     1       6.896  -1.800  -3.592  0.00  0.00    +0.000 A 
ATOM     18  C   UNL     1       6.213  -1.575  -2.401  0.00  0.00    +0.000 A 
ATOM     19  F   UNL     1       6.785  -1.969  -1.253  0.00  0.00    +0.000 F 
ATOM     20  C   UNL     1       4.951  -0.958  -2.377  0.00  0.00    +0.000 A 
ATOM     21  C   UNL     1       4.253  -0.745  -1.174  0.00  0.00    +0.000 A 
ENDBRANCH   2  10
BRANCH   6  22
ATOM     22  C   UNL     1      -0.421   0.787   4.596  0.00  0.00    +0.000 A 
ATOM     23  C   UNL     1      -1.472  -0.007   4.105  0.00  0.00    +0.000 A 
ATOM     24  C   UNL     1      -2.655  -0.105   4.833  0.00  0.00    +0.000 A 
ATOM     25  F   UNL     1      -3.649  -0.879   4.377  0.00  0.00    +0.000 F 
ATOM     26  C   UNL     1      -2.826   0.582   6.027  0.00  0.00    +0.000 A 
ATOM     27  C   UNL     1      -1.790   1.375   6.493  0.00  0.00    +0.000 A 
ATOM     28  F   UNL     1      -1.942   2.056   7.637  0.00  0.00    +0.000 F 
ATOM     29  C   UNL     1      -0.587   1.483   5.798  0.00  0.00    +0.000 A 
ENDBRANCH   6  22
TORSDOF 2
