REMARK  Name = 
REMARK  6 active torsions:
REMARK  status: ('A' for Active; 'I' for Inactive)
REMARK    1  A    between atoms: C_2  and  C_14
REMARK    2  A    between atoms: N_3  and  C_4
REMARK    3  A    between atoms: C_4  and  C_5
REMARK    4  A    between atoms: C_9  and  O_10
REMARK    5  A    between atoms: C_17  and  N_18
REMARK    6  A    between atoms: C_19  and  C_21
REMARK                            x       y       z     vdW  Elec       q    Type
REMARK                         _______ _______ _______ _____ _____    ______ ____
ROOT
ATOM      1  C   UNL     1       3.135   1.070  -0.874  0.00  0.00    +0.000 A 
ATOM      2  C   UNL     1       2.768   2.386  -0.604  0.00  0.00    +0.000 A 
ATOM      3  C   UNL     1       3.511   3.441  -1.147  0.00  0.00    +0.000 A 
ATOM      4  C   UNL     1       4.641   3.199  -1.937  0.00  0.00    +0.000 A 
ATOM      5  C   UNL     1       4.982   1.879  -2.230  0.00  0.00    +0.000 A 
ATOM      6  C   UNL     1       4.196   0.828  -1.752  0.00  0.00    +0.000 A 
ENDROOT
BRANCH   1   8
ATOM      7  O   UNL     1       1.187   0.058  -0.019  0.00  0.00    +0.000 OA
ATOM      8  C   UNL     1       2.400  -0.026  -0.182  0.00  0.00    +0.000 C 
ATOM      9  N   UNL     1       3.091  -1.106   0.320  0.00  0.00    +0.000 N 
ATOM     10  H   UNL     1       2.494  -1.831   0.703  0.00  0.00    +0.000 HD
BRANCH   9  11
ATOM     11  C   UNL     1       4.518  -1.335   0.261  0.00  0.00    +0.000 C 
BRANCH  11  12
ATOM     12  C   UNL     1       5.086  -2.129   1.385  0.00  0.00    +0.000 A 
ATOM     13  C   UNL     1       4.752  -3.467   1.578  0.00  0.00    +0.000 A 
ATOM     14  F   UNL     1       3.840  -4.045   0.783  0.00  0.00    +0.000 F 
ATOM     15  C   UNL     1       5.375  -4.234   2.556  0.00  0.00    +0.000 A 
ATOM     16  C   UNL     1       6.353  -3.647   3.354  0.00  0.00    +0.000 A 
ATOM     17  C   UNL     1       6.708  -2.316   3.183  0.00  0.00    +0.000 A 
ATOM     18  C   UNL     1       6.072  -1.568   2.201  0.00  0.00    +0.000 A 
ATOM     19  F   UNL     1       6.456  -0.298   2.015  0.00  0.00    +0.000 F 
BRANCH  16  20
ATOM     20  O   UNL     1       7.005  -4.355   4.319  0.00  0.00    +0.000 OA
ATOM     21  H   UNL     1       6.637  -5.252   4.357  0.00  0.00    +0.000 HD
ENDBRANCH  16  20
ENDBRANCH  11  12
ENDBRANCH   9  11
ENDBRANCH   1   8
BRANCH   4  22
ATOM     22  N   UNL     1       5.461   4.214  -2.484  0.00  0.00    +0.000 N 
ATOM     23  C   UNL     1       5.231   5.568  -2.384  0.00  0.00    +0.000 C 
ATOM     24  O   UNL     1       4.310   6.096  -1.763  0.00  0.00    +0.000 OA
ATOM     25  H   UNL     1       6.287   3.906  -2.976  0.00  0.00    +0.000 HD
BRANCH  23  26
ATOM     26  C   UNL     1       6.173   6.488  -3.081  0.00  0.00    +0.000 A 
ATOM     27  C   UNL     1       6.922   6.130  -4.206  0.00  0.00    +0.000 A 
ATOM     28  C   UNL     1       7.702   7.095  -4.853  0.00  0.00    +0.000 A 
ATOM     29  C   UNL     1       7.731   8.412  -4.382  0.00  0.00    +0.000 A 
ATOM     30  C   UNL     1       6.994   8.768  -3.259  0.00  0.00    +0.000 A 
ATOM     31  C   UNL     1       6.220   7.809  -2.611  0.00  0.00    +0.000 A 
ENDBRANCH  23  26
ENDBRANCH   4  22
TORSDOF 6
