REMARK  Name = 
REMARK  5 active torsions:
REMARK  status: ('A' for Active; 'I' for Inactive)
REMARK    1  A    between atoms: C_5  and  C_6
REMARK    2  A    between atoms: N_8  and  C_9
REMARK    3  A    between atoms: C_9  and  C_10
REMARK    4  A    between atoms: C_13  and  C_14
REMARK    5  A    between atoms: C_23  and  C_24
REMARK                            x       y       z     vdW  Elec       q    Type
REMARK                         _______ _______ _______ _____ _____    ______ ____
ROOT
ATOM      1  C   UNL     1      -2.728  -1.505  -0.057  0.00  0.00    +0.000 C 
ATOM      2  O   UNL     1      -3.777  -0.894  -0.271  0.00  0.00    +0.000 OA
ATOM      3  N   UNL     1      -2.725  -2.869   0.160  0.00  0.00    +0.000 N 
ATOM      4  H   UNL     1      -1.864  -3.377   0.261  0.00  0.00    +0.000 HD
ENDROOT
BRANCH   1   9
ATOM      5  N   UNL     1       1.424   1.174  -0.498  0.00  0.00    +0.000 N 
ATOM      6  C   UNL     1       0.482   0.284  -0.167  0.00  0.00    +0.000 A 
ATOM      7  N   UNL     1       0.772  -0.747   0.614  0.00  0.00    +0.000 NA
ATOM      8  N   UNL     1      -0.382  -1.407   0.701  0.00  0.00    +0.000 N 
ATOM      9  C   UNL     1      -1.419  -0.882  -0.026  0.00  0.00    +0.000 A 
ATOM     10  C   UNL     1      -0.890   0.286  -0.586  0.00  0.00    +0.000 A 
ATOM     11  H   UNL     1       2.314   1.132  -0.019  0.00  0.00    +0.000 HD
ATOM     12  H   UNL     1       1.253   2.014  -1.031  0.00  0.00    +0.000 HD
ATOM     13  H   UNL     1      -0.399  -2.230   1.292  0.00  0.00    +0.000 HD
BRANCH  10  14
ATOM     14  C   UNL     1      -1.575   1.248  -1.460  0.00  0.00    +0.000 A 
ATOM     15  C   UNL     1      -1.234   2.612  -1.413  0.00  0.00    +0.000 A 
ATOM     16  C   UNL     1      -1.762   3.529  -2.329  0.00  0.00    +0.000 A 
ATOM     17  C   UNL     1      -2.693   3.110  -3.269  0.00  0.00    +0.000 A 
ATOM     18  C   UNL     1      -3.088   1.774  -3.297  0.00  0.00    +0.000 A 
ATOM     19  C   UNL     1      -2.521   0.849  -2.413  0.00  0.00    +0.000 A 
ENDBRANCH  10  14
ENDBRANCH   1   9
BRANCH   3  20
ATOM     20  C   UNL     1      -3.931  -3.673   0.099  0.00  0.00    +0.000 C 
BRANCH  20  21
ATOM     21  C   UNL     1      -4.490  -3.920   1.472  0.00  0.00    +0.000 A 
ATOM     22  C   UNL     1      -5.438  -3.048   2.014  0.00  0.00    +0.000 A 
ATOM     23  C   UNL     1      -5.924  -3.238   3.315  0.00  0.00    +0.000 A 
ATOM     24  C   UNL     1      -5.479  -4.301   4.124  0.00  0.00    +0.000 A 
ATOM     25  C   UNL     1      -4.553  -5.181   3.546  0.00  0.00    +0.000 A 
ATOM     26  F   UNL     1      -4.109  -6.253   4.223  0.00  0.00    +0.000 F 
ATOM     27  C   UNL     1      -4.057  -4.999   2.251  0.00  0.00    +0.000 A 
BRANCH  24  28
ATOM     28  C   UNL     1      -5.970  -4.445   5.511  0.00  0.00    +0.000 A 
ATOM     29  C   UNL     1      -5.215  -5.013   6.538  0.00  0.00    +0.000 A 
ATOM     30  C   UNL     1      -5.745  -5.086   7.826  0.00  0.00    +0.000 A 
ATOM     31  C   UNL     1      -7.014  -4.583   8.068  0.00  0.00    +0.000 A 
ATOM     32  C   UNL     1      -7.701  -4.022   7.007  0.00  0.00    +0.000 A 
ATOM     33  N   UNL     1      -7.210  -3.941   5.750  0.00  0.00    +0.000 NA
ENDBRANCH  24  28
ENDBRANCH  20  21
ENDBRANCH   3  20
TORSDOF 5
