REMARK  Name = 
REMARK  6 active torsions:
REMARK  status: ('A' for Active; 'I' for Inactive)
REMARK    1  A    between atoms: C_2  and  C_19
REMARK    2  A    between atoms: N_3  and  C_4
REMARK    3  A    between atoms: C_4  and  C_5
REMARK    4  A    between atoms: C_7  and  O_8
REMARK    5  A    between atoms: O_8  and  C_9
REMARK    6  A    between atoms: N_21  and  C_22
REMARK                            x       y       z     vdW  Elec       q    Type
REMARK                         _______ _______ _______ _____ _____    ______ ____
ROOT
ATOM      1  O   UNL     1       2.712  -1.944  -1.875  0.00  0.00    +0.000 OA
ATOM      2  C   UNL     1       3.022  -1.019  -1.127  0.00  0.00    +0.000 C 
ATOM      3  N   UNL     1       2.826  -1.054   0.230  0.00  0.00    +0.000 N 
ATOM      4  H   UNL     1       3.192  -0.298   0.798  0.00  0.00    +0.000 HD
ENDROOT
BRANCH   2   5
ATOM      5  C   UNL     1       3.615   0.210  -1.625  0.00  0.00    +0.000 A 
ATOM      6  C   UNL     1       3.834   0.535  -2.946  0.00  0.00    +0.000 A 
ATOM      7  N   UNL     1       4.438   1.770  -2.922  0.00  0.00    +0.000 N 
ATOM      8  N   UNL     1       4.560   2.175  -1.635  0.00  0.00    +0.000 NA
ATOM      9  N   UNL     1       4.051   1.240  -0.840  0.00  0.00    +0.000 NA
BRANCH   7  10
ATOM     10  C   UNL     1       4.821   2.560  -4.036  0.00  0.00    +0.000 A 
ATOM     11  C   UNL     1       4.166   2.341  -5.266  0.00  0.00    +0.000 A 
ATOM     12  C   UNL     1       4.478   3.116  -6.390  0.00  0.00    +0.000 A 
ATOM     13  C   UNL     1       5.452   4.098  -6.306  0.00  0.00    +0.000 A 
ATOM     14  C   UNL     1       6.123   4.309  -5.100  0.00  0.00    +0.000 A 
ATOM     15  C   UNL     1       5.814   3.549  -3.962  0.00  0.00    +0.000 A 
ATOM     16 CL   UNL     1       6.818   3.838  -2.583  0.00  0.00    +0.000 Cl
ENDBRANCH   7  10
ENDBRANCH   2   5
BRANCH   3  17
ATOM     17  C   UNL     1       2.254  -2.208   0.883  0.00  0.00    +0.000 C 
BRANCH  17  18
ATOM     18  C   UNL     1       3.293  -3.225   1.295  0.00  0.00    +0.000 A 
ATOM     19  C   UNL     1       3.702  -4.207   0.397  0.00  0.00    +0.000 A 
ATOM     20  C   UNL     1       4.585  -5.191   0.834  0.00  0.00    +0.000 A 
ATOM     21  C   UNL     1       5.115  -5.112   2.116  0.00  0.00    +0.000 A 
ATOM     22  C   UNL     1       4.692  -4.079   2.931  0.00  0.00    +0.000 A 
ATOM     23  N   UNL     1       3.788  -3.145   2.557  0.00  0.00    +0.000 NA
BRANCH  20  24
ATOM     24  O   UNL     1       5.023  -6.234   0.050  0.00  0.00    +0.000 OA
BRANCH  24  25
ATOM     25  C   UNL     1       4.150  -6.830  -0.836  0.00  0.00    +0.000 A 
ATOM     26  C   UNL     1       2.778  -6.965  -0.616  0.00  0.00    +0.000 A 
ATOM     27  C   UNL     1       1.986  -7.563  -1.589  0.00  0.00    +0.000 A 
ATOM     28  F   UNL     1       0.662  -7.641  -1.400  0.00  0.00    +0.000 F 
ATOM     29  C   UNL     1       2.542  -8.079  -2.754  0.00  0.00    +0.000 A 
ATOM     30  C   UNL     1       3.920  -7.997  -2.950  0.00  0.00    +0.000 A 
ATOM     31  C   UNL     1       4.722  -7.373  -1.991  0.00  0.00    +0.000 A 
ENDBRANCH  24  25
ENDBRANCH  20  24
ENDBRANCH  17  18
ENDBRANCH   3  17
TORSDOF 6
