REMARK  Name = 
REMARK  5 active torsions:
REMARK  status: ('A' for Active; 'I' for Inactive)
REMARK    1  A    between atoms: C_1  and  C_2
REMARK    2  A    between atoms: C_3  and  C_4
REMARK    3  A    between atoms: N_6  and  C_7
REMARK    4  A    between atoms: C_7  and  C_8
REMARK    5  A    between atoms: C_11  and  C_12
REMARK                            x       y       z     vdW  Elec       q    Type
REMARK                         _______ _______ _______ _____ _____    ______ ____
ROOT
ATOM      1  C   UNL     1       2.256  -2.484   0.027  0.00  0.00    +0.000 C 
ATOM      2  O   UNL     1       1.038  -2.614   0.084  0.00  0.00    +0.000 OA
ATOM      3  N   UNL     1       3.093  -3.569  -0.098  0.00  0.00    +0.000 N 
ATOM      4  H   UNL     1       4.099  -3.443  -0.104  0.00  0.00    +0.000 HD
ENDROOT
BRANCH   1   7
ATOM      5  C   UNL     1       0.907   0.199  -0.606  0.00  0.00    +0.000 C 
ATOM      6  C   UNL     1       2.347   0.021  -0.188  0.00  0.00    +0.000 A 
ATOM      7  C   UNL     1       2.960  -1.152   0.086  0.00  0.00    +0.000 A 
ATOM      8  O   UNL     1       4.334  -1.223   0.436  0.00  0.00    +0.000 OA
ATOM      9  C   UNL     1       5.138  -0.132   0.532  0.00  0.00    +0.000 A 
ATOM     10  O   UNL     1       6.312  -0.221   0.875  0.00  0.00    +0.000 OA
ATOM     11  C   UNL     1       4.531   1.170   0.185  0.00  0.00    +0.000 A 
ATOM     12  C   UNL     1       5.349   2.314   0.165  0.00  0.00    +0.000 A 
ATOM     13  C   UNL     1       4.817   3.554  -0.181  0.00  0.00    +0.000 A 
ATOM     14  C   UNL     1       3.464   3.660  -0.476  0.00  0.00    +0.000 A 
ATOM     15  C   UNL     1       2.651   2.524  -0.442  0.00  0.00    +0.000 A 
ATOM     16  C   UNL     1       3.173   1.252  -0.137  0.00  0.00    +0.000 A 
ENDBRANCH   1   7
BRANCH   3  17
ATOM     17  C   UNL     1       2.519  -4.887  -0.240  0.00  0.00    +0.000 C 
BRANCH  17  18
ATOM     18  C   UNL     1       3.561  -5.957  -0.414  0.00  0.00    +0.000 A 
ATOM     19  C   UNL     1       4.071  -6.645   0.695  0.00  0.00    +0.000 A 
ATOM     20  C   UNL     1       5.058  -7.619   0.531  0.00  0.00    +0.000 A 
ATOM     21  C   UNL     1       5.549  -7.917  -0.746  0.00  0.00    +0.000 A 
ATOM     22  C   UNL     1       5.031  -7.246  -1.857  0.00  0.00    +0.000 A 
ATOM     23  C   UNL     1       4.045  -6.271  -1.692  0.00  0.00    +0.000 A 
BRANCH  21  24
ATOM     24  C   UNL     1       6.639  -8.890  -0.907  0.00  0.00    +0.000 A 
ATOM     25  C   UNL     1       6.337 -10.191  -1.074  0.00  0.00    +0.000 A 
ATOM     26  N   UNL     1       7.331 -11.131  -1.192  0.00  0.00    +0.000 N 
ATOM     27  C   UNL     1       8.675 -10.842  -1.146  0.00  0.00    +0.000 A 
ATOM     28  O   UNL     1       9.539 -11.702  -1.227  0.00  0.00    +0.000 OA
ATOM     29  C   UNL     1       9.020  -9.408  -0.996  0.00  0.00    +0.000 A 
ATOM     30  C   UNL     1       8.041  -8.500  -0.885  0.00  0.00    +0.000 A 
ATOM     31  H   UNL     1       7.096 -12.110  -1.298  0.00  0.00    +0.000 HD
ENDBRANCH  21  24
ENDBRANCH  17  18
ENDBRANCH   3  17
TORSDOF 4
