REMARK  Name = 
REMARK  5 active torsions:
REMARK  status: ('A' for Active; 'I' for Inactive)
REMARK    1  A    between atoms: C_1  and  N_2
REMARK    2  A    between atoms: C_3  and  C_5
REMARK    3  A    between atoms: C_8  and  C_9
REMARK    4  A    between atoms: N_11  and  C_12
REMARK    5  A    between atoms: C_15  and  C_16
REMARK                            x       y       z     vdW  Elec       q    Type
REMARK                         _______ _______ _______ _____ _____    ______ ____
ROOT
ATOM      1  C   UNL     1       8.896   0.742   0.709  0.00  0.00    +0.000 C 
ATOM      2  O   UNL     1       9.338   0.507   1.830  0.00  0.00    +0.000 OA
ATOM      3  N   UNL     1       9.663   0.853  -0.444  0.00  0.00    +0.000 N 
ATOM      4  H   UNL     1       9.240   1.221  -1.282  0.00  0.00    +0.000 HD
ENDROOT
BRANCH   1   8
ATOM      5  C   UNL     1       4.606   1.293   0.590  0.00  0.00    +0.000 A 
ATOM      6  C   UNL     1       5.291   1.117   1.795  0.00  0.00    +0.000 A 
ATOM      7  C   UNL     1       6.679   0.952   1.798  0.00  0.00    +0.000 A 
ATOM      8  C   UNL     1       7.418   0.958   0.600  0.00  0.00    +0.000 A 
ATOM      9  C   UNL     1       6.734   1.135  -0.604  0.00  0.00    +0.000 A 
ATOM     10  C   UNL     1       5.344   1.303  -0.597  0.00  0.00    +0.000 A 
ATOM     11  F   UNL     1       4.738   1.469  -1.783  0.00  0.00    +0.000 F 
BRANCH   5  14
ATOM     12  C   UNL     1       1.036   1.750  -0.618  0.00  0.00    +0.000 C 
ATOM     13  N   UNL     1       2.468   1.614  -0.560  0.00  0.00    +0.000 N 
ATOM     14  C   UNL     1       3.124   1.447   0.638  0.00  0.00    +0.000 C 
ATOM     15  O   UNL     1       2.539   1.417   1.715  0.00  0.00    +0.000 OA
ATOM     16  H   UNL     1       2.994   1.643  -1.426  0.00  0.00    +0.000 HD
ENDBRANCH   5  14
ENDBRANCH   1   8
BRANCH   3  17
ATOM     17  C   UNL     1      11.063   0.647  -0.512  0.00  0.00    +0.000 A 
ATOM     18  C   UNL     1      11.792   0.024   0.502  0.00  0.00    +0.000 A 
ATOM     19  C   UNL     1      13.182  -0.103   0.418  0.00  0.00    +0.000 A 
ATOM     20  C   UNL     1      13.882   0.389  -0.686  0.00  0.00    +0.000 A 
ATOM     21  C   UNL     1      13.147   0.972  -1.727  0.00  0.00    +0.000 A 
ATOM     22  C   UNL     1      11.749   1.092  -1.647  0.00  0.00    +0.000 A 
BRANCH  20  23
ATOM     23  C   UNL     1      15.335   0.330  -0.754  0.00  0.00    +0.000 A 
ATOM     24  C   UNL     1      16.177  -0.184   0.213  0.00  0.00    +0.000 A 
ATOM     25  N   UNL     1      17.449   0.024  -0.251  0.00  0.00    +0.000 N 
ATOM     26  C   UNL     1      18.670  -0.289   0.343  0.00  0.00    +0.000 A 
ATOM     27  C   UNL     1      19.809   0.027  -0.298  0.00  0.00    +0.000 A 
ATOM     28  C   UNL     1      19.724   0.689  -1.593  0.00  0.00    +0.000 A 
ATOM     29  C   UNL     1      18.538   0.984  -2.160  0.00  0.00    +0.000 A 
ATOM     30  C   UNL     1      17.329   0.650  -1.486  0.00  0.00    +0.000 A 
ATOM     31  N   UNL     1      16.066   0.835  -1.809  0.00  0.00    +0.000 NA
ENDBRANCH  20  23
ENDBRANCH   3  17
TORSDOF 4
