REMARK  Name = 
REMARK  7 active torsions:
REMARK  status: ('A' for Active; 'I' for Inactive)
REMARK    1  A    between atoms: C_1  and  O_2
REMARK    2  A    between atoms: O_2  and  C_3
REMARK    3  A    between atoms: C_5  and  C_6
REMARK    4  A    between atoms: C_14  and  N_15
REMARK    5  A    between atoms: C_16  and  C_18
REMARK    6  A    between atoms: C_20  and  N_21
REMARK    7  A    between atoms: C_28  and  O_29
REMARK                            x       y       z     vdW  Elec       q    Type
REMARK                         _______ _______ _______ _____ _____    ______ ____
ROOT
ATOM      1  N   UNL     1       4.564   1.134   1.129  0.00  0.00    +0.000 N 
ATOM      2  C   UNL     1       5.715   1.833   1.463  0.00  0.00    +0.000 C 
ATOM      3  O   UNL     1       6.685   1.382   2.070  0.00  0.00    +0.000 OA
ATOM      4  H   UNL     1       3.893   1.591   0.514  0.00  0.00    +0.000 HD
ENDROOT
BRANCH   1  10
ATOM      5  C   UNL     1       3.141  -0.855   0.927  0.00  0.00    +0.000 A 
ATOM      6  C   UNL     1       2.889  -2.200   1.258  0.00  0.00    +0.000 A 
ATOM      7  C   UNL     1       3.730  -2.934   2.115  0.00  0.00    +0.000 A 
ATOM      8  C   UNL     1       4.830  -2.272   2.656  0.00  0.00    +0.000 A 
ATOM      9  C   UNL     1       5.093  -0.937   2.344  0.00  0.00    +0.000 A 
ATOM     10  C   UNL     1       4.276  -0.215   1.468  0.00  0.00    +0.000 A 
BRANCH   7  11
ATOM     11  C   UNL     1       3.463  -4.353   2.407  0.00  0.00    +0.000 A 
ATOM     12  C   UNL     1       3.786  -4.947   3.626  0.00  0.00    +0.000 A 
ATOM     13  C   UNL     1       3.570  -6.312   3.799  0.00  0.00    +0.000 A 
ATOM     14  C   UNL     1       3.030  -7.050   2.755  0.00  0.00    +0.000 A 
ATOM     15  C   UNL     1       2.713  -6.387   1.583  0.00  0.00    +0.000 A 
ATOM     16  N   UNL     1       2.908  -5.066   1.391  0.00  0.00    +0.000 NA
ENDBRANCH   7  11
BRANCH   5  18
ATOM     17  C   UNL     1       1.140  -0.761  -0.358  0.00  0.00    +0.000 C 
ATOM     18  O   UNL     1       2.345  -0.124   0.073  0.00  0.00    +0.000 OA
ENDBRANCH   5  18
ENDBRANCH   1  10
BRANCH   2  19
ATOM     19  C   UNL     1       5.820   3.264   1.053  0.00  0.00    +0.000 A 
ATOM     20  C   UNL     1       6.722   4.071   1.786  0.00  0.00    +0.000 A 
ATOM     21  C   UNL     1       6.974   5.401   1.419  0.00  0.00    +0.000 A 
ATOM     22  C   UNL     1       6.321   5.916   0.295  0.00  0.00    +0.000 A 
ATOM     23  C   UNL     1       5.413   5.128  -0.425  0.00  0.00    +0.000 A 
ATOM     24  C   UNL     1       5.155   3.812  -0.043  0.00  0.00    +0.000 A 
BRANCH  21  25
ATOM     25  N   UNL     1       7.886   6.204   2.172  0.00  0.00    +0.000 N 
ATOM     26  C   UNL     1       8.623   5.837   3.280  0.00  0.00    +0.000 A 
ATOM     27  C   UNL     1       9.350   6.945   3.649  0.00  0.00    +0.000 A 
ATOM     28  N   UNL     1       9.090   7.992   2.815  0.00  0.00    +0.000 NA
ATOM     29  C   UNL     1       8.217   7.526   1.948  0.00  0.00    +0.000 A 
ENDBRANCH  21  25
BRANCH  24  30
ATOM     30  O   UNL     1       4.267   3.062  -0.762  0.00  0.00    +0.000 OA
ATOM     31  H   UNL     1       4.024   3.541  -1.574  0.00  0.00    +0.000 HD
ENDBRANCH  24  30
ENDBRANCH   2  19
TORSDOF 6
