REMARK  Name = 
REMARK  4 active torsions:
REMARK  status: ('A' for Active; 'I' for Inactive)
REMARK    1  A    between atoms: C_2  and  C_17
REMARK    2  A    between atoms: N_3  and  C_4
REMARK    3  A    between atoms: N_6  and  C_7
REMARK    4  A    between atoms: C_18  and  O_19
REMARK                            x       y       z     vdW  Elec       q    Type
REMARK                         _______ _______ _______ _____ _____    ______ ____
ROOT
ATOM      1  O   UNL     1       2.481   1.807  -0.217  0.00  0.00    +0.000 OA
ATOM      2  C   UNL     1       3.351   0.965  -0.400  0.00  0.00    +0.000 C 
ATOM      3  N   UNL     1       3.420   0.092  -1.468  0.00  0.00    +0.000 N 
ATOM      4  H   UNL     1       4.204  -0.555  -1.458  0.00  0.00    +0.000 HD
ENDROOT
BRANCH   2   5
ATOM      5  C   UNL     1       4.429   0.819   0.613  0.00  0.00    +0.000 A 
ATOM      6  C   UNL     1       5.742   0.410   0.371  0.00  0.00    +0.000 A 
ATOM      7  C   UNL     1       6.654   0.216   1.438  0.00  0.00    +0.000 A 
ATOM      8  C   UNL     1       7.963  -0.313   1.270  0.00  0.00    +0.000 A 
ATOM      9  C   UNL     1       8.832  -0.466   2.353  0.00  0.00    +0.000 A 
ATOM     10  C   UNL     1       8.435  -0.037   3.611  0.00  0.00    +0.000 A 
ATOM     11  C   UNL     1       7.151   0.485   3.786  0.00  0.00    +0.000 A 
ATOM     12 CL   UNL     1       6.737   1.048   5.376  0.00  0.00    +0.000 Cl
ATOM     13  C   UNL     1       6.229   0.573   2.735  0.00  0.00    +0.000 A 
ATOM     14  N   UNL     1       4.959   0.986   2.960  0.00  0.00    +0.000 NA
ATOM     15  C   UNL     1       4.090   1.070   1.927  0.00  0.00    +0.000 A 
BRANCH   6  16
ATOM     16  O   UNL     1       6.185   0.205  -0.917  0.00  0.00    +0.000 OA
ATOM     17  H   UNL     1       5.845   0.934  -1.473  0.00  0.00    +0.000 HD
ENDBRANCH   6  16
ENDBRANCH   2   5
BRANCH   3  18
ATOM     18  C   UNL     1       2.507  -0.092  -2.490  0.00  0.00    +0.000 A 
ATOM     19  C   UNL     1       1.323   0.537  -2.644  0.00  0.00    +0.000 A 
ATOM     20  N   UNL     1       0.422   0.246  -3.691  0.00  0.00    +0.000 N 
ATOM     21  C   UNL     1       0.774  -0.727  -4.657  0.00  0.00    +0.000 A 
ATOM     22  O   UNL     1       0.151  -1.049  -5.668  0.00  0.00    +0.000 OA
ATOM     23  C   UNL     1       2.071  -1.419  -4.463  0.00  0.00    +0.000 A 
ATOM     24  C   UNL     1       2.877  -1.103  -3.449  0.00  0.00    +0.000 A 
BRANCH  20  25
ATOM     25  C   UNL     1      -0.854   0.941  -3.824  0.00  0.00    +0.000 A 
ATOM     26  C   UNL     1      -1.935   0.378  -4.529  0.00  0.00    +0.000 A 
ATOM     27  C   UNL     1      -3.142   1.064  -4.717  0.00  0.00    +0.000 A 
ATOM     28  C   UNL     1      -3.311   2.332  -4.182  0.00  0.00    +0.000 A 
ATOM     29  C   UNL     1      -2.275   2.899  -3.445  0.00  0.00    +0.000 A 
ATOM     30  C   UNL     1      -1.065   2.211  -3.264  0.00  0.00    +0.000 A 
ENDBRANCH  20  25
ENDBRANCH   3  18
TORSDOF 4
