REMARK  Name = 
REMARK  6 active torsions:
REMARK  status: ('A' for Active; 'I' for Inactive)
REMARK    1  A    between atoms: C_2  and  C_26
REMARK    2  A    between atoms: N_3  and  C_4
REMARK    3  A    between atoms: C_4  and  C_5
REMARK    4  A    between atoms: C_10  and  C_11
REMARK    5  A    between atoms: C_11  and  N_12
REMARK    6  A    between atoms: C_13  and  C_15
REMARK                            x       y       z     vdW  Elec       q    Type
REMARK                         _______ _______ _______ _____ _____    ______ ____
ROOT
ATOM      1  C   UNL     1       3.291   2.957  -1.837  0.00  0.00    +0.000 A 
ATOM      2  C   UNL     1       3.049   4.346  -1.794  0.00  0.00    +0.000 A 
ATOM      3  C   UNL     1       3.942   5.252  -2.357  0.00  0.00    +0.000 A 
ATOM      4  C   UNL     1       5.103   4.787  -2.959  0.00  0.00    +0.000 A 
ATOM      5  C   UNL     1       5.359   3.416  -3.019  0.00  0.00    +0.000 A 
ATOM      6  C   UNL     1       4.455   2.478  -2.481  0.00  0.00    +0.000 A 
ENDROOT
BRANCH   1   7
ATOM      7  C   UNL     1       2.296   2.064  -1.135  0.00  0.00    +0.000 C 
BRANCH   7  10
ATOM      8  O   UNL     1       0.729   0.769   0.743  0.00  0.00    +0.000 OA
ATOM      9  C   UNL     1       1.809   1.218   1.104  0.00  0.00    +0.000 C 
ATOM     10  N   UNL     1       2.638   1.912   0.258  0.00  0.00    +0.000 N 
ATOM     11  H   UNL     1       3.558   2.184   0.564  0.00  0.00    +0.000 HD
BRANCH   9  12
ATOM     12  C   UNL     1       2.316   1.028   2.461  0.00  0.00    +0.000 A 
ATOM     13  C   UNL     1       1.722   0.198   3.400  0.00  0.00    +0.000 A 
ATOM     14  N   UNL     1       2.462   0.216   4.549  0.00  0.00    +0.000 N 
ATOM     15  C   UNL     1       3.519   1.072   4.391  0.00  0.00    +0.000 A 
ATOM     16  C   UNL     1       3.443   1.605   3.123  0.00  0.00    +0.000 A 
ATOM     17  H   UNL     1       2.257  -0.319   5.384  0.00  0.00    +0.000 HD
ENDBRANCH   9  12
ENDBRANCH   7  10
ENDBRANCH   1   7
BRANCH   6  18
ATOM     18  C   UNL     1       4.776   1.006  -2.639  0.00  0.00    +0.000 C 
BRANCH  18  19
ATOM     19  N   UNL     1       5.623   0.513  -1.573  0.00  0.00    +0.000 N 
ATOM     20  C   UNL     1       5.632  -0.827  -1.240  0.00  0.00    +0.000 C 
ATOM     21  O   UNL     1       4.931  -1.651  -1.821  0.00  0.00    +0.000 OA
ATOM     22  H   UNL     1       6.427   1.075  -1.328  0.00  0.00    +0.000 HD
BRANCH  20  23
ATOM     23  C   UNL     1       6.587  -1.294  -0.180  0.00  0.00    +0.000 A 
ATOM     24  C   UNL     1       7.060  -2.611  -0.339  0.00  0.00    +0.000 A 
ATOM     25  C   UNL     1       7.910  -3.176   0.601  0.00  0.00    +0.000 A 
ATOM     26  C   UNL     1       8.311  -2.421   1.695  0.00  0.00    +0.000 A 
ATOM     27  F   UNL     1       9.124  -3.006   2.588  0.00  0.00    +0.000 F 
ATOM     28  C   UNL     1       7.884  -1.111   1.897  0.00  0.00    +0.000 A 
ATOM     29  N   UNL     1       8.335  -0.453   2.987  0.00  0.00    +0.000 NA
ATOM     30  C   UNL     1       7.900   0.796   3.225  0.00  0.00    +0.000 A 
ATOM     31  C   UNL     1       7.000   1.444   2.416  0.00  0.00    +0.000 A 
ATOM     32  C   UNL     1       6.529   0.769   1.295  0.00  0.00    +0.000 A 
ATOM     33  C   UNL     1       6.983  -0.531   0.965  0.00  0.00    +0.000 A 
ENDBRANCH  20  23
ENDBRANCH  18  19
ENDBRANCH   6  18
TORSDOF 6
