REMARK  Name = 
REMARK  7 active torsions:
REMARK  status: ('A' for Active; 'I' for Inactive)
REMARK    1  A    between atoms: C_2  and  C_16
REMARK    2  A    between atoms: N_3  and  C_4
REMARK    3  A    between atoms: C_4  and  C_5
REMARK    4  A    between atoms: C_18  and  C_19
REMARK    5  A    between atoms: C_19  and  C_20
REMARK    6  A    between atoms: C_20  and  C_21
REMARK    7  A    between atoms: C_29  and  O_30
REMARK                            x       y       z     vdW  Elec       q    Type
REMARK                         _______ _______ _______ _____ _____    ______ ____
ROOT
ATOM      1  O   UNL     1       1.351   0.301   0.703  0.00  0.00    +0.000 OA
ATOM      2  C   UNL     1       2.329  -0.087   0.067  0.00  0.00    +0.000 C 
ATOM      3  N   UNL     1       2.791  -1.372   0.163  0.00  0.00    +0.000 N 
ATOM      4  H   UNL     1       3.650  -1.623  -0.318  0.00  0.00    +0.000 HD
ENDROOT
BRANCH   2   5
ATOM      5  C   UNL     1       3.034   0.846  -0.861  0.00  0.00    +0.000 A 
ATOM      6  C   UNL     1       2.511   2.148  -0.909  0.00  0.00    +0.000 A 
ATOM      7  C   UNL     1       3.001   3.115  -1.794  0.00  0.00    +0.000 A 
ATOM      8  C   UNL     1       4.054   2.756  -2.642  0.00  0.00    +0.000 A 
ATOM      9  C   UNL     1       4.611   1.471  -2.589  0.00  0.00    +0.000 A 
ATOM     10  C   UNL     1       4.097   0.516  -1.706  0.00  0.00    +0.000 A 
BRANCH  10  11
ATOM     11  O   UNL     1       4.636  -0.744  -1.701  0.00  0.00    +0.000 OA
ATOM     12  H   UNL     1       5.292  -0.806  -2.419  0.00  0.00    +0.000 HD
ENDBRANCH  10  11
BRANCH   7  13
ATOM     13  C   UNL     1       2.341   4.472  -1.918  0.00  0.00    +0.000 C 
BRANCH  13  14
ATOM     14  C   UNL     1       1.701   5.008  -0.627  0.00  0.00    +0.000 C 
BRANCH  14  15
ATOM     15  C   UNL     1       1.050   6.350  -0.832  0.00  0.00    +0.000 A 
ATOM     16  C   UNL     1      -0.296   6.430  -1.220  0.00  0.00    +0.000 A 
ATOM     17  C   UNL     1      -0.899   7.671  -1.419  0.00  0.00    +0.000 A 
ATOM     18  C   UNL     1      -0.164   8.840  -1.234  0.00  0.00    +0.000 A 
ATOM     19  C   UNL     1       1.175   8.769  -0.849  0.00  0.00    +0.000 A 
ATOM     20  C   UNL     1       1.780   7.529  -0.649  0.00  0.00    +0.000 A 
ENDBRANCH  14  15
ENDBRANCH  13  14
ENDBRANCH   7  13
ENDBRANCH   2   5
BRANCH   3  21
ATOM     21  C   UNL     1       2.147  -2.330   1.030  0.00  0.00    +0.000 C 
BRANCH  21  22
ATOM     22  C   UNL     1       2.660  -2.269   2.450  0.00  0.00    +0.000 A 
ATOM     23  C   UNL     1       2.089  -1.381   3.366  0.00  0.00    +0.000 A 
ATOM     24  C   UNL     1       2.547  -1.370   4.681  0.00  0.00    +0.000 A 
ATOM     25  C   UNL     1       3.560  -2.247   5.049  0.00  0.00    +0.000 A 
ATOM     26  C   UNL     1       4.056  -2.337   6.421  0.00  0.00    +0.000 A 
ATOM     27  C   UNL     1       5.004  -3.235   6.719  0.00  0.00    +0.000 A 
ATOM     28  C   UNL     1       5.585  -4.120   5.678  0.00  0.00    +0.000 A 
ATOM     29  O   UNL     1       6.454  -4.932   5.965  0.00  0.00    +0.000 OA
ATOM     30  N   UNL     1       5.098  -3.975   4.410  0.00  0.00    +0.000 N 
ATOM     31  C   UNL     1       4.091  -3.082   4.064  0.00  0.00    +0.000 A 
ATOM     32  N   UNL     1       3.676  -3.106   2.783  0.00  0.00    +0.000 NA
ATOM     33  H   UNL     1       5.464  -4.565   3.678  0.00  0.00    +0.000 HD
ENDBRANCH  21  22
ENDBRANCH   3  21
TORSDOF 7
