REMARK  Name = 
REMARK  4 active torsions:
REMARK  status: ('A' for Active; 'I' for Inactive)
REMARK    1  A    between atoms: C_2  and  C_20
REMARK    2  A    between atoms: N_3  and  C_4
REMARK    3  A    between atoms: N_6  and  C_7
REMARK    4  A    between atoms: C_7  and  C_8
REMARK                            x       y       z     vdW  Elec       q    Type
REMARK                         _______ _______ _______ _____ _____    ______ ____
ROOT
ATOM      1  O   UNL     1       4.879   0.063   2.102  0.00  0.00    +0.000 OA
ATOM      2  C   UNL     1       4.207  -0.182   1.105  0.00  0.00    +0.000 C 
ATOM      3  N   UNL     1       2.980  -0.813   1.070  0.00  0.00    +0.000 N 
ATOM      4  H   UNL     1       2.518  -0.877   0.169  0.00  0.00    +0.000 HD
ENDROOT
BRANCH   2   5
ATOM      5  C   UNL     1       4.763   0.315  -0.174  0.00  0.00    +0.000 A 
ATOM      6  C   UNL     1       6.156   0.352  -0.344  0.00  0.00    +0.000 A 
ATOM      7  C   UNL     1       6.739   1.175  -1.324  0.00  0.00    +0.000 A 
ATOM      8  C   UNL     1       5.953   2.081  -2.045  0.00  0.00    +0.000 A 
ATOM      9  C   UNL     1       4.591   2.082  -1.815  0.00  0.00    +0.000 A 
ATOM     10  C   UNL     1       4.014   1.111  -1.009  0.00  0.00    +0.000 A 
ATOM     11  C   UNL     1       2.587   1.334  -1.108  0.00  0.00    +0.000 A 
ATOM     12  O   UNL     1       1.742   0.489  -0.874  0.00  0.00    +0.000 OA
ATOM     13  N   UNL     1       2.411   2.609  -1.628  0.00  0.00    +0.000 N 
ATOM     14  N   UNL     1       3.670   3.090  -2.156  0.00  0.00    +0.000 N 
ATOM     15  H   UNL     1       2.086   3.233  -0.882  0.00  0.00    +0.000 HD
ATOM     16  H   UNL     1       3.638   3.272  -3.164  0.00  0.00    +0.000 HD
ENDBRANCH   2   5
BRANCH   3  17
ATOM     17  C   UNL     1       2.238  -1.270   2.147  0.00  0.00    +0.000 A 
ATOM     18  C   UNL     1       1.049  -1.881   1.929  0.00  0.00    +0.000 A 
ATOM     19  N   UNL     1       0.277  -2.392   2.966  0.00  0.00    +0.000 N 
ATOM     20  C   UNL     1       0.668  -2.291   4.299  0.00  0.00    +0.000 A 
ATOM     21  O   UNL     1       0.038  -2.733   5.250  0.00  0.00    +0.000 OA
ATOM     22  C   UNL     1       1.946  -1.594   4.546  0.00  0.00    +0.000 A 
ATOM     23  C   UNL     1       2.669  -1.117   3.517  0.00  0.00    +0.000 A 
BRANCH  19  24
ATOM     24  C   UNL     1      -0.965  -3.099   2.662  0.00  0.00    +0.000 C 
BRANCH  24  25
ATOM     25  C   UNL     1      -0.720  -4.572   2.429  0.00  0.00    +0.000 A 
ATOM     26  C   UNL     1      -0.772  -5.492   3.487  0.00  0.00    +0.000 A 
ATOM     27  C   UNL     1      -0.425  -6.828   3.275  0.00  0.00    +0.000 A 
ATOM     28  C   UNL     1      -0.028  -7.244   2.008  0.00  0.00    +0.000 A 
ATOM     29  F   UNL     1       0.346  -8.516   1.819  0.00  0.00    +0.000 F 
ATOM     30  C   UNL     1      -0.003  -6.362   0.941  0.00  0.00    +0.000 A 
ATOM     31  C   UNL     1      -0.350  -5.032   1.157  0.00  0.00    +0.000 A 
ATOM     32  F   UNL     1      -0.322  -4.186   0.126  0.00  0.00    +0.000 F 
ENDBRANCH  24  25
ENDBRANCH  19  24
ENDBRANCH   3  17
TORSDOF 4
