REMARK  Name = 
REMARK  5 active torsions:
REMARK  status: ('A' for Active; 'I' for Inactive)
REMARK    1  A    between atoms: C_2  and  C_3
REMARK    2  A    between atoms: C_2  and  C_9
REMARK    3  A    between atoms: C_12  and  C_13
REMARK    4  A    between atoms: C_15  and  C_16
REMARK    5  A    between atoms: C_18  and  O_19
REMARK                            x       y       z     vdW  Elec       q    Type
REMARK                         _______ _______ _______ _____ _____    ______ ____
ROOT
ATOM      1  C   UNL     1       3.069  -0.070  -1.269  0.00  0.00    +0.000 A 
ATOM      2  C   UNL     1       2.679   0.684  -2.379  0.00  0.00    +0.000 A 
ATOM      3  C   UNL     1       3.417   0.615  -3.564  0.00  0.00    +0.000 A 
ATOM      4  C   UNL     1       4.552  -0.206  -3.658  0.00  0.00    +0.000 A 
ATOM      5  C   UNL     1       4.903  -0.997  -2.556  0.00  0.00    +0.000 A 
ATOM      6  C   UNL     1       4.155  -0.949  -1.380  0.00  0.00    +0.000 A 
ENDROOT
BRANCH   4   7
ATOM      7  C   UNL     1       5.337  -0.227  -4.884  0.00  0.00    +0.000 A 
ATOM      8  N   UNL     1       5.160   0.421  -6.011  0.00  0.00    +0.000 NA
ATOM      9  C   UNL     1       6.202  -0.040  -6.798  0.00  0.00    +0.000 A 
ATOM     10  N   UNL     1       7.008  -0.908  -6.162  0.00  0.00    +0.000 NA
ATOM     11  O   UNL     1       6.437  -1.034  -4.902  0.00  0.00    +0.000 OA
BRANCH   9  12
ATOM     12  C   UNL     1       6.343   0.354  -8.198  0.00  0.00    +0.000 A 
ATOM     13  N   UNL     1       5.443   1.276  -8.653  0.00  0.00    +0.000 NA
ATOM     14  C   UNL     1       5.501   1.571  -9.958  0.00  0.00    +0.000 A 
ATOM     15  C   UNL     1       6.381   1.020 -10.865  0.00  0.00    +0.000 A 
ATOM     16  C   UNL     1       7.310   0.106 -10.384  0.00  0.00    +0.000 A 
ATOM     17  C   UNL     1       7.297  -0.227  -9.033  0.00  0.00    +0.000 A 
ATOM     18  F   UNL     1       8.198  -1.114  -8.588  0.00  0.00    +0.000 F 
BRANCH  14  19
ATOM     19  O   UNL     1       4.593   2.494 -10.354  0.00  0.00    +0.000 OA
ATOM     20  H   UNL     1       4.163   2.692  -9.502  0.00  0.00    +0.000 HD
ENDBRANCH  14  19
ENDBRANCH   9  12
ENDBRANCH   4   7
BRANCH   1  22
ATOM     21  O   UNL     1       1.137   0.362   0.003  0.00  0.00    +0.000 OA
ATOM     22  C   UNL     1       2.336   0.091   0.016  0.00  0.00    +0.000 C 
BRANCH  22  23
ATOM     23  C   UNL     1       3.047  -0.072   1.314  0.00  0.00    +0.000 A 
ATOM     24  C   UNL     1       2.351  -0.610   2.399  0.00  0.00    +0.000 A 
ATOM     25  C   UNL     1       3.020  -0.859   3.599  0.00  0.00    +0.000 A 
ATOM     26  C   UNL     1       4.380  -0.568   3.718  0.00  0.00    +0.000 A 
ATOM     27  C   UNL     1       5.068   0.007   2.651  0.00  0.00    +0.000 A 
ATOM     28  C   UNL     1       4.398   0.277   1.459  0.00  0.00    +0.000 A 
ENDBRANCH  22  23
ENDBRANCH   1  22
TORSDOF 5
