REMARK  Name = 
REMARK  5 active torsions:
REMARK  status: ('A' for Active; 'I' for Inactive)
REMARK    1  A    between atoms: C_1  and  C_2
REMARK    2  A    between atoms: C_9  and  C_10
REMARK    3  A    between atoms: N_12  and  C_13
REMARK    4  A    between atoms: C_19  and  N_20
REMARK    5  A    between atoms: C_21  and  C_23
REMARK                            x       y       z     vdW  Elec       q    Type
REMARK                         _______ _______ _______ _____ _____    ______ ____
ROOT
ATOM      1  C   UNL     1       4.625   6.245   0.224  0.00  0.00    +0.000 A 
ATOM      2  C   UNL     1       3.392   6.410   0.884  0.00  0.00    +0.000 A 
ATOM      3  C   UNL     1       2.650   7.573   0.719  0.00  0.00    +0.000 A 
ATOM      4  F   UNL     1       1.511   7.735   1.404  0.00  0.00    +0.000 F 
ATOM      5  C   UNL     1       3.075   8.566  -0.137  0.00  0.00    +0.000 A 
ATOM      6  C   UNL     1       4.272   8.395  -0.833  0.00  0.00    +0.000 A 
ATOM      7  C   UNL     1       5.081   7.254  -0.660  0.00  0.00    +0.000 A 
ENDROOT
BRANCH   1  10
ATOM      8  C   UNL     1       6.658   4.987   0.857  0.00  0.00    +0.000 C 
ATOM      9  O   UNL     1       7.441   5.929   0.802  0.00  0.00    +0.000 OA
ATOM     10  N   UNL     1       5.314   5.040   0.537  0.00  0.00    +0.000 N 
ATOM     11  H   UNL     1       4.744   4.308   0.948  0.00  0.00    +0.000 HD
BRANCH   8  20
ATOM     12  C   UNL     1       9.749   5.556   5.209  0.00  0.00    +0.000 C 
ATOM     13  C   UNL     1       9.303   4.420   4.348  0.00  0.00    +0.000 A 
ATOM     14  C   UNL     1       9.736   3.124   4.549  0.00  0.00    +0.000 A 
ATOM     15  N   UNL     1       9.346   2.075   3.792  0.00  0.00    +0.000 NA
ATOM     16  C   UNL     1       8.510   2.275   2.772  0.00  0.00    +0.000 A 
ATOM     17  N   UNL     1       8.161   1.202   2.062  0.00  0.00    +0.000 NA
ATOM     18  C   UNL     1       7.331   1.331   1.010  0.00  0.00    +0.000 A 
ATOM     19  C   UNL     1       6.796   2.534   0.607  0.00  0.00    +0.000 A 
ATOM     20  C   UNL     1       7.149   3.664   1.340  0.00  0.00    +0.000 A 
ATOM     21  C   UNL     1       8.017   3.554   2.459  0.00  0.00    +0.000 A 
ATOM     22  C   UNL     1       8.421   4.626   3.292  0.00  0.00    +0.000 A 
ENDBRANCH   8  20
ENDBRANCH   1  10
BRANCH   7  23
ATOM     23  N   UNL     1       6.262   7.100  -1.438  0.00  0.00    +0.000 N 
ATOM     24  C   UNL     1       6.919   8.119  -2.115  0.00  0.00    +0.000 C 
ATOM     25  O   UNL     1       6.641   9.319  -2.042  0.00  0.00    +0.000 OA
ATOM     26  H   UNL     1       6.756   6.214  -1.388  0.00  0.00    +0.000 HD
BRANCH  24  27
ATOM     27  C   UNL     1       8.058   7.733  -3.009  0.00  0.00    +0.000 A 
ATOM     28  C   UNL     1       8.745   8.755  -3.668  0.00  0.00    +0.000 A 
ATOM     29  C   UNL     1       9.747   8.421  -4.570  0.00  0.00    +0.000 A 
ATOM     30  C   UNL     1      10.032   7.080  -4.786  0.00  0.00    +0.000 A 
ATOM     31  C   UNL     1       9.305   6.126  -4.083  0.00  0.00    +0.000 A 
ATOM     32  N   UNL     1       8.316   6.411  -3.195  0.00  0.00    +0.000 NA
ENDBRANCH  24  27
ENDBRANCH   7  23
TORSDOF 4
