REMARK  Name = 
REMARK  4 active torsions:
REMARK  status: ('A' for Active; 'I' for Inactive)
REMARK    1  A    between atoms: C_2  and  C_15
REMARK    2  A    between atoms: N_3  and  C_4
REMARK    3  A    between atoms: C_17  and  C_18
REMARK    4  A    between atoms: C_23  and  C_24
REMARK                            x       y       z     vdW  Elec       q    Type
REMARK                         _______ _______ _______ _____ _____    ______ ____
ROOT
ATOM      1  O   UNL     1       0.889   0.005  -0.034  0.00  0.00    +0.000 OA
ATOM      2  C   UNL     1       2.116  -0.059   0.009  0.00  0.00    +0.000 C 
ATOM      3  N   UNL     1       2.805  -1.252   0.145  0.00  0.00    +0.000 N 
ATOM      4  H   UNL     1       3.794  -1.215   0.385  0.00  0.00    +0.000 HD
ENDROOT
BRANCH   3   5
ATOM      5  C   UNL     1       2.211  -2.501   0.209  0.00  0.00    +0.000 A 
ATOM      6  C   UNL     1       0.987  -2.813  -0.237  0.00  0.00    +0.000 A 
ATOM      7  N   UNL     1       0.384  -4.034  -0.158  0.00  0.00    +0.000 NA
ATOM      8  C   UNL     1       1.051  -4.990   0.405  0.00  0.00    +0.000 A 
ATOM      9  C   UNL     1       0.412  -6.329   0.505  0.00  0.00    +0.000 A 
ATOM     10  C   UNL     1       1.076  -7.340   1.072  0.00  0.00    +0.000 A 
ATOM     11  C   UNL     1       2.398  -7.138   1.598  0.00  0.00    +0.000 A 
ATOM     12  C   UNL     1       2.982  -5.931   1.511  0.00  0.00    +0.000 A 
ATOM     13  N   UNL     1       2.336  -4.848   0.921  0.00  0.00    +0.000 N 
ATOM     14  C   UNL     1       2.980  -3.615   0.855  0.00  0.00    +0.000 A 
ATOM     15  O   UNL     1       4.103  -3.373   1.309  0.00  0.00    +0.000 OA
ENDBRANCH   3   5
BRANCH   2  16
ATOM     16  C   UNL     1       2.894   1.150  -0.018  0.00  0.00    +0.000 A 
ATOM     17  C   UNL     1       2.457   2.450   0.044  0.00  0.00    +0.000 A 
ATOM     18  C   UNL     1       3.621   3.242  -0.055  0.00  0.00    +0.000 A 
ATOM     19  N   UNL     1       4.710   2.457  -0.114  0.00  0.00    +0.000 NA
ATOM     20  O   UNL     1       4.247   1.146  -0.124  0.00  0.00    +0.000 OA
BRANCH  18  21
ATOM     21  C   UNL     1       3.686   4.703  -0.012  0.00  0.00    +0.000 A 
ATOM     22  C   UNL     1       2.812   5.366   0.879  0.00  0.00    +0.000 A 
ATOM     23  C   UNL     1       2.844   6.751   1.038  0.00  0.00    +0.000 A 
ATOM     24  C   UNL     1       3.772   7.500   0.331  0.00  0.00    +0.000 A 
ATOM     25  C   UNL     1       4.618   6.868  -0.578  0.00  0.00    +0.000 A 
ATOM     26  C   UNL     1       4.560   5.471  -0.801  0.00  0.00    +0.000 A 
BRANCH  26  27
ATOM     27  C   UNL     1       5.412   4.936  -1.931  0.00  0.00    +0.000 C 
ATOM     28  F   UNL     1       5.162   3.668  -2.343  0.00  0.00    +0.000 F 
ATOM     29  F   UNL     1       5.243   5.692  -3.061  0.00  0.00    +0.000 F 
ATOM     30  F   UNL     1       6.745   5.004  -1.658  0.00  0.00    +0.000 F 
ENDBRANCH  26  27
ENDBRANCH  18  21
ENDBRANCH   2  16
TORSDOF 4
