REMARK  Name = 
REMARK  7 active torsions:
REMARK  status: ('A' for Active; 'I' for Inactive)
REMARK    1  A    between atoms: C_2  and  C_4
REMARK    2  A    between atoms: C_4  and  N_5
REMARK    3  A    between atoms: N_5  and  C_6
REMARK    4  A    between atoms: C_6  and  C_7
REMARK    5  A    between atoms: C_10  and  C_11
REMARK    6  A    between atoms: C_19  and  C_21
REMARK    7  A    between atoms: C_24  and  N_25
REMARK                            x       y       z     vdW  Elec       q    Type
REMARK                         _______ _______ _______ _____ _____    ______ ____
ROOT
ATOM      1  N   UNL     1       4.752   0.584   0.774  0.00  0.00    +0.000 N 
ATOM      2  C   UNL     1       5.644   1.321   1.571  0.00  0.00    +0.000 C 
ATOM      3  O   UNL     1       5.195   2.021   2.481  0.00  0.00    +0.000 OA
ENDROOT
BRANCH   2   4
ATOM      4  C   UNL     1       7.135   1.304   1.364  0.00  0.00    +0.000 A 
ATOM      5  C   UNL     1       7.694   1.151   0.087  0.00  0.00    +0.000 A 
ATOM      6  C   UNL     1       9.062   1.053  -0.131  0.00  0.00    +0.000 A 
ATOM      7  C   UNL     1       9.933   1.236   0.927  0.00  0.00    +0.000 A 
ATOM      8  C   UNL     1       9.422   1.467   2.211  0.00  0.00    +0.000 A 
ATOM      9  C   UNL     1       8.031   1.480   2.434  0.00  0.00    +0.000 A 
ATOM     10 CL   UNL     1       7.565   1.719   4.084  0.00  0.00    +0.000 Cl
BRANCH   7  11
ATOM     11  N   UNL     1      11.318   1.235   0.680  0.00  0.00    +0.000 N 
ATOM     12  C   UNL     1      12.357   1.392   1.547  0.00  0.00    +0.000 A 
ATOM     13  N   UNL     1      13.476   1.400   0.882  0.00  0.00    +0.000 NA
ATOM     14  N   UNL     1      13.138   1.233  -0.425  0.00  0.00    +0.000 NA
ATOM     15  N   UNL     1      11.837   1.111  -0.550  0.00  0.00    +0.000 NA
ENDBRANCH   7  11
ENDBRANCH   2   4
BRANCH   1  16
ATOM     16  C   UNL     1       5.059  -0.198  -0.433  0.00  0.00    +0.000 C 
BRANCH  16  17
ATOM     17  C   UNL     1       5.963  -1.404  -0.249  0.00  0.00    +0.000 A 
ATOM     18  C   UNL     1       6.364  -1.876   1.006  0.00  0.00    +0.000 A 
ATOM     19  C   UNL     1       7.062  -3.079   1.139  0.00  0.00    +0.000 A 
ATOM     20  C   UNL     1       7.354  -3.880   0.028  0.00  0.00    +0.000 A 
ATOM     21  C   UNL     1       7.024  -3.361  -1.236  0.00  0.00    +0.000 A 
ATOM     22  C   UNL     1       6.363  -2.132  -1.377  0.00  0.00    +0.000 A 
BRANCH  20  23
ATOM     23  C   UNL     1       7.925  -5.237   0.187  0.00  0.00    +0.000 A 
ATOM     24  C   UNL     1       7.638  -6.026   1.319  0.00  0.00    +0.000 A 
ATOM     25  C   UNL     1       8.138  -7.324   1.449  0.00  0.00    +0.000 A 
ATOM     26  C   UNL     1       8.932  -7.865   0.444  0.00  0.00    +0.000 A 
ATOM     27  C   UNL     1       9.228  -7.110  -0.686  0.00  0.00    +0.000 A 
ATOM     28  C   UNL     1       8.736  -5.809  -0.808  0.00  0.00    +0.000 A 
ENDBRANCH  20  23
ENDBRANCH  16  17
ENDBRANCH   1  16
BRANCH   1  29
ATOM     29  C   UNL     1       3.322   0.659   1.145  0.00  0.00    +0.000 C 
BRANCH  29  31
ATOM     30  N   UNL     1       3.186   3.055   0.467  0.00  0.00    +0.000 N 
ATOM     31  C   UNL     1       2.524   1.872   0.633  0.00  0.00    +0.000 C 
ATOM     32  O   UNL     1       1.303   1.841   0.483  0.00  0.00    +0.000 OA
ATOM     33  H   UNL     1       2.581   3.838   0.246  0.00  0.00    +0.000 HD
ATOM     34  H   UNL     1       3.922   3.259   1.139  0.00  0.00    +0.000 HD
ENDBRANCH  29  31
ENDBRANCH   1  29
TORSDOF 7
