REMARK  Name = 
REMARK  6 active torsions:
REMARK  status: ('A' for Active; 'I' for Inactive)
REMARK    1  A    between atoms: C_1  and  N_2
REMARK    2  A    between atoms: N_2  and  C_16
REMARK    3  A    between atoms: C_3  and  C_5
REMARK    4  A    between atoms: C_20  and  C_21
REMARK    5  A    between atoms: C_21  and  O_22
REMARK    6  A    between atoms: C_21  and  C_23
REMARK                            x       y       z     vdW  Elec       q    Type
REMARK                         _______ _______ _______ _____ _____    ______ ____
ROOT
ATOM      1  C   UNL     1       2.254  -1.400  -0.011  0.00  0.00    +0.000 C 
ATOM      2  N   UNL     1       2.411   0.052   0.047  0.00  0.00    +0.000 N 
ATOM      3  C   UNL     1       2.006   0.844  -1.040  0.00  0.00    +0.000 C 
ATOM      4  O   UNL     1       1.556   0.357  -2.084  0.00  0.00    +0.000 OA
ENDROOT
BRANCH   3   5
ATOM      5  C   UNL     1       2.036   2.337  -0.949  0.00  0.00    +0.000 A 
ATOM      6  C   UNL     1       2.231   3.080  -2.124  0.00  0.00    +0.000 A 
ATOM      7  C   UNL     1       2.270   4.481  -2.087  0.00  0.00    +0.000 A 
ATOM      8  C   UNL     1       2.093   5.137  -0.866  0.00  0.00    +0.000 A 
ATOM      9  C   UNL     1       2.112   6.593  -0.764  0.00  0.00    +0.000 A 
ATOM     10  N   UNL     1       1.889   7.249   0.335  0.00  0.00    +0.000 NA
ATOM     11  N   UNL     1       1.637   6.519   1.463  0.00  0.00    +0.000 N 
ATOM     12  C   UNL     1       1.622   5.141   1.545  0.00  0.00    +0.000 A 
ATOM     13  O   UNL     1       1.414   4.546   2.598  0.00  0.00    +0.000 OA
ATOM     14  C   UNL     1       1.857   4.416   0.291  0.00  0.00    +0.000 A 
ATOM     15  C   UNL     1       1.810   3.023   0.253  0.00  0.00    +0.000 A 
ATOM     16  H   UNL     1       1.447   7.040   2.311  0.00  0.00    +0.000 HD
ENDBRANCH   3   5
BRANCH   2  17
ATOM     17  C   UNL     1       3.167   0.530   1.146  0.00  0.00    +0.000 A 
ATOM     18  C   UNL     1       2.651   0.391   2.437  0.00  0.00    +0.000 A 
ATOM     19  C   UNL     1       3.329   0.945   3.518  0.00  0.00    +0.000 A 
ATOM     20  C   UNL     1       4.566   1.562   3.325  0.00  0.00    +0.000 A 
ATOM     21  C   UNL     1       5.130   1.655   2.040  0.00  0.00    +0.000 A 
ATOM     22  C   UNL     1       4.393   1.173   0.946  0.00  0.00    +0.000 A 
BRANCH  21  23
ATOM     23  C   UNL     1       6.551   2.159   1.818  0.00  0.00    +0.000 C 
BRANCH  23  24
ATOM     24  C   UNL     1       7.597   1.222   2.412  0.00  0.00    +0.000 A 
ATOM     25  C   UNL     1       7.664  -0.116   1.979  0.00  0.00    +0.000 A 
ATOM     26  C   UNL     1       8.577  -1.009   2.543  0.00  0.00    +0.000 A 
ATOM     27  C   UNL     1       9.453  -0.576   3.534  0.00  0.00    +0.000 A 
ATOM     28  C   UNL     1       9.423   0.752   3.954  0.00  0.00    +0.000 A 
ATOM     29  C   UNL     1       8.504   1.645   3.397  0.00  0.00    +0.000 A 
ENDBRANCH  23  24
BRANCH  23  30
ATOM     30  O   UNL     1       6.702   3.491   2.307  0.00  0.00    +0.000 OA
ATOM     31  H   UNL     1       6.181   3.564   3.122  0.00  0.00    +0.000 HD
ENDBRANCH  23  30
ENDBRANCH  21  23
ENDBRANCH   2  17
TORSDOF 5
