REMARK  Name = 
REMARK  9 active torsions:
REMARK  status: ('A' for Active; 'I' for Inactive)
REMARK    1  A    between atoms: C_1  and  O_2
REMARK    2  A    between atoms: O_2  and  C_3
REMARK    3  A    between atoms: C_3  and  C_5
REMARK    4  A    between atoms: C_5  and  N_6
REMARK    5  A    between atoms: C_5  and  C_23
REMARK    6  A    between atoms: C_7  and  C_9
REMARK    7  A    between atoms: C_12  and  O_13
REMARK    8  A    between atoms: O_13  and  C_14
REMARK    9  A    between atoms: C_14  and  C_15
REMARK                            x       y       z     vdW  Elec       q    Type
REMARK                         _______ _______ _______ _____ _____    ______ ____
ROOT
ATOM      1  N   UNL     1       4.984  -1.113   0.474  0.00  0.00    +0.000 N 
ATOM      2  C   UNL     1       4.875  -0.267   1.553  0.00  0.00    +0.000 C 
ATOM      3  O   UNL     1       4.492   0.893   1.460  0.00  0.00    +0.000 OA
ATOM      4  H   UNL     1       5.258  -2.077   0.598  0.00  0.00    +0.000 HD
ENDROOT
BRANCH   2   5
ATOM      5  C   UNL     1       5.253  -0.830   2.877  0.00  0.00    +0.000 A 
ATOM      6  C   UNL     1       5.720   0.035   3.877  0.00  0.00    +0.000 A 
ATOM      7  C   UNL     1       6.014  -0.461   5.151  0.00  0.00    +0.000 A 
ATOM      8  C   UNL     1       5.823  -1.813   5.438  0.00  0.00    +0.000 A 
ATOM      9  C   UNL     1       5.413  -2.684   4.426  0.00  0.00    +0.000 A 
ATOM     10  C   UNL     1       5.109  -2.193   3.157  0.00  0.00    +0.000 A 
BRANCH   8  11
ATOM     11  O   UNL     1       6.037  -2.189   6.739  0.00  0.00    +0.000 OA
BRANCH  11  12
ATOM     12  C   UNL     1       5.318  -3.361   7.140  0.00  0.00    +0.000 C 
BRANCH  12  13
ATOM     13  C   UNL     1       5.151  -3.375   8.630  0.00  0.00    +0.000 A 
ATOM     14  C   UNL     1       4.516  -2.325   9.300  0.00  0.00    +0.000 A 
ATOM     15  C   UNL     1       4.323  -2.402  10.674  0.00  0.00    +0.000 A 
ATOM     16  C   UNL     1       4.769  -3.535  11.335  0.00  0.00    +0.000 A 
ATOM     17  N   UNL     1       5.377  -4.572  10.721  0.00  0.00    +0.000 NA
ATOM     18  C   UNL     1       5.554  -4.469   9.386  0.00  0.00    +0.000 A 
ENDBRANCH  12  13
ENDBRANCH  11  12
ENDBRANCH   8  11
ENDBRANCH   2   5
BRANCH   1  19
ATOM     19  C   UNL     1       4.503  -0.726  -0.848  0.00  0.00    +0.000 C 
BRANCH  19  20
ATOM     20  C   UNL     1       5.400  -1.334  -1.909  0.00  0.00    +0.000 A 
ATOM     21  C   UNL     1       6.265  -0.524  -2.662  0.00  0.00    +0.000 A 
ATOM     22  C   UNL     1       7.058  -1.087  -3.663  0.00  0.00    +0.000 A 
ATOM     23  C   UNL     1       6.995  -2.456  -3.907  0.00  0.00    +0.000 A 
ATOM     24  F   UNL     1       7.752  -2.987  -4.876  0.00  0.00    +0.000 F 
ATOM     25  C   UNL     1       6.165  -3.279  -3.161  0.00  0.00    +0.000 A 
ATOM     26  C   UNL     1       5.380  -2.712  -2.165  0.00  0.00    +0.000 A 
ATOM     27  F   UNL     1       4.599  -3.513  -1.425  0.00  0.00    +0.000 F 
ENDBRANCH  19  20
BRANCH  19  28
ATOM     28  C   UNL     1       3.017  -1.060  -1.129  0.00  0.00    +0.000 C 
ATOM     29  O   UNL     1       2.459  -0.819  -2.194  0.00  0.00    +0.000 OA
BRANCH  28  31
ATOM     30  C   UNL     1       1.033  -1.984  -0.296  0.00  0.00    +0.000 C 
ATOM     31  O   UNL     1       2.408  -1.670  -0.068  0.00  0.00    +0.000 OA
ENDBRANCH  28  31
ENDBRANCH  19  28
ENDBRANCH   1  19
TORSDOF 8
