REMARK  Name = 
REMARK  4 active torsions:
REMARK  status: ('A' for Active; 'I' for Inactive)
REMARK    1  A    between atoms: N_1  and  C_2
REMARK    2  A    between atoms: C_4  and  C_5
REMARK    3  A    between atoms: N_7  and  C_8
REMARK    4  A    between atoms: N_21  and  C_22
REMARK                            x       y       z     vdW  Elec       q    Type
REMARK                         _______ _______ _______ _____ _____    ______ ____
ROOT
ATOM      1  C   UNL     1       5.780   1.505  -0.044  0.00  0.00    +0.000 C 
ATOM      2  O   UNL     1       5.725   2.728  -0.133  0.00  0.00    +0.000 OA
ATOM      3  N   UNL     1       6.939   0.748  -0.028  0.00  0.00    +0.000 N 
ATOM      4  H   UNL     1       6.797  -0.259  -0.082  0.00  0.00    +0.000 HD
ENDROOT
BRANCH   3   5
ATOM      5  C   UNL     1       8.256   1.260  -0.005  0.00  0.00    +0.000 A 
ATOM      6  C   UNL     1       8.544   2.593   0.275  0.00  0.00    +0.000 A 
ATOM      7  C   UNL     1       9.862   3.049   0.339  0.00  0.00    +0.000 A 
ATOM      8  C   UNL     1      10.119   4.391   0.678  0.00  0.00    +0.000 A 
ATOM      9  C   UNL     1      11.425   4.845   0.774  0.00  0.00    +0.000 A 
ATOM     10  C   UNL     1      12.463   3.965   0.507  0.00  0.00    +0.000 A 
ATOM     11  F   UNL     1      13.726   4.405   0.604  0.00  0.00    +0.000 F 
ATOM     12  C   UNL     1      12.208   2.639   0.156  0.00  0.00    +0.000 A 
ATOM     13  F   UNL     1      13.252   1.834  -0.101  0.00  0.00    +0.000 F 
ATOM     14  C   UNL     1      10.908   2.139   0.081  0.00  0.00    +0.000 A 
ATOM     15  N   UNL     1      10.641   0.842  -0.211  0.00  0.00    +0.000 NA
ATOM     16  C   UNL     1       9.346   0.430  -0.231  0.00  0.00    +0.000 A 
ENDBRANCH   3   5
BRANCH   1  19
ATOM     17  C   UNL     1       2.391   0.172  -0.130  0.00  0.00    +0.000 A 
ATOM     18  C   UNL     1       3.241   1.246  -0.163  0.00  0.00    +0.000 A 
ATOM     19  C   UNL     1       4.542   0.716  -0.003  0.00  0.00    +0.000 A 
ATOM     20  N   UNL     1       4.516  -0.616   0.196  0.00  0.00    +0.000 NA
ATOM     21  N   UNL     1       3.204  -0.954   0.015  0.00  0.00    +0.000 N 
BRANCH  21  22
ATOM     22  C   UNL     1       2.832  -2.321  -0.064  0.00  0.00    +0.000 A 
ATOM     23  C   UNL     1       3.532  -3.271   0.693  0.00  0.00    +0.000 A 
ATOM     24  C   UNL     1       3.186  -4.620   0.598  0.00  0.00    +0.000 A 
ATOM     25  C   UNL     1       2.177  -5.012  -0.275  0.00  0.00    +0.000 A 
ATOM     26  F   UNL     1       1.869  -6.310  -0.388  0.00  0.00    +0.000 F 
ATOM     27  C   UNL     1       1.490  -4.079  -1.045  0.00  0.00    +0.000 A 
ATOM     28  C   UNL     1       1.805  -2.725  -0.932  0.00  0.00    +0.000 A 
ENDBRANCH  21  22
BRANCH  17  29
ATOM     29  N   UNL     1       1.035   0.168  -0.182  0.00  0.00    +0.000 N 
ATOM     30  H   UNL     1       0.529   1.044  -0.060  0.00  0.00    +0.000 HD
ATOM     31  H   UNL     1       0.503  -0.628   0.167  0.00  0.00    +0.000 HD
ENDBRANCH  17  29
ENDBRANCH   1  19
TORSDOF 4
