REMARK  Name = 
REMARK  7 active torsions:
REMARK  status: ('A' for Active; 'I' for Inactive)
REMARK    1  A    between atoms: C_1  and  C_2
REMARK    2  A    between atoms: N_4  and  C_5
REMARK    3  A    between atoms: C_12  and  C_13
REMARK    4  A    between atoms: N_15  and  C_16
REMARK    5  A    between atoms: C_19  and  O_20
REMARK    6  A    between atoms: O_20  and  C_21
REMARK    7  A    between atoms: C_26  and  C_27
REMARK                            x       y       z     vdW  Elec       q    Type
REMARK                         _______ _______ _______ _____ _____    ______ ____
ROOT
ATOM      1  C   UNL     1       2.730  -2.429  -0.136  0.00  0.00    +0.000 C 
ATOM      2  O   UNL     1       1.547  -2.545  -0.444  0.00  0.00    +0.000 OA
ATOM      3  N   UNL     1       3.595  -3.492   0.083  0.00  0.00    +0.000 N 
ATOM      4  H   UNL     1       4.503  -3.294   0.474  0.00  0.00    +0.000 HD
ENDROOT
BRANCH   1  10
ATOM      5  C   UNL     1       1.107   0.283  -0.406  0.00  0.00    +0.000 C 
ATOM      6  C   UNL     1       2.541   0.116  -0.039  0.00  0.00    +0.000 A 
ATOM      7  N   UNL     1       3.290   1.186   0.238  0.00  0.00    +0.000 NA
ATOM      8  N   UNL     1       4.530   0.697   0.468  0.00  0.00    +0.000 N 
ATOM      9  C   UNL     1       4.559  -0.682   0.373  0.00  0.00    +0.000 A 
ATOM     10  C   UNL     1       3.276  -1.097   0.067  0.00  0.00    +0.000 A 
BRANCH   8  11
ATOM     11  C   UNL     1       5.605   1.581   0.752  0.00  0.00    +0.000 A 
ATOM     12  C   UNL     1       5.346   2.947   0.907  0.00  0.00    +0.000 A 
ATOM     13  C   UNL     1       6.410   3.791   1.172  0.00  0.00    +0.000 A 
ATOM     14  N   UNL     1       7.688   3.370   1.285  0.00  0.00    +0.000 NA
ATOM     15  C   UNL     1       7.911   2.048   1.128  0.00  0.00    +0.000 A 
ATOM     16  C   UNL     1       6.916   1.119   0.869  0.00  0.00    +0.000 A 
ENDBRANCH   8  11
ENDBRANCH   1  10
BRANCH   3  17
ATOM     17  C   UNL     1       3.236  -4.856  -0.053  0.00  0.00    +0.000 A 
ATOM     18  C   UNL     1       2.061  -5.257  -0.692  0.00  0.00    +0.000 A 
ATOM     19  C   UNL     1       1.690  -6.597  -0.745  0.00  0.00    +0.000 A 
ATOM     20  C   UNL     1       2.531  -7.578  -0.231  0.00  0.00    +0.000 A 
ATOM     21  C   UNL     1       3.715  -7.198   0.404  0.00  0.00    +0.000 A 
ATOM     22  C   UNL     1       4.074  -5.841   0.483  0.00  0.00    +0.000 A 
BRANCH  20  23
ATOM     23  O   UNL     1       2.224  -8.921  -0.272  0.00  0.00    +0.000 OA
BRANCH  23  24
ATOM     24  C   UNL     1       1.570  -9.397  -1.406  0.00  0.00    +0.000 A 
ATOM     25  N   UNL     1       1.800  -8.778  -2.595  0.00  0.00    +0.000 NA
ATOM     26  C   UNL     1       1.123  -9.219  -3.673  0.00  0.00    +0.000 A 
ATOM     27  C   UNL     1       0.252 -10.292  -3.637  0.00  0.00    +0.000 A 
ATOM     28  C   UNL     1       0.062 -10.946  -2.421  0.00  0.00    +0.000 A 
ATOM     29  C   UNL     1       0.728 -10.493  -1.276  0.00  0.00    +0.000 A 
BRANCH  29  30
ATOM     30  C   UNL     1       0.520 -11.139  -0.020  0.00  0.00    +0.000 C 
ATOM     31  N   UNL     1       0.324 -11.688   0.984  0.00  0.00    +0.000 NA
ENDBRANCH  29  30
ENDBRANCH  23  24
ENDBRANCH  20  23
ENDBRANCH   3  17
TORSDOF 6
