REMARK  Name = 
REMARK  8 active torsions:
REMARK  status: ('A' for Active; 'I' for Inactive)
REMARK    1  A    between atoms: C_2  and  C_20
REMARK    2  A    between atoms: N_3  and  C_4
REMARK    3  A    between atoms: C_4  and  C_5
REMARK    4  A    between atoms: C_7  and  O_8
REMARK    5  A    between atoms: O_8  and  C_9
REMARK    6  A    between atoms: C_22  and  O_23
REMARK    7  A    between atoms: O_23  and  C_24
REMARK    8  A    between atoms: C_24  and  C_25
REMARK                            x       y       z     vdW  Elec       q    Type
REMARK                         _______ _______ _______ _____ _____    ______ ____
ROOT
ATOM      1  C   UNL     1       2.271  -1.547  -1.873  0.00  0.00    +0.000 C 
ENDROOT
BRANCH   1   2
ATOM      2  C   UNL     1       3.201  -2.277  -2.822  0.00  0.00    +0.000 A 
ATOM      3  C   UNL     1       3.523  -1.708  -4.051  0.00  0.00    +0.000 A 
ATOM      4  C   UNL     1       4.465  -2.339  -4.862  0.00  0.00    +0.000 A 
ATOM      5  C   UNL     1       4.969  -3.576  -4.480  0.00  0.00    +0.000 A 
ATOM      6  C   UNL     1       4.568  -4.093  -3.260  0.00  0.00    +0.000 A 
ATOM      7  N   UNL     1       3.721  -3.463  -2.413  0.00  0.00    +0.000 NA
BRANCH   4   8
ATOM      8  O   UNL     1       4.908  -1.842  -6.066  0.00  0.00    +0.000 OA
BRANCH   8   9
ATOM      9  C   UNL     1       5.034  -0.481  -6.242  0.00  0.00    +0.000 A 
ATOM     10  C   UNL     1       5.381   0.419  -5.226  0.00  0.00    +0.000 A 
ATOM     11  C   UNL     1       5.434   1.790  -5.486  0.00  0.00    +0.000 A 
ATOM     12  C   UNL     1       5.204   2.252  -6.776  0.00  0.00    +0.000 A 
ATOM     13  F   UNL     1       5.253   3.567  -7.023  0.00  0.00    +0.000 F 
ATOM     14  C   UNL     1       4.936   1.353  -7.804  0.00  0.00    +0.000 A 
ATOM     15  F   UNL     1       4.735   1.799  -9.049  0.00  0.00    +0.000 F 
ATOM     16  C   UNL     1       4.846  -0.011  -7.544  0.00  0.00    +0.000 A 
ENDBRANCH   8   9
ENDBRANCH   4   8
ENDBRANCH   1   2
BRANCH   1  19
ATOM     17  O   UNL     1       3.059   1.117  -2.532  0.00  0.00    +0.000 OA
ATOM     18  C   UNL     1       3.294   0.670  -1.414  0.00  0.00    +0.000 C 
ATOM     19  N   UNL     1       2.956  -0.603  -1.011  0.00  0.00    +0.000 N 
ATOM     20  H   UNL     1       3.269  -0.906  -0.096  0.00  0.00    +0.000 HD
BRANCH  18  21
ATOM     21  C   UNL     1       4.009   1.498  -0.389  0.00  0.00    +0.000 A 
ATOM     22  N   UNL     1       3.904   1.095   0.906  0.00  0.00    +0.000 NA
ATOM     23  C   UNL     1       4.521   1.878   1.818  0.00  0.00    +0.000 A 
ATOM     24  C   UNL     1       5.257   3.012   1.503  0.00  0.00    +0.000 A 
ATOM     25  C   UNL     1       5.376   3.376   0.166  0.00  0.00    +0.000 A 
ATOM     26  C   UNL     1       4.727   2.616  -0.801  0.00  0.00    +0.000 A 
BRANCH  23  27
ATOM     27  O   UNL     1       4.375   1.599   3.161  0.00  0.00    +0.000 OA
BRANCH  27  28
ATOM     28  C   UNL     1       4.042   0.228   3.403  0.00  0.00    +0.000 C 
BRANCH  28  29
ATOM     29  C   UNL     1       3.896  -0.006   4.896  0.00  0.00    +0.000 C 
ATOM     30  F   UNL     1       3.516  -1.291   5.118  0.00  0.00    +0.000 F 
ATOM     31  F   UNL     1       5.095   0.150   5.513  0.00  0.00    +0.000 F 
ENDBRANCH  28  29
ENDBRANCH  27  28
ENDBRANCH  23  27
ENDBRANCH  18  21
ENDBRANCH   1  19
TORSDOF 8
