REMARK  Name = 
REMARK  5 active torsions:
REMARK  status: ('A' for Active; 'I' for Inactive)
REMARK    1  A    between atoms: C_2  and  C_19
REMARK    2  A    between atoms: N_3  and  C_4
REMARK    3  A    between atoms: C_7  and  O_8
REMARK    4  A    between atoms: O_8  and  C_9
REMARK    5  A    between atoms: C_22  and  C_23
REMARK                            x       y       z     vdW  Elec       q    Type
REMARK                         _______ _______ _______ _____ _____    ______ ____
ROOT
ATOM      1  O   UNL     1       1.080   0.910  -0.388  0.00  0.00    +0.000 OA
ATOM      2  C   UNL     1       2.180   0.401  -0.204  0.00  0.00    +0.000 C 
ATOM      3  N   UNL     1       2.702  -0.656  -0.930  0.00  0.00    +0.000 N 
ATOM      4  H   UNL     1       3.566  -1.057  -0.575  0.00  0.00    +0.000 HD
ENDROOT
BRANCH   3   5
ATOM      5  C   UNL     1       2.016  -1.330  -1.965  0.00  0.00    +0.000 A 
ATOM      6  C   UNL     1       0.898  -0.800  -2.613  0.00  0.00    +0.000 A 
ATOM      7  C   UNL     1       0.213  -1.546  -3.566  0.00  0.00    +0.000 A 
ATOM      8  C   UNL     1       0.693  -2.802  -3.873  0.00  0.00    +0.000 A 
ATOM      9  N   UNL     1       1.787  -3.351  -3.289  0.00  0.00    +0.000 NA
ATOM     10  C   UNL     1       2.430  -2.597  -2.365  0.00  0.00    +0.000 A 
BRANCH   8  11
ATOM     11  O   UNL     1       0.002  -3.505  -4.851  0.00  0.00    +0.000 OA
BRANCH  11  12
ATOM     12  C   UNL     1       0.735  -4.371  -5.627  0.00  0.00    +0.000 A 
ATOM     13  C   UNL     1       0.140  -5.573  -6.000  0.00  0.00    +0.000 A 
ATOM     14  F   UNL     1      -1.119  -5.853  -5.628  0.00  0.00    +0.000 F 
ATOM     15  C   UNL     1       0.857  -6.491  -6.759  0.00  0.00    +0.000 A 
ATOM     16  F   UNL     1       0.298  -7.658  -7.109  0.00  0.00    +0.000 F 
ATOM     17  C   UNL     1       2.162  -6.218  -7.163  0.00  0.00    +0.000 A 
ATOM     18  C   UNL     1       2.744  -4.996  -6.833  0.00  0.00    +0.000 A 
ATOM     19  C   UNL     1       2.022  -4.066  -6.088  0.00  0.00    +0.000 A 
ENDBRANCH  11  12
ENDBRANCH   8  11
ENDBRANCH   3   5
BRANCH   2  20
ATOM     20  C   UNL     1       2.999   0.861   0.885  0.00  0.00    +0.000 A 
ATOM     21  N   UNL     1       4.224   0.493   1.190  0.00  0.00    +0.000 NA
ATOM     22  N   UNL     1       4.583   1.177   2.343  0.00  0.00    +0.000 NA
ATOM     23  C   UNL     1       3.557   1.921   2.720  0.00  0.00    +0.000 A 
ATOM     24  N   UNL     1       2.560   1.766   1.803  0.00  0.00    +0.000 N 
ATOM     25  H   UNL     1       1.646   2.196   1.839  0.00  0.00    +0.000 HD
BRANCH  23  26
ATOM     26  C   UNL     1       3.392   2.762   3.893  0.00  0.00    +0.000 A 
ATOM     27  C   UNL     1       4.390   2.894   4.846  0.00  0.00    +0.000 A 
ATOM     28  C   UNL     1       4.139   3.689   5.960  0.00  0.00    +0.000 A 
ATOM     29  C   UNL     1       2.910   4.327   6.082  0.00  0.00    +0.000 A 
ATOM     30  C   UNL     1       1.969   4.140   5.080  0.00  0.00    +0.000 A 
ATOM     31  N   UNL     1       2.180   3.374   3.989  0.00  0.00    +0.000 NA
ENDBRANCH  23  26
ENDBRANCH   2  20
TORSDOF 5
