REMARK  Name = 
REMARK  7 active torsions:
REMARK  status: ('A' for Active; 'I' for Inactive)
REMARK    1  A    between atoms: C_2  and  O_3
REMARK    2  A    between atoms: C_2  and  C_4
REMARK    3  A    between atoms: C_8  and  C_9
REMARK    4  A    between atoms: C_14  and  C_15
REMARK    5  A    between atoms: C_15  and  N_16
REMARK    6  A    between atoms: C_17  and  C_19
REMARK    7  A    between atoms: C_24  and  N_25
REMARK                            x       y       z     vdW  Elec       q    Type
REMARK                         _______ _______ _______ _____ _____    ______ ____
ROOT
ATOM      1  C   UNL     1       6.343   2.668  -1.263  0.00  0.00    +0.000 A 
ATOM      2  C   UNL     1       7.525   2.768  -0.485  0.00  0.00    +0.000 A 
ATOM      3  C   UNL     1       8.805   2.680  -1.028  0.00  0.00    +0.000 A 
ATOM      4  C   UNL     1       8.955   2.498  -2.388  0.00  0.00    +0.000 A 
ATOM      5  C   UNL     1       7.825   2.461  -3.201  0.00  0.00    +0.000 A 
ATOM      6  C   UNL     1       6.513   2.579  -2.676  0.00  0.00    +0.000 A 
ENDROOT
BRANCH   1  11
ATOM      7  C   UNL     1       3.782   1.760   1.436  0.00  0.00    +0.000 A 
ATOM      8  C   UNL     1       2.605   2.317   0.943  0.00  0.00    +0.000 A 
ATOM      9  C   UNL     1       2.633   3.018  -0.257  0.00  0.00    +0.000 A 
ATOM     10  C   UNL     1       3.838   3.177  -0.958  0.00  0.00    +0.000 A 
ATOM     11  C   UNL     1       5.036   2.579  -0.532  0.00  0.00    +0.000 A 
ATOM     12  C   UNL     1       4.966   1.854   0.683  0.00  0.00    +0.000 A 
BRANCH   7  14
ATOM     13  O   UNL     1       2.781   0.433   3.133  0.00  0.00    +0.000 OA
ATOM     14  C   UNL     1       3.744   1.067   2.741  0.00  0.00    +0.000 C 
BRANCH  14  15
ATOM     15  O   UNL     1       4.854   1.261   3.487  0.00  0.00    +0.000 OA
ATOM     16  H   UNL     1       5.462   1.946   3.145  0.00  0.00    +0.000 HD
ENDBRANCH  14  15
ENDBRANCH   7  14
ENDBRANCH   1  11
BRANCH   6  17
ATOM     17  C   UNL     1       5.341   2.606  -3.640  0.00  0.00    +0.000 C 
BRANCH  17  18
ATOM     18  N   UNL     1       5.692   2.598  -5.050  0.00  0.00    +0.000 N 
ATOM     19  C   UNL     1       5.340   1.561  -5.878  0.00  0.00    +0.000 C 
ATOM     20  O   UNL     1       4.766   0.553  -5.491  0.00  0.00    +0.000 OA
ATOM     21  H   UNL     1       6.125   3.433  -5.424  0.00  0.00    +0.000 HD
BRANCH  19  22
ATOM     22  C   UNL     1       5.686   1.713  -7.318  0.00  0.00    +0.000 A 
ATOM     23  C   UNL     1       6.963   2.211  -7.638  0.00  0.00    +0.000 A 
ATOM     24  C   UNL     1       7.431   2.172  -8.953  0.00  0.00    +0.000 A 
ATOM     25  C   UNL     1       6.655   1.588  -9.948  0.00  0.00    +0.000 A 
ATOM     26  C   UNL     1       5.384   1.094  -9.647  0.00  0.00    +0.000 A 
ATOM     27  C   UNL     1       4.866   1.202  -8.341  0.00  0.00    +0.000 A 
BRANCH  27  28
ATOM     28  N   UNL     1       3.502   0.857  -8.141  0.00  0.00    +0.000 N 
ATOM     29  C   UNL     1       2.604   1.354  -7.221  0.00  0.00    +0.000 A 
ATOM     30  C   UNL     1       1.423   0.714  -7.499  0.00  0.00    +0.000 A 
ATOM     31  N   UNL     1       1.582  -0.071  -8.598  0.00  0.00    +0.000 NA
ATOM     32  N   UNL     1       2.833   0.062  -9.018  0.00  0.00    +0.000 NA
ENDBRANCH  27  28
ENDBRANCH  19  22
ENDBRANCH  17  18
ENDBRANCH   6  17
TORSDOF 7
