REMARK  Name = 
REMARK  8 active torsions:
REMARK  status: ('A' for Active; 'I' for Inactive)
REMARK    1  A    between atoms: C_1  and  C_2
REMARK    2  A    between atoms: C_4  and  C_5
REMARK    3  A    between atoms: N_7  and  C_8
REMARK    4  A    between atoms: C_8  and  C_9
REMARK    5  A    between atoms: C_11  and  O_12
REMARK    6  A    between atoms: O_12  and  C_13
REMARK    7  A    between atoms: N_28  and  C_29
REMARK    8  A    between atoms: N_32  and  C_33
REMARK                            x       y       z     vdW  Elec       q    Type
REMARK                         _______ _______ _______ _____ _____    ______ ____
ROOT
ATOM      1  C   UNL     1       5.288  -2.392  -0.033  0.00  0.00    +0.000 C 
ATOM      2  O   UNL     1       6.515  -2.377  -0.045  0.00  0.00    +0.000 OA
ATOM      3  N   UNL     1       4.549  -3.551  -0.010  0.00  0.00    +0.000 N 
ATOM      4  H   UNL     1       3.540  -3.481   0.059  0.00  0.00    +0.000 HD
ENDROOT
BRANCH   1   8
ATOM      5  C   UNL     1       5.284   2.573  -0.081  0.00  0.00    +0.000 C 
ATOM      6  C   UNL     1       4.498   1.290  -0.077  0.00  0.00    +0.000 A 
ATOM      7  C   UNL     1       5.210   0.087  -0.048  0.00  0.00    +0.000 A 
ATOM      8  C   UNL     1       4.509  -1.111  -0.047  0.00  0.00    +0.000 A 
ATOM      9  N   UNL     1       3.152  -1.186  -0.071  0.00  0.00    +0.000 NA
ATOM     10  C   UNL     1       2.459  -0.011  -0.101  0.00  0.00    +0.000 A 
ATOM     11  C   UNL     1       3.088   1.234  -0.105  0.00  0.00    +0.000 A 
ATOM     12  C   UNL     1       2.243   2.447  -0.146  0.00  0.00    +0.000 A 
ATOM     13  O   UNL     1       2.762   3.560  -0.155  0.00  0.00    +0.000 OA
ATOM     14  N   UNL     1       0.871   2.263  -0.175  0.00  0.00    +0.000 N 
ATOM     15  C   UNL     1       0.017   3.440  -0.216  0.00  0.00    +0.000 C 
ATOM     16  C   UNL     1       0.235   1.032  -0.171  0.00  0.00    +0.000 A 
ATOM     17  O   UNL     1      -0.995   0.949  -0.199  0.00  0.00    +0.000 OA
ATOM     18  N   UNL     1       1.048  -0.085  -0.133  0.00  0.00    +0.000 N 
ATOM     19  C   UNL     1       0.440  -1.407  -0.128  0.00  0.00    +0.000 C 
ENDBRANCH   1   8
BRANCH   3  20
ATOM     20  C   UNL     1       5.174  -4.857  -0.008  0.00  0.00    +0.000 C 
BRANCH  20  21
ATOM     21  C   UNL     1       5.484  -5.380   1.377  0.00  0.00    +0.000 A 
ATOM     22  C   UNL     1       6.653  -4.987   2.023  0.00  0.00    +0.000 A 
ATOM     23  C   UNL     1       6.999  -5.606   3.221  0.00  0.00    +0.000 A 
ATOM     24  C   UNL     1       6.123  -6.518   3.797  0.00  0.00    +0.000 A 
ATOM     25  C   UNL     1       4.952  -6.809   3.121  0.00  0.00    +0.000 A 
ATOM     26  N   UNL     1       4.620  -6.275   1.923  0.00  0.00    +0.000 NA
BRANCH  23  27
ATOM     27  O   UNL     1       8.151  -5.335   3.924  0.00  0.00    +0.000 OA
BRANCH  27  28
ATOM     28  C   UNL     1       9.324  -5.077   3.247  0.00  0.00    +0.000 A 
ATOM     29  C   UNL     1      10.233  -4.239   3.902  0.00  0.00    +0.000 A 
ATOM     30  C   UNL     1      11.463  -3.931   3.313  0.00  0.00    +0.000 A 
ATOM     31  C   UNL     1      11.784  -4.457   2.064  0.00  0.00    +0.000 A 
ATOM     32  C   UNL     1      10.883  -5.304   1.427  0.00  0.00    +0.000 A 
ATOM     33  F   UNL     1      11.190  -5.807   0.224  0.00  0.00    +0.000 F 
ATOM     34  C   UNL     1       9.670  -5.641   2.017  0.00  0.00    +0.000 A 
ENDBRANCH  27  28
ENDBRANCH  23  27
ENDBRANCH  20  21
ENDBRANCH   3  20
TORSDOF 5
