REMARK  Name = 
REMARK  7 active torsions:
REMARK  status: ('A' for Active; 'I' for Inactive)
REMARK    1  A    between atoms: C_1  and  C_2
REMARK    2  A    between atoms: N_4  and  C_5
REMARK    3  A    between atoms: C_13  and  C_14
REMARK    4  A    between atoms: C_14  and  O_16
REMARK    5  A    between atoms: O_16  and  C_17
REMARK    6  A    between atoms: C_17  and  C_18
REMARK    7  A    between atoms: C_21  and  C_22
REMARK                            x       y       z     vdW  Elec       q    Type
REMARK                         _______ _______ _______ _____ _____    ______ ____
ROOT
ATOM      1  C   UNL     1       1.143   0.171   0.056  0.00  0.00    +0.000 C 
ATOM      2  C   UNL     1       2.622   0.051   0.048  0.00  0.00    +0.000 A 
ATOM      3  N   UNL     1       3.383   1.147   0.099  0.00  0.00    +0.000 NA
ATOM      4  N   UNL     1       4.671   0.695   0.013  0.00  0.00    +0.000 N 
ATOM      5  C   UNL     1       4.715  -0.699  -0.026  0.00  0.00    +0.000 A 
ATOM      6  N   UNL     1       5.807  -1.498  -0.067  0.00  0.00    +0.000 NA
ATOM      7  C   UNL     1       5.529  -2.826  -0.089  0.00  0.00    +0.000 A 
ATOM      8  C   UNL     1       4.246  -3.368  -0.085  0.00  0.00    +0.000 A 
ATOM      9  C   UNL     1       3.144  -2.512  -0.048  0.00  0.00    +0.000 A 
ATOM     10  C   UNL     1       3.394  -1.131  -0.008  0.00  0.00    +0.000 A 
ENDROOT
BRANCH   4  11
ATOM     11  C   UNL     1       5.748   1.632  -0.050  0.00  0.00    +0.000 A 
ATOM     12  C   UNL     1       5.477   3.000   0.117  0.00  0.00    +0.000 A 
ATOM     13  C   UNL     1       6.506   3.942   0.031  0.00  0.00    +0.000 A 
ATOM     14  C   UNL     1       7.810   3.529  -0.231  0.00  0.00    +0.000 A 
ATOM     15  C   UNL     1       8.090   2.175  -0.394  0.00  0.00    +0.000 A 
ATOM     16  C   UNL     1       7.066   1.227  -0.299  0.00  0.00    +0.000 A 
ENDBRANCH   4  11
BRANCH   7  17
ATOM     17  C   UNL     1       6.695  -3.768  -0.107  0.00  0.00    +0.000 C 
ATOM     18  O   UNL     1       6.575  -4.983  -0.102  0.00  0.00    +0.000 OA
BRANCH  17  19
ATOM     19  O   UNL     1       7.863  -3.076  -0.116  0.00  0.00    +0.000 OA
BRANCH  19  20
ATOM     20  C   UNL     1       9.076  -3.845  -0.105  0.00  0.00    +0.000 C 
BRANCH  20  21
ATOM     21  C   UNL     1       9.925  -3.510  -1.306  0.00  0.00    +0.000 A 
ATOM     22  C   UNL     1       9.899  -2.245  -1.909  0.00  0.00    +0.000 A 
ATOM     23  C   UNL     1      10.721  -1.958  -3.007  0.00  0.00    +0.000 A 
ATOM     24  C   UNL     1      11.593  -2.930  -3.513  0.00  0.00    +0.000 A 
ATOM     25  C   UNL     1      11.641  -4.186  -2.896  0.00  0.00    +0.000 A 
ATOM     26  C   UNL     1      10.821  -4.459  -1.805  0.00  0.00    +0.000 A 
ATOM     27  F   UNL     1      10.905  -5.664  -1.225  0.00  0.00    +0.000 F 
BRANCH  24  28
ATOM     28  C   UNL     1      12.489  -2.700  -4.683  0.00  0.00    +0.000 C 
ATOM     29  N   UNL     1      12.455  -1.486  -5.310  0.00  0.00    +0.000 N 
ATOM     30  O   UNL     1      13.246  -3.574  -5.088  0.00  0.00    +0.000 OA
ATOM     31  H   UNL     1      11.852  -0.717  -5.070  0.00  0.00    +0.000 HD
ATOM     32  H   UNL     1      13.067  -1.374  -6.109  0.00  0.00    +0.000 HD
ENDBRANCH  24  28
ENDBRANCH  20  21
ENDBRANCH  19  20
ENDBRANCH  17  19
ENDBRANCH   7  17
TORSDOF 6
