REMARK  Name = 
REMARK  8 active torsions:
REMARK  status: ('A' for Active; 'I' for Inactive)
REMARK    1  A    between atoms: C_1  and  N_2
REMARK    2  A    between atoms: N_2  and  C_26
REMARK    3  A    between atoms: C_3  and  C_5
REMARK    4  A    between atoms: C_5  and  C_6
REMARK    5  A    between atoms: C_9  and  N_10
REMARK    6  A    between atoms: C_11  and  C_13
REMARK    7  A    between atoms: C_14  and  N_15
REMARK    8  A    between atoms: C_19  and  C_20
REMARK                            x       y       z     vdW  Elec       q    Type
REMARK                         _______ _______ _______ _____ _____    ______ ____
ROOT
ATOM      1  C   UNL     1       3.443  -3.446  -1.024  0.00  0.00    +0.000 A 
ATOM      2  C   UNL     1       4.741  -3.075  -1.375  0.00  0.00    +0.000 A 
ATOM      3  C   UNL     1       5.721  -4.042  -1.613  0.00  0.00    +0.000 A 
ATOM      4  C   UNL     1       5.421  -5.399  -1.513  0.00  0.00    +0.000 A 
ATOM      5  C   UNL     1       4.117  -5.779  -1.170  0.00  0.00    +0.000 A 
ATOM      6  C   UNL     1       3.137  -4.810  -0.925  0.00  0.00    +0.000 A 
ENDROOT
BRANCH   4   7
ATOM      7  N   UNL     1       6.380  -6.410  -1.737  0.00  0.00    +0.000 N 
ATOM      8  C   UNL     1       7.631  -6.233  -2.305  0.00  0.00    +0.000 C 
ATOM      9  O   UNL     1       8.105  -5.191  -2.743  0.00  0.00    +0.000 OA
ATOM     10  H   UNL     1       6.079  -7.371  -1.583  0.00  0.00    +0.000 HD
BRANCH   8  11
ATOM     11  C   UNL     1       8.453  -7.445  -2.502  0.00  0.00    +0.000 A 
ATOM     12  C   UNL     1       7.864  -8.614  -3.003  0.00  0.00    +0.000 A 
ATOM     13  N   UNL     1       8.582  -9.689  -3.380  0.00  0.00    +0.000 NA
ATOM     14  C   UNL     1       9.925  -9.605  -3.303  0.00  0.00    +0.000 A 
ATOM     15  C   UNL     1      10.593  -8.507  -2.800  0.00  0.00    +0.000 A 
ATOM     16  C   UNL     1       9.851  -7.400  -2.358  0.00  0.00    +0.000 A 
BRANCH  16  17
ATOM     17  C   UNL     1      10.616  -6.246  -1.760  0.00  0.00    +0.000 C 
ATOM     18  F   UNL     1       9.903  -5.336  -1.051  0.00  0.00    +0.000 F 
ATOM     19  F   UNL     1      11.549  -6.706  -0.868  0.00  0.00    +0.000 F 
ATOM     20  F   UNL     1      11.334  -5.559  -2.691  0.00  0.00    +0.000 F 
ENDBRANCH  16  17
BRANCH  12  21
ATOM     21  N   UNL     1       6.481  -8.777  -3.133  0.00  0.00    +0.000 N 
ATOM     22  H   UNL     1       6.076  -8.040  -3.709  0.00  0.00    +0.000 HD
ATOM     23  H   UNL     1       6.341  -9.689  -3.569  0.00  0.00    +0.000 HD
ENDBRANCH  12  21
ENDBRANCH   8  11
ENDBRANCH   4   7
BRANCH   1  24
ATOM     24  C   UNL     1       2.424  -2.382  -0.685  0.00  0.00    +0.000 C 
BRANCH  24  27
ATOM     25  C   UNL     1       0.528  -0.256  -0.262  0.00  0.00    +0.000 C 
ATOM     26  N   UNL     1       0.354  -1.206  -1.365  0.00  0.00    +0.000 N 
ATOM     27  C   UNL     1       1.180  -2.329  -1.569  0.00  0.00    +0.000 C 
ATOM     28  O   UNL     1       0.969  -3.187  -2.428  0.00  0.00    +0.000 OA
BRANCH  26  29
ATOM     29  C   UNL     1      -0.690  -0.899  -2.293  0.00  0.00    +0.000 A 
ATOM     30  C   UNL     1      -1.555  -1.889  -2.773  0.00  0.00    +0.000 A 
ATOM     31  C   UNL     1      -2.579  -1.565  -3.667  0.00  0.00    +0.000 A 
ATOM     32  C   UNL     1      -2.729  -0.255  -4.116  0.00  0.00    +0.000 A 
ATOM     33  C   UNL     1      -1.865   0.736  -3.660  0.00  0.00    +0.000 A 
ATOM     34  C   UNL     1      -0.864   0.419  -2.741  0.00  0.00    +0.000 A 
ENDBRANCH  26  29
ENDBRANCH  24  27
ENDBRANCH   1  24
TORSDOF 7
