REMARK  Name = 
REMARK  5 active torsions:
REMARK  status: ('A' for Active; 'I' for Inactive)
REMARK    1  A    between atoms: C_2  and  C_4
REMARK    2  A    between atoms: C_7  and  C_8
REMARK    3  A    between atoms: C_8  and  C_9
REMARK    4  A    between atoms: C_12  and  C_13
REMARK    5  A    between atoms: C_15  and  C_16
REMARK                            x       y       z     vdW  Elec       q    Type
REMARK                         _______ _______ _______ _____ _____    ______ ____
ROOT
ATOM      1  C   UNL     1       5.297  -5.317   2.477  0.00  0.00    +0.000 A 
ATOM      2  N   UNL     1       4.681  -5.860   3.538  0.00  0.00    +0.000 NA
ATOM      3  O   UNL     1       4.159  -7.051   3.033  0.00  0.00    +0.000 OA
ATOM      4  C   UNL     1       4.488  -7.101   1.702  0.00  0.00    +0.000 A 
ATOM      5  N   UNL     1       5.196  -6.055   1.321  0.00  0.00    +0.000 NA
ENDROOT
BRANCH   4   6
ATOM      6  C   UNL     1       4.085  -8.155   0.832  0.00  0.00    +0.000 A 
ATOM      7  C   UNL     1       4.378  -8.328  -0.502  0.00  0.00    +0.000 A 
ATOM      8  C   UNL     1       3.763  -9.549  -0.878  0.00  0.00    +0.000 A 
ATOM      9  N   UNL     1       3.096 -10.063   0.166  0.00  0.00    +0.000 NA
ATOM     10  O   UNL     1       3.300  -9.199   1.223  0.00  0.00    +0.000 OA
BRANCH   8  11
ATOM     11  C   UNL     1       3.834 -10.223  -2.169  0.00  0.00    +0.000 A 
ATOM     12  C   UNL     1       4.982 -10.109  -2.962  0.00  0.00    +0.000 A 
ATOM     13  F   UNL     1       6.032  -9.384  -2.550  0.00  0.00    +0.000 F 
ATOM     14  C   UNL     1       5.087 -10.750  -4.195  0.00  0.00    +0.000 A 
ATOM     15  C   UNL     1       4.024 -11.518  -4.645  0.00  0.00    +0.000 A 
ATOM     16  F   UNL     1       4.117 -12.134  -5.830  0.00  0.00    +0.000 F 
ATOM     17  C   UNL     1       2.870 -11.652  -3.889  0.00  0.00    +0.000 A 
ATOM     18  C   UNL     1       2.781 -11.005  -2.658  0.00  0.00    +0.000 A 
ATOM     19  F   UNL     1       1.639 -11.135  -1.968  0.00  0.00    +0.000 F 
ENDBRANCH   8  11
ENDBRANCH   4   6
BRANCH   1  20
ATOM     20  C   UNL     1       5.871  -3.946   2.501  0.00  0.00    +0.000 C 
BRANCH  20  24
ATOM     21  C   UNL     1       9.967  -4.216   3.883  0.00  0.00    +0.000 A 
ATOM     22  C   UNL     1       9.691  -4.264   2.511  0.00  0.00    +0.000 A 
ATOM     23  C   UNL     1       8.368  -4.181   2.055  0.00  0.00    +0.000 A 
ATOM     24  C   UNL     1       7.306  -4.051   2.966  0.00  0.00    +0.000 A 
ATOM     25  C   UNL     1       7.597  -3.997   4.337  0.00  0.00    +0.000 A 
ATOM     26  C   UNL     1       8.914  -4.084   4.793  0.00  0.00    +0.000 A 
BRANCH  21  28
ATOM     27  N   UNL     1      12.375  -3.927   3.624  0.00  0.00    +0.000 N 
ATOM     28  C   UNL     1      11.346  -4.348   4.421  0.00  0.00    +0.000 C 
ATOM     29  O   UNL     1      11.562  -4.784   5.545  0.00  0.00    +0.000 OA
ATOM     30  H   UNL     1      13.296  -3.937   4.045  0.00  0.00    +0.000 HD
ATOM     31  H   UNL     1      12.230  -3.330   2.822  0.00  0.00    +0.000 HD
ENDBRANCH  21  28
ENDBRANCH  20  24
ENDBRANCH   1  20
TORSDOF 5
