REMARK  Name = 
REMARK  7 active torsions:
REMARK  status: ('A' for Active; 'I' for Inactive)
REMARK    1  A    between atoms: C_1  and  N_2
REMARK    2  A    between atoms: C_3  and  C_4
REMARK    3  A    between atoms: N_6  and  C_7
REMARK    4  A    between atoms: C_10  and  O_11
REMARK    5  A    between atoms: O_11  and  C_12
REMARK    6  A    between atoms: C_14  and  C_15
REMARK    7  A    between atoms: C_25  and  O_26
REMARK                            x       y       z     vdW  Elec       q    Type
REMARK                         _______ _______ _______ _____ _____    ______ ____
ROOT
ATOM      1  C   UNL     1       0.893   4.261   0.004  0.00  0.00    +0.000 A 
ATOM      2  C   UNL     1      -0.180   4.612   0.813  0.00  0.00    +0.000 A 
ATOM      3  C   UNL     1      -0.587   5.947   0.846  0.00  0.00    +0.000 A 
ATOM      4  C   UNL     1       0.048   6.878   0.030  0.00  0.00    +0.000 A 
ATOM      5  C   UNL     1       1.145   6.444  -0.703  0.00  0.00    +0.000 A 
ATOM      6  N   UNL     1       1.600   5.165  -0.705  0.00  0.00    +0.000 NA
ENDROOT
BRANCH   1   9
ATOM      7  C   UNL     1       0.563   1.834  -0.161  0.00  0.00    +0.000 C 
ATOM      8  O   UNL     1      -0.659   1.863  -0.256  0.00  0.00    +0.000 OA
ATOM      9  N   UNL     1       1.365   2.952  -0.074  0.00  0.00    +0.000 N 
ATOM     10  H   UNL     1       2.293   2.879  -0.466  0.00  0.00    +0.000 HD
BRANCH   7  13
ATOM     11  C   UNL     1       0.024  -0.712  -1.906  0.00  0.00    +0.000 C 
ATOM     12  N   UNL     1       1.065  -0.543  -0.912  0.00  0.00    +0.000 N 
ATOM     13  C   UNL     1       1.327   0.595  -0.172  0.00  0.00    +0.000 A 
ATOM     14  C   UNL     1       2.438   0.306   0.607  0.00  0.00    +0.000 A 
ATOM     15  C   UNL     1       2.855  -1.023   0.346  0.00  0.00    +0.000 A 
ATOM     16  C   UNL     1       3.882  -1.852   0.840  0.00  0.00    +0.000 A 
ATOM     17  C   UNL     1       4.036  -3.150   0.355  0.00  0.00    +0.000 A 
ATOM     18  C   UNL     1       3.170  -3.638  -0.620  0.00  0.00    +0.000 A 
ATOM     19  C   UNL     1       2.131  -2.844  -1.121  0.00  0.00    +0.000 A 
ATOM     20  C   UNL     1       1.987  -1.536  -0.619  0.00  0.00    +0.000 A 
BRANCH  16  21
ATOM     21  O   UNL     1       4.769  -1.435   1.807  0.00  0.00    +0.000 OA
ATOM     22  H   UNL     1       4.510  -0.537   2.068  0.00  0.00    +0.000 HD
ENDBRANCH  16  21
ENDBRANCH   7  13
ENDBRANCH   1   9
BRANCH   4  23
ATOM     23  O   UNL     1      -0.408   8.169   0.079  0.00  0.00    +0.000 OA
BRANCH  23  24
ATOM     24  C   UNL     1      -0.490   8.910  -1.078  0.00  0.00    +0.000 A 
ATOM     25  C   UNL     1      -0.709   8.378  -2.349  0.00  0.00    +0.000 A 
ATOM     26  C   UNL     1      -0.772   9.220  -3.468  0.00  0.00    +0.000 A 
ATOM     27  C   UNL     1      -0.644  10.608  -3.307  0.00  0.00    +0.000 A 
ATOM     28  C   UNL     1      -0.476  11.143  -2.029  0.00  0.00    +0.000 A 
ATOM     29  C   UNL     1      -0.403  10.297  -0.920  0.00  0.00    +0.000 A 
BRANCH  26  30
ATOM     30  C   UNL     1      -0.931   8.584  -4.804  0.00  0.00    +0.000 C 
ATOM     31  N   UNL     1      -1.514   9.330  -5.790  0.00  0.00    +0.000 N 
ATOM     32  O   UNL     1      -0.583   7.432  -5.008  0.00  0.00    +0.000 OA
ATOM     33  H   UNL     1      -2.026  10.184  -5.601  0.00  0.00    +0.000 HD
ATOM     34  H   UNL     1      -1.712   8.844  -6.656  0.00  0.00    +0.000 HD
ENDBRANCH  26  30
ENDBRANCH  23  24
ENDBRANCH   4  23
TORSDOF 6
