REMARK  Name = 
REMARK  5 active torsions:
REMARK  status: ('A' for Active; 'I' for Inactive)
REMARK    1  A    between atoms: C_1  and  O_2
REMARK    2  A    between atoms: O_2  and  C_3
REMARK    3  A    between atoms: C_8  and  C_9
REMARK    4  A    between atoms: N_11  and  C_12
REMARK    5  A    between atoms: N_14  and  C_15
REMARK                            x       y       z     vdW  Elec       q    Type
REMARK                         _______ _______ _______ _____ _____    ______ ____
ROOT
ATOM      1  C   UNL     1       5.546   3.191   6.356  0.00  0.00    +0.000 C 
ATOM      2  O   UNL     1       6.335   4.029   5.935  0.00  0.00    +0.000 OA
ATOM      3  N   UNL     1       5.287   2.916   7.688  0.00  0.00    +0.000 N 
ATOM      4  H   UNL     1       4.773   2.067   7.896  0.00  0.00    +0.000 HD
ENDROOT
BRANCH   1  10
ATOM      5  C   UNL     1       3.822  -0.120   1.164  0.00  0.00    +0.000 A 
ATOM      6  C   UNL     1       5.148   0.231   1.000  0.00  0.00    +0.000 A 
ATOM      7  C   UNL     1       5.764   0.946   2.017  0.00  0.00    +0.000 A 
ATOM      8  C   UNL     1       5.032   1.278   3.163  0.00  0.00    +0.000 A 
ATOM      9  C   UNL     1       5.620   2.007   4.203  0.00  0.00    +0.000 A 
ATOM     10  C   UNL     1       4.879   2.341   5.343  0.00  0.00    +0.000 A 
ATOM     11  C   UNL     1       3.547   1.949   5.442  0.00  0.00    +0.000 A 
ATOM     12  C   UNL     1       2.968   1.225   4.388  0.00  0.00    +0.000 A 
ATOM     13  C   UNL     1       3.683   0.878   3.242  0.00  0.00    +0.000 A 
ATOM     14  N   UNL     1       3.084   0.189   2.255  0.00  0.00    +0.000 NA
BRANCH   5  16
ATOM     15  C   UNL     1       1.887  -1.135   0.321  0.00  0.00    +0.000 C 
ATOM     16  O   UNL     1       3.266  -0.847   0.129  0.00  0.00    +0.000 OA
ENDBRANCH   5  16
ENDBRANCH   1  10
BRANCH   3  17
ATOM     17  C   UNL     1       5.894   3.560   8.755  0.00  0.00    +0.000 A 
ATOM     18  C   UNL     1       6.499   4.758   8.669  0.00  0.00    +0.000 A 
ATOM     19  N   UNL     1       7.174   5.356   9.731  0.00  0.00    +0.000 N 
ATOM     20  C   UNL     1       7.263   4.713  10.976  0.00  0.00    +0.000 A 
ATOM     21  O   UNL     1       7.891   5.095  11.962  0.00  0.00    +0.000 OA
ATOM     22  C   UNL     1       6.557   3.403  11.079  0.00  0.00    +0.000 A 
ATOM     23  C   UNL     1       5.904   2.882  10.033  0.00  0.00    +0.000 A 
BRANCH  19  24
ATOM     24  C   UNL     1       7.886   6.586   9.525  0.00  0.00    +0.000 A 
ATOM     25  C   UNL     1       8.614   6.791   8.341  0.00  0.00    +0.000 A 
ATOM     26  C   UNL     1       9.353   7.961   8.149  0.00  0.00    +0.000 A 
ATOM     27  C   UNL     1       9.339   8.959   9.120  0.00  0.00    +0.000 A 
ATOM     28  C   UNL     1       8.591   8.785  10.283  0.00  0.00    +0.000 A 
ATOM     29  C   UNL     1       7.879   7.600  10.490  0.00  0.00    +0.000 A 
ENDBRANCH  19  24
ENDBRANCH   3  17
TORSDOF 4
