REMARK  Name = 
REMARK  5 active torsions:
REMARK  status: ('A' for Active; 'I' for Inactive)
REMARK    1  A    between atoms: C_1  and  C_2
REMARK    2  A    between atoms: C_4  and  C_5
REMARK    3  A    between atoms: C_5  and  N_6
REMARK    4  A    between atoms: C_8  and  C_9
REMARK    5  A    between atoms: N_22  and  C_23
REMARK                            x       y       z     vdW  Elec       q    Type
REMARK                         _______ _______ _______ _____ _____    ______ ____
ROOT
ATOM      1  N   UNL     1       5.370   2.848   0.125  0.00  0.00    +0.000 N 
ATOM      2  N   UNL     1       4.576   3.343   1.152  0.00  0.00    +0.000 NA
ATOM      3  C   UNL     1       4.214   4.588   1.106  0.00  0.00    +0.000 A 
ATOM      4  C   UNL     1       4.617   5.512   0.018  0.00  0.00    +0.000 A 
ATOM      5  C   UNL     1       5.415   5.028  -0.934  0.00  0.00    +0.000 A 
ATOM      6  C   UNL     1       5.874   3.627  -0.904  0.00  0.00    +0.000 A 
ATOM      7  O   UNL     1       6.666   3.255  -1.766  0.00  0.00    +0.000 OA
ENDROOT
BRANCH   3   8
ATOM      8  C   UNL     1       3.383   5.157   2.200  0.00  0.00    +0.000 A 
ATOM      9  C   UNL     1       3.570   4.727   3.517  0.00  0.00    +0.000 A 
ATOM     10  F   UNL     1       4.470   3.781   3.821  0.00  0.00    +0.000 F 
ATOM     11  C   UNL     1       2.853   5.298   4.573  0.00  0.00    +0.000 A 
ATOM     12  C   UNL     1       1.930   6.311   4.326  0.00  0.00    +0.000 A 
ATOM     13  C   UNL     1       1.706   6.726   3.016  0.00  0.00    +0.000 A 
ATOM     14  C   UNL     1       2.420   6.141   1.967  0.00  0.00    +0.000 A 
ATOM     15  F   UNL     1       2.135   6.556   0.724  0.00  0.00    +0.000 F 
ENDBRANCH   3   8
BRANCH   1  16
ATOM     16  C   UNL     1       5.722   1.430   0.179  0.00  0.00    +0.000 C 
BRANCH  16  20
ATOM     17  C   UNL     1       1.672  -1.468   1.244  0.00  0.00    +0.000 C 
ATOM     18  C   UNL     1       2.677  -0.598   0.587  0.00  0.00    +0.000 A 
ATOM     19  C   UNL     1       3.691   0.136   1.163  0.00  0.00    +0.000 A 
ATOM     20  C   UNL     1       4.485   0.590   0.090  0.00  0.00    +0.000 A 
ATOM     21  N   UNL     1       4.024   0.131  -1.082  0.00  0.00    +0.000 NA
ATOM     22  N   UNL     1       2.830  -0.447  -0.785  0.00  0.00    +0.000 N 
BRANCH  22  23
ATOM     23  C   UNL     1       1.938  -0.801  -1.835  0.00  0.00    +0.000 A 
ATOM     24  C   UNL     1       2.457  -1.129  -3.095  0.00  0.00    +0.000 A 
ATOM     25  C   UNL     1       1.596  -1.479  -4.137  0.00  0.00    +0.000 A 
ATOM     26  C   UNL     1       0.215  -1.463  -3.940  0.00  0.00    +0.000 A 
ATOM     27  C   UNL     1      -0.307  -1.099  -2.700  0.00  0.00    +0.000 A 
ATOM     28  C   UNL     1       0.550  -0.773  -1.647  0.00  0.00    +0.000 A 
ENDBRANCH  22  23
ENDBRANCH  16  20
ENDBRANCH   1  16
TORSDOF 4
