REMARK  Name = 
REMARK  6 active torsions:
REMARK  status: ('A' for Active; 'I' for Inactive)
REMARK    1  A    between atoms: C_2  and  C_19
REMARK    2  A    between atoms: N_3  and  C_4
REMARK    3  A    between atoms: C_4  and  C_5
REMARK    4  A    between atoms: C_9  and  O_10
REMARK    5  A    between atoms: O_10  and  C_11
REMARK    6  A    between atoms: C_22  and  C_23
REMARK                            x       y       z     vdW  Elec       q    Type
REMARK                         _______ _______ _______ _____ _____    ______ ____
ROOT
ATOM      1  O   UNL     1       1.248  -0.081   1.134  0.00  0.00    +0.000 OA
ATOM      2  C   UNL     1       2.357  -0.059   0.616  0.00  0.00    +0.000 C 
ATOM      3  N   UNL     1       2.988   1.096   0.206  0.00  0.00    +0.000 N 
ATOM      4  H   UNL     1       3.758   1.029  -0.446  0.00  0.00    +0.000 HD
ENDROOT
BRANCH   2   5
ATOM      5  C   UNL     1       3.095  -1.326   0.366  0.00  0.00    +0.000 A 
ATOM      6  C   UNL     1       2.369  -2.502   0.157  0.00  0.00    +0.000 A 
ATOM      7  C   UNL     1       3.039  -3.707  -0.086  0.00  0.00    +0.000 A 
ATOM      8  C   UNL     1       4.441  -3.761  -0.109  0.00  0.00    +0.000 A 
ATOM      9  C   UNL     1       5.159  -2.575   0.127  0.00  0.00    +0.000 A 
ATOM     10  C   UNL     1       4.493  -1.368   0.366  0.00  0.00    +0.000 A 
BRANCH   8  11
ATOM     11  C   UNL     1       5.118  -5.027  -0.370  0.00  0.00    +0.000 A 
ATOM     12  N   UNL     1       4.617  -6.213  -0.639  0.00  0.00    +0.000 NA
ATOM     13  C   UNL     1       5.744  -6.970  -0.790  0.00  0.00    +0.000 A 
ATOM     14  N   UNL     1       6.900  -6.322  -0.630  0.00  0.00    +0.000 NA
ATOM     15  O   UNL     1       6.486  -5.017  -0.347  0.00  0.00    +0.000 OA
ENDBRANCH   8  11
ENDBRANCH   2   5
BRANCH   3  16
ATOM     16  C   UNL     1       2.334   2.377   0.328  0.00  0.00    +0.000 C 
BRANCH  16  17
ATOM     17  C   UNL     1       3.335   3.495   0.440  0.00  0.00    +0.000 A 
ATOM     18  C   UNL     1       3.320   4.563  -0.464  0.00  0.00    +0.000 A 
ATOM     19  C   UNL     1       4.212   5.605  -0.279  0.00  0.00    +0.000 A 
ATOM     20  N   UNL     1       5.120   5.649   0.715  0.00  0.00    +0.000 NA
ATOM     21  C   UNL     1       5.177   4.574   1.532  0.00  0.00    +0.000 A 
ATOM     22  C   UNL     1       4.289   3.509   1.465  0.00  0.00    +0.000 A 
BRANCH  21  23
ATOM     23  O   UNL     1       6.165   4.508   2.507  0.00  0.00    +0.000 OA
BRANCH  23  24
ATOM     24  C   UNL     1       7.365   5.130   2.238  0.00  0.00    +0.000 A 
ATOM     25  C   UNL     1       8.013   5.729   3.323  0.00  0.00    +0.000 A 
ATOM     26  C   UNL     1       9.248   6.361   3.143  0.00  0.00    +0.000 A 
ATOM     27  C   UNL     1       9.838   6.401   1.879  0.00  0.00    +0.000 A 
ATOM     28  C   UNL     1       9.209   5.784   0.800  0.00  0.00    +0.000 A 
ATOM     29  C   UNL     1       7.994   5.129   0.988  0.00  0.00    +0.000 A 
ATOM     30  F   UNL     1       7.471   4.468  -0.056  0.00  0.00    +0.000 F 
ENDBRANCH  23  24
ENDBRANCH  21  23
ENDBRANCH  16  17
ENDBRANCH   3  16
TORSDOF 6
