REMARK  Name = 
REMARK  12 active torsions:
REMARK  status: ('A' for Active; 'I' for Inactive)
REMARK    1  A    between atoms: C_1  and  O_2
REMARK    2  A    between atoms: O_2  and  C_3
REMARK    3  A    between atoms: C_8  and  O_9
REMARK    4  A    between atoms: O_9  and  C_10
REMARK    5  A    between atoms: C_12  and  C_13
REMARK    6  A    between atoms: C_13  and  O_14
REMARK    7  A    between atoms: O_14  and  C_15
REMARK    8  A    between atoms: C_15  and  C_17
REMARK    9  A    between atoms: C_17  and  O_18
REMARK   10  A    between atoms: O_18  and  C_19
REMARK   11  A    between atoms: C_23  and  O_24
REMARK   12  A    between atoms: O_24  and  C_25
REMARK                            x       y       z     vdW  Elec       q    Type
REMARK                         _______ _______ _______ _____ _____    ______ ____
ROOT
ATOM      1  C   UNL     1       7.327   4.218  -6.944  0.00  0.00    +0.000 C 
ATOM      2  O   UNL     1       8.001   3.370  -7.520  0.00  0.00    +0.000 OA
ENDROOT
BRANCH   1   3
ATOM      3  C   UNL     1       7.212   5.670  -7.387  0.00  0.00    +0.000 C 
BRANCH   3   4
ATOM      4  O   UNL     1       8.106   6.577  -6.756  0.00  0.00    +0.000 OA
BRANCH   4   5
ATOM      5  C   UNL     1       9.334   6.752  -7.341  0.00  0.00    +0.000 A 
ATOM      6  C   UNL     1      10.018   5.774  -8.069  0.00  0.00    +0.000 A 
ATOM      7  C   UNL     1      11.302   6.018  -8.551  0.00  0.00    +0.000 A 
ATOM      8  C   UNL     1      11.897   7.255  -8.344  0.00  0.00    +0.000 A 
ATOM      9  C   UNL     1      11.192   8.270  -7.690  0.00  0.00    +0.000 A 
ATOM     10  C   UNL     1       9.934   8.000  -7.144  0.00  0.00    +0.000 A 
BRANCH   9  11
ATOM     11  O   UNL     1      11.712   9.533  -7.505  0.00  0.00    +0.000 OA
BRANCH  11  12
ATOM     12  C   UNL     1      12.410  10.103  -8.570  0.00  0.00    +0.000 A 
ATOM     13  C   UNL     1      13.345  11.076  -8.253  0.00  0.00    +0.000 A 
ATOM     14  C   UNL     1      14.082  11.646  -9.290  0.00  0.00    +0.000 A 
ATOM     15  C   UNL     1      13.858  11.228 -10.598  0.00  0.00    +0.000 A 
ATOM     16  C   UNL     1      12.889  10.265 -10.820  0.00  0.00    +0.000 A 
ATOM     17  N   UNL     1      12.150   9.707  -9.839  0.00  0.00    +0.000 NA
ENDBRANCH  11  12
ENDBRANCH   9  11
ENDBRANCH   4   5
ENDBRANCH   3   4
ENDBRANCH   1   3
BRANCH   1  18
ATOM     18  O   UNL     1       6.630   3.978  -5.802  0.00  0.00    +0.000 OA
BRANCH  18  19
ATOM     19  C   UNL     1       6.708   2.621  -5.332  0.00  0.00    +0.000 C 
BRANCH  19  27
ATOM     20  C   UNL     1      11.096   2.146  -1.280  0.00  0.00    +0.000 A 
ATOM     21  C   UNL     1       9.722   1.943  -1.497  0.00  0.00    +0.000 A 
ATOM     22  C   UNL     1       9.186   2.179  -2.766  0.00  0.00    +0.000 A 
ATOM     23  C   UNL     1      10.026   2.553  -3.803  0.00  0.00    +0.000 A 
ATOM     24  C   UNL     1      11.405   2.699  -3.644  0.00  0.00    +0.000 A 
ATOM     25  C   UNL     1      11.938   2.472  -2.360  0.00  0.00    +0.000 A 
ATOM     26  N   UNL     1       9.186   2.711  -4.873  0.00  0.00    +0.000 N 
ATOM     27  C   UNL     1       7.895   2.485  -4.444  0.00  0.00    +0.000 A 
ATOM     28  N   UNL     1       7.882   2.121  -3.177  0.00  0.00    +0.000 NA
ATOM     29  H   UNL     1       9.452   2.986  -5.810  0.00  0.00    +0.000 HD
BRANCH  20  31
ATOM     30  C   UNL     1      10.742   2.377   1.045  0.00  0.00    +0.000 C 
ATOM     31  O   UNL     1      11.635   2.046  -0.019  0.00  0.00    +0.000 OA
ENDBRANCH  20  31
BRANCH  25  32
ATOM     32  O   UNL     1      13.297   2.676  -2.311  0.00  0.00    +0.000 OA
ATOM     33  C   UNL     1      14.026   1.912  -1.359  0.00  0.00    +0.000 C 
ENDBRANCH  25  32
ENDBRANCH  19  27
ENDBRANCH  18  19
ENDBRANCH   1  18
TORSDOF 10
