REMARK  Name = 
REMARK  4 active torsions:
REMARK  status: ('A' for Active; 'I' for Inactive)
REMARK    1  A    between atoms: C_2  and  C_16
REMARK    2  A    between atoms: N_3  and  C_4
REMARK    3  A    between atoms: C_9  and  C_10
REMARK    4  A    between atoms: N_18  and  C_19
REMARK                            x       y       z     vdW  Elec       q    Type
REMARK                         _______ _______ _______ _____ _____    ______ ____
ROOT
ATOM      1  O   UNL     1       0.874   0.197  -0.148  0.00  0.00    +0.000 OA
ATOM      2  C   UNL     1       2.087   0.082  -0.042  0.00  0.00    +0.000 C 
ATOM      3  N   UNL     1       2.780  -0.987   0.516  0.00  0.00    +0.000 N 
ATOM      4  H   UNL     1       3.748  -0.812   0.765  0.00  0.00    +0.000 HD
ENDROOT
BRANCH   3   5
ATOM      5  C   UNL     1       2.163  -2.176   0.977  0.00  0.00    +0.000 A 
ATOM      6  C   UNL     1       0.889  -2.571   0.532  0.00  0.00    +0.000 A 
ATOM      7  C   UNL     1       0.230  -3.700   1.036  0.00  0.00    +0.000 A 
ATOM      8  C   UNL     1       0.918  -4.404   2.006  0.00  0.00    +0.000 A 
ATOM      9  O   UNL     1       0.480  -5.497   2.686  0.00  0.00    +0.000 OA
ATOM     10  C   UNL     1       1.511  -5.795   3.542  0.00  0.00    +0.000 A 
ATOM     11  N   UNL     1       2.564  -4.993   3.429  0.00  0.00    +0.000 NA
ATOM     12  C   UNL     1       2.188  -4.091   2.457  0.00  0.00    +0.000 A 
ATOM     13  C   UNL     1       2.849  -2.970   1.918  0.00  0.00    +0.000 A 
BRANCH  10  14
ATOM     14  C   UNL     1       1.280  -6.940   4.468  0.00  0.00    +0.000 C 
ATOM     15  F   UNL     1       0.199  -6.726   5.271  0.00  0.00    +0.000 F 
ATOM     16  F   UNL     1       1.021  -8.094   3.790  0.00  0.00    +0.000 F 
ENDBRANCH  10  14
ENDBRANCH   3   5
BRANCH   2  17
ATOM     17  C   UNL     1       2.925   1.270  -0.460  0.00  0.00    +0.000 A 
ATOM     18  N   UNL     1       3.985   1.556   0.252  0.00  0.00    +0.000 NA
ATOM     19  N   UNL     1       4.663   2.719  -0.065  0.00  0.00    +0.000 N 
ATOM     20  C   UNL     1       4.142   3.654  -0.943  0.00  0.00    +0.000 A 
ATOM     21  C   UNL     1       3.082   3.465  -1.728  0.00  0.00    +0.000 A 
ATOM     22  C   UNL     1       2.488   2.130  -1.631  0.00  0.00    +0.000 A 
ATOM     23  O   UNL     1       1.701   1.726  -2.472  0.00  0.00    +0.000 OA
BRANCH  19  24
ATOM     24  C   UNL     1       5.825   2.996   0.726  0.00  0.00    +0.000 A 
ATOM     25  C   UNL     1       6.864   3.820   0.240  0.00  0.00    +0.000 A 
ATOM     26  C   UNL     1       7.976   4.119   1.031  0.00  0.00    +0.000 A 
ATOM     27  C   UNL     1       8.068   3.601   2.311  0.00  0.00    +0.000 A 
ATOM     28  F   UNL     1       9.129   3.898   3.073  0.00  0.00    +0.000 F 
ATOM     29  C   UNL     1       7.073   2.772   2.815  0.00  0.00    +0.000 A 
ATOM     30  C   UNL     1       5.962   2.467   2.023  0.00  0.00    +0.000 A 
ENDBRANCH  19  24
ENDBRANCH   2  17
TORSDOF 4
