REMARK  Name = 
REMARK  8 active torsions:
REMARK  status: ('A' for Active; 'I' for Inactive)
REMARK    1  A    between atoms: C_2  and  C_3
REMARK    2  A    between atoms: C_8  and  C_9
REMARK    3  A    between atoms: C_9  and  S_10
REMARK    4  A    between atoms: S_10  and  N_13
REMARK    5  A    between atoms: N_13  and  C_14
REMARK    6  A    between atoms: C_14  and  C_15
REMARK    7  A    between atoms: C_17  and  O_18
REMARK    8  A    between atoms: O_18  and  C_19
REMARK                            x       y       z     vdW  Elec       q    Type
REMARK                         _______ _______ _______ _____ _____    ______ ____
ROOT
ATOM      1  C   UNL     1       5.449  -6.612  -0.523  0.00  0.00    +0.000 C 
ENDROOT
BRANCH   1   2
ATOM      2  C   UNL     1       6.136  -7.925  -0.830  0.00  0.00    +0.000 A 
ATOM      3  C   UNL     1       7.453  -8.107  -0.435  0.00  0.00    +0.000 A 
ATOM      4  C   UNL     1       8.118  -9.284  -0.762  0.00  0.00    +0.000 A 
ATOM      5  C   UNL     1       7.457 -10.233  -1.526  0.00  0.00    +0.000 A 
ATOM      6  C   UNL     1       6.133  -9.990  -1.856  0.00  0.00    +0.000 A 
ATOM      7  N   UNL     1       5.449  -8.876  -1.503  0.00  0.00    +0.000 NA
BRANCH   4   8
ATOM      8  O   UNL     1       9.425  -9.545  -0.398  0.00  0.00    +0.000 OA
BRANCH   8   9
ATOM      9  C   UNL     1       9.914  -8.948   0.748  0.00  0.00    +0.000 A 
ATOM     10  C   UNL     1       9.125  -8.752   1.893  0.00  0.00    +0.000 A 
ATOM     11  C   UNL     1       9.610  -8.007   2.964  0.00  0.00    +0.000 A 
ATOM     12  C   UNL     1      10.919  -7.548   2.930  0.00  0.00    +0.000 A 
ATOM     13  F   UNL     1      11.382  -6.824   3.958  0.00  0.00    +0.000 F 
ATOM     14  C   UNL     1      11.739  -7.834   1.842  0.00  0.00    +0.000 A 
ATOM     15  F   UNL     1      13.014  -7.418   1.840  0.00  0.00    +0.000 F 
ATOM     16  C   UNL     1      11.244  -8.529   0.741  0.00  0.00    +0.000 A 
ENDBRANCH   8   9
ENDBRANCH   4   8
ENDBRANCH   1   2
BRANCH   1  17
ATOM     17  N   UNL     1       6.323  -5.386  -0.592  0.00  0.00    +0.000 NA
ATOM     18  H   UNL     1       5.753  -4.579  -0.325  0.00  0.00    +0.000 HD
BRANCH  17  19
ATOM     19  S   UNL     1       7.006  -5.124  -2.139  0.00  0.00    +0.000 S 
ATOM     20  O   UNL     1       5.877  -4.883  -3.008  0.00  0.00    +0.000 OA
ATOM     21  O   UNL     1       7.983  -6.148  -2.406  0.00  0.00    +0.000 OA
BRANCH  19  22
ATOM     22  C   UNL     1       7.905  -3.592  -1.889  0.00  0.00    +0.000 C 
BRANCH  22  28
ATOM     23  C   UNL     1      10.154  -3.076  -4.951  0.00  0.00    +0.000 A 
ATOM     24  C   UNL     1       9.322  -2.280  -5.750  0.00  0.00    +0.000 A 
ATOM     25  C   UNL     1       8.045  -1.939  -5.305  0.00  0.00    +0.000 A 
ATOM     26  C   UNL     1       7.613  -2.372  -4.057  0.00  0.00    +0.000 A 
ATOM     27  F   UNL     1       6.390  -2.023  -3.637  0.00  0.00    +0.000 F 
ATOM     28  C   UNL     1       8.430  -3.148  -3.230  0.00  0.00    +0.000 A 
ATOM     29  C   UNL     1       9.702  -3.521  -3.698  0.00  0.00    +0.000 A 
BRANCH  23  31
ATOM     30  N   UNL     1      12.538  -3.670  -5.782  0.00  0.00    +0.000 NA
ATOM     31  C   UNL     1      11.472  -3.415  -5.412  0.00  0.00    +0.000 C 
ENDBRANCH  23  31
ENDBRANCH  22  28
ENDBRANCH  19  22
ENDBRANCH  17  19
ENDBRANCH   1  17
TORSDOF 8
