REMARK  Name = 
REMARK  7 active torsions:
REMARK  status: ('A' for Active; 'I' for Inactive)
REMARK    1  A    between atoms: N_3  and  C_4
REMARK    2  A    between atoms: C_4  and  C_5
REMARK    3  A    between atoms: C_5  and  N_6
REMARK    4  A    between atoms: N_16  and  C_17
REMARK    5  A    between atoms: C_19  and  C_20
REMARK    6  A    between atoms: N_22  and  C_23
REMARK    7  A    between atoms: C_23  and  C_24
REMARK                            x       y       z     vdW  Elec       q    Type
REMARK                         _______ _______ _______ _____ _____    ______ ____
ROOT
ATOM      1  O   UNL     1       2.681  -0.899  -0.946  0.00  0.00    +0.000 OA
ATOM      2  C   UNL     1       2.247  -0.071  -0.156  0.00  0.00    +0.000 C 
ATOM      3  N   UNL     1       0.897   0.107   0.030  0.00  0.00    +0.000 N 
ATOM      4  N   UNL     1       2.998   0.770   0.639  0.00  0.00    +0.000 N 
ATOM      5  H   UNL     1       0.561   0.872   0.594  0.00  0.00    +0.000 HD
ATOM      6  H   UNL     1       2.503   1.261   1.368  0.00  0.00    +0.000 HD
ENDROOT
BRANCH   4   7
ATOM      7  C   UNL     1       4.405   0.914   0.613  0.00  0.00    +0.000 A 
ATOM      8  C   UNL     1       5.217   0.293  -0.341  0.00  0.00    +0.000 A 
ATOM      9  C   UNL     1       6.610   0.436  -0.310  0.00  0.00    +0.000 A 
ATOM     10  C   UNL     1       7.194   1.263   0.654  0.00  0.00    +0.000 A 
ATOM     11  C   UNL     1       6.393   1.910   1.596  0.00  0.00    +0.000 A 
ATOM     12  C   UNL     1       5.006   1.729   1.581  0.00  0.00    +0.000 A 
BRANCH   9  13
ATOM     13  C   UNL     1       7.490  -0.263  -1.293  0.00  0.00    +0.000 C 
ATOM     14  O   UNL     1       8.599   0.191  -1.548  0.00  0.00    +0.000 OA
ATOM     15  N   UNL     1       6.995  -1.425  -1.842  0.00  0.00    +0.000 N 
ATOM     16  H   UNL     1       6.117  -1.810  -1.523  0.00  0.00    +0.000 HD
BRANCH  15  17
ATOM     17  C   UNL     1       7.748  -2.228  -2.780  0.00  0.00    +0.000 C 
BRANCH  17  18
ATOM     18  C   UNL     1       8.088  -3.567  -2.188  0.00  0.00    +0.000 A 
ATOM     19  C   UNL     1       9.286  -3.759  -1.486  0.00  0.00    +0.000 A 
ATOM     20  C   UNL     1       9.582  -5.001  -0.917  0.00  0.00    +0.000 A 
ATOM     21  C   UNL     1       8.680  -6.060  -1.032  0.00  0.00    +0.000 A 
ATOM     22  C   UNL     1       7.483  -5.877  -1.722  0.00  0.00    +0.000 A 
ATOM     23  C   UNL     1       7.197  -4.639  -2.290  0.00  0.00    +0.000 A 
ATOM     24  F   UNL     1       6.036  -4.482  -2.942  0.00  0.00    +0.000 F 
ENDBRANCH  17  18
ENDBRANCH  15  17
ENDBRANCH   9  13
ENDBRANCH   4   7
BRANCH   3  25
ATOM     25  C   UNL     1      -0.085  -0.641  -0.747  0.00  0.00    +0.000 C 
BRANCH  25  26
ATOM     26  C   UNL     1      -0.818  -1.708   0.072  0.00  0.00    +0.000 C 
BRANCH  26  27
ATOM     27  N   UNL     1      -1.629  -1.142   1.135  0.00  0.00    +0.000 N 
ATOM     28  C   UNL     1      -2.936  -0.687   0.953  0.00  0.00    +0.000 C 
ATOM     29  O   UNL     1      -3.583  -0.707  -0.083  0.00  0.00    +0.000 OA
ATOM     30  C   UNL     1      -3.418  -0.130   2.296  0.00  0.00    +0.000 C 
ATOM     31  C   UNL     1      -2.218  -0.320   3.172  0.00  0.00    +0.000 A 
ATOM     32  C   UNL     1      -2.049   0.008   4.506  0.00  0.00    +0.000 A 
ATOM     33  C   UNL     1      -0.815  -0.272   5.098  0.00  0.00    +0.000 A 
ATOM     34  C   UNL     1       0.221  -0.868   4.356  0.00  0.00    +0.000 A 
ATOM     35  C   UNL     1       0.037  -1.197   3.012  0.00  0.00    +0.000 A 
ATOM     36  C   UNL     1      -1.191  -0.917   2.442  0.00  0.00    +0.000 A 
ENDBRANCH  26  27
ENDBRANCH  25  26
ENDBRANCH   3  25
TORSDOF 7
