REMARK  Name = 
REMARK  5 active torsions:
REMARK  status: ('A' for Active; 'I' for Inactive)
REMARK    1  A    between atoms: C_1  and  N_2
REMARK    2  A    between atoms: C_6  and  C_7
REMARK    3  A    between atoms: C_13  and  C_14
REMARK    4  A    between atoms: N_16  and  C_17
REMARK    5  A    between atoms: C_19  and  C_20
REMARK                            x       y       z     vdW  Elec       q    Type
REMARK                         _______ _______ _______ _____ _____    ______ ____
ROOT
ATOM      1  C   UNL     1      -0.678  -2.908  -2.272  0.00  0.00    +0.000 C 
ATOM      2  O   UNL     1      -0.905  -3.761  -3.118  0.00  0.00    +0.000 OA
ATOM      3  N   UNL     1      -1.038  -1.581  -2.477  0.00  0.00    +0.000 N 
ATOM      4  H   UNL     1      -0.600  -0.838  -1.946  0.00  0.00    +0.000 HD
ENDROOT
BRANCH   3   5
ATOM      5  C   UNL     1      -1.752  -1.114  -3.568  0.00  0.00    +0.000 A 
ATOM      6  C   UNL     1      -2.636  -1.829  -4.282  0.00  0.00    +0.000 A 
ATOM      7  C   UNL     1      -3.360  -1.268  -5.410  0.00  0.00    +0.000 A 
ATOM      8  C   UNL     1      -3.098  -0.003  -5.780  0.00  0.00    +0.000 A 
ATOM      9  N   UNL     1      -2.189   0.759  -5.084  0.00  0.00    +0.000 N 
ATOM     10  C   UNL     1      -1.504   0.314  -3.974  0.00  0.00    +0.000 A 
ATOM     11  O   UNL     1      -0.709   1.016  -3.354  0.00  0.00    +0.000 OA
ATOM     12  H   UNL     1      -1.998   1.709  -5.370  0.00  0.00    +0.000 HD
BRANCH   7  13
ATOM     13  C   UNL     1      -4.387  -2.038  -6.129  0.00  0.00    +0.000 A 
ATOM     14  C   UNL     1      -4.063  -2.778  -7.266  0.00  0.00    +0.000 A 
ATOM     15  C   UNL     1      -5.063  -3.527  -7.861  0.00  0.00    +0.000 A 
ATOM     16  N   UNL     1      -6.335  -3.582  -7.409  0.00  0.00    +0.000 NA
ATOM     17  C   UNL     1      -6.617  -2.866  -6.300  0.00  0.00    +0.000 A 
ATOM     18  C   UNL     1      -5.691  -2.086  -5.631  0.00  0.00    +0.000 A 
ENDBRANCH   7  13
ENDBRANCH   3   5
BRANCH   1  25
ATOM     19  C   UNL     1       0.143  -4.559  -0.444  0.00  0.00    +0.000 A 
ATOM     20  C   UNL     1       0.999  -4.735   0.666  0.00  0.00    +0.000 A 
ATOM     21  C   UNL     1       1.716  -3.683   1.226  0.00  0.00    +0.000 A 
ATOM     22  F   UNL     1       2.472  -3.904   2.309  0.00  0.00    +0.000 F 
ATOM     23  C   UNL     1       1.671  -2.423   0.673  0.00  0.00    +0.000 A 
ATOM     24  C   UNL     1       0.899  -2.217  -0.468  0.00  0.00    +0.000 A 
ATOM     25  C   UNL     1       0.110  -3.254  -1.033  0.00  0.00    +0.000 A 
BRANCH  19  31
ATOM     26  C   UNL     1      -1.265  -6.827   1.351  0.00  0.00    +0.000 C 
ATOM     27  N   UNL     1      -1.253  -6.706  -0.088  0.00  0.00    +0.000 N 
ATOM     28  C   UNL     1      -1.889  -7.614  -0.893  0.00  0.00    +0.000 A 
ATOM     29  N   UNL     1      -1.650  -7.390  -2.156  0.00  0.00    +0.000 NA
ATOM     30  C   UNL     1      -0.851  -6.277  -2.165  0.00  0.00    +0.000 A 
ATOM     31  C   UNL     1      -0.630  -5.754  -0.893  0.00  0.00    +0.000 A 
ENDBRANCH  19  31
ENDBRANCH   1  25
TORSDOF 4
