REMARK  Name = 
REMARK  5 active torsions:
REMARK  status: ('A' for Active; 'I' for Inactive)
REMARK    1  A    between atoms: C_1  and  N_2
REMARK    2  A    between atoms: N_2  and  C_3
REMARK    3  A    between atoms: C_3  and  C_4
REMARK    4  A    between atoms: C_15  and  C_17
REMARK    5  A    between atoms: C_20  and  C_21
REMARK                            x       y       z     vdW  Elec       q    Type
REMARK                         _______ _______ _______ _____ _____    ______ ____
ROOT
ATOM      1  C   UNL     1       1.082  -0.119   0.451  0.00  0.00    +0.000 C 
ATOM      2  N   UNL     1       2.525  -0.023   0.256  0.00  0.00    +0.000 N 
ATOM      3  C   UNL     1       3.280  -1.127   0.681  0.00  0.00    +0.000 C 
ATOM      4  O   UNL     1       2.719  -2.088   1.208  0.00  0.00    +0.000 OA
ENDROOT
BRANCH   3   5
ATOM      5  C   UNL     1       4.778  -1.165   0.526  0.00  0.00    +0.000 A 
ATOM      6  C   UNL     1       5.540  -0.058   0.586  0.00  0.00    +0.000 A 
ATOM      7  C   UNL     1       6.971  -0.070   0.470  0.00  0.00    +0.000 A 
ATOM      8  C   UNL     1       7.619  -1.237   0.484  0.00  0.00    +0.000 A 
ATOM      9  N   UNL     1       6.908  -2.404   0.534  0.00  0.00    +0.000 N 
ATOM     10  C   UNL     1       5.528  -2.480   0.512  0.00  0.00    +0.000 A 
ATOM     11  O   UNL     1       4.985  -3.578   0.485  0.00  0.00    +0.000 OA
ATOM     12  H   UNL     1       7.392  -3.294   0.567  0.00  0.00    +0.000 HD
BRANCH   8  13
ATOM     13  C   UNL     1       9.076  -1.264   0.452  0.00  0.00    +0.000 A 
ATOM     14  C   UNL     1       9.813  -1.087   1.625  0.00  0.00    +0.000 A 
ATOM     15  C   UNL     1      11.202  -1.047   1.562  0.00  0.00    +0.000 A 
ATOM     16  C   UNL     1      11.805  -1.183   0.323  0.00  0.00    +0.000 A 
ATOM     17  N   UNL     1      11.126  -1.347  -0.834  0.00  0.00    +0.000 NA
ATOM     18  C   UNL     1       9.776  -1.382  -0.743  0.00  0.00    +0.000 A 
ENDBRANCH   8  13
ENDBRANCH   3   5
BRANCH   2  19
ATOM     19  C   UNL     1       2.950   1.046  -0.653  0.00  0.00    +0.000 C 
BRANCH  19  20
ATOM     20  C   UNL     1       3.273   2.317   0.082  0.00  0.00    +0.000 A 
ATOM     21  C   UNL     1       3.216   2.592   1.439  0.00  0.00    +0.000 A 
ATOM     22  O   UNL     1       3.707   3.828   1.715  0.00  0.00    +0.000 OA
ATOM     23  C   UNL     1       4.065   4.392   0.532  0.00  0.00    +0.000 A 
ATOM     24  C   UNL     1       4.622   5.658   0.370  0.00  0.00    +0.000 A 
ATOM     25  C   UNL     1       4.904   6.039  -0.946  0.00  0.00    +0.000 A 
ATOM     26  F   UNL     1       5.429   7.250  -1.169  0.00  0.00    +0.000 F 
ATOM     27  C   UNL     1       4.655   5.200  -2.027  0.00  0.00    +0.000 A 
ATOM     28  C   UNL     1       4.119   3.934  -1.813  0.00  0.00    +0.000 A 
ATOM     29  F   UNL     1       3.902   3.122  -2.857  0.00  0.00    +0.000 F 
ATOM     30  C   UNL     1       3.803   3.510  -0.512  0.00  0.00    +0.000 A 
ENDBRANCH  19  20
ENDBRANCH   2  19
TORSDOF 4
