REMARK  Name = 
REMARK  7 active torsions:
REMARK  status: ('A' for Active; 'I' for Inactive)
REMARK    1  A    between atoms: C_1  and  N_2
REMARK    2  A    between atoms: C_8  and  C_9
REMARK    3  A    between atoms: C_9  and  O_10
REMARK    4  A    between atoms: O_10  and  C_11
REMARK    5  A    between atoms: C_11  and  C_13
REMARK    6  A    between atoms: C_14  and  C_15
REMARK    7  A    between atoms: N_19  and  C_20
REMARK                            x       y       z     vdW  Elec       q    Type
REMARK                         _______ _______ _______ _____ _____    ______ ____
ROOT
ATOM      1  C   UNL     1       6.172  -7.625   0.052  0.00  0.00    +0.000 A 
ATOM      2  C   UNL     1       6.813  -8.849  -0.039  0.00  0.00    +0.000 A 
ATOM      3  N   UNL     1       5.797  -9.767  -0.236  0.00  0.00    +0.000 N 
ATOM      4  N   UNL     1       4.625  -9.106  -0.398  0.00  0.00    +0.000 NA
ATOM      5  N   UNL     1       4.831  -7.818  -0.161  0.00  0.00    +0.000 NA
ENDROOT
BRANCH   3   6
ATOM      6  C   UNL     1       5.868 -11.177  -0.397  0.00  0.00    +0.000 A 
ATOM      7  C   UNL     1       6.831 -11.931   0.289  0.00  0.00    +0.000 A 
ATOM      8  C   UNL     1       7.079 -13.253  -0.076  0.00  0.00    +0.000 A 
ATOM      9  C   UNL     1       6.322 -13.835  -1.082  0.00  0.00    +0.000 A 
ATOM     10  F   UNL     1       6.605 -15.082  -1.478  0.00  0.00    +0.000 F 
ATOM     11  C   UNL     1       5.278 -13.139  -1.684  0.00  0.00    +0.000 A 
ATOM     12  C   UNL     1       5.032 -11.808  -1.330  0.00  0.00    +0.000 A 
ENDBRANCH   3   6
BRANCH   2  13
ATOM     13  C   UNL     1       8.232  -9.204  -0.098  0.00  0.00    +0.000 C 
ATOM     14  F   UNL     1       9.055  -8.154  -0.310  0.00  0.00    +0.000 F 
ATOM     15  F   UNL     1       8.653  -9.797   1.045  0.00  0.00    +0.000 F 
ATOM     16  F   UNL     1       8.487 -10.066  -1.116  0.00  0.00    +0.000 F 
ENDBRANCH   2  13
BRANCH   1  17
ATOM     17  C   UNL     1       6.771  -6.315   0.274  0.00  0.00    +0.000 C 
ATOM     18  O   UNL     1       7.951  -6.163   0.560  0.00  0.00    +0.000 OA
BRANCH  17  19
ATOM     19  O   UNL     1       5.882  -5.293   0.146  0.00  0.00    +0.000 OA
BRANCH  19  20
ATOM     20  C   UNL     1       6.420  -3.976   0.317  0.00  0.00    +0.000 C 
BRANCH  20  28
ATOM     21  C   UNL     1       4.160  -0.327  -4.854  0.00  0.00    +0.000 C 
ATOM     22  N   UNL     1       5.336  -0.806  -4.188  0.00  0.00    +0.000 N 
ATOM     23  C   UNL     1       6.646  -0.550  -4.543  0.00  0.00    +0.000 A 
ATOM     24  O   UNL     1       7.019   0.129  -5.489  0.00  0.00    +0.000 OA
ATOM     25  O   UNL     1       7.534  -1.185  -3.661  0.00  0.00    +0.000 OA
ATOM     26  C   UNL     1       6.679  -1.819  -2.774  0.00  0.00    +0.000 A 
ATOM     27  C   UNL     1       7.069  -2.583  -1.692  0.00  0.00    +0.000 A 
ATOM     28  C   UNL     1       6.061  -3.147  -0.891  0.00  0.00    +0.000 A 
ATOM     29  C   UNL     1       4.703  -2.922  -1.218  0.00  0.00    +0.000 A 
ATOM     30  C   UNL     1       4.328  -2.146  -2.319  0.00  0.00    +0.000 A 
ATOM     31  C   UNL     1       5.348  -1.606  -3.072  0.00  0.00    +0.000 A 
ENDBRANCH  20  28
ENDBRANCH  19  20
ENDBRANCH  17  19
ENDBRANCH   1  17
TORSDOF 6
