REMARK  Name = 
REMARK  8 active torsions:
REMARK  status: ('A' for Active; 'I' for Inactive)
REMARK    1  A    between atoms: C_1  and  O_2
REMARK    2  A    between atoms: O_2  and  C_3
REMARK    3  A    between atoms: C_3  and  C_5
REMARK    4  A    between atoms: C_7  and  N_8
REMARK    5  A    between atoms: C_9  and  C_11
REMARK    6  A    between atoms: C_12  and  C_13
REMARK    7  A    between atoms: N_19  and  C_20
REMARK    8  A    between atoms: C_29  and  O_30
REMARK                            x       y       z     vdW  Elec       q    Type
REMARK                         _______ _______ _______ _____ _____    ______ ____
ROOT
ATOM      1  N   UNL     1       6.245   1.242  -1.042  0.00  0.00    +0.000 N 
ATOM      2  C   UNL     1       6.178   1.513  -2.395  0.00  0.00    +0.000 C 
ATOM      3  O   UNL     1       6.065   0.673  -3.269  0.00  0.00    +0.000 OA
ATOM      4  H   UNL     1       6.639   1.961  -0.448  0.00  0.00    +0.000 HD
ENDROOT
BRANCH   2   5
ATOM      5  C   UNL     1       6.202   2.923  -2.761  0.00  0.00    +0.000 A 
ATOM      6  C   UNL     1       6.629   3.988  -1.966  0.00  0.00    +0.000 A 
ATOM      7  N   UNL     1       5.923   5.056  -2.490  0.00  0.00    +0.000 N 
ATOM      8  C   UNL     1       4.951   5.832  -1.742  0.00  0.00    +0.000 C 
ATOM      9  C   UNL     1       5.808   4.843  -3.857  0.00  0.00    +0.000 A 
ATOM     10  C   UNL     1       5.361   5.641  -4.914  0.00  0.00    +0.000 A 
ATOM     11  C   UNL     1       5.570   5.148  -6.209  0.00  0.00    +0.000 A 
ATOM     12  C   UNL     1       6.180   3.913  -6.428  0.00  0.00    +0.000 A 
ATOM     13  C   UNL     1       6.451   3.062  -5.360  0.00  0.00    +0.000 A 
ATOM     14  C   UNL     1       6.198   3.519  -4.056  0.00  0.00    +0.000 A 
BRANCH   6  15
ATOM     15  C   UNL     1       7.955   3.948  -1.310  0.00  0.00    +0.000 A 
ATOM     16  C   UNL     1       8.898   3.080  -1.915  0.00  0.00    +0.000 A 
ATOM     17  C   UNL     1       9.745   2.306  -1.137  0.00  0.00    +0.000 A 
ATOM     18  C   UNL     1       9.786   2.524   0.230  0.00  0.00    +0.000 A 
ATOM     19  C   UNL     1       9.055   3.582   0.787  0.00  0.00    +0.000 A 
ATOM     20  C   UNL     1       8.136   4.306   0.019  0.00  0.00    +0.000 A 
ENDBRANCH   6  15
ENDBRANCH   2   5
BRANCH   1  23
ATOM     21  C   UNL     1       4.747  -2.115  -0.442  0.00  0.00    +0.000 A 
ATOM     22  C   UNL     1       5.092  -0.920  -1.080  0.00  0.00    +0.000 A 
ATOM     23  C   UNL     1       5.902   0.013  -0.442  0.00  0.00    +0.000 A 
ATOM     24  C   UNL     1       6.317  -0.290   0.854  0.00  0.00    +0.000 A 
ATOM     25  N   UNL     1       6.025  -1.450   1.500  0.00  0.00    +0.000 NA
ATOM     26  C   UNL     1       5.256  -2.333   0.824  0.00  0.00    +0.000 A 
BRANCH  21  27
ATOM     27  C   UNL     1       3.871  -3.083  -1.127  0.00  0.00    +0.000 C 
ATOM     28  O   UNL     1       3.951  -4.294  -1.056  0.00  0.00    +0.000 OA
BRANCH  27  30
ATOM     29  C   UNL     1       2.114  -3.173  -2.686  0.00  0.00    +0.000 C 
ATOM     30  O   UNL     1       2.971  -2.381  -1.866  0.00  0.00    +0.000 OA
ENDBRANCH  27  30
ENDBRANCH  21  27
BRANCH  26  31
ATOM     31  O   UNL     1       5.006  -3.453   1.542  0.00  0.00    +0.000 OA
ATOM     32  H   UNL     1       5.550  -3.289   2.332  0.00  0.00    +0.000 HD
ENDBRANCH  26  31
ENDBRANCH   1  23
TORSDOF 6
