REMARK  Name = 
REMARK  6 active torsions:
REMARK  status: ('A' for Active; 'I' for Inactive)
REMARK    1  A    between atoms: C_1  and  O_2
REMARK    2  A    between atoms: O_2  and  C_3
REMARK    3  A    between atoms: C_11  and  C_12
REMARK    4  A    between atoms: N_14  and  C_15
REMARK    5  A    between atoms: C_16  and  C_17
REMARK    6  A    between atoms: N_21  and  C_22
REMARK                            x       y       z     vdW  Elec       q    Type
REMARK                         _______ _______ _______ _____ _____    ______ ____
ROOT
ATOM      1  C   UNL     1       7.467  -1.925   2.874  0.00  0.00    +0.000 C 
ATOM      2  O   UNL     1       8.243  -1.155   3.438  0.00  0.00    +0.000 OA
ATOM      3  N   UNL     1       7.576  -3.307   3.007  0.00  0.00    +0.000 N 
ATOM      4  H   UNL     1       7.306  -3.812   2.172  0.00  0.00    +0.000 HD
ENDROOT
BRANCH   1  13
ATOM      5  C   UNL     1       3.704  -1.159  -0.397  0.00  0.00    +0.000 A 
ATOM      6  C   UNL     1       3.152  -2.443  -0.453  0.00  0.00    +0.000 A 
ATOM      7  C   UNL     1       3.663  -3.487   0.323  0.00  0.00    +0.000 A 
ATOM      8  C   UNL     1       4.758  -3.292   1.180  0.00  0.00    +0.000 A 
ATOM      9  C   UNL     1       5.361  -2.020   1.246  0.00  0.00    +0.000 A 
ATOM     10  C   UNL     1       4.799  -1.005   0.467  0.00  0.00    +0.000 A 
ATOM     11  O   UNL     1       5.462   0.166   0.675  0.00  0.00    +0.000 OA
ATOM     12  C   UNL     1       6.438  -0.085   1.574  0.00  0.00    +0.000 A 
ATOM     13  C   UNL     1       6.466  -1.421   1.942  0.00  0.00    +0.000 A 
BRANCH   5  15
ATOM     14  C   UNL     1       1.944  -0.098  -1.585  0.00  0.00    +0.000 C 
ATOM     15  O   UNL     1       3.293  -0.085  -1.137  0.00  0.00    +0.000 OA
ENDBRANCH   5  15
ENDBRANCH   1  13
BRANCH   3  16
ATOM     16  C   UNL     1       8.492  -3.921   3.865  0.00  0.00    +0.000 A 
ATOM     17  C   UNL     1       8.696  -3.599   5.165  0.00  0.00    +0.000 A 
ATOM     18  C   UNL     1       9.811  -4.189   5.947  0.00  0.00    +0.000 A 
ATOM     19  O   UNL     1       9.937  -3.888   7.131  0.00  0.00    +0.000 OA
ATOM     20  N   UNL     1      10.637  -5.091   5.246  0.00  0.00    +0.000 N 
ATOM     21  C   UNL     1      10.342  -5.475   3.944  0.00  0.00    +0.000 A 
ATOM     22  C   UNL     1       9.309  -4.956   3.269  0.00  0.00    +0.000 A 
BRANCH  20  23
ATOM     23  C   UNL     1      11.764  -5.637   5.934  0.00  0.00    +0.000 A 
ATOM     24  C   UNL     1      12.001  -7.017   5.920  0.00  0.00    +0.000 A 
ATOM     25  C   UNL     1      13.056  -7.555   6.656  0.00  0.00    +0.000 A 
ATOM     26  C   UNL     1      13.909  -6.718   7.375  0.00  0.00    +0.000 A 
ATOM     27  C   UNL     1      13.706  -5.339   7.362  0.00  0.00    +0.000 A 
ATOM     28  C   UNL     1      12.632  -4.803   6.653  0.00  0.00    +0.000 A 
ENDBRANCH  20  23
BRANCH  17  29
ATOM     29  C   UNL     1       7.848  -2.529   5.834  0.00  0.00    +0.000 C 
ATOM     30  N   UNL     1       7.144  -1.642   6.388  0.00  0.00    +0.000 NA
ENDBRANCH  17  29
ENDBRANCH   3  16
TORSDOF 5
