REMARK  Name = 
REMARK  5 active torsions:
REMARK  status: ('A' for Active; 'I' for Inactive)
REMARK    1  A    between atoms: C_1  and  C_2
REMARK    2  A    between atoms: C_7  and  C_8
REMARK    3  A    between atoms: N_10  and  C_11
REMARK    4  A    between atoms: C_13  and  N_14
REMARK    5  A    between atoms: C_15  and  C_17
REMARK                            x       y       z     vdW  Elec       q    Type
REMARK                         _______ _______ _______ _____ _____    ______ ____
ROOT
ATOM      1  C   UNL     1       0.517  -3.881  -0.375  0.00  0.00    +0.000 A 
ATOM      2  C   UNL     1       0.986  -5.002   0.315  0.00  0.00    +0.000 A 
ATOM      3  C   UNL     1       0.381  -6.256   0.178  0.00  0.00    +0.000 A 
ATOM      4  C   UNL     1      -0.723  -6.386  -0.663  0.00  0.00    +0.000 A 
ATOM      5  C   UNL     1      -1.267  -5.254  -1.274  0.00  0.00    +0.000 A 
ATOM      6  C   UNL     1      -0.657  -4.003  -1.123  0.00  0.00    +0.000 A 
ENDROOT
BRANCH   1   9
ATOM      7  C   UNL     1       2.541  -2.474  -0.047  0.00  0.00    +0.000 C 
ATOM      8  O   UNL     1       3.306  -3.367   0.300  0.00  0.00    +0.000 OA
ATOM      9  N   UNL     1       1.206  -2.641  -0.389  0.00  0.00    +0.000 N 
ATOM     10  H   UNL     1       0.747  -1.879  -0.886  0.00  0.00    +0.000 HD
BRANCH   7  17
ATOM     11  C   UNL     1       1.181   0.252   0.697  0.00  0.00    +0.000 C 
ATOM     12  C   UNL     1       2.559   0.091   0.136  0.00  0.00    +0.000 A 
ATOM     13  C   UNL     1       3.356   1.218  -0.035  0.00  0.00    +0.000 A 
ATOM     14  N   UNL     1       4.626   1.188  -0.497  0.00  0.00    +0.000 NA
ATOM     15  N   UNL     1       5.189   0.004  -0.808  0.00  0.00    +0.000 NA
ATOM     16  C   UNL     1       4.462  -1.124  -0.653  0.00  0.00    +0.000 A 
ATOM     17  C   UNL     1       3.142  -1.129  -0.205  0.00  0.00    +0.000 A 
ENDBRANCH   7  17
ENDBRANCH   1   9
BRANCH   3  18
ATOM     18  N   UNL     1       0.912  -7.416   0.787  0.00  0.00    +0.000 N 
ATOM     19  C   UNL     1       1.714  -7.417   1.911  0.00  0.00    +0.000 C 
ATOM     20  O   UNL     1       1.755  -6.500   2.730  0.00  0.00    +0.000 OA
ATOM     21  H   UNL     1       0.710  -8.287   0.322  0.00  0.00    +0.000 HD
BRANCH  19  22
ATOM     22  C   UNL     1       2.635  -8.594   2.047  0.00  0.00    +0.000 A 
ATOM     23  C   UNL     1       3.693  -8.374   2.842  0.00  0.00    +0.000 A 
ATOM     24  O   UNL     1       4.926  -9.027   2.712  0.00  0.00    +0.000 OA
ATOM     25  C   UNL     1       5.203  -9.521   1.460  0.00  0.00    +0.000 A 
ATOM     26  O   UNL     1       6.335  -9.583   1.003  0.00  0.00    +0.000 OA
ATOM     27  C   UNL     1       4.039 -10.122   0.770  0.00  0.00    +0.000 A 
ATOM     28  C   UNL     1       4.246 -11.121  -0.184  0.00  0.00    +0.000 A 
ATOM     29  C   UNL     1       3.159 -11.847  -0.662  0.00  0.00    +0.000 A 
ATOM     30  C   UNL     1       1.878 -11.582  -0.172  0.00  0.00    +0.000 A 
ATOM     31  C   UNL     1       1.669 -10.537   0.735  0.00  0.00    +0.000 A 
ATOM     32  C   UNL     1       2.748  -9.757   1.167  0.00  0.00    +0.000 A 
ENDBRANCH  19  22
ENDBRANCH   3  18
TORSDOF 4
