REMARK  Name = 
REMARK  6 active torsions:
REMARK  status: ('A' for Active; 'I' for Inactive)
REMARK    1  A    between atoms: C_2  and  O_3
REMARK    2  A    between atoms: C_2  and  C_11
REMARK    3  A    between atoms: O_3  and  C_4
REMARK    4  A    between atoms: C_4  and  C_5
REMARK    5  A    between atoms: C_16  and  N_17
REMARK    6  A    between atoms: C_18  and  C_20
REMARK                            x       y       z     vdW  Elec       q    Type
REMARK                         _______ _______ _______ _____ _____    ______ ____
ROOT
ATOM      1  C   UNL     1       3.091  -1.040  -0.703  0.00  0.00    +0.000 A 
ATOM      2  C   UNL     1       2.656  -1.190  -2.026  0.00  0.00    +0.000 A 
ATOM      3  C   UNL     1       3.291  -2.102  -2.864  0.00  0.00    +0.000 A 
ATOM      4  C   UNL     1       4.386  -2.829  -2.402  0.00  0.00    +0.000 A 
ATOM      5  F   UNL     1       4.855  -3.784  -3.215  0.00  0.00    +0.000 F 
ATOM      6  C   UNL     1       4.909  -2.629  -1.114  0.00  0.00    +0.000 A 
ATOM      7  C   UNL     1       4.208  -1.773  -0.248  0.00  0.00    +0.000 A 
ENDROOT
BRANCH   6   8
ATOM      8  N   UNL     1       6.120  -3.212  -0.638  0.00  0.00    +0.000 N 
ATOM      9  C   UNL     1       7.156  -3.627  -1.461  0.00  0.00    +0.000 C 
ATOM     10  O   UNL     1       7.161  -3.499  -2.682  0.00  0.00    +0.000 OA
ATOM     11  H   UNL     1       6.327  -3.079   0.342  0.00  0.00    +0.000 HD
BRANCH   9  12
ATOM     12  C   UNL     1       8.413  -4.149  -0.788  0.00  0.00    +0.000 A 
ATOM     13  C   UNL     1       8.445  -4.618   0.482  0.00  0.00    +0.000 A 
ATOM     14  C   UNL     1       9.664  -5.166   1.073  0.00  0.00    +0.000 A 
ATOM     15  C   UNL     1      10.777  -5.234   0.326  0.00  0.00    +0.000 A 
ATOM     16  N   UNL     1      10.761  -4.771  -0.984  0.00  0.00    +0.000 N 
ATOM     17  N   UNL     1      11.774  -4.757  -1.884  0.00  0.00    +0.000 NA
ATOM     18  N   UNL     1      11.331  -4.223  -3.013  0.00  0.00    +0.000 NA
ATOM     19  C   UNL     1      10.022  -3.891  -2.839  0.00  0.00    +0.000 A 
ATOM     20  C   UNL     1       9.622  -4.223  -1.564  0.00  0.00    +0.000 A 
ENDBRANCH   9  12
ENDBRANCH   6   8
BRANCH   1  22
ATOM     21  O   UNL     1       2.733   0.010   1.410  0.00  0.00    +0.000 OA
ATOM     22  C   UNL     1       2.407  -0.108   0.240  0.00  0.00    +0.000 C 
BRANCH  22  23
ATOM     23  O   UNL     1       1.403   0.547  -0.390  0.00  0.00    +0.000 OA
BRANCH  23  24
ATOM     24  C   UNL     1       0.633   1.466   0.395  0.00  0.00    +0.000 C 
BRANCH  24  25
ATOM     25  C   UNL     1       0.710   2.837  -0.229  0.00  0.00    +0.000 A 
ATOM     26  C   UNL     1      -0.178   3.213  -1.248  0.00  0.00    +0.000 A 
ATOM     27  C   UNL     1      -0.111   4.491  -1.809  0.00  0.00    +0.000 A 
ATOM     28  C   UNL     1       0.847   5.400  -1.366  0.00  0.00    +0.000 A 
ATOM     29  C   UNL     1       1.746   5.030  -0.366  0.00  0.00    +0.000 A 
ATOM     30  C   UNL     1       1.681   3.753   0.196  0.00  0.00    +0.000 A 
ENDBRANCH  24  25
ENDBRANCH  23  24
ENDBRANCH  22  23
ENDBRANCH   1  22
TORSDOF 6
