REMARK  Name = 
REMARK  5 active torsions:
REMARK  status: ('A' for Active; 'I' for Inactive)
REMARK    1  A    between atoms: C_2  and  C_19
REMARK    2  A    between atoms: N_3  and  C_4
REMARK    3  A    between atoms: C_9  and  O_10
REMARK    4  A    between atoms: O_10  and  C_11
REMARK    5  A    between atoms: C_21  and  C_22
REMARK                            x       y       z     vdW  Elec       q    Type
REMARK                         _______ _______ _______ _____ _____    ______ ____
ROOT
ATOM      1  O   UNL     1       1.038  -0.245   1.188  0.00  0.00    +0.000 OA
ATOM      2  C   UNL     1       2.200  -0.163   0.795  0.00  0.00    +0.000 C 
ATOM      3  N   UNL     1       2.837   0.993   0.372  0.00  0.00    +0.000 N 
ATOM      4  H   UNL     1       3.752   0.849  -0.046  0.00  0.00    +0.000 HD
ENDROOT
BRANCH   3   5
ATOM      5  C   UNL     1       2.248   2.281   0.306  0.00  0.00    +0.000 A 
ATOM      6  C   UNL     1       1.146   2.584   1.124  0.00  0.00    +0.000 A 
ATOM      7  C   UNL     1       0.566   3.856   1.140  0.00  0.00    +0.000 A 
ATOM      8  C   UNL     1       1.088   4.857   0.345  0.00  0.00    +0.000 A 
ATOM      9  C   UNL     1       2.174   4.583  -0.484  0.00  0.00    +0.000 A 
ATOM     10  C   UNL     1       2.751   3.299  -0.529  0.00  0.00    +0.000 A 
BRANCH  10  11
ATOM     11  O   UNL     1       3.834   3.243  -1.382  0.00  0.00    +0.000 OA
BRANCH  11  12
ATOM     12  C   UNL     1       4.125   2.140  -2.140  0.00  0.00    +0.000 A 
ATOM     13  C   UNL     1       3.211   1.177  -2.566  0.00  0.00    +0.000 A 
ATOM     14  C   UNL     1       3.682   0.024  -3.191  0.00  0.00    +0.000 A 
ATOM     15  F   UNL     1       2.821  -0.957  -3.492  0.00  0.00    +0.000 F 
ATOM     16  C   UNL     1       5.030  -0.145  -3.477  0.00  0.00    +0.000 A 
ATOM     17  C   UNL     1       5.912   0.874  -3.150  0.00  0.00    +0.000 A 
ATOM     18  F   UNL     1       7.210   0.747  -3.451  0.00  0.00    +0.000 F 
ATOM     19  C   UNL     1       5.472   2.014  -2.489  0.00  0.00    +0.000 A 
ENDBRANCH  11  12
ENDBRANCH  10  11
ENDBRANCH   3   5
BRANCH   2  20
ATOM     20  C   UNL     1       3.001  -1.417   0.702  0.00  0.00    +0.000 A 
ATOM     21  C   UNL     1       2.397  -2.616   1.059  0.00  0.00    +0.000 A 
ATOM     22  C   UNL     1       3.138  -3.792   0.993  0.00  0.00    +0.000 A 
ATOM     23  C   UNL     1       4.468  -3.712   0.566  0.00  0.00    +0.000 A 
ATOM     24  C   UNL     1       4.986  -2.470   0.218  0.00  0.00    +0.000 A 
ATOM     25  N   UNL     1       4.287  -1.314   0.269  0.00  0.00    +0.000 NA
BRANCH  22  26
ATOM     26  C   UNL     1       2.535  -5.065   1.361  0.00  0.00    +0.000 A 
ATOM     27  N   UNL     1       1.250  -5.216   1.726  0.00  0.00    +0.000 NA
ATOM     28  N   UNL     1       1.218  -6.536   1.949  0.00  0.00    +0.000 N 
ATOM     29  N   UNL     1       2.367  -7.189   1.753  0.00  0.00    +0.000 NA
ATOM     30  N   UNL     1       3.223  -6.252   1.374  0.00  0.00    +0.000 NA
ATOM     31  H   UNL     1       0.372  -7.016   2.249  0.00  0.00    +0.000 HD
ENDBRANCH  22  26
ENDBRANCH   2  20
TORSDOF 5
