REMARK  Name = 
REMARK  6 active torsions:
REMARK  status: ('A' for Active; 'I' for Inactive)
REMARK    1  A    between atoms: C_2  and  C_19
REMARK    2  A    between atoms: N_3  and  C_4
REMARK    3  A    between atoms: C_4  and  C_5
REMARK    4  A    between atoms: C_7  and  O_8
REMARK    5  A    between atoms: O_8  and  C_9
REMARK    6  A    between atoms: C_21  and  N_22
REMARK                            x       y       z     vdW  Elec       q    Type
REMARK                         _______ _______ _______ _____ _____    ______ ____
ROOT
ATOM      1  O   UNL     1       3.194  -2.197  -0.974  0.00  0.00    +0.000 OA
ATOM      2  C   UNL     1       3.360  -1.077  -0.499  0.00  0.00    +0.000 C 
ATOM      3  N   UNL     1       2.932   0.075  -1.114  0.00  0.00    +0.000 N 
ATOM      4  H   UNL     1       3.201   0.961  -0.697  0.00  0.00    +0.000 HD
ENDROOT
BRANCH   2   5
ATOM      5  C   UNL     1       4.043  -0.893   0.819  0.00  0.00    +0.000 A 
ATOM      6  C   UNL     1       4.567  -2.007   1.466  0.00  0.00    +0.000 A 
ATOM      7  C   UNL     1       5.161  -1.834   2.719  0.00  0.00    +0.000 A 
ATOM      8  C   UNL     1       5.193  -0.551   3.274  0.00  0.00    +0.000 A 
ATOM      9  C   UNL     1       4.655   0.503   2.543  0.00  0.00    +0.000 A 
ATOM     10  N   UNL     1       4.085   0.368   1.326  0.00  0.00    +0.000 NA
BRANCH   7  11
ATOM     11  N   UNL     1       5.732  -2.947   3.399  0.00  0.00    +0.000 N 
ATOM     12  C   UNL     1       5.831  -4.244   2.941  0.00  0.00    +0.000 A 
ATOM     13  C   UNL     1       6.506  -4.946   3.910  0.00  0.00    +0.000 A 
ATOM     14  N   UNL     1       6.803  -4.140   4.970  0.00  0.00    +0.000 NA
ATOM     15  C   UNL     1       6.324  -2.959   4.645  0.00  0.00    +0.000 A 
ENDBRANCH   7  11
ENDBRANCH   2   5
BRANCH   3  16
ATOM     16  C   UNL     1       2.229   0.060  -2.379  0.00  0.00    +0.000 C 
BRANCH  16  17
ATOM     17  C   UNL     1       3.161   0.111  -3.567  0.00  0.00    +0.000 A 
ATOM     18  C   UNL     1       3.679  -1.067  -4.102  0.00  0.00    +0.000 A 
ATOM     19  C   UNL     1       4.580  -0.982  -5.160  0.00  0.00    +0.000 A 
ATOM     20  C   UNL     1       4.885   0.261  -5.701  0.00  0.00    +0.000 A 
ATOM     21  C   UNL     1       4.316   1.380  -5.120  0.00  0.00    +0.000 A 
ATOM     22  N   UNL     1       3.479   1.335  -4.061  0.00  0.00    +0.000 NA
BRANCH  19  23
ATOM     23  O   UNL     1       5.158  -2.068  -5.779  0.00  0.00    +0.000 OA
BRANCH  23  24
ATOM     24  C   UNL     1       5.490  -3.183  -5.043  0.00  0.00    +0.000 A 
ATOM     25  C   UNL     1       5.961  -3.147  -3.729  0.00  0.00    +0.000 A 
ATOM     26  C   UNL     1       6.268  -4.340  -3.083  0.00  0.00    +0.000 A 
ATOM     27  F   UNL     1       6.680  -4.309  -1.808  0.00  0.00    +0.000 F 
ATOM     28  C   UNL     1       6.158  -5.563  -3.736  0.00  0.00    +0.000 A 
ATOM     29  C   UNL     1       5.736  -5.597  -5.064  0.00  0.00    +0.000 A 
ATOM     30  C   UNL     1       5.404  -4.407  -5.716  0.00  0.00    +0.000 A 
ENDBRANCH  23  24
ENDBRANCH  19  23
ENDBRANCH  16  17
ENDBRANCH   3  16
TORSDOF 6
