REMARK  Name = 
REMARK  6 active torsions:
REMARK  status: ('A' for Active; 'I' for Inactive)
REMARK    1  A    between atoms: C_2  and  C_4
REMARK    2  A    between atoms: C_7  and  C_8
REMARK    3  A    between atoms: C_10  and  N_11
REMARK    4  A    between atoms: C_13  and  C_14
REMARK    5  A    between atoms: C_14  and  O_16
REMARK    6  A    between atoms: C_25  and  C_26
REMARK                            x       y       z     vdW  Elec       q    Type
REMARK                         _______ _______ _______ _____ _____    ______ ____
ROOT
ATOM      1  C   UNL     1       5.292   1.409  -4.690  0.00  0.00    +0.000 A 
ATOM      2  C   UNL     1       5.945   2.649  -4.819  0.00  0.00    +0.000 A 
ATOM      3  C   UNL     1       6.616   3.015  -5.996  0.00  0.00    +0.000 A 
ATOM      4  C   UNL     1       6.639   2.126  -7.075  0.00  0.00    +0.000 A 
ATOM      5  C   UNL     1       6.049   0.873  -6.955  0.00  0.00    +0.000 A 
ATOM      6  C   UNL     1       5.388   0.520  -5.775  0.00  0.00    +0.000 A 
ENDROOT
BRANCH   3   7
ATOM      7  N   UNL     1       7.261   4.287  -6.100  0.00  0.00    +0.000 N 
ATOM      8  C   UNL     1       6.996   5.129  -7.187  0.00  0.00    +0.000 A 
ATOM      9  C   UNL     1       7.560   6.340  -7.314  0.00  0.00    +0.000 A 
ATOM     10  C   UNL     1       8.565   6.734  -6.349  0.00  0.00    +0.000 A 
ATOM     11  C   UNL     1       8.866   5.958  -5.302  0.00  0.00    +0.000 A 
ATOM     12  C   UNL     1       8.163   4.662  -5.088  0.00  0.00    +0.000 A 
ATOM     13  O   UNL     1       8.455   4.007  -4.090  0.00  0.00    +0.000 OA
BRANCH   9  14
ATOM     14  C   UNL     1       7.248   7.250  -8.452  0.00  0.00    +0.000 C 
ATOM     15  O   UNL     1       8.033   8.100  -8.842  0.00  0.00    +0.000 OA
BRANCH  14  16
ATOM     16  O   UNL     1       6.023   7.102  -8.995  0.00  0.00    +0.000 OA
ATOM     17  H   UNL     1       5.393   6.545  -8.506  0.00  0.00    +0.000 HD
ENDBRANCH  14  16
ENDBRANCH   9  14
ENDBRANCH   3   7
BRANCH   1  21
ATOM     18  C   UNL     1       3.043   0.376  -1.138  0.00  0.00    +0.000 A 
ATOM     19  C   UNL     1       4.189   1.181  -1.053  0.00  0.00    +0.000 A 
ATOM     20  C   UNL     1       4.912   1.521  -2.201  0.00  0.00    +0.000 A 
ATOM     21  C   UNL     1       4.525   1.065  -3.469  0.00  0.00    +0.000 A 
ATOM     22  C   UNL     1       3.358   0.280  -3.533  0.00  0.00    +0.000 A 
ATOM     23  C   UNL     1       2.596  -0.065  -2.389  0.00  0.00    +0.000 A 
BRANCH  18  25
ATOM     24  N   UNL     1       2.277   0.883   1.111  0.00  0.00    +0.000 N 
ATOM     25  C   UNL     1       2.405  -0.058   0.128  0.00  0.00    +0.000 C 
ATOM     26  O   UNL     1       2.052  -1.215   0.291  0.00  0.00    +0.000 OA
ATOM     27  H   UNL     1       1.849   0.593   1.981  0.00  0.00    +0.000 HD
ATOM     28  H   UNL     1       2.541   1.853   1.007  0.00  0.00    +0.000 HD
ENDBRANCH  18  25
BRANCH  23  29
ATOM     29  C   UNL     1       1.340  -0.872  -2.620  0.00  0.00    +0.000 C 
ATOM     30  F   UNL     1       0.445  -0.920  -1.605  0.00  0.00    +0.000 F 
ATOM     31  F   UNL     1       0.627  -0.354  -3.671  0.00  0.00    +0.000 F 
ATOM     32  F   UNL     1       1.608  -2.158  -2.982  0.00  0.00    +0.000 F 
ENDBRANCH  23  29
ENDBRANCH   1  21
TORSDOF 6
