REMARK  Name = 
REMARK  6 active torsions:
REMARK  status: ('A' for Active; 'I' for Inactive)
REMARK    1  A    between atoms: C_2  and  C_3
REMARK    2  A    between atoms: C_8  and  C_9
REMARK    3  A    between atoms: C_12  and  C_13
REMARK    4  A    between atoms: C_13  and  N_14
REMARK    5  A    between atoms: C_15  and  C_17
REMARK    6  A    between atoms: C_21  and  N_22
REMARK                            x       y       z     vdW  Elec       q    Type
REMARK                         _______ _______ _______ _____ _____    ______ ____
ROOT
ATOM      1  N   UNL     1      -3.470   6.455   1.134  0.00  0.00    +0.000 N 
ATOM      2  C   UNL     1      -4.229   7.596   1.298  0.00  0.00    +0.000 C 
ATOM      3  O   UNL     1      -4.202   8.541   0.518  0.00  0.00    +0.000 OA
ATOM      4  H   UNL     1      -3.700   5.612   1.641  0.00  0.00    +0.000 HD
ENDROOT
BRANCH   2   5
ATOM      5  C   UNL     1      -5.109   7.645   2.500  0.00  0.00    +0.000 A 
ATOM      6  C   UNL     1      -4.791   6.932   3.662  0.00  0.00    +0.000 A 
ATOM      7  C   UNL     1      -5.588   7.068   4.796  0.00  0.00    +0.000 A 
ATOM      8  C   UNL     1      -6.691   7.925   4.783  0.00  0.00    +0.000 A 
ATOM      9  C   UNL     1      -7.028   8.651   3.634  0.00  0.00    +0.000 A 
ATOM     10  C   UNL     1      -6.228   8.495   2.488  0.00  0.00    +0.000 A 
BRANCH   9  11
ATOM     11  N   UNL     1      -8.131   9.526   3.628  0.00  0.00    +0.000 N 
ATOM     12  N   UNL     1      -8.546  10.137   2.470  0.00  0.00    +0.000 NA
ATOM     13  N   UNL     1      -9.556  10.867   2.720  0.00  0.00    +0.000 NA
ATOM     14  N   UNL     1      -9.844  10.776   4.040  0.00  0.00    +0.000 N 
ATOM     15  C   UNL     1      -8.956   9.930   4.671  0.00  0.00    +0.000 A 
ATOM     16  O   UNL     1      -8.948   9.664   5.859  0.00  0.00    +0.000 OA
ATOM     17  H   UNL     1     -10.598  11.286   4.473  0.00  0.00    +0.000 HD
ENDBRANCH   9  11
ENDBRANCH   2   5
BRANCH   1  18
ATOM     18  C   UNL     1      -2.549   6.352   0.028  0.00  0.00    +0.000 C 
BRANCH  18  22
ATOM     19  C   UNL     1      -0.332   2.594   0.052  0.00  0.00    +0.000 A 
ATOM     20  C   UNL     1      -1.524   2.752  -0.676  0.00  0.00    +0.000 A 
ATOM     21  C   UNL     1      -2.255   3.948  -0.652  0.00  0.00    +0.000 A 
ATOM     22  C   UNL     1      -1.784   5.057   0.051  0.00  0.00    +0.000 A 
ATOM     23  C   UNL     1      -0.593   4.931   0.771  0.00  0.00    +0.000 A 
ATOM     24  C   UNL     1       0.113   3.718   0.775  0.00  0.00    +0.000 A 
BRANCH  19  30
ATOM     25  C   UNL     1      -0.141   0.026   0.089  0.00  0.00    +0.000 A 
ATOM     26  C   UNL     1       0.662  -1.132   0.092  0.00  0.00    +0.000 A 
ATOM     27  C   UNL     1       2.050  -1.040   0.091  0.00  0.00    +0.000 A 
ATOM     28  C   UNL     1       2.648   0.211   0.070  0.00  0.00    +0.000 A 
ATOM     29  C   UNL     1       1.858   1.366   0.040  0.00  0.00    +0.000 A 
ATOM     30  C   UNL     1       0.443   1.317   0.056  0.00  0.00    +0.000 A 
BRANCH  25  32
ATOM     31  N   UNL     1      -2.704  -0.394   0.166  0.00  0.00    +0.000 NA
ATOM     32  C   UNL     1      -1.561  -0.188   0.146  0.00  0.00    +0.000 C 
ENDBRANCH  25  32
ENDBRANCH  19  30
ENDBRANCH  18  22
ENDBRANCH   1  18
TORSDOF 6
