REMARK  Name = 
REMARK  8 active torsions:
REMARK  status: ('A' for Active; 'I' for Inactive)
REMARK    1  A    between atoms: C_1  and  C_2
REMARK    2  A    between atoms: N_10  and  C_11
REMARK    3  A    between atoms: C_11  and  C_12
REMARK    4  A    between atoms: C_12  and  N_13
REMARK    5  A    between atoms: C_14  and  C_16
REMARK    6  A    between atoms: C_19  and  S_20
REMARK    7  A    between atoms: S_20  and  C_21
REMARK    8  A    between atoms: C_21  and  C_22
REMARK                            x       y       z     vdW  Elec       q    Type
REMARK                         _______ _______ _______ _____ _____    ______ ____
ROOT
ATOM      1  N   UNL     1       4.792  -5.135   0.045  0.00  0.00    +0.000 N 
ATOM      2  C   UNL     1       4.024  -6.283  -0.013  0.00  0.00    +0.000 C 
ATOM      3  O   UNL     1       2.802  -6.282  -0.086  0.00  0.00    +0.000 OA
ATOM      4  H   UNL     1       5.784  -5.202  -0.138  0.00  0.00    +0.000 HD
ENDROOT
BRANCH   2   5
ATOM      5  C   UNL     1       4.779  -7.561  -0.034  0.00  0.00    +0.000 A 
ATOM      6  C   UNL     1       6.018  -7.666   0.598  0.00  0.00    +0.000 A 
ATOM      7  C   UNL     1       6.746  -8.852   0.515  0.00  0.00    +0.000 A 
ATOM      8  C   UNL     1       6.240  -9.966  -0.167  0.00  0.00    +0.000 A 
ATOM      9  C   UNL     1       4.977  -9.863  -0.768  0.00  0.00    +0.000 A 
ATOM     10  C   UNL     1       4.247  -8.670  -0.699  0.00  0.00    +0.000 A 
BRANCH   8  11
ATOM     11  S   UNL     1       7.151 -11.494  -0.345  0.00  0.00    +0.000 S 
BRANCH  11  12
ATOM     12  C   UNL     1       8.215 -11.471   1.131  0.00  0.00    +0.000 C 
BRANCH  12  13
ATOM     13  C   UNL     1       9.170 -12.625   1.181  0.00  0.00    +0.000 A 
ATOM     14  C   UNL     1       8.816 -13.848   1.754  0.00  0.00    +0.000 A 
ATOM     15  C   UNL     1       9.760 -14.869   1.827  0.00  0.00    +0.000 A 
ATOM     16  C   UNL     1      11.026 -14.631   1.316  0.00  0.00    +0.000 A 
ATOM     17  N   UNL     1      11.399 -13.469   0.740  0.00  0.00    +0.000 NA
ATOM     18  C   UNL     1      10.462 -12.499   0.678  0.00  0.00    +0.000 A 
ENDBRANCH  12  13
ENDBRANCH  11  12
ENDBRANCH   8  11
ENDBRANCH   2   5
BRANCH   1  19
ATOM     19  C   UNL     1       4.158  -3.833   0.008  0.00  0.00    +0.000 C 
BRANCH  19  20
ATOM     20  C   UNL     1       5.159  -2.678   0.092  0.00  0.00    +0.000 C 
BRANCH  20  30
ATOM     21  C   UNL     1       2.839   1.138   2.354  0.00  0.00    +0.000 C 
ATOM     22  C   UNL     1       3.342   0.528   1.077  0.00  0.00    +0.000 A 
ATOM     23  N   UNL     1       3.152   1.138  -0.052  0.00  0.00    +0.000 NA
ATOM     24  C   UNL     1       3.568   0.496  -1.228  0.00  0.00    +0.000 A 
ATOM     25  C   UNL     1       3.272   1.130  -2.440  0.00  0.00    +0.000 A 
ATOM     26  C   UNL     1       3.576   0.525  -3.657  0.00  0.00    +0.000 A 
ATOM     27  C   UNL     1       4.198  -0.719  -3.670  0.00  0.00    +0.000 A 
ATOM     28  C   UNL     1       4.527  -1.351  -2.467  0.00  0.00    +0.000 A 
ATOM     29  C   UNL     1       4.216  -0.754  -1.235  0.00  0.00    +0.000 A 
ATOM     30  N   UNL     1       4.506  -1.379   0.012  0.00  0.00    +0.000 N 
ATOM     31  C   UNL     1       4.048  -0.812   1.198  0.00  0.00    +0.000 A 
ATOM     32  O   UNL     1       4.172  -1.314   2.309  0.00  0.00    +0.000 OA
ENDBRANCH  20  30
ENDBRANCH  19  20
ENDBRANCH   1  19
TORSDOF 7
