REMARK  Name = 
REMARK  7 active torsions:
REMARK  status: ('A' for Active; 'I' for Inactive)
REMARK    1  A    between atoms: N_1  and  C_2
REMARK    2  A    between atoms: C_2  and  C_3
REMARK    3  A    between atoms: C_3  and  C_4
REMARK    4  A    between atoms: C_4  and  C_5
REMARK    5  A    between atoms: C_8  and  C_9
REMARK    6  A    between atoms: N_11  and  C_12
REMARK    7  A    between atoms: N_18  and  C_19
REMARK                            x       y       z     vdW  Elec       q    Type
REMARK                         _______ _______ _______ _____ _____    ______ ____
ROOT
ATOM      1  C   UNL     1       7.118  -0.633   9.247  0.00  0.00    +0.000 A 
ATOM      2  C   UNL     1       6.410   0.050  10.240  0.00  0.00    +0.000 A 
ATOM      3  C   UNL     1       6.986   0.342  11.456  0.00  0.00    +0.000 A 
ATOM      4  C   UNL     1       8.272  -0.078  11.722  0.00  0.00    +0.000 A 
ATOM      5  N   UNL     1       8.892   0.505  12.826  0.00  0.00    +0.000 NA
ATOM      6  C   UNL     1       9.835  -0.174  13.366  0.00  0.00    +0.000 A 
ATOM      7  N   UNL     1      10.251  -1.405  12.924  0.00  0.00    +0.000 N 
ATOM      8  C   UNL     1      10.018  -1.785  11.575  0.00  0.00    +0.000 A 
ATOM      9  O   UNL     1      10.594  -2.685  10.975  0.00  0.00    +0.000 OA
ATOM     10  C   UNL     1       8.888  -1.022  10.892  0.00  0.00    +0.000 A 
ATOM     11  C   UNL     1       8.331  -1.274   9.599  0.00  0.00    +0.000 A 
ENDROOT
BRANCH   7  12
ATOM     12  C   UNL     1      10.537  -2.360  13.960  0.00  0.00    +0.000 A 
ATOM     13  C   UNL     1      11.462  -3.392  13.839  0.00  0.00    +0.000 A 
ATOM     14  C   UNL     1      11.570  -4.360  14.853  0.00  0.00    +0.000 A 
ATOM     15  C   UNL     1      10.741  -4.319  15.979  0.00  0.00    +0.000 A 
ATOM     16  C   UNL     1       9.850  -3.271  16.137  0.00  0.00    +0.000 A 
ATOM     17  C   UNL     1       9.768  -2.291  15.149  0.00  0.00    +0.000 A 
ENDBRANCH   7  12
BRANCH   1  20
ATOM     18  C   UNL     1       6.323  -1.392   6.961  0.00  0.00    +0.000 C 
ATOM     19  O   UNL     1       6.815  -2.510   6.959  0.00  0.00    +0.000 OA
ATOM     20  N   UNL     1       6.490  -0.484   7.982  0.00  0.00    +0.000 N 
ATOM     21  H   UNL     1       5.861   0.305   7.946  0.00  0.00    +0.000 HD
BRANCH  18  25
ATOM     22  C   UNL     1       3.700  -0.335   3.580  0.00  0.00    +0.000 A 
ATOM     23  C   UNL     1       4.171  -1.634   3.797  0.00  0.00    +0.000 A 
ATOM     24  C   UNL     1       4.983  -1.944   4.905  0.00  0.00    +0.000 A 
ATOM     25  C   UNL     1       5.373  -0.965   5.831  0.00  0.00    +0.000 A 
ATOM     26  C   UNL     1       4.869   0.335   5.632  0.00  0.00    +0.000 A 
ATOM     27  C   UNL     1       4.045   0.644   4.523  0.00  0.00    +0.000 A 
BRANCH  22  28
ATOM     28  C   UNL     1       2.916   0.014   2.325  0.00  0.00    +0.000 C 
BRANCH  28  29
ATOM     29  C   UNL     1       1.620  -0.790   2.140  0.00  0.00    +0.000 C 
BRANCH  29  30
ATOM     30  C   UNL     1       0.890  -0.427   0.843  0.00  0.00    +0.000 C 
BRANCH  30  31
ATOM     31  N   UNL     1      -0.322  -1.230   0.708  0.00  0.00    +0.000 NA
ATOM     32  H   UNL     1      -0.827  -0.953  -0.134  0.00  0.00    +0.000 HD
ATOM     33  H   UNL     1      -0.942  -1.044   1.495  0.00  0.00    +0.000 HD
ENDBRANCH  30  31
ENDBRANCH  29  30
ENDBRANCH  28  29
ENDBRANCH  22  28
ENDBRANCH  18  25
ENDBRANCH   1  20
TORSDOF 7
