REMARK  Name = 
REMARK  6 active torsions:
REMARK  status: ('A' for Active; 'I' for Inactive)
REMARK    1  A    between atoms: C_2  and  C_3
REMARK    2  A    between atoms: C_6  and  C_7
REMARK    3  A    between atoms: C_7  and  C_9
REMARK    4  A    between atoms: C_9  and  N_10
REMARK    5  A    between atoms: N_14  and  C_15
REMARK    6  A    between atoms: C_15  and  C_16
REMARK                            x       y       z     vdW  Elec       q    Type
REMARK                         _______ _______ _______ _____ _____    ______ ____
ROOT
ATOM      1  N   UNL     1       6.234   0.574   0.467  0.00  0.00    +0.000 N 
ATOM      2  C   UNL     1       7.238   1.633   0.339  0.00  0.00    +0.000 C 
ATOM      3  C   UNL     1       8.097   1.525  -0.919  0.00  0.00    +0.000 C 
ATOM      4  O   UNL     1       8.505   2.545  -1.484  0.00  0.00    +0.000 OA
ATOM      5  N   UNL     1       8.465   0.236  -1.306  0.00  0.00    +0.000 N 
ATOM      6  C   UNL     1       7.832  -0.900  -0.702  0.00  0.00    +0.000 A 
ATOM      7  C   UNL     1       8.265  -2.212  -0.961  0.00  0.00    +0.000 A 
ATOM      8  C   UNL     1       7.630  -3.310  -0.378  0.00  0.00    +0.000 A 
ATOM      9  C   UNL     1       6.548  -3.116   0.470  0.00  0.00    +0.000 A 
ATOM     10  C   UNL     1       6.097  -1.822   0.730  0.00  0.00    +0.000 A 
ATOM     11  C   UNL     1       6.721  -0.703   0.154  0.00  0.00    +0.000 A 
ENDROOT
BRANCH   5  12
ATOM     12  C   UNL     1       9.439   0.085  -2.392  0.00  0.00    +0.000 C 
BRANCH  12  13
ATOM     13  C   UNL     1       8.794  -0.153  -3.742  0.00  0.00    +0.000 A 
ATOM     14  C   UNL     1       8.006   0.848  -4.329  0.00  0.00    +0.000 A 
ATOM     15  C   UNL     1       7.357   0.629  -5.543  0.00  0.00    +0.000 A 
ATOM     16  C   UNL     1       7.506  -0.588  -6.202  0.00  0.00    +0.000 A 
ATOM     17  C   UNL     1       8.319  -1.579  -5.654  0.00  0.00    +0.000 A 
ATOM     18  C   UNL     1       8.962  -1.363  -4.432  0.00  0.00    +0.000 A 
ENDBRANCH  12  13
ENDBRANCH   5  12
BRANCH   1  19
ATOM     19  C   UNL     1       4.867   0.894   0.004  0.00  0.00    +0.000 C 
BRANCH  19  20
ATOM     20  C   UNL     1       3.983   1.435   1.140  0.00  0.00    +0.000 C 
ATOM     21  O   UNL     1       4.366   1.575   2.301  0.00  0.00    +0.000 OA
BRANCH  20  25
ATOM     22  C   UNL     1      -0.173   2.303   0.343  0.00  0.00    +0.000 A 
ATOM     23  C   UNL     1       0.706   2.090  -0.726  0.00  0.00    +0.000 A 
ATOM     24  C   UNL     1       2.064   1.834  -0.487  0.00  0.00    +0.000 A 
ATOM     25  C   UNL     1       2.556   1.782   0.826  0.00  0.00    +0.000 A 
ATOM     26  C   UNL     1       1.676   2.036   1.889  0.00  0.00    +0.000 A 
ATOM     27  C   UNL     1       0.327   2.282   1.641  0.00  0.00    +0.000 A 
ATOM     28  F   UNL     1      -0.493   2.489   2.683  0.00  0.00    +0.000 F 
BRANCH  22  30
ATOM     29  N   UNL     1      -2.695   2.663  -0.137  0.00  0.00    +0.000 NA
ATOM     30  C   UNL     1      -1.570   2.514   0.101  0.00  0.00    +0.000 C 
ENDBRANCH  22  30
ENDBRANCH  20  25
ENDBRANCH  19  20
ENDBRANCH   1  19
TORSDOF 6
