REMARK  Name = 
REMARK  6 active torsions:
REMARK  status: ('A' for Active; 'I' for Inactive)
REMARK    1  A    between atoms: C_2  and  C_16
REMARK    2  A    between atoms: N_3  and  C_4
REMARK    3  A    between atoms: C_4  and  C_5
REMARK    4  A    between atoms: C_9  and  C_10
REMARK    5  A    between atoms: C_18  and  O_19
REMARK    6  A    between atoms: N_21  and  C_22
REMARK                            x       y       z     vdW  Elec       q    Type
REMARK                         _______ _______ _______ _____ _____    ______ ____
ROOT
ATOM      1  O   UNL     1       0.838  -0.091  -0.167  0.00  0.00    +0.000 OA
ATOM      2  C   UNL     1       2.059  -0.033  -0.076  0.00  0.00    +0.000 C 
ATOM      3  N   UNL     1       2.815  -1.062   0.442  0.00  0.00    +0.000 N 
ATOM      4  H   UNL     1       3.795  -0.905   0.629  0.00  0.00    +0.000 HD
ENDROOT
BRANCH   2   5
ATOM      5  C   UNL     1       2.831   1.096  -0.530  0.00  0.00    +0.000 A 
ATOM      6  C   UNL     1       4.035   1.097  -1.219  0.00  0.00    +0.000 A 
ATOM      7  C   UNL     1       4.194   2.417  -1.627  0.00  0.00    +0.000 A 
ATOM      8  N   UNL     1       3.211   3.218  -1.254  0.00  0.00    +0.000 NA
ATOM      9  N   UNL     1       2.424   2.429  -0.470  0.00  0.00    +0.000 N 
BRANCH   9  10
ATOM     10  C   UNL     1       1.384   3.031   0.284  0.00  0.00    +0.000 A 
ATOM     11  C   UNL     1       0.809   4.230  -0.167  0.00  0.00    +0.000 A 
ATOM     12  C   UNL     1      -0.232   4.825   0.555  0.00  0.00    +0.000 A 
ATOM     13  C   UNL     1      -0.688   4.242   1.737  0.00  0.00    +0.000 A 
ATOM     14  C   UNL     1      -0.086   3.079   2.212  0.00  0.00    +0.000 A 
ATOM     15  C   UNL     1       0.952   2.489   1.493  0.00  0.00    +0.000 A 
ATOM     16  F   UNL     1       1.583   1.451   2.059  0.00  0.00    +0.000 F 
ENDBRANCH   9  10
BRANCH   7  17
ATOM     17  O   UNL     1       5.161   2.963  -2.367  0.00  0.00    +0.000 OA
ATOM     18  H   UNL     1       5.825   2.290  -2.591  0.00  0.00    +0.000 HD
ENDBRANCH   7  17
ENDBRANCH   2   5
BRANCH   3  19
ATOM     19  C   UNL     1       2.207  -2.254   0.982  0.00  0.00    +0.000 C 
BRANCH  19  20
ATOM     20  C   UNL     1       2.037  -2.198   2.479  0.00  0.00    +0.000 A 
ATOM     21  C   UNL     1       0.945  -1.521   3.039  0.00  0.00    +0.000 A 
ATOM     22  C   UNL     1       0.735  -1.532   4.414  0.00  0.00    +0.000 A 
ATOM     23  C   UNL     1       1.604  -2.238   5.249  0.00  0.00    +0.000 A 
ATOM     24  C   UNL     1       2.702  -2.933   4.721  0.00  0.00    +0.000 A 
ATOM     25  C   UNL     1       2.927  -2.872   3.334  0.00  0.00    +0.000 A 
BRANCH  24  26
ATOM     26  C   UNL     1       3.524  -3.771   5.593  0.00  0.00    +0.000 A 
ATOM     27  C   UNL     1       3.414  -4.182   6.909  0.00  0.00    +0.000 A 
ATOM     28  C   UNL     1       4.479  -5.082   7.150  0.00  0.00    +0.000 A 
ATOM     29  C   UNL     1       5.191  -5.149   5.978  0.00  0.00    +0.000 A 
ATOM     30  O   UNL     1       4.626  -4.356   5.031  0.00  0.00    +0.000 OA
ENDBRANCH  24  26
ENDBRANCH  19  20
ENDBRANCH   3  19
TORSDOF 6
