REMARK  Name = 
REMARK  5 active torsions:
REMARK  status: ('A' for Active; 'I' for Inactive)
REMARK    1  A    between atoms: C_2  and  C_19
REMARK    2  A    between atoms: N_3  and  C_4
REMARK    3  A    between atoms: C_4  and  C_5
REMARK    4  A    between atoms: C_8  and  O_9
REMARK    5  A    between atoms: O_9  and  C_10
REMARK                            x       y       z     vdW  Elec       q    Type
REMARK                         _______ _______ _______ _____ _____    ______ ____
ROOT
ATOM      1  O   UNL     1       3.799   1.132  -1.389  0.00  0.00    +0.000 OA
ATOM      2  C   UNL     1       3.507   0.192  -0.660  0.00  0.00    +0.000 C 
ATOM      3  N   UNL     1       2.875  -0.952  -1.081  0.00  0.00    +0.000 N 
ATOM      4  H   UNL     1       2.731  -1.720  -0.440  0.00  0.00    +0.000 HD
ENDROOT
BRANCH   2   5
ATOM      5  C   UNL     1       3.793   0.283   0.788  0.00  0.00    +0.000 A 
ATOM      6  C   UNL     1       4.883   1.041   1.244  0.00  0.00    +0.000 A 
ATOM      7  C   UNL     1       5.052   1.302   2.619  0.00  0.00    +0.000 A 
ATOM      8  C   UNL     1       4.117   0.843   3.552  0.00  0.00    +0.000 A 
ATOM      9  C   UNL     1       3.060   0.110   3.064  0.00  0.00    +0.000 A 
ATOM     10  C   UNL     1       2.904  -0.197   1.729  0.00  0.00    +0.000 A 
ATOM     11  O   UNL     1       1.728  -0.896   1.489  0.00  0.00    +0.000 OA
ATOM     12  C   UNL     1       1.131  -0.933   2.751  0.00  0.00    +0.000 A 
ATOM     13  O   UNL     1       0.024  -1.401   2.965  0.00  0.00    +0.000 OA
ATOM     14  N   UNL     1       1.946  -0.361   3.696  0.00  0.00    +0.000 N 
ATOM     15  H   UNL     1       1.669  -0.220   4.655  0.00  0.00    +0.000 HD
ENDBRANCH   2   5
BRANCH   3  16
ATOM     16  C   UNL     1       2.290  -1.058  -2.392  0.00  0.00    +0.000 C 
BRANCH  16  17
ATOM     17  C   UNL     1       3.261  -1.609  -3.386  0.00  0.00    +0.000 A 
ATOM     18  C   UNL     1       4.091  -0.761  -4.130  0.00  0.00    +0.000 A 
ATOM     19  C   UNL     1       4.968  -1.284  -5.078  0.00  0.00    +0.000 A 
ATOM     20  C   UNL     1       5.033  -2.663  -5.279  0.00  0.00    +0.000 A 
ATOM     21  C   UNL     1       4.280  -3.519  -4.477  0.00  0.00    +0.000 A 
ATOM     22  C   UNL     1       3.382  -2.989  -3.556  0.00  0.00    +0.000 A 
ATOM     23  F   UNL     1       2.624  -3.822  -2.841  0.00  0.00    +0.000 F 
BRANCH  20  24
ATOM     24  O   UNL     1       5.901  -3.089  -6.263  0.00  0.00    +0.000 OA
BRANCH  24  25
ATOM     25  C   UNL     1       5.593  -4.207  -7.010  0.00  0.00    +0.000 A 
ATOM     26  C   UNL     1       4.294  -4.607  -7.339  0.00  0.00    +0.000 A 
ATOM     27  C   UNL     1       4.088  -5.781  -8.065  0.00  0.00    +0.000 A 
ATOM     28  C   UNL     1       5.179  -6.520  -8.518  0.00  0.00    +0.000 A 
ATOM     29  C   UNL     1       6.476  -6.082  -8.254  0.00  0.00    +0.000 A 
ATOM     30  C   UNL     1       6.682  -4.926  -7.501  0.00  0.00    +0.000 A 
ENDBRANCH  24  25
ENDBRANCH  20  24
ENDBRANCH  16  17
ENDBRANCH   3  16
TORSDOF 5
