REMARK  Name = 
REMARK  7 active torsions:
REMARK  status: ('A' for Active; 'I' for Inactive)
REMARK    1  A    between atoms: C_1  and  N_2
REMARK    2  A    between atoms: C_3  and  C_5
REMARK    3  A    between atoms: C_6  and  C_7
REMARK    4  A    between atoms: C_7  and  N_8
REMARK    5  A    between atoms: C_9  and  C_11
REMARK    6  A    between atoms: C_15  and  O_16
REMARK    7  A    between atoms: O_16  and  C_17
REMARK                            x       y       z     vdW  Elec       q    Type
REMARK                         _______ _______ _______ _____ _____    ______ ____
ROOT
ATOM      1  N   UNL     1       6.149  -2.580  -3.799  0.00  0.00    +0.000 N 
ATOM      2  C   UNL     1       5.930  -3.125  -5.044  0.00  0.00    +0.000 C 
ATOM      3  O   UNL     1       4.824  -3.257  -5.550  0.00  0.00    +0.000 OA
ATOM      4  H   UNL     1       7.084  -2.453  -3.447  0.00  0.00    +0.000 HD
ENDROOT
BRANCH   2   5
ATOM      5  C   UNL     1       7.149  -3.533  -5.794  0.00  0.00    +0.000 A 
ATOM      6  C   UNL     1       8.312  -3.938  -5.124  0.00  0.00    +0.000 A 
ATOM      7  C   UNL     1       9.456  -4.263  -5.848  0.00  0.00    +0.000 A 
ATOM      8  C   UNL     1       9.432  -4.212  -7.239  0.00  0.00    +0.000 A 
ATOM      9  C   UNL     1       8.250  -3.892  -7.917  0.00  0.00    +0.000 A 
ATOM     10  C   UNL     1       7.115  -3.523  -7.194  0.00  0.00    +0.000 A 
BRANCH   9  11
ATOM     11  O   UNL     1       8.160  -3.854  -9.291  0.00  0.00    +0.000 OA
BRANCH  11  12
ATOM     12  C   UNL     1       8.793  -4.863 -10.012  0.00  0.00    +0.000 A 
ATOM     13  C   UNL     1       9.123  -4.573 -11.327  0.00  0.00    +0.000 A 
ATOM     14  C   UNL     1       9.786  -5.548 -12.069  0.00  0.00    +0.000 A 
ATOM     15  C   UNL     1      10.087  -6.771 -11.477  0.00  0.00    +0.000 A 
ATOM     16  C   UNL     1       9.694  -6.978 -10.166  0.00  0.00    +0.000 A 
ATOM     17  N   UNL     1       9.045  -6.057  -9.426  0.00  0.00    +0.000 NA
ENDBRANCH  11  12
ENDBRANCH   9  11
ENDBRANCH   2   5
BRANCH   1  18
ATOM     18  C   UNL     1       5.070  -2.197  -2.927  0.00  0.00    +0.000 C 
BRANCH  18  20
ATOM     19  C   UNL     1       4.260  -0.175  -1.632  0.00  0.00    +0.000 A 
ATOM     20  C   UNL     1       5.165  -0.763  -2.512  0.00  0.00    +0.000 A 
ATOM     21  C   UNL     1       6.094   0.275  -2.863  0.00  0.00    +0.000 A 
ATOM     22  C   UNL     1       7.238   0.399  -3.682  0.00  0.00    +0.000 A 
ATOM     23  C   UNL     1       7.908   1.630  -3.754  0.00  0.00    +0.000 A 
ATOM     24  C   UNL     1       7.451   2.737  -3.041  0.00  0.00    +0.000 A 
ATOM     25  C   UNL     1       6.314   2.649  -2.233  0.00  0.00    +0.000 A 
ATOM     26  C   UNL     1       5.677   1.409  -2.173  0.00  0.00    +0.000 A 
ATOM     27  O   UNL     1       4.568   1.141  -1.435  0.00  0.00    +0.000 OA
BRANCH  19  30
ATOM     28  C   UNL     1       1.210  -0.291   0.520  0.00  0.00    +0.000 C 
ATOM     29  N   UNL     1       2.367   0.141  -0.215  0.00  0.00    +0.000 N 
ATOM     30  C   UNL     1       3.120  -0.754  -0.944  0.00  0.00    +0.000 C 
ATOM     31  O   UNL     1       2.837  -1.947  -0.993  0.00  0.00    +0.000 OA
ATOM     32  H   UNL     1       2.665   1.109  -0.198  0.00  0.00    +0.000 HD
ENDBRANCH  19  30
ENDBRANCH  18  20
ENDBRANCH   1  18
TORSDOF 6
