REMARK  Name = 
REMARK  8 active torsions:
REMARK  status: ('A' for Active; 'I' for Inactive)
REMARK    1  A    between atoms: C_1  and  O_2
REMARK    2  A    between atoms: O_2  and  C_3
REMARK    3  A    between atoms: C_3  and  C_4
REMARK    4  A    between atoms: C_7  and  C_8
REMARK    5  A    between atoms: C_8  and  N_9
REMARK    6  A    between atoms: C_10  and  C_12
REMARK    7  A    between atoms: C_16  and  C_17
REMARK    8  A    between atoms: N_19  and  C_20
REMARK                            x       y       z     vdW  Elec       q    Type
REMARK                         _______ _______ _______ _____ _____    ______ ____
ROOT
ATOM      1  C   UNL     1      11.063  -3.640   0.340  0.00  0.00    +0.000 A 
ATOM      2  C   UNL     1      10.520  -4.327  -0.739  0.00  0.00    +0.000 A 
ATOM      3  N   UNL     1      11.221  -5.492  -0.920  0.00  0.00    +0.000 N 
ATOM      4  C   UNL     1      12.197  -5.591   0.034  0.00  0.00    +0.000 A 
ATOM      5  C   UNL     1      12.117  -4.474   0.838  0.00  0.00    +0.000 A 
ATOM      6  H   UNL     1      11.052  -6.171  -1.652  0.00  0.00    +0.000 HD
ENDROOT
BRANCH   5   7
ATOM      7  C   UNL     1      12.939  -4.206   2.008  0.00  0.00    +0.000 A 
ATOM      8  C   UNL     1      12.595  -3.538   3.156  0.00  0.00    +0.000 A 
ATOM      9  N   UNL     1      13.702  -3.533   3.973  0.00  0.00    +0.000 N 
ATOM     10  N   UNL     1      14.741  -4.205   3.401  0.00  0.00    +0.000 NA
ATOM     11  C   UNL     1      14.264  -4.613   2.222  0.00  0.00    +0.000 A 
BRANCH   9  12
ATOM     12  C   UNL     1      13.811  -2.971   5.275  0.00  0.00    +0.000 A 
ATOM     13  C   UNL     1      12.707  -2.370   5.899  0.00  0.00    +0.000 A 
ATOM     14  C   UNL     1      12.822  -1.878   7.200  0.00  0.00    +0.000 A 
ATOM     15  C   UNL     1      14.034  -1.971   7.880  0.00  0.00    +0.000 A 
ATOM     16  C   UNL     1      15.141  -2.545   7.257  0.00  0.00    +0.000 A 
ATOM     17  C   UNL     1      15.033  -3.044   5.958  0.00  0.00    +0.000 A 
ENDBRANCH   9  12
ENDBRANCH   5   7
BRANCH   1  19
ATOM     18  N   UNL     1       9.317  -2.024   0.628  0.00  0.00    +0.000 N 
ATOM     19  C   UNL     1      10.655  -2.309   0.794  0.00  0.00    +0.000 C 
ATOM     20  O   UNL     1      11.441  -1.502   1.283  0.00  0.00    +0.000 OA
ATOM     21  H   UNL     1       8.694  -2.767   0.352  0.00  0.00    +0.000 HD
BRANCH  18  22
ATOM     22  C   UNL     1       8.764  -0.752   1.025  0.00  0.00    +0.000 C 
BRANCH  22  26
ATOM     23  C   UNL     1       7.159  -0.801   5.056  0.00  0.00    +0.000 A 
ATOM     24  C   UNL     1       8.497  -0.453   4.824  0.00  0.00    +0.000 A 
ATOM     25  C   UNL     1       9.017  -0.449   3.524  0.00  0.00    +0.000 A 
ATOM     26  C   UNL     1       8.208  -0.780   2.426  0.00  0.00    +0.000 A 
ATOM     27  C   UNL     1       6.874  -1.135   2.660  0.00  0.00    +0.000 A 
ATOM     28  C   UNL     1       6.366  -1.141   3.959  0.00  0.00    +0.000 A 
ATOM     29  F   UNL     1       5.084  -1.489   4.141  0.00  0.00    +0.000 F 
BRANCH  23  30
ATOM     30  C   UNL     1       6.597  -0.840   6.450  0.00  0.00    +0.000 C 
BRANCH  30  32
ATOM     31  C   UNL     1       6.153   0.467   8.356  0.00  0.00    +0.000 C 
ATOM     32  O   UNL     1       6.710   0.452   7.048  0.00  0.00    +0.000 OA
ENDBRANCH  30  32
ENDBRANCH  23  30
ENDBRANCH  22  26
ENDBRANCH  18  22
ENDBRANCH   1  19
TORSDOF 7
