REMARK  Name = 
REMARK  4 active torsions:
REMARK  status: ('A' for Active; 'I' for Inactive)
REMARK    1  A    between atoms: C_2  and  C_15
REMARK    2  A    between atoms: N_3  and  C_4
REMARK    3  A    between atoms: C_17  and  N_18
REMARK    4  A    between atoms: C_22  and  C_23
REMARK                            x       y       z     vdW  Elec       q    Type
REMARK                         _______ _______ _______ _____ _____    ______ ____
ROOT
ATOM      1  O   UNL     1       2.896   0.736   0.548  0.00  0.00    +0.000 OA
ATOM      2  C   UNL     1       2.264  -0.016  -0.180  0.00  0.00    +0.000 C 
ATOM      3  N   UNL     1       0.873  -0.050  -0.337  0.00  0.00    +0.000 N 
ATOM      4  H   UNL     1       0.491  -0.875  -0.761  0.00  0.00    +0.000 HD
ENDROOT
BRANCH   3   5
ATOM      5  C   UNL     1      -0.004   0.810   0.304  0.00  0.00    +0.000 A 
ATOM      6  C   UNL     1       0.386   2.041   0.689  0.00  0.00    +0.000 A 
ATOM      7  C   UNL     1      -0.476   2.929   1.488  0.00  0.00    +0.000 A 
ATOM      8  O   UNL     1      -0.101   4.055   1.819  0.00  0.00    +0.000 OA
ATOM      9  N   UNL     1      -1.700   2.446   1.834  0.00  0.00    +0.000 N 
ATOM     10  C   UNL     1      -2.187   1.204   1.410  0.00  0.00    +0.000 A 
ATOM     11  C   UNL     1      -3.473   0.829   1.788  0.00  0.00    +0.000 A 
ATOM     12  C   UNL     1      -3.949  -0.382   1.323  0.00  0.00    +0.000 A 
ATOM     13  N   UNL     1      -3.228  -1.216   0.546  0.00  0.00    +0.000 NA
ATOM     14  C   UNL     1      -1.966  -0.824   0.225  0.00  0.00    +0.000 A 
ATOM     15  C   UNL     1      -1.384   0.378   0.615  0.00  0.00    +0.000 A 
ATOM     16  H   UNL     1      -2.262   3.058   2.409  0.00  0.00    +0.000 HD
ENDBRANCH   3   5
BRANCH   2  17
ATOM     17  C   UNL     1       2.995  -1.073  -0.901  0.00  0.00    +0.000 A 
ATOM     18  C   UNL     1       2.540  -1.470  -2.149  0.00  0.00    +0.000 A 
ATOM     19  C   UNL     1       3.120  -2.565  -2.782  0.00  0.00    +0.000 A 
ATOM     20  C   UNL     1       4.158  -3.263  -2.150  0.00  0.00    +0.000 A 
ATOM     21  C   UNL     1       4.655  -2.818  -0.923  0.00  0.00    +0.000 A 
ATOM     22  C   UNL     1       4.075  -1.715  -0.295  0.00  0.00    +0.000 A 
BRANCH  19  23
ATOM     23  N   UNL     1       2.585  -3.035  -4.003  0.00  0.00    +0.000 N 
ATOM     24  N   UNL     1       2.584  -4.375  -4.225  0.00  0.00    +0.000 NA
ATOM     25  C   UNL     1       1.861  -4.542  -5.328  0.00  0.00    +0.000 A 
ATOM     26  C   UNL     1       1.448  -3.322  -5.872  0.00  0.00    +0.000 A 
ATOM     27  C   UNL     1       1.956  -2.352  -5.023  0.00  0.00    +0.000 A 
BRANCH  27  28
ATOM     28  C   UNL     1       1.968  -0.886  -5.211  0.00  0.00    +0.000 C 
ATOM     29  F   UNL     1       2.689  -0.179  -4.311  0.00  0.00    +0.000 F 
ATOM     30  F   UNL     1       2.489  -0.562  -6.420  0.00  0.00    +0.000 F 
ATOM     31  F   UNL     1       0.708  -0.379  -5.175  0.00  0.00    +0.000 F 
ENDBRANCH  27  28
ENDBRANCH  19  23
ENDBRANCH   2  17
TORSDOF 4
