REMARK  Name = 
REMARK  7 active torsions:
REMARK  status: ('A' for Active; 'I' for Inactive)
REMARK    1  A    between atoms: C_2  and  C_16
REMARK    2  A    between atoms: N_3  and  C_4
REMARK    3  A    between atoms: C_4  and  C_5
REMARK    4  A    between atoms: C_5  and  C_8
REMARK    5  A    between atoms: C_8  and  O_9
REMARK    6  A    between atoms: C_8  and  C_10
REMARK    7  A    between atoms: N_18  and  C_19
REMARK                            x       y       z     vdW  Elec       q    Type
REMARK                         _______ _______ _______ _____ _____    ______ ____
ROOT
ATOM      1  O   UNL     1       1.012   0.263  -0.209  0.00  0.00    +0.000 OA
ATOM      2  C   UNL     1       2.227   0.087  -0.149  0.00  0.00    +0.000 C 
ATOM      3  N   UNL     1       2.959   0.378   0.968  0.00  0.00    +0.000 N 
ATOM      4  H   UNL     1       3.955   0.242   0.997  0.00  0.00    +0.000 HD
ENDROOT
BRANCH   2   5
ATOM      5  C   UNL     1       2.988  -0.460  -1.313  0.00  0.00    +0.000 A 
ATOM      6  C   UNL     1       2.409  -0.362  -2.521  0.00  0.00    +0.000 A 
ATOM      7  N   UNL     1       2.984  -0.900  -3.668  0.00  0.00    +0.000 N 
ATOM      8  C   UNL     1       4.196  -1.607  -3.612  0.00  0.00    +0.000 A 
ATOM      9  O   UNL     1       4.754  -2.180  -4.547  0.00  0.00    +0.000 OA
ATOM     10  C   UNL     1       4.825  -1.716  -2.267  0.00  0.00    +0.000 A 
ATOM     11  C   UNL     1       4.245  -1.164  -1.192  0.00  0.00    +0.000 A 
BRANCH   7  12
ATOM     12  C   UNL     1       2.287  -0.880  -4.916  0.00  0.00    +0.000 A 
ATOM     13  C   UNL     1       2.927  -0.425  -6.077  0.00  0.00    +0.000 A 
ATOM     14  C   UNL     1       2.266  -0.462  -7.308  0.00  0.00    +0.000 A 
ATOM     15  C   UNL     1       0.973  -0.975  -7.395  0.00  0.00    +0.000 A 
ATOM     16  C   UNL     1       0.322  -1.421  -6.245  0.00  0.00    +0.000 A 
ATOM     17  C   UNL     1       0.972  -1.352  -5.015  0.00  0.00    +0.000 A 
ATOM     18  F   UNL     1       0.330  -1.817  -3.931  0.00  0.00    +0.000 F 
ENDBRANCH   7  12
ENDBRANCH   2   5
BRANCH   3  19
ATOM     19  C   UNL     1       2.304   0.860   2.181  0.00  0.00    +0.000 C 
BRANCH  19  20
ATOM     20  C   UNL     1       3.201   1.756   3.042  0.00  0.00    +0.000 C 
ATOM     21  F   UNL     1       4.298   1.035   3.411  0.00  0.00    +0.000 F 
ATOM     22  F   UNL     1       3.663   2.783   2.279  0.00  0.00    +0.000 F 
BRANCH  20  23
ATOM     23  C   UNL     1       2.451   2.294   4.273  0.00  0.00    +0.000 C 
BRANCH  23  24
ATOM     24  C   UNL     1       3.246   3.288   5.102  0.00  0.00    +0.000 A 
ATOM     25  C   UNL     1       2.744   4.587   5.290  0.00  0.00    +0.000 A 
ATOM     26  C   UNL     1       3.435   5.516   6.071  0.00  0.00    +0.000 A 
ATOM     27  C   UNL     1       4.633   5.157   6.681  0.00  0.00    +0.000 A 
ATOM     28  C   UNL     1       5.152   3.877   6.494  0.00  0.00    +0.000 A 
ATOM     29  C   UNL     1       4.467   2.950   5.705  0.00  0.00    +0.000 A 
ENDBRANCH  23  24
BRANCH  23  30
ATOM     30  O   UNL     1       1.997   1.225   5.111  0.00  0.00    +0.000 OA
ATOM     31  H   UNL     1       2.777   0.849   5.559  0.00  0.00    +0.000 HD
ENDBRANCH  23  30
ENDBRANCH  20  23
ENDBRANCH  19  20
ENDBRANCH   3  19
TORSDOF 7
