REMARK  Name = 
REMARK  5 active torsions:
REMARK  status: ('A' for Active; 'I' for Inactive)
REMARK    1  A    between atoms: N_6  and  C_7
REMARK    2  A    between atoms: C_11  and  C_12
REMARK    3  A    between atoms: C_16  and  O_17
REMARK    4  A    between atoms: O_17  and  C_18
REMARK    5  A    between atoms: C_18  and  C_19
REMARK                            x       y       z     vdW  Elec       q    Type
REMARK                         _______ _______ _______ _____ _____    ______ ____
ROOT
ATOM      1  C   UNL     1       4.487   5.946  -1.502  0.00  0.00    +0.000 A 
ATOM      2  C   UNL     1       5.498   6.755  -0.955  0.00  0.00    +0.000 A 
ATOM      3  F   UNL     1       5.796   6.681   0.351  0.00  0.00    +0.000 F 
ATOM      4  C   UNL     1       6.252   7.637  -1.730  0.00  0.00    +0.000 A 
ATOM      5  C   UNL     1       6.031   7.722  -3.100  0.00  0.00    +0.000 A 
ATOM      6  C   UNL     1       5.003   6.977  -3.668  0.00  0.00    +0.000 A 
ATOM      7  C   UNL     1       4.254   6.104  -2.877  0.00  0.00    +0.000 A 
ATOM      8  F   UNL     1       3.286   5.404  -3.489  0.00  0.00    +0.000 F 
ENDROOT
BRANCH   1  13
ATOM      9  C   UNL     1       2.689   2.772  -0.379  0.00  0.00    +0.000 A 
ATOM     10  C   UNL     1       2.350   3.101   0.937  0.00  0.00    +0.000 A 
ATOM     11  C   UNL     1       2.683   4.353   1.443  0.00  0.00    +0.000 A 
ATOM     12  C   UNL     1       3.348   5.281   0.638  0.00  0.00    +0.000 A 
ATOM     13  C   UNL     1       3.731   4.976  -0.679  0.00  0.00    +0.000 A 
ATOM     14  C   UNL     1       3.393   3.698  -1.170  0.00  0.00    +0.000 A 
BRANCH   9  20
ATOM     15  N   UNL     1       0.388   0.793   0.342  0.00  0.00    +0.000 N 
ATOM     16  C   UNL     1       1.412   0.560  -0.519  0.00  0.00    +0.000 A 
ATOM     17  N   UNL     1       1.614  -0.543  -1.204  0.00  0.00    +0.000 NA
ATOM     18  N   UNL     1       2.627  -0.275  -2.085  0.00  0.00    +0.000 NA
ATOM     19  N   UNL     1       3.050   0.974  -1.963  0.00  0.00    +0.000 NA
ATOM     20  N   UNL     1       2.374   1.497  -0.910  0.00  0.00    +0.000 N 
ATOM     21  H   UNL     1      -0.349   0.091   0.316  0.00  0.00    +0.000 HD
ATOM     22  H   UNL     1      -0.002   1.732   0.379  0.00  0.00    +0.000 HD
ENDBRANCH   9  20
ENDBRANCH   1  13
BRANCH   5  23
ATOM     23  O   UNL     1       6.875   8.552  -3.785  0.00  0.00    +0.000 OA
BRANCH  23  24
ATOM     24  C   UNL     1       7.023   8.248  -5.174  0.00  0.00    +0.000 C 
BRANCH  24  25
ATOM     25  C   UNL     1       8.315   8.828  -5.689  0.00  0.00    +0.000 A 
ATOM     26  C   UNL     1       9.338   7.980  -6.139  0.00  0.00    +0.000 A 
ATOM     27  C   UNL     1      10.519   8.511  -6.658  0.00  0.00    +0.000 A 
ATOM     28  C   UNL     1      10.691   9.890  -6.726  0.00  0.00    +0.000 A 
ATOM     29  C   UNL     1       9.686  10.742  -6.268  0.00  0.00    +0.000 A 
ATOM     30  C   UNL     1       8.502  10.213  -5.748  0.00  0.00    +0.000 A 
ENDBRANCH  24  25
ENDBRANCH  23  24
ENDBRANCH   5  23
TORSDOF 5
