REMARK  Name = 
REMARK  4 active torsions:
REMARK  status: ('A' for Active; 'I' for Inactive)
REMARK    1  A    between atoms: C_1  and  O_2
REMARK    2  A    between atoms: O_2  and  C_3
REMARK    3  A    between atoms: C_10  and  N_11
REMARK    4  A    between atoms: C_12  and  C_14
REMARK                            x       y       z     vdW  Elec       q    Type
REMARK                         _______ _______ _______ _____ _____    ______ ____
ROOT
ATOM      1  N   UNL     1      -0.024   0.234  -4.742  0.00  0.00    +0.000 N 
ATOM      2  C   UNL     1      -0.486   0.226  -6.047  0.00  0.00    +0.000 C 
ATOM      3  O   UNL     1       0.060  -0.306  -7.010  0.00  0.00    +0.000 OA
ATOM      4  H   UNL     1      -0.597   0.730  -4.057  0.00  0.00    +0.000 HD
ENDROOT
BRANCH   2   5
ATOM      5  C   UNL     1      -1.792   0.923  -6.240  0.00  0.00    +0.000 A 
ATOM      6  C   UNL     1      -2.330   1.002  -7.471  0.00  0.00    +0.000 A 
ATOM      7  N   UNL     1      -3.540   1.575  -7.780  0.00  0.00    +0.000 N 
ATOM      8  C   UNL     1      -4.403   1.994  -6.757  0.00  0.00    +0.000 A 
ATOM      9  C   UNL     1      -3.950   2.002  -5.421  0.00  0.00    +0.000 A 
ATOM     10  C   UNL     1      -4.766   2.437  -4.378  0.00  0.00    +0.000 A 
ATOM     11  C   UNL     1      -6.043   2.882  -4.674  0.00  0.00    +0.000 A 
ATOM     12  F   UNL     1      -6.840   3.293  -3.677  0.00  0.00    +0.000 F 
ATOM     13  C   UNL     1      -6.500   2.903  -5.989  0.00  0.00    +0.000 A 
ATOM     14  F   UNL     1      -7.736   3.343  -6.263  0.00  0.00    +0.000 F 
ATOM     15  C   UNL     1      -5.685   2.472  -7.035  0.00  0.00    +0.000 A 
ATOM     16  C   UNL     1      -2.582   1.517  -5.131  0.00  0.00    +0.000 A 
ATOM     17  O   UNL     1      -2.132   1.593  -3.989  0.00  0.00    +0.000 OA
ATOM     18  H   UNL     1      -3.926   1.394  -8.702  0.00  0.00    +0.000 HD
ENDBRANCH   2   5
BRANCH   1  26
ATOM     19  C   UNL     1       2.911  -0.881  -0.908  0.00  0.00    +0.000 A 
ATOM     20  C   UNL     1       4.006  -1.615  -0.451  0.00  0.00    +0.000 A 
ATOM     21  C   UNL     1       4.749  -2.318  -1.372  0.00  0.00    +0.000 A 
ATOM     22  N   UNL     1       4.462  -2.361  -2.683  0.00  0.00    +0.000 NA
ATOM     23  C   UNL     1       3.381  -1.698  -3.115  0.00  0.00    +0.000 A 
ATOM     24  C   UNL     1       3.099  -1.776  -4.464  0.00  0.00    +0.000 A 
ATOM     25  C   UNL     1       1.993  -1.142  -5.026  0.00  0.00    +0.000 A 
ATOM     26  C   UNL     1       1.130  -0.398  -4.232  0.00  0.00    +0.000 A 
ATOM     27  C   UNL     1       1.412  -0.286  -2.858  0.00  0.00    +0.000 A 
ATOM     28  C   UNL     1       2.541  -0.936  -2.277  0.00  0.00    +0.000 A 
BRANCH  19  30
ATOM     29  C   UNL     1       2.893   0.438   1.046  0.00  0.00    +0.000 C 
ATOM     30  O   UNL     1       2.157  -0.102  -0.056  0.00  0.00    +0.000 OA
ENDBRANCH  19  30
ENDBRANCH   1  26
TORSDOF 3
