REMARK  Name = 
REMARK  7 active torsions:
REMARK  status: ('A' for Active; 'I' for Inactive)
REMARK    1  A    between atoms: C_1  and  O_2
REMARK    2  A    between atoms: O_2  and  C_3
REMARK    3  A    between atoms: C_6  and  C_7
REMARK    4  A    between atoms: C_7  and  C_9
REMARK    5  A    between atoms: C_14  and  C_15
REMARK    6  A    between atoms: N_17  and  C_18
REMARK    7  A    between atoms: C_18  and  C_19
REMARK                            x       y       z     vdW  Elec       q    Type
REMARK                         _______ _______ _______ _____ _____    ______ ____
ROOT
ATOM      1  C   UNL     1       4.791   2.470  -5.567  0.00  0.00    +0.000 A 
ATOM      2  C   UNL     1       4.754   3.859  -5.292  0.00  0.00    +0.000 A 
ATOM      3  C   UNL     1       4.320   4.787  -6.236  0.00  0.00    +0.000 A 
ATOM      4  C   UNL     1       3.886   4.345  -7.473  0.00  0.00    +0.000 A 
ATOM      5  C   UNL     1       3.859   2.974  -7.745  0.00  0.00    +0.000 A 
ATOM      6  C   UNL     1       4.283   2.010  -6.799  0.00  0.00    +0.000 A 
ENDROOT
BRANCH   6   7
ATOM      7  C   UNL     1       4.096   0.588  -7.264  0.00  0.00    +0.000 C 
ATOM      8  O   UNL     1       4.161   0.332  -8.460  0.00  0.00    +0.000 OA
ATOM      9  N   UNL     1       3.745  -0.357  -6.332  0.00  0.00    +0.000 N 
ATOM     10  H   UNL     1       3.999  -0.179  -5.362  0.00  0.00    +0.000 HD
BRANCH   9  11
ATOM     11  C   UNL     1       3.555  -1.758  -6.654  0.00  0.00    +0.000 C 
BRANCH  11  12
ATOM     12  C   UNL     1       2.664  -2.455  -5.636  0.00  0.00    +0.000 A 
ATOM     13  C   UNL     1       1.347  -1.996  -5.468  0.00  0.00    +0.000 A 
ATOM     14  C   UNL     1       0.480  -2.631  -4.578  0.00  0.00    +0.000 A 
ATOM     15  C   UNL     1       1.030  -3.707  -3.902  0.00  0.00    +0.000 A 
ATOM     16  O   UNL     1       0.410  -4.507  -2.991  0.00  0.00    +0.000 OA
ATOM     17  C   UNL     1       1.334  -5.420  -2.585  0.00  0.00    +0.000 A 
ATOM     18  C   UNL     1       2.540  -5.212  -3.221  0.00  0.00    +0.000 A 
ATOM     19  C   UNL     1       2.345  -4.111  -4.087  0.00  0.00    +0.000 A 
ATOM     20  N   UNL     1       3.196  -3.506  -4.954  0.00  0.00    +0.000 NA
ENDBRANCH  11  12
ENDBRANCH   9  11
ENDBRANCH   6   7
BRANCH   1  21
ATOM     21  C   UNL     1       5.359   1.591  -4.498  0.00  0.00    +0.000 C 
ATOM     22  O   UNL     1       4.981   0.433  -4.355  0.00  0.00    +0.000 OA
BRANCH  21  26
ATOM     23  C   UNL     1       7.872   3.206  -1.446  0.00  0.00    +0.000 A 
ATOM     24  C   UNL     1       8.119   3.543  -2.780  0.00  0.00    +0.000 A 
ATOM     25  C   UNL     1       7.351   2.978  -3.803  0.00  0.00    +0.000 A 
ATOM     26  C   UNL     1       6.309   2.103  -3.483  0.00  0.00    +0.000 A 
ATOM     27  C   UNL     1       6.095   1.722  -2.155  0.00  0.00    +0.000 A 
ATOM     28  C   UNL     1       6.873   2.278  -1.143  0.00  0.00    +0.000 A 
BRANCH  23  30
ATOM     29  C   UNL     1       9.539   4.670  -0.607  0.00  0.00    +0.000 C 
ATOM     30  O   UNL     1       8.526   3.707  -0.356  0.00  0.00    +0.000 OA
ENDBRANCH  23  30
ENDBRANCH  21  26
ENDBRANCH   1  21
TORSDOF 6
