REMARK  Name = 
REMARK  6 active torsions:
REMARK  status: ('A' for Active; 'I' for Inactive)
REMARK    1  A    between atoms: C_2  and  C_16
REMARK    2  A    between atoms: N_3  and  C_4
REMARK    3  A    between atoms: C_4  and  C_5
REMARK    4  A    between atoms: C_5  and  C_6
REMARK    5  A    between atoms: C_18  and  C_19
REMARK    6  A    between atoms: C_28  and  O_29
REMARK                            x       y       z     vdW  Elec       q    Type
REMARK                         _______ _______ _______ _____ _____    ______ ____
ROOT
ATOM      1  O   UNL     1       1.162  -0.096   0.430  0.00  0.00    +0.000 OA
ATOM      2  C   UNL     1       2.354  -0.049   0.139  0.00  0.00    +0.000 C 
ATOM      3  N   UNL     1       3.041  -1.124  -0.380  0.00  0.00    +0.000 N 
ATOM      4  H   UNL     1       3.961  -0.954  -0.775  0.00  0.00    +0.000 HD
ENDROOT
BRANCH   2   5
ATOM      5  C   UNL     1       3.124   1.186   0.405  0.00  0.00    +0.000 A 
ATOM      6  C   UNL     1       2.639   2.060   1.385  0.00  0.00    +0.000 A 
ATOM      7  C   UNL     1       3.341   3.223   1.744  0.00  0.00    +0.000 A 
ATOM      8  C   UNL     1       4.521   3.452   1.030  0.00  0.00    +0.000 A 
ATOM      9  N   UNL     1       5.017   2.645   0.052  0.00  0.00    +0.000 NA
ATOM     10  C   UNL     1       4.303   1.538  -0.221  0.00  0.00    +0.000 A 
BRANCH   7  11
ATOM     11  C   UNL     1       2.848   4.120   2.812  0.00  0.00    +0.000 A 
ATOM     12  C   UNL     1       2.151   3.607   3.925  0.00  0.00    +0.000 A 
ATOM     13  C   UNL     1       1.636   4.446   4.921  0.00  0.00    +0.000 A 
ATOM     14  C   UNL     1       1.820   5.822   4.839  0.00  0.00    +0.000 A 
ATOM     15  C   UNL     1       2.523   6.355   3.764  0.00  0.00    +0.000 A 
ATOM     16  C   UNL     1       3.024   5.513   2.769  0.00  0.00    +0.000 A 
ATOM     17  F   UNL     1       3.675   6.085   1.744  0.00  0.00    +0.000 F 
ENDBRANCH   7  11
BRANCH  10  18
ATOM     18  O   UNL     1       4.872   0.793  -1.204  0.00  0.00    +0.000 OA
ATOM     19  H   UNL     1       5.612   1.385  -1.443  0.00  0.00    +0.000 HD
ENDBRANCH  10  18
ENDBRANCH   2   5
BRANCH   3  20
ATOM     20  C   UNL     1       2.346  -2.363  -0.674  0.00  0.00    +0.000 C 
BRANCH  20  21
ATOM     21  C   UNL     1       3.296  -3.489  -1.068  0.00  0.00    +0.000 C 
BRANCH  21  22
ATOM     22  C   UNL     1       2.570  -4.752  -1.404  0.00  0.00    +0.000 A 
ATOM     23  C   UNL     1       2.067  -5.094  -2.651  0.00  0.00    +0.000 A 
ATOM     24  N   UNL     1       1.475  -6.327  -2.558  0.00  0.00    +0.000 N 
ATOM     25  C   UNL     1       1.583  -6.797  -1.279  0.00  0.00    +0.000 A 
ATOM     26  N   UNL     1       1.107  -7.987  -0.869  0.00  0.00    +0.000 NA
ATOM     27  C   UNL     1       1.338  -8.215   0.448  0.00  0.00    +0.000 A 
ATOM     28  C   UNL     1       1.986  -7.345   1.310  0.00  0.00    +0.000 A 
ATOM     29  F   UNL     1       2.160  -7.675   2.597  0.00  0.00    +0.000 F 
ATOM     30  C   UNL     1       2.459  -6.124   0.839  0.00  0.00    +0.000 A 
ATOM     31  C   UNL     1       2.254  -5.837  -0.523  0.00  0.00    +0.000 A 
ATOM     32  H   UNL     1       1.021  -6.833  -3.302  0.00  0.00    +0.000 HD
ENDBRANCH  21  22
ENDBRANCH  20  21
ENDBRANCH   3  20
TORSDOF 6
