REMARK  Name = 
REMARK  4 active torsions:
REMARK  status: ('A' for Active; 'I' for Inactive)
REMARK    1  A    between atoms: C_1  and  C_2
REMARK    2  A    between atoms: C_6  and  C_8
REMARK    3  A    between atoms: N_10  and  C_11
REMARK    4  A    between atoms: N_23  and  C_24
REMARK                            x       y       z     vdW  Elec       q    Type
REMARK                         _______ _______ _______ _____ _____    ______ ____
ROOT
ATOM      1  C   UNL     1       2.498  -2.461   0.041  0.00  0.00    +0.000 C 
ATOM      2  C   UNL     1       3.097  -1.103   0.078  0.00  0.00    +0.000 A 
ATOM      3  C   UNL     1       4.427  -0.732   0.157  0.00  0.00    +0.000 A 
ATOM      4  C   UNL     1       4.448   0.664  -0.045  0.00  0.00    +0.000 A 
ATOM      5  N   UNL     1       5.590   1.438  -0.023  0.00  0.00    +0.000 N 
ATOM      6  C   UNL     1       5.606   2.814  -0.163  0.00  0.00    +0.000 C 
ATOM      7  O   UNL     1       4.650   3.558  -0.340  0.00  0.00    +0.000 OA
ATOM      8  N   UNL     1       3.226   1.122  -0.287  0.00  0.00    +0.000 NA
ATOM      9  N   UNL     1       2.390   0.081  -0.077  0.00  0.00    +0.000 N 
ATOM     10  H   UNL     1       6.465   0.948   0.150  0.00  0.00    +0.000 HD
ENDROOT
BRANCH   6  11
ATOM     11  C   UNL     1       6.996   3.456  -0.066  0.00  0.00    +0.000 A 
ATOM     12  N   UNL     1       7.056   4.756  -0.201  0.00  0.00    +0.000 NA
ATOM     13  N   UNL     1       8.280   5.378  -0.149  0.00  0.00    +0.000 N 
ATOM     14  C   UNL     1       9.446   4.682   0.101  0.00  0.00    +0.000 A 
ATOM     15  C   UNL     1       9.524   3.365   0.279  0.00  0.00    +0.000 A 
ATOM     16  C   UNL     1       8.250   2.647   0.185  0.00  0.00    +0.000 A 
ATOM     17  O   UNL     1       8.184   1.432   0.322  0.00  0.00    +0.000 OA
BRANCH  13  18
ATOM     18  C   UNL     1       8.237   6.802  -0.302  0.00  0.00    +0.000 A 
ATOM     19  C   UNL     1       7.107   7.529   0.124  0.00  0.00    +0.000 A 
ATOM     20  C   UNL     1       7.058   8.926   0.033  0.00  0.00    +0.000 A 
ATOM     21  C   UNL     1       8.129   9.630  -0.510  0.00  0.00    +0.000 A 
ATOM     22  C   UNL     1       9.246   8.936  -0.967  0.00  0.00    +0.000 A 
ATOM     23  C   UNL     1       9.294   7.544  -0.861  0.00  0.00    +0.000 A 
ATOM     24  F   UNL     1      10.384   6.929  -1.348  0.00  0.00    +0.000 F 
ENDBRANCH  13  18
ENDBRANCH   6  11
BRANCH   9  25
ATOM     25  C   UNL     1       0.989   0.318  -0.030  0.00  0.00    +0.000 A 
ATOM     26  C   UNL     1       0.453   1.377  -0.778  0.00  0.00    +0.000 A 
ATOM     27  C   UNL     1      -0.914   1.652  -0.724  0.00  0.00    +0.000 A 
ATOM     28  C   UNL     1      -1.745   0.899   0.104  0.00  0.00    +0.000 A 
ATOM     29  C   UNL     1      -1.213  -0.136   0.871  0.00  0.00    +0.000 A 
ATOM     30  C   UNL     1       0.151  -0.434   0.801  0.00  0.00    +0.000 A 
ENDBRANCH   9  25
TORSDOF 3
