REMARK  Name = 
REMARK  8 active torsions:
REMARK  status: ('A' for Active; 'I' for Inactive)
REMARK    1  A    between atoms: C_1  and  O_2
REMARK    2  A    between atoms: O_2  and  C_3
REMARK    3  A    between atoms: C_3  and  C_5
REMARK    4  A    between atoms: C_7  and  C_8
REMARK    5  A    between atoms: C_11  and  C_12
REMARK    6  A    between atoms: C_12  and  N_14
REMARK    7  A    between atoms: N_20  and  C_21
REMARK    8  A    between atoms: C_21  and  C_22
REMARK                            x       y       z     vdW  Elec       q    Type
REMARK                         _______ _______ _______ _____ _____    ______ ____
ROOT
ATOM      1  C   UNL     1      10.156  -1.859  -3.426  0.00  0.00    +0.000 C 
ATOM      2  O   UNL     1      10.034  -2.192  -4.598  0.00  0.00    +0.000 OA
ENDROOT
BRANCH   1   9
ATOM      3  C   UNL     1       4.667  -0.959  -1.003  0.00  0.00    +0.000 A 
ATOM      4  C   UNL     1       5.378  -0.605   0.148  0.00  0.00    +0.000 A 
ATOM      5  C   UNL     1       6.788  -0.542   0.165  0.00  0.00    +0.000 A 
ATOM      6  C   UNL     1       7.476  -0.238   1.466  0.00  0.00    +0.000 C 
ATOM      7  C   UNL     1       7.491  -0.829  -1.033  0.00  0.00    +0.000 A 
ATOM      8  C   UNL     1       8.876  -0.848  -1.395  0.00  0.00    +0.000 A 
ATOM      9  C   UNL     1       9.000  -1.419  -2.650  0.00  0.00    +0.000 A 
ATOM     10  N   UNL     1       7.709  -1.548  -3.130  0.00  0.00    +0.000 N 
ATOM     11  C   UNL     1       6.772  -1.230  -2.159  0.00  0.00    +0.000 A 
ATOM     12  C   UNL     1       5.364  -1.290  -2.180  0.00  0.00    +0.000 A 
ATOM     13  H   UNL     1       7.482  -1.914  -4.046  0.00  0.00    +0.000 HD
BRANCH   3  14
ATOM     14  C   UNL     1       3.171  -1.026  -0.997  0.00  0.00    +0.000 C 
ATOM     15  O   UNL     1       2.506  -1.373  -1.959  0.00  0.00    +0.000 OA
BRANCH  14  17
ATOM     16  C   UNL     1       1.250  -0.662   0.323  0.00  0.00    +0.000 C 
ATOM     17  O   UNL     1       2.677  -0.647   0.212  0.00  0.00    +0.000 OA
ENDBRANCH  14  17
ENDBRANCH   3  14
ENDBRANCH   1   9
BRANCH   1  18
ATOM     18  N   UNL     1      11.298  -2.008  -2.659  0.00  0.00    +0.000 NA
ATOM     19  C   UNL     1      12.505  -1.913  -3.172  0.00  0.00    +0.000 A 
ATOM     20  C   UNL     1      12.767  -1.445  -4.601  0.00  0.00    +0.000 A 
ATOM     21  C   UNL     1      14.031  -1.321  -5.039  0.00  0.00    +0.000 A 
ATOM     22  C   UNL     1      15.157  -1.631  -4.199  0.00  0.00    +0.000 A 
ATOM     23  C   UNL     1      14.935  -2.060  -2.953  0.00  0.00    +0.000 A 
ATOM     24  N   UNL     1      13.664  -2.219  -2.395  0.00  0.00    +0.000 N 
BRANCH  24  25
ATOM     25  C   UNL     1      13.559  -2.723  -1.017  0.00  0.00    +0.000 C 
BRANCH  25  26
ATOM     26  C   UNL     1      13.676  -4.235  -0.935  0.00  0.00    +0.000 A 
ATOM     27  C   UNL     1      14.923  -4.883  -0.871  0.00  0.00    +0.000 A 
ATOM     28  C   UNL     1      15.003  -6.277  -0.784  0.00  0.00    +0.000 A 
ATOM     29  C   UNL     1      13.839  -7.041  -0.754  0.00  0.00    +0.000 A 
ATOM     30  C   UNL     1      12.597  -6.412  -0.815  0.00  0.00    +0.000 A 
ATOM     31  C   UNL     1      12.516  -5.021  -0.908  0.00  0.00    +0.000 A 
ENDBRANCH  25  26
ENDBRANCH  24  25
ENDBRANCH   1  18
TORSDOF 6
