REMARK  Name = 
REMARK  5 active torsions:
REMARK  status: ('A' for Active; 'I' for Inactive)
REMARK    1  A    between atoms: C_1  and  C_2
REMARK    2  A    between atoms: C_2  and  N_3
REMARK    3  A    between atoms: C_2  and  C_17
REMARK    4  A    between atoms: C_4  and  C_6
REMARK    5  A    between atoms: C_20  and  C_21
REMARK                            x       y       z     vdW  Elec       q    Type
REMARK                         _______ _______ _______ _____ _____    ______ ____
ROOT
ATOM      1  N   UNL     1       3.028  -0.871  -1.178  0.00  0.00    +0.000 N 
ATOM      2  C   UNL     1       3.259  -2.216  -0.971  0.00  0.00    +0.000 C 
ATOM      3  O   UNL     1       3.120  -2.773   0.111  0.00  0.00    +0.000 OA
ATOM      4  H   UNL     1       3.068  -0.543  -2.138  0.00  0.00    +0.000 HD
ENDROOT
BRANCH   2   5
ATOM      5  C   UNL     1       3.715  -2.978  -2.182  0.00  0.00    +0.000 A 
ATOM      6  C   UNL     1       4.007  -4.326  -2.068  0.00  0.00    +0.000 A 
ATOM      7  C   UNL     1       4.481  -4.976  -3.205  0.00  0.00    +0.000 A 
ATOM      8  C   UNL     1       4.647  -4.306  -4.416  0.00  0.00    +0.000 A 
ATOM      9  C   UNL     1       4.306  -2.959  -4.421  0.00  0.00    +0.000 A 
ATOM     10  N   UNL     1       3.842  -2.271  -3.340  0.00  0.00    +0.000 NA
ATOM     11  N   UNL     1       5.138  -4.933  -5.577  0.00  0.00    +0.000 NA
ATOM     12  C   UNL     1       5.448  -6.183  -5.487  0.00  0.00    +0.000 A 
ATOM     13  N   UNL     1       5.325  -6.922  -4.343  0.00  0.00    +0.000 N 
ATOM     14  C   UNL     1       4.844  -6.402  -3.170  0.00  0.00    +0.000 A 
ATOM     15  O   UNL     1       4.728  -7.078  -2.156  0.00  0.00    +0.000 OA
ATOM     16  H   UNL     1       5.581  -7.899  -4.329  0.00  0.00    +0.000 HD
ENDBRANCH   2   5
BRANCH   1  18
ATOM     17  C   UNL     1       1.018   0.007  -0.070  0.00  0.00    +0.000 C 
ATOM     18  C   UNL     1       2.550   0.001  -0.122  0.00  0.00    +0.000 C 
BRANCH  18  19
ATOM     19  C   UNL     1       3.111   1.404  -0.270  0.00  0.00    +0.000 A 
ATOM     20  C   UNL     1       3.933   1.940   0.731  0.00  0.00    +0.000 A 
ATOM     21  C   UNL     1       4.347   3.277   0.683  0.00  0.00    +0.000 A 
ATOM     22  C   UNL     1       3.966   4.138  -0.365  0.00  0.00    +0.000 A 
ATOM     23  C   UNL     1       3.215   3.556  -1.399  0.00  0.00    +0.000 A 
ATOM     24  F   UNL     1       2.844   4.281  -2.467  0.00  0.00    +0.000 F 
ATOM     25  C   UNL     1       2.796   2.223  -1.361  0.00  0.00    +0.000 A 
BRANCH  22  26
ATOM     26  C   UNL     1       4.277   5.587  -0.298  0.00  0.00    +0.000 A 
ATOM     27  C   UNL     1       5.433   6.066   0.349  0.00  0.00    +0.000 A 
ATOM     28  C   UNL     1       5.651   7.433   0.549  0.00  0.00    +0.000 A 
ATOM     29  C   UNL     1       4.728   8.361   0.080  0.00  0.00    +0.000 A 
ATOM     30  C   UNL     1       3.600   7.923  -0.605  0.00  0.00    +0.000 A 
ATOM     31  C   UNL     1       3.378   6.553  -0.788  0.00  0.00    +0.000 A 
ENDBRANCH  22  26
ENDBRANCH  18  19
ENDBRANCH   1  18
TORSDOF 4
