REMARK  Name = 
REMARK  8 active torsions:
REMARK  status: ('A' for Active; 'I' for Inactive)
REMARK    1  A    between atoms: C_1  and  C_2
REMARK    2  A    between atoms: C_8  and  C_9
REMARK    3  A    between atoms: C_9  and  N_10
REMARK    4  A    between atoms: N_10  and  C_11
REMARK    5  A    between atoms: N_10  and  C_15
REMARK    6  A    between atoms: C_11  and  C_12
REMARK    7  A    between atoms: C_15  and  C_16
REMARK    8  A    between atoms: C_19  and  C_20
REMARK                            x       y       z     vdW  Elec       q    Type
REMARK                         _______ _______ _______ _____ _____    ______ ____
ROOT
ATOM      1  N   UNL     1       4.502  -5.902  -0.172  0.00  0.00    +0.000 NA
ENDROOT
BRANCH   1   2
ATOM      2  C   UNL     1       3.977  -5.761  -1.567  0.00  0.00    +0.000 C 
BRANCH   2   3
ATOM      3  C   UNL     1       2.992  -6.858  -1.983  0.00  0.00    +0.000 C 
ATOM      4  N   UNL     1       2.058  -7.230  -1.062  0.00  0.00    +0.000 N 
ATOM      5  O   UNL     1       2.982  -7.350  -3.108  0.00  0.00    +0.000 OA
ATOM      6  H   UNL     1       2.055  -6.838  -0.130  0.00  0.00    +0.000 HD
ATOM      7  H   UNL     1       1.391  -7.945  -1.319  0.00  0.00    +0.000 HD
ENDBRANCH   2   3
ENDBRANCH   1   2
BRANCH   1   8
ATOM      8  C   UNL     1       5.468  -4.787   0.075  0.00  0.00    +0.000 C 
BRANCH   8  16
ATOM      9  C   UNL     1       1.395   0.272   1.008  0.00  0.00    +0.000 C 
ATOM     10  C   UNL     1       2.432  -0.031  -0.041  0.00  0.00    +0.000 A 
ATOM     11  C   UNL     1       2.469   0.708  -1.163  0.00  0.00    +0.000 A 
ATOM     12  C   UNL     1       3.432   0.454  -2.190  0.00  0.00    +0.000 A 
ATOM     13  C   UNL     1       4.241  -0.607  -2.102  0.00  0.00    +0.000 A 
ATOM     14  C   UNL     1       4.157  -1.515  -0.931  0.00  0.00    +0.000 A 
ATOM     15  N   UNL     1       4.866  -2.606  -0.947  0.00  0.00    +0.000 NA
ATOM     16  C   UNL     1       4.799  -3.425   0.153  0.00  0.00    +0.000 A 
ATOM     17  C   UNL     1       4.181  -3.071   1.281  0.00  0.00    +0.000 A 
ATOM     18  C   UNL     1       3.361  -1.855   1.302  0.00  0.00    +0.000 A 
ATOM     19  O   UNL     1       2.783  -1.603   2.360  0.00  0.00    +0.000 OA
ATOM     20  N   UNL     1       3.310  -1.129   0.115  0.00  0.00    +0.000 N 
ENDBRANCH   8  16
ENDBRANCH   1   8
BRANCH   1  21
ATOM     21  C   UNL     1       5.203  -7.201  -0.029  0.00  0.00    +0.000 C 
BRANCH  21  22
ATOM     22  C   UNL     1       5.697  -7.500   1.375  0.00  0.00    +0.000 A 
ATOM     23  C   UNL     1       4.812  -7.572   2.454  0.00  0.00    +0.000 A 
ATOM     24  C   UNL     1       5.275  -7.910   3.733  0.00  0.00    +0.000 A 
ATOM     25  C   UNL     1       6.631  -8.193   3.980  0.00  0.00    +0.000 A 
ATOM     26  C   UNL     1       7.512  -8.099   2.888  0.00  0.00    +0.000 A 
ATOM     27  C   UNL     1       7.053  -7.760   1.607  0.00  0.00    +0.000 A 
BRANCH  25  28
ATOM     28  C   UNL     1       7.099  -8.575   5.333  0.00  0.00    +0.000 A 
ATOM     29  C   UNL     1       6.316  -9.398   6.166  0.00  0.00    +0.000 A 
ATOM     30  C   UNL     1       6.718  -9.719   7.466  0.00  0.00    +0.000 A 
ATOM     31  C   UNL     1       7.925  -9.236   7.960  0.00  0.00    +0.000 A 
ATOM     32  C   UNL     1       8.734  -8.445   7.149  0.00  0.00    +0.000 A 
ATOM     33  C   UNL     1       8.325  -8.120   5.850  0.00  0.00    +0.000 A 
ENDBRANCH  25  28
ENDBRANCH  21  22
ENDBRANCH   1  21
TORSDOF 7
