REMARK  Name = 
REMARK  6 active torsions:
REMARK  status: ('A' for Active; 'I' for Inactive)
REMARK    1  A    between atoms: C_1  and  C_2
REMARK    2  A    between atoms: C_6  and  C_7
REMARK    3  A    between atoms: N_9  and  C_10
REMARK    4  A    between atoms: C_10  and  C_11
REMARK    5  A    between atoms: C_10  and  C_18
REMARK    6  A    between atoms: N_29  and  C_30
REMARK                            x       y       z     vdW  Elec       q    Type
REMARK                         _______ _______ _______ _____ _____    ______ ____
ROOT
ATOM      1  C   UNL     1       7.279   3.577  -0.372  0.00  0.00    +0.000 C 
ATOM      2  O   UNL     1       6.636   4.612  -0.226  0.00  0.00    +0.000 OA
ATOM      3  N   UNL     1       8.646   3.539  -0.490  0.00  0.00    +0.000 N 
ATOM      4  H   UNL     1       9.086   2.646  -0.686  0.00  0.00    +0.000 HD
ENDROOT
BRANCH   1  10
ATOM      5  C   UNL     1       7.954  -3.696  -0.491  0.00  0.00    +0.000 C 
ATOM      6  C   UNL     1       7.065  -2.480  -0.503  0.00  0.00    +0.000 A 
ATOM      7  C   UNL     1       7.602  -1.250  -0.549  0.00  0.00    +0.000 A 
ATOM      8  C   UNL     1       6.757  -0.065  -0.519  0.00  0.00    +0.000 A 
ATOM      9  N   UNL     1       7.394   1.136  -0.509  0.00  0.00    +0.000 NA
ATOM     10  C   UNL     1       6.595   2.240  -0.427  0.00  0.00    +0.000 A 
ATOM     11  C   UNL     1       5.205   2.186  -0.362  0.00  0.00    +0.000 A 
ATOM     12  C   UNL     1       4.587   0.939  -0.391  0.00  0.00    +0.000 A 
ATOM     13  C   UNL     1       5.380  -0.207  -0.466  0.00  0.00    +0.000 A 
ATOM     14  C   UNL     1       4.787  -1.560  -0.465  0.00  0.00    +0.000 A 
ATOM     15  O   UNL     1       3.562  -1.667  -0.458  0.00  0.00    +0.000 OA
ATOM     16  N   UNL     1       5.676  -2.648  -0.457  0.00  0.00    +0.000 N 
ATOM     17  C   UNL     1       5.097  -3.986  -0.391  0.00  0.00    +0.000 C 
ENDBRANCH   1  10
BRANCH   3  18
ATOM     18  C   UNL     1       9.489   4.721  -0.437  0.00  0.00    +0.000 C 
BRANCH  18  19
ATOM     19  C   UNL     1      10.391   4.655   0.793  0.00  0.00    +0.000 A 
ATOM     20  C   UNL     1      11.351   3.636   0.926  0.00  0.00    +0.000 A 
ATOM     21  C   UNL     1      12.169   3.585   2.048  0.00  0.00    +0.000 A 
ATOM     22  F   UNL     1      13.079   2.608   2.157  0.00  0.00    +0.000 F 
ATOM     23  C   UNL     1      12.058   4.532   3.057  0.00  0.00    +0.000 A 
ATOM     24  C   UNL     1      11.116   5.553   2.939  0.00  0.00    +0.000 A 
ATOM     25  C   UNL     1      10.286   5.615   1.813  0.00  0.00    +0.000 A 
ENDBRANCH  18  19
BRANCH  18  26
ATOM     26  C   UNL     1      10.314   4.892  -1.717  0.00  0.00    +0.000 A 
ATOM     27  C   UNL     1      10.636   6.178  -2.160  0.00  0.00    +0.000 A 
ATOM     28  C   UNL     1      11.515   6.323  -3.230  0.00  0.00    +0.000 A 
ATOM     29  C   UNL     1      12.049   5.190  -3.830  0.00  0.00    +0.000 A 
ATOM     30  C   UNL     1      11.668   3.950  -3.346  0.00  0.00    +0.000 A 
ATOM     31  N   UNL     1      10.817   3.773  -2.312  0.00  0.00    +0.000 NA
ENDBRANCH  18  26
ENDBRANCH   3  18
TORSDOF 4
