REMARK  Name = 
REMARK  5 active torsions:
REMARK  status: ('A' for Active; 'I' for Inactive)
REMARK    1  A    between atoms: C_1  and  C_2
REMARK    2  A    between atoms: C_7  and  C_8
REMARK    3  A    between atoms: N_10  and  C_11
REMARK    4  A    between atoms: C_11  and  C_12
REMARK    5  A    between atoms: C_15  and  C_16
REMARK                            x       y       z     vdW  Elec       q    Type
REMARK                         _______ _______ _______ _____ _____    ______ ____
ROOT
ATOM      1  C   UNL     1       8.888  -1.113   0.279  0.00  0.00    +0.000 C 
ATOM      2  O   UNL     1       9.472  -0.058   0.512  0.00  0.00    +0.000 OA
ATOM      3  N   UNL     1       9.543  -2.307   0.120  0.00  0.00    +0.000 N 
ATOM      4  H   UNL     1       8.998  -3.143  -0.089  0.00  0.00    +0.000 HD
ENDROOT
BRANCH   1  11
ATOM      5  C   UNL     1       0.965  -2.115  -0.345  0.00  0.00    +0.000 C 
ATOM      6  C   UNL     1       2.459  -2.097  -0.241  0.00  0.00    +0.000 A 
ATOM      7  C   UNL     1       3.177  -0.971  -0.100  0.00  0.00    +0.000 A 
ATOM      8  C   UNL     1       4.665  -1.030  -0.010  0.00  0.00    +0.000 A 
ATOM      9  N   UNL     1       5.334   0.068   0.166  0.00  0.00    +0.000 NA
ATOM     10  C   UNL     1       6.697  -0.038   0.262  0.00  0.00    +0.000 A 
ATOM     11  C   UNL     1       7.404  -1.171   0.144  0.00  0.00    +0.000 A 
ATOM     12  C   UNL     1       6.637  -2.410  -0.113  0.00  0.00    +0.000 A 
ATOM     13  O   UNL     1       7.231  -3.475  -0.305  0.00  0.00    +0.000 OA
ATOM     14  N   UNL     1       5.253  -2.286  -0.125  0.00  0.00    +0.000 N 
ATOM     15  C   UNL     1       4.474  -3.425  -0.269  0.00  0.00    +0.000 A 
ATOM     16  C   UNL     1       3.139  -3.370  -0.313  0.00  0.00    +0.000 A 
ENDBRANCH   1  11
BRANCH   3  17
ATOM     17  C   UNL     1      10.977  -2.431   0.177  0.00  0.00    +0.000 C 
BRANCH  17  18
ATOM     18  C   UNL     1      11.421  -3.330   1.300  0.00  0.00    +0.000 A 
ATOM     19  C   UNL     1      11.662  -2.810   2.576  0.00  0.00    +0.000 A 
ATOM     20  C   UNL     1      12.170  -3.626   3.597  0.00  0.00    +0.000 A 
ATOM     21  C   UNL     1      12.447  -4.989   3.379  0.00  0.00    +0.000 A 
ATOM     22  C   UNL     1      12.126  -5.501   2.113  0.00  0.00    +0.000 A 
ATOM     23  F   UNL     1      12.306  -6.803   1.837  0.00  0.00    +0.000 F 
ATOM     24  C   UNL     1      11.620  -4.697   1.090  0.00  0.00    +0.000 A 
BRANCH  21  25
ATOM     25  C   UNL     1      13.046  -5.826   4.438  0.00  0.00    +0.000 A 
ATOM     26  C   UNL     1      13.920  -6.880   4.165  0.00  0.00    +0.000 A 
ATOM     27  C   UNL     1      14.410  -7.659   5.212  0.00  0.00    +0.000 A 
ATOM     28  C   UNL     1      14.036  -7.359   6.512  0.00  0.00    +0.000 A 
ATOM     29  C   UNL     1      13.199  -6.276   6.712  0.00  0.00    +0.000 A 
ATOM     30  N   UNL     1      12.704  -5.507   5.715  0.00  0.00    +0.000 NA
ENDBRANCH  21  25
ENDBRANCH  17  18
ENDBRANCH   3  17
TORSDOF 4
