REMARK  Name = 
REMARK  7 active torsions:
REMARK  status: ('A' for Active; 'I' for Inactive)
REMARK    1  A    between atoms: C_2  and  C_3
REMARK    2  A    between atoms: C_3  and  C_4
REMARK    3  A    between atoms: N_14  and  CA_15
REMARK    4  A    between atoms: CA_15  and  C_16
REMARK    5  A    between atoms: CA_15  and  C_19
REMARK    6  A    between atoms: C_16  and  OXT_18
REMARK    7  A    between atoms: C_23  and  C_24
REMARK                            x       y       z     vdW  Elec       q    Type
REMARK                         _______ _______ _______ _____ _____    ______ ____
ROOT
ATOM      1  CA  UNL     1       4.511  -1.070   0.566  0.00  0.00    +0.000 C 
ENDROOT
BRANCH   1   2
ATOM      2  C   UNL     1       4.955  -2.459   1.038  0.00  0.00    +0.000 A 
ATOM      3  C   UNL     1       5.157  -2.775   2.388  0.00  0.00    +0.000 A 
ATOM      4  C   UNL     1       5.388  -4.088   2.803  0.00  0.00    +0.000 A 
ATOM      5  C   UNL     1       5.395  -5.122   1.878  0.00  0.00    +0.000 A 
ATOM      6  C   UNL     1       5.188  -4.862   0.517  0.00  0.00    +0.000 A 
ATOM      7  C   UNL     1       5.014  -3.518   0.111  0.00  0.00    +0.000 A 
BRANCH   6   8
ATOM      8  C   UNL     1       5.062  -5.978  -0.438  0.00  0.00    +0.000 A 
ATOM      9  C   UNL     1       4.267  -5.849  -1.583  0.00  0.00    +0.000 A 
ATOM     10  C   UNL     1       4.148  -6.918  -2.451  0.00  0.00    +0.000 A 
ATOM     11  N   UNL     1       4.755  -8.105  -2.257  0.00  0.00    +0.000 NA
ATOM     12  C   UNL     1       5.506  -8.228  -1.144  0.00  0.00    +0.000 A 
ATOM     13  C   UNL     1       5.683  -7.215  -0.217  0.00  0.00    +0.000 A 
ENDBRANCH   6   8
ENDBRANCH   1   2
BRANCH   1  16
ATOM     14  O   UNL     1       2.564  -1.877  -1.453  0.00  0.00    +0.000 OA
ATOM     15  C   UNL     1       2.168  -1.444  -0.401  0.00  0.00    +0.000 C 
ATOM     16  N   UNL     1       3.023  -0.963   0.575  0.00  0.00    +0.000 N 
ATOM     17  H   UNL     1       2.600  -0.843   1.485  0.00  0.00    +0.000 HD
BRANCH  15  18
ATOM     18  C   UNL     1       0.678  -1.286  -0.056  0.00  0.00    +0.000 C 
BRANCH  18  19
ATOM     19  C   UNL     1      -0.210  -2.500  -0.031  0.00  0.00    +0.000 A 
ATOM     20  C   UNL     1       0.211  -3.800  -0.244  0.00  0.00    +0.000 A 
ATOM     21  N   UNL     1      -0.603  -4.880  -0.166  0.00  0.00    +0.000 NA
ATOM     22  C   UNL     1      -1.896  -4.692   0.153  0.00  0.00    +0.000 A 
ATOM     23  C   UNL     1      -2.734  -5.787   0.309  0.00  0.00    +0.000 A 
ATOM     24  C   UNL     1      -4.081  -5.639   0.653  0.00  0.00    +0.000 A 
ATOM     25  C   UNL     1      -4.617  -4.370   0.836  0.00  0.00    +0.000 A 
ATOM     26  C   UNL     1      -3.799  -3.253   0.687  0.00  0.00    +0.000 A 
ATOM     27  C   UNL     1      -2.439  -3.410   0.361  0.00  0.00    +0.000 A 
ATOM     28  C   UNL     1      -1.574  -2.316   0.257  0.00  0.00    +0.000 A 
ENDBRANCH  18  19
ENDBRANCH  15  18
ENDBRANCH   1  16
BRANCH   1  29
ATOM     29  C   UNL     1       5.070   0.106   1.452  0.00  0.00    +0.000 C 
ATOM     30  O   UNL     1       6.152   0.119   2.024  0.00  0.00    +0.000 OA
BRANCH  29  31
ATOM     31  OXT UNL     1       4.242   1.186   1.558  0.00  0.00    +0.000 OA
ATOM     32  HXT UNL     1       3.382   1.096   1.107  0.00  0.00    +0.000 HD
ENDBRANCH  29  31
ENDBRANCH   1  29
TORSDOF 7
