REMARK  Name = 
REMARK  6 active torsions:
REMARK  status: ('A' for Active; 'I' for Inactive)
REMARK    1  A    between atoms: C_1  and  C_2
REMARK    2  A    between atoms: N_4  and  C_5
REMARK    3  A    between atoms: C_8  and  C_9
REMARK    4  A    between atoms: N_11  and  C_12
REMARK    5  A    between atoms: C_14  and  N_15
REMARK    6  A    between atoms: C_16  and  C_18
REMARK                            x       y       z     vdW  Elec       q    Type
REMARK                         _______ _______ _______ _____ _____    ______ ____
ROOT
ATOM      1  C   UNL     1      10.939   5.074   1.451  0.00  0.00    +0.000 A 
ATOM      2  C   UNL     1      11.751   5.283   0.335  0.00  0.00    +0.000 A 
ATOM      3  C   UNL     1      12.939   6.005   0.397  0.00  0.00    +0.000 A 
ATOM      4  C   UNL     1      13.353   6.498   1.633  0.00  0.00    +0.000 A 
ATOM      5  C   UNL     1      12.536   6.331   2.760  0.00  0.00    +0.000 A 
ATOM      6  C   UNL     1      11.320   5.638   2.666  0.00  0.00    +0.000 A 
ENDROOT
BRANCH   1   9
ATOM      7  C   UNL     1       9.443   3.470   0.305  0.00  0.00    +0.000 C 
ATOM      8  O   UNL     1      10.193   3.154  -0.614  0.00  0.00    +0.000 OA
ATOM      9  N   UNL     1       9.742   4.327   1.358  0.00  0.00    +0.000 N 
ATOM     10  H   UNL     1       9.087   4.418   2.121  0.00  0.00    +0.000 HD
BRANCH   7  14
ATOM     11  C   UNL     1       5.676   1.457   0.081  0.00  0.00    +0.000 A 
ATOM     12  C   UNL     1       6.194   1.813   1.339  0.00  0.00    +0.000 A 
ATOM     13  C   UNL     1       7.410   2.497   1.444  0.00  0.00    +0.000 A 
ATOM     14  C   UNL     1       8.108   2.839   0.288  0.00  0.00    +0.000 A 
ATOM     15  C   UNL     1       7.589   2.499  -0.968  0.00  0.00    +0.000 A 
ATOM     16  C   UNL     1       6.380   1.819  -1.074  0.00  0.00    +0.000 A 
BRANCH  11  20
ATOM     17  C   UNL     1       1.492  -1.065   1.271  0.00  0.00    +0.000 C 
ATOM     18  C   UNL     1       2.598  -0.443   0.505  0.00  0.00    +0.000 A 
ATOM     19  C   UNL     1       3.658   0.288   1.009  0.00  0.00    +0.000 A 
ATOM     20  N   UNL     1       4.470   0.704  -0.029  0.00  0.00    +0.000 N 
ATOM     21  C   UNL     1       3.903   0.234  -1.197  0.00  0.00    +0.000 A 
ATOM     22  C   UNL     1       2.770  -0.486  -0.895  0.00  0.00    +0.000 A 
ENDBRANCH  11  20
ENDBRANCH   7  14
ENDBRANCH   1   9
BRANCH   3  23
ATOM     23  N   UNL     1      13.718   6.249  -0.759  0.00  0.00    +0.000 N 
ATOM     24  C   UNL     1      13.247   6.152  -2.058  0.00  0.00    +0.000 C 
ATOM     25  O   UNL     1      12.100   5.907  -2.422  0.00  0.00    +0.000 OA
ATOM     26  H   UNL     1      14.634   6.645  -0.608  0.00  0.00    +0.000 HD
BRANCH  24  27
ATOM     27  C   UNL     1      14.222   6.499  -3.116  0.00  0.00    +0.000 A 
ATOM     28  C   UNL     1      15.545   6.566  -3.145  0.00  0.00    +0.000 A 
ATOM     29  O   UNL     1      16.062   6.913  -4.398  0.00  0.00    +0.000 OA
ATOM     30  C   UNL     1      14.902   7.029  -5.158  0.00  0.00    +0.000 A 
ATOM     31  O   UNL     1      14.880   7.313  -6.345  0.00  0.00    +0.000 OA
ATOM     32  N   UNL     1      13.809   6.783  -4.375  0.00  0.00    +0.000 N 
ATOM     33  H   UNL     1      12.850   6.771  -4.683  0.00  0.00    +0.000 HD
ENDBRANCH  24  27
ENDBRANCH   3  23
TORSDOF 5
