REMARK  Name = 
REMARK  6 active torsions:
REMARK  status: ('A' for Active; 'I' for Inactive)
REMARK    1  A    between atoms: C_1  and  C_2
REMARK    2  A    between atoms: C_2  and  N_3
REMARK    3  A    between atoms: N_3  and  C_17
REMARK    4  A    between atoms: C_4  and  C_6
REMARK    5  A    between atoms: C_17  and  C_18
REMARK    6  A    between atoms: C_17  and  C_25
REMARK                            x       y       z     vdW  Elec       q    Type
REMARK                         _______ _______ _______ _____ _____    ______ ____
ROOT
ATOM      1  N   UNL     1       2.823  -0.686   1.244  0.00  0.00    +0.000 N 
ATOM      2  C   UNL     1       1.889  -1.195   2.175  0.00  0.00    +0.000 C 
ATOM      3  O   UNL     1       0.675  -1.151   1.962  0.00  0.00    +0.000 OA
ENDROOT
BRANCH   2   4
ATOM      4  C   UNL     1       2.386  -1.796   3.497  0.00  0.00    +0.000 A 
ATOM      5  C   UNL     1       1.568  -1.844   4.552  0.00  0.00    +0.000 A 
ATOM      6  C   UNL     1       2.115  -2.343   5.841  0.00  0.00    +0.000 A 
ATOM      7  O   UNL     1       1.369  -2.376   6.823  0.00  0.00    +0.000 OA
ATOM      8  N   UNL     1       3.446  -2.736   5.843  0.00  0.00    +0.000 N 
ATOM      9  C   UNL     1       4.065  -3.195   7.005  0.00  0.00    +0.000 A 
ATOM     10  C   UNL     1       5.344  -3.605   7.012  0.00  0.00    +0.000 A 
ATOM     11  C   UNL     1       6.109  -3.594   5.798  0.00  0.00    +0.000 A 
ATOM     12  C   UNL     1       5.560  -3.138   4.668  0.00  0.00    +0.000 A 
ATOM     13  C   UNL     1       4.154  -2.683   4.667  0.00  0.00    +0.000 A 
ATOM     14  N   UNL     1       3.658  -2.259   3.556  0.00  0.00    +0.000 NA
ENDBRANCH   2   4
BRANCH   1  16
ATOM     15  C   UNL     1       2.447  -1.093  -1.196  0.00  0.00    +0.000 C 
ATOM     16  C   UNL     1       2.322  -0.131  -0.020  0.00  0.00    +0.000 C 
ENDBRANCH   1  16
BRANCH   1  17
ATOM     17  C   UNL     1       4.314  -0.643   1.428  0.00  0.00    +0.000 C 
BRANCH  17  18
ATOM     18  C   UNL     1       4.721   0.244   2.657  0.00  0.00    +0.000 A 
ATOM     19  C   UNL     1       3.788   1.096   3.300  0.00  0.00    +0.000 A 
ATOM     20  C   UNL     1       4.119   1.825   4.451  0.00  0.00    +0.000 A 
ATOM     21  C   UNL     1       5.410   1.768   4.944  0.00  0.00    +0.000 A 
ATOM     22  F   UNL     1       5.733   2.461   6.044  0.00  0.00    +0.000 F 
ATOM     23  C   UNL     1       6.375   1.009   4.301  0.00  0.00    +0.000 A 
ATOM     24  C   UNL     1       6.035   0.261   3.161  0.00  0.00    +0.000 A 
ENDBRANCH  17  18
BRANCH  17  25
ATOM     25  C   UNL     1       5.003  -2.039   1.213  0.00  0.00    +0.000 A 
ATOM     26  C   UNL     1       4.252  -3.216   1.037  0.00  0.00    +0.000 A 
ATOM     27  C   UNL     1       4.875  -4.463   1.047  0.00  0.00    +0.000 A 
ATOM     28  C   UNL     1       6.252  -4.526   1.146  0.00  0.00    +0.000 A 
ATOM     29  C   UNL     1       6.947  -3.332   1.209  0.00  0.00    +0.000 A 
ATOM     30  N   UNL     1       6.363  -2.107   1.237  0.00  0.00    +0.000 NA
ENDBRANCH  17  25
ENDBRANCH   1  17
TORSDOF 5
