REMARK  Name = 
REMARK  9 active torsions:
REMARK  status: ('A' for Active; 'I' for Inactive)
REMARK    1  A    between atoms: C_1  and  N_2
REMARK    2  A    between atoms: C_8  and  C_9
REMARK    3  A    between atoms: N_11  and  C_12
REMARK    4  A    between atoms: C_17  and  O_18
REMARK    5  A    between atoms: O_18  and  C_19
REMARK    6  A    between atoms: C_24  and  C_25
REMARK    7  A    between atoms: C_25  and  C_26
REMARK    8  A    between atoms: C_25  and  C_27
REMARK    9  A    between atoms: C_25  and  C_28
REMARK                            x       y       z     vdW  Elec       q    Type
REMARK                         _______ _______ _______ _____ _____    ______ ____
ROOT
ATOM      1  C   UNL     1       8.718  -3.614  -0.719  0.00  0.00    +0.000 C 
ATOM      2  O   UNL     1       9.309  -4.688  -0.813  0.00  0.00    +0.000 OA
ATOM      3  N   UNL     1       9.346  -2.417  -0.392  0.00  0.00    +0.000 N 
ATOM      4  H   UNL     1       8.825  -1.719   0.128  0.00  0.00    +0.000 HD
ENDROOT
BRANCH   1  12
ATOM      5  C   UNL     1       1.151  -5.244  -2.392  0.00  0.00    +0.000 C 
ATOM      6  N   UNL     1       2.566  -5.140  -2.095  0.00  0.00    +0.000 N 
ATOM      7  C   UNL     1       3.295  -6.310  -1.921  0.00  0.00    +0.000 A 
ATOM      8  O   UNL     1       2.845  -7.437  -2.055  0.00  0.00    +0.000 OA
ATOM      9  N   UNL     1       4.617  -6.152  -1.578  0.00  0.00    +0.000 N 
ATOM     10  C   UNL     1       5.244  -4.920  -1.431  0.00  0.00    +0.000 A 
ATOM     11  C   UNL     1       6.589  -4.852  -1.065  0.00  0.00    +0.000 A 
ATOM     12  C   UNL     1       7.246  -3.605  -0.966  0.00  0.00    +0.000 A 
ATOM     13  C   UNL     1       6.520  -2.433  -1.216  0.00  0.00    +0.000 A 
ATOM     14  C   UNL     1       5.160  -2.506  -1.564  0.00  0.00    +0.000 A 
ATOM     15  C   UNL     1       4.531  -3.753  -1.671  0.00  0.00    +0.000 A 
ATOM     16  C   UNL     1       3.107  -3.859  -2.054  0.00  0.00    +0.000 A 
ATOM     17  O   UNL     1       2.480  -2.836  -2.309  0.00  0.00    +0.000 OA
ATOM     18  H   UNL     1       5.128  -7.016  -1.450  0.00  0.00    +0.000 HD
ENDBRANCH   1  12
BRANCH   3  19
ATOM     19  C   UNL     1      10.763  -2.289  -0.400  0.00  0.00    +0.000 A 
ATOM     20  C   UNL     1      11.512  -2.891  -1.419  0.00  0.00    +0.000 A 
ATOM     21  C   UNL     1      12.900  -2.770  -1.440  0.00  0.00    +0.000 A 
ATOM     22  C   UNL     1      13.502  -2.020  -0.450  0.00  0.00    +0.000 A 
ATOM     23  N   UNL     1      12.822  -1.390   0.526  0.00  0.00    +0.000 NA
ATOM     24  C   UNL     1      11.471  -1.562   0.566  0.00  0.00    +0.000 A 
BRANCH  24  25
ATOM     25  O   UNL     1      10.793  -1.072   1.691  0.00  0.00    +0.000 OA
BRANCH  25  26
ATOM     26  C   UNL     1      11.486  -1.116   2.901  0.00  0.00    +0.000 A 
ATOM     27  C   UNL     1      12.260  -2.257   3.215  0.00  0.00    +0.000 A 
ATOM     28  C   UNL     1      13.004  -2.331   4.388  0.00  0.00    +0.000 A 
ATOM     29  C   UNL     1      12.937  -1.293   5.298  0.00  0.00    +0.000 A 
ATOM     30  C   UNL     1      12.129  -0.182   5.030  0.00  0.00    +0.000 A 
ATOM     31  C   UNL     1      11.384  -0.048   3.832  0.00  0.00    +0.000 A 
BRANCH  31  32
ATOM     32  C   UNL     1      10.560   1.238   3.584  0.00  0.00    +0.000 C 
ATOM     33  C   UNL     1      10.640   2.264   4.753  0.00  0.00    +0.000 C 
ATOM     34  C   UNL     1      11.082   1.979   2.337  0.00  0.00    +0.000 C 
ATOM     35  C   UNL     1       9.061   0.921   3.409  0.00  0.00    +0.000 C 
ENDBRANCH  31  32
ENDBRANCH  25  26
ENDBRANCH  24  25
ENDBRANCH   3  19
TORSDOF 5
