REMARK  Name = 
REMARK  5 active torsions:
REMARK  status: ('A' for Active; 'I' for Inactive)
REMARK    1  A    between atoms: S_2  and  N_4
REMARK    2  A    between atoms: S_2  and  C_18
REMARK    3  A    between atoms: N_4  and  C_5
REMARK    4  A    between atoms: C_5  and  C_6
REMARK    5  A    between atoms: C_10  and  C_11
REMARK                            x       y       z     vdW  Elec       q    Type
REMARK                         _______ _______ _______ _____ _____    ______ ____
ROOT
ATOM      1  N   UNL     1       3.607   0.276   1.882  0.00  0.00    +0.000 NA
ATOM      2  H   UNL     1       4.582   0.296   2.198  0.00  0.00    +0.000 HD
ENDROOT
BRANCH   1   4
ATOM      3  O   UNL     1       3.128   0.877  -0.524  0.00  0.00    +0.000 OA
ATOM      4  S   UNL     1       3.582  -0.227   0.290  0.00  0.00    +0.000 S 
ATOM      5  O   UNL     1       4.871  -0.845   0.079  0.00  0.00    +0.000 OA
BRANCH   4   6
ATOM      6  C   UNL     1       2.399  -1.505   0.135  0.00  0.00    +0.000 A 
ATOM      7  C   UNL     1       1.663  -2.145   1.138  0.00  0.00    +0.000 A 
ATOM      8  C   UNL     1       0.887  -3.286   0.777  0.00  0.00    +0.000 A 
ATOM      9  C   UNL     1       0.257  -4.156   1.702  0.00  0.00    +0.000 A 
ATOM     10  C   UNL     1      -0.372  -5.314   1.248  0.00  0.00    +0.000 A 
ATOM     11  F   UNL     1      -0.836  -6.206   2.129  0.00  0.00    +0.000 F 
ATOM     12  C   UNL     1      -0.493  -5.583  -0.112  0.00  0.00    +0.000 A 
ATOM     13  C   UNL     1       0.072  -4.706  -1.020  0.00  0.00    +0.000 A 
ATOM     14  C   UNL     1       0.797  -3.611  -0.599  0.00  0.00    +0.000 A 
ATOM     15  N   UNL     1       1.448  -2.945  -1.555  0.00  0.00    +0.000 NA
ATOM     16  C   UNL     1       2.265  -1.952  -1.167  0.00  0.00    +0.000 A 
ENDBRANCH   4   6
ENDBRANCH   1   4
BRANCH   1  17
ATOM     17  C   UNL     1       2.869   1.513   2.188  0.00  0.00    +0.000 C 
BRANCH  17  18
ATOM     18  C   UNL     1       3.124   1.909   3.619  0.00  0.00    +0.000 A 
ATOM     19  C   UNL     1       3.647   3.158   3.964  0.00  0.00    +0.000 A 
ATOM     20  C   UNL     1       3.914   3.449   5.299  0.00  0.00    +0.000 A 
ATOM     21  C   UNL     1       3.655   2.500   6.295  0.00  0.00    +0.000 A 
ATOM     22  C   UNL     1       3.099   1.248   5.986  0.00  0.00    +0.000 A 
ATOM     23  C   UNL     1       2.846   0.980   4.632  0.00  0.00    +0.000 A 
BRANCH  22  24
ATOM     24  C   UNL     1       2.740   0.258   7.019  0.00  0.00    +0.000 A 
ATOM     25  C   UNL     1       2.281   0.640   8.285  0.00  0.00    +0.000 A 
ATOM     26  C   UNL     1       1.847  -0.317   9.202  0.00  0.00    +0.000 A 
ATOM     27  C   UNL     1       1.881  -1.649   8.832  0.00  0.00    +0.000 A 
ATOM     28  N   UNL     1       2.337  -2.078   7.640  0.00  0.00    +0.000 NA
ATOM     29  C   UNL     1       2.758  -1.123   6.776  0.00  0.00    +0.000 A 
ENDBRANCH  22  24
ENDBRANCH  17  18
ENDBRANCH   1  17
TORSDOF 5
