REMARK  Name = 
REMARK  7 active torsions:
REMARK  status: ('A' for Active; 'I' for Inactive)
REMARK    1  A    between atoms: C_1  and  C_2
REMARK    2  A    between atoms: C_2  and  N_3
REMARK    3  A    between atoms: C_2  and  C_21
REMARK    4  A    between atoms: C_4  and  C_6
REMARK    5  A    between atoms: C_9  and  C_10
REMARK    6  A    between atoms: C_10  and  C_12
REMARK    7  A    between atoms: C_14  and  O_15
REMARK                            x       y       z     vdW  Elec       q    Type
REMARK                         _______ _______ _______ _____ _____    ______ ____
ROOT
ATOM      1  C   UNL     1       3.275  -0.170  -3.769  0.00  0.00    +0.000 A 
ATOM      2  C   UNL     1       4.455   0.572  -3.905  0.00  0.00    +0.000 A 
ATOM      3  C   UNL     1       4.933   0.908  -5.180  0.00  0.00    +0.000 A 
ATOM      4  C   UNL     1       4.236   0.505  -6.327  0.00  0.00    +0.000 A 
ATOM      5  C   UNL     1       3.090  -0.287  -6.190  0.00  0.00    +0.000 A 
ATOM      6  C   UNL     1       2.603  -0.606  -4.919  0.00  0.00    +0.000 A 
ENDROOT
BRANCH   1   8
ATOM      7  N   UNL     1       3.059   0.208  -1.364  0.00  0.00    +0.000 N 
ATOM      8  C   UNL     1       2.723  -0.570  -2.444  0.00  0.00    +0.000 C 
ATOM      9  O   UNL     1       1.989  -1.551  -2.357  0.00  0.00    +0.000 OA
ATOM     10  H   UNL     1       3.546   1.089  -1.471  0.00  0.00    +0.000 HD
BRANCH   7  12
ATOM     11  C   UNL     1       1.208   0.513   0.224  0.00  0.00    +0.000 C 
ATOM     12  C   UNL     1       2.588  -0.094  -0.022  0.00  0.00    +0.000 C 
BRANCH  12  13
ATOM     13  C   UNL     1       3.577   0.492   0.941  0.00  0.00    +0.000 A 
ATOM     14  N   UNL     1       4.289   1.591   0.734  0.00  0.00    +0.000 NA
ATOM     15  C   UNL     1       4.947   1.833   1.912  0.00  0.00    +0.000 A 
ATOM     16  C   UNL     1       4.648   0.873   2.847  0.00  0.00    +0.000 A 
ATOM     17  C   UNL     1       4.992   0.624   4.204  0.00  0.00    +0.000 A 
ATOM     18  C   UNL     1       4.504  -0.472   4.817  0.00  0.00    +0.000 A 
ATOM     19  C   UNL     1       3.640  -1.412   4.119  0.00  0.00    +0.000 A 
ATOM     20  C   UNL     1       3.302  -1.165   2.842  0.00  0.00    +0.000 A 
ATOM     21  N   UNL     1       3.796  -0.021   2.210  0.00  0.00    +0.000 N 
ENDBRANCH  12  13
ENDBRANCH   7  12
ENDBRANCH   1   8
BRANCH   4  22
ATOM     22  C   UNL     1       4.763   0.904  -7.667  0.00  0.00    +0.000 C 
ATOM     23  O   UNL     1       5.965   1.105  -7.809  0.00  0.00    +0.000 OA
BRANCH  22  24
ATOM     24  C   UNL     1       3.850   1.065  -8.834  0.00  0.00    +0.000 A 
ATOM     25  C   UNL     1       2.536   1.533  -8.679  0.00  0.00    +0.000 A 
ATOM     26  C   UNL     1       1.697   1.596  -9.787  0.00  0.00    +0.000 A 
ATOM     27  C   UNL     1       2.154   1.244 -11.051  0.00  0.00    +0.000 A 
ATOM     28  C   UNL     1       3.476   0.829 -11.218  0.00  0.00    +0.000 A 
ATOM     29  C   UNL     1       4.324   0.739 -10.112  0.00  0.00    +0.000 A 
BRANCH  26  30
ATOM     30  O   UNL     1       0.398   1.995  -9.669  0.00  0.00    +0.000 OA
ATOM     31  H   UNL     1       0.211   2.212  -8.740  0.00  0.00    +0.000 HD
ENDBRANCH  26  30
ENDBRANCH  22  24
ENDBRANCH   4  22
TORSDOF 6
