REMARK  Name = 
REMARK  6 active torsions:
REMARK  status: ('A' for Active; 'I' for Inactive)
REMARK    1  A    between atoms: C_2  and  C_29
REMARK    2  A    between atoms: N_3  and  C_4
REMARK    3  A    between atoms: C_7  and  C_8
REMARK    4  A    between atoms: C_16  and  O_17
REMARK    5  A    between atoms: O_17  and  C_18
REMARK    6  A    between atoms: C_18  and  C_19
REMARK                            x       y       z     vdW  Elec       q    Type
REMARK                         _______ _______ _______ _____ _____    ______ ____
ROOT
ATOM      1  C   UNL     1       0.262   3.080  -5.616  0.00  0.00    +0.000 A 
ATOM      2  C   UNL     1       0.647   2.858  -6.878  0.00  0.00    +0.000 A 
ATOM      3  C   UNL     1      -0.375   3.018  -7.922  0.00  0.00    +0.000 A 
ATOM      4  O   UNL     1      -0.260   2.365  -8.956  0.00  0.00    +0.000 OA
ATOM      5  N   UNL     1      -1.420   3.861  -7.609  0.00  0.00    +0.000 N 
ATOM      6  C   UNL     1      -2.258   4.285  -8.625  0.00  0.00    +0.000 A 
ATOM      7  C   UNL     1      -3.291   5.106  -8.385  0.00  0.00    +0.000 A 
ATOM      8  C   UNL     1      -3.567   5.520  -7.038  0.00  0.00    +0.000 A 
ATOM      9  C   UNL     1      -2.839   5.094  -5.994  0.00  0.00    +0.000 A 
ATOM     10  C   UNL     1      -1.648   4.180  -6.279  0.00  0.00    +0.000 A 
ATOM     11  N   UNL     1      -0.896   3.741  -5.314  0.00  0.00    +0.000 NA
ENDROOT
BRANCH   1  15
ATOM     12  C   UNL     1       2.383   1.399  -2.320  0.00  0.00    +0.000 A 
ATOM     13  C   UNL     1       1.386   2.330  -2.072  0.00  0.00    +0.000 A 
ATOM     14  C   UNL     1       0.754   2.946  -3.155  0.00  0.00    +0.000 A 
ATOM     15  C   UNL     1       1.078   2.597  -4.471  0.00  0.00    +0.000 A 
ATOM     16  C   UNL     1       2.096   1.657  -4.599  0.00  0.00    +0.000 A 
ATOM     17  N   UNL     1       2.751   1.077  -3.567  0.00  0.00    +0.000 NA
BRANCH  12  20
ATOM     18  O   UNL     1       4.740  -0.317  -2.314  0.00  0.00    +0.000 OA
ATOM     19  C   UNL     1       4.076  -0.086  -1.304  0.00  0.00    +0.000 C 
ATOM     20  N   UNL     1       2.971   0.760  -1.228  0.00  0.00    +0.000 N 
ATOM     21  H   UNL     1       2.563   0.921  -0.315  0.00  0.00    +0.000 HD
BRANCH  19  22
ATOM     22  C   UNL     1       4.446  -0.694   0.054  0.00  0.00    +0.000 C 
ATOM     23  F   UNL     1       3.507  -0.408   1.007  0.00  0.00    +0.000 F 
ATOM     24  F   UNL     1       4.555  -2.049   0.020  0.00  0.00    +0.000 F 
ATOM     25  F   UNL     1       5.624  -0.213   0.536  0.00  0.00    +0.000 F 
ENDBRANCH  19  22
ENDBRANCH  12  20
ENDBRANCH   1  15
BRANCH   9  26
ATOM     26  O   UNL     1      -3.195   5.549  -4.729  0.00  0.00    +0.000 OA
BRANCH  26  27
ATOM     27  C   UNL     1      -2.182   5.514  -3.730  0.00  0.00    +0.000 C 
BRANCH  27  28
ATOM     28  C   UNL     1      -2.569   6.400  -2.575  0.00  0.00    +0.000 A 
ATOM     29  C   UNL     1      -3.682   6.084  -1.784  0.00  0.00    +0.000 A 
ATOM     30  C   UNL     1      -4.018   6.884  -0.693  0.00  0.00    +0.000 A 
ATOM     31  C   UNL     1      -3.249   8.004  -0.381  0.00  0.00    +0.000 A 
ATOM     32  C   UNL     1      -2.143   8.329  -1.165  0.00  0.00    +0.000 A 
ATOM     33  C   UNL     1      -1.802   7.532  -2.255  0.00  0.00    +0.000 A 
ENDBRANCH  27  28
ENDBRANCH  26  27
ENDBRANCH   9  26
TORSDOF 6
