REMARK  Name = 
REMARK  8 active torsions:
REMARK  status: ('A' for Active; 'I' for Inactive)
REMARK    1  A    between atoms: C_1  and  C_2
REMARK    2  A    between atoms: C_2  and  N_3
REMARK    3  A    between atoms: C_2  and  C_29
REMARK    4  A    between atoms: C_4  and  C_6
REMARK    5  A    between atoms: C_6  and  N_7
REMARK    6  A    between atoms: C_8  and  C_10
REMARK    7  A    between atoms: C_11  and  C_12
REMARK    8  A    between atoms: C_18  and  C_19
REMARK                            x       y       z     vdW  Elec       q    Type
REMARK                         _______ _______ _______ _____ _____    ______ ____
ROOT
ATOM      1  C   UNL     1       2.541   6.726   3.042  0.00  0.00    +0.000 A 
ATOM      2  C   UNL     1       3.406   7.754   3.212  0.00  0.00    +0.000 A 
ATOM      3  C   UNL     1       2.853   9.154   2.993  0.00  0.00    +0.000 A 
ATOM      4  N   UNL     1       1.602   9.390   2.728  0.00  0.00    +0.000 NA
ATOM      5  N   UNL     1       0.769   8.333   2.595  0.00  0.00    +0.000 N 
ATOM      6  C   UNL     1       1.137   7.022   2.657  0.00  0.00    +0.000 A 
ATOM      7  O   UNL     1       0.330   6.132   2.394  0.00  0.00    +0.000 OA
ATOM      8  H   UNL     1      -0.190   8.542   2.345  0.00  0.00    +0.000 HD
ENDROOT
BRANCH   2   9
ATOM      9  C   UNL     1       4.813   7.533   3.600  0.00  0.00    +0.000 A 
ATOM     10  C   UNL     1       5.777   7.239   2.623  0.00  0.00    +0.000 A 
ATOM     11  C   UNL     1       7.130   7.194   2.961  0.00  0.00    +0.000 A 
ATOM     12  C   UNL     1       7.519   7.361   4.288  0.00  0.00    +0.000 A 
ATOM     13  C   UNL     1       6.558   7.558   5.280  0.00  0.00    +0.000 A 
ATOM     14  C   UNL     1       5.208   7.654   4.939  0.00  0.00    +0.000 A 
ENDBRANCH   2   9
BRANCH   3  15
ATOM     15  C   UNL     1       3.745  10.368   3.096  0.00  0.00    +0.000 A 
ATOM     16  C   UNL     1       5.059  10.402   2.624  0.00  0.00    +0.000 A 
ATOM     17  C   UNL     1       5.865  11.531   2.784  0.00  0.00    +0.000 A 
ATOM     18  C   UNL     1       5.330  12.691   3.327  0.00  0.00    +0.000 A 
ATOM     19  C   UNL     1       3.990  12.716   3.709  0.00  0.00    +0.000 A 
ATOM     20  C   UNL     1       3.205  11.560   3.606  0.00  0.00    +0.000 A 
ENDBRANCH   3  15
BRANCH   1  22
ATOM     21  N   UNL     1       2.240   4.353   2.570  0.00  0.00    +0.000 N 
ATOM     22  C   UNL     1       2.966   5.300   3.249  0.00  0.00    +0.000 C 
ATOM     23  O   UNL     1       3.887   4.976   3.992  0.00  0.00    +0.000 OA
ATOM     24  H   UNL     1       1.359   4.619   2.131  0.00  0.00    +0.000 HD
BRANCH  21  25
ATOM     25  C   UNL     1       2.559   2.941   2.694  0.00  0.00    +0.000 C 
BRANCH  25  27
ATOM     26  N   UNL     1       1.026   2.988   4.620  0.00  0.00    +0.000 N 
ATOM     27  C   UNL     1       1.954   2.255   3.923  0.00  0.00    +0.000 C 
ATOM     28  O   UNL     1       2.243   1.095   4.216  0.00  0.00    +0.000 OA
ATOM     29  H   UNL     1       0.790   3.930   4.322  0.00  0.00    +0.000 HD
BRANCH  26  31
ATOM     30  C   UNL     1      -0.640   1.384   5.453  0.00  0.00    +0.000 C 
ATOM     31  C   UNL     1       0.356   2.489   5.809  0.00  0.00    +0.000 C 
BRANCH  31  32
ATOM     32  C   UNL     1      -0.373   3.614   6.535  0.00  0.00    +0.000 A 
ATOM     33  C   UNL     1      -0.501   3.580   7.925  0.00  0.00    +0.000 A 
ATOM     34  C   UNL     1      -1.232   4.580   8.561  0.00  0.00    +0.000 A 
ATOM     35  C   UNL     1      -1.821   5.580   7.800  0.00  0.00    +0.000 A 
ATOM     36  C   UNL     1      -1.646   5.548   6.427  0.00  0.00    +0.000 A 
ATOM     37  N   UNL     1      -0.934   4.596   5.782  0.00  0.00    +0.000 NA
ENDBRANCH  31  32
ENDBRANCH  26  31
ENDBRANCH  25  27
ENDBRANCH  21  25
ENDBRANCH   1  22
TORSDOF 7
