REMARK  Name = 
REMARK  8 active torsions:
REMARK  status: ('A' for Active; 'I' for Inactive)
REMARK    1  A    between atoms: C_1  and  N_2
REMARK    2  A    between atoms: C_8  and  C_9
REMARK    3  A    between atoms: N_11  and  C_12
REMARK    4  A    between atoms: C_12  and  C_13
REMARK    5  A    between atoms: C_17  and  C_18
REMARK    6  A    between atoms: C_18  and  O_20
REMARK    7  A    between atoms: O_20  and  C_21
REMARK    8  A    between atoms: C_21  and  C_22
REMARK                            x       y       z     vdW  Elec       q    Type
REMARK                         _______ _______ _______ _____ _____    ______ ____
ROOT
ATOM      1  C   UNL     1       8.702  -1.243  -0.168  0.00  0.00    +0.000 C 
ATOM      2  O   UNL     1       9.284  -0.177  -0.004  0.00  0.00    +0.000 OA
ATOM      3  N   UNL     1       9.349  -2.447  -0.325  0.00  0.00    +0.000 N 
ATOM      4  H   UNL     1       8.849  -3.259  -0.657  0.00  0.00    +0.000 HD
ENDROOT
BRANCH   1  12
ATOM      5  C   UNL     1       0.948  -0.023  -1.119  0.00  0.00    +0.000 C 
ATOM      6  N   UNL     1       2.393  -0.044  -0.991  0.00  0.00    +0.000 N 
ATOM      7  C   UNL     1       3.118   1.062  -1.401  0.00  0.00    +0.000 A 
ATOM      8  O   UNL     1       2.623   2.081  -1.877  0.00  0.00    +0.000 OA
ATOM      9  N   UNL     1       4.477   0.990  -1.259  0.00  0.00    +0.000 N 
ATOM     10  C   UNL     1       5.151  -0.125  -0.767  0.00  0.00    +0.000 A 
ATOM     11  C   UNL     1       6.545  -0.128  -0.697  0.00  0.00    +0.000 A 
ATOM     12  C   UNL     1       7.215  -1.273  -0.239  0.00  0.00    +0.000 A 
ATOM     13  C   UNL     1       6.484  -2.396   0.172  0.00  0.00    +0.000 A 
ATOM     14  C   UNL     1       5.087  -2.377   0.115  0.00  0.00    +0.000 A 
ATOM     15  C   UNL     1       4.427  -1.238  -0.358  0.00  0.00    +0.000 A 
ATOM     16  C   UNL     1       2.954  -1.191  -0.435  0.00  0.00    +0.000 A 
ATOM     17  O   UNL     1       2.301  -2.144  -0.018  0.00  0.00    +0.000 OA
ATOM     18  H   UNL     1       4.987   1.810  -1.565  0.00  0.00    +0.000 HD
ENDBRANCH   1  12
BRANCH   3  19
ATOM     19  C   UNL     1      10.794  -2.503  -0.297  0.00  0.00    +0.000 C 
BRANCH  19  20
ATOM     20  C   UNL     1      11.297  -3.906  -0.512  0.00  0.00    +0.000 A 
ATOM     21  C   UNL     1      11.414  -4.788   0.572  0.00  0.00    +0.000 A 
ATOM     22  C   UNL     1      11.905  -6.081   0.385  0.00  0.00    +0.000 A 
ATOM     23  C   UNL     1      12.284  -6.504  -0.888  0.00  0.00    +0.000 A 
ATOM     24  C   UNL     1      12.163  -5.644  -1.989  0.00  0.00    +0.000 A 
ATOM     25  C   UNL     1      11.653  -4.351  -1.797  0.00  0.00    +0.000 A 
BRANCH  24  26
ATOM     26  C   UNL     1      12.625  -6.144  -3.315  0.00  0.00    +0.000 C 
ATOM     27  O   UNL     1      13.104  -7.257  -3.472  0.00  0.00    +0.000 OA
BRANCH  26  28
ATOM     28  O   UNL     1      12.475  -5.197  -4.270  0.00  0.00    +0.000 OA
BRANCH  28  29
ATOM     29  C   UNL     1      12.994  -5.527  -5.565  0.00  0.00    +0.000 C 
BRANCH  29  30
ATOM     30  C   UNL     1      11.882  -5.474  -6.581  0.00  0.00    +0.000 A 
ATOM     31  C   UNL     1      11.594  -4.286  -7.266  0.00  0.00    +0.000 A 
ATOM     32  C   UNL     1      10.566  -4.245  -8.210  0.00  0.00    +0.000 A 
ATOM     33  C   UNL     1       9.813  -5.387  -8.473  0.00  0.00    +0.000 A 
ATOM     34  C   UNL     1      10.084  -6.572  -7.790  0.00  0.00    +0.000 A 
ATOM     35  C   UNL     1      11.111  -6.615  -6.845  0.00  0.00    +0.000 A 
ENDBRANCH  29  30
ENDBRANCH  28  29
ENDBRANCH  26  28
ENDBRANCH  24  26
ENDBRANCH  19  20
ENDBRANCH   3  19
TORSDOF 7
