REMARK  Name = 
REMARK  7 active torsions:
REMARK  status: ('A' for Active; 'I' for Inactive)
REMARK    1  A    between atoms: C_2  and  C_3
REMARK    2  A    between atoms: C_2  and  O_16
REMARK    3  A    between atoms: C_3  and  N_4
REMARK    4  A    between atoms: O_16  and  C_17
REMARK    5  A    between atoms: C_17  and  C_18
REMARK    6  A    between atoms: C_21  and  C_22
REMARK    7  A    between atoms: C_26  and  C_27
REMARK                            x       y       z     vdW  Elec       q    Type
REMARK                         _______ _______ _______ _____ _____    ______ ____
ROOT
ATOM      1  O   UNL     1       2.876   0.782  -0.689  0.00  0.00    +0.000 OA
ENDROOT
BRANCH   1   3
ATOM      2  O   UNL     1       2.923  -1.162  -1.906  0.00  0.00    +0.000 OA
ATOM      3  C   UNL     1       2.312  -0.271  -1.332  0.00  0.00    +0.000 C 
BRANCH   3   4
ATOM      4  C   UNL     1       0.797  -0.160  -1.328  0.00  0.00    +0.000 C 
BRANCH   4   5
ATOM      5  N   UNL     1       0.338   0.325  -2.620  0.00  0.00    +0.000 N 
ATOM      6  C   UNL     1       0.017  -0.552  -3.625  0.00  0.00    +0.000 A 
ATOM      7  N   UNL     1      -0.447  -0.211  -4.781  0.00  0.00    +0.000 NA
ATOM      8  C   UNL     1      -0.629   1.158  -5.035  0.00  0.00    +0.000 A 
ATOM      9  C   UNL     1      -1.169   1.556  -6.260  0.00  0.00    +0.000 A 
ATOM     10  C   UNL     1      -1.362   2.913  -6.542  0.00  0.00    +0.000 A 
ATOM     11  C   UNL     1      -0.996   3.870  -5.600  0.00  0.00    +0.000 A 
ATOM     12  F   UNL     1      -1.178   5.169  -5.877  0.00  0.00    +0.000 F 
ATOM     13  C   UNL     1      -0.459   3.501  -4.378  0.00  0.00    +0.000 A 
ATOM     14  C   UNL     1      -0.286   2.141  -4.102  0.00  0.00    +0.000 A 
ATOM     15  C   UNL     1       0.234   1.698  -2.800  0.00  0.00    +0.000 A 
ATOM     16  O   UNL     1       0.527   2.524  -1.943  0.00  0.00    +0.000 OA
ENDBRANCH   4   5
ENDBRANCH   3   4
ENDBRANCH   1   3
BRANCH   1  17
ATOM     17  C   UNL     1       4.307   0.887  -0.745  0.00  0.00    +0.000 C 
BRANCH  17  18
ATOM     18  C   UNL     1       4.740   2.011  -1.617  0.00  0.00    +0.000 A 
ATOM     19  C   UNL     1       5.132   1.998  -2.938  0.00  0.00    +0.000 A 
ATOM     20  O   UNL     1       5.366   3.282  -3.329  0.00  0.00    +0.000 OA
ATOM     21  C   UNL     1       5.103   4.029  -2.209  0.00  0.00    +0.000 A 
ATOM     22  N   UNL     1       4.774   3.310  -1.153  0.00  0.00    +0.000 NA
BRANCH  21  23
ATOM     23  C   UNL     1       5.139   5.484  -2.350  0.00  0.00    +0.000 A 
ATOM     24  C   UNL     1       4.957   6.287  -1.215  0.00  0.00    +0.000 A 
ATOM     25  C   UNL     1       4.890   7.678  -1.320  0.00  0.00    +0.000 A 
ATOM     26  C   UNL     1       4.994   8.287  -2.569  0.00  0.00    +0.000 A 
ATOM     27  C   UNL     1       5.182   7.513  -3.723  0.00  0.00    +0.000 A 
ATOM     28  C   UNL     1       5.272   6.112  -3.599  0.00  0.00    +0.000 A 
BRANCH  27  29
ATOM     29  C   UNL     1       5.251   8.155  -5.087  0.00  0.00    +0.000 C 
ATOM     30  F   UNL     1       5.051   9.502  -5.066  0.00  0.00    +0.000 F 
ATOM     31  F   UNL     1       6.456   7.966  -5.693  0.00  0.00    +0.000 F 
ATOM     32  F   UNL     1       4.319   7.654  -5.944  0.00  0.00    +0.000 F 
ENDBRANCH  27  29
ENDBRANCH  21  23
ENDBRANCH  17  18
ENDBRANCH   1  17
TORSDOF 7
