REMARK  Name = 
REMARK  3 active torsions:
REMARK  status: ('A' for Active; 'I' for Inactive)
REMARK    1  A    between atoms: C_2  and  C_18
REMARK    2  A    between atoms: C_6  and  C_7
REMARK    3  A    between atoms: N_22  and  C_23
REMARK                            x       y       z     vdW  Elec       q    Type
REMARK                         _______ _______ _______ _____ _____    ______ ____
ROOT
ATOM      1  O   UNL     1       0.889  -0.261  -0.398  0.00  0.00    +0.000 OA
ATOM      2  C   UNL     1       2.068  -0.126  -0.102  0.00  0.00    +0.000 C 
ATOM      3  N   UNL     1       2.724  -0.787   0.910  0.00  0.00    +0.000 N 
ATOM      4  C   UNL     1       2.115  -1.687   1.772  0.00  0.00    +0.000 A 
ATOM      5  N   UNL     1       0.869  -2.104   1.547  0.00  0.00    +0.000 NA
ATOM      6  C   UNL     1       0.293  -2.938   2.432  0.00  0.00    +0.000 A 
ATOM      7  C   UNL     1       0.972  -3.368   3.552  0.00  0.00    +0.000 A 
ATOM      8  C   UNL     1       2.259  -2.901   3.695  0.00  0.00    +0.000 A 
ATOM      9  N   UNL     1       2.855  -2.069   2.819  0.00  0.00    +0.000 NA
ATOM     10  H   UNL     1       3.669  -0.555   1.160  0.00  0.00    +0.000 HD
ENDROOT
BRANCH   6  11
ATOM     11  C   UNL     1      -1.087  -3.337   2.097  0.00  0.00    +0.000 A 
ATOM     12  C   UNL     1      -1.499  -3.436   0.752  0.00  0.00    +0.000 A 
ATOM     13  C   UNL     1      -2.802  -3.805   0.425  0.00  0.00    +0.000 A 
ATOM     14  F   UNL     1      -3.158  -3.903  -0.863  0.00  0.00    +0.000 F 
ATOM     15  C   UNL     1      -3.737  -4.076   1.410  0.00  0.00    +0.000 A 
ATOM     16  C   UNL     1      -3.349  -3.968   2.736  0.00  0.00    +0.000 A 
ATOM     17  F   UNL     1      -4.241  -4.212   3.704  0.00  0.00    +0.000 F 
ATOM     18  C   UNL     1      -2.048  -3.605   3.087  0.00  0.00    +0.000 A 
ENDBRANCH   6  11
BRANCH   2  19
ATOM     19  C   UNL     1       2.900   0.824  -0.797  0.00  0.00    +0.000 A 
ATOM     20  C   UNL     1       4.151   0.611  -1.347  0.00  0.00    +0.000 A 
ATOM     21  N   UNL     1       4.566   1.682  -2.080  0.00  0.00    +0.000 NA
ATOM     22  C   UNL     1       3.576   2.542  -2.007  0.00  0.00    +0.000 A 
ATOM     23  N   UNL     1       2.534   2.099  -1.217  0.00  0.00    +0.000 N 
BRANCH  23  24
ATOM     24  C   UNL     1       1.367   2.854  -0.898  0.00  0.00    +0.000 A 
ATOM     25  C   UNL     1       0.671   2.638   0.298  0.00  0.00    +0.000 A 
ATOM     26  C   UNL     1      -0.479   3.372   0.573  0.00  0.00    +0.000 A 
ATOM     27  F   UNL     1      -1.135   3.160   1.722  0.00  0.00    +0.000 F 
ATOM     28  C   UNL     1      -0.954   4.327  -0.316  0.00  0.00    +0.000 A 
ATOM     29  C   UNL     1      -0.258   4.564  -1.499  0.00  0.00    +0.000 A 
ATOM     30  C   UNL     1       0.904   3.840  -1.787  0.00  0.00    +0.000 A 
ENDBRANCH  23  24
ENDBRANCH   2  19
TORSDOF 3
