REMARK  Name = 
REMARK  5 active torsions:
REMARK  status: ('A' for Active; 'I' for Inactive)
REMARK    1  A    between atoms: C_2  and  C_3
REMARK    2  A    between atoms: C_4  and  N_5
REMARK    3  A    between atoms: C_6  and  C_8
REMARK    4  A    between atoms: C_8  and  C_11
REMARK    5  A    between atoms: N_21  and  C_22
REMARK                            x       y       z     vdW  Elec       q    Type
REMARK                         _______ _______ _______ _____ _____    ______ ____
ROOT
ATOM      1  C   UNL     1       3.712  -0.008   0.072  0.00  0.00    +0.000 A 
ATOM      2  C   UNL     1       4.387   1.165   0.225  0.00  0.00    +0.000 A 
ATOM      3  C   UNL     1       5.831   1.084   0.329  0.00  0.00    +0.000 A 
ATOM      4  C   UNL     1       6.468  -0.091   0.275  0.00  0.00    +0.000 A 
ATOM      5  N   UNL     1       5.792  -1.290   0.140  0.00  0.00    +0.000 N 
ATOM      6  C   UNL     1       4.393  -1.325   0.023  0.00  0.00    +0.000 A 
ATOM      7  O   UNL     1       3.713  -2.336  -0.144  0.00  0.00    +0.000 OA
ENDROOT
BRANCH   5   8
ATOM      8  C   UNL     1       6.503  -2.524   0.070  0.00  0.00    +0.000 A 
ATOM      9  C   UNL     1       7.595  -2.654  -0.796  0.00  0.00    +0.000 A 
ATOM     10  C   UNL     1       8.220  -3.891  -0.950  0.00  0.00    +0.000 A 
ATOM     11  C   UNL     1       7.788  -4.990  -0.209  0.00  0.00    +0.000 A 
ATOM     12  C   UNL     1       6.735  -4.856   0.693  0.00  0.00    +0.000 A 
ATOM     13  C   UNL     1       6.088  -3.628   0.825  0.00  0.00    +0.000 A 
ENDBRANCH   5   8
BRANCH   2  14
ATOM     14  N   UNL     1       3.748   2.413   0.334  0.00  0.00    +0.000 N 
ATOM     15  C   UNL     1       4.317   3.701   0.421  0.00  0.00    +0.000 C 
ATOM     16  O   UNL     1       5.524   3.939   0.362  0.00  0.00    +0.000 OA
ATOM     17  H   UNL     1       2.726   2.424   0.329  0.00  0.00    +0.000 HD
BRANCH  15  18
ATOM     18  C   UNL     1       3.274   4.847   0.663  0.00  0.00    +0.000 C 
ATOM     19  F   UNL     1       2.002   4.341   0.544  0.00  0.00    +0.000 F 
ATOM     20  F   UNL     1       3.348   5.245   1.974  0.00  0.00    +0.000 F 
BRANCH  18  21
ATOM     21  C   UNL     1       3.469   6.023  -0.274  0.00  0.00    +0.000 A 
ATOM     22  C   UNL     1       3.718   7.324   0.196  0.00  0.00    +0.000 A 
ATOM     23  C   UNL     1       3.808   8.393  -0.705  0.00  0.00    +0.000 A 
ATOM     24  F   UNL     1       4.023   9.631  -0.241  0.00  0.00    +0.000 F 
ATOM     25  C   UNL     1       3.657   8.194  -2.074  0.00  0.00    +0.000 A 
ATOM     26  C   UNL     1       3.429   6.906  -2.551  0.00  0.00    +0.000 A 
ATOM     27  C   UNL     1       3.338   5.841  -1.652  0.00  0.00    +0.000 A 
ATOM     28  F   UNL     1       3.101   4.611  -2.134  0.00  0.00    +0.000 F 
ENDBRANCH  18  21
ENDBRANCH  15  18
ENDBRANCH   2  14
BRANCH   1  30
ATOM     29  N   UNL     1       0.931  -0.008   0.072  0.00  0.00    +0.000 NA
ATOM     30  C   UNL     1       2.192  -0.008   0.072  0.00  0.00    +0.000 C 
ENDBRANCH   1  30
TORSDOF 5
