REMARK  Name = 
REMARK  5 active torsions:
REMARK  status: ('A' for Active; 'I' for Inactive)
REMARK    1  A    between atoms: C_1  and  N_2
REMARK    2  A    between atoms: N_7  and  C_8
REMARK    3  A    between atoms: C_8  and  C_9
REMARK    4  A    between atoms: N_11  and  C_12
REMARK    5  A    between atoms: C_17  and  C_18
REMARK                            x       y       z     vdW  Elec       q    Type
REMARK                         _______ _______ _______ _____ _____    ______ ____
ROOT
ATOM      1  C   UNL     1       3.920  -6.127  -0.777  0.00  0.00    +0.000 A 
ATOM      2  C   UNL     1       3.864  -7.277   0.036  0.00  0.00    +0.000 A 
ATOM      3  C   UNL     1       2.761  -8.140  -0.050  0.00  0.00    +0.000 A 
ATOM      4  C   UNL     1       1.913  -8.067  -1.150  0.00  0.00    +0.000 A 
ATOM      5  C   UNL     1       2.029  -6.997  -2.038  0.00  0.00    +0.000 A 
ATOM      6  C   UNL     1       2.950  -5.951  -1.818  0.00  0.00    +0.000 A 
ENDROOT
BRANCH   6   7
ATOM      7  C   UNL     1       2.831  -4.703  -2.643  0.00  0.00    +0.000 A 
ATOM      8  C   UNL     1       2.317  -4.796  -3.943  0.00  0.00    +0.000 A 
ATOM      9  C   UNL     1       1.837  -3.641  -4.550  0.00  0.00    +0.000 A 
ATOM     10  C   UNL     1       2.142  -2.366  -4.038  0.00  0.00    +0.000 A 
ATOM     11  C   UNL     1       1.955  -1.247  -4.812  0.00  0.00    +0.000 A 
ATOM     12  C   UNL     1       2.564  -0.037  -4.437  0.00  0.00    +0.000 A 
ATOM     13  C   UNL     1       2.521   0.503  -3.169  0.00  0.00    +0.000 A 
ATOM     14  C   UNL     1       2.838  -0.646  -2.432  0.00  0.00    +0.000 A 
ATOM     15  C   UNL     1       2.689  -2.141  -2.788  0.00  0.00    +0.000 A 
ATOM     16  C   UNL     1       3.000  -3.389  -2.088  0.00  0.00    +0.000 A 
ENDBRANCH   6   7
BRANCH   1  19
ATOM     17  C   UNL     1       4.667  -4.498   0.812  0.00  0.00    +0.000 C 
ATOM     18  O   UNL     1       5.448  -3.600   1.112  0.00  0.00    +0.000 OA
ATOM     19  N   UNL     1       4.859  -5.066  -0.448  0.00  0.00    +0.000 N 
ATOM     20  H   UNL     1       5.818  -5.165  -0.755  0.00  0.00    +0.000 HD
BRANCH  17  21
ATOM     21  C   UNL     1       3.421  -4.859   1.702  0.00  0.00    +0.000 C 
BRANCH  21  28
ATOM     22  C   UNL     1       2.880  -2.397   5.931  0.00  0.00    +0.000 C 
ATOM     23  N   UNL     1       2.357  -2.632   4.591  0.00  0.00    +0.000 N 
ATOM     24  C   UNL     1       1.221  -2.036   4.134  0.00  0.00    +0.000 A 
ATOM     25  O   UNL     1       0.557  -1.237   4.786  0.00  0.00    +0.000 OA
ATOM     26  C   UNL     1       0.869  -2.315   2.720  0.00  0.00    +0.000 A 
ATOM     27  C   UNL     1       1.716  -3.020   1.957  0.00  0.00    +0.000 A 
ATOM     28  N   UNL     1       2.753  -3.758   2.529  0.00  0.00    +0.000 N 
ATOM     29  C   UNL     1       3.014  -3.608   3.891  0.00  0.00    +0.000 A 
ATOM     30  O   UNL     1       3.730  -4.308   4.597  0.00  0.00    +0.000 OA
ENDBRANCH  21  28
ENDBRANCH  17  21
ENDBRANCH   1  19
TORSDOF 4
