REMARK  Name = 
REMARK  8 active torsions:
REMARK  status: ('A' for Active; 'I' for Inactive)
REMARK    1  A    between atoms: C_2  and  C_3
REMARK    2  A    between atoms: C_3  and  N_4
REMARK    3  A    between atoms: C_6  and  C_7
REMARK    4  A    between atoms: N_9  and  C_10
REMARK    5  A    between atoms: N_9  and  C_14
REMARK    6  A    between atoms: C_10  and  C_11
REMARK    7  A    between atoms: C_14  and  C_15
REMARK    8  A    between atoms: C_18  and  C_19
REMARK                            x       y       z     vdW  Elec       q    Type
REMARK                         _______ _______ _______ _____ _____    ______ ____
ROOT
ATOM      1  C   UNL     1       6.053  -1.846   4.178  0.00  0.00    +0.000 C 
ATOM      2  O   UNL     1       5.817  -1.805   2.971  0.00  0.00    +0.000 OA
ATOM      3  N   UNL     1       6.321  -0.668   4.903  0.00  0.00    +0.000 N 
ENDROOT
BRANCH   1   6
ATOM      4  N   UNL     1       6.203  -4.565   6.570  0.00  0.00    +0.000 N 
ATOM      5  C   UNL     1       5.609  -3.403   6.148  0.00  0.00    +0.000 A 
ATOM      6  C   UNL     1       6.095  -3.135   4.878  0.00  0.00    +0.000 A 
ATOM      7  C   UNL     1       6.553  -4.407   4.380  0.00  0.00    +0.000 A 
ATOM      8  C   UNL     1       6.973  -4.881   3.119  0.00  0.00    +0.000 A 
ATOM      9  C   UNL     1       7.344  -6.223   2.966  0.00  0.00    +0.000 A 
ATOM     10  C   UNL     1       7.343  -7.087   4.057  0.00  0.00    +0.000 A 
ATOM     11  C   UNL     1       6.987  -6.635   5.330  0.00  0.00    +0.000 A 
ATOM     12  C   UNL     1       6.583  -5.295   5.466  0.00  0.00    +0.000 A 
BRANCH   4  13
ATOM     13  C   UNL     1       6.451  -4.934   7.964  0.00  0.00    +0.000 C 
BRANCH  13  15
ATOM     14  N   UNL     1       6.623  -2.857   9.578  0.00  0.00    +0.000 NA
ATOM     15  C   UNL     1       6.553  -3.784   8.873  0.00  0.00    +0.000 C 
ENDBRANCH  13  15
ENDBRANCH   4  13
ENDBRANCH   1   6
BRANCH   3  16
ATOM     16  C   UNL     1       6.626  -0.642   6.352  0.00  0.00    +0.000 C 
BRANCH  16  17
ATOM     17  C   UNL     1       7.433   0.537   6.820  0.00  0.00    +0.000 A 
ATOM     18  C   UNL     1       6.790   1.683   7.291  0.00  0.00    +0.000 A 
ATOM     19  C   UNL     1       7.500   2.878   7.410  0.00  0.00    +0.000 A 
ATOM     20  C   UNL     1       8.872   2.954   7.104  0.00  0.00    +0.000 A 
ATOM     21  C   UNL     1       9.525   1.752   6.777  0.00  0.00    +0.000 A 
ATOM     22  C   UNL     1       8.817   0.558   6.626  0.00  0.00    +0.000 A 
BRANCH  20  23
ATOM     23  C   UNL     1       9.570   4.261   7.033  0.00  0.00    +0.000 A 
ATOM     24  C   UNL     1       9.194   5.347   7.842  0.00  0.00    +0.000 A 
ATOM     25  C   UNL     1       9.793   6.604   7.703  0.00  0.00    +0.000 A 
ATOM     26  C   UNL     1      10.798   6.799   6.762  0.00  0.00    +0.000 A 
ATOM     27  C   UNL     1      11.206   5.739   5.961  0.00  0.00    +0.000 A 
ATOM     28  C   UNL     1      10.594   4.489   6.091  0.00  0.00    +0.000 A 
ENDBRANCH  20  23
ENDBRANCH  16  17
ENDBRANCH   3  16
BRANCH   3  29
ATOM     29  C   UNL     1       6.370   0.594   4.125  0.00  0.00    +0.000 C 
BRANCH  29  30
ATOM     30  C   UNL     1       5.055   1.335   3.858  0.00  0.00    +0.000 C 
ATOM     31  N   UNL     1       3.903   0.752   4.296  0.00  0.00    +0.000 N 
ATOM     32  O   UNL     1       5.013   2.415   3.276  0.00  0.00    +0.000 OA
ATOM     33  H   UNL     1       3.886  -0.248   4.431  0.00  0.00    +0.000 HD
ATOM     34  H   UNL     1       3.055   1.190   3.957  0.00  0.00    +0.000 HD
ENDBRANCH  29  30
ENDBRANCH   3  29
TORSDOF 8
