REMARK  Name = 
REMARK  5 active torsions:
REMARK  status: ('A' for Active; 'I' for Inactive)
REMARK    1  A    between atoms: C_2  and  C_14
REMARK    2  A    between atoms: N_3  and  C_4
REMARK    3  A    between atoms: C_4  and  C_5
REMARK    4  A    between atoms: C_15  and  C_16
REMARK    5  A    between atoms: C_16  and  C_18
REMARK                            x       y       z     vdW  Elec       q    Type
REMARK                         _______ _______ _______ _____ _____    ______ ____
ROOT
ATOM      1  C   UNL     1       2.906  -0.817  -0.978  0.00  0.00    +0.000 A 
ATOM      2  C   UNL     1       2.500  -0.644  -2.326  0.00  0.00    +0.000 A 
ATOM      3  C   UNL     1       3.267  -1.214  -3.366  0.00  0.00    +0.000 A 
ATOM      4  C   UNL     1       4.402  -1.956  -3.077  0.00  0.00    +0.000 A 
ATOM      5  F   UNL     1       5.094  -2.515  -4.077  0.00  0.00    +0.000 F 
ATOM      6  C   UNL     1       4.815  -2.111  -1.767  0.00  0.00    +0.000 A 
ATOM      7  F   UNL     1       5.921  -2.811  -1.487  0.00  0.00    +0.000 F 
ATOM      8  C   UNL     1       4.082  -1.555  -0.724  0.00  0.00    +0.000 A 
ENDROOT
BRANCH   1  10
ATOM      9  O   UNL     1       0.876  -0.151   0.055  0.00  0.00    +0.000 OA
ATOM     10  C   UNL     1       2.076  -0.357   0.191  0.00  0.00    +0.000 C 
ATOM     11  N   UNL     1       2.699  -0.276   1.425  0.00  0.00    +0.000 N 
ATOM     12  H   UNL     1       3.669  -0.507   1.564  0.00  0.00    +0.000 HD
BRANCH  11  13
ATOM     13  C   UNL     1       1.986   0.083   2.640  0.00  0.00    +0.000 C 
BRANCH  13  14
ATOM     14  C   UNL     1       1.670  -1.116   3.520  0.00  0.00    +0.000 A 
ATOM     15  C   UNL     1       0.462  -1.794   3.330  0.00  0.00    +0.000 A 
ATOM     16  C   UNL     1       0.116  -2.850   4.178  0.00  0.00    +0.000 A 
ATOM     17  C   UNL     1       1.021  -3.189   5.195  0.00  0.00    +0.000 A 
ATOM     18  C   UNL     1       1.048  -4.138   6.252  0.00  0.00    +0.000 A 
ATOM     19  C   UNL     1       2.236  -3.965   6.931  0.00  0.00    +0.000 A 
ATOM     20  N   UNL     1       2.929  -2.951   6.318  0.00  0.00    +0.000 N 
ATOM     21  C   UNL     1       2.204  -2.459   5.264  0.00  0.00    +0.000 A 
ATOM     22  N   UNL     1       2.591  -1.442   4.470  0.00  0.00    +0.000 NA
ATOM     23  H   UNL     1       3.833  -2.594   6.590  0.00  0.00    +0.000 HD
ENDBRANCH  13  14
ENDBRANCH  11  13
ENDBRANCH   1  10
BRANCH   2  24
ATOM     24  C   UNL     1       1.389   0.255  -2.754  0.00  0.00    +0.000 C 
ATOM     25  O   UNL     1       1.343   1.383  -2.272  0.00  0.00    +0.000 OA
BRANCH  24  26
ATOM     26  C   UNL     1       0.491  -0.100  -3.904  0.00  0.00    +0.000 A 
ATOM     27  C   UNL     1      -0.036   0.944  -4.680  0.00  0.00    +0.000 A 
ATOM     28  C   UNL     1      -0.789   0.669  -5.825  0.00  0.00    +0.000 A 
ATOM     29  C   UNL     1      -1.026  -0.650  -6.205  0.00  0.00    +0.000 A 
ATOM     30  C   UNL     1      -0.530  -1.696  -5.426  0.00  0.00    +0.000 A 
ATOM     31  C   UNL     1       0.216  -1.425  -4.272  0.00  0.00    +0.000 A 
ENDBRANCH  24  26
ENDBRANCH   2  24
TORSDOF 5
