REMARK  Name = 
REMARK  9 active torsions:
REMARK  status: ('A' for Active; 'I' for Inactive)
REMARK    1  A    between atoms: C_2  and  C_4
REMARK    2  A    between atoms: C_4  and  N_5
REMARK    3  A    between atoms: N_5  and  C_6
REMARK    4  A    between atoms: C_6  and  C_7
REMARK    5  A    between atoms: C_10  and  C_11
REMARK    6  A    between atoms: C_19  and  C_21
REMARK    7  A    between atoms: C_21  and  C_22
REMARK    8  A    between atoms: C_22  and  C_23
REMARK    9  A    between atoms: C_23  and  C_25
REMARK                            x       y       z     vdW  Elec       q    Type
REMARK                         _______ _______ _______ _____ _____    ______ ____
ROOT
ATOM      1  N   UNL     1       4.581   0.139   1.060  0.00  0.00    +0.000 N 
ATOM      2  C   UNL     1       5.493   0.550   2.043  0.00  0.00    +0.000 C 
ATOM      3  O   UNL     1       6.705   0.503   1.869  0.00  0.00    +0.000 OA
ENDROOT
BRANCH   1   4
ATOM      4  C   UNL     1       3.139   0.285   1.312  0.00  0.00    +0.000 C 
BRANCH   4   6
ATOM      5  N   UNL     1       0.818  -0.473   1.430  0.00  0.00    +0.000 N 
ATOM      6  C   UNL     1       2.102  -0.800   1.056  0.00  0.00    +0.000 C 
ATOM      7  O   UNL     1       2.347  -1.918   0.570  0.00  0.00    +0.000 OA
ATOM      8  H   UNL     1       0.135  -1.187   1.206  0.00  0.00    +0.000 HD
ATOM      9  H   UNL     1       0.682  -0.082   2.357  0.00  0.00    +0.000 HD
ENDBRANCH   4   6
ENDBRANCH   1   4
BRANCH   1  10
ATOM     10  C   UNL     1       5.080  -0.092  -0.337  0.00  0.00    +0.000 C 
BRANCH  10  11
ATOM     11  C   UNL     1       5.846  -1.385  -0.584  0.00  0.00    +0.000 A 
ATOM     12  C   UNL     1       6.082  -2.302   0.445  0.00  0.00    +0.000 A 
ATOM     13  C   UNL     1       6.581  -3.575   0.175  0.00  0.00    +0.000 A 
ATOM     14  C   UNL     1       6.871  -3.976  -1.133  0.00  0.00    +0.000 A 
ATOM     15  C   UNL     1       6.730  -3.015  -2.153  0.00  0.00    +0.000 A 
ATOM     16  C   UNL     1       6.244  -1.732  -1.881  0.00  0.00    +0.000 A 
BRANCH  14  17
ATOM     17  C   UNL     1       7.272  -5.359  -1.446  0.00  0.00    +0.000 A 
ATOM     18  C   UNL     1       6.830  -6.456  -0.687  0.00  0.00    +0.000 A 
ATOM     19  C   UNL     1       7.199  -7.760  -1.018  0.00  0.00    +0.000 A 
ATOM     20  C   UNL     1       8.017  -7.991  -2.123  0.00  0.00    +0.000 A 
ATOM     21  C   UNL     1       8.464  -6.926  -2.891  0.00  0.00    +0.000 A 
ATOM     22  C   UNL     1       8.098  -5.625  -2.552  0.00  0.00    +0.000 A 
ENDBRANCH  14  17
ENDBRANCH  10  11
ENDBRANCH   1  10
BRANCH   2  23
ATOM     23  C   UNL     1       4.908   1.094   3.338  0.00  0.00    +0.000 C 
BRANCH  23  24
ATOM     24  C   UNL     1       5.973   1.500   4.327  0.00  0.00    +0.000 C 
BRANCH  24  25
ATOM     25  C   UNL     1       5.360   2.028   5.609  0.00  0.00    +0.000 C 
ATOM     26  O   UNL     1       4.141   2.111   5.768  0.00  0.00    +0.000 OA
BRANCH  25  27
ATOM     27  C   UNL     1       6.268   2.466   6.712  0.00  0.00    +0.000 A 
ATOM     28  C   UNL     1       7.663   2.374   6.617  0.00  0.00    +0.000 A 
ATOM     29  C   UNL     1       8.473   2.841   7.660  0.00  0.00    +0.000 A 
ATOM     30  C   UNL     1       7.886   3.388   8.797  0.00  0.00    +0.000 A 
ATOM     31  F   UNL     1       8.668   3.845   9.788  0.00  0.00    +0.000 F 
ATOM     32  C   UNL     1       6.505   3.468   8.902  0.00  0.00    +0.000 A 
ATOM     33  F   UNL     1       5.939   3.995   9.997  0.00  0.00    +0.000 F 
ATOM     34  C   UNL     1       5.692   3.011   7.869  0.00  0.00    +0.000 A 
ENDBRANCH  25  27
ENDBRANCH  24  25
ENDBRANCH  23  24
ENDBRANCH   2  23
TORSDOF 9
