REMARK  Name = 
REMARK  6 active torsions:
REMARK  status: ('A' for Active; 'I' for Inactive)
REMARK    1  A    between atoms: C_1  and  O_2
REMARK    2  A    between atoms: O_2  and  C_3
REMARK    3  A    between atoms: C_3  and  C_5
REMARK    4  A    between atoms: C_10  and  C_11
REMARK    5  A    between atoms: N_13  and  C_14
REMARK    6  A    between atoms: C_17  and  N_18
REMARK                            x       y       z     vdW  Elec       q    Type
REMARK                         _______ _______ _______ _____ _____    ______ ____
ROOT
ATOM      1  C   UNL     1      11.071   1.096  -1.694  0.00  0.00    +0.000 C 
ATOM      2  O   UNL     1      11.616   2.062  -2.233  0.00  0.00    +0.000 OA
ATOM      3  N   UNL     1      11.731   0.043  -1.077  0.00  0.00    +0.000 N 
ATOM      4  H   UNL     1      11.158  -0.757  -0.822  0.00  0.00    +0.000 HD
ENDROOT
BRANCH   1  10
ATOM      5  C   UNL     1       4.720   0.012  -1.244  0.00  0.00    +0.000 A 
ATOM      6  C   UNL     1       5.428  -1.015  -0.613  0.00  0.00    +0.000 A 
ATOM      7  C   UNL     1       6.835  -1.008  -0.608  0.00  0.00    +0.000 A 
ATOM      8  C   UNL     1       7.576   0.007  -1.206  0.00  0.00    +0.000 A 
ATOM      9  N   UNL     1       8.930  -0.010  -1.165  0.00  0.00    +0.000 NA
ATOM     10  C   UNL     1       9.576   1.038  -1.749  0.00  0.00    +0.000 A 
ATOM     11  C   UNL     1       8.927   2.087  -2.391  0.00  0.00    +0.000 A 
ATOM     12  C   UNL     1       7.544   2.087  -2.436  0.00  0.00    +0.000 A 
ATOM     13  C   UNL     1       6.841   1.044  -1.836  0.00  0.00    +0.000 A 
ATOM     14  C   UNL     1       5.437   1.040  -1.857  0.00  0.00    +0.000 A 
BRANCH   5  15
ATOM     15  C   UNL     1       3.235   0.076  -1.286  0.00  0.00    +0.000 C 
ATOM     16  O   UNL     1       2.614   0.959  -1.862  0.00  0.00    +0.000 OA
BRANCH  15  18
ATOM     17  C   UNL     1       1.263  -0.955  -0.570  0.00  0.00    +0.000 C 
ATOM     18  O   UNL     1       2.691  -0.962  -0.605  0.00  0.00    +0.000 OA
ENDBRANCH  15  18
ENDBRANCH   5  15
ENDBRANCH   1  10
BRANCH   3  19
ATOM     19  C   UNL     1      13.142  -0.047  -0.946  0.00  0.00    +0.000 A 
ATOM     20  C   UNL     1      13.981   1.066  -1.072  0.00  0.00    +0.000 A 
ATOM     21  C   UNL     1      15.373   0.949  -0.994  0.00  0.00    +0.000 A 
ATOM     22  C   UNL     1      15.961  -0.302  -0.826  0.00  0.00    +0.000 A 
ATOM     23  C   UNL     1      15.130  -1.423  -0.681  0.00  0.00    +0.000 A 
ATOM     24  C   UNL     1      13.730  -1.291  -0.701  0.00  0.00    +0.000 A 
BRANCH  22  25
ATOM     25  N   UNL     1      17.383  -0.444  -0.827  0.00  0.00    +0.000 N 
ATOM     26  C   UNL     1      17.997  -1.332  -1.704  0.00  0.00    +0.000 A 
ATOM     27  C   UNL     1      19.322  -1.527  -1.704  0.00  0.00    +0.000 A 
ATOM     28  C   UNL     1      20.149  -0.835  -0.753  0.00  0.00    +0.000 A 
ATOM     29  C   UNL     1      19.609   0.049   0.093  0.00  0.00    +0.000 A 
ATOM     30  C   UNL     1      18.140   0.320   0.082  0.00  0.00    +0.000 A 
ATOM     31  O   UNL     1      17.703   1.135   0.892  0.00  0.00    +0.000 OA
ENDBRANCH  22  25
ENDBRANCH   3  19
TORSDOF 5
