REMARK  Name = 
REMARK  9 active torsions:
REMARK  status: ('A' for Active; 'I' for Inactive)
REMARK    1  A    between atoms: C_1  and  N_2
REMARK    2  A    between atoms: N_2  and  C_3
REMARK    3  A    between atoms: C_3  and  C_4
REMARK    4  A    between atoms: C_4  and  O_5
REMARK    5  A    between atoms: O_5  and  C_6
REMARK    6  A    between atoms: C_10  and  C_11
REMARK    7  A    between atoms: C_14  and  C_16
REMARK    8  A    between atoms: N_18  and  C_19
REMARK    9  A    between atoms: C_26  and  C_27
REMARK                            x       y       z     vdW  Elec       q    Type
REMARK                         _______ _______ _______ _____ _____    ______ ____
ROOT
ATOM      1  C   UNL     1       4.647   0.793  -0.792  0.00  0.00    +0.000 A 
ATOM      2  C   UNL     1       5.551  -0.247  -0.829  0.00  0.00    +0.000 A 
ATOM      3  N   UNL     1       6.816   0.277  -0.810  0.00  0.00    +0.000 N 
ATOM      4  N   UNL     1       6.786   1.615  -0.632  0.00  0.00    +0.000 NA
ATOM      5  C   UNL     1       5.481   1.954  -0.656  0.00  0.00    +0.000 A 
ENDROOT
BRANCH   3   6
ATOM      6  C   UNL     1       8.032  -0.450  -0.946  0.00  0.00    +0.000 A 
ATOM      7  C   UNL     1       8.021  -1.810  -1.303  0.00  0.00    +0.000 A 
ATOM      8  C   UNL     1       9.218  -2.513  -1.444  0.00  0.00    +0.000 A 
ATOM      9  C   UNL     1      10.432  -1.869  -1.222  0.00  0.00    +0.000 A 
ATOM     10  C   UNL     1      10.452  -0.520  -0.868  0.00  0.00    +0.000 A 
ATOM     11  C   UNL     1       9.257   0.193  -0.735  0.00  0.00    +0.000 A 
ENDBRANCH   3   6
BRANCH   5  12
ATOM     12  C   UNL     1       5.091   3.367  -0.559  0.00  0.00    +0.000 A 
ATOM     13  C   UNL     1       3.978   3.863  -1.241  0.00  0.00    +0.000 A 
ATOM     14  C   UNL     1       3.655   5.204  -1.111  0.00  0.00    +0.000 A 
ATOM     15  N   UNL     1       4.374   6.080  -0.381  0.00  0.00    +0.000 NA
ATOM     16  C   UNL     1       5.455   5.589   0.258  0.00  0.00    +0.000 A 
ATOM     17  C   UNL     1       5.849   4.261   0.203  0.00  0.00    +0.000 A 
ENDBRANCH   5  12
BRANCH   1  20
ATOM     18  C   UNL     1       1.051  -0.088  -1.558  0.00  0.00    +0.000 C 
ATOM     19  N   UNL     1       2.503  -0.232  -1.551  0.00  0.00    +0.000 N 
ATOM     20  C   UNL     1       3.186   0.718  -0.762  0.00  0.00    +0.000 C 
ATOM     21  O   UNL     1       2.550   1.506  -0.062  0.00  0.00    +0.000 OA
BRANCH  19  22
ATOM     22  C   UNL     1       3.162  -1.176  -2.464  0.00  0.00    +0.000 C 
BRANCH  22  23
ATOM     23  C   UNL     1       2.332  -2.266  -3.134  0.00  0.00    +0.000 C 
BRANCH  23  24
ATOM     24  O   UNL     1       1.545  -1.722  -4.188  0.00  0.00    +0.000 OA
BRANCH  24  25
ATOM     25  C   UNL     1       0.669  -2.598  -4.768  0.00  0.00    +0.000 A 
ATOM     26  C   UNL     1       0.630  -3.978  -4.546  0.00  0.00    +0.000 A 
ATOM     27  C   UNL     1      -0.303  -4.771  -5.208  0.00  0.00    +0.000 A 
ATOM     28  C   UNL     1      -1.200  -4.192  -6.102  0.00  0.00    +0.000 A 
ATOM     29  C   UNL     1      -1.167  -2.813  -6.327  0.00  0.00    +0.000 A 
ATOM     30  C   UNL     1      -0.233  -2.017  -5.659  0.00  0.00    +0.000 A 
BRANCH  29  31
ATOM     31  C   UNL     1      -2.089  -2.215  -7.242  0.00  0.00    +0.000 C 
ATOM     32  N   UNL     1      -2.832  -1.733  -7.989  0.00  0.00    +0.000 NA
ENDBRANCH  29  31
ENDBRANCH  24  25
ENDBRANCH  23  24
ENDBRANCH  22  23
ENDBRANCH  19  22
ENDBRANCH   1  20
TORSDOF 8
