REMARK  Name = 
REMARK  6 active torsions:
REMARK  status: ('A' for Active; 'I' for Inactive)
REMARK    1  A    between atoms: C_2  and  C_4
REMARK    2  A    between atoms: C_7  and  C_8
REMARK    3  A    between atoms: C_8  and  C_9
REMARK    4  A    between atoms: N_11  and  C_12
REMARK    5  A    between atoms: C_12  and  C_13
REMARK    6  A    between atoms: C_16  and  C_17
REMARK                            x       y       z     vdW  Elec       q    Type
REMARK                         _______ _______ _______ _____ _____    ______ ____
ROOT
ATOM      1  C   UNL     1       4.875  -7.708  -3.617  0.00  0.00    +0.000 C 
ENDROOT
BRANCH   1   2
ATOM      2  C   UNL     1       5.614  -8.989  -3.868  0.00  0.00    +0.000 A 
ATOM      3  C   UNL     1       6.988  -8.948  -4.077  0.00  0.00    +0.000 A 
ATOM      4  C   UNL     1       7.699 -10.134  -4.226  0.00  0.00    +0.000 A 
ATOM      5  C   UNL     1       7.089 -11.406  -4.125  0.00  0.00    +0.000 A 
ATOM      6  C   UNL     1       5.696 -11.430  -4.002  0.00  0.00    +0.000 A 
ATOM      7  C   UNL     1       4.965 -10.232  -3.882  0.00  0.00    +0.000 A 
BRANCH   5   8
ATOM      8  C   UNL     1       7.960 -12.608  -4.100  0.00  0.00    +0.000 A 
ATOM      9  C   UNL     1       9.256 -12.454  -3.574  0.00  0.00    +0.000 A 
ATOM     10  C   UNL     1      10.241 -13.403  -3.775  0.00  0.00    +0.000 A 
ATOM     11  C   UNL     1       9.897 -14.635  -4.311  0.00  0.00    +0.000 A 
ATOM     12  C   UNL     1      10.881 -15.589  -4.540  0.00  0.00    +0.000 A 
ATOM     13  C   UNL     1      10.585 -16.922  -4.369  0.00  0.00    +0.000 A 
ATOM     14  C   UNL     1       9.253 -17.301  -4.441  0.00  0.00    +0.000 A 
ATOM     15  C   UNL     1       8.259 -16.334  -4.671  0.00  0.00    +0.000 A 
ATOM     16  C   UNL     1       8.552 -14.960  -4.527  0.00  0.00    +0.000 A 
ATOM     17  C   UNL     1       7.607 -13.897  -4.548  0.00  0.00    +0.000 A 
ENDBRANCH   5   8
ENDBRANCH   1   2
BRANCH   1  20
ATOM     18  C   UNL     1       3.792  -5.864  -4.782  0.00  0.00    +0.000 C 
ATOM     19  O   UNL     1       3.695  -5.233  -3.722  0.00  0.00    +0.000 OA
ATOM     20  N   UNL     1       4.388  -7.107  -4.834  0.00  0.00    +0.000 N 
ATOM     21  H   UNL     1       4.580  -7.566  -5.725  0.00  0.00    +0.000 HD
BRANCH  18  22
ATOM     22  C   UNL     1       3.305  -5.295  -6.121  0.00  0.00    +0.000 C 
BRANCH  22  26
ATOM     23  C   UNL     1      -0.874  -4.593  -6.641  0.00  0.00    +0.000 A 
ATOM     24  C   UNL     1      -0.377  -4.545  -5.350  0.00  0.00    +0.000 A 
ATOM     25  C   UNL     1       0.980  -4.799  -5.150  0.00  0.00    +0.000 A 
ATOM     26  C   UNL     1       1.791  -5.092  -6.223  0.00  0.00    +0.000 A 
ATOM     27  C   UNL     1       1.216  -5.098  -7.488  0.00  0.00    +0.000 A 
ATOM     28  N   UNL     1      -0.100  -4.867  -7.726  0.00  0.00    +0.000 NA
BRANCH  23  30
ATOM     29  N   UNL     1      -2.737  -4.446  -8.199  0.00  0.00    +0.000 N 
ATOM     30  C   UNL     1      -2.328  -4.330  -6.898  0.00  0.00    +0.000 C 
ATOM     31  O   UNL     1      -3.114  -4.043  -6.004  0.00  0.00    +0.000 OA
ATOM     32  H   UNL     1      -3.704  -4.274  -8.435  0.00  0.00    +0.000 HD
ATOM     33  H   UNL     1      -2.060  -4.691  -8.918  0.00  0.00    +0.000 HD
ENDBRANCH  23  30
ENDBRANCH  22  26
ENDBRANCH  18  22
ENDBRANCH   1  20
TORSDOF 6
