REMARK  Name = 
REMARK  3 active torsions:
REMARK  status: ('A' for Active; 'I' for Inactive)
REMARK    1  A    between atoms: C_2  and  C_3
REMARK    2  A    between atoms: C_2  and  C_9
REMARK    3  A    between atoms: C_11  and  C_12
REMARK                            x       y       z     vdW  Elec       q    Type
REMARK                         _______ _______ _______ _____ _____    ______ ____
ROOT
ATOM      1  C   UNL     1       2.847   1.057  -0.962  0.00  0.00    +0.000 A 
ATOM      2  C   UNL     1       2.459   2.414  -0.972  0.00  0.00    +0.000 A 
ATOM      3  C   UNL     1       3.146   3.357  -1.755  0.00  0.00    +0.000 A 
ATOM      4  C   UNL     1       4.226   2.889  -2.535  0.00  0.00    +0.000 A 
ATOM      5  C   UNL     1       4.614   1.551  -2.529  0.00  0.00    +0.000 A 
ATOM      6  C   UNL     1       3.931   0.643  -1.736  0.00  0.00    +0.000 A 
ATOM      7  F   UNL     1       4.340  -0.633  -1.750  0.00  0.00    +0.000 F 
ENDROOT
BRANCH   3   8
ATOM      8  C   UNL     1       2.838   4.806  -1.736  0.00  0.00    +0.000 A 
ATOM      9  C   UNL     1       3.034   5.575  -2.903  0.00  0.00    +0.000 A 
ATOM     10  C   UNL     1       3.014   6.966  -2.876  0.00  0.00    +0.000 A 
ATOM     11  C   UNL     1       2.691   7.609  -1.693  0.00  0.00    +0.000 A 
ATOM     12  O   UNL     1       2.695   9.005  -1.722  0.00  0.00    +0.000 OA
ATOM     13  C   UNL     1       2.100   9.706  -0.682  0.00  0.00    +0.000 A 
ATOM     14  O   UNL     1       1.952  10.922  -0.738  0.00  0.00    +0.000 OA
ATOM     15  N   UNL     1       1.692   8.980   0.405  0.00  0.00    +0.000 N 
ATOM     16  C   UNL     1       1.847   7.632   0.595  0.00  0.00    +0.000 A 
ATOM     17  O   UNL     1       1.552   7.076   1.644  0.00  0.00    +0.000 OA
ATOM     18  C   UNL     1       2.354   6.885  -0.562  0.00  0.00    +0.000 A 
ATOM     19  C   UNL     1       2.449   5.485  -0.566  0.00  0.00    +0.000 A 
ATOM     20  H   UNL     1       1.275   9.509   1.155  0.00  0.00    +0.000 HD
ENDBRANCH   3   8
BRANCH   1  22
ATOM     21  O   UNL     1       2.832  -0.793   0.485  0.00  0.00    +0.000 OA
ATOM     22  C   UNL     1       2.176   0.084  -0.074  0.00  0.00    +0.000 C 
BRANCH  22  23
ATOM     23  C   UNL     1       0.720   0.161   0.203  0.00  0.00    +0.000 A 
ATOM     24  C   UNL     1       0.268  -0.233   1.466  0.00  0.00    +0.000 A 
ATOM     25  C   UNL     1      -1.082  -0.114   1.795  0.00  0.00    +0.000 A 
ATOM     26  C   UNL     1      -1.985   0.388   0.858  0.00  0.00    +0.000 A 
ATOM     27  C   UNL     1      -1.546   0.752  -0.415  0.00  0.00    +0.000 A 
ATOM     28  C   UNL     1      -0.197   0.628  -0.752  0.00  0.00    +0.000 A 
ENDBRANCH  22  23
ENDBRANCH   1  22
TORSDOF 3
