REMARK  Name = 
REMARK  5 active torsions:
REMARK  status: ('A' for Active; 'I' for Inactive)
REMARK    1  A    between atoms: N_1  and  C_2
REMARK    2  A    between atoms: C_8  and  C_9
REMARK    3  A    between atoms: N_11  and  C_12
REMARK    4  A    between atoms: C_14  and  N_15
REMARK    5  A    between atoms: C_16  and  C_18
REMARK                            x       y       z     vdW  Elec       q    Type
REMARK                         _______ _______ _______ _____ _____    ______ ____
ROOT
ATOM      1  C   UNL     1       0.342   3.867  -0.079  0.00  0.00    +0.000 A 
ATOM      2  C   UNL     1       0.685   4.831  -1.037  0.00  0.00    +0.000 A 
ATOM      3  C   UNL     1      -0.062   6.006  -1.205  0.00  0.00    +0.000 A 
ATOM      4  C   UNL     1      -1.168   6.214  -0.376  0.00  0.00    +0.000 A 
ATOM      5  C   UNL     1      -1.554   5.238   0.548  0.00  0.00    +0.000 A 
ATOM      6  C   UNL     1      -0.811   4.060   0.681  0.00  0.00    +0.000 A 
ENDROOT
BRANCH   1   9
ATOM      7  C   UNL     1       2.398   2.464  -0.301  0.00  0.00    +0.000 C 
ATOM      8  O   UNL     1       3.111   3.246  -0.927  0.00  0.00    +0.000 OA
ATOM      9  N   UNL     1       1.111   2.703   0.154  0.00  0.00    +0.000 N 
ATOM     10  H   UNL     1       0.745   2.001   0.789  0.00  0.00    +0.000 HD
BRANCH   7  17
ATOM     11  C   UNL     1       4.096   0.613  -0.594  0.00  0.00    +0.000 A 
ATOM     12  C   UNL     1       4.560  -0.634  -0.178  0.00  0.00    +0.000 A 
ATOM     13  C   UNL     1       3.973  -1.258   0.914  0.00  0.00    +0.000 A 
ATOM     14  F   UNL     1       4.441  -2.436   1.346  0.00  0.00    +0.000 F 
ATOM     15  C   UNL     1       2.894  -0.657   1.542  0.00  0.00    +0.000 A 
ATOM     16  N   UNL     1       2.352   0.520   1.148  0.00  0.00    +0.000 NA
ATOM     17  C   UNL     1       2.967   1.130   0.086  0.00  0.00    +0.000 A 
BRANCH  11  18
ATOM     18  N   UNL     1       4.611   1.161  -1.785  0.00  0.00    +0.000 N 
ATOM     19  H   UNL     1       5.579   0.939  -1.989  0.00  0.00    +0.000 HD
ATOM     20  H   UNL     1       4.425   2.172  -1.849  0.00  0.00    +0.000 HD
ENDBRANCH  11  18
ENDBRANCH   7  17
ENDBRANCH   1   9
BRANCH   3  21
ATOM     21  N   UNL     1       0.246   7.005  -2.167  0.00  0.00    +0.000 N 
ATOM     22  C   UNL     1       1.184   6.905  -3.183  0.00  0.00    +0.000 C 
ATOM     23  O   UNL     1       1.831   5.901  -3.466  0.00  0.00    +0.000 OA
ATOM     24  H   UNL     1      -0.347   7.823  -2.163  0.00  0.00    +0.000 HD
BRANCH  22  25
ATOM     25  C   UNL     1       1.349   8.085  -4.088  0.00  0.00    +0.000 A 
ATOM     26  C   UNL     1       1.560   7.755  -5.441  0.00  0.00    +0.000 A 
ATOM     27  C   UNL     1       1.740   8.745  -6.394  0.00  0.00    +0.000 A 
ATOM     28  C   UNL     1       1.697  10.078  -6.001  0.00  0.00    +0.000 A 
ATOM     29  C   UNL     1       1.506  10.448  -4.679  0.00  0.00    +0.000 A 
ATOM     30  N   UNL     1       1.500  11.766  -4.422  0.00  0.00    +0.000 NA
ATOM     31  C   UNL     1       1.375  12.172  -3.145  0.00  0.00    +0.000 A 
ATOM     32  C   UNL     1       1.263  11.303  -2.083  0.00  0.00    +0.000 A 
ATOM     33  C   UNL     1       1.265   9.935  -2.351  0.00  0.00    +0.000 A 
ATOM     34  C   UNL     1       1.355   9.453  -3.680  0.00  0.00    +0.000 A 
ENDBRANCH  22  25
ENDBRANCH   3  21
TORSDOF 5
