REMARK  Name = 
REMARK  7 active torsions:
REMARK  status: ('A' for Active; 'I' for Inactive)
REMARK    1  A    between atoms: C_2  and  C_10
REMARK    2  A    between atoms: N_3  and  C_4
REMARK    3  A    between atoms: C_13  and  C_14
REMARK    4  A    between atoms: C_14  and  O_15
REMARK    5  A    between atoms: O_15  and  C_16
REMARK    6  A    between atoms: C_16  and  C_18
REMARK    7  A    between atoms: N_22  and  C_23
REMARK                            x       y       z     vdW  Elec       q    Type
REMARK                         _______ _______ _______ _____ _____    ______ ____
ROOT
ATOM      1  C   UNL     1       2.999   0.826   0.851  0.00  0.00    +0.000 A 
ATOM      2  C   UNL     1       2.511   1.089   2.136  0.00  0.00    +0.000 A 
ATOM      3  C   UNL     1       3.241   1.885   3.013  0.00  0.00    +0.000 A 
ATOM      4  C   UNL     1       4.463   2.441   2.616  0.00  0.00    +0.000 A 
ATOM      5  C   UNL     1       4.947   2.175   1.324  0.00  0.00    +0.000 A 
ATOM      6  C   UNL     1       4.219   1.367   0.441  0.00  0.00    +0.000 A 
ENDROOT
BRANCH   1   8
ATOM      7  O   UNL     1       0.923   0.197   0.042  0.00  0.00    +0.000 OA
ATOM      8  C   UNL     1       2.135   0.028  -0.054  0.00  0.00    +0.000 C 
ATOM      9  N   UNL     1       2.783  -0.882  -0.864  0.00  0.00    +0.000 N 
ATOM     10  H   UNL     1       3.770  -1.031  -0.703  0.00  0.00    +0.000 HD
BRANCH   9  11
ATOM     11  C   UNL     1       2.146  -1.790  -1.744  0.00  0.00    +0.000 A 
ATOM     12  C   UNL     1       0.808  -1.668  -2.130  0.00  0.00    +0.000 A 
ATOM     13  C   UNL     1       0.208  -2.630  -2.944  0.00  0.00    +0.000 A 
ATOM     14  C   UNL     1       0.946  -3.721  -3.392  0.00  0.00    +0.000 A 
ATOM     15  C   UNL     1       2.290  -3.835  -3.042  0.00  0.00    +0.000 A 
ATOM     16  C   UNL     1       2.893  -2.868  -2.232  0.00  0.00    +0.000 A 
ENDBRANCH   9  11
ENDBRANCH   1   8
BRANCH   4  17
ATOM     17  C   UNL     1       5.177   3.388   3.543  0.00  0.00    +0.000 C 
BRANCH  17  18
ATOM     18  O   UNL     1       6.456   2.897   3.955  0.00  0.00    +0.000 OA
BRANCH  18  19
ATOM     19  C   UNL     1       7.505   3.562   3.406  0.00  0.00    +0.000 C 
ATOM     20  O   UNL     1       7.441   4.250   2.396  0.00  0.00    +0.000 OA
BRANCH  19  21
ATOM     21  C   UNL     1       8.657   3.427   4.248  0.00  0.00    +0.000 A 
ATOM     22  C   UNL     1       9.101   2.336   4.973  0.00  0.00    +0.000 A 
ATOM     23  C   UNL     1      10.370   2.703   5.440  0.00  0.00    +0.000 A 
ATOM     24  N   UNL     1      10.711   3.935   5.063  0.00  0.00    +0.000 NA
ATOM     25  N   UNL     1       9.600   4.423   4.448  0.00  0.00    +0.000 N 
BRANCH  25  26
ATOM     26  C   UNL     1       9.507   5.806   4.154  0.00  0.00    +0.000 A 
ATOM     27  C   UNL     1       8.281   6.478   4.114  0.00  0.00    +0.000 A 
ATOM     28  C   UNL     1       8.246   7.819   3.744  0.00  0.00    +0.000 A 
ATOM     29  C   UNL     1       9.444   8.447   3.449  0.00  0.00    +0.000 A 
ATOM     30  N   UNL     1      10.650   7.844   3.535  0.00  0.00    +0.000 NA
ATOM     31  C   UNL     1      10.659   6.537   3.901  0.00  0.00    +0.000 A 
ENDBRANCH  25  26
ENDBRANCH  19  21
ENDBRANCH  18  19
ENDBRANCH  17  18
ENDBRANCH   4  17
TORSDOF 7
