REMARK  Name = 
REMARK  5 active torsions:
REMARK  status: ('A' for Active; 'I' for Inactive)
REMARK    1  A    between atoms: C_2  and  C_19
REMARK    2  A    between atoms: N_3  and  C_4
REMARK    3  A    between atoms: C_4  and  C_5
REMARK    4  A    between atoms: C_8  and  O_9
REMARK    5  A    between atoms: O_9  and  C_10
REMARK                            x       y       z     vdW  Elec       q    Type
REMARK                         _______ _______ _______ _____ _____    ______ ____
ROOT
ATOM      1  O   UNL     1       1.207  -0.142   0.035  0.00  0.00    +0.000 OA
ATOM      2  C   UNL     1       2.434  -0.127   0.124  0.00  0.00    +0.000 C 
ATOM      3  N   UNL     1       3.174   0.916  -0.392  0.00  0.00    +0.000 N 
ATOM      4  H   UNL     1       4.181   0.958  -0.348  0.00  0.00    +0.000 HD
ENDROOT
BRANCH   2   5
ATOM      5  C   UNL     1       3.114  -1.243   0.847  0.00  0.00    +0.000 A 
ATOM      6  C   UNL     1       2.257  -2.177   1.462  0.00  0.00    +0.000 A 
ATOM      7  C   UNL     1       2.750  -3.188   2.281  0.00  0.00    +0.000 A 
ATOM      8  C   UNL     1       4.122  -3.305   2.433  0.00  0.00    +0.000 A 
ATOM      9  C   UNL     1       4.690  -4.296   3.339  0.00  0.00    +0.000 A 
ATOM     10  N   UNL     1       5.936  -4.649   3.327  0.00  0.00    +0.000 NA
ATOM     11  N   UNL     1       6.747  -3.995   2.435  0.00  0.00    +0.000 N 
ATOM     12  C   UNL     1       6.414  -2.869   1.732  0.00  0.00    +0.000 A 
ATOM     13  O   UNL     1       7.229  -2.229   1.073  0.00  0.00    +0.000 OA
ATOM     14  C   UNL     1       4.992  -2.484   1.727  0.00  0.00    +0.000 A 
ATOM     15  C   UNL     1       4.501  -1.410   0.964  0.00  0.00    +0.000 A 
ATOM     16  H   UNL     1       7.704  -4.335   2.384  0.00  0.00    +0.000 HD
ENDBRANCH   2   5
BRANCH   3  17
ATOM     17  C   UNL     1       2.445   2.019  -0.981  0.00  0.00    +0.000 C 
BRANCH  17  18
ATOM     18  C   UNL     1       3.331   3.118  -1.490  0.00  0.00    +0.000 A 
ATOM     19  C   UNL     1       3.869   3.045  -2.781  0.00  0.00    +0.000 A 
ATOM     20  C   UNL     1       4.639   4.093  -3.289  0.00  0.00    +0.000 A 
ATOM     21  C   UNL     1       4.836   5.247  -2.528  0.00  0.00    +0.000 A 
ATOM     22  C   UNL     1       4.352   5.301  -1.220  0.00  0.00    +0.000 A 
ATOM     23  C   UNL     1       3.606   4.242  -0.700  0.00  0.00    +0.000 A 
BRANCH  21  24
ATOM     24  O   UNL     1       5.548   6.347  -2.949  0.00  0.00    +0.000 OA
BRANCH  24  25
ATOM     25  C   UNL     1       5.510   6.742  -4.268  0.00  0.00    +0.000 A 
ATOM     26  C   UNL     1       4.422   6.566  -5.125  0.00  0.00    +0.000 A 
ATOM     27  C   UNL     1       4.519   6.992  -6.445  0.00  0.00    +0.000 A 
ATOM     28  F   UNL     1       3.497   6.770  -7.283  0.00  0.00    +0.000 F 
ATOM     29  C   UNL     1       5.657   7.638  -6.914  0.00  0.00    +0.000 A 
ATOM     30  C   UNL     1       6.719   7.873  -6.044  0.00  0.00    +0.000 A 
ATOM     31  C   UNL     1       6.643   7.424  -4.723  0.00  0.00    +0.000 A 
ENDBRANCH  24  25
ENDBRANCH  21  24
ENDBRANCH  17  18
ENDBRANCH   3  17
TORSDOF 5
