REMARK  Name = 
REMARK  6 active torsions:
REMARK  status: ('A' for Active; 'I' for Inactive)
REMARK    1  A    between atoms: C_2  and  C_3
REMARK    2  A    between atoms: C_3  and  N_4
REMARK    3  A    between atoms: N_15  and  C_16
REMARK    4  A    between atoms: C_16  and  C_17
REMARK    5  A    between atoms: C_19  and  O_20
REMARK    6  A    between atoms: O_20  and  C_21
REMARK                            x       y       z     vdW  Elec       q    Type
REMARK                         _______ _______ _______ _____ _____    ______ ____
ROOT
ATOM      1  O   UNL     1       2.742   0.743  -0.545  0.00  0.00    +0.000 OA
ATOM      2  C   UNL     1       2.229  -0.056   0.234  0.00  0.00    +0.000 C 
ATOM      3  N   UNL     1       2.966  -0.954   0.985  0.00  0.00    +0.000 N 
ATOM      4  H   UNL     1       2.503  -1.616   1.593  0.00  0.00    +0.000 HD
ENDROOT
BRANCH   2   5
ATOM      5  C   UNL     1       0.715  -0.103   0.500  0.00  0.00    +0.000 C 
BRANCH   5   6
ATOM      6  N   UNL     1      -0.003  -0.984  -0.448  0.00  0.00    +0.000 N 
ATOM      7  C   UNL     1      -0.192  -2.328  -0.168  0.00  0.00    +0.000 A 
ATOM      8  C   UNL     1      -0.859  -3.206  -0.922  0.00  0.00    +0.000 A 
ATOM      9  C   UNL     1      -1.462  -2.728  -2.179  0.00  0.00    +0.000 A 
ATOM     10  O   UNL     1      -2.059  -3.502  -2.907  0.00  0.00    +0.000 OA
ATOM     11  C   UNL     1      -1.325  -1.281  -2.492  0.00  0.00    +0.000 A 
ATOM     12  C   UNL     1      -1.952  -0.793  -3.650  0.00  0.00    +0.000 A 
ATOM     13  C   UNL     1      -1.877   0.559  -3.959  0.00  0.00    +0.000 A 
ATOM     14  C   UNL     1      -1.170   1.412  -3.118  0.00  0.00    +0.000 A 
ATOM     15  C   UNL     1      -0.533   0.918  -1.970  0.00  0.00    +0.000 A 
ATOM     16  C   UNL     1      -0.599  -0.440  -1.615  0.00  0.00    +0.000 A 
ENDBRANCH   5   6
ENDBRANCH   2   5
BRANCH   3  17
ATOM     17  C   UNL     1       4.411  -1.055   0.916  0.00  0.00    +0.000 C 
BRANCH  17  18
ATOM     18  C   UNL     1       4.847  -2.428   0.452  0.00  0.00    +0.000 A 
ATOM     19  C   UNL     1       5.031  -2.667  -0.904  0.00  0.00    +0.000 A 
ATOM     20  C   UNL     1       5.512  -3.912  -1.315  0.00  0.00    +0.000 A 
ATOM     21  C   UNL     1       5.687  -4.917  -0.373  0.00  0.00    +0.000 A 
ATOM     22  C   UNL     1       5.431  -4.612   0.953  0.00  0.00    +0.000 A 
ATOM     23  N   UNL     1       5.026  -3.396   1.387  0.00  0.00    +0.000 NA
BRANCH  20  24
ATOM     24  O   UNL     1       5.811  -4.239  -2.622  0.00  0.00    +0.000 OA
BRANCH  24  25
ATOM     25  C   UNL     1       6.283  -3.252  -3.466  0.00  0.00    +0.000 A 
ATOM     26  C   UNL     1       7.064  -2.178  -3.034  0.00  0.00    +0.000 A 
ATOM     27  C   UNL     1       7.369  -1.156  -3.916  0.00  0.00    +0.000 A 
ATOM     28  F   UNL     1       8.008  -0.071  -3.462  0.00  0.00    +0.000 F 
ATOM     29  C   UNL     1       6.993  -1.226  -5.251  0.00  0.00    +0.000 A 
ATOM     30  C   UNL     1       6.308  -2.350  -5.714  0.00  0.00    +0.000 A 
ATOM     31  C   UNL     1       5.950  -3.364  -4.817  0.00  0.00    +0.000 A 
ENDBRANCH  24  25
ENDBRANCH  20  24
ENDBRANCH  17  18
ENDBRANCH   3  17
TORSDOF 6
