REMARK  Name = 
REMARK  7 active torsions:
REMARK  status: ('A' for Active; 'I' for Inactive)
REMARK    1  A    between atoms: C_1  and  O_2
REMARK    2  A    between atoms: O_2  and  C_3
REMARK    3  A    between atoms: C_8  and  C_9
REMARK    4  A    between atoms: C_16  and  C_17
REMARK    5  A    between atoms: N_19  and  C_20
REMARK    6  A    between atoms: N_19  and  C_21
REMARK    7  A    between atoms: N_25  and  C_26
REMARK                            x       y       z     vdW  Elec       q    Type
REMARK                         _______ _______ _______ _____ _____    ______ ____
ROOT
ATOM      1  C   UNL     1       2.861   1.127  -1.052  0.00  0.00    +0.000 A 
ATOM      2  C   UNL     1       2.742   2.501  -1.210  0.00  0.00    +0.000 A 
ATOM      3  C   UNL     1       3.659   3.185  -2.010  0.00  0.00    +0.000 A 
ATOM      4  C   UNL     1       4.706   2.539  -2.648  0.00  0.00    +0.000 A 
ATOM      5  N   UNL     1       5.530   3.298  -3.382  0.00  0.00    +0.000 NA
ATOM      6  C   UNL     1       6.538   2.720  -4.068  0.00  0.00    +0.000 A 
ATOM      7  C   UNL     1       6.761   1.355  -3.989  0.00  0.00    +0.000 A 
ATOM      8  C   UNL     1       5.990   0.572  -3.125  0.00  0.00    +0.000 A 
ATOM      9  C   UNL     1       4.865   1.148  -2.485  0.00  0.00    +0.000 A 
ATOM     10  C   UNL     1       3.906   0.458  -1.699  0.00  0.00    +0.000 A 
ENDROOT
BRANCH   6  11
ATOM     11  C   UNL     1       7.405   3.632  -4.845  0.00  0.00    +0.000 A 
ATOM     12  C   UNL     1       7.540   4.987  -4.482  0.00  0.00    +0.000 A 
ATOM     13  C   UNL     1       8.373   5.856  -5.196  0.00  0.00    +0.000 A 
ATOM     14  C   UNL     1       9.092   5.389  -6.291  0.00  0.00    +0.000 A 
ATOM     15  C   UNL     1       8.975   4.058  -6.675  0.00  0.00    +0.000 A 
ATOM     16  C   UNL     1       8.139   3.193  -5.962  0.00  0.00    +0.000 A 
ENDBRANCH   6  11
BRANCH   8  17
ATOM     17  C   UNL     1       6.414  -0.855  -2.894  0.00  0.00    +0.000 C 
ATOM     18  O   UNL     1       5.554  -1.732  -2.955  0.00  0.00    +0.000 OA
ATOM     19  N   UNL     1       7.777  -1.143  -2.647  0.00  0.00    +0.000 N 
ATOM     20  C   UNL     1       8.203  -2.542  -2.580  0.00  0.00    +0.000 C 
BRANCH  19  21
ATOM     21  C   UNL     1       8.759  -0.189  -2.432  0.00  0.00    +0.000 A 
ATOM     22  C   UNL     1       8.743   0.598  -1.345  0.00  0.00    +0.000 A 
ATOM     23  C   UNL     1       9.654   1.701  -1.210  0.00  0.00    +0.000 A 
ATOM     24  C   UNL     1      10.496   2.002  -2.203  0.00  0.00    +0.000 A 
ATOM     25  N   UNL     1      10.573   1.223  -3.343  0.00  0.00    +0.000 N 
ATOM     26  C   UNL     1      11.425   1.646  -4.442  0.00  0.00    +0.000 C 
ATOM     27  C   UNL     1       9.795   0.073  -3.517  0.00  0.00    +0.000 A 
ATOM     28  O   UNL     1       9.850  -0.636  -4.521  0.00  0.00    +0.000 OA
ENDBRANCH  19  21
ENDBRANCH   8  17
BRANCH   1  30
ATOM     29  C   UNL     1       1.062   0.991   0.493  0.00  0.00    +0.000 C 
ATOM     30  O   UNL     1       2.041   0.334  -0.301  0.00  0.00    +0.000 OA
ENDBRANCH   1  30
TORSDOF 4
