REMARK  Name = 
REMARK  5 active torsions:
REMARK  status: ('A' for Active; 'I' for Inactive)
REMARK    1  A    between atoms: C_2  and  C_19
REMARK    2  A    between atoms: N_3  and  C_4
REMARK    3  A    between atoms: C_7  and  O_8
REMARK    4  A    between atoms: O_8  and  C_9
REMARK    5  A    between atoms: C_9  and  C_10
REMARK                            x       y       z     vdW  Elec       q    Type
REMARK                         _______ _______ _______ _____ _____    ______ ____
ROOT
ATOM      1  O   UNL     1       1.357   0.771   0.495  0.00  0.00    +0.000 OA
ATOM      2  C   UNL     1       2.401   0.276   0.107  0.00  0.00    +0.000 C 
ATOM      3  N   UNL     1       2.862   0.163  -1.189  0.00  0.00    +0.000 N 
ATOM      4  H   UNL     1       3.668  -0.426  -1.355  0.00  0.00    +0.000 HD
ENDROOT
BRANCH   2   5
ATOM      5  C   UNL     1       3.300  -0.365   1.115  0.00  0.00    +0.000 A 
ATOM      6  C   UNL     1       4.693  -0.389   0.908  0.00  0.00    +0.000 A 
ATOM      7  C   UNL     1       5.506  -1.138   1.749  0.00  0.00    +0.000 A 
ATOM      8  C   UNL     1       4.925  -1.749   2.853  0.00  0.00    +0.000 A 
ATOM      9  C   UNL     1       5.704  -2.558   3.780  0.00  0.00    +0.000 A 
ATOM     10  O   UNL     1       6.520  -3.371   3.367  0.00  0.00    +0.000 OA
ATOM     11  N   UNL     1       5.408  -2.304   5.099  0.00  0.00    +0.000 N 
ATOM     12  N   UNL     1       4.111  -2.023   5.503  0.00  0.00    +0.000 NA
ATOM     13  C   UNL     1       3.233  -1.781   4.576  0.00  0.00    +0.000 A 
ATOM     14  C   UNL     1       3.596  -1.534   3.184  0.00  0.00    +0.000 A 
ATOM     15  C   UNL     1       2.743  -0.915   2.278  0.00  0.00    +0.000 A 
ATOM     16  H   UNL     1       6.075  -1.661   5.525  0.00  0.00    +0.000 HD
ENDBRANCH   2   5
BRANCH   3  17
ATOM     17  C   UNL     1       2.252   0.665  -2.353  0.00  0.00    +0.000 A 
ATOM     18  C   UNL     1       1.169   1.540  -2.347  0.00  0.00    +0.000 A 
ATOM     19  C   UNL     1       0.621   1.983  -3.554  0.00  0.00    +0.000 A 
ATOM     20  C   UNL     1       1.156   1.565  -4.772  0.00  0.00    +0.000 A 
ATOM     21  C   UNL     1       2.231   0.677  -4.780  0.00  0.00    +0.000 A 
ATOM     22  C   UNL     1       2.788   0.248  -3.576  0.00  0.00    +0.000 A 
BRANCH  20  23
ATOM     23  O   UNL     1       0.556   2.083  -5.883  0.00  0.00    +0.000 OA
BRANCH  23  24
ATOM     24  C   UNL     1       1.347   2.056  -7.072  0.00  0.00    +0.000 C 
BRANCH  24  25
ATOM     25  C   UNL     1       0.860   3.080  -8.063  0.00  0.00    +0.000 A 
ATOM     26  C   UNL     1       0.129   4.215  -7.687  0.00  0.00    +0.000 A 
ATOM     27  C   UNL     1      -0.231   5.175  -8.641  0.00  0.00    +0.000 A 
ATOM     28  C   UNL     1       0.111   4.994  -9.966  0.00  0.00    +0.000 A 
ATOM     29  C   UNL     1       0.861   3.883 -10.363  0.00  0.00    +0.000 A 
ATOM     30  C   UNL     1       1.223   2.940  -9.407  0.00  0.00    +0.000 A 
ATOM     31  F   UNL     1       1.929   1.868  -9.790  0.00  0.00    +0.000 F 
ENDBRANCH  24  25
ENDBRANCH  23  24
ENDBRANCH  20  23
ENDBRANCH   3  17
TORSDOF 5
