REMARK  Name = 
REMARK  5 active torsions:
REMARK  status: ('A' for Active; 'I' for Inactive)
REMARK    1  A    between atoms: C_2  and  C_17
REMARK    2  A    between atoms: N_3  and  C_4
REMARK    3  A    between atoms: C_4  and  C_5
REMARK    4  A    between atoms: C_8  and  C_9
REMARK    5  A    between atoms: C_20  and  C_21
REMARK                            x       y       z     vdW  Elec       q    Type
REMARK                         _______ _______ _______ _____ _____    ______ ____
ROOT
ATOM      1  O   UNL     1       1.027  -0.267   0.071  0.00  0.00    +0.000 OA
ATOM      2  C   UNL     1       2.240  -0.130  -0.042  0.00  0.00    +0.000 C 
ATOM      3  N   UNL     1       2.941  -0.460  -1.181  0.00  0.00    +0.000 N 
ATOM      4  H   UNL     1       3.946  -0.565  -1.139  0.00  0.00    +0.000 HD
ENDROOT
BRANCH   2   5
ATOM      5  C   UNL     1       3.035   0.379   1.107  0.00  0.00    +0.000 A 
ATOM      6  C   UNL     1       2.563   0.127   2.401  0.00  0.00    +0.000 A 
ATOM      7  C   UNL     1       3.269   0.589   3.515  0.00  0.00    +0.000 A 
ATOM      8  C   UNL     1       4.437   1.338   3.344  0.00  0.00    +0.000 A 
ATOM      9  C   UNL     1       4.911   1.590   2.047  0.00  0.00    +0.000 A 
ATOM     10  C   UNL     1       4.210   1.118   0.931  0.00  0.00    +0.000 A 
BRANCH   8  11
ATOM     11  C   UNL     1       5.200   1.886   4.508  0.00  0.00    +0.000 A 
ATOM     12  N   UNL     1       6.489   2.042   4.408  0.00  0.00    +0.000 NA
ATOM     13  N   UNL     1       7.137   2.560   5.494  0.00  0.00    +0.000 N 
ATOM     14  C   UNL     1       6.550   2.954   6.668  0.00  0.00    +0.000 A 
ATOM     15  O   UNL     1       7.171   3.438   7.607  0.00  0.00    +0.000 OA
ATOM     16  C   UNL     1       5.090   2.769   6.746  0.00  0.00    +0.000 A 
ATOM     17  C   UNL     1       4.420   2.254   5.717  0.00  0.00    +0.000 A 
ATOM     18  H   UNL     1       8.142   2.675   5.413  0.00  0.00    +0.000 HD
ENDBRANCH   8  11
ENDBRANCH   2   5
BRANCH   3  19
ATOM     19  C   UNL     1       2.268  -1.087  -2.295  0.00  0.00    +0.000 C 
BRANCH  19  20
ATOM     20  C   UNL     1       2.974  -0.754  -3.557  0.00  0.00    +0.000 A 
ATOM     21  C   UNL     1       2.571  -0.068  -4.683  0.00  0.00    +0.000 A 
ATOM     22  C   UNL     1       3.667  -0.085  -5.574  0.00  0.00    +0.000 A 
ATOM     23  C   UNL     1       4.690  -0.768  -4.944  0.00  0.00    +0.000 A 
ATOM     24  O   UNL     1       4.263  -1.186  -3.709  0.00  0.00    +0.000 OA
BRANCH  23  25
ATOM     25  C   UNL     1       6.073  -1.071  -5.315  0.00  0.00    +0.000 A 
ATOM     26  C   UNL     1       6.909  -1.835  -4.491  0.00  0.00    +0.000 A 
ATOM     27  C   UNL     1       8.242  -2.037  -4.841  0.00  0.00    +0.000 A 
ATOM     28  F   UNL     1       9.035  -2.750  -4.030  0.00  0.00    +0.000 F 
ATOM     29  C   UNL     1       8.773  -1.502  -6.009  0.00  0.00    +0.000 A 
ATOM     30  C   UNL     1       7.950  -0.768  -6.856  0.00  0.00    +0.000 A 
ATOM     31  C   UNL     1       6.610  -0.560  -6.512  0.00  0.00    +0.000 A 
ENDBRANCH  23  25
ENDBRANCH  19  20
ENDBRANCH   3  19
TORSDOF 5
