REMARK  Name = 
REMARK  6 active torsions:
REMARK  status: ('A' for Active; 'I' for Inactive)
REMARK    1  A    between atoms: C_1  and  N_2
REMARK    2  A    between atoms: C_4  and  C_5
REMARK    3  A    between atoms: C_5  and  C_6
REMARK    4  A    between atoms: C_13  and  N_14
REMARK    5  A    between atoms: C_15  and  C_17
REMARK    6  A    between atoms: N_19  and  C_20
REMARK                            x       y       z     vdW  Elec       q    Type
REMARK                         _______ _______ _______ _____ _____    ______ ____
ROOT
ATOM      1  N   UNL     1      -0.429  -2.498   0.149  0.00  0.00    +0.000 N 
ATOM      2  C   UNL     1      -1.802  -2.925   0.286  0.00  0.00    +0.000 C 
ATOM      3  O   UNL     1      -2.722  -2.127   0.360  0.00  0.00    +0.000 OA
ATOM      4  H   UNL     1       0.296  -3.161  -0.070  0.00  0.00    +0.000 HD
ENDROOT
BRANCH   2   5
ATOM      5  C   UNL     1      -2.042  -4.404   0.235  0.00  0.00    +0.000 A 
ATOM      6  C   UNL     1      -1.135  -5.332   0.586  0.00  0.00    +0.000 A 
ATOM      7  N   UNL     1      -1.398  -6.703   0.484  0.00  0.00    +0.000 N 
ATOM      8  C   UNL     1      -2.641  -7.192   0.034  0.00  0.00    +0.000 A 
ATOM      9  O   UNL     1      -2.957  -8.371  -0.096  0.00  0.00    +0.000 OA
ATOM     10  C   UNL     1      -3.669  -6.159  -0.259  0.00  0.00    +0.000 A 
ATOM     11  C   UNL     1      -3.367  -4.859  -0.163  0.00  0.00    +0.000 A 
BRANCH   7  12
ATOM     12  C   UNL     1      -0.384  -7.656   0.804  0.00  0.00    +0.000 A 
ATOM     13  C   UNL     1      -0.007  -8.629  -0.134  0.00  0.00    +0.000 A 
ATOM     14  C   UNL     1       1.032  -9.516   0.153  0.00  0.00    +0.000 A 
ATOM     15  C   UNL     1       1.662  -9.455   1.389  0.00  0.00    +0.000 A 
ATOM     16  F   UNL     1       2.656 -10.308   1.666  0.00  0.00    +0.000 F 
ATOM     17  C   UNL     1       1.277  -8.521   2.344  0.00  0.00    +0.000 A 
ATOM     18  C   UNL     1       0.264  -7.606   2.047  0.00  0.00    +0.000 A 
ENDBRANCH   7  12
ENDBRANCH   2   5
BRANCH   1  24
ATOM     19  C   UNL     1       2.318  -1.219  -0.649  0.00  0.00    +0.000 C 
ATOM     20  N   UNL     1       1.130  -0.564  -0.158  0.00  0.00    +0.000 N 
ATOM     21  N   UNL     1       1.135   0.779  -0.084  0.00  0.00    +0.000 NA
ATOM     22  C   UNL     1      -0.070   1.091   0.404  0.00  0.00    +0.000 A 
ATOM     23  C   UNL     1      -0.858  -0.071   0.592  0.00  0.00    +0.000 A 
ATOM     24  C   UNL     1      -0.079  -1.135   0.190  0.00  0.00    +0.000 A 
BRANCH  22  25
ATOM     25  C   UNL     1      -0.476   2.511   0.625  0.00  0.00    +0.000 C 
BRANCH  25  26
ATOM     26  C   UNL     1      -0.101   2.858   2.044  0.00  0.00    +0.000 A 
ATOM     27  C   UNL     1       1.194   3.309   2.345  0.00  0.00    +0.000 A 
ATOM     28  C   UNL     1       1.537   3.666   3.649  0.00  0.00    +0.000 A 
ATOM     29  C   UNL     1       0.592   3.573   4.669  0.00  0.00    +0.000 A 
ATOM     30  C   UNL     1      -0.695   3.118   4.386  0.00  0.00    +0.000 A 
ATOM     31  C   UNL     1      -1.041   2.761   3.081  0.00  0.00    +0.000 A 
ENDBRANCH  25  26
ENDBRANCH  22  25
ENDBRANCH   1  24
TORSDOF 5
