REMARK  Name = 
REMARK  9 active torsions:
REMARK  status: ('A' for Active; 'I' for Inactive)
REMARK    1  A    between atoms: C_1  and  C_2
REMARK    2  A    between atoms: C_6  and  C_7
REMARK    3  A    between atoms: C_7  and  O_8
REMARK    4  A    between atoms: O_8  and  C_9
REMARK    5  A    between atoms: C_14  and  C_15
REMARK    6  A    between atoms: C_15  and  O_17
REMARK    7  A    between atoms: O_17  and  C_18
REMARK    8  A    between atoms: C_18  and  C_19
REMARK    9  A    between atoms: C_22  and  C_23
REMARK                            x       y       z     vdW  Elec       q    Type
REMARK                         _______ _______ _______ _____ _____    ______ ____
ROOT
ATOM      1  C   UNL     1      10.453  -1.866   0.048  0.00  0.00    +0.000 A 
ATOM      2  C   UNL     1      10.859  -2.958  -0.740  0.00  0.00    +0.000 A 
ATOM      3  C   UNL     1      12.129  -3.515  -0.595  0.00  0.00    +0.000 A 
ATOM      4  C   UNL     1      13.029  -2.962   0.306  0.00  0.00    +0.000 A 
ATOM      5  C   UNL     1      12.653  -1.856   1.067  0.00  0.00    +0.000 A 
ATOM      6  C   UNL     1      11.366  -1.296   0.949  0.00  0.00    +0.000 A 
ENDROOT
BRANCH   6   7
ATOM      7  C   UNL     1      11.072  -0.171   1.878  0.00  0.00    +0.000 C 
ATOM      8  O   UNL     1      11.684  -0.028   2.923  0.00  0.00    +0.000 OA
BRANCH   7   9
ATOM      9  O   UNL     1      10.138   0.683   1.396  0.00  0.00    +0.000 OA
BRANCH   9  10
ATOM     10  C   UNL     1       9.803   1.788   2.250  0.00  0.00    +0.000 C 
BRANCH  10  11
ATOM     11  C   UNL     1      10.068   3.084   1.533  0.00  0.00    +0.000 A 
ATOM     12  C   UNL     1      11.362   3.421   1.113  0.00  0.00    +0.000 A 
ATOM     13  C   UNL     1      11.615   4.655   0.503  0.00  0.00    +0.000 A 
ATOM     14  C   UNL     1      10.578   5.582   0.331  0.00  0.00    +0.000 A 
ATOM     15  C   UNL     1       9.280   5.237   0.725  0.00  0.00    +0.000 A 
ATOM     16  C   UNL     1       9.039   4.002   1.318  0.00  0.00    +0.000 A 
ATOM     17  F   UNL     1       7.790   3.711   1.710  0.00  0.00    +0.000 F 
BRANCH  14  18
ATOM     18  C   UNL     1      10.787   6.951  -0.221  0.00  0.00    +0.000 C 
ATOM     19  N   UNL     1      12.059   7.348  -0.523  0.00  0.00    +0.000 N 
ATOM     20  O   UNL     1       9.854   7.733  -0.364  0.00  0.00    +0.000 OA
ATOM     21  H   UNL     1      12.886   6.860  -0.217  0.00  0.00    +0.000 HD
ATOM     22  H   UNL     1      12.163   8.325  -0.766  0.00  0.00    +0.000 HD
ENDBRANCH  14  18
ENDBRANCH  10  11
ENDBRANCH   9  10
ENDBRANCH   7   9
ENDBRANCH   6   7
BRANCH   1  23
ATOM     23  O   UNL     1       9.187  -1.350  -0.033  0.00  0.00    +0.000 OA
BRANCH  23  24
ATOM     24  C   UNL     1       8.174  -2.249  -0.512  0.00  0.00    +0.000 C 
BRANCH  24  30
ATOM     25  C   UNL     1       1.846   0.637   2.042  0.00  0.00    +0.000 C 
ATOM     26  C   UNL     1       2.879  -0.272   1.460  0.00  0.00    +0.000 A 
ATOM     27  C   UNL     1       4.202  -0.009   1.493  0.00  0.00    +0.000 A 
ATOM     28  N   UNL     1       5.085  -0.874   0.860  0.00  0.00    +0.000 N 
ATOM     29  C   UNL     1       6.443  -0.778   0.726  0.00  0.00    +0.000 A 
ATOM     30  C   UNL     1       6.820  -1.861  -0.041  0.00  0.00    +0.000 A 
ATOM     31  N   UNL     1       5.723  -2.641  -0.354  0.00  0.00    +0.000 NA
ATOM     32  C   UNL     1       4.693  -2.027   0.189  0.00  0.00    +0.000 A 
ATOM     33  C   UNL     1       3.304  -2.330   0.184  0.00  0.00    +0.000 A 
ATOM     34  C   UNL     1       2.436  -1.495   0.789  0.00  0.00    +0.000 A 
ENDBRANCH  24  30
ENDBRANCH  23  24
ENDBRANCH   1  23
TORSDOF 8
