REMARK  Name = 
REMARK  4 active torsions:
REMARK  status: ('A' for Active; 'I' for Inactive)
REMARK    1  A    between atoms: C_2  and  C_16
REMARK    2  A    between atoms: N_6  and  C_7
REMARK    3  A    between atoms: C_18  and  C_19
REMARK    4  A    between atoms: C_28  and  O_29
REMARK                            x       y       z     vdW  Elec       q    Type
REMARK                         _______ _______ _______ _____ _____    ______ ____
ROOT
ATOM      1  O   UNL     1       0.945  -0.138  -0.387  0.00  0.00    +0.000 OA
ATOM      2  C   UNL     1       2.129  -0.044  -0.076  0.00  0.00    +0.000 C 
ATOM      3  N   UNL     1       2.711  -0.489   1.095  0.00  0.00    +0.000 N 
ATOM      4  C   UNL     1       2.018  -1.101   2.114  0.00  0.00    +0.000 A 
ATOM      5  N   UNL     1       0.720  -1.372   2.090  0.00  0.00    +0.000 NA
ATOM      6  N   UNL     1       0.497  -1.965   3.276  0.00  0.00    +0.000 N 
ATOM      7  N   UNL     1       1.576  -2.071   4.101  0.00  0.00    +0.000 NA
ATOM      8  C   UNL     1       2.542  -1.542   3.345  0.00  0.00    +0.000 A 
ATOM      9  H   UNL     1       3.707  -0.354   1.227  0.00  0.00    +0.000 HD
ENDROOT
BRANCH   6  10
ATOM     10  C   UNL     1      -0.784  -2.470   3.606  0.00  0.00    +0.000 A 
ATOM     11  C   UNL     1      -1.812  -2.422   2.646  0.00  0.00    +0.000 A 
ATOM     12  C   UNL     1      -3.066  -2.951   2.942  0.00  0.00    +0.000 A 
ATOM     13  C   UNL     1      -3.290  -3.510   4.194  0.00  0.00    +0.000 A 
ATOM     14  F   UNL     1      -4.493  -4.023   4.479  0.00  0.00    +0.000 F 
ATOM     15  C   UNL     1      -2.284  -3.551   5.157  0.00  0.00    +0.000 A 
ATOM     16  C   UNL     1      -1.021  -3.032   4.866  0.00  0.00    +0.000 A 
ENDBRANCH   6  10
BRANCH   2  17
ATOM     17  C   UNL     1       3.031   0.639  -1.037  0.00  0.00    +0.000 A 
ATOM     18  C   UNL     1       2.474   1.240  -2.177  0.00  0.00    +0.000 A 
ATOM     19  C   UNL     1       3.276   1.926  -3.102  0.00  0.00    +0.000 A 
ATOM     20  C   UNL     1       4.643   1.949  -2.810  0.00  0.00    +0.000 A 
ATOM     21  N   UNL     1       5.228   1.371  -1.729  0.00  0.00    +0.000 NA
ATOM     22  C   UNL     1       4.402   0.740  -0.883  0.00  0.00    +0.000 A 
BRANCH  19  23
ATOM     23  C   UNL     1       2.707   2.590  -4.296  0.00  0.00    +0.000 A 
ATOM     24  C   UNL     1       1.433   3.192  -4.266  0.00  0.00    +0.000 A 
ATOM     25  C   UNL     1       0.896   3.824  -5.395  0.00  0.00    +0.000 A 
ATOM     26  C   UNL     1       1.623   3.878  -6.580  0.00  0.00    +0.000 A 
ATOM     27  C   UNL     1       2.883   3.294  -6.638  0.00  0.00    +0.000 A 
ATOM     28  C   UNL     1       3.407   2.658  -5.514  0.00  0.00    +0.000 A 
ATOM     29  F   UNL     1       4.618   2.093  -5.633  0.00  0.00    +0.000 F 
ENDBRANCH  19  23
BRANCH  22  30
ATOM     30  O   UNL     1       5.073   0.203   0.170  0.00  0.00    +0.000 OA
ATOM     31  H   UNL     1       5.985   0.445  -0.092  0.00  0.00    +0.000 HD
ENDBRANCH  22  30
ENDBRANCH   2  17
TORSDOF 4
