REMARK  Name = 
REMARK  6 active torsions:
REMARK  status: ('A' for Active; 'I' for Inactive)
REMARK    1  A    between atoms: C_2  and  C_4
REMARK    2  A    between atoms: C_9  and  O_10
REMARK    3  A    between atoms: O_10  and  C_11
REMARK    4  A    between atoms: C_14  and  N_15
REMARK    5  A    between atoms: C_16  and  C_18
REMARK    6  A    between atoms: N_22  and  C_23
REMARK                            x       y       z     vdW  Elec       q    Type
REMARK                         _______ _______ _______ _____ _____    ______ ____
ROOT
ATOM      1  C   UNL     1       3.730  -0.626  -2.205  0.00  0.00    +0.000 A 
ATOM      2  C   UNL     1       2.487  -0.339  -2.761  0.00  0.00    +0.000 A 
ATOM      3  C   UNL     1       1.587  -1.371  -3.018  0.00  0.00    +0.000 A 
ATOM      4  C   UNL     1       1.937  -2.707  -2.792  0.00  0.00    +0.000 A 
ATOM      5  C   UNL     1       3.244  -2.993  -2.385  0.00  0.00    +0.000 A 
ATOM      6  C   UNL     1       4.139  -1.954  -2.086  0.00  0.00    +0.000 A 
ENDROOT
BRANCH   4   7
ATOM      7  N   UNL     1       1.022  -3.779  -2.940  0.00  0.00    +0.000 N 
ATOM      8  C   UNL     1      -0.351  -3.654  -3.127  0.00  0.00    +0.000 C 
ATOM      9  O   UNL     1      -0.938  -2.579  -3.154  0.00  0.00    +0.000 OA
ATOM     10  H   UNL     1       1.392  -4.713  -2.828  0.00  0.00    +0.000 HD
BRANCH   8  11
ATOM     11  C   UNL     1      -1.082  -4.888  -3.263  0.00  0.00    +0.000 A 
ATOM     12  C   UNL     1      -0.891  -6.119  -2.658  0.00  0.00    +0.000 A 
ATOM     13  C   UNL     1      -2.085  -6.824  -2.890  0.00  0.00    +0.000 A 
ATOM     14  N   UNL     1      -2.952  -6.126  -3.616  0.00  0.00    +0.000 NA
ATOM     15  N   UNL     1      -2.286  -4.988  -3.949  0.00  0.00    +0.000 N 
BRANCH  15  16
ATOM     16  C   UNL     1      -2.833  -4.118  -4.934  0.00  0.00    +0.000 A 
ATOM     17  C   UNL     1      -4.219  -4.032  -5.085  0.00  0.00    +0.000 A 
ATOM     18  C   UNL     1      -4.715  -3.143  -6.024  0.00  0.00    +0.000 A 
ATOM     19  N   UNL     1      -3.939  -2.385  -6.830  0.00  0.00    +0.000 NA
ATOM     20  C   UNL     1      -2.605  -2.514  -6.686  0.00  0.00    +0.000 A 
ATOM     21  C   UNL     1      -2.007  -3.357  -5.765  0.00  0.00    +0.000 A 
ENDBRANCH  15  16
ENDBRANCH   8  11
ENDBRANCH   4   7
BRANCH   1  22
ATOM     22  O   UNL     1       4.578   0.361  -1.748  0.00  0.00    +0.000 OA
BRANCH  22  28
ATOM     23  C   UNL     1       4.638   2.685  -1.081  0.00  0.00    +0.000 A 
ATOM     24  C   UNL     1       4.053   3.748  -0.362  0.00  0.00    +0.000 A 
ATOM     25  C   UNL     1       2.879   3.570   0.372  0.00  0.00    +0.000 A 
ATOM     26  C   UNL     1       2.294   2.314   0.438  0.00  0.00    +0.000 A 
ATOM     27  C   UNL     1       2.887   1.239  -0.223  0.00  0.00    +0.000 A 
ATOM     28  C   UNL     1       4.030   1.417  -1.030  0.00  0.00    +0.000 A 
BRANCH  23  30
ATOM     29  N   UNL     1       6.432   2.073  -2.654  0.00  0.00    +0.000 N 
ATOM     30  C   UNL     1       5.867   3.027  -1.863  0.00  0.00    +0.000 C 
ATOM     31  O   UNL     1       6.363   4.149  -1.818  0.00  0.00    +0.000 OA
ATOM     32  H   UNL     1       7.238   2.337  -3.203  0.00  0.00    +0.000 HD
ATOM     33  H   UNL     1       6.051   1.142  -2.751  0.00  0.00    +0.000 HD
ENDBRANCH  23  30
ENDBRANCH  22  28
ENDBRANCH   1  22
TORSDOF 6
