REMARK  Name = 
REMARK  6 active torsions:
REMARK  status: ('A' for Active; 'I' for Inactive)
REMARK    1  A    between atoms: C_2  and  C_22
REMARK    2  A    between atoms: N_3  and  C_4
REMARK    3  A    between atoms: C_9  and  C_10
REMARK    4  A    between atoms: C_10  and  C_12
REMARK    5  A    between atoms: C_24  and  C_25
REMARK    6  A    between atoms: C_25  and  O_26
REMARK                            x       y       z     vdW  Elec       q    Type
REMARK                         _______ _______ _______ _____ _____    ______ ____
ROOT
ATOM      1  C   UNL     1       2.183   0.924  -2.239  0.00  0.00    +0.000 A 
ATOM      2  C   UNL     1       1.097   1.793  -2.089  0.00  0.00    +0.000 A 
ATOM      3  C   UNL     1       0.345   2.192  -3.185  0.00  0.00    +0.000 A 
ATOM      4  C   UNL     1       0.680   1.738  -4.450  0.00  0.00    +0.000 A 
ATOM      5  F   UNL     1      -0.155   2.059  -5.447  0.00  0.00    +0.000 F 
ATOM      6  C   UNL     1       1.816   0.950  -4.654  0.00  0.00    +0.000 A 
ATOM      7  C   UNL     1       2.577   0.549  -3.533  0.00  0.00    +0.000 A 
ENDROOT
BRANCH   1  10
ATOM      8  O   UNL     1       1.186   0.740   0.490  0.00  0.00    +0.000 OA
ATOM      9  C   UNL     1       2.304   0.348   0.166  0.00  0.00    +0.000 C 
ATOM     10  N   UNL     1       2.854   0.384  -1.114  0.00  0.00    +0.000 N 
ATOM     11  H   UNL     1       3.666  -0.194  -1.301  0.00  0.00    +0.000 HD
BRANCH   9  12
ATOM     12  C   UNL     1       3.103  -0.280   1.230  0.00  0.00    +0.000 A 
ATOM     13  C   UNL     1       2.453  -0.992   2.245  0.00  0.00    +0.000 A 
ATOM     14  C   UNL     1       3.192  -1.541   3.297  0.00  0.00    +0.000 A 
ATOM     15  C   UNL     1       4.568  -1.362   3.255  0.00  0.00    +0.000 A 
ATOM     16  N   UNL     1       5.228  -0.662   2.295  0.00  0.00    +0.000 NA
ATOM     17  C   UNL     1       4.476  -0.123   1.310  0.00  0.00    +0.000 A 
BRANCH  14  18
ATOM     18  C   UNL     1       2.575  -2.356   4.396  0.00  0.00    +0.000 C 
BRANCH  18  19
ATOM     19  O   UNL     1       1.252  -1.939   4.698  0.00  0.00    +0.000 OA
ATOM     20  H   UNL     1       1.299  -1.013   4.990  0.00  0.00    +0.000 HD
ENDBRANCH  18  19
ENDBRANCH  14  18
ENDBRANCH   9  12
ENDBRANCH   1  10
BRANCH   6  21
ATOM     21  C   UNL     1       2.182   0.441  -6.008  0.00  0.00    +0.000 C 
ATOM     22  O   UNL     1       2.785  -0.628  -6.072  0.00  0.00    +0.000 OA
BRANCH  21  23
ATOM     23  C   UNL     1       1.832   1.208  -7.206  0.00  0.00    +0.000 A 
ATOM     24  C   UNL     1       1.749   2.588  -7.313  0.00  0.00    +0.000 A 
ATOM     25  N   UNL     1       1.398   2.914  -8.594  0.00  0.00    +0.000 N 
ATOM     26  C   UNL     1       1.247   1.778  -9.351  0.00  0.00    +0.000 A 
ATOM     27  C   UNL     1       0.895   1.637 -10.700  0.00  0.00    +0.000 A 
ATOM     28  C   UNL     1       0.812   0.342 -11.218  0.00  0.00    +0.000 A 
ATOM     29  C   UNL     1       1.069  -0.766 -10.414  0.00  0.00    +0.000 A 
ATOM     30  C   UNL     1       1.421  -0.606  -9.067  0.00  0.00    +0.000 A 
ATOM     31  C   UNL     1       1.519   0.692  -8.515  0.00  0.00    +0.000 A 
ATOM     32  H   UNL     1       1.263   3.854  -8.938  0.00  0.00    +0.000 HD
ENDBRANCH  21  23
ENDBRANCH   6  21
TORSDOF 6
