REMARK  Name = 
REMARK  5 active torsions:
REMARK  status: ('A' for Active; 'I' for Inactive)
REMARK    1  A    between atoms: C_2  and  C_18
REMARK    2  A    between atoms: N_3  and  C_4
REMARK    3  A    between atoms: C_5  and  C_6
REMARK    4  A    between atoms: N_9  and  C_10
REMARK    5  A    between atoms: C_21  and  C_22
REMARK                            x       y       z     vdW  Elec       q    Type
REMARK                         _______ _______ _______ _____ _____    ______ ____
ROOT
ATOM      1  O   UNL     1       1.076   0.689  -0.406  0.00  0.00    +0.000 OA
ATOM      2  C   UNL     1       2.194   0.215  -0.239  0.00  0.00    +0.000 C 
ATOM      3  N   UNL     1       2.848  -0.604  -1.135  0.00  0.00    +0.000 N 
ATOM      4  H   UNL     1       3.591  -1.198  -0.770  0.00  0.00    +0.000 HD
ENDROOT
BRANCH   2   5
ATOM      5  C   UNL     1       2.908   0.455   1.045  0.00  0.00    +0.000 A 
ATOM      6  C   UNL     1       2.519   1.539   1.838  0.00  0.00    +0.000 A 
ATOM      7  C   UNL     1       3.171   1.795   3.052  0.00  0.00    +0.000 A 
ATOM      8  C   UNL     1       4.205   0.965   3.527  0.00  0.00    +0.000 A 
ATOM      9  C   UNL     1       4.575  -0.125   2.714  0.00  0.00    +0.000 A 
ATOM     10  C   UNL     1       3.938  -0.363   1.505  0.00  0.00    +0.000 A 
ATOM     11  F   UNL     1       4.354  -1.418   0.785  0.00  0.00    +0.000 F 
BRANCH   8  12
ATOM     12  C   UNL     1       4.863   1.204   4.821  0.00  0.00    +0.000 A 
ATOM     13  C   UNL     1       4.201   1.724   5.923  0.00  0.00    +0.000 A 
ATOM     14  N   UNL     1       4.767   1.951   7.130  0.00  0.00    +0.000 NA
ATOM     15  C   UNL     1       6.064   1.633   7.231  0.00  0.00    +0.000 A 
ATOM     16  N   UNL     1       6.822   1.120   6.255  0.00  0.00    +0.000 NA
ATOM     17  C   UNL     1       6.196   0.920   5.074  0.00  0.00    +0.000 A 
ENDBRANCH   8  12
ENDBRANCH   2   5
BRANCH   3  18
ATOM     18  C   UNL     1       2.265  -1.029  -2.310  0.00  0.00    +0.000 A 
ATOM     19  C   UNL     1       2.279  -2.339  -2.732  0.00  0.00    +0.000 A 
ATOM     20  N   UNL     1       1.596  -2.362  -3.934  0.00  0.00    +0.000 N 
ATOM     21  N   UNL     1       1.288  -1.101  -4.350  0.00  0.00    +0.000 NA
ATOM     22  C   UNL     1       1.589  -0.319  -3.311  0.00  0.00    +0.000 A 
BRANCH  20  23
ATOM     23  C   UNL     1       1.153  -3.464  -4.722  0.00  0.00    +0.000 A 
ATOM     24  C   UNL     1       0.813  -4.690  -4.148  0.00  0.00    +0.000 A 
ATOM     25  C   UNL     1       0.359  -5.700  -4.979  0.00  0.00    +0.000 A 
ATOM     26  N   UNL     1       0.229  -5.574  -6.316  0.00  0.00    +0.000 NA
ATOM     27  C   UNL     1       0.545  -4.370  -6.842  0.00  0.00    +0.000 A 
ATOM     28  C   UNL     1       0.992  -3.296  -6.098  0.00  0.00    +0.000 A 
ENDBRANCH  20  23
BRANCH  19  29
ATOM     29  C   UNL     1       2.858  -3.519  -2.072  0.00  0.00    +0.000 C 
ATOM     30  F   UNL     1       3.710  -4.181  -2.891  0.00  0.00    +0.000 F 
ATOM     31  F   UNL     1       3.599  -3.154  -0.986  0.00  0.00    +0.000 F 
ENDBRANCH  19  29
ENDBRANCH   3  18
TORSDOF 5
