REMARK  Name = 
REMARK  6 active torsions:
REMARK  status: ('A' for Active; 'I' for Inactive)
REMARK    1  A    between atoms: C_2  and  C_17
REMARK    2  A    between atoms: N_3  and  C_4
REMARK    3  A    between atoms: C_4  and  C_5
REMARK    4  A    between atoms: C_9  and  C_10
REMARK    5  A    between atoms: C_18  and  C_19
REMARK    6  A    between atoms: N_22  and  C_23
REMARK                            x       y       z     vdW  Elec       q    Type
REMARK                         _______ _______ _______ _____ _____    ______ ____
ROOT
ATOM      1  O   UNL     1       1.032  -0.099   0.092  0.00  0.00    +0.000 OA
ATOM      2  C   UNL     1       2.244   0.045   0.000  0.00  0.00    +0.000 C 
ATOM      3  N   UNL     1       2.929  -0.010  -1.185  0.00  0.00    +0.000 N 
ATOM      4  H   UNL     1       3.936  -0.100  -1.174  0.00  0.00    +0.000 HD
ENDROOT
BRANCH   2   5
ATOM      5  C   UNL     1       3.091   0.221   1.168  0.00  0.00    +0.000 A 
ATOM      6  C   UNL     1       2.815  -0.206   2.463  0.00  0.00    +0.000 A 
ATOM      7  N   UNL     1       3.928   0.106   3.233  0.00  0.00    +0.000 N 
ATOM      8  N   UNL     1       4.885   0.708   2.469  0.00  0.00    +0.000 NA
ATOM      9  C   UNL     1       4.353   0.822   1.259  0.00  0.00    +0.000 A 
BRANCH   7  10
ATOM     10  C   UNL     1       4.232  -0.116   4.612  0.00  0.00    +0.000 A 
ATOM     11  C   UNL     1       5.580  -0.106   5.005  0.00  0.00    +0.000 A 
ATOM     12  C   UNL     1       5.891  -0.342   6.334  0.00  0.00    +0.000 A 
ATOM     13  N   UNL     1       4.967  -0.559   7.289  0.00  0.00    +0.000 NA
ATOM     14  C   UNL     1       3.677  -0.536   6.897  0.00  0.00    +0.000 A 
ATOM     15  C   UNL     1       3.263  -0.323   5.589  0.00  0.00    +0.000 A 
ENDBRANCH   7  10
BRANCH   6  16
ATOM     16  C   UNL     1       1.642  -0.972   2.934  0.00  0.00    +0.000 C 
ATOM     17  F   UNL     1       2.026  -2.071   3.635  0.00  0.00    +0.000 F 
ATOM     18  F   UNL     1       0.868  -0.225   3.763  0.00  0.00    +0.000 F 
ENDBRANCH   6  16
ENDBRANCH   2   5
BRANCH   3  19
ATOM     19  C   UNL     1       2.260  -0.268  -2.437  0.00  0.00    +0.000 C 
BRANCH  19  20
ATOM     20  C   UNL     1       3.041   0.363  -3.556  0.00  0.00    +0.000 A 
ATOM     21  C   UNL     1       2.748   1.668  -3.962  0.00  0.00    +0.000 A 
ATOM     22  C   UNL     1       3.506   2.276  -4.956  0.00  0.00    +0.000 A 
ATOM     23  C   UNL     1       4.574   1.590  -5.541  0.00  0.00    +0.000 A 
ATOM     24  C   UNL     1       4.922   0.288  -5.139  0.00  0.00    +0.000 A 
ATOM     25  C   UNL     1       4.129  -0.310  -4.140  0.00  0.00    +0.000 A 
BRANCH  24  26
ATOM     26  C   UNL     1       6.090  -0.412  -5.717  0.00  0.00    +0.000 A 
ATOM     27  C   UNL     1       6.116  -1.801  -5.915  0.00  0.00    +0.000 A 
ATOM     28  C   UNL     1       7.248  -2.427  -6.440  0.00  0.00    +0.000 A 
ATOM     29  C   UNL     1       8.338  -1.643  -6.771  0.00  0.00    +0.000 A 
ATOM     30  N   UNL     1       8.369  -0.307  -6.608  0.00  0.00    +0.000 NA
ATOM     31  C   UNL     1       7.256   0.267  -6.086  0.00  0.00    +0.000 A 
ENDBRANCH  24  26
ENDBRANCH  19  20
ENDBRANCH   3  19
TORSDOF 6
