REMARK  Name = 
REMARK  5 active torsions:
REMARK  status: ('A' for Active; 'I' for Inactive)
REMARK    1  A    between atoms: C_2  and  C_16
REMARK    2  A    between atoms: N_3  and  C_4
REMARK    3  A    between atoms: C_4  and  C_5
REMARK    4  A    between atoms: C_8  and  C_9
REMARK    5  A    between atoms: C_18  and  C_19
REMARK                            x       y       z     vdW  Elec       q    Type
REMARK                         _______ _______ _______ _____ _____    ______ ____
ROOT
ATOM      1  O   UNL     1       0.984  -0.084  -0.268  0.00  0.00    +0.000 OA
ATOM      2  C   UNL     1       2.202   0.032  -0.132  0.00  0.00    +0.000 C 
ATOM      3  N   UNL     1       2.991   0.437  -1.185  0.00  0.00    +0.000 N 
ATOM      4  H   UNL     1       4.001   0.490  -1.084  0.00  0.00    +0.000 HD
ENDROOT
BRANCH   2   5
ATOM      5  C   UNL     1       2.870  -0.267   1.107  0.00  0.00    +0.000 A 
ATOM      6  C   UNL     1       2.371  -0.774   2.283  0.00  0.00    +0.000 A 
ATOM      7  C   UNL     1       3.489  -0.915   3.143  0.00  0.00    +0.000 A 
ATOM      8  N   UNL     1       4.596  -0.467   2.527  0.00  0.00    +0.000 NA
ATOM      9  O   UNL     1       4.207  -0.070   1.256  0.00  0.00    +0.000 OA
BRANCH   7  10
ATOM     10  C   UNL     1       3.502  -1.495   4.482  0.00  0.00    +0.000 A 
ATOM     11  C   UNL     1       2.632  -2.547   4.804  0.00  0.00    +0.000 A 
ATOM     12  F   UNL     1       1.782  -3.036   3.888  0.00  0.00    +0.000 F 
ATOM     13  C   UNL     1       2.619  -3.131   6.068  0.00  0.00    +0.000 A 
ATOM     14  C   UNL     1       3.492  -2.658   7.036  0.00  0.00    +0.000 A 
ATOM     15  F   UNL     1       3.486  -3.214   8.254  0.00  0.00    +0.000 F 
ATOM     16  C   UNL     1       4.364  -1.615   6.760  0.00  0.00    +0.000 A 
ATOM     17  C   UNL     1       4.364  -1.040   5.487  0.00  0.00    +0.000 A 
ATOM     18  F   UNL     1       5.200  -0.015   5.269  0.00  0.00    +0.000 F 
ENDBRANCH   7  10
ENDBRANCH   2   5
BRANCH   3  19
ATOM     19  C   UNL     1       2.378   0.695  -2.471  0.00  0.00    +0.000 C 
BRANCH  19  20
ATOM     20  C   UNL     1       3.364   1.140  -3.481  0.00  0.00    +0.000 A 
ATOM     21  N   UNL     1       4.664   1.322  -3.382  0.00  0.00    +0.000 NA
ATOM     22  N   UNL     1       5.092   1.726  -4.631  0.00  0.00    +0.000 NA
ATOM     23  C   UNL     1       4.026   1.759  -5.408  0.00  0.00    +0.000 A 
ATOM     24  O   UNL     1       2.884   1.401  -4.738  0.00  0.00    +0.000 OA
BRANCH  23  25
ATOM     25  C   UNL     1       3.905   2.066  -6.830  0.00  0.00    +0.000 A 
ATOM     26  C   UNL     1       5.052   2.389  -7.571  0.00  0.00    +0.000 A 
ATOM     27  C   UNL     1       4.974   2.633  -8.944  0.00  0.00    +0.000 A 
ATOM     28  C   UNL     1       3.745   2.563  -9.596  0.00  0.00    +0.000 A 
ATOM     29  C   UNL     1       2.592   2.264  -8.873  0.00  0.00    +0.000 A 
ATOM     30  C   UNL     1       2.671   2.020  -7.498  0.00  0.00    +0.000 A 
ENDBRANCH  23  25
ENDBRANCH  19  20
ENDBRANCH   3  19
TORSDOF 5
