REMARK  Name = 
REMARK  4 active torsions:
REMARK  status: ('A' for Active; 'I' for Inactive)
REMARK    1  A    between atoms: C_2  and  C_17
REMARK    2  A    between atoms: N_3  and  C_4
REMARK    3  A    between atoms: N_8  and  C_9
REMARK    4  A    between atoms: C_21  and  C_22
REMARK                            x       y       z     vdW  Elec       q    Type
REMARK                         _______ _______ _______ _____ _____    ______ ____
ROOT
ATOM      1  O   UNL     1       5.126  -1.878   1.733  0.00  0.00    +0.000 OA
ATOM      2  C   UNL     1       4.601  -1.238   0.822  0.00  0.00    +0.000 C 
ATOM      3  N   UNL     1       3.306  -1.456   0.427  0.00  0.00    +0.000 N 
ATOM      4  H   UNL     1       3.012  -1.205  -0.514  0.00  0.00    +0.000 HD
ENDROOT
BRANCH   2   5
ATOM      5  C   UNL     1       5.397  -0.174   0.126  0.00  0.00    +0.000 A 
ATOM      6  C   UNL     1       6.545   0.080   0.787  0.00  0.00    +0.000 A 
ATOM      7  C   UNL     1       7.380   1.141   0.401  0.00  0.00    +0.000 A 
ATOM      8  N   UNL     1       8.467   1.586   0.975  0.00  0.00    +0.000 NA
ATOM      9  C   UNL     1       8.833   2.710   0.271  0.00  0.00    +0.000 A 
ATOM     10  C   UNL     1       7.960   2.887  -0.805  0.00  0.00    +0.000 A 
ATOM     11  N   UNL     1       7.010   1.894  -0.696  0.00  0.00    +0.000 N 
ATOM     12  C   UNL     1       5.855   1.622  -1.440  0.00  0.00    +0.000 A 
ATOM     13  C   UNL     1       5.038   0.613  -1.057  0.00  0.00    +0.000 A 
BRANCH   9  14
ATOM     14  C   UNL     1       9.992   3.535   0.739  0.00  0.00    +0.000 C 
ATOM     15  F   UNL     1      10.550   3.052   1.881  0.00  0.00    +0.000 F 
ATOM     16  F   UNL     1      10.985   3.596  -0.187  0.00  0.00    +0.000 F 
ATOM     17  F   UNL     1       9.620   4.816   1.003  0.00  0.00    +0.000 F 
ENDBRANCH   9  14
ENDBRANCH   2   5
BRANCH   3  18
ATOM     18  C   UNL     1       2.441  -2.302   1.111  0.00  0.00    +0.000 A 
ATOM     19  C   UNL     1       2.542  -2.607   2.416  0.00  0.00    +0.000 A 
ATOM     20  C   UNL     1       1.686  -3.579   3.031  0.00  0.00    +0.000 A 
ATOM     21  C   UNL     1       0.783  -4.225   2.294  0.00  0.00    +0.000 A 
ATOM     22  N   UNL     1       0.590  -3.934   0.948  0.00  0.00    +0.000 N 
ATOM     23  C   UNL     1       1.343  -2.934   0.298  0.00  0.00    +0.000 A 
ATOM     24  O   UNL     1       1.246  -2.590  -0.884  0.00  0.00    +0.000 OA
BRANCH  22  25
ATOM     25  C   UNL     1      -0.314  -4.711   0.168  0.00  0.00    +0.000 A 
ATOM     26  C   UNL     1      -0.267  -6.112   0.235  0.00  0.00    +0.000 A 
ATOM     27  C   UNL     1      -1.076  -6.882  -0.599  0.00  0.00    +0.000 A 
ATOM     28  C   UNL     1      -1.967  -6.260  -1.472  0.00  0.00    +0.000 A 
ATOM     29  C   UNL     1      -2.053  -4.870  -1.511  0.00  0.00    +0.000 A 
ATOM     30  C   UNL     1      -1.221  -4.097  -0.702  0.00  0.00    +0.000 A 
ENDBRANCH  22  25
ENDBRANCH   3  18
TORSDOF 4
