REMARK  Name = 
REMARK  6 active torsions:
REMARK  status: ('A' for Active; 'I' for Inactive)
REMARK    1  A    between atoms: N_3  and  C_4
REMARK    2  A    between atoms: C_4  and  C_5
REMARK    3  A    between atoms: C_5  and  O_6
REMARK    4  A    between atoms: C_5  and  C_7
REMARK    5  A    between atoms: N_17  and  C_18
REMARK    6  A    between atoms: N_22  and  C_23
REMARK                            x       y       z     vdW  Elec       q    Type
REMARK                         _______ _______ _______ _____ _____    ______ ____
ROOT
ATOM      1  O   UNL     1       0.984  -0.104   0.182  0.00  0.00    +0.000 OA
ATOM      2  C   UNL     1       2.210  -0.116   0.198  0.00  0.00    +0.000 C 
ATOM      3  N   UNL     1       2.934  -1.145  -0.357  0.00  0.00    +0.000 N 
ATOM      4  N   UNL     1       3.007   0.825   0.808  0.00  0.00    +0.000 N 
ATOM      5  H   UNL     1       3.882  -0.947  -0.647  0.00  0.00    +0.000 HD
ATOM      6  H   UNL     1       3.969   0.907   0.495  0.00  0.00    +0.000 HD
ENDROOT
BRANCH   4   7
ATOM      7  C   UNL     1       2.591   1.847   1.636  0.00  0.00    +0.000 A 
ATOM      8  C   UNL     1       1.398   1.908   2.249  0.00  0.00    +0.000 A 
ATOM      9  C   UNL     1       1.042   3.016   3.091  0.00  0.00    +0.000 A 
ATOM     10  C   UNL     1       1.871   4.055   3.220  0.00  0.00    +0.000 A 
ATOM     11  N   UNL     1       3.119   4.079   2.609  0.00  0.00    +0.000 N 
ATOM     12  C   UNL     1       3.579   2.980   1.853  0.00  0.00    +0.000 A 
ATOM     13  O   UNL     1       4.679   2.885   1.298  0.00  0.00    +0.000 OA
BRANCH  11  14
ATOM     14  C   UNL     1       3.934   5.253   2.685  0.00  0.00    +0.000 A 
ATOM     15  C   UNL     1       3.377   6.511   2.406  0.00  0.00    +0.000 A 
ATOM     16  C   UNL     1       4.181   7.653   2.387  0.00  0.00    +0.000 A 
ATOM     17  C   UNL     1       5.537   7.555   2.692  0.00  0.00    +0.000 A 
ATOM     18  C   UNL     1       6.090   6.317   3.015  0.00  0.00    +0.000 A 
ATOM     19  C   UNL     1       5.295   5.169   2.998  0.00  0.00    +0.000 A 
ENDBRANCH  11  14
ENDBRANCH   4   7
BRANCH   3  20
ATOM     20  C   UNL     1       2.246  -2.231  -1.050  0.00  0.00    +0.000 C 
BRANCH  20  21
ATOM     21  C   UNL     1       2.132  -1.960  -2.566  0.00  0.00    +0.000 C 
BRANCH  21  22
ATOM     22  C   UNL     1       1.332  -3.016  -3.313  0.00  0.00    +0.000 A 
ATOM     23  C   UNL     1      -0.012  -3.244  -2.977  0.00  0.00    +0.000 A 
ATOM     24  C   UNL     1      -0.782  -4.185  -3.672  0.00  0.00    +0.000 A 
ATOM     25  C   UNL     1      -0.232  -4.922  -4.731  0.00  0.00    +0.000 A 
ATOM     26  C   UNL     1      -0.992  -5.863  -5.450  0.00  0.00    +0.000 A 
ATOM     27  C   UNL     1      -0.428  -6.578  -6.510  0.00  0.00    +0.000 A 
ATOM     28  C   UNL     1       0.899  -6.363  -6.862  0.00  0.00    +0.000 A 
ATOM     29  C   UNL     1       1.665  -5.430  -6.161  0.00  0.00    +0.000 A 
ATOM     30  C   UNL     1       1.113  -4.700  -5.095  0.00  0.00    +0.000 A 
ATOM     31  C   UNL     1       1.870  -3.747  -4.388  0.00  0.00    +0.000 A 
ENDBRANCH  21  22
BRANCH  21  32
ATOM     32  O   UNL     1       3.473  -1.856  -3.080  0.00  0.00    +0.000 OA
ATOM     33  H   UNL     1       3.906  -2.707  -2.899  0.00  0.00    +0.000 HD
ENDBRANCH  21  32
ENDBRANCH  20  21
ENDBRANCH   3  20
TORSDOF 6
