REMARK  Name = 
REMARK  3 active torsions:
REMARK  status: ('A' for Active; 'I' for Inactive)
REMARK    1  A    between atoms: C_2  and  C_18
REMARK    2  A    between atoms: C_6  and  C_7
REMARK    3  A    between atoms: C_25  and  O_26
REMARK                            x       y       z     vdW  Elec       q    Type
REMARK                         _______ _______ _______ _____ _____    ______ ____
ROOT
ATOM      1  O   UNL     1       0.982  -0.078  -0.269  0.00  0.00    +0.000 OA
ATOM      2  C   UNL     1       2.186   0.052  -0.058  0.00  0.00    +0.000 C 
ATOM      3  N   UNL     1       2.822  -0.235   1.124  0.00  0.00    +0.000 N 
ATOM      4  C   UNL     1       2.194  -0.717   2.259  0.00  0.00    +0.000 A 
ATOM      5  N   UNL     1       0.985  -1.277   2.170  0.00  0.00    +0.000 NA
ATOM      6  C   UNL     1       0.394  -1.720   3.293  0.00  0.00    +0.000 A 
ATOM      7  C   UNL     1       0.996  -1.581   4.524  0.00  0.00    +0.000 A 
ATOM      8  C   UNL     1       2.243  -1.002   4.522  0.00  0.00    +0.000 A 
ATOM      9  N   UNL     1       2.873  -0.589   3.408  0.00  0.00    +0.000 NA
ATOM     10  H   UNL     1       3.807  -0.009   1.236  0.00  0.00    +0.000 HD
ENDROOT
BRANCH   2  11
ATOM     11  C   UNL     1       3.017   0.636  -1.162  0.00  0.00    +0.000 A 
ATOM     12  C   UNL     1       2.312   1.083  -2.297  0.00  0.00    +0.000 A 
ATOM     13  C   UNL     1       2.979   1.637  -3.381  0.00  0.00    +0.000 A 
ATOM     14  C   UNL     1       4.363   1.747  -3.338  0.00  0.00    +0.000 A 
ATOM     15  C   UNL     1       5.075   1.330  -2.201  0.00  0.00    +0.000 A 
ATOM     16  C   UNL     1       6.465   1.497  -2.142  0.00  0.00    +0.000 A 
ATOM     17  C   UNL     1       7.162   1.129  -0.999  0.00  0.00    +0.000 A 
ATOM     18  C   UNL     1       6.440   0.569   0.031  0.00  0.00    +0.000 A 
ATOM     19  N   UNL     1       5.112   0.382   0.009  0.00  0.00    +0.000 NA
ATOM     20  C   UNL     1       4.412   0.761  -1.086  0.00  0.00    +0.000 A 
BRANCH  18  21
ATOM     21  O   UNL     1       7.045   0.163   1.183  0.00  0.00    +0.000 OA
ATOM     22  H   UNL     1       8.002   0.251   1.074  0.00  0.00    +0.000 HD
ENDBRANCH  18  21
ENDBRANCH   2  11
BRANCH   6  23
ATOM     23  C   UNL     1      -0.918  -2.356   3.092  0.00  0.00    +0.000 A 
ATOM     24  C   UNL     1      -1.185  -3.094   1.923  0.00  0.00    +0.000 A 
ATOM     25  C   UNL     1      -2.435  -3.666   1.706  0.00  0.00    +0.000 A 
ATOM     26  F   UNL     1      -2.659  -4.363   0.585  0.00  0.00    +0.000 F 
ATOM     27  C   UNL     1      -3.454  -3.523   2.632  0.00  0.00    +0.000 A 
ATOM     28  C   UNL     1      -3.201  -2.806   3.791  0.00  0.00    +0.000 A 
ATOM     29  F   UNL     1      -4.176  -2.651   4.698  0.00  0.00    +0.000 F 
ATOM     30  C   UNL     1      -1.957  -2.229   4.032  0.00  0.00    +0.000 A 
ENDBRANCH   6  23
TORSDOF 3
