REMARK  Name = 
REMARK  5 active torsions:
REMARK  status: ('A' for Active; 'I' for Inactive)
REMARK    1  A    between atoms: C_1  and  N_2
REMARK    2  A    between atoms: N_2  and  C_20
REMARK    3  A    between atoms: C_3  and  C_5
REMARK    4  A    between atoms: N_9  and  C_10
REMARK    5  A    between atoms: C_10  and  C_11
REMARK                            x       y       z     vdW  Elec       q    Type
REMARK                         _______ _______ _______ _____ _____    ______ ____
ROOT
ATOM      1  C   UNL     1       2.354   2.059  -1.786  0.00  0.00    +0.000 A 
ATOM      2  C   UNL     1       2.455   2.480  -3.062  0.00  0.00    +0.000 A 
ATOM      3  C   UNL     1       1.679   3.594  -3.552  0.00  0.00    +0.000 A 
ATOM      4  C   UNL     1       0.808   4.210  -2.746  0.00  0.00    +0.000 A 
ATOM      5  N   UNL     1       0.688   3.848  -1.415  0.00  0.00    +0.000 N 
ATOM      6  C   UNL     1       1.516   2.874  -0.850  0.00  0.00    +0.000 A 
ATOM      7  O   UNL     1       1.629   2.729   0.362  0.00  0.00    +0.000 OA
ENDROOT
BRANCH   1  10
ATOM      8  C   UNL     1       3.903  -0.852   0.190  0.00  0.00    +0.000 C 
ATOM      9  N   UNL     1       2.889   0.038  -0.385  0.00  0.00    +0.000 N 
ATOM     10  C   UNL     1       3.296   0.974  -1.331  0.00  0.00    +0.000 C 
ATOM     11  O   UNL     1       4.439   0.973  -1.807  0.00  0.00    +0.000 OA
BRANCH   9  12
ATOM     12  C   UNL     1       1.540  -0.422  -0.270  0.00  0.00    +0.000 A 
ATOM     13  C   UNL     1       0.720   0.101   0.728  0.00  0.00    +0.000 A 
ATOM     14  N   UNL     1      -0.555  -0.282   0.955  0.00  0.00    +0.000 NA
ATOM     15  C   UNL     1      -0.964  -1.381   0.298  0.00  0.00    +0.000 A 
ATOM     16  C   UNL     1      -0.137  -2.147  -0.520  0.00  0.00    +0.000 A 
ATOM     17  C   UNL     1      -0.469  -3.464  -0.866  0.00  0.00    +0.000 A 
ATOM     18  C   UNL     1       0.405  -4.230  -1.633  0.00  0.00    +0.000 A 
ATOM     19  C   UNL     1       1.545  -3.643  -2.176  0.00  0.00    +0.000 A 
ATOM     20  C   UNL     1       1.878  -2.333  -1.843  0.00  0.00    +0.000 A 
ATOM     21  C   UNL     1       1.105  -1.605  -0.912  0.00  0.00    +0.000 A 
ENDBRANCH   9  12
ENDBRANCH   1  10
BRANCH   5  22
ATOM     22  C   UNL     1      -0.110   4.680  -0.515  0.00  0.00    +0.000 C 
BRANCH  22  23
ATOM     23  C   UNL     1      -1.583   4.336  -0.413  0.00  0.00    +0.000 A 
ATOM     24  C   UNL     1      -2.550   5.299  -0.729  0.00  0.00    +0.000 A 
ATOM     25  C   UNL     1      -3.901   5.059  -0.474  0.00  0.00    +0.000 A 
ATOM     26  F   UNL     1      -4.799   6.014  -0.756  0.00  0.00    +0.000 F 
ATOM     27  C   UNL     1      -4.315   3.866   0.100  0.00  0.00    +0.000 A 
ATOM     28  C   UNL     1      -3.368   2.885   0.396  0.00  0.00    +0.000 A 
ATOM     29  C   UNL     1      -2.011   3.118   0.140  0.00  0.00    +0.000 A 
ENDBRANCH  22  23
ENDBRANCH   5  22
TORSDOF 4
