REMARK  Name = 
REMARK  4 active torsions:
REMARK  status: ('A' for Active; 'I' for Inactive)
REMARK    1  A    between atoms: C_2  and  C_17
REMARK    2  A    between atoms: N_6  and  C_7
REMARK    3  A    between atoms: C_22  and  O_23
REMARK    4  A    between atoms: O_23  and  C_24
REMARK                            x       y       z     vdW  Elec       q    Type
REMARK                         _______ _______ _______ _____ _____    ______ ____
ROOT
ATOM      1  O   UNL     1       0.865  -0.143   0.130  0.00  0.00    +0.000 OA
ATOM      2  C   UNL     1       2.077  -0.194  -0.075  0.00  0.00    +0.000 C 
ATOM      3  N   UNL     1       2.650  -0.362  -1.312  0.00  0.00    +0.000 N 
ATOM      4  C   UNL     1       1.917  -0.532  -2.457  0.00  0.00    +0.000 A 
ATOM      5  N   UNL     1       0.611  -0.779  -2.557  0.00  0.00    +0.000 NA
ATOM      6  N   UNL     1       0.393  -0.770  -3.885  0.00  0.00    +0.000 N 
ATOM      7  C   UNL     1       1.587  -0.569  -4.527  0.00  0.00    +0.000 A 
ATOM      8  N   UNL     1       2.566  -0.450  -3.660  0.00  0.00    +0.000 NA
ATOM      9  H   UNL     1       3.645  -0.275  -1.448  0.00  0.00    +0.000 HD
ENDROOT
BRANCH   6  10
ATOM     10  C   UNL     1      -0.908  -0.935  -4.432  0.00  0.00    +0.000 A 
ATOM     11  C   UNL     1      -1.985  -1.249  -3.584  0.00  0.00    +0.000 A 
ATOM     12  C   UNL     1      -3.264  -1.413  -4.115  0.00  0.00    +0.000 A 
ATOM     13  F   UNL     1      -4.281  -1.724  -3.302  0.00  0.00    +0.000 F 
ATOM     14  C   UNL     1      -3.502  -1.262  -5.474  0.00  0.00    +0.000 A 
ATOM     15  C   UNL     1      -2.438  -0.944  -6.305  0.00  0.00    +0.000 A 
ATOM     16  F   UNL     1      -2.655  -0.782  -7.617  0.00  0.00    +0.000 F 
ATOM     17  C   UNL     1      -1.144  -0.783  -5.806  0.00  0.00    +0.000 A 
ENDBRANCH   6  10
BRANCH   2  18
ATOM     18  C   UNL     1       2.977  -0.057   1.120  0.00  0.00    +0.000 A 
ATOM     19  C   UNL     1       2.304   0.105   2.353  0.00  0.00    +0.000 A 
ATOM     20  C   UNL     1       2.990   0.199   3.564  0.00  0.00    +0.000 A 
ATOM     21  C   UNL     1       4.366   0.055   3.580  0.00  0.00    +0.000 A 
ATOM     22  C   UNL     1       5.050  -0.133   2.382  0.00  0.00    +0.000 A 
ATOM     23  C   UNL     1       4.381  -0.088   1.137  0.00  0.00    +0.000 A 
BRANCH  23  24
ATOM     24  O   UNL     1       5.112  -0.043  -0.044  0.00  0.00    +0.000 OA
BRANCH  24  25
ATOM     25  C   UNL     1       6.321   0.641  -0.011  0.00  0.00    +0.000 A 
ATOM     26  C   UNL     1       7.408   0.075  -0.666  0.00  0.00    +0.000 A 
ATOM     27  C   UNL     1       8.646   0.682  -0.505  0.00  0.00    +0.000 A 
ATOM     28  N   UNL     1       8.855   1.785   0.250  0.00  0.00    +0.000 NA
ATOM     29  C   UNL     1       7.772   2.339   0.831  0.00  0.00    +0.000 A 
ATOM     30  C   UNL     1       6.492   1.837   0.693  0.00  0.00    +0.000 A 
ENDBRANCH  24  25
ENDBRANCH  23  24
ENDBRANCH   2  18
TORSDOF 4
