REMARK  Name = 
REMARK  7 active torsions:
REMARK  status: ('A' for Active; 'I' for Inactive)
REMARK    1  A    between atoms: C_2  and  C_20
REMARK    2  A    between atoms: N_3  and  C_4
REMARK    3  A    between atoms: C_4  and  C_5
REMARK    4  A    between atoms: C_4  and  C_14
REMARK    5  A    between atoms: C_5  and  C_7
REMARK    6  A    between atoms: C_7  and  C_8
REMARK    7  A    between atoms: C_25  and  O_26
REMARK                            x       y       z     vdW  Elec       q    Type
REMARK                         _______ _______ _______ _____ _____    ______ ____
ROOT
ATOM      1  O   UNL     1       3.205  -2.116   0.901  0.00  0.00    +0.000 OA
ATOM      2  C   UNL     1       3.609  -1.147   0.253  0.00  0.00    +0.000 C 
ATOM      3  N   UNL     1       3.294  -1.022  -1.077  0.00  0.00    +0.000 N 
ATOM      4  H   UNL     1       3.860  -0.449  -1.687  0.00  0.00    +0.000 HD
ENDROOT
BRANCH   2   5
ATOM      5  C   UNL     1       4.362  -0.120   1.016  0.00  0.00    +0.000 A 
ATOM      6  C   UNL     1       3.950  -0.123   2.339  0.00  0.00    +0.000 A 
ATOM      7  C   UNL     1       4.645   0.497   3.325  0.00  0.00    +0.000 A 
ATOM      8  N   UNL     1       4.188   0.245   4.549  0.00  0.00    +0.000 NA
ATOM      9  C   UNL     1       4.908   0.750   5.552  0.00  0.00    +0.000 A 
ATOM     10  C   UNL     1       6.017   1.538   5.316  0.00  0.00    +0.000 A 
ATOM     11  N   UNL     1       6.470   1.828   4.069  0.00  0.00    +0.000 NA
ATOM     12  C   UNL     1       5.782   1.276   3.027  0.00  0.00    +0.000 A 
ATOM     13  C   UNL     1       6.136   1.383   1.665  0.00  0.00    +0.000 A 
ATOM     14  C   UNL     1       5.442   0.680   0.649  0.00  0.00    +0.000 A 
BRANCH  10  15
ATOM     15  O   UNL     1       6.723   2.059   6.362  0.00  0.00    +0.000 OA
ATOM     16  H   UNL     1       6.284   1.775   7.182  0.00  0.00    +0.000 HD
ENDBRANCH  10  15
ENDBRANCH   2   5
BRANCH   3  17
ATOM     17  C   UNL     1       2.515  -2.146  -1.626  0.00  0.00    +0.000 C 
BRANCH  17  18
ATOM     18  C   UNL     1       3.447  -3.313  -1.919  0.00  0.00    +0.000 A 
ATOM     19  C   UNL     1       3.357  -4.501  -1.169  0.00  0.00    +0.000 A 
ATOM     20  C   UNL     1       4.261  -5.544  -1.377  0.00  0.00    +0.000 A 
ATOM     21  C   UNL     1       5.270  -5.407  -2.326  0.00  0.00    +0.000 A 
ATOM     22  C   UNL     1       5.381  -4.228  -3.061  0.00  0.00    +0.000 A 
ATOM     23  C   UNL     1       4.475  -3.187  -2.860  0.00  0.00    +0.000 A 
ENDBRANCH  17  18
BRANCH  17  24
ATOM     24  C   UNL     1       1.588  -1.734  -2.777  0.00  0.00    +0.000 C 
ATOM     25  O   UNL     1       1.630  -2.249  -3.898  0.00  0.00    +0.000 OA
BRANCH  24  26
ATOM     26  C   UNL     1       0.513  -0.708  -2.449  0.00  0.00    +0.000 C 
BRANCH  26  27
ATOM     27  C   UNL     1      -0.779  -1.296  -1.926  0.00  0.00    +0.000 A 
ATOM     28  C   UNL     1      -1.295  -0.894  -0.685  0.00  0.00    +0.000 A 
ATOM     29  C   UNL     1      -2.521  -1.387  -0.228  0.00  0.00    +0.000 A 
ATOM     30  C   UNL     1      -3.248  -2.286  -1.005  0.00  0.00    +0.000 A 
ATOM     31  C   UNL     1      -2.747  -2.693  -2.239  0.00  0.00    +0.000 A 
ATOM     32  C   UNL     1      -1.522  -2.201  -2.699  0.00  0.00    +0.000 A 
ENDBRANCH  26  27
ENDBRANCH  24  26
ENDBRANCH  17  24
ENDBRANCH   3  17
TORSDOF 7
