REMARK  Name = 
REMARK  6 active torsions:
REMARK  status: ('A' for Active; 'I' for Inactive)
REMARK    1  A    between atoms: C_1  and  C_2
REMARK    2  A    between atoms: N_4  and  C_5
REMARK    3  A    between atoms: C_8  and  C_9
REMARK    4  A    between atoms: N_11  and  C_12
REMARK    5  A    between atoms: C_13  and  C_14
REMARK    6  A    between atoms: N_18  and  C_19
REMARK                            x       y       z     vdW  Elec       q    Type
REMARK                         _______ _______ _______ _____ _____    ______ ____
ROOT
ATOM      1  C   UNL     1       9.713   3.530   0.399  0.00  0.00    +0.000 C 
ATOM      2  O   UNL     1      10.493   3.256  -0.506  0.00  0.00    +0.000 OA
ATOM      3  N   UNL     1       9.947   4.531   1.349  0.00  0.00    +0.000 N 
ATOM      4  H   UNL     1       9.585   4.307   2.269  0.00  0.00    +0.000 HD
ENDROOT
BRANCH   3   5
ATOM      5  C   UNL     1      11.031   5.403   1.283  0.00  0.00    +0.000 A 
ATOM      6  C   UNL     1      11.327   6.201   0.232  0.00  0.00    +0.000 A 
ATOM      7  C   UNL     1      12.570   7.011   0.192  0.00  0.00    +0.000 A 
ATOM      8  O   UNL     1      12.775   7.758  -0.763  0.00  0.00    +0.000 OA
ATOM      9  N   UNL     1      13.414   6.875   1.312  0.00  0.00    +0.000 N 
ATOM     10  C   UNL     1      13.049   6.095   2.403  0.00  0.00    +0.000 A 
ATOM     11  C   UNL     1      11.904   5.405   2.433  0.00  0.00    +0.000 A 
BRANCH   9  12
ATOM     12  C   UNL     1      14.632   7.618   1.337  0.00  0.00    +0.000 A 
ATOM     13  C   UNL     1      14.942   8.397   2.458  0.00  0.00    +0.000 A 
ATOM     14  C   UNL     1      16.116   9.146   2.491  0.00  0.00    +0.000 A 
ATOM     15  C   UNL     1      17.009   9.091   1.423  0.00  0.00    +0.000 A 
ATOM     16  C   UNL     1      16.716   8.306   0.308  0.00  0.00    +0.000 A 
ATOM     17  C   UNL     1      15.523   7.583   0.256  0.00  0.00    +0.000 A 
ENDBRANCH   9  12
BRANCH   6  18
ATOM     18  C   UNL     1      10.431   6.182  -0.996  0.00  0.00    +0.000 C 
ATOM     19  N   UNL     1       9.688   6.166  -2.014  0.00  0.00    +0.000 NA
ENDBRANCH   6  18
ENDBRANCH   3   5
BRANCH   1  23
ATOM     20  C   UNL     1       6.133   1.154   0.815  0.00  0.00    +0.000 A 
ATOM     21  C   UNL     1       7.296   0.600   0.273  0.00  0.00    +0.000 A 
ATOM     22  C   UNL     1       8.460   1.376   0.154  0.00  0.00    +0.000 A 
ATOM     23  C   UNL     1       8.477   2.711   0.593  0.00  0.00    +0.000 A 
ATOM     24  C   UNL     1       7.316   3.261   1.140  0.00  0.00    +0.000 A 
ATOM     25  C   UNL     1       6.151   2.490   1.248  0.00  0.00    +0.000 A 
BRANCH  20  29
ATOM     26  C   UNL     1       2.632  -2.451   0.580  0.00  0.00    +0.000 C 
ATOM     27  C   UNL     1       3.362  -1.179   0.782  0.00  0.00    +0.000 A 
ATOM     28  C   UNL     1       4.700  -0.914   0.577  0.00  0.00    +0.000 A 
ATOM     29  N   UNL     1       4.917   0.411   0.900  0.00  0.00    +0.000 N 
ATOM     30  N   UNL     1       3.771   0.999   1.331  0.00  0.00    +0.000 NA
ATOM     31  C   UNL     1       2.841   0.050   1.229  0.00  0.00    +0.000 A 
ENDBRANCH  20  29
ENDBRANCH   1  23
TORSDOF 5
