REMARK  Name = 
REMARK  5 active torsions:
REMARK  status: ('A' for Active; 'I' for Inactive)
REMARK    1  A    between atoms: C_2  and  C_20
REMARK    2  A    between atoms: N_3  and  C_4
REMARK    3  A    between atoms: C_4  and  C_5
REMARK    4  A    between atoms: C_4  and  C_13
REMARK    5  A    between atoms: C_5  and  C_6
REMARK                            x       y       z     vdW  Elec       q    Type
REMARK                         _______ _______ _______ _____ _____    ______ ____
ROOT
ATOM      1  O   UNL     1       3.416   0.514   2.228  0.00  0.00    +0.000 OA
ATOM      2  C   UNL     1       3.663   0.082   1.105  0.00  0.00    +0.000 C 
ATOM      3  N   UNL     1       3.165  -1.135   0.662  0.00  0.00    +0.000 N 
ATOM      4  H   UNL     1       3.475  -1.526  -0.214  0.00  0.00    +0.000 HD
ENDROOT
BRANCH   2   5
ATOM      5  C   UNL     1       4.554   0.868   0.195  0.00  0.00    +0.000 A 
ATOM      6  C   UNL     1       4.768   0.567  -1.162  0.00  0.00    +0.000 A 
ATOM      7  C   UNL     1       5.668   1.325  -1.955  0.00  0.00    +0.000 A 
ATOM      8  C   UNL     1       6.379   2.404  -1.418  0.00  0.00    +0.000 A 
ATOM      9  C   UNL     1       6.133   2.708  -0.102  0.00  0.00    +0.000 A 
ATOM     10  C   UNL     1       5.240   1.972   0.683  0.00  0.00    +0.000 A 
ATOM     11  N   UNL     1       5.212   2.576   1.943  0.00  0.00    +0.000 N 
ATOM     12  C   UNL     1       6.079   3.675   1.955  0.00  0.00    +0.000 A 
ATOM     13  O   UNL     1       6.295   4.435   2.881  0.00  0.00    +0.000 OA
ATOM     14  N   UNL     1       6.654   3.737   0.676  0.00  0.00    +0.000 N 
ATOM     15  H   UNL     1       4.625   2.275   2.711  0.00  0.00    +0.000 HD
ATOM     16  H   UNL     1       7.318   4.442   0.398  0.00  0.00    +0.000 HD
ENDBRANCH   2   5
BRANCH   3  17
ATOM     17  C   UNL     1       2.391  -2.016   1.549  0.00  0.00    +0.000 C 
BRANCH  17  18
ATOM     18  C   UNL     1       3.331  -2.948   2.313  0.00  0.00    +0.000 A 
ATOM     19  C   UNL     1       3.858  -2.524   3.548  0.00  0.00    +0.000 A 
ATOM     20  C   UNL     1       4.686  -3.358   4.303  0.00  0.00    +0.000 A 
ATOM     21  C   UNL     1       4.999  -4.622   3.830  0.00  0.00    +0.000 A 
ATOM     22  F   UNL     1       5.779  -5.430   4.560  0.00  0.00    +0.000 F 
ATOM     23  C   UNL     1       4.513  -5.062   2.605  0.00  0.00    +0.000 A 
ATOM     24  C   UNL     1       3.694  -4.231   1.844  0.00  0.00    +0.000 A 
ENDBRANCH  17  18
BRANCH  17  25
ATOM     25  C   UNL     1       1.270  -2.790   0.796  0.00  0.00    +0.000 C 
BRANCH  25  26
ATOM     26  C   UNL     1       0.221  -1.969   0.072  0.00  0.00    +0.000 A 
ATOM     27  C   UNL     1      -0.398  -2.516  -1.068  0.00  0.00    +0.000 A 
ATOM     28  C   UNL     1      -1.279  -1.752  -1.833  0.00  0.00    +0.000 A 
ATOM     29  C   UNL     1      -1.560  -0.449  -1.450  0.00  0.00    +0.000 A 
ATOM     30  F   UNL     1      -2.348   0.312  -2.221  0.00  0.00    +0.000 F 
ATOM     31  C   UNL     1      -1.032   0.079  -0.279  0.00  0.00    +0.000 A 
ATOM     32  C   UNL     1      -0.161  -0.689   0.495  0.00  0.00    +0.000 A 
ENDBRANCH  25  26
ENDBRANCH  17  25
ENDBRANCH   3  17
TORSDOF 5
