REMARK  Name = 
REMARK  4 active torsions:
REMARK  status: ('A' for Active; 'I' for Inactive)
REMARK    1  A    between atoms: C_2  and  C_19
REMARK    2  A    between atoms: N_3  and  C_4
REMARK    3  A    between atoms: C_7  and  C_8
REMARK    4  A    between atoms: C_11  and  C_12
REMARK                            x       y       z     vdW  Elec       q    Type
REMARK                         _______ _______ _______ _____ _____    ______ ____
ROOT
ATOM      1  O   UNL     1       1.004   0.122   0.473  0.00  0.00    +0.000 OA
ATOM      2  C   UNL     1       2.155   0.101   0.041  0.00  0.00    +0.000 C 
ATOM      3  N   UNL     1       2.745   1.094  -0.711  0.00  0.00    +0.000 N 
ATOM      4  H   UNL     1       3.677   0.901  -1.083  0.00  0.00    +0.000 HD
ENDROOT
BRANCH   2   5
ATOM      5  C   UNL     1       3.007  -1.111   0.265  0.00  0.00    +0.000 A 
ATOM      6  C   UNL     1       2.441  -2.135   0.930  0.00  0.00    +0.000 A 
ATOM      7  C   UNL     1       3.166  -3.386   1.123  0.00  0.00    +0.000 A 
ATOM      8  C   UNL     1       2.589  -4.488   1.751  0.00  0.00    +0.000 A 
ATOM      9  C   UNL     1       3.324  -5.665   1.853  0.00  0.00    +0.000 A 
ATOM     10  C   UNL     1       4.610  -5.690   1.333  0.00  0.00    +0.000 A 
ATOM     11  N   UNL     1       5.202  -4.634   0.732  0.00  0.00    +0.000 NA
ATOM     12  C   UNL     1       4.466  -3.512   0.637  0.00  0.00    +0.000 A 
ATOM     13  N   UNL     1       5.047  -2.428  -0.009  0.00  0.00    +0.000 N 
ATOM     14  C   UNL     1       4.407  -1.244  -0.239  0.00  0.00    +0.000 A 
ATOM     15  O   UNL     1       4.956  -0.330  -0.851  0.00  0.00    +0.000 OA
ATOM     16  H   UNL     1       5.989  -2.550  -0.351  0.00  0.00    +0.000 HD
ENDBRANCH   2   5
BRANCH   3  17
ATOM     17  C   UNL     1       2.149   2.298  -1.122  0.00  0.00    +0.000 A 
ATOM     18  C   UNL     1       0.960   2.788  -0.584  0.00  0.00    +0.000 A 
ATOM     19  C   UNL     1       0.379   3.954  -1.086  0.00  0.00    +0.000 A 
ATOM     20  C   UNL     1       0.979   4.651  -2.140  0.00  0.00    +0.000 A 
ATOM     21  C   UNL     1       2.200   4.188  -2.647  0.00  0.00    +0.000 A 
ATOM     22  C   UNL     1       2.785   3.024  -2.136  0.00  0.00    +0.000 A 
BRANCH  20  23
ATOM     23  C   UNL     1       0.317   5.812  -2.723  0.00  0.00    +0.000 A 
ATOM     24  N   UNL     1       0.998   6.800  -3.323  0.00  0.00    +0.000 NA
ATOM     25  O   UNL     1       0.057   7.702  -3.780  0.00  0.00    +0.000 OA
ATOM     26  C   UNL     1      -1.187   7.256  -3.468  0.00  0.00    +0.000 A 
ATOM     27  C   UNL     1      -1.079   6.068  -2.789  0.00  0.00    +0.000 A 
BRANCH  26  28
ATOM     28  C   UNL     1      -2.326   8.076  -3.911  0.00  0.00    +0.000 C 
ATOM     29  F   UNL     1      -1.958   9.197  -4.580  0.00  0.00    +0.000 F 
ATOM     30  F   UNL     1      -3.150   7.378  -4.735  0.00  0.00    +0.000 F 
ATOM     31  F   UNL     1      -3.088   8.481  -2.858  0.00  0.00    +0.000 F 
ENDBRANCH  26  28
ENDBRANCH  20  23
ENDBRANCH   3  17
TORSDOF 4
