REMARK  Name = 
REMARK  4 active torsions:
REMARK  status: ('A' for Active; 'I' for Inactive)
REMARK    1  A    between atoms: C_2  and  C_17
REMARK    2  A    between atoms: N_3  and  C_4
REMARK    3  A    between atoms: N_8  and  C_9
REMARK    4  A    between atoms: C_20  and  N_21
REMARK                            x       y       z     vdW  Elec       q    Type
REMARK                         _______ _______ _______ _____ _____    ______ ____
ROOT
ATOM      1  O   UNL     1       1.046  -0.162   0.122  0.00  0.00    +0.000 OA
ATOM      2  C   UNL     1       2.265  -0.099   0.013  0.00  0.00    +0.000 C 
ATOM      3  N   UNL     1       2.957   0.160  -1.153  0.00  0.00    +0.000 N 
ATOM      4  H   UNL     1       3.941  -0.102  -1.208  0.00  0.00    +0.000 HD
ENDROOT
BRANCH   3   5
ATOM      5  C   UNL     1       2.382   0.479  -2.372  0.00  0.00    +0.000 A 
ATOM      6  C   UNL     1       1.140   0.960  -2.529  0.00  0.00    +0.000 A 
ATOM      7  C   UNL     1       0.581   1.200  -3.829  0.00  0.00    +0.000 A 
ATOM      8  C   UNL     1       1.279   0.887  -4.923  0.00  0.00    +0.000 A 
ATOM      9  N   UNL     1       2.577   0.394  -4.852  0.00  0.00    +0.000 N 
ATOM     10  C   UNL     1       3.229   0.232  -3.609  0.00  0.00    +0.000 A 
ATOM     11  O   UNL     1       4.386  -0.163  -3.439  0.00  0.00    +0.000 OA
BRANCH   9  12
ATOM     12  C   UNL     1       3.242  -0.037  -6.043  0.00  0.00    +0.000 A 
ATOM     13  C   UNL     1       2.570  -0.871  -6.951  0.00  0.00    +0.000 A 
ATOM     14  C   UNL     1       3.227  -1.366  -8.079  0.00  0.00    +0.000 A 
ATOM     15  C   UNL     1       4.545  -0.996  -8.334  0.00  0.00    +0.000 A 
ATOM     16  C   UNL     1       5.208  -0.136  -7.460  0.00  0.00    +0.000 A 
ATOM     17  C   UNL     1       4.564   0.331  -6.311  0.00  0.00    +0.000 A 
ENDBRANCH   9  12
ENDBRANCH   3   5
BRANCH   2  18
ATOM     18  C   UNL     1       3.081  -0.374   1.217  0.00  0.00    +0.000 A 
ATOM     19  C   UNL     1       2.639  -1.364   2.100  0.00  0.00    +0.000 A 
ATOM     20  C   UNL     1       3.312  -1.576   3.305  0.00  0.00    +0.000 A 
ATOM     21  C   UNL     1       4.422  -0.796   3.654  0.00  0.00    +0.000 A 
ATOM     22  C   UNL     1       4.852   0.184   2.747  0.00  0.00    +0.000 A 
ATOM     23  C   UNL     1       4.188   0.405   1.534  0.00  0.00    +0.000 A 
BRANCH  21  24
ATOM     24  N   UNL     1       5.094  -1.075   4.848  0.00  0.00    +0.000 N 
ATOM     25  C   UNL     1       6.400  -0.820   5.251  0.00  0.00    +0.000 A 
ATOM     26  N   UNL     1       7.311  -0.352   4.381  0.00  0.00    +0.000 NA
ATOM     27  C   UNL     1       8.567  -0.185   4.819  0.00  0.00    +0.000 A 
ATOM     28  C   UNL     1       8.956  -0.457   6.104  0.00  0.00    +0.000 A 
ATOM     29  C   UNL     1       7.963  -0.923   6.927  0.00  0.00    +0.000 A 
ATOM     30  N   UNL     1       6.691  -1.120   6.527  0.00  0.00    +0.000 NA
ATOM     31  H   UNL     1       4.590  -1.558   5.576  0.00  0.00    +0.000 HD
ENDBRANCH  21  24
ENDBRANCH   2  18
TORSDOF 4
