REMARK  Name = 
REMARK  6 active torsions:
REMARK  status: ('A' for Active; 'I' for Inactive)
REMARK    1  A    between atoms: C_1  and  C_2
REMARK    2  A    between atoms: C_2  and  N_3
REMARK    3  A    between atoms: C_2  and  C_17
REMARK    4  A    between atoms: C_4  and  C_6
REMARK    5  A    between atoms: C_20  and  C_21
REMARK    6  A    between atoms: C_25  and  C_26
REMARK                            x       y       z     vdW  Elec       q    Type
REMARK                         _______ _______ _______ _____ _____    ______ ____
ROOT
ATOM      1  C   UNL     1       0.842   0.005   0.065  0.00  0.00    +0.000 C 
ATOM      2  C   UNL     1       2.373   0.025   0.092  0.00  0.00    +0.000 C 
ENDROOT
BRANCH   2   3
ATOM      3  C   UNL     1       2.917  -0.896   1.170  0.00  0.00    +0.000 A 
ATOM      4  C   UNL     1       3.762  -1.962   0.840  0.00  0.00    +0.000 A 
ATOM      5  C   UNL     1       4.252  -2.824   1.832  0.00  0.00    +0.000 A 
ATOM      6  C   UNL     1       3.914  -2.660   3.188  0.00  0.00    +0.000 A 
ATOM      7  C   UNL     1       3.062  -1.587   3.505  0.00  0.00    +0.000 A 
ATOM      8  C   UNL     1       2.579  -0.719   2.517  0.00  0.00    +0.000 A 
BRANCH   6   9
ATOM      9  C   UNL     1       4.420  -3.576   4.241  0.00  0.00    +0.000 A 
ATOM     10  C   UNL     1       4.654  -3.127   5.556  0.00  0.00    +0.000 A 
ATOM     11  C   UNL     1       5.115  -3.987   6.558  0.00  0.00    +0.000 A 
ATOM     12  C   UNL     1       5.370  -5.323   6.264  0.00  0.00    +0.000 A 
ATOM     13  C   UNL     1       5.155  -5.800   4.972  0.00  0.00    +0.000 A 
ATOM     14  C   UNL     1       4.679  -4.934   3.975  0.00  0.00    +0.000 A 
BRANCH  13  15
ATOM     15  C   UNL     1       5.424  -7.170   4.660  0.00  0.00    +0.000 C 
ATOM     16  N   UNL     1       5.641  -8.283   4.407  0.00  0.00    +0.000 NA
ENDBRANCH  13  15
ENDBRANCH   6   9
ENDBRANCH   2   3
BRANCH   2  17
ATOM     17  N   UNL     1       2.871   1.379   0.272  0.00  0.00    +0.000 N 
ATOM     18  C   UNL     1       3.125   2.225  -0.788  0.00  0.00    +0.000 C 
ATOM     19  O   UNL     1       2.990   1.906  -1.964  0.00  0.00    +0.000 OA
ATOM     20  H   UNL     1       2.926   1.784   1.200  0.00  0.00    +0.000 HD
BRANCH  18  21
ATOM     21  C   UNL     1       3.574   3.606  -0.409  0.00  0.00    +0.000 A 
ATOM     22  C   UNL     1       3.856   4.532  -1.411  0.00  0.00    +0.000 A 
ATOM     23  C   UNL     1       4.210   5.829  -1.042  0.00  0.00    +0.000 A 
ATOM     24  C   UNL     1       4.252   6.158   0.310  0.00  0.00    +0.000 A 
ATOM     25  C   UNL     1       4.529   7.518   0.769  0.00  0.00    +0.000 A 
ATOM     26  C   UNL     1       4.482   7.793   2.080  0.00  0.00    +0.000 A 
ATOM     27  C   UNL     1       4.202   6.732   3.079  0.00  0.00    +0.000 A 
ATOM     28  O   UNL     1       4.160   6.998   4.275  0.00  0.00    +0.000 OA
ATOM     29  N   UNL     1       3.993   5.473   2.597  0.00  0.00    +0.000 N 
ATOM     30  C   UNL     1       3.973   5.151   1.243  0.00  0.00    +0.000 A 
ATOM     31  N   UNL     1       3.642   3.883   0.923  0.00  0.00    +0.000 NA
ATOM     32  H   UNL     1       3.796   4.737   3.258  0.00  0.00    +0.000 HD
ENDBRANCH  18  21
ENDBRANCH   2  17
TORSDOF 5
