REMARK  Name = 
REMARK  6 active torsions:
REMARK  status: ('A' for Active; 'I' for Inactive)
REMARK    1  A    between atoms: C_1  and  C_2
REMARK    2  A    between atoms: N_6  and  C_7
REMARK    3  A    between atoms: C_7  and  C_8
REMARK    4  A    between atoms: C_14  and  N_15
REMARK    5  A    between atoms: C_16  and  C_18
REMARK    6  A    between atoms: C_20  and  N_21
REMARK                            x       y       z     vdW  Elec       q    Type
REMARK                         _______ _______ _______ _____ _____    ______ ____
ROOT
ATOM      1  N   UNL     1       5.247  -4.166   1.841  0.00  0.00    +0.000 N 
ATOM      2  C   UNL     1       5.383  -4.942   2.994  0.00  0.00    +0.000 C 
ATOM      3  O   UNL     1       4.883  -6.045   3.178  0.00  0.00    +0.000 OA
ATOM      4  H   UNL     1       5.796  -3.308   1.859  0.00  0.00    +0.000 HD
ENDROOT
BRANCH   2   5
ATOM      5  C   UNL     1       6.233  -4.322   4.074  0.00  0.00    +0.000 A 
ATOM      6  N   UNL     1       6.428  -2.976   3.913  0.00  0.00    +0.000 NA
ATOM      7  C   UNL     1       7.186  -2.363   4.829  0.00  0.00    +0.000 A 
ATOM      8  C   UNL     1       7.735  -3.009   5.919  0.00  0.00    +0.000 A 
ATOM      9  C   UNL     1       7.705  -4.397   5.954  0.00  0.00    +0.000 A 
ATOM     10  C   UNL     1       8.601  -5.075   6.792  0.00  0.00    +0.000 A 
ATOM     11  C   UNL     1       8.644  -6.465   6.812  0.00  0.00    +0.000 A 
ATOM     12  C   UNL     1       7.697  -7.186   6.101  0.00  0.00    +0.000 A 
ATOM     13  C   UNL     1       6.804  -6.518   5.260  0.00  0.00    +0.000 A 
ATOM     14  C   UNL     1       6.864  -5.108   5.079  0.00  0.00    +0.000 A 
BRANCH   7  15
ATOM     15  N   UNL     1       7.513  -1.023   4.611  0.00  0.00    +0.000 N 
ATOM     16  H   UNL     1       8.525  -0.918   4.639  0.00  0.00    +0.000 HD
ATOM     17  H   UNL     1       7.158  -0.776   3.691  0.00  0.00    +0.000 HD
ENDBRANCH   7  15
ENDBRANCH   2   5
BRANCH   1  24
ATOM     18  C   UNL     1       4.394  -3.589  -0.416  0.00  0.00    +0.000 A 
ATOM     19  C   UNL     1       3.506  -3.899  -1.457  0.00  0.00    +0.000 A 
ATOM     20  F   UNL     1       3.352  -3.051  -2.485  0.00  0.00    +0.000 F 
ATOM     21  C   UNL     1       2.711  -5.040  -1.454  0.00  0.00    +0.000 A 
ATOM     22  C   UNL     1       2.792  -5.913  -0.389  0.00  0.00    +0.000 A 
ATOM     23  C   UNL     1       3.651  -5.621   0.671  0.00  0.00    +0.000 A 
ATOM     24  C   UNL     1       4.456  -4.463   0.696  0.00  0.00    +0.000 A 
BRANCH  18  25
ATOM     25  C   UNL     1       5.160  -2.286  -0.536  0.00  0.00    +0.000 C 
BRANCH  25  31
ATOM     26  C   UNL     1      10.128  -1.927  -0.871  0.00  0.00    +0.000 C 
ATOM     27  C   UNL     1       8.810  -2.068  -1.578  0.00  0.00    +0.000 A 
ATOM     28  C   UNL     1       8.658  -1.866  -2.897  0.00  0.00    +0.000 A 
ATOM     29  C   UNL     1       7.363  -1.947  -3.507  0.00  0.00    +0.000 A 
ATOM     30  C   UNL     1       6.274  -2.134  -2.744  0.00  0.00    +0.000 A 
ATOM     31  N   UNL     1       6.377  -2.315  -1.369  0.00  0.00    +0.000 N 
ATOM     32  C   UNL     1       7.610  -2.369  -0.726  0.00  0.00    +0.000 A 
ATOM     33  O   UNL     1       7.746  -2.585   0.478  0.00  0.00    +0.000 OA
ENDBRANCH  25  31
ENDBRANCH  18  25
ENDBRANCH   1  24
TORSDOF 5
