REMARK  Name = 
REMARK  5 active torsions:
REMARK  status: ('A' for Active; 'I' for Inactive)
REMARK    1  A    between atoms: C_1  and  N_2
REMARK    2  A    between atoms: C_5  and  C_6
REMARK    3  A    between atoms: C_6  and  N_7
REMARK    4  A    between atoms: C_10  and  C_11
REMARK    5  A    between atoms: N_13  and  C_14
REMARK                            x       y       z     vdW  Elec       q    Type
REMARK                         _______ _______ _______ _____ _____    ______ ____
ROOT
ATOM      1  N   UNL     1      -3.990  -2.108   0.433  0.00  0.00    +0.000 N 
ATOM      2  C   UNL     1      -5.043  -3.041   0.386  0.00  0.00    +0.000 A 
ATOM      3  N   UNL     1      -4.948  -4.134  -0.398  0.00  0.00    +0.000 NA
ATOM      4  C   UNL     1      -6.050  -4.925  -0.504  0.00  0.00    +0.000 A 
ATOM      5  C   UNL     1      -7.243  -4.686   0.167  0.00  0.00    +0.000 A 
ATOM      6  C   UNL     1      -7.324  -3.564   0.977  0.00  0.00    +0.000 A 
ATOM      7  C   UNL     1      -6.219  -2.722   1.067  0.00  0.00    +0.000 A 
ATOM      8  H   UNL     1      -4.266  -1.359  -0.200  0.00  0.00    +0.000 HD
ENDROOT
BRANCH   4   9
ATOM      9  C   UNL     1      -5.946  -6.104  -1.421  0.00  0.00    +0.000 C 
ATOM     10  O   UNL     1      -6.936  -6.816  -1.583  0.00  0.00    +0.000 OA
ATOM     11  N   UNL     1      -4.694  -6.300  -1.985  0.00  0.00    +0.000 N 
ATOM     12  H   UNL     1      -3.966  -5.673  -1.645  0.00  0.00    +0.000 HD
BRANCH  11  13
ATOM     13  C   UNL     1      -4.324  -7.353  -2.847  0.00  0.00    +0.000 A 
ATOM     14  C   UNL     1      -5.260  -8.160  -3.505  0.00  0.00    +0.000 A 
ATOM     15  C   UNL     1      -4.848  -9.236  -4.296  0.00  0.00    +0.000 A 
ATOM     16  C   UNL     1      -3.495  -9.504  -4.432  0.00  0.00    +0.000 A 
ATOM     17  F   UNL     1      -3.100 -10.554  -5.165  0.00  0.00    +0.000 F 
ATOM     18  C   UNL     1      -2.546  -8.697  -3.817  0.00  0.00    +0.000 A 
ATOM     19  C   UNL     1      -2.959  -7.609  -3.037  0.00  0.00    +0.000 A 
ENDBRANCH  11  13
ENDBRANCH   4   9
BRANCH   1  20
ATOM     20  C   UNL     1      -2.662  -2.646   0.098  0.00  0.00    +0.000 C 
BRANCH  20  25
ATOM     21  C   UNL     1       0.977  -1.571  -3.118  0.00  0.00    +0.000 C 
ATOM     22  N   UNL     1       0.024  -1.114  -2.117  0.00  0.00    +0.000 N 
ATOM     23  C   UNL     1      -0.713  -2.067  -1.419  0.00  0.00    +0.000 A 
ATOM     24  O   UNL     1      -0.556  -3.281  -1.563  0.00  0.00    +0.000 OA
ATOM     25  C   UNL     1      -1.762  -1.576  -0.466  0.00  0.00    +0.000 A 
ATOM     26  C   UNL     1      -1.862  -0.263  -0.202  0.00  0.00    +0.000 A 
ATOM     27  C   UNL     1      -1.003   0.707  -0.865  0.00  0.00    +0.000 A 
ATOM     28  C   UNL     1      -1.118   2.067  -0.545  0.00  0.00    +0.000 A 
ATOM     29  C   UNL     1      -0.327   3.010  -1.193  0.00  0.00    +0.000 A 
ATOM     30  C   UNL     1       0.572   2.600  -2.171  0.00  0.00    +0.000 A 
ATOM     31  C   UNL     1       0.690   1.245  -2.495  0.00  0.00    +0.000 A 
ATOM     32  C   UNL     1      -0.090   0.282  -1.841  0.00  0.00    +0.000 A 
ENDBRANCH  20  25
ENDBRANCH   1  20
TORSDOF 4
