REMARK  Name = 
REMARK  9 active torsions:
REMARK  status: ('A' for Active; 'I' for Inactive)
REMARK    1  A    between atoms: C_1  and  O_2
REMARK    2  A    between atoms: O_2  and  C_3
REMARK    3  A    between atoms: C_3  and  C_5
REMARK    4  A    between atoms: C_5  and  N_6
REMARK    5  A    between atoms: C_5  and  C_24
REMARK    6  A    between atoms: C_7  and  C_9
REMARK    7  A    between atoms: C_13  and  O_14
REMARK    8  A    between atoms: O_14  and  C_15
REMARK    9  A    between atoms: C_15  and  C_16
REMARK                            x       y       z     vdW  Elec       q    Type
REMARK                         _______ _______ _______ _____ _____    ______ ____
ROOT
ATOM      1  N   UNL     1       3.541  -0.506  -1.502  0.00  0.00    +0.000 N 
ATOM      2  C   UNL     1       4.870  -0.209  -1.632  0.00  0.00    +0.000 C 
ATOM      3  O   UNL     1       5.622  -0.053  -0.679  0.00  0.00    +0.000 OA
ATOM      4  H   UNL     1       3.012  -0.732  -2.337  0.00  0.00    +0.000 HD
ENDROOT
BRANCH   2   5
ATOM      5  C   UNL     1       5.329  -0.102  -3.054  0.00  0.00    +0.000 A 
ATOM      6  C   UNL     1       6.607   0.229  -3.282  0.00  0.00    +0.000 A 
ATOM      7  C   UNL     1       7.099   0.293  -4.672  0.00  0.00    +0.000 A 
ATOM      8  O   UNL     1       8.274   0.571  -4.886  0.00  0.00    +0.000 OA
ATOM      9  C   UNL     1       6.111  -0.003  -5.758  0.00  0.00    +0.000 A 
ATOM     10  C   UNL     1       4.869  -0.313  -5.367  0.00  0.00    +0.000 A 
ATOM     11  O   UNL     1       4.423  -0.369  -4.068  0.00  0.00    +0.000 OA
BRANCH   9  12
ATOM     12  O   UNL     1       6.411   0.001  -7.110  0.00  0.00    +0.000 OA
BRANCH  12  13
ATOM     13  C   UNL     1       7.463   0.878  -7.520  0.00  0.00    +0.000 C 
BRANCH  13  14
ATOM     14  C   UNL     1       7.230   1.299  -8.954  0.00  0.00    +0.000 A 
ATOM     15  C   UNL     1       7.050   2.652  -9.271  0.00  0.00    +0.000 A 
ATOM     16  C   UNL     1       6.888   3.060 -10.595  0.00  0.00    +0.000 A 
ATOM     17  C   UNL     1       6.901   2.117 -11.620  0.00  0.00    +0.000 A 
ATOM     18  C   UNL     1       7.063   0.765 -11.319  0.00  0.00    +0.000 A 
ATOM     19  C   UNL     1       7.223   0.356  -9.993  0.00  0.00    +0.000 A 
ENDBRANCH  13  14
ENDBRANCH  12  13
ENDBRANCH   9  12
ENDBRANCH   2   5
BRANCH   1  20
ATOM     20  C   UNL     1       2.924  -0.784  -0.202  0.00  0.00    +0.000 C 
BRANCH  20  21
ATOM     21  C   UNL     1       1.477  -0.332  -0.255  0.00  0.00    +0.000 A 
ATOM     22  C   UNL     1       1.017   0.724   0.548  0.00  0.00    +0.000 A 
ATOM     23  C   UNL     1      -0.280   1.213   0.382  0.00  0.00    +0.000 A 
ATOM     24  C   UNL     1      -1.116   0.647  -0.577  0.00  0.00    +0.000 A 
ATOM     25  F   UNL     1      -2.337   1.161  -0.770  0.00  0.00    +0.000 F 
ATOM     26  C   UNL     1      -0.697  -0.425  -1.350  0.00  0.00    +0.000 A 
ATOM     27  C   UNL     1       0.590  -0.911  -1.173  0.00  0.00    +0.000 A 
ATOM     28  F   UNL     1       1.010  -1.922  -1.949  0.00  0.00    +0.000 F 
ENDBRANCH  20  21
BRANCH  20  29
ATOM     29  C   UNL     1       3.038  -2.247   0.287  0.00  0.00    +0.000 C 
ATOM     30  O   UNL     1       2.582  -2.646   1.350  0.00  0.00    +0.000 OA
BRANCH  29  32
ATOM     31  C   UNL     1       3.830  -4.401  -0.200  0.00  0.00    +0.000 C 
ATOM     32  O   UNL     1       3.699  -3.040  -0.611  0.00  0.00    +0.000 OA
ENDBRANCH  29  32
ENDBRANCH  20  29
ENDBRANCH   1  20
TORSDOF 8
