REMARK  Name = 
REMARK  4 active torsions:
REMARK  status: ('A' for Active; 'I' for Inactive)
REMARK    1  A    between atoms: C_2  and  C_18
REMARK    2  A    between atoms: N_3  and  C_4
REMARK    3  A    between atoms: C_6  and  O_7
REMARK    4  A    between atoms: N_9  and  C_10
REMARK                            x       y       z     vdW  Elec       q    Type
REMARK                         _______ _______ _______ _____ _____    ______ ____
ROOT
ATOM      1  O   UNL     1       1.000  -0.322  -0.095  0.00  0.00    +0.000 OA
ATOM      2  C   UNL     1       2.205  -0.157  -0.023  0.00  0.00    +0.000 C 
ATOM      3  N   UNL     1       2.955  -0.730   1.051  0.00  0.00    +0.000 N 
ATOM      4  H   UNL     1       3.913  -0.420   1.207  0.00  0.00    +0.000 HD
ENDROOT
BRANCH   2   5
ATOM      5  C   UNL     1       2.946   0.717  -0.954  0.00  0.00    +0.000 A 
ATOM      6  C   UNL     1       4.280   0.459  -1.258  0.00  0.00    +0.000 A 
ATOM      7  F   UNL     1       4.915  -0.551  -0.641  0.00  0.00    +0.000 F 
ATOM      8  C   UNL     1       4.970   1.222  -2.215  0.00  0.00    +0.000 A 
ATOM      9  C   UNL     1       6.285   0.928  -2.607  0.00  0.00    +0.000 A 
ATOM     10  C   UNL     1       6.898   1.691  -3.593  0.00  0.00    +0.000 A 
ATOM     11  C   UNL     1       6.184   2.744  -4.134  0.00  0.00    +0.000 A 
ATOM     12  N   UNL     1       4.924   3.065  -3.764  0.00  0.00    +0.000 NA
ATOM     13  C   UNL     1       4.322   2.309  -2.835  0.00  0.00    +0.000 A 
ATOM     14  C   UNL     1       3.006   2.586  -2.481  0.00  0.00    +0.000 A 
ATOM     15  C   UNL     1       2.303   1.793  -1.565  0.00  0.00    +0.000 A 
ENDBRANCH   2   5
BRANCH   3  16
ATOM     16  C   UNL     1       2.338  -1.439   2.072  0.00  0.00    +0.000 A 
ATOM     17  C   UNL     1       1.552  -2.555   1.900  0.00  0.00    +0.000 A 
ATOM     18  C   UNL     1       1.188  -2.902   3.200  0.00  0.00    +0.000 A 
ATOM     19  N   UNL     1       1.610  -2.058   4.129  0.00  0.00    +0.000 NA
ATOM     20  N   UNL     1       2.349  -1.151   3.439  0.00  0.00    +0.000 N 
BRANCH  20  21
ATOM     21  C   UNL     1       2.884  -0.010   4.096  0.00  0.00    +0.000 A 
ATOM     22  C   UNL     1       2.303   0.421   5.301  0.00  0.00    +0.000 A 
ATOM     23  C   UNL     1       2.745   1.599   5.909  0.00  0.00    +0.000 A 
ATOM     24  C   UNL     1       3.785   2.324   5.332  0.00  0.00    +0.000 A 
ATOM     25  F   UNL     1       4.202   3.457   5.910  0.00  0.00    +0.000 F 
ATOM     26  C   UNL     1       4.393   1.890   4.166  0.00  0.00    +0.000 A 
ATOM     27  C   UNL     1       3.940   0.728   3.554  0.00  0.00    +0.000 A 
ATOM     28  F   UNL     1       4.594   0.318   2.457  0.00  0.00    +0.000 F 
ENDBRANCH  20  21
BRANCH  18  29
ATOM     29  O   UNL     1       0.484  -3.951   3.629  0.00  0.00    +0.000 OA
ATOM     30  H   UNL     1       0.236  -4.525   2.888  0.00  0.00    +0.000 HD
ENDBRANCH  18  29
ENDBRANCH   3  16
TORSDOF 4
