REMARK  Name = 
REMARK  4 active torsions:
REMARK  status: ('A' for Active; 'I' for Inactive)
REMARK    1  A    between atoms: C_2  and  C_17
REMARK    2  A    between atoms: N_3  and  C_4
REMARK    3  A    between atoms: C_4  and  C_5
REMARK    4  A    between atoms: C_8  and  C_9
REMARK                            x       y       z     vdW  Elec       q    Type
REMARK                         _______ _______ _______ _____ _____    ______ ____
ROOT
ATOM      1  O   UNL     1       3.397  -0.638  -2.208  0.00  0.00    +0.000 OA
ATOM      2  C   UNL     1       3.721  -0.285  -1.076  0.00  0.00    +0.000 C 
ATOM      3  N   UNL     1       3.350   0.948  -0.586  0.00  0.00    +0.000 N 
ATOM      4  H   UNL     1       3.650   1.239   0.337  0.00  0.00    +0.000 HD
ENDROOT
BRANCH   2   5
ATOM      5  C   UNL     1       4.465  -1.256  -0.211  0.00  0.00    +0.000 A 
ATOM      6  C   UNL     1       4.596  -2.520  -0.744  0.00  0.00    +0.000 A 
ATOM      7  C   UNL     1       5.030  -3.540   0.072  0.00  0.00    +0.000 A 
ATOM      8  C   UNL     1       5.455  -3.240   1.355  0.00  0.00    +0.000 A 
ATOM      9  C   UNL     1       5.940  -4.284   2.139  0.00  0.00    +0.000 A 
ATOM     10  C   UNL     1       6.803  -3.976   3.167  0.00  0.00    +0.000 A 
ATOM     11  F   UNL     1       7.518  -4.958   3.731  0.00  0.00    +0.000 F 
ATOM     12  C   UNL     1       6.977  -2.653   3.541  0.00  0.00    +0.000 A 
ATOM     13  F   UNL     1       7.864  -2.349   4.499  0.00  0.00    +0.000 F 
ATOM     14  C   UNL     1       6.255  -1.628   2.914  0.00  0.00    +0.000 A 
ATOM     15  C   UNL     1       5.503  -1.879   1.764  0.00  0.00    +0.000 A 
ATOM     16  N   UNL     1       4.920  -0.889   1.031  0.00  0.00    +0.000 NA
ENDBRANCH   2   5
BRANCH   3  17
ATOM     17  C   UNL     1       2.528   1.803  -1.424  0.00  0.00    +0.000 C 
BRANCH  17  18
ATOM     18  C   UNL     1       3.362   2.638  -2.346  0.00  0.00    +0.000 A 
ATOM     19  C   UNL     1       3.738   3.926  -1.994  0.00  0.00    +0.000 A 
ATOM     20  C   UNL     1       4.554   4.663  -2.840  0.00  0.00    +0.000 A 
ATOM     21  C   UNL     1       4.958   4.116  -4.063  0.00  0.00    +0.000 A 
ATOM     22  N   UNL     1       4.556   2.882  -4.446  0.00  0.00    +0.000 NA
ATOM     23  C   UNL     1       3.782   2.173  -3.597  0.00  0.00    +0.000 A 
BRANCH  21  24
ATOM     24  C   UNL     1       5.869   4.822  -4.988  0.00  0.00    +0.000 A 
ATOM     25  C   UNL     1       6.859   5.707  -4.526  0.00  0.00    +0.000 A 
ATOM     26  C   UNL     1       7.687   6.341  -5.439  0.00  0.00    +0.000 A 
ATOM     27  N   UNL     1       7.603   6.173  -6.774  0.00  0.00    +0.000 NA
ATOM     28  C   UNL     1       6.660   5.305  -7.210  0.00  0.00    +0.000 A 
ATOM     29  C   UNL     1       5.791   4.623  -6.372  0.00  0.00    +0.000 A 
ENDBRANCH  21  24
ENDBRANCH  17  18
ENDBRANCH   3  17
TORSDOF 4
