REMARK  Name = 
REMARK  5 active torsions:
REMARK  status: ('A' for Active; 'I' for Inactive)
REMARK    1  A    between atoms: C_2  and  C_3
REMARK    2  A    between atoms: N_5  and  C_6
REMARK    3  A    between atoms: C_9  and  N_10
REMARK    4  A    between atoms: C_11  and  C_13
REMARK    5  A    between atoms: C_16  and  C_17
REMARK                            x       y       z     vdW  Elec       q    Type
REMARK                         _______ _______ _______ _____ _____    ______ ____
ROOT
ATOM      1  N   UNL     1      10.610   3.599   0.448  0.00  0.00    +0.000 N 
ATOM      2  C   UNL     1      10.961   4.499   1.442  0.00  0.00    +0.000 C 
ATOM      3  O   UNL     1      10.280   4.810   2.413  0.00  0.00    +0.000 OA
ATOM      4  H   UNL     1      11.303   3.472  -0.285  0.00  0.00    +0.000 HD
ENDROOT
BRANCH   1   8
ATOM      5  C   UNL     1       7.056   1.325   0.102  0.00  0.00    +0.000 A 
ATOM      6  C   UNL     1       7.232   2.184   1.190  0.00  0.00    +0.000 A 
ATOM      7  C   UNL     1       8.403   2.933   1.316  0.00  0.00    +0.000 A 
ATOM      8  C   UNL     1       9.416   2.854   0.361  0.00  0.00    +0.000 A 
ATOM      9  C   UNL     1       9.242   1.994  -0.729  0.00  0.00    +0.000 A 
ATOM     10  C   UNL     1       8.070   1.229  -0.860  0.00  0.00    +0.000 A 
BRANCH   5  13
ATOM     11  C   UNL     1       3.905  -0.396   0.376  0.00  0.00    +0.000 A 
ATOM     12  C   UNL     1       4.761   0.586   0.810  0.00  0.00    +0.000 A 
ATOM     13  N   UNL     1       5.870   0.547  -0.011  0.00  0.00    +0.000 N 
ATOM     14  N   UNL     1       5.721  -0.385  -0.991  0.00  0.00    +0.000 NA
ATOM     15  C   UNL     1       4.545  -0.963  -0.732  0.00  0.00    +0.000 A 
BRANCH  11  17
ATOM     16  N   UNL     1       1.629  -1.007   1.433  0.00  0.00    +0.000 NA
ATOM     17  C   UNL     1       2.647  -0.737   0.951  0.00  0.00    +0.000 C 
ENDBRANCH  11  17
ENDBRANCH   5  13
ENDBRANCH   1   8
BRANCH   2  18
ATOM     18  C   UNL     1      12.289   5.090   1.269  0.00  0.00    +0.000 A 
ATOM     19  N   UNL     1      13.069   4.838   0.205  0.00  0.00    +0.000 NA
ATOM     20  O   UNL     1      14.241   5.543   0.429  0.00  0.00    +0.000 OA
ATOM     21  C   UNL     1      14.169   6.207   1.620  0.00  0.00    +0.000 A 
ATOM     22  C   UNL     1      12.937   5.967   2.175  0.00  0.00    +0.000 A 
BRANCH  21  23
ATOM     23  C   UNL     1      15.345   6.966   2.029  0.00  0.00    +0.000 A 
ATOM     24  C   UNL     1      15.351   7.667   3.251  0.00  0.00    +0.000 A 
ATOM     25  C   UNL     1      16.476   8.392   3.660  0.00  0.00    +0.000 A 
ATOM     26  C   UNL     1      17.603   8.419   2.850  0.00  0.00    +0.000 A 
ATOM     27  F   UNL     1      18.678   9.115   3.242  0.00  0.00    +0.000 F 
ATOM     28  C   UNL     1      17.614   7.731   1.645  0.00  0.00    +0.000 A 
ATOM     29  F   UNL     1      18.704   7.753   0.866  0.00  0.00    +0.000 F 
ATOM     30  C   UNL     1      16.498   7.007   1.231  0.00  0.00    +0.000 A 
ENDBRANCH  21  23
ENDBRANCH   2  18
TORSDOF 5
