REMARK  Name = 
REMARK  10 active torsions:
REMARK  status: ('A' for Active; 'I' for Inactive)
REMARK    1  A    between atoms: C_1  and  O_2
REMARK    2  A    between atoms: O_2  and  C_3
REMARK    3  A    between atoms: C_7  and  O_8
REMARK    4  A    between atoms: O_8  and  C_9
REMARK    5  A    between atoms: C_14  and  C_15
REMARK    6  A    between atoms: C_15  and  N_16
REMARK    7  A    between atoms: N_19  and  C_20
REMARK    8  A    between atoms: C_20  and  C_21
REMARK    9  A    between atoms: C_21  and  C_22
REMARK   10  A    between atoms: C_25  and  N_26
REMARK                            x       y       z     vdW  Elec       q    Type
REMARK                         _______ _______ _______ _____ _____    ______ ____
ROOT
ATOM      1  N   UNL     1       7.537  -3.234  -3.149  0.00  0.00    +0.000 N 
ATOM      2  C   UNL     1       6.962  -2.607  -4.230  0.00  0.00    +0.000 C 
ATOM      3  O   UNL     1       6.129  -1.716  -4.141  0.00  0.00    +0.000 OA
ATOM      4  N   UNL     1       7.457  -3.083  -5.422  0.00  0.00    +0.000 N 
ATOM      5  H   UNL     1       7.768  -4.204  -3.315  0.00  0.00    +0.000 HD
ATOM      6  H   UNL     1       8.420  -3.382  -5.373  0.00  0.00    +0.000 HD
ENDROOT
BRANCH   1   7
ATOM      7  C   UNL     1       7.074  -2.902  -1.810  0.00  0.00    +0.000 C 
BRANCH   7  13
ATOM      8  C   UNL     1       7.706  -3.427   0.586  0.00  0.00    +0.000 A 
ATOM      9  N   UNL     1       8.589  -3.678   1.587  0.00  0.00    +0.000 NA
ATOM     10  C   UNL     1       9.901  -3.596   1.302  0.00  0.00    +0.000 A 
ATOM     11  C   UNL     1      10.386  -3.308   0.044  0.00  0.00    +0.000 A 
ATOM     12  C   UNL     1       9.469  -3.114  -0.987  0.00  0.00    +0.000 A 
ATOM     13  C   UNL     1       8.089  -3.192  -0.737  0.00  0.00    +0.000 A 
BRANCH   8  14
ATOM     14  O   UNL     1       6.347  -3.379   0.903  0.00  0.00    +0.000 OA
BRANCH  14  19
ATOM     15  C   UNL     1       4.690  -3.749   4.157  0.00  0.00    +0.000 A 
ATOM     16  C   UNL     1       5.367  -2.792   4.917  0.00  0.00    +0.000 A 
ATOM     17  C   UNL     1       6.326  -1.972   4.322  0.00  0.00    +0.000 A 
ATOM     18  C   UNL     1       6.630  -2.122   2.971  0.00  0.00    +0.000 A 
ATOM     19  C   UNL     1       6.019  -3.133   2.223  0.00  0.00    +0.000 A 
ATOM     20  C   UNL     1       5.016  -3.912   2.804  0.00  0.00    +0.000 A 
BRANCH  15  22
ATOM     21  C   UNL     1       3.391  -4.477   6.009  0.00  0.00    +0.000 C 
ATOM     22  O   UNL     1       3.707  -4.581   4.625  0.00  0.00    +0.000 OA
ENDBRANCH  15  22
ENDBRANCH  14  19
ENDBRANCH   8  14
ENDBRANCH   7  13
ENDBRANCH   1   7
BRANCH   4  23
ATOM     23  C   UNL     1       7.029  -2.435  -6.657  0.00  0.00    +0.000 C 
BRANCH  23  24
ATOM     24  C   UNL     1       7.621  -3.079  -7.912  0.00  0.00    +0.000 C 
BRANCH  24  25
ATOM     25  C   UNL     1       7.130  -2.410  -9.176  0.00  0.00    +0.000 A 
ATOM     26  C   UNL     1       7.812  -1.312  -9.720  0.00  0.00    +0.000 A 
ATOM     27  C   UNL     1       7.333  -0.666 -10.867  0.00  0.00    +0.000 A 
ATOM     28  C   UNL     1       6.153  -1.105 -11.481  0.00  0.00    +0.000 A 
ATOM     29  C   UNL     1       5.473  -2.207 -10.945  0.00  0.00    +0.000 A 
ATOM     30  C   UNL     1       5.958  -2.852  -9.802  0.00  0.00    +0.000 A 
BRANCH  28  31
ATOM     31  N   UNL     1       5.616  -0.437 -12.620  0.00  0.00    +0.000 N 
ATOM     32  C   UNL     1       6.144   0.640 -13.305  0.00  0.00    +0.000 A 
ATOM     33  C   UNL     1       5.240   0.985 -14.282  0.00  0.00    +0.000 A 
ATOM     34  C   UNL     1       4.202   0.056 -14.140  0.00  0.00    +0.000 A 
ATOM     35  N   UNL     1       4.427  -0.818 -13.161  0.00  0.00    +0.000 NA
ENDBRANCH  28  31
ENDBRANCH  24  25
ENDBRANCH  23  24
ENDBRANCH   4  23
TORSDOF 9
