REMARK  Name = 
REMARK  3 active torsions:
REMARK  status: ('A' for Active; 'I' for Inactive)
REMARK    1  A    between atoms: C_10  and  C_11
REMARK    2  A    between atoms: C_14  and  C_15
REMARK    3  A    between atoms: C_15  and  C_17
REMARK                            x       y       z     vdW  Elec       q    Type
REMARK                         _______ _______ _______ _____ _____    ______ ____
ROOT
ATOM      1  O   UNL     1       3.307  -3.449  -2.146  0.00  0.00    +0.000 OA
ATOM      2  C   UNL     1       2.486  -2.672  -1.655  0.00  0.00    +0.000 C 
ATOM      3  C   UNL     1       1.052  -2.608  -2.143  0.00  0.00    +0.000 C 
ATOM      4  N   UNL     1       0.143  -2.668  -1.026  0.00  0.00    +0.000 N 
ATOM      5  C   UNL     1      -0.090  -1.644  -0.158  0.00  0.00    +0.000 C 
ATOM      6  O   UNL     1      -1.065  -1.682   0.586  0.00  0.00    +0.000 OA
ATOM      7  C   UNL     1       0.837  -0.488  -0.130  0.00  0.00    +0.000 A 
ATOM      8  C   UNL     1       0.277   0.746   0.233  0.00  0.00    +0.000 A 
ATOM      9  C   UNL     1       1.076   1.887   0.367  0.00  0.00    +0.000 A 
ATOM     10  C   UNL     1       2.466   1.817   0.202  0.00  0.00    +0.000 A 
ATOM     11  C   UNL     1       3.014   0.554  -0.100  0.00  0.00    +0.000 A 
ATOM     12  C   UNL     1       2.219  -0.582  -0.329  0.00  0.00    +0.000 A 
ATOM     13  N   UNL     1       2.921  -1.716  -0.775  0.00  0.00    +0.000 N 
ATOM     14  H   UNL     1      -0.559  -3.397  -1.007  0.00  0.00    +0.000 HD
ATOM     15  H   UNL     1       3.930  -1.732  -0.675  0.00  0.00    +0.000 HD
ENDROOT
BRANCH  10  16
ATOM     16  C   UNL     1       3.333   3.014   0.301  0.00  0.00    +0.000 A 
ATOM     17  C   UNL     1       3.033   4.086   1.159  0.00  0.00    +0.000 A 
ATOM     18  C   UNL     1       3.860   5.215   1.236  0.00  0.00    +0.000 A 
ATOM     19  C   UNL     1       5.018   5.295   0.457  0.00  0.00    +0.000 A 
ATOM     20  C   UNL     1       5.347   4.224  -0.365  0.00  0.00    +0.000 A 
ATOM     21  F   UNL     1       6.485   4.208  -1.074  0.00  0.00    +0.000 F 
ATOM     22  C   UNL     1       4.507   3.118  -0.467  0.00  0.00    +0.000 A 
BRANCH  19  23
ATOM     23  C   UNL     1       5.872   6.499   0.565  0.00  0.00    +0.000 C 
ATOM     24  O   UNL     1       5.928   7.082   1.646  0.00  0.00    +0.000 OA
BRANCH  23  25
ATOM     25  C   UNL     1       6.644   7.031  -0.589  0.00  0.00    +0.000 A 
ATOM     26  C   UNL     1       7.843   7.706  -0.330  0.00  0.00    +0.000 A 
ATOM     27  C   UNL     1       8.606   8.206  -1.386  0.00  0.00    +0.000 A 
ATOM     28  C   UNL     1       8.174   8.040  -2.702  0.00  0.00    +0.000 A 
ATOM     29  C   UNL     1       6.968   7.389  -2.964  0.00  0.00    +0.000 A 
ATOM     30  C   UNL     1       6.195   6.900  -1.910  0.00  0.00    +0.000 A 
ENDBRANCH  23  25
ENDBRANCH  19  23
ENDBRANCH  10  16
TORSDOF 3
