REMARK  Name = 
REMARK  6 active torsions:
REMARK  status: ('A' for Active; 'I' for Inactive)
REMARK    1  A    between atoms: C_2  and  C_18
REMARK    2  A    between atoms: N_3  and  C_4
REMARK    3  A    between atoms: C_6  and  N_7
REMARK    4  A    between atoms: C_8  and  C_10
REMARK    5  A    between atoms: C_22  and  C_23
REMARK    6  A    between atoms: C_23  and  C_24
REMARK                            x       y       z     vdW  Elec       q    Type
REMARK                         _______ _______ _______ _____ _____    ______ ____
ROOT
ATOM      1  O   UNL     1       0.984   0.149  -0.331  0.00  0.00    +0.000 OA
ATOM      2  C   UNL     1       2.201   0.180  -0.174  0.00  0.00    +0.000 C 
ATOM      3  N   UNL     1       2.876   0.781   0.881  0.00  0.00    +0.000 N 
ATOM      4  H   UNL     1       3.865   0.960   0.769  0.00  0.00    +0.000 HD
ENDROOT
BRANCH   3   5
ATOM      5  C   UNL     1       2.243   1.345   2.016  0.00  0.00    +0.000 A 
ATOM      6  C   UNL     1       0.933   1.010   2.371  0.00  0.00    +0.000 A 
ATOM      7  C   UNL     1       0.293   1.573   3.476  0.00  0.00    +0.000 A 
ATOM      8  C   UNL     1       0.973   2.540   4.217  0.00  0.00    +0.000 A 
ATOM      9  C   UNL     1       2.299   2.862   3.899  0.00  0.00    +0.000 A 
ATOM     10  C   UNL     1       2.940   2.250   2.816  0.00  0.00    +0.000 A 
BRANCH   7  11
ATOM     11  N   UNL     1      -1.015   1.197   3.865  0.00  0.00    +0.000 N 
ATOM     12  C   UNL     1      -1.680   0.056   3.437  0.00  0.00    +0.000 C 
ATOM     13  O   UNL     1      -1.210  -0.819   2.724  0.00  0.00    +0.000 OA
ATOM     14  H   UNL     1      -1.454   1.756   4.580  0.00  0.00    +0.000 HD
BRANCH  12  15
ATOM     15  C   UNL     1      -3.021  -0.113   3.928  0.00  0.00    +0.000 A 
ATOM     16  C   UNL     1      -3.844   0.590   4.782  0.00  0.00    +0.000 A 
ATOM     17  N   UNL     1      -5.055  -0.050   4.938  0.00  0.00    +0.000 NA
ATOM     18  C   UNL     1      -4.985  -1.121   4.187  0.00  0.00    +0.000 A 
ATOM     19  N   UNL     1      -3.785  -1.195   3.550  0.00  0.00    +0.000 N 
ATOM     20  H   UNL     1      -3.473  -1.919   2.908  0.00  0.00    +0.000 HD
ENDBRANCH  12  15
ENDBRANCH   7  11
ENDBRANCH   3   5
BRANCH   2  21
ATOM     21  C   UNL     1       3.024  -0.399  -1.262  0.00  0.00    +0.000 A 
ATOM     22  C   UNL     1       2.465  -0.391  -2.549  0.00  0.00    +0.000 A 
ATOM     23  C   UNL     1       3.147  -0.960  -3.620  0.00  0.00    +0.000 A 
ATOM     24  C   UNL     1       4.403  -1.525  -3.413  0.00  0.00    +0.000 A 
ATOM     25  C   UNL     1       4.990  -1.525  -2.136  0.00  0.00    +0.000 A 
ATOM     26  C   UNL     1       4.279  -0.981  -1.052  0.00  0.00    +0.000 A 
BRANCH  25  27
ATOM     27  C   UNL     1       6.357  -2.138  -1.928  0.00  0.00    +0.000 C 
BRANCH  27  28
ATOM     28  C   UNL     1       6.323  -3.611  -1.603  0.00  0.00    +0.000 A 
ATOM     29  C   UNL     1       6.394  -4.562  -2.621  0.00  0.00    +0.000 A 
ATOM     30  C   UNL     1       6.321  -5.911  -2.289  0.00  0.00    +0.000 A 
ATOM     31  C   UNL     1       6.176  -6.276  -0.957  0.00  0.00    +0.000 A 
ATOM     32  C   UNL     1       6.123  -5.271  -0.006  0.00  0.00    +0.000 A 
ATOM     33  N   UNL     1       6.198  -3.954  -0.296  0.00  0.00    +0.000 NA
ENDBRANCH  27  28
ENDBRANCH  25  27
ENDBRANCH   2  21
TORSDOF 6
