REMARK  Name = 
REMARK  6 active torsions:
REMARK  status: ('A' for Active; 'I' for Inactive)
REMARK    1  A    between atoms: C_2  and  C_15
REMARK    2  A    between atoms: N_3  and  C_4
REMARK    3  A    between atoms: C_4  and  C_5
REMARK    4  A    between atoms: C_5  and  C_6
REMARK    5  A    between atoms: C_20  and  C_21
REMARK    6  A    between atoms: C_21  and  C_23
REMARK                            x       y       z     vdW  Elec       q    Type
REMARK                         _______ _______ _______ _____ _____    ______ ____
ROOT
ATOM      1  O   UNL     1       1.062  -0.059  -0.044  0.00  0.00    +0.000 OA
ATOM      2  C   UNL     1       2.279  -0.077  -0.154  0.00  0.00    +0.000 C 
ATOM      3  N   UNL     1       2.988   0.761  -0.992  0.00  0.00    +0.000 N 
ATOM      4  H   UNL     1       3.958   0.558  -1.189  0.00  0.00    +0.000 HD
ENDROOT
BRANCH   2   5
ATOM      5  C   UNL     1       3.097  -1.016   0.659  0.00  0.00    +0.000 A 
ATOM      6  C   UNL     1       4.334  -0.552   1.151  0.00  0.00    +0.000 A 
ATOM      7  C   UNL     1       5.081  -1.316   2.047  0.00  0.00    +0.000 A 
ATOM      8  C   UNL     1       4.588  -2.538   2.488  0.00  0.00    +0.000 A 
ATOM      9  C   UNL     1       3.373  -3.018   1.993  0.00  0.00    +0.000 A 
ATOM     10  C   UNL     1       2.630  -2.281   1.051  0.00  0.00    +0.000 A 
BRANCH  10  11
ATOM     11  C   UNL     1       1.391  -2.939   0.550  0.00  0.00    +0.000 C 
ATOM     12  O   UNL     1       0.729  -3.613   1.339  0.00  0.00    +0.000 OA
BRANCH  11  13
ATOM     13  C   UNL     1       0.983  -2.925  -0.882  0.00  0.00    +0.000 A 
ATOM     14  C   UNL     1      -0.378  -3.096  -1.184  0.00  0.00    +0.000 A 
ATOM     15  C   UNL     1      -0.809  -3.114  -2.512  0.00  0.00    +0.000 A 
ATOM     16  C   UNL     1       0.121  -2.966  -3.534  0.00  0.00    +0.000 A 
ATOM     17  F   UNL     1      -0.289  -2.988  -4.809  0.00  0.00    +0.000 F 
ATOM     18  C   UNL     1       1.475  -2.811  -3.253  0.00  0.00    +0.000 A 
ATOM     19  C   UNL     1       1.912  -2.804  -1.925  0.00  0.00    +0.000 A 
ENDBRANCH  11  13
ENDBRANCH  10  11
ENDBRANCH   2   5
BRANCH   3  20
ATOM     20  C   UNL     1       2.299   1.699  -1.861  0.00  0.00    +0.000 C 
BRANCH  20  21
ATOM     21  C   UNL     1       3.290   2.584  -2.624  0.00  0.00    +0.000 C 
BRANCH  21  22
ATOM     22  C   UNL     1       2.604   3.566  -3.548  0.00  0.00    +0.000 A 
ATOM     23  C   UNL     1       2.787   4.902  -3.397  0.00  0.00    +0.000 A 
ATOM     24  C   UNL     1       2.146   5.886  -4.260  0.00  0.00    +0.000 A 
ATOM     25  C   UNL     1       1.333   5.463  -5.241  0.00  0.00    +0.000 A 
ATOM     26  N   UNL     1       1.135   4.098  -5.408  0.00  0.00    +0.000 N 
ATOM     27  C   UNL     1       0.356   3.429  -6.319  0.00  0.00    +0.000 A 
ATOM     28  C   UNL     1       0.534   2.095  -6.044  0.00  0.00    +0.000 A 
ATOM     29  N   UNL     1       1.413   1.916  -5.005  0.00  0.00    +0.000 NA
ATOM     30  C   UNL     1       1.748   3.130  -4.622  0.00  0.00    +0.000 A 
ENDBRANCH  21  22
ENDBRANCH  20  21
ENDBRANCH   3  20
TORSDOF 6
