REMARK  Name = 
REMARK  8 active torsions:
REMARK  status: ('A' for Active; 'I' for Inactive)
REMARK    1  A    between atoms: C_1  and  N_2
REMARK    2  A    between atoms: N_2  and  C_3
REMARK    3  A    between atoms: C_4  and  C_6
REMARK    4  A    between atoms: C_8  and  O_9
REMARK    5  A    between atoms: O_9  and  C_10
REMARK    6  A    between atoms: C_13  and  N_14
REMARK    7  A    between atoms: C_15  and  C_17
REMARK    8  A    between atoms: C_21  and  C_22
REMARK                            x       y       z     vdW  Elec       q    Type
REMARK                         _______ _______ _______ _____ _____    ______ ____
ROOT
ATOM      1  C   UNL     1       6.814  -2.955  -0.267  0.00  0.00    +0.000 A 
ATOM      2  C   UNL     1       6.117  -3.515  -1.330  0.00  0.00    +0.000 A 
ATOM      3  C   UNL     1       5.426  -4.712  -1.161  0.00  0.00    +0.000 A 
ATOM      4  C   UNL     1       5.482  -5.424   0.038  0.00  0.00    +0.000 A 
ATOM      5  C   UNL     1       6.281  -4.916   1.070  0.00  0.00    +0.000 A 
ATOM      6  C   UNL     1       6.939  -3.681   0.919  0.00  0.00    +0.000 A 
ENDROOT
BRANCH   4   7
ATOM      7  N   UNL     1       4.763  -6.632   0.244  0.00  0.00    +0.000 N 
ATOM      8  C   UNL     1       3.893  -7.201  -0.672  0.00  0.00    +0.000 C 
ATOM      9  O   UNL     1       3.615  -6.755  -1.782  0.00  0.00    +0.000 OA
ATOM     10  H   UNL     1       4.926  -7.104   1.123  0.00  0.00    +0.000 HD
BRANCH   8  11
ATOM     11  C   UNL     1       3.224  -8.473  -0.308  0.00  0.00    +0.000 A 
ATOM     12  C   UNL     1       2.904  -8.839   0.989  0.00  0.00    +0.000 A 
ATOM     13  C   UNL     1       2.192 -10.014   1.167  0.00  0.00    +0.000 A 
ATOM     14  N   UNL     1       1.806 -10.828   0.156  0.00  0.00    +0.000 NA
ATOM     15  C   UNL     1       2.128 -10.454  -1.108  0.00  0.00    +0.000 A 
ATOM     16  C   UNL     1       2.827  -9.291  -1.375  0.00  0.00    +0.000 A 
BRANCH  15  17
ATOM     17  C   UNL     1       1.724 -11.345  -2.204  0.00  0.00    +0.000 A 
ATOM     18  N   UNL     1       1.978 -11.063  -3.497  0.00  0.00    +0.000 NA
ATOM     19  N   UNL     1       1.490 -12.110  -4.176  0.00  0.00    +0.000 N 
ATOM     20  C   UNL     1       0.933 -13.063  -3.381  0.00  0.00    +0.000 A 
ATOM     21  C   UNL     1       1.054 -12.595  -2.096  0.00  0.00    +0.000 A 
ATOM     22  H   UNL     1       1.579 -12.108  -5.188  0.00  0.00    +0.000 HD
ENDBRANCH  15  17
ENDBRANCH   8  11
ENDBRANCH   4   7
BRANCH   1  23
ATOM     23  O   UNL     1       7.432  -1.726  -0.340  0.00  0.00    +0.000 OA
BRANCH  23  26
ATOM     24  C   UNL     1       5.098   0.489  -2.160  0.00  0.00    +0.000 A 
ATOM     25  C   UNL     1       5.512  -0.551  -1.335  0.00  0.00    +0.000 A 
ATOM     26  C   UNL     1       6.880  -0.731  -1.125  0.00  0.00    +0.000 A 
ATOM     27  C   UNL     1       7.776   0.173  -1.685  0.00  0.00    +0.000 A 
ATOM     28  C   UNL     1       7.272   1.197  -2.468  0.00  0.00    +0.000 A 
ATOM     29  N   UNL     1       5.959   1.371  -2.727  0.00  0.00    +0.000 NA
BRANCH  24  33
ATOM     30  C   UNL     1       1.721   1.498  -3.674  0.00  0.00    +0.000 C 
ATOM     31  N   UNL     1       3.152   1.281  -3.564  0.00  0.00    +0.000 N 
ATOM     32  C   UNL     1       3.985   1.617  -4.708  0.00  0.00    +0.000 C 
ATOM     33  C   UNL     1       3.623   0.674  -2.392  0.00  0.00    +0.000 C 
ATOM     34  O   UNL     1       2.847   0.261  -1.526  0.00  0.00    +0.000 OA
ENDBRANCH  24  33
ENDBRANCH  23  26
ENDBRANCH   1  23
TORSDOF 6
