REMARK  Name = 
REMARK  6 active torsions:
REMARK  status: ('A' for Active; 'I' for Inactive)
REMARK    1  A    between atoms: C_2  and  C_3
REMARK    2  A    between atoms: C_3  and  N_4
REMARK    3  A    between atoms: N_9  and  C_10
REMARK    4  A    between atoms: C_12  and  C_13
REMARK    5  A    between atoms: C_13  and  N_14
REMARK    6  A    between atoms: C_15  and  C_17
REMARK                            x       y       z     vdW  Elec       q    Type
REMARK                         _______ _______ _______ _____ _____    ______ ____
ROOT
ATOM      1  C   UNL     1       4.364   0.062   1.234  0.00  0.00    +0.000 A 
ATOM      2  C   UNL     1       5.036   1.072   0.531  0.00  0.00    +0.000 A 
ATOM      3  C   UNL     1       6.437   1.183   0.567  0.00  0.00    +0.000 A 
ATOM      4  C   UNL     1       7.160   0.283   1.357  0.00  0.00    +0.000 A 
ATOM      5  C   UNL     1       6.498  -0.702   2.094  0.00  0.00    +0.000 A 
ATOM      6  C   UNL     1       5.106  -0.808   2.039  0.00  0.00    +0.000 A 
ENDROOT
BRANCH   1   9
ATOM      7  O   UNL     1       2.482   1.055  -0.790  0.00  0.00    +0.000 OA
ATOM      8  C   UNL     1       2.123   0.392   0.187  0.00  0.00    +0.000 C 
ATOM      9  N   UNL     1       2.963  -0.132   1.161  0.00  0.00    +0.000 N 
ATOM     10  H   UNL     1       2.571  -0.799   1.815  0.00  0.00    +0.000 HD
BRANCH   8  11
ATOM     11  C   UNL     1       0.656   0.066   0.380  0.00  0.00    +0.000 C 
BRANCH  11  12
ATOM     12  N   UNL     1      -0.020   1.070   1.185  0.00  0.00    +0.000 N 
ATOM     13  C   UNL     1      -0.666   0.832   2.370  0.00  0.00    +0.000 A 
ATOM     14  C   UNL     1      -1.200   2.025   2.807  0.00  0.00    +0.000 A 
ATOM     15  C   UNL     1      -0.880   3.012   1.845  0.00  0.00    +0.000 A 
ATOM     16  C   UNL     1      -0.162   2.391   0.846  0.00  0.00    +0.000 A 
ENDBRANCH  11  12
ENDBRANCH   8  11
ENDBRANCH   1   9
BRANCH   3  17
ATOM     17  C   UNL     1       7.146   2.224  -0.266  0.00  0.00    +0.000 C 
BRANCH  17  18
ATOM     18  N   UNL     1       7.266   3.513   0.396  0.00  0.00    +0.000 N 
ATOM     19  C   UNL     1       8.387   3.874   1.113  0.00  0.00    +0.000 C 
ATOM     20  O   UNL     1       9.339   3.116   1.264  0.00  0.00    +0.000 OA
ATOM     21  H   UNL     1       6.604   4.222   0.120  0.00  0.00    +0.000 HD
BRANCH  19  22
ATOM     22  C   UNL     1       8.474   5.282   1.647  0.00  0.00    +0.000 A 
ATOM     23  C   UNL     1       9.786   5.793   1.720  0.00  0.00    +0.000 A 
ATOM     24  C   UNL     1      10.028   7.069   2.212  0.00  0.00    +0.000 A 
ATOM     25  C   UNL     1       8.957   7.856   2.606  0.00  0.00    +0.000 A 
ATOM     26  F   UNL     1       9.228   9.083   3.082  0.00  0.00    +0.000 F 
ATOM     27  C   UNL     1       7.640   7.413   2.544  0.00  0.00    +0.000 A 
ATOM     28  N   UNL     1       6.675   8.268   2.941  0.00  0.00    +0.000 NA
ATOM     29  C   UNL     1       5.398   7.853   2.951  0.00  0.00    +0.000 A 
ATOM     30  C   UNL     1       5.021   6.582   2.595  0.00  0.00    +0.000 A 
ATOM     31  C   UNL     1       6.013   5.696   2.175  0.00  0.00    +0.000 A 
ATOM     32  C   UNL     1       7.374   6.090   2.094  0.00  0.00    +0.000 A 
ENDBRANCH  19  22
ENDBRANCH  17  18
ENDBRANCH   3  17
TORSDOF 6
