REMARK  Name = 
REMARK  4 active torsions:
REMARK  status: ('A' for Active; 'I' for Inactive)
REMARK    1  A    between atoms: C_2  and  C_11
REMARK    2  A    between atoms: N_3  and  C_4
REMARK    3  A    between atoms: N_16  and  C_17
REMARK    4  A    between atoms: C_17  and  C_18
REMARK                            x       y       z     vdW  Elec       q    Type
REMARK                         _______ _______ _______ _____ _____    ______ ____
ROOT
ATOM      1  C   UNL     1       3.074  -0.956   0.803  0.00  0.00    +0.000 A 
ATOM      2  C   UNL     1       2.598  -2.237   1.053  0.00  0.00    +0.000 A 
ATOM      3  C   UNL     1       3.368  -3.077   1.833  0.00  0.00    +0.000 A 
ATOM      4  C   UNL     1       4.576  -2.606   2.337  0.00  0.00    +0.000 A 
ATOM      5  C   UNL     1       4.997  -1.307   2.049  0.00  0.00    +0.000 A 
ATOM      6  N   UNL     1       6.213  -0.811   2.497  0.00  0.00    +0.000 N 
ATOM      7  N   UNL     1       4.266  -0.475   1.268  0.00  0.00    +0.000 NA
ATOM      8  H   UNL     1       6.318   0.151   2.196  0.00  0.00    +0.000 HD
ENDROOT
BRANCH   1  10
ATOM      9  O   UNL     1       1.081  -0.435  -0.324  0.00  0.00    +0.000 OA
ATOM     10  C   UNL     1       2.206  -0.044  -0.015  0.00  0.00    +0.000 C 
ATOM     11  N   UNL     1       2.776   1.160  -0.392  0.00  0.00    +0.000 N 
ATOM     12  H   UNL     1       3.763   1.262  -0.178  0.00  0.00    +0.000 HD
BRANCH  11  13
ATOM     13  C   UNL     1       2.144   2.153  -1.178  0.00  0.00    +0.000 A 
ATOM     14  C   UNL     1       0.757   2.193  -1.385  0.00  0.00    +0.000 A 
ATOM     15  C   UNL     1       0.183   3.153  -2.220  0.00  0.00    +0.000 A 
ATOM     16  C   UNL     1       0.998   4.085  -2.847  0.00  0.00    +0.000 A 
ATOM     17  F   UNL     1       0.452   4.989  -3.672  0.00  0.00    +0.000 F 
ATOM     18  C   UNL     1       2.368   4.089  -2.630  0.00  0.00    +0.000 A 
ATOM     19  C   UNL     1       2.944   3.130  -1.781  0.00  0.00    +0.000 A 
ENDBRANCH  11  13
ENDBRANCH   1  10
BRANCH   6  20
ATOM     20  C   UNL     1       6.706  -1.085   3.847  0.00  0.00    +0.000 C 
BRANCH  20  21
ATOM     21  C   UNL     1       6.081  -0.218   4.927  0.00  0.00    +0.000 A 
ATOM     22  C   UNL     1       5.233   0.796   4.680  0.00  0.00    +0.000 A 
ATOM     23  N   UNL     1       4.628   1.519   5.670  0.00  0.00    +0.000 N 
ATOM     24  C   UNL     1       4.753   1.261   7.010  0.00  0.00    +0.000 A 
ATOM     25  O   UNL     1       4.175   1.934   7.856  0.00  0.00    +0.000 OA
ATOM     26  C   UNL     1       5.642   0.133   7.372  0.00  0.00    +0.000 A 
ATOM     27  C   UNL     1       5.753  -0.231   8.722  0.00  0.00    +0.000 A 
ATOM     28  C   UNL     1       6.630  -1.244   9.096  0.00  0.00    +0.000 A 
ATOM     29  C   UNL     1       7.425  -1.852   8.128  0.00  0.00    +0.000 A 
ATOM     30  C   UNL     1       7.297  -1.501   6.775  0.00  0.00    +0.000 A 
ATOM     31  C   UNL     1       6.363  -0.535   6.362  0.00  0.00    +0.000 A 
ATOM     32  H   UNL     1       4.000   2.279   5.433  0.00  0.00    +0.000 HD
ENDBRANCH  20  21
ENDBRANCH   6  20
TORSDOF 4
