REMARK  Name = 
REMARK  4 active torsions:
REMARK  status: ('A' for Active; 'I' for Inactive)
REMARK    1  A    between atoms: C_2  and  C_11
REMARK    2  A    between atoms: N_3  and  C_4
REMARK    3  A    between atoms: N_16  and  C_17
REMARK    4  A    between atoms: C_17  and  C_18
REMARK                            x       y       z     vdW  Elec       q    Type
REMARK                         _______ _______ _______ _____ _____    ______ ____
ROOT
ATOM      1  C   UNL     1       3.405   1.089   0.954  0.00  0.00    +0.000 A 
ATOM      2  C   UNL     1       2.793   1.246   2.202  0.00  0.00    +0.000 A 
ATOM      3  C   UNL     1       3.392   2.044   3.150  0.00  0.00    +0.000 A 
ATOM      4  C   UNL     1       4.572   2.682   2.812  0.00  0.00    +0.000 A 
ATOM      5  C   UNL     1       5.161   2.483   1.555  0.00  0.00    +0.000 A 
ATOM      6  N   UNL     1       6.341   3.188   1.355  0.00  0.00    +0.000 N 
ATOM      7  N   UNL     1       4.609   1.656   0.621  0.00  0.00    +0.000 NA
ATOM      8  H   UNL     1       6.340   4.157   1.649  0.00  0.00    +0.000 HD
ENDROOT
BRANCH   1  10
ATOM      9  O   UNL     1       1.407   0.126   0.223  0.00  0.00    +0.000 OA
ATOM     10  C   UNL     1       2.594   0.314  -0.052  0.00  0.00    +0.000 C 
ATOM     11  N   UNL     1       3.217  -0.189  -1.188  0.00  0.00    +0.000 N 
ATOM     12  H   UNL     1       4.217  -0.029  -1.265  0.00  0.00    +0.000 HD
BRANCH  11  13
ATOM     13  C   UNL     1       2.589  -1.056  -2.134  0.00  0.00    +0.000 A 
ATOM     14  C   UNL     1       1.201  -1.283  -2.183  0.00  0.00    +0.000 A 
ATOM     15  C   UNL     1       0.638  -2.203  -3.076  0.00  0.00    +0.000 A 
ATOM     16  C   UNL     1       1.462  -2.905  -3.938  0.00  0.00    +0.000 A 
ATOM     17  F   UNL     1       0.933  -3.805  -4.778  0.00  0.00    +0.000 F 
ATOM     18  C   UNL     1       2.834  -2.681  -3.938  0.00  0.00    +0.000 A 
ATOM     19  C   UNL     1       3.395  -1.750  -3.046  0.00  0.00    +0.000 A 
ENDBRANCH  11  13
ENDBRANCH   1  10
BRANCH   6  20
ATOM     20  C   UNL     1       7.447   2.764   0.532  0.00  0.00    +0.000 C 
BRANCH  20  21
ATOM     21  C   UNL     1       7.444   3.288  -0.885  0.00  0.00    +0.000 A 
ATOM     22  C   UNL     1       8.656   3.358  -1.602  0.00  0.00    +0.000 A 
ATOM     23  C   UNL     1       8.658   3.575  -2.983  0.00  0.00    +0.000 A 
ATOM     24  C   UNL     1       7.441   3.695  -3.657  0.00  0.00    +0.000 A 
ATOM     25  C   UNL     1       7.393   3.785  -5.139  0.00  0.00    +0.000 A 
ATOM     26  O   UNL     1       8.411   3.841  -5.819  0.00  0.00    +0.000 OA
ATOM     27  C   UNL     1       6.054   3.750  -5.784  0.00  0.00    +0.000 A 
ATOM     28  C   UNL     1       4.971   3.728  -5.000  0.00  0.00    +0.000 A 
ATOM     29  N   UNL     1       5.004   3.766  -3.634  0.00  0.00    +0.000 N 
ATOM     30  C   UNL     1       6.227   3.654  -2.955  0.00  0.00    +0.000 A 
ATOM     31  C   UNL     1       6.245   3.521  -1.569  0.00  0.00    +0.000 A 
ATOM     32  H   UNL     1       4.173   3.468  -3.133  0.00  0.00    +0.000 HD
ENDBRANCH  20  21
ENDBRANCH   6  20
TORSDOF 4
