REMARK  Name = 
REMARK  5 active torsions:
REMARK  status: ('A' for Active; 'I' for Inactive)
REMARK    1  A    between atoms: C_5  and  C_6
REMARK    2  A    between atoms: N_8  and  C_9
REMARK    3  A    between atoms: C_9  and  C_10
REMARK    4  A    between atoms: C_15  and  C_16
REMARK    5  A    between atoms: C_23  and  C_24
REMARK                            x       y       z     vdW  Elec       q    Type
REMARK                         _______ _______ _______ _____ _____    ______ ____
ROOT
ATOM      1  C   UNL     1      -2.676  -1.427   0.071  0.00  0.00    +0.000 C 
ATOM      2  O   UNL     1      -3.706  -0.827  -0.211  0.00  0.00    +0.000 OA
ATOM      3  N   UNL     1      -2.659  -2.777   0.291  0.00  0.00    +0.000 N 
ATOM      4  H   UNL     1      -1.812  -3.287   0.479  0.00  0.00    +0.000 HD
ENDROOT
BRANCH   1   9
ATOM      5  N   UNL     1       1.435   1.275  -0.292  0.00  0.00    +0.000 N 
ATOM      6  C   UNL     1       0.508   0.379   0.050  0.00  0.00    +0.000 A 
ATOM      7  N   UNL     1       0.770  -0.602   0.902  0.00  0.00    +0.000 NA
ATOM      8  N   UNL     1      -0.379  -1.277   0.971  0.00  0.00    +0.000 N 
ATOM      9  C   UNL     1      -1.376  -0.807   0.154  0.00  0.00    +0.000 A 
ATOM     10  C   UNL     1      -0.832   0.324  -0.452  0.00  0.00    +0.000 A 
ATOM     11  H   UNL     1       2.347   1.230   0.142  0.00  0.00    +0.000 HD
ATOM     12  H   UNL     1       1.291   2.010  -0.969  0.00  0.00    +0.000 HD
ATOM     13  H   UNL     1      -0.428  -2.069   1.602  0.00  0.00    +0.000 HD
BRANCH  10  14
ATOM     14  C   UNL     1      -1.497   1.201  -1.418  0.00  0.00    +0.000 A 
ATOM     15  C   UNL     1      -1.276   2.586  -1.372  0.00  0.00    +0.000 A 
ATOM     16  C   UNL     1      -1.797   3.433  -2.353  0.00  0.00    +0.000 A 
ATOM     17  C   UNL     1      -2.587   2.913  -3.374  0.00  0.00    +0.000 A 
ATOM     18  C   UNL     1      -2.859   1.548  -3.408  0.00  0.00    +0.000 A 
ATOM     19  C   UNL     1      -2.306   0.696  -2.445  0.00  0.00    +0.000 A 
ENDBRANCH  10  14
ENDBRANCH   1   9
BRANCH   3  20
ATOM     20  C   UNL     1      -3.842  -3.608   0.137  0.00  0.00    +0.000 C 
BRANCH  20  21
ATOM     21  C   UNL     1      -4.124  -4.490   1.341  0.00  0.00    +0.000 A 
ATOM     22  N   UNL     1      -3.211  -4.382   2.361  0.00  0.00    +0.000 NA
ATOM     23  C   UNL     1      -3.451  -5.055   3.503  0.00  0.00    +0.000 A 
ATOM     24  C   UNL     1      -4.543  -5.874   3.681  0.00  0.00    +0.000 A 
ATOM     25  C   UNL     1      -5.435  -6.022   2.620  0.00  0.00    +0.000 A 
ATOM     26  C   UNL     1      -5.263  -5.330   1.403  0.00  0.00    +0.000 A 
BRANCH  26  27
ATOM     27  C   UNL     1      -6.276  -5.484   0.316  0.00  0.00    +0.000 A 
ATOM     28  C   UNL     1      -7.652  -5.595   0.615  0.00  0.00    +0.000 A 
ATOM     29  C   UNL     1      -8.621  -5.693  -0.392  0.00  0.00    +0.000 A 
ATOM     30  C   UNL     1      -8.236  -5.645  -1.722  0.00  0.00    +0.000 A 
ATOM     31  F   UNL     1      -9.162  -5.691  -2.687  0.00  0.00    +0.000 F 
ATOM     32  C   UNL     1      -6.897  -5.563  -2.060  0.00  0.00    +0.000 A 
ATOM     33  C   UNL     1      -5.931  -5.533  -1.049  0.00  0.00    +0.000 A 
ENDBRANCH  26  27
ENDBRANCH  20  21
ENDBRANCH   3  20
TORSDOF 5
