REMARK  Name = 
REMARK  6 active torsions:
REMARK  status: ('A' for Active; 'I' for Inactive)
REMARK    1  A    between atoms: C_1  and  C_2
REMARK    2  A    between atoms: C_5  and  C_6
REMARK    3  A    between atoms: N_8  and  C_9
REMARK    4  A    between atoms: C_9  and  C_10
REMARK    5  A    between atoms: C_13  and  C_14
REMARK    6  A    between atoms: N_16  and  C_17
REMARK                            x       y       z     vdW  Elec       q    Type
REMARK                         _______ _______ _______ _____ _____    ______ ____
ROOT
ATOM      1  C   UNL     1       7.446  -6.664  -0.088  0.00  0.00    +0.000 A 
ATOM      2  C   UNL     1       8.644  -5.951  -0.206  0.00  0.00    +0.000 A 
ATOM      3  C   UNL     1       9.858  -6.629  -0.324  0.00  0.00    +0.000 A 
ATOM      4  C   UNL     1       9.896  -8.030  -0.344  0.00  0.00    +0.000 A 
ATOM      5  C   UNL     1       8.707  -8.754  -0.225  0.00  0.00    +0.000 A 
ATOM      6  C   UNL     1       7.488  -8.069  -0.100  0.00  0.00    +0.000 A 
ENDROOT
BRANCH   4   7
ATOM      7  C   UNL     1      11.233  -8.670  -0.437  0.00  0.00    +0.000 C 
ATOM      8  O   UNL     1      12.167  -8.091   0.109  0.00  0.00    +0.000 OA
ATOM      9  N   UNL     1      11.328  -9.822  -1.210  0.00  0.00    +0.000 N 
ATOM     10  H   UNL     1      10.509 -10.097  -1.737  0.00  0.00    +0.000 HD
BRANCH   9  11
ATOM     11  C   UNL     1      12.541 -10.478  -1.542  0.00  0.00    +0.000 A 
ATOM     12  C   UNL     1      13.745 -10.248  -0.864  0.00  0.00    +0.000 A 
ATOM     13  C   UNL     1      14.938 -10.831  -1.298  0.00  0.00    +0.000 A 
ATOM     14  C   UNL     1      14.926 -11.665  -2.404  0.00  0.00    +0.000 A 
ATOM     15  F   UNL     1      16.075 -12.199  -2.844  0.00  0.00    +0.000 F 
ATOM     16  C   UNL     1      13.737 -11.952  -3.063  0.00  0.00    +0.000 A 
ATOM     17  C   UNL     1      12.541 -11.368  -2.624  0.00  0.00    +0.000 A 
ENDBRANCH   9  11
ENDBRANCH   4   7
BRANCH   1  18
ATOM     18  C   UNL     1       6.134  -5.925   0.010  0.00  0.00    +0.000 C 
BRANCH  18  21
ATOM     19  C   UNL     1       4.368  -5.041  -1.463  0.00  0.00    +0.000 C 
ATOM     20  O   UNL     1       3.752  -4.612  -0.492  0.00  0.00    +0.000 OA
ATOM     21  N   UNL     1       5.560  -5.717  -1.299  0.00  0.00    +0.000 N 
ATOM     22  H   UNL     1       6.067  -6.069  -2.096  0.00  0.00    +0.000 HD
BRANCH  19  27
ATOM     23  C   UNL     1      -0.486  -2.447  -2.485  0.00  0.00    +0.000 C 
ATOM     24  C   UNL     1       0.663  -3.117  -3.170  0.00  0.00    +0.000 A 
ATOM     25  C   UNL     1       1.716  -3.661  -2.527  0.00  0.00    +0.000 A 
ATOM     26  N   UNL     1       2.750  -4.269  -3.250  0.00  0.00    +0.000 N 
ATOM     27  C   UNL     1       3.925  -4.889  -2.831  0.00  0.00    +0.000 A 
ATOM     28  C   UNL     1       4.528  -5.292  -4.013  0.00  0.00    +0.000 A 
ATOM     29  N   UNL     1       3.792  -4.958  -5.115  0.00  0.00    +0.000 NA
ATOM     30  C   UNL     1       2.733  -4.343  -4.644  0.00  0.00    +0.000 A 
ATOM     31  C   UNL     1       1.625  -3.770  -5.326  0.00  0.00    +0.000 A 
ATOM     32  C   UNL     1       0.636  -3.183  -4.629  0.00  0.00    +0.000 A 
ENDBRANCH  19  27
ENDBRANCH  18  21
ENDBRANCH   1  18
TORSDOF 5
