REMARK  Name = 
REMARK  7 active torsions:
REMARK  status: ('A' for Active; 'I' for Inactive)
REMARK    1  A    between atoms: C_2  and  C_3
REMARK    2  A    between atoms: C_3  and  N_4
REMARK    3  A    between atoms: C_6  and  N_7
REMARK    4  A    between atoms: C_8  and  C_10
REMARK    5  A    between atoms: C_15  and  O_16
REMARK    6  A    between atoms: O_16  and  C_17
REMARK    7  A    between atoms: C_17  and  C_18
REMARK                            x       y       z     vdW  Elec       q    Type
REMARK                         _______ _______ _______ _____ _____    ______ ____
ROOT
ATOM      1  C   UNL     1       0.601   5.570   1.628  0.00  0.00    +0.000 A 
ATOM      2  C   UNL     1       0.008   6.773   1.264  0.00  0.00    +0.000 A 
ATOM      3  C   UNL     1      -0.770   7.249   2.397  0.00  0.00    +0.000 A 
ATOM      4  C   UNL     1      -1.568   8.381   2.691  0.00  0.00    +0.000 A 
ATOM      5  C   UNL     1      -2.071   8.558   4.001  0.00  0.00    +0.000 A 
ATOM      6  C   UNL     1      -1.778   7.656   5.024  0.00  0.00    +0.000 A 
ATOM      7  C   UNL     1      -1.104   6.472   4.717  0.00  0.00    +0.000 A 
ATOM      8  C   UNL     1      -0.619   6.322   3.421  0.00  0.00    +0.000 A 
ATOM      9  N   UNL     1       0.090   5.288   2.886  0.00  0.00    +0.000 N 
ATOM     10  H   UNL     1       0.345   4.445   3.383  0.00  0.00    +0.000 HD
ENDROOT
BRANCH   1  12
ATOM     11  N   UNL     1       2.087   4.575  -0.132  0.00  0.00    +0.000 N 
ATOM     12  C   UNL     1       1.564   4.585   1.161  0.00  0.00    +0.000 C 
ATOM     13  O   UNL     1       1.886   3.727   1.987  0.00  0.00    +0.000 OA
ATOM     14  H   UNL     1       1.703   5.243  -0.787  0.00  0.00    +0.000 HD
BRANCH  11  17
ATOM     15  N   UNL     1       4.419   1.683  -0.382  0.00  0.00    +0.000 N 
ATOM     16  C   UNL     1       3.578   2.657   0.144  0.00  0.00    +0.000 A 
ATOM     17  C   UNL     1       3.020   3.641  -0.600  0.00  0.00    +0.000 A 
ATOM     18  C   UNL     1       3.425   3.702  -1.998  0.00  0.00    +0.000 A 
ATOM     19  C   UNL     1       4.272   2.805  -2.528  0.00  0.00    +0.000 A 
ATOM     20  C   UNL     1       4.806   1.682  -1.710  0.00  0.00    +0.000 A 
ATOM     21  O   UNL     1       5.527   0.832  -2.225  0.00  0.00    +0.000 OA
BRANCH  15  22
ATOM     22  C   UNL     1       4.750   0.510   0.436  0.00  0.00    +0.000 C 
BRANCH  22  24
ATOM     23  N   UNL     1       2.966  -1.407   0.113  0.00  0.00    +0.000 NA
ATOM     24  C   UNL     1       3.760  -0.571   0.249  0.00  0.00    +0.000 C 
ENDBRANCH  22  24
ENDBRANCH  15  22
ENDBRANCH  11  17
ENDBRANCH   1  12
BRANCH   6  25
ATOM     25  O   UNL     1      -2.086   7.847   6.352  0.00  0.00    +0.000 OA
BRANCH  25  26
ATOM     26  C   UNL     1      -2.162   9.228   6.735  0.00  0.00    +0.000 C 
BRANCH  26  27
ATOM     27  C   UNL     1      -1.858   9.466   8.198  0.00  0.00    +0.000 A 
ATOM     28  C   UNL     1      -1.242  10.671   8.581  0.00  0.00    +0.000 A 
ATOM     29  C   UNL     1      -0.964  10.941   9.921  0.00  0.00    +0.000 A 
ATOM     30  C   UNL     1      -1.316  10.016  10.900  0.00  0.00    +0.000 A 
ATOM     31  C   UNL     1      -1.958   8.832  10.538  0.00  0.00    +0.000 A 
ATOM     32  C   UNL     1      -2.234   8.559   9.195  0.00  0.00    +0.000 A 
ENDBRANCH  26  27
ENDBRANCH  25  26
ENDBRANCH   6  25
TORSDOF 7
