REMARK  Name = 
REMARK  5 active torsions:
REMARK  status: ('A' for Active; 'I' for Inactive)
REMARK    1  A    between atoms: C_2  and  C_3
REMARK    2  A    between atoms: C_9  and  C_10
REMARK    3  A    between atoms: N_12  and  C_13
REMARK    4  A    between atoms: C_15  and  N_16
REMARK    5  A    between atoms: C_17  and  C_19
REMARK                            x       y       z     vdW  Elec       q    Type
REMARK                         _______ _______ _______ _____ _____    ______ ____
ROOT
ATOM      1  C   UNL     1      -4.084   3.077  -0.762  0.00  0.00    +0.000 A 
ATOM      2  C   UNL     1      -3.797   4.144  -1.616  0.00  0.00    +0.000 A 
ATOM      3  C   UNL     1      -4.776   5.038  -2.059  0.00  0.00    +0.000 A 
ATOM      4  C   UNL     1      -6.077   4.887  -1.586  0.00  0.00    +0.000 A 
ATOM      5  C   UNL     1      -6.394   3.809  -0.748  0.00  0.00    +0.000 A 
ATOM      6  C   UNL     1      -5.405   2.894  -0.355  0.00  0.00    +0.000 A 
ENDROOT
BRANCH   1   9
ATOM      7  C   UNL     1      -1.718   2.420  -0.360  0.00  0.00    +0.000 C 
ATOM      8  O   UNL     1      -1.205   3.474  -0.727  0.00  0.00    +0.000 OA
ATOM      9  N   UNL     1      -3.087   2.169  -0.314  0.00  0.00    +0.000 N 
ATOM     10  H   UNL     1      -3.449   1.330   0.121  0.00  0.00    +0.000 HD
BRANCH   7  17
ATOM     11  C   UNL     1      -0.960   0.376   1.031  0.00  0.00    +0.000 A 
ATOM     12  C   UNL     1       0.051  -0.559   1.315  0.00  0.00    +0.000 A 
ATOM     13  C   UNL     1       1.276  -0.485   0.658  0.00  0.00    +0.000 A 
ATOM     14  F   UNL     1       2.225  -1.385   0.934  0.00  0.00    +0.000 F 
ATOM     15  C   UNL     1       1.526   0.513  -0.266  0.00  0.00    +0.000 A 
ATOM     16  C   UNL     1       0.521   1.433  -0.563  0.00  0.00    +0.000 A 
ATOM     17  C   UNL     1      -0.747   1.363   0.059  0.00  0.00    +0.000 A 
BRANCH  11  19
ATOM     18  N   UNL     1      -3.180   0.233   2.348  0.00  0.00    +0.000 NA
ATOM     19  C   UNL     1      -2.166   0.290   1.786  0.00  0.00    +0.000 C 
ENDBRANCH  11  19
ENDBRANCH   7  17
ENDBRANCH   1   9
BRANCH   3  20
ATOM     20  N   UNL     1      -4.484   6.071  -2.983  0.00  0.00    +0.000 N 
ATOM     21  C   UNL     1      -3.382   6.082  -3.819  0.00  0.00    +0.000 C 
ATOM     22  O   UNL     1      -2.515   5.214  -3.886  0.00  0.00    +0.000 OA
ATOM     23  H   UNL     1      -5.173   6.799  -3.142  0.00  0.00    +0.000 HD
BRANCH  21  24
ATOM     24  C   UNL     1      -3.323   7.261  -4.763  0.00  0.00    +0.000 A 
ATOM     25  C   UNL     1      -2.292   7.205  -5.636  0.00  0.00    +0.000 A 
ATOM     26  C   UNL     1      -2.106   8.272  -6.531  0.00  0.00    +0.000 A 
ATOM     27  C   UNL     1      -1.247   8.603  -7.546  0.00  0.00    +0.000 A 
ATOM     28  C   UNL     1      -1.692   9.875  -7.966  0.00  0.00    +0.000 A 
ATOM     29  N   UNL     1      -2.751  10.316  -7.273  0.00  0.00    +0.000 NA
ATOM     30  N   UNL     1      -2.990   9.309  -6.406  0.00  0.00    +0.000 N 
ATOM     31  C   UNL     1      -4.045   9.312  -5.490  0.00  0.00    +0.000 A 
ATOM     32  N   UNL     1      -4.250   8.303  -4.679  0.00  0.00    +0.000 NA
ENDBRANCH  21  24
ENDBRANCH   3  20
TORSDOF 5
