REMARK  Name = 
REMARK  6 active torsions:
REMARK  status: ('A' for Active; 'I' for Inactive)
REMARK    1  A    between atoms: C_1  and  N_2
REMARK    2  A    between atoms: C_3  and  C_5
REMARK    3  A    between atoms: C_8  and  C_9
REMARK    4  A    between atoms: N_11  and  C_12
REMARK    5  A    between atoms: C_16  and  C_17
REMARK    6  A    between atoms: C_17  and  C_18
REMARK                            x       y       z     vdW  Elec       q    Type
REMARK                         _______ _______ _______ _____ _____    ______ ____
ROOT
ATOM      1  C   UNL     1      11.200   0.668  -0.615  0.00  0.00    +0.000 A 
ATOM      2  C   UNL     1      11.881   0.186   0.506  0.00  0.00    +0.000 A 
ATOM      3  C   UNL     1      13.255  -0.044   0.470  0.00  0.00    +0.000 A 
ATOM      4  C   UNL     1      13.969   0.172  -0.709  0.00  0.00    +0.000 A 
ATOM      5  C   UNL     1      13.315   0.596  -1.879  0.00  0.00    +0.000 A 
ATOM      6  C   UNL     1      11.927   0.867  -1.805  0.00  0.00    +0.000 A 
ENDROOT
BRANCH   1   9
ATOM      7  C   UNL     1       9.048   1.129   0.571  0.00  0.00    +0.000 C 
ATOM      8  O   UNL     1       9.498   1.090   1.714  0.00  0.00    +0.000 OA
ATOM      9  N   UNL     1       9.804   0.967  -0.588  0.00  0.00    +0.000 N 
ATOM     10  H   UNL     1       9.392   1.176  -1.486  0.00  0.00    +0.000 HD
BRANCH   7  14
ATOM     11  C   UNL     1       4.778   1.860   0.466  0.00  0.00    +0.000 A 
ATOM     12  C   UNL     1       5.488   1.847   1.665  0.00  0.00    +0.000 A 
ATOM     13  C   UNL     1       6.874   1.621   1.661  0.00  0.00    +0.000 A 
ATOM     14  C   UNL     1       7.578   1.402   0.456  0.00  0.00    +0.000 A 
ATOM     15  C   UNL     1       6.863   1.423  -0.743  0.00  0.00    +0.000 A 
ATOM     16  C   UNL     1       5.479   1.649  -0.726  0.00  0.00    +0.000 A 
ATOM     17  F   UNL     1       4.840   1.647  -1.906  0.00  0.00    +0.000 F 
BRANCH  11  20
ATOM     18  C   UNL     1       1.187   2.259  -0.718  0.00  0.00    +0.000 C 
ATOM     19  N   UNL     1       2.615   2.079  -0.670  0.00  0.00    +0.000 N 
ATOM     20  C   UNL     1       3.301   2.077   0.523  0.00  0.00    +0.000 C 
ATOM     21  O   UNL     1       2.747   2.238   1.606  0.00  0.00    +0.000 OA
ATOM     22  H   UNL     1       3.119   1.974  -1.543  0.00  0.00    +0.000 HD
ENDBRANCH  11  20
ENDBRANCH   7  14
ENDBRANCH   1   9
BRANCH   5  23
ATOM     23  C   UNL     1      14.142   0.818  -3.145  0.00  0.00    +0.000 C 
BRANCH  23  24
ATOM     24  C   UNL     1      13.435   0.538  -4.442  0.00  0.00    +0.000 A 
ATOM     25  N   UNL     1      13.211   1.350  -5.464  0.00  0.00    +0.000 NA
ATOM     26  C   UNL     1      12.406   0.639  -6.336  0.00  0.00    +0.000 A 
ATOM     27  C   UNL     1      11.803   1.006  -7.553  0.00  0.00    +0.000 A 
ATOM     28  C   UNL     1      10.897   0.112  -8.152  0.00  0.00    +0.000 A 
ATOM     29  C   UNL     1      10.632  -1.135  -7.580  0.00  0.00    +0.000 A 
ATOM     30  C   UNL     1      11.295  -1.552  -6.425  0.00  0.00    +0.000 A 
ATOM     31  C   UNL     1      12.162  -0.636  -5.834  0.00  0.00    +0.000 A 
ATOM     32  N   UNL     1      12.936  -0.711  -4.710  0.00  0.00    +0.000 N 
ATOM     33  H   UNL     1      13.037  -1.520  -4.116  0.00  0.00    +0.000 HD
ENDBRANCH  23  24
ENDBRANCH   5  23
TORSDOF 5
