REMARK  Name = 
REMARK  6 active torsions:
REMARK  status: ('A' for Active; 'I' for Inactive)
REMARK    1  A    between atoms: C_2  and  O_3
REMARK    2  A    between atoms: C_2  and  C_4
REMARK    3  A    between atoms: C_11  and  C_13
REMARK    4  A    between atoms: C_15  and  C_16
REMARK    5  A    between atoms: C_16  and  C_17
REMARK    6  A    between atoms: C_25  and  O_26
REMARK                            x       y       z     vdW  Elec       q    Type
REMARK                         _______ _______ _______ _____ _____    ______ ____
ROOT
ATOM      1  C   UNL     1       6.045   0.113   0.477  0.00  0.00    +0.000 A 
ATOM      2  C   UNL     1       7.228   0.812   0.612  0.00  0.00    +0.000 A 
ATOM      3  N   UNL     1       7.754   1.600  -0.362  0.00  0.00    +0.000 NA
ATOM      4  C   UNL     1       7.114   1.710  -1.527  0.00  0.00    +0.000 A 
ATOM      5  N   UNL     1       7.638   2.494  -2.469  0.00  0.00    +0.000 NA
ATOM      6  C   UNL     1       7.069   2.514  -3.695  0.00  0.00    +0.000 A 
ATOM      7  N   UNL     1       7.698   3.321  -4.631  0.00  0.00    +0.000 N 
ATOM      8  C   UNL     1       7.931   2.958  -5.939  0.00  0.00    +0.000 C 
ATOM      9  O   UNL     1       7.626   1.869  -6.417  0.00  0.00    +0.000 OA
ATOM     10  C   UNL     1       5.898   1.847  -3.999  0.00  0.00    +0.000 A 
ATOM     11  C   UNL     1       5.282   1.110  -2.997  0.00  0.00    +0.000 A 
ATOM     12  C   UNL     1       5.907   1.016  -1.750  0.00  0.00    +0.000 A 
ATOM     13  C   UNL     1       5.357   0.232  -0.723  0.00  0.00    +0.000 A 
ATOM     14  H   UNL     1       8.264   4.072  -4.253  0.00  0.00    +0.000 HD
ENDROOT
BRANCH   8  15
ATOM     15  C   UNL     1       8.655   3.962  -6.790  0.00  0.00    +0.000 A 
ATOM     16  C   UNL     1       9.041   3.558  -8.082  0.00  0.00    +0.000 A 
ATOM     17  C   UNL     1       9.673   4.447  -8.968  0.00  0.00    +0.000 A 
ATOM     18  C   UNL     1       9.889   5.767  -8.557  0.00  0.00    +0.000 A 
ATOM     19  C   UNL     1       9.531   6.179  -7.272  0.00  0.00    +0.000 A 
ATOM     20  C   UNL     1       8.934   5.277  -6.388  0.00  0.00    +0.000 A 
BRANCH  20  21
ATOM     21  O   UNL     1       8.639   5.701  -5.119  0.00  0.00    +0.000 OA
ATOM     22  H   UNL     1       8.941   6.620  -5.010  0.00  0.00    +0.000 HD
ENDBRANCH  20  21
BRANCH  17  23
ATOM     23  C   UNL     1      10.085   3.992 -10.352  0.00  0.00    +0.000 C 
BRANCH  23  24
ATOM     24  C   UNL     1       8.998   4.157 -11.387  0.00  0.00    +0.000 A 
ATOM     25  C   UNL     1       8.902   5.336 -12.140  0.00  0.00    +0.000 A 
ATOM     26  C   UNL     1       7.858   5.512 -13.050  0.00  0.00    +0.000 A 
ATOM     27  C   UNL     1       6.904   4.511 -13.221  0.00  0.00    +0.000 A 
ATOM     28  C   UNL     1       7.001   3.327 -12.493  0.00  0.00    +0.000 A 
ATOM     29  C   UNL     1       8.042   3.149 -11.582  0.00  0.00    +0.000 A 
ENDBRANCH  23  24
ENDBRANCH  17  23
ENDBRANCH   8  15
BRANCH   1  31
ATOM     30  O   UNL     1       5.773  -0.376   2.772  0.00  0.00    +0.000 OA
ATOM     31  C   UNL     1       5.545  -0.676   1.616  0.00  0.00    +0.000 C 
BRANCH  31  32
ATOM     32  O   UNL     1       4.835  -1.770   1.261  0.00  0.00    +0.000 OA
ATOM     33  H   UNL     1       4.876  -2.019   0.320  0.00  0.00    +0.000 HD
ENDBRANCH  31  32
ENDBRANCH   1  31
TORSDOF 6
