REMARK  Name = 
REMARK  9 active torsions:
REMARK  status: ('A' for Active; 'I' for Inactive)
REMARK    1  A    between atoms: C_1  and  O_2
REMARK    2  A    between atoms: O_2  and  C_3
REMARK    3  A    between atoms: C_8  and  O_9
REMARK    4  A    between atoms: O_9  and  C_10
REMARK    5  A    between atoms: C_10  and  C_11
REMARK    6  A    between atoms: N_13  and  C_14
REMARK    7  A    between atoms: C_18  and  N_19
REMARK    8  A    between atoms: C_20  and  C_22
REMARK    9  A    between atoms: C_28  and  C_29
REMARK                            x       y       z     vdW  Elec       q    Type
REMARK                         _______ _______ _______ _____ _____    ______ ____
ROOT
ATOM      1  C   UNL     1       4.102  -5.946  -0.474  0.00  0.00    +0.000 A 
ATOM      2  C   UNL     1       5.493  -6.048  -0.519  0.00  0.00    +0.000 A 
ATOM      3  C   UNL     1       6.078  -7.304  -0.549  0.00  0.00    +0.000 A 
ATOM      4  C   UNL     1       5.274  -8.443  -0.495  0.00  0.00    +0.000 A 
ATOM      5  C   UNL     1       3.881  -8.356  -0.370  0.00  0.00    +0.000 A 
ATOM      6  C   UNL     1       3.292  -7.088  -0.392  0.00  0.00    +0.000 A 
ENDROOT
BRANCH   1   9
ATOM      7  C   UNL     1       3.291  -4.009  -1.746  0.00  0.00    +0.000 C 
ATOM      8  O   UNL     1       2.838  -2.863  -1.712  0.00  0.00    +0.000 OA
ATOM      9  N   UNL     1       3.512  -4.684  -0.568  0.00  0.00    +0.000 N 
ATOM     10  H   UNL     1       3.268  -4.188   0.281  0.00  0.00    +0.000 HD
BRANCH   7  11
ATOM     11  C   UNL     1       3.588  -4.731  -3.061  0.00  0.00    +0.000 C 
BRANCH  11  12
ATOM     12  O   UNL     1       2.452  -5.514  -3.397  0.00  0.00    +0.000 OA
BRANCH  12  18
ATOM     13  C   UNL     1       3.573  -6.504  -5.405  0.00  0.00    +0.000 A 
ATOM     14  C   UNL     1       3.397  -7.365  -6.499  0.00  0.00    +0.000 A 
ATOM     15  C   UNL     1       2.177  -8.004  -6.726  0.00  0.00    +0.000 A 
ATOM     16  C   UNL     1       1.116  -7.800  -5.854  0.00  0.00    +0.000 A 
ATOM     17  C   UNL     1       1.281  -6.955  -4.758  0.00  0.00    +0.000 A 
ATOM     18  C   UNL     1       2.500  -6.300  -4.519  0.00  0.00    +0.000 A 
BRANCH  13  20
ATOM     19  C   UNL     1       5.649  -5.692  -6.243  0.00  0.00    +0.000 C 
ATOM     20  O   UNL     1       4.776  -5.904  -5.141  0.00  0.00    +0.000 OA
ENDBRANCH  13  20
ENDBRANCH  12  18
ENDBRANCH  11  12
ENDBRANCH   7  11
ENDBRANCH   1   9
BRANCH   5  21
ATOM     21  N   UNL     1       3.055  -9.502  -0.214  0.00  0.00    +0.000 N 
ATOM     22  C   UNL     1       3.518 -10.748   0.196  0.00  0.00    +0.000 C 
ATOM     23  O   UNL     1       4.698 -10.980   0.455  0.00  0.00    +0.000 OA
ATOM     24  H   UNL     1       2.054  -9.351  -0.233  0.00  0.00    +0.000 HD
BRANCH  22  25
ATOM     25  C   UNL     1       2.526 -11.776   0.369  0.00  0.00    +0.000 A 
ATOM     26  C   UNL     1       1.310 -11.998  -0.252  0.00  0.00    +0.000 A 
ATOM     27  N   UNL     1       0.727 -13.167   0.170  0.00  0.00    +0.000 NA
ATOM     28  C   UNL     1       1.569 -13.683   1.040  0.00  0.00    +0.000 A 
ATOM     29  C   UNL     1       1.519 -14.892   1.792  0.00  0.00    +0.000 A 
ATOM     30  C   UNL     1       2.510 -15.194   2.656  0.00  0.00    +0.000 A 
ATOM     31  C   UNL     1       3.651 -14.306   2.851  0.00  0.00    +0.000 A 
ATOM     32  C   UNL     1       4.723 -14.672   3.829  0.00  0.00    +0.000 C 
ATOM     33  C   UNL     1       3.700 -13.172   2.128  0.00  0.00    +0.000 A 
ATOM     34  N   UNL     1       2.680 -12.865   1.220  0.00  0.00    +0.000 N 
ENDBRANCH  22  25
ENDBRANCH   5  21
TORSDOF 7
