REMARK  Name = 
REMARK  4 active torsions:
REMARK  status: ('A' for Active; 'I' for Inactive)
REMARK    1  A    between atoms: C_2  and  C_19
REMARK    2  A    between atoms: N_3  and  C_4
REMARK    3  A    between atoms: C_8  and  N_9
REMARK    4  A    between atoms: C_10  and  C_12
REMARK                            x       y       z     vdW  Elec       q    Type
REMARK                         _______ _______ _______ _____ _____    ______ ____
ROOT
ATOM      1  C   UNL     1       2.623  -2.016   1.368  0.00  0.00    +0.000 A 
ATOM      2  C   UNL     1       1.431  -2.451   0.790  0.00  0.00    +0.000 A 
ATOM      3  C   UNL     1       0.644  -3.405   1.429  0.00  0.00    +0.000 A 
ATOM      4  C   UNL     1       1.057  -3.960   2.637  0.00  0.00    +0.000 A 
ATOM      5  C   UNL     1       2.266  -3.583   3.228  0.00  0.00    +0.000 A 
ATOM      6  C   UNL     1       3.021  -2.567   2.608  0.00  0.00    +0.000 A 
ENDROOT
BRANCH   1   9
ATOM      7  O   UNL     1       2.397  -0.654  -1.310  0.00  0.00    +0.000 OA
ATOM      8  C   UNL     1       3.323  -0.497  -0.523  0.00  0.00    +0.000 C 
ATOM      9  N   UNL     1       3.469  -1.072   0.737  0.00  0.00    +0.000 N 
ATOM     10  H   UNL     1       4.333  -0.818   1.208  0.00  0.00    +0.000 HD
BRANCH   8  11
ATOM     11  C   UNL     1       4.493   0.363  -0.928  0.00  0.00    +0.000 A 
ATOM     12  C   UNL     1       4.522   0.986  -2.177  0.00  0.00    +0.000 A 
ATOM     13  C   UNL     1       5.701   1.635  -2.579  0.00  0.00    +0.000 A 
ATOM     14  C   UNL     1       5.841   2.246  -3.843  0.00  0.00    +0.000 A 
ATOM     15  C   UNL     1       7.066   2.796  -4.237  0.00  0.00    +0.000 A 
ATOM     16  C   UNL     1       8.147   2.754  -3.368  0.00  0.00    +0.000 A 
ATOM     17  F   UNL     1       9.332   3.238  -3.761  0.00  0.00    +0.000 F 
ATOM     18  C   UNL     1       8.026   2.204  -2.099  0.00  0.00    +0.000 A 
ATOM     19  C   UNL     1       6.803   1.641  -1.696  0.00  0.00    +0.000 A 
ATOM     20  C   UNL     1       6.638   1.046  -0.443  0.00  0.00    +0.000 A 
ATOM     21  N   UNL     1       5.519   0.406  -0.035  0.00  0.00    +0.000 NA
ENDBRANCH   8  11
ENDBRANCH   1   9
BRANCH   5  22
ATOM     22  N   UNL     1       2.758  -4.213   4.408  0.00  0.00    +0.000 N 
ATOM     23  C   UNL     1       2.317  -5.445   4.888  0.00  0.00    +0.000 C 
ATOM     24  O   UNL     1       1.462  -6.142   4.355  0.00  0.00    +0.000 OA
ATOM     25  H   UNL     1       3.570  -3.801   4.853  0.00  0.00    +0.000 HD
BRANCH  23  26
ATOM     26  C   UNL     1       2.953  -5.950   6.092  0.00  0.00    +0.000 A 
ATOM     27  C   UNL     1       3.924  -5.421   6.904  0.00  0.00    +0.000 A 
ATOM     28  F   UNL     1       4.531  -4.275   6.751  0.00  0.00    +0.000 F 
ATOM     29  N   UNL     1       4.144  -6.312   7.914  0.00  0.00    +0.000 N 
ATOM     30  N   UNL     1       3.385  -7.418   7.816  0.00  0.00    +0.000 NA
ATOM     31  C   UNL     1       2.665  -7.197   6.715  0.00  0.00    +0.000 A 
ATOM     32  H   UNL     1       4.789  -6.234   8.691  0.00  0.00    +0.000 HD
ENDBRANCH  23  26
ENDBRANCH   5  22
TORSDOF 4
