REMARK  Name = 
REMARK  7 active torsions:
REMARK  status: ('A' for Active; 'I' for Inactive)
REMARK    1  A    between atoms: C_1  and  O_2
REMARK    2  A    between atoms: O_2  and  C_3
REMARK    3  A    between atoms: C_10  and  C_11
REMARK    4  A    between atoms: N_13  and  C_14
REMARK    5  A    between atoms: C_14  and  C_15
REMARK    6  A    between atoms: C_20  and  C_21
REMARK    7  A    between atoms: C_27  and  C_28
REMARK                            x       y       z     vdW  Elec       q    Type
REMARK                         _______ _______ _______ _____ _____    ______ ____
ROOT
ATOM      1  C   UNL     1       5.774  -2.093   3.146  0.00  0.00    +0.000 C 
ATOM      2  O   UNL     1       5.003  -1.353   3.756  0.00  0.00    +0.000 OA
ATOM      3  N   UNL     1       6.664  -2.916   3.776  0.00  0.00    +0.000 N 
ATOM      4  H   UNL     1       7.262  -3.561   3.275  0.00  0.00    +0.000 HD
ENDROOT
BRANCH   1  12
ATOM      5  C   UNL     1       2.737  -1.909  -0.680  0.00  0.00    +0.000 A 
ATOM      6  C   UNL     1       2.441  -2.156  -2.030  0.00  0.00    +0.000 A 
ATOM      7  C   UNL     1       3.431  -2.597  -2.910  0.00  0.00    +0.000 A 
ATOM      8  C   UNL     1       4.731  -2.772  -2.456  0.00  0.00    +0.000 A 
ATOM      9  C   UNL     1       5.031  -2.533  -1.111  0.00  0.00    +0.000 A 
ATOM     10  C   UNL     1       4.044  -2.128  -0.204  0.00  0.00    +0.000 A 
ATOM     11  N   UNL     1       4.379  -2.020   1.152  0.00  0.00    +0.000 N 
ATOM     12  C   UNL     1       5.663  -2.225   1.638  0.00  0.00    +0.000 A 
ATOM     13  C   UNL     1       6.714  -2.486   0.830  0.00  0.00    +0.000 A 
ATOM     14  C   UNL     1       8.179  -2.571   1.149  0.00  0.00    +0.000 C 
ATOM     15  C   UNL     1       6.412  -2.696  -0.625  0.00  0.00    +0.000 A 
ATOM     16  O   UNL     1       7.307  -3.005  -1.406  0.00  0.00    +0.000 OA
ATOM     17  H   UNL     1       3.687  -1.651   1.800  0.00  0.00    +0.000 HD
BRANCH   5  19
ATOM     18  C   UNL     1       0.546  -1.074  -0.268  0.00  0.00    +0.000 C 
ATOM     19  O   UNL     1       1.821  -1.458   0.241  0.00  0.00    +0.000 OA
ENDBRANCH   5  19
ENDBRANCH   1  12
BRANCH   3  20
ATOM     20  C   UNL     1       6.861  -2.895   5.215  0.00  0.00    +0.000 C 
BRANCH  20  21
ATOM     21  C   UNL     1       8.078  -3.699   5.645  0.00  0.00    +0.000 A 
ATOM     22  N   UNL     1       8.852  -4.138   4.595  0.00  0.00    +0.000 NA
ATOM     23  C   UNL     1       9.991  -4.803   4.869  0.00  0.00    +0.000 A 
ATOM     24  C   UNL     1      10.430  -5.049   6.148  0.00  0.00    +0.000 A 
ATOM     25  C   UNL     1       9.636  -4.612   7.206  0.00  0.00    +0.000 A 
ATOM     26  C   UNL     1       8.409  -3.939   6.999  0.00  0.00    +0.000 A 
BRANCH  26  27
ATOM     27  C   UNL     1       7.584  -3.575   8.191  0.00  0.00    +0.000 A 
ATOM     28  C   UNL     1       6.860  -2.376   8.297  0.00  0.00    +0.000 A 
ATOM     29  C   UNL     1       6.104  -2.062   9.434  0.00  0.00    +0.000 A 
ATOM     30  C   UNL     1       6.090  -2.919  10.527  0.00  0.00    +0.000 A 
ATOM     31  C   UNL     1       6.809  -4.105  10.470  0.00  0.00    +0.000 A 
ATOM     32  C   UNL     1       7.527  -4.434   9.313  0.00  0.00    +0.000 A 
ENDBRANCH  26  27
ENDBRANCH  20  21
ENDBRANCH   3  20
TORSDOF 5
