REMARK  Name = 
REMARK  7 active torsions:
REMARK  status: ('A' for Active; 'I' for Inactive)
REMARK    1  A    between atoms: C_1  and  C_2
REMARK    2  A    between atoms: C_2  and  O_3
REMARK    3  A    between atoms: C_2  and  C_25
REMARK    4  A    between atoms: O_3  and  C_4
REMARK    5  A    between atoms: C_7  and  C_8
REMARK    6  A    between atoms: N_10  and  C_11
REMARK    7  A    between atoms: C_11  and  C_12
REMARK                            x       y       z     vdW  Elec       q    Type
REMARK                         _______ _______ _______ _____ _____    ______ ____
ROOT
ATOM      1  C   UNL     1       1.414  -0.103   6.599  0.00  0.00    +0.000 C 
ATOM      2  O   UNL     1       0.281  -0.380   6.975  0.00  0.00    +0.000 OA
ATOM      3  N   UNL     1       2.379   0.423   7.428  0.00  0.00    +0.000 N 
ATOM      4  H   UNL     1       3.294   0.662   7.075  0.00  0.00    +0.000 HD
ENDROOT
BRANCH   1   8
ATOM      5  C   UNL     1       2.502  -0.636   2.469  0.00  0.00    +0.000 A 
ATOM      6  C   UNL     1       1.172  -0.415   2.839  0.00  0.00    +0.000 A 
ATOM      7  C   UNL     1       0.823  -0.251   4.186  0.00  0.00    +0.000 A 
ATOM      8  C   UNL     1       1.808  -0.307   5.174  0.00  0.00    +0.000 A 
ATOM      9  C   UNL     1       3.131  -0.584   4.808  0.00  0.00    +0.000 A 
ATOM     10  C   UNL     1       3.475  -0.747   3.460  0.00  0.00    +0.000 A 
BRANCH   5  11
ATOM     11  O   UNL     1       2.720  -0.754   1.125  0.00  0.00    +0.000 OA
BRANCH  11  13
ATOM     12  C   UNL     1       4.325   1.048   0.725  0.00  0.00    +0.000 C 
ATOM     13  C   UNL     1       4.026  -0.450   0.608  0.00  0.00    +0.000 C 
BRANCH  13  14
ATOM     14  C   UNL     1       4.080  -0.836  -0.865  0.00  0.00    +0.000 A 
ATOM     15  C   UNL     1       5.295  -1.262  -1.430  0.00  0.00    +0.000 A 
ATOM     16  C   UNL     1       5.387  -1.540  -2.795  0.00  0.00    +0.000 A 
ATOM     17  C   UNL     1       4.268  -1.397  -3.612  0.00  0.00    +0.000 A 
ATOM     18  C   UNL     1       3.056  -0.982  -3.066  0.00  0.00    +0.000 A 
ATOM     19  C   UNL     1       2.962  -0.700  -1.702  0.00  0.00    +0.000 A 
ENDBRANCH  13  14
ENDBRANCH  11  13
ENDBRANCH   5  11
ENDBRANCH   1   8
BRANCH   3  20
ATOM     20  C   UNL     1       2.168   0.580   8.853  0.00  0.00    +0.000 C 
BRANCH  20  21
ATOM     21  C   UNL     1       2.548  -0.669   9.616  0.00  0.00    +0.000 A 
ATOM     22  C   UNL     1       1.583  -1.643   9.877  0.00  0.00    +0.000 A 
ATOM     23  C   UNL     1       1.954  -2.810  10.542  0.00  0.00    +0.000 A 
ATOM     24  C   UNL     1       3.283  -2.983  10.915  0.00  0.00    +0.000 A 
ATOM     25  C   UNL     1       3.755  -4.195  11.582  0.00  0.00    +0.000 A 
ATOM     26  C   UNL     1       5.054  -4.318  11.885  0.00  0.00    +0.000 A 
ATOM     27  C   UNL     1       6.023  -3.236  11.572  0.00  0.00    +0.000 A 
ATOM     28  O   UNL     1       7.209  -3.363  11.852  0.00  0.00    +0.000 OA
ATOM     29  N   UNL     1       5.522  -2.122  10.964  0.00  0.00    +0.000 N 
ATOM     30  C   UNL     1       4.184  -1.961  10.612  0.00  0.00    +0.000 A 
ATOM     31  N   UNL     1       3.852  -0.817   9.977  0.00  0.00    +0.000 NA
ATOM     32  H   UNL     1       6.155  -1.370  10.741  0.00  0.00    +0.000 HD
ENDBRANCH  20  21
ENDBRANCH   3  20
TORSDOF 6
