REMARK  Name = 
REMARK  3 active torsions:
REMARK  status: ('A' for Active; 'I' for Inactive)
REMARK    1  A    between atoms: C_2  and  C_19
REMARK    2  A    between atoms: N_6  and  C_7
REMARK    3  A    between atoms: C_12  and  C_13
REMARK                            x       y       z     vdW  Elec       q    Type
REMARK                         _______ _______ _______ _____ _____    ______ ____
ROOT
ATOM      1  O   UNL     1       1.203  -0.236  -0.808  0.00  0.00    +0.000 OA
ATOM      2  C   UNL     1       2.349  -0.069  -0.387  0.00  0.00    +0.000 C 
ATOM      3  N   UNL     1       2.891  -0.645   0.740  0.00  0.00    +0.000 N 
ATOM      4  C   UNL     1       2.255  -1.661   1.451  0.00  0.00    +0.000 A 
ATOM      5  N   UNL     1       1.221  -2.380   1.010  0.00  0.00    +0.000 NA
ATOM      6  N   UNL     1       0.927  -3.247   1.996  0.00  0.00    +0.000 N 
ATOM      7  C   UNL     1       1.728  -3.042   3.096  0.00  0.00    +0.000 A 
ATOM      8  C   UNL     1       2.646  -2.091   2.739  0.00  0.00    +0.000 A 
ATOM      9  H   UNL     1       3.785  -0.353   1.095  0.00  0.00    +0.000 HD
ENDROOT
BRANCH   2  10
ATOM     10  C   UNL     1       3.217   0.845  -1.188  0.00  0.00    +0.000 A 
ATOM     11  C   UNL     1       2.920   0.929  -2.564  0.00  0.00    +0.000 A 
ATOM     12  C   UNL     1       3.728   1.655  -3.437  0.00  0.00    +0.000 A 
ATOM     13  C   UNL     1       4.802   2.359  -2.912  0.00  0.00    +0.000 A 
ATOM     14  C   UNL     1       5.742   3.051  -3.788  0.00  0.00    +0.000 A 
ATOM     15  N   UNL     1       6.582   3.943  -3.370  0.00  0.00    +0.000 NA
ATOM     16  N   UNL     1       6.598   4.195  -2.026  0.00  0.00    +0.000 N 
ATOM     17  C   UNL     1       5.980   3.429  -1.059  0.00  0.00    +0.000 A 
ATOM     18  O   UNL     1       6.163   3.592   0.143  0.00  0.00    +0.000 OA
ATOM     19  C   UNL     1       5.014   2.423  -1.541  0.00  0.00    +0.000 A 
ATOM     20  C   UNL     1       4.255   1.627  -0.664  0.00  0.00    +0.000 A 
ATOM     21  H   UNL     1       7.215   4.941  -1.721  0.00  0.00    +0.000 HD
ENDBRANCH   2  10
BRANCH   6  22
ATOM     22  C   UNL     1      -0.146  -4.172   1.867  0.00  0.00    +0.000 A 
ATOM     23  C   UNL     1      -0.942  -4.441   2.998  0.00  0.00    +0.000 A 
ATOM     24  C   UNL     1      -2.068  -5.265   2.898  0.00  0.00    +0.000 A 
ATOM     25  C   UNL     1      -2.411  -5.834   1.677  0.00  0.00    +0.000 A 
ATOM     26  C   UNL     1      -1.605  -5.602   0.562  0.00  0.00    +0.000 A 
ATOM     27  C   UNL     1      -0.446  -4.794   0.637  0.00  0.00    +0.000 A 
BRANCH  27  28
ATOM     28  C   UNL     1       0.440  -4.771  -0.594  0.00  0.00    +0.000 C 
ATOM     29  F   UNL     1       1.743  -4.433  -0.401  0.00  0.00    +0.000 F 
ATOM     30  F   UNL     1       0.520  -6.030  -1.139  0.00  0.00    +0.000 F 
ATOM     31  F   UNL     1      -0.045  -3.992  -1.597  0.00  0.00    +0.000 F 
ENDBRANCH  27  28
ENDBRANCH   6  22
TORSDOF 3
