REMARK  Name = 
REMARK  4 active torsions:
REMARK  status: ('A' for Active; 'I' for Inactive)
REMARK    1  A    between atoms: C_2  and  C_16
REMARK    2  A    between atoms: N_3  and  C_4
REMARK    3  A    between atoms: C_9  and  C_10
REMARK    4  A    between atoms: N_18  and  C_19
REMARK                            x       y       z     vdW  Elec       q    Type
REMARK                         _______ _______ _______ _____ _____    ______ ____
ROOT
ATOM      1  O   UNL     1       0.999   0.303  -0.002  0.00  0.00    +0.000 OA
ATOM      2  C   UNL     1       2.202   0.069   0.025  0.00  0.00    +0.000 C 
ATOM      3  N   UNL     1       2.858  -0.991  -0.590  0.00  0.00    +0.000 N 
ATOM      4  H   UNL     1       3.795  -1.199  -0.254  0.00  0.00    +0.000 HD
ENDROOT
BRANCH   3   5
ATOM      5  C   UNL     1       2.200  -1.938  -1.413  0.00  0.00    +0.000 A 
ATOM      6  C   UNL     1       0.982  -1.644  -2.038  0.00  0.00    +0.000 A 
ATOM      7  C   UNL     1       0.288  -2.615  -2.751  0.00  0.00    +0.000 A 
ATOM      8  C   UNL     1       0.815  -3.893  -2.865  0.00  0.00    +0.000 A 
ATOM      9  F   UNL     1       0.072  -4.815  -3.494  0.00  0.00    +0.000 F 
ATOM     10  C   UNL     1       2.054  -4.208  -2.295  0.00  0.00    +0.000 A 
ATOM     11  C   UNL     1       2.755  -3.214  -1.583  0.00  0.00    +0.000 A 
BRANCH  10  12
ATOM     12  C   UNL     1       2.563  -5.570  -2.401  0.00  0.00    +0.000 A 
ATOM     13  N   UNL     1       3.381  -6.138  -1.496  0.00  0.00    +0.000 NA
ATOM     14  N   UNL     1       3.471  -7.396  -1.958  0.00  0.00    +0.000 N 
ATOM     15  C   UNL     1       2.783  -7.550  -3.115  0.00  0.00    +0.000 A 
ATOM     16  N   UNL     1       2.210  -6.416  -3.429  0.00  0.00    +0.000 NA
ATOM     17  H   UNL     1       4.002  -8.083  -1.436  0.00  0.00    +0.000 HD
ENDBRANCH  10  12
ENDBRANCH   3   5
BRANCH   2  18
ATOM     18  C   UNL     1       3.044   0.963   0.902  0.00  0.00    +0.000 A 
ATOM     19  N   UNL     1       4.057   0.421   1.528  0.00  0.00    +0.000 NA
ATOM     20  N   UNL     1       4.739   1.217   2.430  0.00  0.00    +0.000 N 
ATOM     21  C   UNL     1       4.264   2.460   2.812  0.00  0.00    +0.000 A 
ATOM     22  C   UNL     1       3.261   3.115   2.232  0.00  0.00    +0.000 A 
ATOM     23  C   UNL     1       2.658   2.419   1.097  0.00  0.00    +0.000 A 
ATOM     24  O   UNL     1       1.895   2.996   0.340  0.00  0.00    +0.000 OA
BRANCH  20  25
ATOM     25  C   UNL     1       5.899   0.625   3.027  0.00  0.00    +0.000 A 
ATOM     26  C   UNL     1       6.035  -0.774   3.107  0.00  0.00    +0.000 A 
ATOM     27  C   UNL     1       7.154  -1.363   3.709  0.00  0.00    +0.000 A 
ATOM     28  C   UNL     1       8.169  -0.568   4.237  0.00  0.00    +0.000 A 
ATOM     29  C   UNL     1       8.068   0.816   4.157  0.00  0.00    +0.000 A 
ATOM     30  C   UNL     1       6.952   1.397   3.558  0.00  0.00    +0.000 A 
ATOM     31  F   UNL     1       6.936   2.737   3.475  0.00  0.00    +0.000 F 
ENDBRANCH  20  25
ENDBRANCH   2  18
TORSDOF 4
