REMARK  Name = 
REMARK  7 active torsions:
REMARK  status: ('A' for Active; 'I' for Inactive)
REMARK    1  A    between atoms: C_1  and  O_2
REMARK    2  A    between atoms: O_2  and  C_3
REMARK    3  A    between atoms: C_7  and  O_8
REMARK    4  A    between atoms: C_9  and  C_10
REMARK    5  A    between atoms: N_12  and  C_13
REMARK    6  A    between atoms: C_13  and  C_14
REMARK    7  A    between atoms: C_18  and  C_19
REMARK                            x       y       z     vdW  Elec       q    Type
REMARK                         _______ _______ _______ _____ _____    ______ ____
ROOT
ATOM      1  C   UNL     1       7.485  -3.871   4.588  0.00  0.00    +0.000 C 
ATOM      2  O   UNL     1       7.204  -5.062   4.661  0.00  0.00    +0.000 OA
ATOM      3  N   UNL     1       8.480  -3.281   5.332  0.00  0.00    +0.000 N 
ATOM      4  H   UNL     1       8.749  -2.334   5.087  0.00  0.00    +0.000 HD
ENDROOT
BRANCH   1  10
ATOM      5  C   UNL     1       4.636   0.346   0.471  0.00  0.00    +0.000 A 
ATOM      6  C   UNL     1       5.936   0.796   0.654  0.00  0.00    +0.000 A 
ATOM      7  C   UNL     1       6.796   0.109   1.514  0.00  0.00    +0.000 A 
ATOM      8  C   UNL     1       6.381  -1.058   2.201  0.00  0.00    +0.000 A 
ATOM      9  C   UNL     1       7.190  -1.805   3.099  0.00  0.00    +0.000 A 
ATOM     10  C   UNL     1       6.713  -2.986   3.676  0.00  0.00    +0.000 A 
ATOM     11  C   UNL     1       5.422  -3.366   3.352  0.00  0.00    +0.000 A 
ATOM     12  N   UNL     1       4.598  -2.655   2.544  0.00  0.00    +0.000 NA
ATOM     13  C   UNL     1       5.066  -1.529   1.978  0.00  0.00    +0.000 A 
ATOM     14  C   UNL     1       4.223  -0.812   1.134  0.00  0.00    +0.000 A 
BRANCH   9  15
ATOM     15  O   UNL     1       8.466  -1.404   3.421  0.00  0.00    +0.000 OA
ATOM     16  H   UNL     1       8.658  -0.535   3.038  0.00  0.00    +0.000 HD
ENDBRANCH   9  15
BRANCH   5  18
ATOM     17  C   UNL     1       4.076   2.130  -1.000  0.00  0.00    +0.000 C 
ATOM     18  O   UNL     1       3.692   0.941  -0.318  0.00  0.00    +0.000 OA
ENDBRANCH   5  18
ENDBRANCH   1  10
BRANCH   3  19
ATOM     19  C   UNL     1       9.391  -4.051   6.148  0.00  0.00    +0.000 C 
BRANCH  19  20
ATOM     20  C   UNL     1       9.881  -3.243   7.322  0.00  0.00    +0.000 A 
ATOM     21  C   UNL     1       9.161  -3.242   8.522  0.00  0.00    +0.000 A 
ATOM     22  C   UNL     1       9.591  -2.473   9.600  0.00  0.00    +0.000 A 
ATOM     23  C   UNL     1      10.740  -1.687   9.485  0.00  0.00    +0.000 A 
ATOM     24  C   UNL     1      11.493  -1.653   8.296  0.00  0.00    +0.000 A 
ATOM     25  C   UNL     1      11.037  -2.446   7.223  0.00  0.00    +0.000 A 
BRANCH  24  26
ATOM     26  C   UNL     1      12.690  -0.792   8.156  0.00  0.00    +0.000 A 
ATOM     27  C   UNL     1      13.490  -0.418   9.239  0.00  0.00    +0.000 A 
ATOM     28  C   UNL     1      14.558   0.455   9.037  0.00  0.00    +0.000 A 
ATOM     29  C   UNL     1      14.818   0.925   7.759  0.00  0.00    +0.000 A 
ATOM     30  C   UNL     1      14.003   0.490   6.730  0.00  0.00    +0.000 A 
ATOM     31  N   UNL     1      12.957  -0.349   6.899  0.00  0.00    +0.000 NA
ENDBRANCH  24  26
ENDBRANCH  19  20
ENDBRANCH   3  19
TORSDOF 6
