REMARK  Name = 
REMARK  6 active torsions:
REMARK  status: ('A' for Active; 'I' for Inactive)
REMARK    1  A    between atoms: C_2  and  C_3
REMARK    2  A    between atoms: C_6  and  C_7
REMARK    3  A    between atoms: C_9  and  C_10
REMARK    4  A    between atoms: N_12  and  C_13
REMARK    5  A    between atoms: C_20  and  C_21
REMARK    6  A    between atoms: C_21  and  O_23
REMARK                            x       y       z     vdW  Elec       q    Type
REMARK                         _______ _______ _______ _____ _____    ______ ____
ROOT
ATOM      1  C   UNL     1       7.900   0.076  -0.022  0.00  0.00    +0.000 A 
ATOM      2  C   UNL     1       8.678  -0.339  -1.122  0.00  0.00    +0.000 A 
ATOM      3  C   UNL     1      10.082  -0.344  -1.078  0.00  0.00    +0.000 A 
ATOM      4  C   UNL     1      10.719   0.051   0.104  0.00  0.00    +0.000 A 
ATOM      5  C   UNL     1       9.978   0.495   1.193  0.00  0.00    +0.000 A 
ATOM      6  C   UNL     1       8.586   0.506   1.129  0.00  0.00    +0.000 A 
ENDROOT
BRANCH   1  10
ATOM      7  C   UNL     1       3.655  -0.071  -0.152  0.00  0.00    +0.000 A 
ATOM      8  N   UNL     1       4.357  -0.992  -0.860  0.00  0.00    +0.000 NA
ATOM      9  C   UNL     1       5.710  -0.905  -0.793  0.00  0.00    +0.000 A 
ATOM     10  C   UNL     1       6.423   0.057  -0.065  0.00  0.00    +0.000 A 
ATOM     11  C   UNL     1       5.644   0.987   0.640  0.00  0.00    +0.000 A 
ATOM     12  C   UNL     1       4.256   0.918   0.603  0.00  0.00    +0.000 A 
ATOM     13  F   UNL     1       3.536   1.807   1.301  0.00  0.00    +0.000 F 
BRANCH   7  15
ATOM     14  N   UNL     1       1.068  -0.250  -0.258  0.00  0.00    +0.000 NA
ATOM     15  C   UNL     1       2.230  -0.175  -0.216  0.00  0.00    +0.000 C 
ENDBRANCH   7  15
ENDBRANCH   1  10
BRANCH   3  16
ATOM     16  C   UNL     1      10.859  -0.774  -2.247  0.00  0.00    +0.000 A 
ATOM     17  N   UNL     1      10.395  -1.748  -3.050  0.00  0.00    +0.000 NA
ATOM     18  N   UNL     1      11.367  -1.970  -3.962  0.00  0.00    +0.000 N 
ATOM     19  C   UNL     1      12.434  -1.124  -3.769  0.00  0.00    +0.000 A 
ATOM     20  C   UNL     1      12.132  -0.311  -2.694  0.00  0.00    +0.000 A 
BRANCH  18  21
ATOM     21  C   UNL     1      11.238  -2.984  -4.950  0.00  0.00    +0.000 A 
ATOM     22  C   UNL     1      10.039  -3.693  -5.069  0.00  0.00    +0.000 A 
ATOM     23  C   UNL     1       9.964  -4.691  -6.028  0.00  0.00    +0.000 A 
ATOM     24  N   UNL     1      10.984  -5.027  -6.845  0.00  0.00    +0.000 NA
ATOM     25  C   UNL     1      12.128  -4.327  -6.712  0.00  0.00    +0.000 A 
ATOM     26  C   UNL     1      12.303  -3.301  -5.799  0.00  0.00    +0.000 A 
ENDBRANCH  18  21
BRANCH  20  27
ATOM     27  C   UNL     1      12.937   0.788  -2.190  0.00  0.00    +0.000 C 
ATOM     28  O   UNL     1      12.480   1.772  -1.630  0.00  0.00    +0.000 OA
BRANCH  27  29
ATOM     29  O   UNL     1      14.274   0.644  -2.378  0.00  0.00    +0.000 OA
ATOM     30  H   UNL     1      14.520  -0.223  -2.746  0.00  0.00    +0.000 HD
ENDBRANCH  27  29
ENDBRANCH  20  27
ENDBRANCH   3  16
TORSDOF 6
