REMARK  Name = 
REMARK  6 active torsions:
REMARK  status: ('A' for Active; 'I' for Inactive)
REMARK    1  A    between atoms: C_2  and  O_3
REMARK    2  A    between atoms: C_2  and  C_17
REMARK    3  A    between atoms: O_3  and  C_4
REMARK    4  A    between atoms: C_4  and  C_5
REMARK    5  A    between atoms: C_8  and  N_9
REMARK    6  A    between atoms: N_19  and  C_20
REMARK                            x       y       z     vdW  Elec       q    Type
REMARK                         _______ _______ _______ _____ _____    ______ ____
ROOT
ATOM      1  O   UNL     1       2.923  -1.113  -0.584  0.00  0.00    +0.000 OA
ATOM      2  C   UNL     1       2.465  -0.085  -0.089  0.00  0.00    +0.000 C 
ENDROOT
BRANCH   2   3
ATOM      3  C   UNL     1       1.198  -0.068   0.659  0.00  0.00    +0.000 A 
ATOM      4  N   UNL     1       0.727   1.017   1.302  0.00  0.00    +0.000 NA
ATOM      5  N   UNL     1      -0.391   0.603   1.951  0.00  0.00    +0.000 N 
ATOM      6  C   UNL     1      -0.668  -0.716   1.676  0.00  0.00    +0.000 A 
ATOM      7  C   UNL     1       0.335  -1.176   0.859  0.00  0.00    +0.000 A 
BRANCH   5   8
ATOM      8  C   UNL     1      -1.110   1.483   2.808  0.00  0.00    +0.000 A 
ATOM      9  C   UNL     1      -2.201   1.028   3.558  0.00  0.00    +0.000 A 
ATOM     10  C   UNL     1      -2.879   1.912   4.393  0.00  0.00    +0.000 A 
ATOM     11  F   UNL     1      -3.918   1.466   5.115  0.00  0.00    +0.000 F 
ATOM     12  C   UNL     1      -2.500   3.247   4.495  0.00  0.00    +0.000 A 
ATOM     13  C   UNL     1      -1.415   3.706   3.750  0.00  0.00    +0.000 A 
ATOM     14  C   UNL     1      -0.719   2.829   2.912  0.00  0.00    +0.000 A 
ENDBRANCH   5   8
ENDBRANCH   2   3
BRANCH   2  15
ATOM     15  O   UNL     1       3.097   1.122  -0.103  0.00  0.00    +0.000 OA
BRANCH  15  16
ATOM     16  C   UNL     1       4.478   1.091  -0.464  0.00  0.00    +0.000 C 
BRANCH  16  17
ATOM     17  C   UNL     1       4.713   1.718  -1.813  0.00  0.00    +0.000 A 
ATOM     18  C   UNL     1       4.801   0.931  -2.970  0.00  0.00    +0.000 A 
ATOM     19  C   UNL     1       5.076   1.517  -4.212  0.00  0.00    +0.000 A 
ATOM     20  C   UNL     1       5.297   2.899  -4.304  0.00  0.00    +0.000 A 
ATOM     21  C   UNL     1       5.177   3.683  -3.157  0.00  0.00    +0.000 A 
ATOM     22  F   UNL     1       5.300   5.018  -3.200  0.00  0.00    +0.000 F 
ATOM     23  C   UNL     1       4.870   3.104  -1.927  0.00  0.00    +0.000 A 
BRANCH  20  24
ATOM     24  N   UNL     1       5.639   3.479  -5.548  0.00  0.00    +0.000 N 
ATOM     25  C   UNL     1       6.301   4.668  -5.778  0.00  0.00    +0.000 A 
ATOM     26  C   UNL     1       6.351   4.851  -7.138  0.00  0.00    +0.000 A 
ATOM     27  C   UNL     1       5.719   3.717  -7.665  0.00  0.00    +0.000 A 
ATOM     28  N   UNL     1       5.348   2.851  -6.720  0.00  0.00    +0.000 NA
ENDBRANCH  20  24
ENDBRANCH  16  17
ENDBRANCH  15  16
ENDBRANCH   2  15
TORSDOF 6
