REMARK  Name = 
REMARK  7 active torsions:
REMARK  status: ('A' for Active; 'I' for Inactive)
REMARK    1  A    between atoms: C_2  and  C_18
REMARK    2  A    between atoms: N_3  and  C_4
REMARK    3  A    between atoms: C_4  and  C_5
REMARK    4  A    between atoms: C_4  and  C_12
REMARK    5  A    between atoms: C_5  and  C_6
REMARK    6  A    between atoms: C_22  and  O_23
REMARK    7  A    between atoms: O_23  and  C_24
REMARK                            x       y       z     vdW  Elec       q    Type
REMARK                         _______ _______ _______ _____ _____    ______ ____
ROOT
ATOM      1  O   UNL     1       1.226  -0.294  -0.021  0.00  0.00    +0.000 OA
ATOM      2  C   UNL     1       2.432  -0.077   0.038  0.00  0.00    +0.000 C 
ATOM      3  N   UNL     1       3.020   1.044  -0.489  0.00  0.00    +0.000 N 
ATOM      4  H   UNL     1       4.026   1.089  -0.620  0.00  0.00    +0.000 HD
ENDROOT
BRANCH   2   5
ATOM      5  C   UNL     1       3.331  -1.065   0.692  0.00  0.00    +0.000 A 
ATOM      6  C   UNL     1       2.894  -2.396   0.749  0.00  0.00    +0.000 A 
ATOM      7  C   UNL     1       3.687  -3.375   1.348  0.00  0.00    +0.000 A 
ATOM      8  C   UNL     1       4.921  -3.023   1.889  0.00  0.00    +0.000 A 
ATOM      9  C   UNL     1       5.375  -1.702   1.807  0.00  0.00    +0.000 A 
ATOM     10  C   UNL     1       4.566  -0.709   1.250  0.00  0.00    +0.000 A 
BRANCH   9  11
ATOM     11  O   UNL     1       6.605  -1.320   2.300  0.00  0.00    +0.000 OA
BRANCH  11  12
ATOM     12  C   UNL     1       7.691  -2.109   1.939  0.00  0.00    +0.000 A 
ATOM     13  C   UNL     1       8.808  -2.097   2.761  0.00  0.00    +0.000 A 
ATOM     14  N   UNL     1       9.896  -2.874   2.524  0.00  0.00    +0.000 NA
ATOM     15  C   UNL     1       9.815  -3.657   1.422  0.00  0.00    +0.000 A 
ATOM     16  C   UNL     1       8.712  -3.651   0.587  0.00  0.00    +0.000 A 
ATOM     17  N   UNL     1       7.635  -2.869   0.817  0.00  0.00    +0.000 NA
ENDBRANCH  11  12
ENDBRANCH   9  11
ENDBRANCH   2   5
BRANCH   3  18
ATOM     18  C   UNL     1       2.282   2.053  -1.255  0.00  0.00    +0.000 C 
BRANCH  18  19
ATOM     19  C   UNL     1       3.270   3.020  -1.920  0.00  0.00    +0.000 A 
ATOM     20  C   UNL     1       2.820   4.079  -2.709  0.00  0.00    +0.000 A 
ATOM     21  C   UNL     1       3.751   4.897  -3.349  0.00  0.00    +0.000 A 
ATOM     22  C   UNL     1       5.106   4.634  -3.197  0.00  0.00    +0.000 A 
ATOM     23  C   UNL     1       5.479   3.560  -2.411  0.00  0.00    +0.000 A 
ATOM     24  N   UNL     1       4.604   2.744  -1.781  0.00  0.00    +0.000 NA
ENDBRANCH  18  19
BRANCH  18  25
ATOM     25  C   UNL     1       1.150   2.735  -0.451  0.00  0.00    +0.000 C 
BRANCH  25  26
ATOM     26  C   UNL     1       1.619   3.470   0.778  0.00  0.00    +0.000 A 
ATOM     27  C   UNL     1       1.755   2.802   1.994  0.00  0.00    +0.000 A 
ATOM     28  C   UNL     1       2.252   3.495   3.092  0.00  0.00    +0.000 A 
ATOM     29  C   UNL     1       2.580   4.837   2.954  0.00  0.00    +0.000 A 
ATOM     30  C   UNL     1       2.380   5.436   1.721  0.00  0.00    +0.000 A 
ATOM     31  N   UNL     1       1.908   4.786   0.634  0.00  0.00    +0.000 NA
ENDBRANCH  25  26
ENDBRANCH  18  25
ENDBRANCH   3  18
TORSDOF 7
