REMARK  Name = 
REMARK  7 active torsions:
REMARK  status: ('A' for Active; 'I' for Inactive)
REMARK    1  A    between atoms: C_2  and  O_3
REMARK    2  A    between atoms: C_2  and  C_4
REMARK    3  A    between atoms: C_8  and  C_9
REMARK    4  A    between atoms: C_14  and  C_15
REMARK    5  A    between atoms: C_15  and  N_16
REMARK    6  A    between atoms: C_17  and  C_19
REMARK    7  A    between atoms: C_22  and  C_23
REMARK                            x       y       z     vdW  Elec       q    Type
REMARK                         _______ _______ _______ _____ _____    ______ ____
ROOT
ATOM      1  C   UNL     1       5.220  -3.160   3.178  0.00  0.00    +0.000 C 
ENDROOT
BRANCH   1   7
ATOM      2  C   UNL     1       6.224  -2.715   0.837  0.00  0.00    +0.000 A 
ATOM      3  C   UNL     1       7.408  -2.639   0.056  0.00  0.00    +0.000 A 
ATOM      4  C   UNL     1       8.686  -2.652   0.616  0.00  0.00    +0.000 A 
ATOM      5  C   UNL     1       8.829  -2.755   1.986  0.00  0.00    +0.000 A 
ATOM      6  C   UNL     1       7.699  -2.901   2.785  0.00  0.00    +0.000 A 
ATOM      7  C   UNL     1       6.391  -2.917   2.241  0.00  0.00    +0.000 A 
BRANCH   2  12
ATOM      8  C   UNL     1       3.643  -1.347  -1.648  0.00  0.00    +0.000 A 
ATOM      9  C   UNL     1       2.468  -1.973  -1.241  0.00  0.00    +0.000 A 
ATOM     10  C   UNL     1       2.507  -2.871  -0.183  0.00  0.00    +0.000 A 
ATOM     11  C   UNL     1       3.720  -3.156   0.460  0.00  0.00    +0.000 A 
ATOM     12  C   UNL     1       4.916  -2.498   0.130  0.00  0.00    +0.000 A 
ATOM     13  C   UNL     1       4.837  -1.575  -0.942  0.00  0.00    +0.000 A 
BRANCH   8  15
ATOM     14  O   UNL     1       2.604   0.256  -3.065  0.00  0.00    +0.000 OA
ATOM     15  C   UNL     1       3.582  -0.423  -2.807  0.00  0.00    +0.000 C 
BRANCH  15  16
ATOM     16  O   UNL     1       4.686  -0.459  -3.585  0.00  0.00    +0.000 OA
ATOM     17  H   UNL     1       5.310  -1.179  -3.382  0.00  0.00    +0.000 HD
ENDBRANCH  15  16
ENDBRANCH   8  15
ENDBRANCH   2  12
ENDBRANCH   1   7
BRANCH   1  18
ATOM     18  N   UNL     1       5.554  -3.346   4.575  0.00  0.00    +0.000 N 
ATOM     19  C   UNL     1       4.961  -2.603   5.564  0.00  0.00    +0.000 C 
ATOM     20  O   UNL     1       4.215  -1.657   5.347  0.00  0.00    +0.000 OA
ATOM     21  H   UNL     1       6.070  -4.170   4.873  0.00  0.00    +0.000 HD
BRANCH  19  22
ATOM     22  C   UNL     1       5.292  -3.039   6.924  0.00  0.00    +0.000 A 
ATOM     23  C   UNL     1       4.880  -2.400   8.072  0.00  0.00    +0.000 A 
ATOM     24  N   UNL     1       5.397  -3.124   9.101  0.00  0.00    +0.000 N 
ATOM     25  C   UNL     1       6.139  -4.161   8.579  0.00  0.00    +0.000 A 
ATOM     26  N   UNL     1       6.056  -4.156   7.256  0.00  0.00    +0.000 NA
ATOM     27  H   UNL     1       5.268  -2.934  10.084  0.00  0.00    +0.000 HD
BRANCH  25  28
ATOM     28  C   UNL     1       6.885  -5.096   9.427  0.00  0.00    +0.000 A 
ATOM     29  C   UNL     1       7.078  -6.420   9.033  0.00  0.00    +0.000 A 
ATOM     30  C   UNL     1       7.796  -7.263   9.867  0.00  0.00    +0.000 A 
ATOM     31  N   UNL     1       8.329  -6.881  11.044  0.00  0.00    +0.000 NA
ATOM     32  C   UNL     1       8.141  -5.598  11.409  0.00  0.00    +0.000 A 
ATOM     33  C   UNL     1       7.436  -4.682  10.648  0.00  0.00    +0.000 A 
ENDBRANCH  25  28
ENDBRANCH  19  22
ENDBRANCH   1  18
TORSDOF 7
