REMARK  Name = 
REMARK  7 active torsions:
REMARK  status: ('A' for Active; 'I' for Inactive)
REMARK    1  A    between atoms: C_1  and  O_2
REMARK    2  A    between atoms: O_2  and  C_3
REMARK    3  A    between atoms: C_3  and  C_5
REMARK    4  A    between atoms: C_9  and  C_10
REMARK    5  A    between atoms: C_10  and  C_13
REMARK    6  A    between atoms: N_15  and  C_16
REMARK    7  A    between atoms: C_19  and  N_20
REMARK                            x       y       z     vdW  Elec       q    Type
REMARK                         _______ _______ _______ _____ _____    ______ ____
ROOT
ATOM      1  C   UNL     1       9.019   1.607   2.951  0.00  0.00    +0.000 C 
ATOM      2  O   UNL     1       9.311   1.814   1.768  0.00  0.00    +0.000 OA
ATOM      3  N   UNL     1       9.912   1.735   4.017  0.00  0.00    +0.000 N 
ATOM      4  H   UNL     1       9.631   1.319   4.903  0.00  0.00    +0.000 HD
ENDROOT
BRANCH   3   5
ATOM      5  C   UNL     1      11.255   2.177   3.899  0.00  0.00    +0.000 A 
ATOM      6  C   UNL     1      11.702   2.909   2.795  0.00  0.00    +0.000 A 
ATOM      7  C   UNL     1      13.050   3.251   2.650  0.00  0.00    +0.000 A 
ATOM      8  C   UNL     1      13.986   2.853   3.602  0.00  0.00    +0.000 A 
ATOM      9  C   UNL     1      13.539   2.163   4.738  0.00  0.00    +0.000 A 
ATOM     10  C   UNL     1      12.176   1.859   4.903  0.00  0.00    +0.000 A 
BRANCH   8  11
ATOM     11  N   UNL     1      15.374   3.120   3.400  0.00  0.00    +0.000 N 
ATOM     12  C   UNL     1      16.302   2.084   3.452  0.00  0.00    +0.000 A 
ATOM     13  C   UNL     1      17.607   2.292   3.240  0.00  0.00    +0.000 A 
ATOM     14  C   UNL     1      18.093   3.623   2.999  0.00  0.00    +0.000 A 
ATOM     15  C   UNL     1      17.239   4.650   2.924  0.00  0.00    +0.000 A 
ATOM     16  C   UNL     1      15.772   4.436   3.094  0.00  0.00    +0.000 A 
ATOM     17  O   UNL     1      15.037   5.417   3.002  0.00  0.00    +0.000 OA
ENDBRANCH   8  11
ENDBRANCH   3   5
BRANCH   1  18
ATOM     18  C   UNL     1       7.599   1.102   3.338  0.00  0.00    +0.000 C 
ATOM     19  F   UNL     1       7.518   0.917   4.696  0.00  0.00    +0.000 F 
ATOM     20  F   UNL     1       7.402  -0.152   2.818  0.00  0.00    +0.000 F 
BRANCH  18  25
ATOM     21  C   UNL     1       5.141   4.049   3.177  0.00  0.00    +0.000 A 
ATOM     22  C   UNL     1       4.719   3.984   1.842  0.00  0.00    +0.000 A 
ATOM     23  C   UNL     1       5.187   2.967   1.010  0.00  0.00    +0.000 A 
ATOM     24  C   UNL     1       6.088   2.021   1.502  0.00  0.00    +0.000 A 
ATOM     25  C   UNL     1       6.543   2.080   2.832  0.00  0.00    +0.000 A 
ATOM     26  C   UNL     1       6.051   3.097   3.664  0.00  0.00    +0.000 A 
BRANCH  21  27
ATOM     27  C   UNL     1       4.662   5.110   4.104  0.00  0.00    +0.000 C 
ATOM     28  O   UNL     1       5.010   5.192   5.275  0.00  0.00    +0.000 OA
BRANCH  27  30
ATOM     29  C   UNL     1       3.299   7.005   4.277  0.00  0.00    +0.000 C 
ATOM     30  O   UNL     1       3.808   5.945   3.466  0.00  0.00    +0.000 OA
ENDBRANCH  27  30
ENDBRANCH  21  27
ENDBRANCH  18  25
ENDBRANCH   1  18
TORSDOF 6
