REMARK  Name = 
REMARK  4 active torsions:
REMARK  status: ('A' for Active; 'I' for Inactive)
REMARK    1  A    between atoms: C_2  and  C_15
REMARK    2  A    between atoms: N_3  and  C_4
REMARK    3  A    between atoms: C_6  and  C_7
REMARK    4  A    between atoms: C_16  and  C_17
REMARK                            x       y       z     vdW  Elec       q    Type
REMARK                         _______ _______ _______ _____ _____    ______ ____
ROOT
ATOM      1  O   UNL     1       2.162  -0.493  -1.092  0.00  0.00    +0.000 OA
ATOM      2  C   UNL     1       2.127   0.114  -0.026  0.00  0.00    +0.000 C 
ATOM      3  N   UNL     1       1.264  -0.200   1.008  0.00  0.00    +0.000 N 
ATOM      4  H   UNL     1       1.127   0.512   1.726  0.00  0.00    +0.000 HD
ENDROOT
BRANCH   3   5
ATOM      5  C   UNL     1       0.414  -1.287   1.032  0.00  0.00    +0.000 A 
ATOM      6  C   UNL     1       0.580  -2.410   0.311  0.00  0.00    +0.000 A 
ATOM      7  C   UNL     1      -0.357  -3.520   0.357  0.00  0.00    +0.000 A 
ATOM      8  C   UNL     1      -1.430  -3.417   1.153  0.00  0.00    +0.000 A 
ATOM      9  N   UNL     1      -1.636  -2.292   1.917  0.00  0.00    +0.000 N 
ATOM     10  C   UNL     1      -0.789  -1.206   1.939  0.00  0.00    +0.000 A 
ATOM     11  O   UNL     1      -1.006  -0.216   2.631  0.00  0.00    +0.000 OA
ATOM     12  H   UNL     1      -2.458  -2.220   2.506  0.00  0.00    +0.000 HD
BRANCH   7  13
ATOM     13  C   UNL     1      -0.090  -4.734  -0.490  0.00  0.00    +0.000 C 
ATOM     14  F   UNL     1       1.051  -4.649  -1.221  0.00  0.00    +0.000 F 
ATOM     15  F   UNL     1       0.025  -5.852   0.275  0.00  0.00    +0.000 F 
ATOM     16  F   UNL     1      -1.101  -4.966  -1.366  0.00  0.00    +0.000 F 
ENDBRANCH   7  13
ENDBRANCH   3   5
BRANCH   2  17
ATOM     17  C   UNL     1       2.937   1.298   0.219  0.00  0.00    +0.000 A 
ATOM     18  C   UNL     1       4.068   1.672  -0.483  0.00  0.00    +0.000 A 
ATOM     19  O   UNL     1       4.469   2.892   0.004  0.00  0.00    +0.000 OA
ATOM     20  C   UNL     1       3.584   3.163   1.000  0.00  0.00    +0.000 A 
ATOM     21  N   UNL     1       2.654   2.252   1.191  0.00  0.00    +0.000 NA
BRANCH  18  22
ATOM     22  C   UNL     1       4.903   1.073  -1.508  0.00  0.00    +0.000 A 
ATOM     23  C   UNL     1       5.591   1.835  -2.439  0.00  0.00    +0.000 A 
ATOM     24  C   UNL     1       6.443   1.187  -3.326  0.00  0.00    +0.000 A 
ATOM     25  C   UNL     1       6.581  -0.205  -3.266  0.00  0.00    +0.000 A 
ATOM     26  C   UNL     1       7.454  -0.900  -4.122  0.00  0.00    +0.000 A 
ATOM     27  C   UNL     1       7.562  -2.287  -4.042  0.00  0.00    +0.000 A 
ATOM     28  C   UNL     1       6.789  -2.984  -3.121  0.00  0.00    +0.000 A 
ATOM     29  C   UNL     1       5.926  -2.288  -2.268  0.00  0.00    +0.000 A 
ATOM     30  C   UNL     1       5.819  -0.903  -2.308  0.00  0.00    +0.000 A 
ATOM     31  N   UNL     1       5.012  -0.274  -1.435  0.00  0.00    +0.000 NA
ENDBRANCH  18  22
ENDBRANCH   2  17
TORSDOF 4
