REMARK  Name = 
REMARK  4 active torsions:
REMARK  status: ('A' for Active; 'I' for Inactive)
REMARK    1  A    between atoms: C_2  and  C_4
REMARK    2  A    between atoms: C_8  and  C_10
REMARK    3  A    between atoms: C_14  and  C_15
REMARK    4  A    between atoms: C_15  and  C_16
REMARK                            x       y       z     vdW  Elec       q    Type
REMARK                         _______ _______ _______ _____ _____    ______ ____
ROOT
ATOM      1  C   UNL     1       3.382  -1.358  -0.066  0.00  0.00    +0.000 A 
ATOM      2  C   UNL     1       4.414  -1.638   0.843  0.00  0.00    +0.000 A 
ATOM      3  C   UNL     1       5.121  -2.814   0.700  0.00  0.00    +0.000 A 
ATOM      4  N   UNL     1       6.174  -3.080   1.592  0.00  0.00    +0.000 N 
ATOM      5  C   UNL     1       6.946  -4.226   1.543  0.00  0.00    +0.000 C 
ATOM      6  O   UNL     1       6.851  -5.147   0.735  0.00  0.00    +0.000 OA
ATOM      7  N   UNL     1       4.831  -3.691  -0.266  0.00  0.00    +0.000 NA
ATOM      8  C   UNL     1       3.852  -3.443  -1.138  0.00  0.00    +0.000 A 
ATOM      9  C   UNL     1       3.629  -4.403  -2.113  0.00  0.00    +0.000 A 
ATOM     10  C   UNL     1       2.650  -4.247  -3.090  0.00  0.00    +0.000 A 
ATOM     11  C   UNL     1       1.876  -3.098  -3.094  0.00  0.00    +0.000 A 
ATOM     12  C   UNL     1       2.085  -2.120  -2.118  0.00  0.00    +0.000 A 
ATOM     13  C   UNL     1       3.074  -2.274  -1.108  0.00  0.00    +0.000 A 
ATOM     14  H   UNL     1       6.398  -2.365   2.264  0.00  0.00    +0.000 HD
ENDROOT
BRANCH   5  15
ATOM     15  C   UNL     1       8.026  -4.344   2.564  0.00  0.00    +0.000 A 
ATOM     16  C   UNL     1       7.966  -3.732   3.819  0.00  0.00    +0.000 A 
ATOM     17  C   UNL     1       8.996  -3.942   4.740  0.00  0.00    +0.000 A 
ATOM     18  C   UNL     1      10.059  -4.796   4.434  0.00  0.00    +0.000 A 
ATOM     19  C   UNL     1      10.111  -5.452   3.197  0.00  0.00    +0.000 A 
ATOM     20  C   UNL     1       9.105  -5.187   2.259  0.00  0.00    +0.000 A 
BRANCH  19  21
ATOM     21  C   UNL     1      11.157  -6.508   2.905  0.00  0.00    +0.000 C 
BRANCH  21  22
ATOM     22  C   UNL     1      10.737  -7.903   3.331  0.00  0.00    +0.000 A 
ATOM     23  C   UNL     1       9.619  -8.519   2.764  0.00  0.00    +0.000 A 
ATOM     24  C   UNL     1       9.209  -9.759   3.242  0.00  0.00    +0.000 A 
ATOM     25  C   UNL     1       9.942 -10.375   4.247  0.00  0.00    +0.000 A 
ATOM     26  C   UNL     1      11.068  -9.723   4.722  0.00  0.00    +0.000 A 
ATOM     27  N   UNL     1      11.478  -8.507   4.295  0.00  0.00    +0.000 NA
ENDBRANCH  21  22
ENDBRANCH  19  21
ENDBRANCH   5  15
BRANCH   1  29
ATOM     28  N   UNL     1       3.266   0.968   0.672  0.00  0.00    +0.000 N 
ATOM     29  C   UNL     1       2.601  -0.100   0.131  0.00  0.00    +0.000 C 
ATOM     30  O   UNL     1       1.418   0.003  -0.160  0.00  0.00    +0.000 OA
ATOM     31  H   UNL     1       2.741   1.831   0.745  0.00  0.00    +0.000 HD
ATOM     32  H   UNL     1       4.269   1.020   0.765  0.00  0.00    +0.000 HD
ENDBRANCH   1  29
TORSDOF 4
