REMARK  Name = 
REMARK  9 active torsions:
REMARK  status: ('A' for Active; 'I' for Inactive)
REMARK    1  A    between atoms: C_2  and  C_4
REMARK    2  A    between atoms: C_4  and  N_5
REMARK    3  A    between atoms: N_5  and  C_6
REMARK    4  A    between atoms: N_5  and  C_13
REMARK    5  A    between atoms: C_6  and  C_7
REMARK    6  A    between atoms: C_17  and  N_18
REMARK    7  A    between atoms: C_19  and  C_21
REMARK    8  A    between atoms: C_22  and  N_23
REMARK    9  A    between atoms: C_27  and  C_28
REMARK                            x       y       z     vdW  Elec       q    Type
REMARK                         _______ _______ _______ _____ _____    ______ ____
ROOT
ATOM      1  C   UNL     1       5.644  -1.339  -1.736  0.00  0.00    +0.000 A 
ATOM      2  C   UNL     1       5.381  -1.458  -3.108  0.00  0.00    +0.000 A 
ATOM      3  C   UNL     1       6.313  -2.003  -3.988  0.00  0.00    +0.000 A 
ATOM      4  C   UNL     1       7.527  -2.476  -3.513  0.00  0.00    +0.000 A 
ATOM      5  C   UNL     1       7.829  -2.407  -2.157  0.00  0.00    +0.000 A 
ATOM      6  C   UNL     1       6.884  -1.836  -1.278  0.00  0.00    +0.000 A 
ENDROOT
BRANCH   5   7
ATOM      7  N   UNL     1       9.058  -2.872  -1.629  0.00  0.00    +0.000 N 
ATOM      8  C   UNL     1      10.023  -3.603  -2.307  0.00  0.00    +0.000 C 
ATOM      9  O   UNL     1       9.943  -4.052  -3.450  0.00  0.00    +0.000 OA
ATOM     10  H   UNL     1       9.207  -2.737  -0.630  0.00  0.00    +0.000 HD
BRANCH   8  11
ATOM     11  C   UNL     1      11.242  -3.972  -1.554  0.00  0.00    +0.000 A 
ATOM     12  C   UNL     1      11.131  -4.432  -0.234  0.00  0.00    +0.000 A 
ATOM     13  N   UNL     1      12.174  -4.927   0.461  0.00  0.00    +0.000 NA
ATOM     14  C   UNL     1      13.364  -5.013  -0.165  0.00  0.00    +0.000 A 
ATOM     15  C   UNL     1      13.577  -4.570  -1.455  0.00  0.00    +0.000 A 
ATOM     16  C   UNL     1      12.506  -4.010  -2.175  0.00  0.00    +0.000 A 
BRANCH  16  17
ATOM     17  C   UNL     1      12.817  -3.492  -3.556  0.00  0.00    +0.000 C 
ATOM     18  F   UNL     1      11.880  -2.720  -4.157  0.00  0.00    +0.000 F 
ATOM     19  F   UNL     1      13.933  -2.696  -3.522  0.00  0.00    +0.000 F 
ATOM     20  F   UNL     1      13.130  -4.492  -4.426  0.00  0.00    +0.000 F 
ENDBRANCH  16  17
BRANCH  12  21
ATOM     21  N   UNL     1       9.935  -4.397   0.490  0.00  0.00    +0.000 N 
ATOM     22  H   UNL     1       9.198  -4.906   0.006  0.00  0.00    +0.000 HD
ATOM     23  H   UNL     1      10.134  -4.824   1.391  0.00  0.00    +0.000 HD
ENDBRANCH  12  21
ENDBRANCH   8  11
ENDBRANCH   5   7
BRANCH   1  24
ATOM     24  N   UNL     1       4.725  -0.761  -0.861  0.00  0.00    +0.000 N 
BRANCH  24  25
ATOM     25  C   UNL     1       5.197   0.260   0.088  0.00  0.00    +0.000 C 
BRANCH  25  26
ATOM     26  C   UNL     1       5.070  -0.083   1.560  0.00  0.00    +0.000 A 
ATOM     27  C   UNL     1       4.530  -1.278   2.050  0.00  0.00    +0.000 A 
ATOM     28  C   UNL     1       4.374  -1.480   3.425  0.00  0.00    +0.000 A 
ATOM     29  C   UNL     1       4.775  -0.502   4.334  0.00  0.00    +0.000 A 
ATOM     30  C   UNL     1       5.350   0.675   3.867  0.00  0.00    +0.000 A 
ATOM     31  C   UNL     1       5.498   0.881   2.494  0.00  0.00    +0.000 A 
ENDBRANCH  25  26
ENDBRANCH  24  25
BRANCH  24  32
ATOM     32  C   UNL     1       3.269  -0.840  -1.142  0.00  0.00    +0.000 C 
BRANCH  32  34
ATOM     33  N   UNL     1       3.468   1.167  -2.599  0.00  0.00    +0.000 N 
ATOM     34  C   UNL     1       2.646   0.357  -1.874  0.00  0.00    +0.000 C 
ATOM     35  O   UNL     1       1.434   0.566  -1.878  0.00  0.00    +0.000 OA
ATOM     36  H   UNL     1       3.056   1.937  -3.106  0.00  0.00    +0.000 HD
ATOM     37  H   UNL     1       4.474   1.070  -2.554  0.00  0.00    +0.000 HD
ENDBRANCH  32  34
ENDBRANCH  24  32
ENDBRANCH   1  24
TORSDOF 9
