REMARK  Name = 
REMARK  8 active torsions:
REMARK  status: ('A' for Active; 'I' for Inactive)
REMARK    1  A    between atoms: C_2  and  C_15
REMARK    2  A    between atoms: N_3  and  CA_4
REMARK    3  A    between atoms: CA_4  and  C_5
REMARK    4  A    between atoms: CA_4  and  C_7
REMARK    5  A    between atoms: C_5  and  O_6
REMARK    6  A    between atoms: C_17  and  O_18
REMARK    7  A    between atoms: O_18  and  C_19
REMARK    8  A    between atoms: C_27  and  O_28
REMARK                            x       y       z     vdW  Elec       q    Type
REMARK                         _______ _______ _______ _____ _____    ______ ____
ROOT
ATOM      1  O   UNL     1       1.373  -0.767  -0.477  0.00  0.00    +0.000 OA
ATOM      2  C   UNL     1       2.312  -0.037  -0.155  0.00  0.00    +0.000 C 
ATOM      3  N   UNL     1       2.742   0.995  -0.952  0.00  0.00    +0.000 N 
ATOM      4  H   UNL     1       3.499   1.581  -0.612  0.00  0.00    +0.000 HD
ENDROOT
BRANCH   2   5
ATOM      5  C   UNL     1       3.036  -0.276   1.132  0.00  0.00    +0.000 A 
ATOM      6  C   UNL     1       2.574  -1.344   1.919  0.00  0.00    +0.000 A 
ATOM      7  C   UNL     1       3.259  -1.744   3.066  0.00  0.00    +0.000 A 
ATOM      8  C   UNL     1       4.353  -0.998   3.504  0.00  0.00    +0.000 A 
ATOM      9  C   UNL     1       4.793   0.105   2.768  0.00  0.00    +0.000 A 
ATOM     10  C   UNL     1       4.144   0.460   1.580  0.00  0.00    +0.000 A 
BRANCH  10  11
ATOM     11  O   UNL     1       4.605   1.535   0.870  0.00  0.00    +0.000 OA
ATOM     12  H   UNL     1       5.275   2.001   1.403  0.00  0.00    +0.000 HD
ENDBRANCH  10  11
BRANCH   7  13
ATOM     13  O   UNL     1       2.912  -2.825   3.848  0.00  0.00    +0.000 OA
BRANCH  13  14
ATOM     14  C   UNL     1       2.330  -3.936   3.273  0.00  0.00    +0.000 A 
ATOM     15  C   UNL     1       2.583  -4.382   1.972  0.00  0.00    +0.000 A 
ATOM     16  C   UNL     1       1.904  -5.490   1.463  0.00  0.00    +0.000 A 
ATOM     17  C   UNL     1       1.025  -6.200   2.274  0.00  0.00    +0.000 A 
ATOM     18  C   UNL     1       0.825  -5.806   3.597  0.00  0.00    +0.000 A 
ATOM     19  C   UNL     1       1.476  -4.674   4.094  0.00  0.00    +0.000 A 
ENDBRANCH  13  14
ENDBRANCH   7  13
ENDBRANCH   2   5
BRANCH   3  20
ATOM     20  CA  UNL     1       2.106   1.314  -2.218  0.00  0.00    +0.000 C 
BRANCH  20  21
ATOM     21  C   UNL     1       3.006   0.977  -3.394  0.00  0.00    +0.000 A 
ATOM     22  C   UNL     1       2.584   0.041  -4.357  0.00  0.00    +0.000 A 
ATOM     23  C   UNL     1       3.381  -0.267  -5.466  0.00  0.00    +0.000 A 
ATOM     24  C   UNL     1       4.619   0.350  -5.629  0.00  0.00    +0.000 A 
ATOM     25  C   UNL     1       5.055   1.259  -4.675  0.00  0.00    +0.000 A 
ATOM     26  F   UNL     1       6.247   1.852  -4.828  0.00  0.00    +0.000 F 
ATOM     27  C   UNL     1       4.264   1.563  -3.570  0.00  0.00    +0.000 A 
ATOM     28  F   UNL     1       4.715   2.451  -2.670  0.00  0.00    +0.000 F 
ENDBRANCH  20  21
BRANCH  20  29
ATOM     29  C   UNL     1       1.561   2.763  -2.222  0.00  0.00    +0.000 C 
BRANCH  29  30
ATOM     30  O   UNL     1       2.533   3.773  -1.946  0.00  0.00    +0.000 OA
ATOM     31  H   UNL     1       3.402   3.464  -2.259  0.00  0.00    +0.000 HD
ENDBRANCH  29  30
ENDBRANCH  20  29
ENDBRANCH   3  20
TORSDOF 8
