REMARK  Name = 
REMARK  5 active torsions:
REMARK  status: ('A' for Active; 'I' for Inactive)
REMARK    1  A    between atoms: N_3  and  C_4
REMARK    2  A    between atoms: C_4  and  C_5
REMARK    3  A    between atoms: C_5  and  N_6
REMARK    4  A    between atoms: C_16  and  C_17
REMARK    5  A    between atoms: C_23  and  C_24
REMARK                            x       y       z     vdW  Elec       q    Type
REMARK                         _______ _______ _______ _____ _____    ______ ____
ROOT
ATOM      1  O   UNL     1       1.116   0.263  -0.110  0.00  0.00    +0.000 OA
ATOM      2  C   UNL     1       2.324   0.044  -0.068  0.00  0.00    +0.000 C 
ATOM      3  N   UNL     1       2.930  -0.549   1.002  0.00  0.00    +0.000 N 
ATOM      4  N   UNL     1       3.138   0.494  -1.066  0.00  0.00    +0.000 N 
ATOM      5  C   UNL     1       4.486   0.308  -1.099  0.00  0.00    +0.000 A 
ATOM      6  N   UNL     1       5.196  -0.565  -0.417  0.00  0.00    +0.000 NA
ATOM      7  C   UNL     1       6.484  -0.329  -0.827  0.00  0.00    +0.000 A 
ATOM      8  C   UNL     1       6.523   0.783  -1.655  0.00  0.00    +0.000 A 
ATOM      9  O   UNL     1       5.214   1.139  -1.904  0.00  0.00    +0.000 OA
ATOM     10  H   UNL     1       3.857  -0.931   0.827  0.00  0.00    +0.000 HD
ATOM     11  H   UNL     1       2.718   1.092  -1.759  0.00  0.00    +0.000 HD
ENDROOT
BRANCH   7  12
ATOM     12  C   UNL     1       7.605  -1.147  -0.389  0.00  0.00    +0.000 A 
ATOM     13  C   UNL     1       8.701  -1.395  -1.229  0.00  0.00    +0.000 A 
ATOM     14  C   UNL     1       9.828  -2.062  -0.752  0.00  0.00    +0.000 A 
ATOM     15  C   UNL     1       9.835  -2.562   0.545  0.00  0.00    +0.000 A 
ATOM     16  C   UNL     1       8.720  -2.391   1.362  0.00  0.00    +0.000 A 
ATOM     17  C   UNL     1       7.609  -1.680   0.902  0.00  0.00    +0.000 A 
ENDBRANCH   7  12
BRANCH   8  18
ATOM     18  C   UNL     1       7.579   1.571  -2.286  0.00  0.00    +0.000 A 
ATOM     19  C   UNL     1       7.405   2.171  -3.536  0.00  0.00    +0.000 A 
ATOM     20  C   UNL     1       8.501   2.711  -4.219  0.00  0.00    +0.000 A 
ATOM     21  C   UNL     1       9.780   2.652  -3.664  0.00  0.00    +0.000 A 
ATOM     22  C   UNL     1       9.954   2.129  -2.390  0.00  0.00    +0.000 A 
ATOM     23  C   UNL     1       8.852   1.642  -1.690  0.00  0.00    +0.000 A 
ENDBRANCH   8  18
BRANCH   3  24
ATOM     24  C   UNL     1       2.215  -0.936   2.204  0.00  0.00    +0.000 C 
BRANCH  24  25
ATOM     25  C   UNL     1       3.160  -1.471   3.287  0.00  0.00    +0.000 C 
BRANCH  25  26
ATOM     26  N   UNL     1       2.437  -1.856   4.514  0.00  0.00    +0.000 N 
ATOM     27  C   UNL     1       2.236  -0.942   5.542  0.00  0.00    +0.000 A 
ATOM     28  C   UNL     1       1.624  -1.231   6.699  0.00  0.00    +0.000 A 
ATOM     29  C   UNL     1       1.127  -2.612   6.898  0.00  0.00    +0.000 A 
ATOM     30  O   UNL     1       0.569  -2.947   7.932  0.00  0.00    +0.000 OA
ATOM     31  C   UNL     1       1.315  -3.575   5.784  0.00  0.00    +0.000 A 
ATOM     32  C   UNL     1       1.944  -3.146   4.683  0.00  0.00    +0.000 A 
ENDBRANCH  25  26
ENDBRANCH  24  25
ENDBRANCH   3  24
TORSDOF 5
