REMARK  Name = 
REMARK  6 active torsions:
REMARK  status: ('A' for Active; 'I' for Inactive)
REMARK    1  A    between atoms: C_1  and  N_2
REMARK    2  A    between atoms: C_3  and  C_4
REMARK    3  A    between atoms: N_6  and  C_7
REMARK    4  A    between atoms: C_9  and  O_10
REMARK    5  A    between atoms: C_20  and  C_21
REMARK    6  A    between atoms: C_21  and  C_23
REMARK                            x       y       z     vdW  Elec       q    Type
REMARK                         _______ _______ _______ _____ _____    ______ ____
ROOT
ATOM      1  C   UNL     1       0.514  -2.551  -0.084  0.00  0.00    +0.000 C 
ATOM      2  O   UNL     1       1.575  -2.890   0.428  0.00  0.00    +0.000 OA
ATOM      3  N   UNL     1      -0.336  -3.415  -0.754  0.00  0.00    +0.000 N 
ATOM      4  H   UNL     1      -1.081  -3.006  -1.313  0.00  0.00    +0.000 HD
ENDROOT
BRANCH   3   5
ATOM      5  C   UNL     1      -0.176  -4.808  -0.963  0.00  0.00    +0.000 A 
ATOM      6  C   UNL     1       0.733  -5.575  -0.240  0.00  0.00    +0.000 A 
ATOM      7  C   UNL     1       0.859  -6.905  -0.575  0.00  0.00    +0.000 A 
ATOM      8  N   UNL     1       0.168  -7.503  -1.555  0.00  0.00    +0.000 NA
ATOM      9  C   UNL     1      -0.733  -6.758  -2.219  0.00  0.00    +0.000 A 
ATOM     10  C   UNL     1      -1.472  -7.342  -3.236  0.00  0.00    +0.000 A 
ATOM     11  C   UNL     1      -2.443  -6.621  -3.925  0.00  0.00    +0.000 A 
ATOM     12  C   UNL     1      -2.640  -5.302  -3.568  0.00  0.00    +0.000 A 
ATOM     13  N   UNL     1      -1.925  -4.672  -2.610  0.00  0.00    +0.000 NA
ATOM     14  C   UNL     1      -0.981  -5.396  -1.950  0.00  0.00    +0.000 A 
BRANCH   7  15
ATOM     15  O   UNL     1       1.720  -7.721   0.096  0.00  0.00    +0.000 OA
ATOM     16  H   UNL     1       2.157  -7.194   0.783  0.00  0.00    +0.000 HD
ENDBRANCH   7  15
ENDBRANCH   3   5
BRANCH   1  19
ATOM     17  C   UNL     1       2.234   0.071  -0.021  0.00  0.00    +0.000 C 
ATOM     18  N   UNL     1       0.786  -0.010  -0.031  0.00  0.00    +0.000 N 
ATOM     19  C   UNL     1       0.026  -1.177  -0.075  0.00  0.00    +0.000 A 
ATOM     20  C   UNL     1      -1.301  -0.779  -0.075  0.00  0.00    +0.000 A 
ATOM     21  C   UNL     1      -1.343   0.621  -0.108  0.00  0.00    +0.000 A 
ATOM     22  C   UNL     1      -0.048   1.106  -0.025  0.00  0.00    +0.000 A 
BRANCH  22  23
ATOM     23  C   UNL     1       0.379   2.509   0.035  0.00  0.00    +0.000 C 
ATOM     24  O   UNL     1       1.488   2.895  -0.315  0.00  0.00    +0.000 OA
BRANCH  23  25
ATOM     25  C   UNL     1      -0.614   3.539   0.471  0.00  0.00    +0.000 A 
ATOM     26  C   UNL     1      -0.678   4.767  -0.202  0.00  0.00    +0.000 A 
ATOM     27  C   UNL     1      -1.707   5.671   0.091  0.00  0.00    +0.000 A 
ATOM     28  C   UNL     1      -2.671   5.354   1.050  0.00  0.00    +0.000 A 
ATOM     29  C   UNL     1      -2.569   4.166   1.768  0.00  0.00    +0.000 A 
ATOM     30  C   UNL     1      -1.523   3.286   1.500  0.00  0.00    +0.000 A 
ATOM     31  F   UNL     1      -1.432   2.182   2.254  0.00  0.00    +0.000 F 
ENDBRANCH  23  25
ENDBRANCH  22  23
ENDBRANCH   1  19
TORSDOF 5
