REMARK  Name = 
REMARK  5 active torsions:
REMARK  status: ('A' for Active; 'I' for Inactive)
REMARK    1  A    between atoms: C_1  and  O_2
REMARK    2  A    between atoms: O_2  and  C_3
REMARK    3  A    between atoms: C_12  and  C_13
REMARK    4  A    between atoms: N_15  and  C_16
REMARK    5  A    between atoms: N_20  and  C_21
REMARK                            x       y       z     vdW  Elec       q    Type
REMARK                         _______ _______ _______ _____ _____    ______ ____
ROOT
ATOM      1  C   UNL     1       4.796  -1.077   1.571  0.00  0.00    +0.000 C 
ATOM      2  O   UNL     1       5.824  -1.571   2.032  0.00  0.00    +0.000 OA
ATOM      3  N   UNL     1       4.146  -0.005   2.177  0.00  0.00    +0.000 N 
ATOM      4  H   UNL     1       3.157   0.087   1.960  0.00  0.00    +0.000 HD
ENDROOT
BRANCH   1  14
ATOM      5  C   UNL     1       2.775  -1.732   0.180  0.00  0.00    +0.000 A 
ATOM      6  C   UNL     1       2.245  -2.385  -0.932  0.00  0.00    +0.000 A 
ATOM      7  C   UNL     1       3.085  -3.024  -1.844  0.00  0.00    +0.000 A 
ATOM      8  C   UNL     1       4.460  -3.022  -1.705  0.00  0.00    +0.000 A 
ATOM      9  N   UNL     1       5.160  -3.677  -2.646  0.00  0.00    +0.000 NA
ATOM     10  C   UNL     1       6.504  -3.700  -2.547  0.00  0.00    +0.000 A 
ATOM     11  C   UNL     1       7.197  -3.069  -1.543  0.00  0.00    +0.000 A 
ATOM     12  C   UNL     1       6.461  -2.383  -0.583  0.00  0.00    +0.000 A 
ATOM     13  C   UNL     1       5.040  -2.346  -0.610  0.00  0.00    +0.000 A 
ATOM     14  C   UNL     1       4.178  -1.698   0.351  0.00  0.00    +0.000 A 
BRANCH   5  16
ATOM     15  C   UNL     1       0.656  -1.610   1.255  0.00  0.00    +0.000 C 
ATOM     16  O   UNL     1       1.981  -1.097   1.105  0.00  0.00    +0.000 OA
ENDBRANCH   5  16
ENDBRANCH   1  14
BRANCH   3  17
ATOM     17  C   UNL     1       4.649   0.691   3.263  0.00  0.00    +0.000 A 
ATOM     18  C   UNL     1       5.961   0.858   3.485  0.00  0.00    +0.000 A 
ATOM     19  C   UNL     1       6.469   1.512   4.719  0.00  0.00    +0.000 A 
ATOM     20  O   UNL     1       7.686   1.650   4.838  0.00  0.00    +0.000 OA
ATOM     21  N   UNL     1       5.495   1.850   5.673  0.00  0.00    +0.000 N 
ATOM     22  C   UNL     1       4.141   1.724   5.385  0.00  0.00    +0.000 A 
ATOM     23  C   UNL     1       3.706   1.233   4.214  0.00  0.00    +0.000 A 
BRANCH  21  24
ATOM     24  C   UNL     1       5.932   2.306   6.955  0.00  0.00    +0.000 A 
ATOM     25  C   UNL     1       6.850   3.356   7.070  0.00  0.00    +0.000 A 
ATOM     26  C   UNL     1       7.285   3.783   8.327  0.00  0.00    +0.000 A 
ATOM     27  C   UNL     1       6.834   3.138   9.477  0.00  0.00    +0.000 A 
ATOM     28  C   UNL     1       5.933   2.079   9.373  0.00  0.00    +0.000 A 
ATOM     29  C   UNL     1       5.466   1.677   8.118  0.00  0.00    +0.000 A 
ENDBRANCH  21  24
ENDBRANCH   3  17
TORSDOF 4
