REMARK  Name = 
REMARK  5 active torsions:
REMARK  status: ('A' for Active; 'I' for Inactive)
REMARK    1  A    between atoms: N_7  and  C_8
REMARK    2  A    between atoms: C_8  and  C_9
REMARK    3  A    between atoms: C_9  and  N_10
REMARK    4  A    between atoms: C_9  and  C_24
REMARK    5  A    between atoms: C_13  and  C_14
REMARK                            x       y       z     vdW  Elec       q    Type
REMARK                         _______ _______ _______ _____ _____    ______ ____
ROOT
ATOM      1  C   UNL     1       0.686  -2.068  -0.544  0.00  0.00    +0.000 C 
ENDROOT
BRANCH   1   2
ATOM      2  N   UNL     1       0.596  -1.399  -1.856  0.00  0.00    +0.000 N 
ATOM      3  C   UNL     1      -0.596  -0.684  -2.070  0.00  0.00    +0.000 A 
ATOM      4  N   UNL     1      -1.253  -0.144  -1.033  0.00  0.00    +0.000 NA
ATOM      5  C   UNL     1      -2.346   0.605  -1.287  0.00  0.00    +0.000 A 
ATOM      6  N   UNL     1      -2.843   0.823  -2.524  0.00  0.00    +0.000 NA
ATOM      7  C   UNL     1      -2.150   0.286  -3.540  0.00  0.00    +0.000 A 
ATOM      8  C   UNL     1      -1.002  -0.452  -3.369  0.00  0.00    +0.000 A 
ATOM      9  H   UNL     1       0.762  -2.055  -2.610  0.00  0.00    +0.000 HD
BRANCH   5  10
ATOM     10  C   UNL     1      -3.018   1.283  -0.146  0.00  0.00    +0.000 A 
ATOM     11  C   UNL     1      -4.212   1.998  -0.317  0.00  0.00    +0.000 A 
ATOM     12  C   UNL     1      -4.777   2.680   0.762  0.00  0.00    +0.000 A 
ATOM     13  C   UNL     1      -4.139   2.633   1.988  0.00  0.00    +0.000 A 
ATOM     14  F   UNL     1      -4.640   3.294   3.038  0.00  0.00    +0.000 F 
ATOM     15  C   UNL     1      -2.976   1.898   2.105  0.00  0.00    +0.000 A 
ATOM     16  N   UNL     1      -2.407   1.222   1.078  0.00  0.00    +0.000 NA
ENDBRANCH   5  10
ENDBRANCH   1   2
BRANCH   1  17
ATOM     17  C   UNL     1      -0.001  -3.435  -0.630  0.00  0.00    +0.000 A 
ATOM     18  C   UNL     1      -1.128  -3.705   0.161  0.00  0.00    +0.000 A 
ATOM     19  C   UNL     1      -1.756  -4.951   0.102  0.00  0.00    +0.000 A 
ATOM     20  C   UNL     1      -1.279  -5.939  -0.757  0.00  0.00    +0.000 A 
ATOM     21  C   UNL     1      -0.171  -5.682  -1.560  0.00  0.00    +0.000 A 
ATOM     22  C   UNL     1       0.464  -4.442  -1.498  0.00  0.00    +0.000 A 
ENDBRANCH   1  17
BRANCH   1  23
ATOM     23  C   UNL     1       2.162  -2.255  -0.097  0.00  0.00    +0.000 C 
BRANCH  23  30
ATOM     24  O   UNL     1       4.490  -1.648  -1.564  0.00  0.00    +0.000 OA
ATOM     25  C   UNL     1       4.113  -0.877  -0.684  0.00  0.00    +0.000 A 
ATOM     26  C   UNL     1       4.964   0.299  -0.349  0.00  0.00    +0.000 A 
ATOM     27  C   UNL     1       4.586   1.158   0.606  0.00  0.00    +0.000 A 
ATOM     28  C   UNL     1       3.346   0.963   1.311  0.00  0.00    +0.000 A 
ATOM     29  C   UNL     1       2.586  -0.106   1.045  0.00  0.00    +0.000 A 
ATOM     30  N   UNL     1       2.954  -1.030   0.077  0.00  0.00    +0.000 N 
ENDBRANCH  23  30
ENDBRANCH   1  23
TORSDOF 5
