REMARK  Name = 
REMARK  7 active torsions:
REMARK  status: ('A' for Active; 'I' for Inactive)
REMARK    1  A    between atoms: C_1  and  N_2
REMARK    2  A    between atoms: N_2  and  C_3
REMARK    3  A    between atoms: C_3  and  C_4
REMARK    4  A    between atoms: C_7  and  C_8
REMARK    5  A    between atoms: C_15  and  C_17
REMARK    6  A    between atoms: C_22  and  O_23
REMARK    7  A    between atoms: O_23  and  C_24
REMARK                            x       y       z     vdW  Elec       q    Type
REMARK                         _______ _______ _______ _____ _____    ______ ____
ROOT
ATOM      1  C   UNL     1       1.111   0.241  -0.131  0.00  0.00    +0.000 C 
ATOM      2  N   UNL     1       2.559   0.050  -0.194  0.00  0.00    +0.000 N 
ATOM      3  C   UNL     1       3.323   1.018   0.481  0.00  0.00    +0.000 C 
ATOM      4  O   UNL     1       2.766   1.921   1.116  0.00  0.00    +0.000 OA
ENDROOT
BRANCH   3   5
ATOM      5  C   UNL     1       4.819   1.106   0.420  0.00  0.00    +0.000 A 
ATOM      6  C   UNL     1       5.337   2.414   0.378  0.00  0.00    +0.000 A 
ATOM      7  C   UNL     1       6.707   2.607   0.343  0.00  0.00    +0.000 A 
ATOM      8  N   UNL     1       7.592   1.598   0.283  0.00  0.00    +0.000 NA
ATOM      9  C   UNL     1       7.083   0.348   0.352  0.00  0.00    +0.000 A 
ATOM     10  C   UNL     1       5.729   0.050   0.514  0.00  0.00    +0.000 A 
BRANCH  10  11
ATOM     11  O   UNL     1       5.275  -1.215   0.783  0.00  0.00    +0.000 OA
BRANCH  11  12
ATOM     12  C   UNL     1       6.103  -2.148   1.350  0.00  0.00    +0.000 A 
ATOM     13  C   UNL     1       6.875  -1.858   2.476  0.00  0.00    +0.000 A 
ATOM     14  C   UNL     1       7.713  -2.834   3.004  0.00  0.00    +0.000 A 
ATOM     15  C   UNL     1       7.729  -4.104   2.437  0.00  0.00    +0.000 A 
ATOM     16  F   UNL     1       8.536  -5.040   2.951  0.00  0.00    +0.000 F 
ATOM     17  C   UNL     1       6.914  -4.420   1.354  0.00  0.00    +0.000 A 
ATOM     18  C   UNL     1       6.092  -3.436   0.805  0.00  0.00    +0.000 A 
ENDBRANCH  11  12
ENDBRANCH  10  11
ENDBRANCH   3   5
BRANCH   2  19
ATOM     19  C   UNL     1       3.112  -0.985  -1.076  0.00  0.00    +0.000 C 
BRANCH  19  20
ATOM     20  C   UNL     1       2.166  -1.976  -1.656  0.00  0.00    +0.000 A 
ATOM     21  N   UNL     1       1.671  -1.909  -2.897  0.00  0.00    +0.000 NA
ATOM     22  N   UNL     1       0.993  -3.065  -2.970  0.00  0.00    +0.000 N 
ATOM     23  C   UNL     1       1.119  -3.817  -1.830  0.00  0.00    +0.000 A 
ATOM     24  N   UNL     1       1.826  -3.123  -0.968  0.00  0.00    +0.000 NA
ATOM     25  H   UNL     1       0.481  -3.281  -3.813  0.00  0.00    +0.000 HD
BRANCH  23  26
ATOM     26  C   UNL     1       0.549  -5.148  -1.645  0.00  0.00    +0.000 A 
ATOM     27  C   UNL     1       0.333  -5.998  -2.738  0.00  0.00    +0.000 A 
ATOM     28  C   UNL     1      -0.229  -7.265  -2.552  0.00  0.00    +0.000 A 
ATOM     29  C   UNL     1      -0.571  -7.693  -1.272  0.00  0.00    +0.000 A 
ATOM     30  C   UNL     1      -0.339  -6.868  -0.173  0.00  0.00    +0.000 A 
ATOM     31  C   UNL     1       0.227  -5.604  -0.358  0.00  0.00    +0.000 A 
ENDBRANCH  23  26
ENDBRANCH  19  20
ENDBRANCH   2  19
TORSDOF 6
