REMARK  Name = 
REMARK  7 active torsions:
REMARK  status: ('A' for Active; 'I' for Inactive)
REMARK    1  A    between atoms: C_2  and  C_3
REMARK    2  A    between atoms: C_3  and  C_4
REMARK    3  A    between atoms: C_9  and  O_10
REMARK    4  A    between atoms: O_10  and  C_11
REMARK    5  A    between atoms: N_17  and  C_18
REMARK    6  A    between atoms: C_18  and  C_19
REMARK    7  A    between atoms: C_22  and  C_23
REMARK                            x       y       z     vdW  Elec       q    Type
REMARK                         _______ _______ _______ _____ _____    ______ ____
ROOT
ATOM      1  O   UNL     1       1.248  -0.484   0.662  0.00  0.00    +0.000 OA
ATOM      2  C   UNL     1       2.459  -0.397   0.482  0.00  0.00    +0.000 C 
ATOM      3  N   UNL     1       3.261   0.488   1.177  0.00  0.00    +0.000 N 
ATOM      4  H   UNL     1       4.263   0.463   1.042  0.00  0.00    +0.000 HD
ENDROOT
BRANCH   3   5
ATOM      5  C   UNL     1       2.777   1.321   2.253  0.00  0.00    +0.000 C 
BRANCH   5   6
ATOM      6  C   UNL     1       3.438   0.939   3.551  0.00  0.00    +0.000 A 
ATOM      7  C   UNL     1       4.281   1.834   4.220  0.00  0.00    +0.000 A 
ATOM      8  C   UNL     1       4.846   1.484   5.448  0.00  0.00    +0.000 A 
ATOM      9  C   UNL     1       4.602   0.228   6.018  0.00  0.00    +0.000 A 
ATOM     10  C   UNL     1       3.772  -0.673   5.339  0.00  0.00    +0.000 A 
ATOM     11  C   UNL     1       3.195  -0.320   4.117  0.00  0.00    +0.000 A 
BRANCH   9  12
ATOM     12  C   UNL     1       5.218  -0.107   7.299  0.00  0.00    +0.000 A 
ATOM     13  N   UNL     1       5.519   0.736   8.270  0.00  0.00    +0.000 NA
ATOM     14  C   UNL     1       6.118  -0.009   9.252  0.00  0.00    +0.000 A 
ATOM     15  C   UNL     1       6.213  -1.324   8.871  0.00  0.00    +0.000 A 
ATOM     16  N   UNL     1       5.626  -1.377   7.638  0.00  0.00    +0.000 N 
ATOM     17  H   UNL     1       5.544  -2.191   7.046  0.00  0.00    +0.000 HD
ENDBRANCH   9  12
ENDBRANCH   5   6
ENDBRANCH   3   5
BRANCH   2  18
ATOM     18  C   UNL     1       3.209  -1.163  -0.585  0.00  0.00    +0.000 C 
BRANCH  18  19
ATOM     19  C   UNL     1       3.014  -2.660  -0.555  0.00  0.00    +0.000 A 
ATOM     20  C   UNL     1       1.886  -3.184  -1.221  0.00  0.00    +0.000 A 
ATOM     21  C   UNL     1       1.686  -4.553  -1.350  0.00  0.00    +0.000 A 
ATOM     22  C   UNL     1       2.639  -5.438  -0.863  0.00  0.00    +0.000 A 
ATOM     23  C   UNL     1       3.763  -4.937  -0.209  0.00  0.00    +0.000 A 
ATOM     24  C   UNL     1       3.917  -3.564   0.040  0.00  0.00    +0.000 A 
BRANCH  24  25
ATOM     25  O   UNL     1       4.943  -3.101   0.862  0.00  0.00    +0.000 OA
BRANCH  25  26
ATOM     26  C   UNL     1       5.354  -3.946   1.889  0.00  0.00    +0.000 A 
ATOM     27  C   UNL     1       6.722  -4.065   2.146  0.00  0.00    +0.000 A 
ATOM     28  C   UNL     1       7.128  -5.018   3.070  0.00  0.00    +0.000 A 
ATOM     29  N   UNL     1       6.281  -5.840   3.733  0.00  0.00    +0.000 NA
ATOM     30  C   UNL     1       4.965  -5.673   3.493  0.00  0.00    +0.000 A 
ATOM     31  C   UNL     1       4.460  -4.716   2.633  0.00  0.00    +0.000 A 
ENDBRANCH  25  26
ENDBRANCH  24  25
ENDBRANCH  18  19
ENDBRANCH   2  18
TORSDOF 7
