REMARK  Name = 
REMARK  5 active torsions:
REMARK  status: ('A' for Active; 'I' for Inactive)
REMARK    1  A    between atoms: C_1  and  O_2
REMARK    2  A    between atoms: O_2  and  C_3
REMARK    3  A    between atoms: C_10  and  C_11
REMARK    4  A    between atoms: N_13  and  C_14
REMARK    5  A    between atoms: N_16  and  C_17
REMARK                            x       y       z     vdW  Elec       q    Type
REMARK                         _______ _______ _______ _____ _____    ______ ____
ROOT
ATOM      1  C   UNL     1       6.576   1.290   3.038  0.00  0.00    +0.000 C 
ATOM      2  O   UNL     1       7.759   1.324   3.361  0.00  0.00    +0.000 OA
ATOM      3  N   UNL     1       5.915   2.272   2.314  0.00  0.00    +0.000 N 
ATOM      4  H   UNL     1       4.904   2.215   2.272  0.00  0.00    +0.000 HD
ENDROOT
BRANCH   1  12
ATOM      5  C   UNL     1       3.436  -1.222   0.943  0.00  0.00    +0.000 A 
ATOM      6  C   UNL     1       2.907  -2.284   1.665  0.00  0.00    +0.000 A 
ATOM      7  C   UNL     1       3.321  -2.498   2.978  0.00  0.00    +0.000 A 
ATOM      8  C   UNL     1       4.241  -1.674   3.601  0.00  0.00    +0.000 A 
ATOM      9  N   UNL     1       4.541  -1.968   4.872  0.00  0.00    +0.000 NA
ATOM     10  C   UNL     1       5.448  -1.212   5.513  0.00  0.00    +0.000 A 
ATOM     11  C   UNL     1       6.081  -0.147   4.926  0.00  0.00    +0.000 A 
ATOM     12  C   UNL     1       5.773   0.169   3.596  0.00  0.00    +0.000 A 
ATOM     13  C   UNL     1       4.818  -0.601   2.882  0.00  0.00    +0.000 A 
ATOM     14  C   UNL     1       4.418  -0.416   1.530  0.00  0.00    +0.000 A 
BRANCH   5  16
ATOM     15  C   UNL     1       1.782  -1.324  -0.738  0.00  0.00    +0.000 C 
ATOM     16  O   UNL     1       3.083  -0.899  -0.338  0.00  0.00    +0.000 OA
ENDBRANCH   5  16
ENDBRANCH   1  12
BRANCH   3  17
ATOM     17  C   UNL     1       6.493   3.445   1.851  0.00  0.00    +0.000 A 
ATOM     18  C   UNL     1       7.818   3.670   1.776  0.00  0.00    +0.000 A 
ATOM     19  N   UNL     1       8.374   4.902   1.429  0.00  0.00    +0.000 N 
ATOM     20  C   UNL     1       7.547   5.997   1.123  0.00  0.00    +0.000 A 
ATOM     21  O   UNL     1       7.900   7.153   0.896  0.00  0.00    +0.000 OA
ATOM     22  C   UNL     1       6.082   5.722   1.128  0.00  0.00    +0.000 A 
ATOM     23  C   UNL     1       5.603   4.517   1.464  0.00  0.00    +0.000 A 
BRANCH  19  24
ATOM     24  C   UNL     1       9.795   5.111   1.529  0.00  0.00    +0.000 A 
ATOM     25  C   UNL     1      10.523   4.529   2.582  0.00  0.00    +0.000 A 
ATOM     26  C   UNL     1      11.887   4.785   2.738  0.00  0.00    +0.000 A 
ATOM     27  C   UNL     1      12.553   5.594   1.822  0.00  0.00    +0.000 A 
ATOM     28  C   UNL     1      11.855   6.146   0.750  0.00  0.00    +0.000 A 
ATOM     29  C   UNL     1      10.483   5.914   0.611  0.00  0.00    +0.000 A 
ENDBRANCH  19  24
ENDBRANCH   3  17
TORSDOF 4
