REMARK  Name = 
REMARK  5 active torsions:
REMARK  status: ('A' for Active; 'I' for Inactive)
REMARK    1  A    between atoms: C_1  and  N_2
REMARK    2  A    between atoms: C_4  and  N_5
REMARK    3  A    between atoms: N_8  and  C_9
REMARK    4  A    between atoms: C_9  and  C_10
REMARK    5  A    between atoms: C_13  and  C_14
REMARK                            x       y       z     vdW  Elec       q    Type
REMARK                         _______ _______ _______ _____ _____    ______ ____
ROOT
ATOM      1  C   UNL     1      -2.286   6.227  -0.192  0.00  0.00    +0.000 C 
ENDROOT
BRANCH   1   5
ATOM      2  N   UNL     1      -0.299   4.433  -2.613  0.00  0.00    +0.000 N 
ATOM      3  C   UNL     1      -0.735   4.857  -1.387  0.00  0.00    +0.000 C 
ATOM      4  O   UNL     1      -0.242   4.525  -0.308  0.00  0.00    +0.000 OA
ATOM      5  N   UNL     1      -1.823   5.691  -1.450  0.00  0.00    +0.000 N 
ATOM      6  H   UNL     1      -0.805   4.733  -3.438  0.00  0.00    +0.000 HD
ATOM      7  H   UNL     1      -2.008   6.211  -2.289  0.00  0.00    +0.000 HD
BRANCH   2  11
ATOM      8  C   UNL     1       3.350   1.555  -1.167  0.00  0.00    +0.000 C 
ATOM      9  N   UNL     1       2.551   2.125  -2.238  0.00  0.00    +0.000 N 
ATOM     10  C   UNL     1       1.533   2.998  -1.932  0.00  0.00    +0.000 A 
ATOM     11  C   UNL     1       0.742   3.556  -2.858  0.00  0.00    +0.000 A 
ATOM     12  C   UNL     1       1.019   3.202  -4.284  0.00  0.00    +0.000 A 
ATOM     13  O   UNL     1       0.359   3.691  -5.193  0.00  0.00    +0.000 OA
ATOM     14  N   UNL     1       2.042   2.318  -4.501  0.00  0.00    +0.000 N 
ATOM     15  C   UNL     1       2.845   1.760  -3.537  0.00  0.00    +0.000 A 
ATOM     16  O   UNL     1       3.756   0.994  -3.836  0.00  0.00    +0.000 OA
ATOM     17  H   UNL     1       2.240   2.064  -5.456  0.00  0.00    +0.000 HD
ENDBRANCH   2  11
ENDBRANCH   1   5
BRANCH   1  18
ATOM     18  C   UNL     1      -3.421   7.196  -0.348  0.00  0.00    +0.000 A 
ATOM     19  C   UNL     1      -4.750   6.763  -0.303  0.00  0.00    +0.000 A 
ATOM     20  C   UNL     1      -5.799   7.691  -0.281  0.00  0.00    +0.000 A 
ATOM     21  C   UNL     1      -5.545   9.071  -0.319  0.00  0.00    +0.000 A 
ATOM     22  C   UNL     1      -4.206   9.480  -0.474  0.00  0.00    +0.000 A 
ATOM     23  C   UNL     1      -3.156   8.561  -0.475  0.00  0.00    +0.000 A 
BRANCH  21  24
ATOM     24  C   UNL     1      -6.609  10.059  -0.020  0.00  0.00    +0.000 A 
ATOM     25  C   UNL     1      -6.294  11.157   0.799  0.00  0.00    +0.000 A 
ATOM     26  C   UNL     1      -7.286  11.955   1.349  0.00  0.00    +0.000 A 
ATOM     27  C   UNL     1      -8.615  11.760   0.987  0.00  0.00    +0.000 A 
ATOM     28  C   UNL     1      -9.616  12.517   1.589  0.00  0.00    +0.000 A 
ATOM     29  C   UNL     1     -10.789  12.769   0.898  0.00  0.00    +0.000 A 
ATOM     30  C   UNL     1     -11.099  11.979  -0.200  0.00  0.00    +0.000 A 
ATOM     31  C   UNL     1     -10.242  10.932  -0.572  0.00  0.00    +0.000 A 
ATOM     32  C   UNL     1      -8.944  10.848  -0.026  0.00  0.00    +0.000 A 
ATOM     33  C   UNL     1      -7.949   9.926  -0.440  0.00  0.00    +0.000 A 
ENDBRANCH  21  24
ENDBRANCH   1  18
TORSDOF 4
