REMARK  Name = 
REMARK  4 active torsions:
REMARK  status: ('A' for Active; 'I' for Inactive)
REMARK    1  A    between atoms: C_2  and  C_17
REMARK    2  A    between atoms: N_3  and  C_4
REMARK    3  A    between atoms: N_6  and  C_7
REMARK    4  A    between atoms: C_22  and  C_23
REMARK                            x       y       z     vdW  Elec       q    Type
REMARK                         _______ _______ _______ _____ _____    ______ ____
ROOT
ATOM      1  O   UNL     1       0.978  -0.312   0.013  0.00  0.00    +0.000 OA
ATOM      2  C   UNL     1       2.180  -0.073   0.122  0.00  0.00    +0.000 C 
ATOM      3  N   UNL     1       2.799   0.364   1.279  0.00  0.00    +0.000 N 
ATOM      4  H   UNL     1       3.720   0.773   1.190  0.00  0.00    +0.000 HD
ENDROOT
BRANCH   2   5
ATOM      5  C   UNL     1       3.065  -0.218  -1.073  0.00  0.00    +0.000 A 
ATOM      6  C   UNL     1       2.446  -0.078  -2.267  0.00  0.00    +0.000 A 
ATOM      7  C   UNL     1       3.117  -0.456  -3.456  0.00  0.00    +0.000 A 
ATOM      8  N   UNL     1       2.750  -0.458  -4.719  0.00  0.00    +0.000 NA
ATOM      9  N   UNL     1       3.758  -1.045  -5.446  0.00  0.00    +0.000 NA
ATOM     10  C   UNL     1       4.724  -1.388  -4.611  0.00  0.00    +0.000 A 
ATOM     11  N   UNL     1       4.389  -0.992  -3.339  0.00  0.00    +0.000 N 
ATOM     12  C   UNL     1       5.064  -1.085  -2.118  0.00  0.00    +0.000 A 
ATOM     13  C   UNL     1       4.445  -0.698  -0.992  0.00  0.00    +0.000 A 
BRANCH  10  14
ATOM     14  C   UNL     1       5.966  -2.119  -4.900  0.00  0.00    +0.000 C 
ATOM     15  F   UNL     1       6.054  -2.558  -6.179  0.00  0.00    +0.000 F 
ATOM     16  F   UNL     1       7.066  -1.347  -4.671  0.00  0.00    +0.000 F 
ATOM     17  F   UNL     1       6.102  -3.212  -4.102  0.00  0.00    +0.000 F 
ENDBRANCH  10  14
ENDBRANCH   2   5
BRANCH   3  18
ATOM     18  C   UNL     1       2.165   0.494   2.498  0.00  0.00    +0.000 A 
ATOM     19  C   UNL     1       1.030  -0.146   2.824  0.00  0.00    +0.000 A 
ATOM     20  N   UNL     1       0.342   0.069   4.013  0.00  0.00    +0.000 N 
ATOM     21  C   UNL     1       0.820   0.993   4.957  0.00  0.00    +0.000 A 
ATOM     22  O   UNL     1       0.267   1.338   5.999  0.00  0.00    +0.000 OA
ATOM     23  C   UNL     1       2.118   1.650   4.620  0.00  0.00    +0.000 A 
ATOM     24  C   UNL     1       2.749   1.391   3.468  0.00  0.00    +0.000 A 
BRANCH  20  25
ATOM     25  C   UNL     1      -0.933  -0.556   4.225  0.00  0.00    +0.000 A 
ATOM     26  C   UNL     1      -1.849  -0.672   3.165  0.00  0.00    +0.000 A 
ATOM     27  C   UNL     1      -3.114  -1.227   3.371  0.00  0.00    +0.000 A 
ATOM     28  C   UNL     1      -3.463  -1.710   4.629  0.00  0.00    +0.000 A 
ATOM     29  C   UNL     1      -2.551  -1.636   5.680  0.00  0.00    +0.000 A 
ATOM     30  C   UNL     1      -1.297  -1.052   5.482  0.00  0.00    +0.000 A 
ENDBRANCH  20  25
ENDBRANCH   3  18
TORSDOF 4
