REMARK  Name = 
REMARK  6 active torsions:
REMARK  status: ('A' for Active; 'I' for Inactive)
REMARK    1  A    between atoms: C_2  and  C_18
REMARK    2  A    between atoms: N_3  and  C_4
REMARK    3  A    between atoms: C_4  and  C_5
REMARK    4  A    between atoms: C_5  and  C_8
REMARK    5  A    between atoms: C_20  and  N_21
REMARK    6  A    between atoms: C_28  and  O_29
REMARK                            x       y       z     vdW  Elec       q    Type
REMARK                         _______ _______ _______ _____ _____    ______ ____
ROOT
ATOM      1  O   UNL     1       0.885  -0.097   0.015  0.00  0.00    +0.000 OA
ATOM      2  C   UNL     1       2.110  -0.075   0.053  0.00  0.00    +0.000 C 
ATOM      3  N   UNL     1       2.831   0.823   0.798  0.00  0.00    +0.000 N 
ATOM      4  H   UNL     1       3.827   0.909   0.604  0.00  0.00    +0.000 HD
ENDROOT
BRANCH   2   5
ATOM      5  C   UNL     1       2.901  -1.091  -0.689  0.00  0.00    +0.000 A 
ATOM      6  C   UNL     1       2.319  -2.354  -0.854  0.00  0.00    +0.000 A 
ATOM      7  C   UNL     1       3.006  -3.365  -1.544  0.00  0.00    +0.000 A 
ATOM      8  C   UNL     1       4.277  -3.097  -2.068  0.00  0.00    +0.000 A 
ATOM      9  C   UNL     1       4.853  -1.836  -1.913  0.00  0.00    +0.000 A 
ATOM     10  C   UNL     1       4.171  -0.840  -1.219  0.00  0.00    +0.000 A 
BRANCH   7  11
ATOM     11  N   UNL     1       2.408  -4.642  -1.724  0.00  0.00    +0.000 N 
ATOM     12  C   UNL     1       1.155  -5.040  -1.318  0.00  0.00    +0.000 A 
ATOM     13  C   UNL     1       0.995  -6.326  -1.780  0.00  0.00    +0.000 A 
ATOM     14  N   UNL     1       2.121  -6.753  -2.424  0.00  0.00    +0.000 NA
ATOM     15  C   UNL     1       2.953  -5.733  -2.368  0.00  0.00    +0.000 A 
ENDBRANCH   7  11
BRANCH  10  16
ATOM     16  O   UNL     1       4.756   0.386  -1.065  0.00  0.00    +0.000 OA
ATOM     17  H   UNL     1       5.550   0.437  -1.628  0.00  0.00    +0.000 HD
ENDBRANCH  10  16
ENDBRANCH   2   5
BRANCH   3  18
ATOM     18  C   UNL     1       2.175   1.886   1.553  0.00  0.00    +0.000 C 
BRANCH  18  19
ATOM     19  C   UNL     1       3.162   2.788   2.323  0.00  0.00    +0.000 C 
ATOM     20  F   UNL     1       3.880   1.958   3.158  0.00  0.00    +0.000 F 
ATOM     21  F   UNL     1       4.106   3.249   1.443  0.00  0.00    +0.000 F 
BRANCH  19  22
ATOM     22  C   UNL     1       2.502   3.909   3.102  0.00  0.00    +0.000 A 
ATOM     23  C   UNL     1       2.661   3.959   4.503  0.00  0.00    +0.000 A 
ATOM     24  C   UNL     1       2.097   4.988   5.250  0.00  0.00    +0.000 A 
ATOM     25  C   UNL     1       1.374   5.983   4.605  0.00  0.00    +0.000 A 
ATOM     26  C   UNL     1       1.211   5.948   3.212  0.00  0.00    +0.000 A 
ATOM     27  C   UNL     1       0.492   6.955   2.555  0.00  0.00    +0.000 A 
ATOM     28  C   UNL     1       0.340   6.912   1.177  0.00  0.00    +0.000 A 
ATOM     29  C   UNL     1       0.911   5.855   0.502  0.00  0.00    +0.000 A 
ATOM     30  N   UNL     1       1.615   4.870   1.104  0.00  0.00    +0.000 NA
ATOM     31  C   UNL     1       1.775   4.904   2.441  0.00  0.00    +0.000 A 
ENDBRANCH  19  22
ENDBRANCH  18  19
ENDBRANCH   3  18
TORSDOF 6
