REMARK  Name = 
REMARK  4 active torsions:
REMARK  status: ('A' for Active; 'I' for Inactive)
REMARK    1  A    between atoms: C_2  and  C_15
REMARK    2  A    between atoms: N_6  and  C_7
REMARK    3  A    between atoms: C_20  and  O_21
REMARK    4  A    between atoms: O_21  and  C_22
REMARK                            x       y       z     vdW  Elec       q    Type
REMARK                         _______ _______ _______ _____ _____    ______ ____
ROOT
ATOM      1  O   UNL     1       0.975   0.145  -0.165  0.00  0.00    +0.000 OA
ATOM      2  C   UNL     1       2.175   0.330   0.039  0.00  0.00    +0.000 C 
ATOM      3  N   UNL     1       2.733   0.636   1.265  0.00  0.00    +0.000 N 
ATOM      4  C   UNL     1       1.985   0.762   2.431  0.00  0.00    +0.000 A 
ATOM      5  N   UNL     1       0.663   0.614   2.505  0.00  0.00    +0.000 NA
ATOM      6  N   UNL     1       0.337   0.765   3.809  0.00  0.00    +0.000 N 
ATOM      7  C   UNL     1       1.451   1.060   4.566  0.00  0.00    +0.000 A 
ATOM      8  C   UNL     1       2.525   1.062   3.704  0.00  0.00    +0.000 A 
ATOM      9  H   UNL     1       3.731   0.769   1.346  0.00  0.00    +0.000 HD
ENDROOT
BRANCH   6  10
ATOM     10  C   UNL     1      -1.003   0.607   4.286  0.00  0.00    +0.000 A 
ATOM     11  C   UNL     1      -2.014   0.305   3.374  0.00  0.00    +0.000 A 
ATOM     12  C   UNL     1      -3.314   0.129   3.843  0.00  0.00    +0.000 A 
ATOM     13  C   UNL     1      -3.568   0.255   5.203  0.00  0.00    +0.000 A 
ATOM     14  C   UNL     1      -2.508   0.559   6.044  0.00  0.00    +0.000 A 
ATOM     15  N   UNL     1      -1.236   0.740   5.620  0.00  0.00    +0.000 NA
ENDBRANCH   6  10
BRANCH   2  16
ATOM     16  C   UNL     1       3.073   0.235  -1.160  0.00  0.00    +0.000 A 
ATOM     17  C   UNL     1       2.399   0.060  -2.387  0.00  0.00    +0.000 A 
ATOM     18  C   UNL     1       3.113  -0.018  -3.566  0.00  0.00    +0.000 A 
ATOM     19  N   UNL     1       4.446   0.124  -3.624  0.00  0.00    +0.000 NA
ATOM     20  C   UNL     1       5.084   0.299  -2.445  0.00  0.00    +0.000 A 
ATOM     21  C   UNL     1       4.470   0.291  -1.184  0.00  0.00    +0.000 A 
BRANCH  21  22
ATOM     22  O   UNL     1       5.219   0.319  -0.022  0.00  0.00    +0.000 OA
BRANCH  22  23
ATOM     23  C   UNL     1       6.443  -0.337  -0.055  0.00  0.00    +0.000 A 
ATOM     24  C   UNL     1       7.554   0.316   0.489  0.00  0.00    +0.000 A 
ATOM     25  C   UNL     1       8.822  -0.270   0.376  0.00  0.00    +0.000 A 
ATOM     26  C   UNL     1       8.969  -1.489  -0.274  0.00  0.00    +0.000 A 
ATOM     27  F   UNL     1      10.189  -2.021  -0.421  0.00  0.00    +0.000 F 
ATOM     28  C   UNL     1       7.866  -2.165  -0.780  0.00  0.00    +0.000 A 
ATOM     29  C   UNL     1       6.595  -1.605  -0.640  0.00  0.00    +0.000 A 
ENDBRANCH  22  23
ENDBRANCH  21  22
ENDBRANCH   2  16
TORSDOF 4
