REMARK  Name = 
REMARK  4 active torsions:
REMARK  status: ('A' for Active; 'I' for Inactive)
REMARK    1  A    between atoms: C_2  and  C_17
REMARK    2  A    between atoms: N_3  and  C_4
REMARK    3  A    between atoms: N_6  and  C_7
REMARK    4  A    between atoms: C_24  and  C_25
REMARK                            x       y       z     vdW  Elec       q    Type
REMARK                         _______ _______ _______ _____ _____    ______ ____
ROOT
ATOM      1  O   UNL     1       1.282   0.021  -1.130  0.00  0.00    +0.000 OA
ATOM      2  C   UNL     1       2.284   0.176  -0.444  0.00  0.00    +0.000 C 
ATOM      3  N   UNL     1       2.604  -0.509   0.718  0.00  0.00    +0.000 N 
ATOM      4  H   UNL     1       3.487  -0.199   1.124  0.00  0.00    +0.000 HD
ENDROOT
BRANCH   2   5
ATOM      5  C   UNL     1       3.340   1.131  -0.807  0.00  0.00    +0.000 A 
ATOM      6  C   UNL     1       3.424   1.931  -1.923  0.00  0.00    +0.000 A 
ATOM      7  C   UNL     1       2.554   2.246  -3.020  0.00  0.00    +0.000 A 
ATOM      8  N   UNL     1       3.001   2.852  -4.087  0.00  0.00    +0.000 NA
ATOM      9  C   UNL     1       4.346   3.165  -4.139  0.00  0.00    +0.000 A 
ATOM     10  C   UNL     1       5.196   2.989  -3.113  0.00  0.00    +0.000 A 
ATOM     11  N   UNL     1       4.715   2.409  -1.950  0.00  0.00    +0.000 N 
ATOM     12  C   UNL     1       5.265   2.150  -0.713  0.00  0.00    +0.000 A 
ATOM     13  N   UNL     1       4.484   1.308  -0.036  0.00  0.00    +0.000 NA
BRANCH  12  14
ATOM     14  C   UNL     1       6.527   2.792  -0.240  0.00  0.00    +0.000 C 
ATOM     15  F   UNL     1       7.082   3.639  -1.145  0.00  0.00    +0.000 F 
ATOM     16  F   UNL     1       6.316   3.529   0.883  0.00  0.00    +0.000 F 
ATOM     17  F   UNL     1       7.480   1.875   0.064  0.00  0.00    +0.000 F 
ENDBRANCH  12  14
ENDBRANCH   2   5
BRANCH   3  18
ATOM     18  C   UNL     1       1.947  -1.541   1.346  0.00  0.00    +0.000 A 
ATOM     19  C   UNL     1       0.811  -2.123   0.922  0.00  0.00    +0.000 A 
ATOM     20  N   UNL     1       0.203  -3.183   1.605  0.00  0.00    +0.000 N 
ATOM     21  C   UNL     1       0.756  -3.685   2.799  0.00  0.00    +0.000 A 
ATOM     22  O   UNL     1       0.286  -4.562   3.522  0.00  0.00    +0.000 OA
ATOM     23  C   UNL     1       2.014  -3.038   3.254  0.00  0.00    +0.000 A 
ATOM     24  C   UNL     1       2.562  -2.034   2.562  0.00  0.00    +0.000 A 
BRANCH  20  25
ATOM     25  C   UNL     1      -1.041  -3.738   1.150  0.00  0.00    +0.000 A 
ATOM     26  C   UNL     1      -2.067  -2.897   0.695  0.00  0.00    +0.000 A 
ATOM     27  C   UNL     1      -3.310  -3.423   0.334  0.00  0.00    +0.000 A 
ATOM     28  C   UNL     1      -3.532  -4.798   0.387  0.00  0.00    +0.000 A 
ATOM     29  C   UNL     1      -2.510  -5.648   0.801  0.00  0.00    +0.000 A 
ATOM     30  C   UNL     1      -1.276  -5.120   1.190  0.00  0.00    +0.000 A 
ENDBRANCH  20  25
ENDBRANCH   3  18
TORSDOF 4
