REMARK  Name = 
REMARK  7 active torsions:
REMARK  status: ('A' for Active; 'I' for Inactive)
REMARK    1  A    between atoms: C_1  and  C_2
REMARK    2  A    between atoms: C_2  and  C_3
REMARK    3  A    between atoms: C_4  and  C_5
REMARK    4  A    between atoms: N_7  and  C_8
REMARK    5  A    between atoms: N_12  and  C_13
REMARK    6  A    between atoms: C_22  and  C_23
REMARK    7  A    between atoms: C_23  and  C_24
REMARK                            x       y       z     vdW  Elec       q    Type
REMARK                         _______ _______ _______ _____ _____    ______ ____
ROOT
ATOM      1  C   UNL     1       2.303   3.169  -0.341  0.00  0.00    +0.000 C 
ATOM      2  O   UNL     1       1.397   2.693  -1.016  0.00  0.00    +0.000 OA
ATOM      3  N   UNL     1       2.927   4.381  -0.608  0.00  0.00    +0.000 N 
ATOM      4  H   UNL     1       3.837   4.516  -0.180  0.00  0.00    +0.000 HD
ENDROOT
BRANCH   3   5
ATOM      5  C   UNL     1       2.501   5.296  -1.548  0.00  0.00    +0.000 A 
ATOM      6  C   UNL     1       1.250   5.389  -1.997  0.00  0.00    +0.000 A 
ATOM      7  C   UNL     1       0.854   6.372  -3.020  0.00  0.00    +0.000 A 
ATOM      8  O   UNL     1      -0.328   6.344  -3.361  0.00  0.00    +0.000 OA
ATOM      9  N   UNL     1       1.873   7.183  -3.526  0.00  0.00    +0.000 N 
ATOM     10  N   UNL     1       3.183   7.123  -3.068  0.00  0.00    +0.000 NA
ATOM     11  C   UNL     1       3.443   6.268  -2.130  0.00  0.00    +0.000 A 
BRANCH   9  12
ATOM     12  C   UNL     1       1.646   8.078  -4.623  0.00  0.00    +0.000 A 
ATOM     13  C   UNL     1       0.364   8.580  -4.897  0.00  0.00    +0.000 A 
ATOM     14  C   UNL     1       0.098   9.313  -6.055  0.00  0.00    +0.000 A 
ATOM     15  C   UNL     1       1.120   9.575  -6.957  0.00  0.00    +0.000 A 
ATOM     16  C   UNL     1       2.416   9.148  -6.673  0.00  0.00    +0.000 A 
ATOM     17  C   UNL     1       2.682   8.421  -5.503  0.00  0.00    +0.000 A 
ENDBRANCH   9  12
ENDBRANCH   3   5
BRANCH   1  19
ATOM     18  C   UNL     1       2.930   1.081   0.959  0.00  0.00    +0.000 A 
ATOM     19  C   UNL     1       2.858   2.461   0.807  0.00  0.00    +0.000 A 
ATOM     20  C   UNL     1       3.361   3.028   2.014  0.00  0.00    +0.000 A 
ATOM     21  C   UNL     1       3.718   1.996   2.856  0.00  0.00    +0.000 A 
ATOM     22  N   UNL     1       3.499   0.821   2.183  0.00  0.00    +0.000 N 
ATOM     23  H   UNL     1       3.697  -0.104   2.543  0.00  0.00    +0.000 HD
BRANCH  18  25
ATOM     24  C   UNL     1       1.105  -0.521   0.385  0.00  0.00    +0.000 C 
ATOM     25  C   UNL     1       2.507  -0.034   0.053  0.00  0.00    +0.000 C 
ENDBRANCH  18  25
BRANCH  21  26
ATOM     26  C   UNL     1       4.259   2.028   4.247  0.00  0.00    +0.000 C 
BRANCH  26  27
ATOM     27  C   UNL     1       5.760   2.171   4.247  0.00  0.00    +0.000 A 
ATOM     28  C   UNL     1       6.351   3.445   4.222  0.00  0.00    +0.000 A 
ATOM     29  C   UNL     1       7.735   3.579   4.123  0.00  0.00    +0.000 A 
ATOM     30  C   UNL     1       8.541   2.445   4.049  0.00  0.00    +0.000 A 
ATOM     31  C   UNL     1       7.966   1.175   4.090  0.00  0.00    +0.000 A 
ATOM     32  C   UNL     1       6.582   1.038   4.187  0.00  0.00    +0.000 A 
ENDBRANCH  26  27
ENDBRANCH  21  26
ENDBRANCH   1  19
TORSDOF 6
