REMARK  Name = 
REMARK  4 active torsions:
REMARK  status: ('A' for Active; 'I' for Inactive)
REMARK    1  A    between atoms: C_2  and  C_17
REMARK    2  A    between atoms: N_3  and  C_4
REMARK    3  A    between atoms: N_6  and  C_7
REMARK    4  A    between atoms: C_20  and  C_21
REMARK                            x       y       z     vdW  Elec       q    Type
REMARK                         _______ _______ _______ _____ _____    ______ ____
ROOT
ATOM      1  O   UNL     1       2.084  -0.732  -1.094  0.00  0.00    +0.000 OA
ATOM      2  C   UNL     1       3.075  -0.486  -0.410  0.00  0.00    +0.000 C 
ATOM      3  N   UNL     1       3.255  -0.950   0.878  0.00  0.00    +0.000 N 
ATOM      4  H   UNL     1       4.135  -0.659   1.297  0.00  0.00    +0.000 HD
ENDROOT
BRANCH   2   5
ATOM      5  C   UNL     1       4.195   0.307  -0.982  0.00  0.00    +0.000 A 
ATOM      6  N   UNL     1       5.404   0.560  -0.420  0.00  0.00    +0.000 NA
ATOM      7  N   UNL     1       6.167   0.998  -1.489  0.00  0.00    +0.000 N 
ATOM      8  C   UNL     1       7.439   1.573  -1.598  0.00  0.00    +0.000 A 
ATOM      9  C   UNL     1       8.062   1.568  -2.798  0.00  0.00    +0.000 A 
ATOM     10  C   UNL     1       7.323   0.933  -3.916  0.00  0.00    +0.000 A 
ATOM     11  N   UNL     1       6.064   0.633  -3.889  0.00  0.00    +0.000 NA
ATOM     12  C   UNL     1       5.460   0.770  -2.676  0.00  0.00    +0.000 A 
ATOM     13  C   UNL     1       4.147   0.817  -2.299  0.00  0.00    +0.000 A 
BRANCH   8  14
ATOM     14  C   UNL     1       7.959   2.411  -0.495  0.00  0.00    +0.000 C 
ATOM     15  F   UNL     1       7.084   2.656   0.505  0.00  0.00    +0.000 F 
ATOM     16  F   UNL     1       9.085   1.897   0.056  0.00  0.00    +0.000 F 
ATOM     17  F   UNL     1       8.314   3.638  -0.984  0.00  0.00    +0.000 F 
ENDBRANCH   8  14
ENDBRANCH   2   5
BRANCH   3  18
ATOM     18  C   UNL     1       2.381  -1.697   1.647  0.00  0.00    +0.000 A 
ATOM     19  C   UNL     1       1.191  -2.234   1.264  0.00  0.00    +0.000 A 
ATOM     20  N   UNL     1       0.326  -2.938   2.135  0.00  0.00    +0.000 N 
ATOM     21  C   UNL     1       0.718  -3.129   3.487  0.00  0.00    +0.000 A 
ATOM     22  O   UNL     1       0.124  -3.757   4.363  0.00  0.00    +0.000 OA
ATOM     23  C   UNL     1       2.026  -2.545   3.895  0.00  0.00    +0.000 A 
ATOM     24  C   UNL     1       2.797  -1.890   3.019  0.00  0.00    +0.000 A 
BRANCH  20  25
ATOM     25  C   UNL     1      -0.947  -3.491   1.690  0.00  0.00    +0.000 A 
ATOM     26  C   UNL     1      -2.017  -3.713   2.583  0.00  0.00    +0.000 A 
ATOM     27  C   UNL     1      -3.231  -4.285   2.175  0.00  0.00    +0.000 A 
ATOM     28  C   UNL     1      -3.416  -4.640   0.849  0.00  0.00    +0.000 A 
ATOM     29  C   UNL     1      -2.391  -4.411  -0.062  0.00  0.00    +0.000 A 
ATOM     30  C   UNL     1      -1.175  -3.834   0.348  0.00  0.00    +0.000 A 
ENDBRANCH  20  25
ENDBRANCH   3  18
TORSDOF 4
