REMARK  Name = 
REMARK  7 active torsions:
REMARK  status: ('A' for Active; 'I' for Inactive)
REMARK    1  A    between atoms: C_1  and  C_2
REMARK    2  A    between atoms: C_5  and  C_6
REMARK    3  A    between atoms: C_6  and  N_7
REMARK    4  A    between atoms: C_6  and  C_22
REMARK    5  A    between atoms: C_8  and  C_10
REMARK    6  A    between atoms: C_14  and  C_15
REMARK    7  A    between atoms: C_28  and  C_29
REMARK                            x       y       z     vdW  Elec       q    Type
REMARK                         _______ _______ _______ _____ _____    ______ ____
ROOT
ATOM      1  N   UNL     1      -3.185  -1.407  -1.384  0.00  0.00    +0.000 N 
ATOM      2  C   UNL     1      -4.036  -0.323  -1.484  0.00  0.00    +0.000 C 
ATOM      3  O   UNL     1      -4.197   0.507  -0.600  0.00  0.00    +0.000 OA
ATOM      4  H   UNL     1      -2.922  -1.928  -2.204  0.00  0.00    +0.000 HD
ENDROOT
BRANCH   2   5
ATOM      5  C   UNL     1      -4.841  -0.221  -2.744  0.00  0.00    +0.000 A 
ATOM      6  C   UNL     1      -5.051  -1.347  -3.552  0.00  0.00    +0.000 A 
ATOM      7  C   UNL     1      -5.944  -1.295  -4.617  0.00  0.00    +0.000 A 
ATOM      8  C   UNL     1      -6.653  -0.122  -4.870  0.00  0.00    +0.000 A 
ATOM      9  C   UNL     1      -6.456   1.017  -4.077  0.00  0.00    +0.000 A 
ATOM     10  C   UNL     1      -5.526   0.978  -3.028  0.00  0.00    +0.000 A 
BRANCH   9  11
ATOM     11  C   UNL     1      -7.337   2.175  -4.343  0.00  0.00    +0.000 A 
ATOM     12  N   UNL     1      -8.371   2.137  -5.139  0.00  0.00    +0.000 NA
ATOM     13  N   UNL     1      -8.907   3.392  -5.055  0.00  0.00    +0.000 N 
ATOM     14  C   UNL     1      -8.167   4.179  -4.188  0.00  0.00    +0.000 A 
ATOM     15  O   UNL     1      -8.373   5.338  -3.874  0.00  0.00    +0.000 OA
ATOM     16  N   UNL     1      -7.152   3.379  -3.744  0.00  0.00    +0.000 N 
ATOM     17  H   UNL     1      -9.746   3.668  -5.544  0.00  0.00    +0.000 HD
ATOM     18  H   UNL     1      -6.455   3.683  -3.095  0.00  0.00    +0.000 HD
ENDBRANCH   9  11
ENDBRANCH   2   5
BRANCH   1  19
ATOM     19  C   UNL     1      -2.455  -1.723  -0.163  0.00  0.00    +0.000 C 
BRANCH  19  24
ATOM     20  C   UNL     1       2.576   1.276   0.110  0.00  0.00    +0.000 C 
ATOM     21  C   UNL     1       1.319   0.465   0.029  0.00  0.00    +0.000 A 
ATOM     22  C   UNL     1       0.783   0.082  -1.197  0.00  0.00    +0.000 A 
ATOM     23  C   UNL     1      -0.421  -0.624  -1.248  0.00  0.00    +0.000 A 
ATOM     24  C   UNL     1      -1.118  -0.980  -0.073  0.00  0.00    +0.000 A 
ATOM     25  C   UNL     1      -0.534  -0.656   1.173  0.00  0.00    +0.000 A 
ATOM     26  C   UNL     1      -1.139  -1.040   2.498  0.00  0.00    +0.000 C 
ATOM     27  C   UNL     1       0.653   0.099   1.203  0.00  0.00    +0.000 A 
ENDBRANCH  19  24
BRANCH  19  28
ATOM     28  C   UNL     1      -2.347  -3.244  -0.014  0.00  0.00    +0.000 A 
ATOM     29  C   UNL     1      -3.425  -3.957   0.542  0.00  0.00    +0.000 A 
ATOM     30  C   UNL     1      -3.337  -5.338   0.767  0.00  0.00    +0.000 A 
ATOM     31  C   UNL     1      -2.178  -6.028   0.424  0.00  0.00    +0.000 A 
ATOM     32  C   UNL     1      -1.119  -5.348  -0.171  0.00  0.00    +0.000 A 
ATOM     33  C   UNL     1      -1.206  -3.970  -0.397  0.00  0.00    +0.000 A 
ENDBRANCH  19  28
ENDBRANCH   1  19
TORSDOF 5
