REMARK  Name = 
REMARK  8 active torsions:
REMARK  status: ('A' for Active; 'I' for Inactive)
REMARK    1  A    between atoms: C_1  and  O_2
REMARK    2  A    between atoms: O_2  and  C_3
REMARK    3  A    between atoms: C_3  and  C_5
REMARK    4  A    between atoms: C_5  and  N_6
REMARK    5  A    between atoms: C_5  and  C_22
REMARK    6  A    between atoms: C_7  and  C_9
REMARK    7  A    between atoms: C_11  and  C_12
REMARK    8  A    between atoms: C_19  and  O_20
REMARK                            x       y       z     vdW  Elec       q    Type
REMARK                         _______ _______ _______ _____ _____    ______ ____
ROOT
ATOM      1  N   UNL     1       5.194  -0.998  -0.915  0.00  0.00    +0.000 N 
ATOM      2  C   UNL     1       4.988  -1.583   0.309  0.00  0.00    +0.000 C 
ATOM      3  O   UNL     1       4.548  -0.985   1.280  0.00  0.00    +0.000 OA
ATOM      4  H   UNL     1       5.485  -1.557  -1.706  0.00  0.00    +0.000 HD
ENDROOT
BRANCH   2   5
ATOM      5  C   UNL     1       5.358  -3.016   0.421  0.00  0.00    +0.000 A 
ATOM      6  C   UNL     1       5.819  -3.477   1.655  0.00  0.00    +0.000 A 
ATOM      7  C   UNL     1       6.176  -4.817   1.796  0.00  0.00    +0.000 A 
ATOM      8  N   UNL     1       6.098  -5.684   0.754  0.00  0.00    +0.000 NA
ATOM      9  C   UNL     1       5.633  -5.196  -0.408  0.00  0.00    +0.000 A 
ATOM     10  C   UNL     1       5.246  -3.898  -0.643  0.00  0.00    +0.000 A 
BRANCH   7  11
ATOM     11  C   UNL     1       6.686  -5.348   3.077  0.00  0.00    +0.000 A 
ATOM     12  C   UNL     1       6.254  -4.818   4.309  0.00  0.00    +0.000 A 
ATOM     13  C   UNL     1       6.811  -5.233   5.521  0.00  0.00    +0.000 A 
ATOM     14  C   UNL     1       7.799  -6.210   5.530  0.00  0.00    +0.000 A 
ATOM     15  C   UNL     1       8.210  -6.790   4.333  0.00  0.00    +0.000 A 
ATOM     16  C   UNL     1       7.655  -6.366   3.119  0.00  0.00    +0.000 A 
ENDBRANCH   7  11
BRANCH   9  17
ATOM     17  O   UNL     1       5.557  -6.112  -1.406  0.00  0.00    +0.000 OA
ATOM     18  H   UNL     1       5.873  -6.905  -0.940  0.00  0.00    +0.000 HD
ENDBRANCH   9  17
ENDBRANCH   2   5
BRANCH   1  19
ATOM     19  C   UNL     1       4.714   0.352  -1.205  0.00  0.00    +0.000 C 
BRANCH  19  20
ATOM     20  C   UNL     1       5.619   1.059  -2.199  0.00  0.00    +0.000 A 
ATOM     21  C   UNL     1       5.894   2.430  -2.049  0.00  0.00    +0.000 A 
ATOM     22  C   UNL     1       6.680   3.111  -2.985  0.00  0.00    +0.000 A 
ATOM     23  C   UNL     1       7.200   2.434  -4.087  0.00  0.00    +0.000 A 
ATOM     24  C   UNL     1       6.930   1.081  -4.245  0.00  0.00    +0.000 A 
ATOM     25  F   UNL     1       7.428   0.431  -5.307  0.00  0.00    +0.000 F 
ATOM     26  C   UNL     1       6.146   0.401  -3.317  0.00  0.00    +0.000 A 
ATOM     27  F   UNL     1       5.898  -0.906  -3.501  0.00  0.00    +0.000 F 
ENDBRANCH  19  20
BRANCH  19  28
ATOM     28  C   UNL     1       3.243   0.393  -1.687  0.00  0.00    +0.000 C 
ATOM     29  O   UNL     1       2.652   1.427  -1.985  0.00  0.00    +0.000 OA
BRANCH  28  31
ATOM     30  C   UNL     1       1.306  -0.857  -2.124  0.00  0.00    +0.000 C 
ATOM     31  O   UNL     1       2.682  -0.851  -1.743  0.00  0.00    +0.000 OA
ENDBRANCH  28  31
ENDBRANCH  19  28
ENDBRANCH   1  19
TORSDOF 7
