REMARK  Name = 
REMARK  6 active torsions:
REMARK  status: ('A' for Active; 'I' for Inactive)
REMARK    1  A    between atoms: C_1  and  N_2
REMARK    2  A    between atoms: C_9  and  C_10
REMARK    3  A    between atoms: C_10  and  N_11
REMARK    4  A    between atoms: C_12  and  C_14
REMARK    5  A    between atoms: C_18  and  O_19
REMARK    6  A    between atoms: O_19  and  C_20
REMARK                            x       y       z     vdW  Elec       q    Type
REMARK                         _______ _______ _______ _____ _____    ______ ____
ROOT
ATOM      1  N   UNL     1      -1.193   3.249   0.200  0.00  0.00    +0.000 N 
ATOM      2  C   UNL     1      -1.801   4.491   0.292  0.00  0.00    +0.000 C 
ATOM      3  O   UNL     1      -1.194   5.541   0.407  0.00  0.00    +0.000 OA
ATOM      4  H   UNL     1      -1.726   2.493  -0.208  0.00  0.00    +0.000 HD
ENDROOT
BRANCH   2   5
ATOM      5  C   UNL     1      -3.294   4.470   0.233  0.00  0.00    +0.000 A 
ATOM      6  C   UNL     1      -3.990   3.352   0.698  0.00  0.00    +0.000 A 
ATOM      7  C   UNL     1      -5.366   3.357   0.622  0.00  0.00    +0.000 A 
ATOM      8  N   UNL     1      -6.074   4.383   0.119  0.00  0.00    +0.000 NA
ATOM      9  C   UNL     1      -5.390   5.457  -0.337  0.00  0.00    +0.000 A 
ATOM     10  C   UNL     1      -4.006   5.566  -0.272  0.00  0.00    +0.000 A 
BRANCH   9  11
ATOM     11  O   UNL     1      -6.104   6.499  -0.924  0.00  0.00    +0.000 OA
BRANCH  11  12
ATOM     12  C   UNL     1      -7.319   6.176  -1.503  0.00  0.00    +0.000 A 
ATOM     13  C   UNL     1      -7.488   5.046  -2.317  0.00  0.00    +0.000 A 
ATOM     14  C   UNL     1      -8.736   4.763  -2.876  0.00  0.00    +0.000 A 
ATOM     15  C   UNL     1      -9.801   5.630  -2.656  0.00  0.00    +0.000 A 
ATOM     16  F   UNL     1     -10.993   5.356  -3.201  0.00  0.00    +0.000 F 
ATOM     17  C   UNL     1      -9.642   6.776  -1.886  0.00  0.00    +0.000 A 
ATOM     18  C   UNL     1      -8.399   7.043  -1.315  0.00  0.00    +0.000 A 
ATOM     19  F   UNL     1      -8.257   8.151  -0.575  0.00  0.00    +0.000 F 
ENDBRANCH  11  12
ENDBRANCH   9  11
ENDBRANCH   2   5
BRANCH   1  20
ATOM     20  C   UNL     1       0.244   3.077   0.204  0.00  0.00    +0.000 C 
BRANCH  20  29
ATOM     21  C   UNL     1       1.004   3.304   3.506  0.00  0.00    +0.000 C 
ATOM     22  N   UNL     1       1.216   1.917   3.174  0.00  0.00    +0.000 N 
ATOM     23  C   UNL     1       1.653   0.995   4.088  0.00  0.00    +0.000 A 
ATOM     24  N   UNL     1       1.758  -0.199   3.565  0.00  0.00    +0.000 NA
ATOM     25  C   UNL     1       1.384  -0.044   2.255  0.00  0.00    +0.000 A 
ATOM     26  C   UNL     1       1.333  -1.033   1.265  0.00  0.00    +0.000 A 
ATOM     27  C   UNL     1       0.923  -0.681  -0.015  0.00  0.00    +0.000 A 
ATOM     28  C   UNL     1       0.577   0.639  -0.305  0.00  0.00    +0.000 A 
ATOM     29  C   UNL     1       0.627   1.683   0.658  0.00  0.00    +0.000 A 
ATOM     30  C   UNL     1       1.034   1.284   1.959  0.00  0.00    +0.000 A 
ENDBRANCH  20  29
ENDBRANCH   1  20
TORSDOF 5
