REMARK  Name = 
REMARK  5 active torsions:
REMARK  status: ('A' for Active; 'I' for Inactive)
REMARK    1  A    between atoms: C_2  and  C_18
REMARK    2  A    between atoms: N_3  and  C_4
REMARK    3  A    between atoms: C_4  and  C_5
REMARK    4  A    between atoms: C_10  and  C_11
REMARK    5  A    between atoms: C_23  and  O_24
REMARK                            x       y       z     vdW  Elec       q    Type
REMARK                         _______ _______ _______ _____ _____    ______ ____
ROOT
ATOM      1  O   UNL     1       1.111   0.253   0.173  0.00  0.00    +0.000 OA
ATOM      2  C   UNL     1       2.331   0.226   0.069  0.00  0.00    +0.000 C 
ATOM      3  N   UNL     1       3.028   0.861  -0.926  0.00  0.00    +0.000 N 
ATOM      4  H   UNL     1       4.036   0.816  -1.024  0.00  0.00    +0.000 HD
ENDROOT
BRANCH   2   5
ATOM      5  C   UNL     1       3.146  -0.535   1.039  0.00  0.00    +0.000 A 
ATOM      6  C   UNL     1       4.397  -0.072   1.454  0.00  0.00    +0.000 A 
ATOM      7  C   UNL     1       5.172  -0.816   2.327  0.00  0.00    +0.000 A 
ATOM      8  N   UNL     1       6.379  -0.347   2.690  0.00  0.00    +0.000 NA
ATOM      9  C   UNL     1       7.094  -1.135   3.525  0.00  0.00    +0.000 A 
ATOM     10  C   UNL     1       6.618  -2.348   3.984  0.00  0.00    +0.000 A 
ATOM     11  N   UNL     1       5.413  -2.826   3.640  0.00  0.00    +0.000 NA
ATOM     12  C   UNL     1       4.682  -2.059   2.811  0.00  0.00    +0.000 A 
ATOM     13  C   UNL     1       3.421  -2.487   2.419  0.00  0.00    +0.000 A 
ATOM     14  C   UNL     1       2.643  -1.729   1.541  0.00  0.00    +0.000 A 
BRANCH  10  15
ATOM     15  O   UNL     1       7.337  -3.151   4.818  0.00  0.00    +0.000 OA
ATOM     16  H   UNL     1       8.176  -2.714   5.020  0.00  0.00    +0.000 HD
ENDBRANCH  10  15
ENDBRANCH   2   5
BRANCH   3  17
ATOM     17  C   UNL     1       2.347   1.736  -1.850  0.00  0.00    +0.000 C 
BRANCH  17  18
ATOM     18  C   UNL     1       3.286   2.456  -2.796  0.00  0.00    +0.000 A 
ATOM     19  N   UNL     1       4.621   2.235  -2.548  0.00  0.00    +0.000 NA
ATOM     20  C   UNL     1       5.522   2.819  -3.358  0.00  0.00    +0.000 A 
ATOM     21  C   UNL     1       5.173   3.628  -4.416  0.00  0.00    +0.000 A 
ATOM     22  C   UNL     1       3.817   3.859  -4.650  0.00  0.00    +0.000 A 
ATOM     23  C   UNL     1       2.813   3.278  -3.847  0.00  0.00    +0.000 A 
BRANCH  23  24
ATOM     24  C   UNL     1       1.373   3.516  -4.171  0.00  0.00    +0.000 A 
ATOM     25  C   UNL     1       0.937   3.612  -5.511  0.00  0.00    +0.000 A 
ATOM     26  C   UNL     1      -0.415   3.784  -5.839  0.00  0.00    +0.000 A 
ATOM     27  C   UNL     1      -1.365   3.825  -4.832  0.00  0.00    +0.000 A 
ATOM     28  F   UNL     1      -2.662   3.943  -5.142  0.00  0.00    +0.000 F 
ATOM     29  C   UNL     1      -0.981   3.759  -3.505  0.00  0.00    +0.000 A 
ATOM     30  C   UNL     1       0.377   3.654  -3.185  0.00  0.00    +0.000 A 
ENDBRANCH  23  24
ENDBRANCH  17  18
ENDBRANCH   3  17
TORSDOF 5
