REMARK  Name = 
REMARK  5 active torsions:
REMARK  status: ('A' for Active; 'I' for Inactive)
REMARK    1  A    between atoms: C_1  and  C_2
REMARK    2  A    between atoms: C_11  and  C_12
REMARK    3  A    between atoms: N_14  and  C_15
REMARK    4  A    between atoms: C_15  and  C_16
REMARK    5  A    between atoms: C_20  and  C_21
REMARK                            x       y       z     vdW  Elec       q    Type
REMARK                         _______ _______ _______ _____ _____    ______ ____
ROOT
ATOM      1  C   UNL     1       5.540  -4.791  -0.161  0.00  0.00    +0.000 C 
ATOM      2  O   UNL     1       6.764  -4.734  -0.092  0.00  0.00    +0.000 OA
ATOM      3  N   UNL     1       4.846  -5.973  -0.232  0.00  0.00    +0.000 N 
ATOM      4  H   UNL     1       3.830  -5.935  -0.141  0.00  0.00    +0.000 HD
ENDROOT
BRANCH   1  15
ATOM      5  C   UNL     1       3.293   1.454  -0.691  0.00  0.00    +0.000 C 
ATOM      6  C   UNL     1       2.597   0.180  -0.306  0.00  0.00    +0.000 A 
ATOM      7  C   UNL     1       1.238   0.217   0.041  0.00  0.00    +0.000 A 
ATOM      8  F   UNL     1       0.580   1.386   0.044  0.00  0.00    +0.000 F 
ATOM      9  C   UNL     1       0.536  -0.932   0.395  0.00  0.00    +0.000 A 
ATOM     10  C   UNL     1       1.185  -2.161   0.397  0.00  0.00    +0.000 A 
ATOM     11  C   UNL     1       2.542  -2.221   0.058  0.00  0.00    +0.000 A 
ATOM     12  C   UNL     1       3.264  -1.059  -0.291  0.00  0.00    +0.000 A 
ATOM     13  N   UNL     1       4.637  -1.173  -0.554  0.00  0.00    +0.000 N 
ATOM     14  C   UNL     1       5.285  -2.381  -0.476  0.00  0.00    +0.000 A 
ATOM     15  C   UNL     1       4.703  -3.557  -0.190  0.00  0.00    +0.000 A 
ATOM     16  C   UNL     1       3.238  -3.536   0.061  0.00  0.00    +0.000 A 
ATOM     17  O   UNL     1       2.610  -4.572   0.265  0.00  0.00    +0.000 OA
ATOM     18  H   UNL     1       5.158  -0.368  -0.882  0.00  0.00    +0.000 HD
ENDBRANCH   1  15
BRANCH   3  19
ATOM     19  C   UNL     1       5.496  -7.257  -0.104  0.00  0.00    +0.000 C 
BRANCH  19  20
ATOM     20  C   UNL     1       4.817  -8.313  -0.928  0.00  0.00    +0.000 A 
ATOM     21  C   UNL     1       4.325  -9.473  -0.346  0.00  0.00    +0.000 A 
ATOM     22  N   UNL     1       3.739 -10.472  -1.038  0.00  0.00    +0.000 NA
ATOM     23  C   UNL     1       3.634 -10.305  -2.379  0.00  0.00    +0.000 A 
ATOM     24  C   UNL     1       4.091  -9.195  -3.094  0.00  0.00    +0.000 A 
ATOM     25  C   UNL     1       4.699  -8.191  -2.321  0.00  0.00    +0.000 A 
BRANCH  24  26
ATOM     26  C   UNL     1       3.931  -9.085  -4.557  0.00  0.00    +0.000 A 
ATOM     27  C   UNL     1       3.980 -10.203  -5.405  0.00  0.00    +0.000 A 
ATOM     28  C   UNL     1       3.783 -10.067  -6.780  0.00  0.00    +0.000 A 
ATOM     29  C   UNL     1       3.551  -8.802  -7.288  0.00  0.00    +0.000 A 
ATOM     30  N   UNL     1       3.510  -7.692  -6.526  0.00  0.00    +0.000 NA
ATOM     31  C   UNL     1       3.696  -7.862  -5.192  0.00  0.00    +0.000 A 
ENDBRANCH  24  26
ENDBRANCH  19  20
ENDBRANCH   3  19
TORSDOF 4
