REMARK  Name = 
REMARK  7 active torsions:
REMARK  status: ('A' for Active; 'I' for Inactive)
REMARK    1  A    between atoms: C_1  and  O_2
REMARK    2  A    between atoms: O_2  and  C_3
REMARK    3  A    between atoms: C_3  and  C_5
REMARK    4  A    between atoms: C_9  and  C_10
REMARK    5  A    between atoms: N_12  and  C_13
REMARK    6  A    between atoms: C_13  and  C_14
REMARK    7  A    between atoms: C_17  and  C_18
REMARK                            x       y       z     vdW  Elec       q    Type
REMARK                         _______ _______ _______ _____ _____    ______ ____
ROOT
ATOM      1  C   UNL     1       1.522  -5.035  -0.827  0.00  0.00    +0.000 A 
ATOM      2  C   UNL     1       0.845  -6.251  -0.814  0.00  0.00    +0.000 A 
ATOM      3  C   UNL     1      -0.547  -6.261  -0.778  0.00  0.00    +0.000 A 
ATOM      4  C   UNL     1      -1.323  -5.075  -0.708  0.00  0.00    +0.000 A 
ATOM      5  C   UNL     1      -0.633  -3.865  -0.791  0.00  0.00    +0.000 A 
ATOM      6  C   UNL     1       0.772  -3.848  -0.860  0.00  0.00    +0.000 A 
ENDROOT
BRANCH   4   7
ATOM      7  C   UNL     1      -2.790  -5.191  -0.482  0.00  0.00    +0.000 A 
ATOM      8  C   UNL     1      -3.213  -6.298   0.284  0.00  0.00    +0.000 A 
ATOM      9  C   UNL     1      -4.538  -6.681   0.324  0.00  0.00    +0.000 A 
ATOM     10  C   UNL     1      -5.485  -5.895  -0.270  0.00  0.00    +0.000 A 
ATOM     11  C   UNL     1      -6.788  -6.364  -0.299  0.00  0.00    +0.000 A 
ATOM     12  C   UNL     1      -7.734  -5.446   0.107  0.00  0.00    +0.000 A 
ATOM     13  C   UNL     1      -7.522  -4.112  -0.232  0.00  0.00    +0.000 A 
ATOM     14  C   UNL     1      -6.290  -3.714  -0.774  0.00  0.00    +0.000 A 
ATOM     15  C   UNL     1      -5.179  -4.585  -0.710  0.00  0.00    +0.000 A 
ATOM     16  C   UNL     1      -3.800  -4.306  -0.928  0.00  0.00    +0.000 A 
ENDBRANCH   4   7
BRANCH   1  17
ATOM     17  C   UNL     1       3.025  -5.006  -0.801  0.00  0.00    +0.000 C 
BRANCH  17  20
ATOM     18  C   UNL     1       3.982  -3.914  -2.795  0.00  0.00    +0.000 C 
ATOM     19  O   UNL     1       3.854  -2.784  -2.332  0.00  0.00    +0.000 OA
ATOM     20  N   UNL     1       3.591  -5.051  -2.123  0.00  0.00    +0.000 N 
ATOM     21  H   UNL     1       3.589  -5.913  -2.657  0.00  0.00    +0.000 HD
BRANCH  18  26
ATOM     22  C   UNL     1       5.403  -3.323  -4.897  0.00  0.00    +0.000 A 
ATOM     23  C   UNL     1       5.571  -3.989  -6.096  0.00  0.00    +0.000 A 
ATOM     24  N   UNL     1       4.905  -5.168  -5.979  0.00  0.00    +0.000 N 
ATOM     25  N   UNL     1       4.313  -5.335  -4.782  0.00  0.00    +0.000 NA
ATOM     26  C   UNL     1       4.561  -4.178  -4.125  0.00  0.00    +0.000 A 
ATOM     27  H   UNL     1       4.824  -5.909  -6.667  0.00  0.00    +0.000 HD
BRANCH  22  28
ATOM     28  C   UNL     1       6.004  -2.045  -4.573  0.00  0.00    +0.000 C 
ATOM     29  O   UNL     1       6.293  -1.214  -5.426  0.00  0.00    +0.000 OA
BRANCH  28  31
ATOM     30  C   UNL     1       6.951  -0.697  -2.912  0.00  0.00    +0.000 C 
ATOM     31  O   UNL     1       6.312  -1.926  -3.252  0.00  0.00    +0.000 OA
ENDBRANCH  28  31
ENDBRANCH  22  28
ENDBRANCH  18  26
ENDBRANCH  17  20
ENDBRANCH   1  17
TORSDOF 6
