REMARK  Name = 
REMARK  4 active torsions:
REMARK  status: ('A' for Active; 'I' for Inactive)
REMARK    1  A    between atoms: C_2  and  C_3
REMARK    2  A    between atoms: C_5  and  C_6
REMARK    3  A    between atoms: C_13  and  N_14
REMARK    4  A    between atoms: C_15  and  C_17
REMARK                            x       y       z     vdW  Elec       q    Type
REMARK                         _______ _______ _______ _____ _____    ______ ____
ROOT
ATOM      1  N   UNL     1       2.498   2.390   0.068  0.00  0.00    +0.000 N 
ATOM      2  C   UNL     1       3.872   2.465  -0.049  0.00  0.00    +0.000 C 
ATOM      3  O   UNL     1       4.624   1.503  -0.204  0.00  0.00    +0.000 OA
ATOM      4  H   UNL     1       1.994   3.276   0.145  0.00  0.00    +0.000 HD
ENDROOT
BRANCH   2   5
ATOM      5  C   UNL     1       4.473   3.824   0.056  0.00  0.00    +0.000 A 
ATOM      6  C   UNL     1       5.815   3.869   0.095  0.00  0.00    +0.000 A 
ATOM      7  N   UNL     1       6.563   4.984   0.336  0.00  0.00    +0.000 N 
ATOM      8  C   UNL     1       5.945   6.196   0.645  0.00  0.00    +0.000 A 
ATOM      9  C   UNL     1       6.689   7.247   1.181  0.00  0.00    +0.000 A 
ATOM     10  C   UNL     1       6.059   8.443   1.496  0.00  0.00    +0.000 A 
ATOM     11  F   UNL     1       6.759   9.412   2.098  0.00  0.00    +0.000 F 
ATOM     12  C   UNL     1       4.713   8.640   1.214  0.00  0.00    +0.000 A 
ATOM     13  C   UNL     1       3.962   7.581   0.710  0.00  0.00    +0.000 A 
ATOM     14  F   UNL     1       2.663   7.793   0.461  0.00  0.00    +0.000 F 
ATOM     15  C   UNL     1       4.551   6.337   0.491  0.00  0.00    +0.000 A 
ATOM     16  C   UNL     1       3.740   5.114   0.204  0.00  0.00    +0.000 A 
ATOM     17  O   UNL     1       2.513   5.133   0.157  0.00  0.00    +0.000 OA
ATOM     18  H   UNL     1       7.573   4.896   0.374  0.00  0.00    +0.000 HD
ENDBRANCH   2   5
BRANCH   1  23
ATOM     19  C   UNL     1      -0.433   0.128   0.084  0.00  0.00    +0.000 A 
ATOM     20  C   UNL     1       0.161  -1.137  -0.004  0.00  0.00    +0.000 A 
ATOM     21  C   UNL     1       1.553  -1.274  -0.034  0.00  0.00    +0.000 A 
ATOM     22  C   UNL     1       2.307  -0.085   0.011  0.00  0.00    +0.000 A 
ATOM     23  C   UNL     1       1.731   1.197   0.059  0.00  0.00    +0.000 A 
ATOM     24  C   UNL     1       0.348   1.290   0.113  0.00  0.00    +0.000 A 
BRANCH  21  25
ATOM     25  C   UNL     1       2.231  -2.592  -0.096  0.00  0.00    +0.000 A 
ATOM     26  C   UNL     1       3.446  -2.762  -0.782  0.00  0.00    +0.000 A 
ATOM     27  C   UNL     1       4.075  -3.998  -0.772  0.00  0.00    +0.000 A 
ATOM     28  N   UNL     1       3.584  -5.084  -0.143  0.00  0.00    +0.000 NA
ATOM     29  C   UNL     1       2.414  -4.920   0.503  0.00  0.00    +0.000 A 
ATOM     30  C   UNL     1       1.715  -3.720   0.555  0.00  0.00    +0.000 A 
ENDBRANCH  21  25
BRANCH  19  32
ATOM     31  N   UNL     1      -3.013   0.311   0.178  0.00  0.00    +0.000 NA
ATOM     32  C   UNL     1      -1.859   0.233   0.132  0.00  0.00    +0.000 C 
ENDBRANCH  19  32
ENDBRANCH   1  23
TORSDOF 4
