REMARK  Name = 
REMARK  6 active torsions:
REMARK  status: ('A' for Active; 'I' for Inactive)
REMARK    1  A    between atoms: C_2  and  O_3
REMARK    2  A    between atoms: C_2  and  C_18
REMARK    3  A    between atoms: O_3  and  C_4
REMARK    4  A    between atoms: C_4  and  C_5
REMARK    5  A    between atoms: C_4  and  C_12
REMARK    6  A    between atoms: C_22  and  C_23
REMARK                            x       y       z     vdW  Elec       q    Type
REMARK                         _______ _______ _______ _____ _____    ______ ____
ROOT
ATOM      1  O   UNL     1       3.102   0.247   1.127  0.00  0.00    +0.000 OA
ATOM      2  C   UNL     1       2.530   0.230   0.050  0.00  0.00    +0.000 C 
ENDROOT
BRANCH   2   3
ATOM      3  C   UNL     1       1.069   0.501  -0.089  0.00  0.00    +0.000 A 
ATOM      4  C   UNL     1       0.436   0.571  -1.339  0.00  0.00    +0.000 A 
ATOM      5  C   UNL     1      -0.946   0.759  -1.419  0.00  0.00    +0.000 A 
ATOM      6  C   UNL     1      -1.705   0.863  -0.254  0.00  0.00    +0.000 A 
ATOM      7  C   UNL     1      -1.085   0.808   1.000  0.00  0.00    +0.000 A 
ATOM      8  C   UNL     1       0.304   0.644   1.083  0.00  0.00    +0.000 A 
BRANCH   7   9
ATOM      9  C   UNL     1      -1.947   0.808   2.215  0.00  0.00    +0.000 A 
ATOM     10  N   UNL     1      -3.055   0.128   2.192  0.00  0.00    +0.000 NA
ATOM     11  N   UNL     1      -3.806   0.127   3.332  0.00  0.00    +0.000 N 
ATOM     12  C   UNL     1      -3.496   0.781   4.496  0.00  0.00    +0.000 A 
ATOM     13  O   UNL     1      -4.194   0.734   5.504  0.00  0.00    +0.000 OA
ATOM     14  C   UNL     1      -2.251   1.571   4.474  0.00  0.00    +0.000 A 
ATOM     15  C   UNL     1      -1.484   1.597   3.381  0.00  0.00    +0.000 A 
ATOM     16  H   UNL     1      -4.650  -0.437   3.319  0.00  0.00    +0.000 HD
ENDBRANCH   7   9
ENDBRANCH   2   3
BRANCH   2  17
ATOM     17  O   UNL     1       3.079  -0.068  -1.151  0.00  0.00    +0.000 OA
BRANCH  17  18
ATOM     18  C   UNL     1       4.498  -0.358  -1.170  0.00  0.00    +0.000 C 
BRANCH  18  19
ATOM     19  C   UNL     1       4.744  -1.697  -1.866  0.00  0.00    +0.000 A 
ATOM     20  C   UNL     1       3.879  -2.186  -2.858  0.00  0.00    +0.000 A 
ATOM     21  C   UNL     1       4.178  -3.367  -3.532  0.00  0.00    +0.000 A 
ATOM     22  F   UNL     1       3.354  -3.797  -4.497  0.00  0.00    +0.000 F 
ATOM     23  C   UNL     1       5.322  -4.095  -3.234  0.00  0.00    +0.000 A 
ATOM     24  C   UNL     1       6.184  -3.636  -2.241  0.00  0.00    +0.000 A 
ATOM     25  C   UNL     1       5.901  -2.443  -1.565  0.00  0.00    +0.000 A 
ENDBRANCH  18  19
BRANCH  18  26
ATOM     26  C   UNL     1       5.218   0.795  -1.871  0.00  0.00    +0.000 A 
ATOM     27  C   UNL     1       4.880   1.164  -3.176  0.00  0.00    +0.000 A 
ATOM     28  C   UNL     1       5.543   2.230  -3.778  0.00  0.00    +0.000 A 
ATOM     29  C   UNL     1       6.522   2.909  -3.068  0.00  0.00    +0.000 A 
ATOM     30  C   UNL     1       6.809   2.484  -1.783  0.00  0.00    +0.000 A 
ATOM     31  N   UNL     1       6.186   1.450  -1.174  0.00  0.00    +0.000 NA
ENDBRANCH  18  26
ENDBRANCH  17  18
ENDBRANCH   2  17
TORSDOF 6
