REMARK  Name = 
REMARK  5 active torsions:
REMARK  status: ('A' for Active; 'I' for Inactive)
REMARK    1  A    between atoms: C_2  and  C_3
REMARK    2  A    between atoms: C_11  and  C_12
REMARK    3  A    between atoms: N_14  and  C_15
REMARK    4  A    between atoms: C_16  and  C_17
REMARK    5  A    between atoms: N_21  and  C_22
REMARK                            x       y       z     vdW  Elec       q    Type
REMARK                         _______ _______ _______ _____ _____    ______ ____
ROOT
ATOM      1  C   UNL     1       0.231  -3.322  -0.420  0.00  0.00    +0.000 C 
ATOM      2  O   UNL     1       1.407  -3.635  -0.594  0.00  0.00    +0.000 OA
ATOM      3  N   UNL     1      -0.749  -4.283  -0.152  0.00  0.00    +0.000 N 
ATOM      4  H   UNL     1      -1.690  -4.043  -0.443  0.00  0.00    +0.000 HD
ENDROOT
BRANCH   1  13
ATOM      5  C   UNL     1      -1.672  -0.057   0.043  0.00  0.00    +0.000 A 
ATOM      6  C   UNL     1      -1.067   0.768  -0.910  0.00  0.00    +0.000 A 
ATOM      7  C   UNL     1      -0.009   0.303  -1.706  0.00  0.00    +0.000 A 
ATOM      8  C   UNL     1       0.569   1.168  -2.657  0.00  0.00    +0.000 A 
ATOM      9  C   UNL     1       1.628   0.758  -3.461  0.00  0.00    +0.000 A 
ATOM     10  C   UNL     1       2.140  -0.518  -3.307  0.00  0.00    +0.000 A 
ATOM     11  C   UNL     1       1.573  -1.389  -2.370  0.00  0.00    +0.000 A 
ATOM     12  C   UNL     1       0.468  -1.025  -1.552  0.00  0.00    +0.000 A 
ATOM     13  C   UNL     1      -0.194  -1.883  -0.606  0.00  0.00    +0.000 A 
ATOM     14  C   UNL     1      -1.236  -1.378   0.194  0.00  0.00    +0.000 A 
BRANCH   5  16
ATOM     15  N   UNL     1      -3.623   0.864   1.490  0.00  0.00    +0.000 NA
ATOM     16  C   UNL     1      -2.750   0.453   0.853  0.00  0.00    +0.000 C 
ENDBRANCH   5  16
ENDBRANCH   1  13
BRANCH   3  17
ATOM     17  C   UNL     1      -0.426  -5.644  -0.059  0.00  0.00    +0.000 A 
ATOM     18  C   UNL     1       0.517  -6.165   0.759  0.00  0.00    +0.000 A 
ATOM     19  C   UNL     1       0.874  -7.598   0.753  0.00  0.00    +0.000 A 
ATOM     20  O   UNL     1       1.633  -8.035   1.616  0.00  0.00    +0.000 OA
ATOM     21  N   UNL     1       0.245  -8.369  -0.242  0.00  0.00    +0.000 N 
ATOM     22  C   UNL     1      -0.731  -7.821  -1.067  0.00  0.00    +0.000 A 
ATOM     23  C   UNL     1      -1.105  -6.536  -0.976  0.00  0.00    +0.000 A 
BRANCH  21  24
ATOM     24  C   UNL     1       0.544  -9.765  -0.272  0.00  0.00    +0.000 A 
ATOM     25  C   UNL     1      -0.498 -10.696  -0.205  0.00  0.00    +0.000 A 
ATOM     26  C   UNL     1      -0.214 -12.058  -0.102  0.00  0.00    +0.000 A 
ATOM     27  C   UNL     1       1.110 -12.499  -0.108  0.00  0.00    +0.000 A 
ATOM     28  C   UNL     1       2.153 -11.581  -0.211  0.00  0.00    +0.000 A 
ATOM     29  C   UNL     1       1.872 -10.216  -0.282  0.00  0.00    +0.000 A 
ENDBRANCH  21  24
BRANCH  18  30
ATOM     30  C   UNL     1       1.291  -5.251   1.696  0.00  0.00    +0.000 C 
ATOM     31  N   UNL     1       1.932  -4.492   2.473  0.00  0.00    +0.000 NA
ENDBRANCH  18  30
ENDBRANCH   3  17
TORSDOF 5
