REMARK  Name = 
REMARK  6 active torsions:
REMARK  status: ('A' for Active; 'I' for Inactive)
REMARK    1  A    between atoms: C_2  and  O_3
REMARK    2  A    between atoms: C_2  and  C_18
REMARK    3  A    between atoms: O_3  and  C_4
REMARK    4  A    between atoms: C_4  and  C_5
REMARK    5  A    between atoms: C_4  and  C_12
REMARK    6  A    between atoms: N_22  and  C_23
REMARK                            x       y       z     vdW  Elec       q    Type
REMARK                         _______ _______ _______ _____ _____    ______ ____
ROOT
ATOM      1  O   UNL     1       2.962  -0.411   1.104  0.00  0.00    +0.000 OA
ATOM      2  C   UNL     1       2.445   0.034   0.092  0.00  0.00    +0.000 C 
ENDROOT
BRANCH   2   3
ATOM      3  C   UNL     1       0.994   0.303  -0.010  0.00  0.00    +0.000 A 
ATOM      4  C   UNL     1       0.423   0.782  -1.117  0.00  0.00    +0.000 A 
ATOM      5  C   UNL     1      -1.031   1.026  -1.207  0.00  0.00    +0.000 A 
ATOM      6  O   UNL     1      -1.425   1.514  -2.264  0.00  0.00    +0.000 OA
ATOM      7  N   UNL     1      -1.786   0.698  -0.076  0.00  0.00    +0.000 N 
ATOM      8  N   UNL     1      -1.206   0.252   1.104  0.00  0.00    +0.000 NA
ATOM      9  C   UNL     1       0.076   0.071   1.113  0.00  0.00    +0.000 A 
BRANCH   7  10
ATOM     10  C   UNL     1      -3.216   0.850  -0.021  0.00  0.00    +0.000 A 
ATOM     11  C   UNL     1      -3.997   0.957  -1.183  0.00  0.00    +0.000 A 
ATOM     12  C   UNL     1      -5.378   1.175  -1.121  0.00  0.00    +0.000 A 
ATOM     13  C   UNL     1      -6.012   1.284   0.110  0.00  0.00    +0.000 A 
ATOM     14  C   UNL     1      -5.268   1.141   1.278  0.00  0.00    +0.000 A 
ATOM     15  C   UNL     1      -3.887   0.911   1.212  0.00  0.00    +0.000 A 
ENDBRANCH   7  10
ENDBRANCH   2   3
BRANCH   2  16
ATOM     16  O   UNL     1       3.070   0.326  -1.072  0.00  0.00    +0.000 OA
BRANCH  16  17
ATOM     17  C   UNL     1       4.500   0.120  -1.135  0.00  0.00    +0.000 C 
BRANCH  17  18
ATOM     18  C   UNL     1       4.825  -0.809  -2.304  0.00  0.00    +0.000 A 
ATOM     19  C   UNL     1       4.012  -0.882  -3.447  0.00  0.00    +0.000 A 
ATOM     20  C   UNL     1       4.364  -1.712  -4.508  0.00  0.00    +0.000 A 
ATOM     21  F   UNL     1       3.582  -1.754  -5.594  0.00  0.00    +0.000 F 
ATOM     22  C   UNL     1       5.516  -2.485  -4.464  0.00  0.00    +0.000 A 
ATOM     23  C   UNL     1       6.334  -2.428  -3.337  0.00  0.00    +0.000 A 
ATOM     24  C   UNL     1       5.993  -1.592  -2.267  0.00  0.00    +0.000 A 
ENDBRANCH  17  18
BRANCH  17  25
ATOM     25  C   UNL     1       5.181   1.481  -1.257  0.00  0.00    +0.000 A 
ATOM     26  C   UNL     1       4.866   2.357  -2.300  0.00  0.00    +0.000 A 
ATOM     27  C   UNL     1       5.492   3.601  -2.358  0.00  0.00    +0.000 A 
ATOM     28  C   UNL     1       6.413   3.946  -1.379  0.00  0.00    +0.000 A 
ATOM     29  C   UNL     1       6.677   3.025  -0.380  0.00  0.00    +0.000 A 
ATOM     30  N   UNL     1       6.086   1.811  -0.298  0.00  0.00    +0.000 NA
ENDBRANCH  17  25
ENDBRANCH  16  17
ENDBRANCH   2  16
TORSDOF 6
