REMARK  Name = 
REMARK  8 active torsions:
REMARK  status: ('A' for Active; 'I' for Inactive)
REMARK    1  A    between atoms: C_2  and  C_4
REMARK    2  A    between atoms: C_9  and  O_10
REMARK    3  A    between atoms: O_10  and  C_11
REMARK    4  A    between atoms: C_11  and  C_12
REMARK    5  A    between atoms: C_16  and  C_17
REMARK    6  A    between atoms: N_19  and  C_20
REMARK    7  A    between atoms: C_20  and  C_21
REMARK    8  A    between atoms: C_22  and  C_23
REMARK                            x       y       z     vdW  Elec       q    Type
REMARK                         _______ _______ _______ _____ _____    ______ ____
ROOT
ATOM      1  C   UNL     1       4.144   3.528   0.946  0.00  0.00    +0.000 A 
ATOM      2  C   UNL     1       3.320   4.585   0.535  0.00  0.00    +0.000 A 
ATOM      3  C   UNL     1       3.754   5.909   0.638  0.00  0.00    +0.000 A 
ATOM      4  C   UNL     1       5.012   6.192   1.167  0.00  0.00    +0.000 A 
ATOM      5  C   UNL     1       5.833   5.146   1.601  0.00  0.00    +0.000 A 
ATOM      6  C   UNL     1       5.407   3.819   1.479  0.00  0.00    +0.000 A 
ENDROOT
BRANCH   5   7
ATOM      7  C   UNL     1       7.185   5.405   2.143  0.00  0.00    +0.000 C 
ATOM      8  O   UNL     1       8.100   4.623   1.909  0.00  0.00    +0.000 OA
ATOM      9  N   UNL     1       7.309   6.533   2.919  0.00  0.00    +0.000 N 
ATOM     10  H   UNL     1       6.475   6.982   3.275  0.00  0.00    +0.000 HD
BRANCH   9  11
ATOM     11  C   UNL     1       8.530   6.801   3.635  0.00  0.00    +0.000 C 
BRANCH  11  12
ATOM     12  C   UNL     1       8.287   6.822   5.104  0.00  0.00    +0.000 A 
ATOM     13  C   UNL     1       9.209   7.056   6.112  0.00  0.00    +0.000 A 
ATOM     14  O   UNL     1       8.530   7.011   7.303  0.00  0.00    +0.000 OA
ATOM     15  C   UNL     1       7.243   6.753   6.947  0.00  0.00    +0.000 A 
ATOM     16  N   UNL     1       7.026   6.654   5.656  0.00  0.00    +0.000 NA
BRANCH  13  17
ATOM     17  C   UNL     1      10.635   7.343   6.173  0.00  0.00    +0.000 A 
ATOM     18  C   UNL     1      11.176   8.092   7.227  0.00  0.00    +0.000 A 
ATOM     19  C   UNL     1      12.532   8.425   7.246  0.00  0.00    +0.000 A 
ATOM     20  C   UNL     1      13.372   8.011   6.214  0.00  0.00    +0.000 A 
ATOM     21  C   UNL     1      12.856   7.253   5.170  0.00  0.00    +0.000 A 
ATOM     22  C   UNL     1      11.502   6.915   5.155  0.00  0.00    +0.000 A 
ENDBRANCH  13  17
ENDBRANCH  11  12
ENDBRANCH   9  11
ENDBRANCH   5   7
BRANCH   1  23
ATOM     23  C   UNL     1       3.747   2.096   0.687  0.00  0.00    +0.000 C 
BRANCH  23  24
ATOM     24  O   UNL     1       3.563   1.355   1.901  0.00  0.00    +0.000 OA
BRANCH  24  30
ATOM     25  C   UNL     1       2.578  -0.684   2.745  0.00  0.00    +0.000 A 
ATOM     26  C   UNL     1       2.304  -2.057   2.568  0.00  0.00    +0.000 A 
ATOM     27  C   UNL     1       2.674  -2.729   1.404  0.00  0.00    +0.000 A 
ATOM     28  C   UNL     1       3.336  -2.041   0.401  0.00  0.00    +0.000 A 
ATOM     29  C   UNL     1       3.637  -0.688   0.567  0.00  0.00    +0.000 A 
ATOM     30  C   UNL     1       3.257   0.018   1.726  0.00  0.00    +0.000 A 
BRANCH  25  32
ATOM     31  N   UNL     1       2.264   1.233   4.258  0.00  0.00    +0.000 N 
ATOM     32  C   UNL     1       2.057  -0.092   4.019  0.00  0.00    +0.000 C 
ATOM     33  O   UNL     1       1.429  -0.764   4.835  0.00  0.00    +0.000 OA
ATOM     34  H   UNL     1       1.904   1.624   5.117  0.00  0.00    +0.000 HD
ATOM     35  H   UNL     1       2.811   1.811   3.630  0.00  0.00    +0.000 HD
ENDBRANCH  25  32
ENDBRANCH  24  30
ENDBRANCH  23  24
ENDBRANCH   1  23
TORSDOF 8
