REMARK  Name = 
REMARK  4 active torsions:
REMARK  status: ('A' for Active; 'I' for Inactive)
REMARK    1  A    between atoms: C_2  and  C_19
REMARK    2  A    between atoms: N_3  and  C_4
REMARK    3  A    between atoms: C_5  and  C_6
REMARK    4  A    between atoms: N_10  and  C_11
REMARK                            x       y       z     vdW  Elec       q    Type
REMARK                         _______ _______ _______ _____ _____    ______ ____
ROOT
ATOM      1  O   UNL     1       1.042  -0.347  -0.616  0.00  0.00    +0.000 OA
ATOM      2  C   UNL     1       2.256  -0.226  -0.523  0.00  0.00    +0.000 C 
ATOM      3  N   UNL     1       2.976   0.919  -0.830  0.00  0.00    +0.000 N 
ATOM      4  H   UNL     1       3.945   0.780  -1.104  0.00  0.00    +0.000 HD
ENDROOT
BRANCH   2   5
ATOM      5  C   UNL     1       3.098  -1.381  -0.125  0.00  0.00    +0.000 A 
ATOM      6  C   UNL     1       4.099  -1.143   0.819  0.00  0.00    +0.000 A 
ATOM      7  N   UNL     1       4.938  -2.087   1.299  0.00  0.00    +0.000 NA
ATOM      8  C   UNL     1       4.755  -3.347   0.839  0.00  0.00    +0.000 A 
ATOM      9  C   UNL     1       3.788  -3.683  -0.096  0.00  0.00    +0.000 A 
ATOM     10  C   UNL     1       2.936  -2.689  -0.612  0.00  0.00    +0.000 A 
ATOM     11  C   UNL     1       1.970  -3.089  -1.649  0.00  0.00    +0.000 A 
ATOM     12  C   UNL     1       1.904  -4.363  -2.049  0.00  0.00    +0.000 A 
ATOM     13  N   UNL     1       2.719  -5.330  -1.517  0.00  0.00    +0.000 N 
ATOM     14  C   UNL     1       3.672  -5.088  -0.549  0.00  0.00    +0.000 A 
ATOM     15  O   UNL     1       4.379  -5.972  -0.094  0.00  0.00    +0.000 OA
ATOM     16  H   UNL     1       2.636  -6.287  -1.827  0.00  0.00    +0.000 HD
ENDBRANCH   2   5
BRANCH   3  17
ATOM     17  C   UNL     1       2.355   2.054  -1.325  0.00  0.00    +0.000 A 
ATOM     18  C   UNL     1       2.805   2.763  -2.420  0.00  0.00    +0.000 A 
ATOM     19  N   UNL     1       1.879   3.766  -2.653  0.00  0.00    +0.000 N 
ATOM     20  N   UNL     1       0.878   3.720  -1.725  0.00  0.00    +0.000 NA
ATOM     21  C   UNL     1       1.169   2.688  -0.937  0.00  0.00    +0.000 A 
BRANCH  19  22
ATOM     22  C   UNL     1       1.804   4.770  -3.671  0.00  0.00    +0.000 A 
ATOM     23  C   UNL     1       0.559   5.371  -3.932  0.00  0.00    +0.000 A 
ATOM     24  C   UNL     1       0.432   6.361  -4.911  0.00  0.00    +0.000 A 
ATOM     25  C   UNL     1       1.548   6.775  -5.630  0.00  0.00    +0.000 A 
ATOM     26  C   UNL     1       2.787   6.196  -5.376  0.00  0.00    +0.000 A 
ATOM     27  C   UNL     1       2.916   5.199  -4.403  0.00  0.00    +0.000 A 
ENDBRANCH  19  22
BRANCH  18  28
ATOM     28  C   UNL     1       3.896   2.407  -3.327  0.00  0.00    +0.000 C 
ATOM     29  F   UNL     1       4.442   1.202  -2.987  0.00  0.00    +0.000 F 
ATOM     30  F   UNL     1       3.503   2.288  -4.615  0.00  0.00    +0.000 F 
ATOM     31  F   UNL     1       4.927   3.284  -3.277  0.00  0.00    +0.000 F 
ENDBRANCH  18  28
ENDBRANCH   3  17
TORSDOF 4
