REMARK  Name = 
REMARK  6 active torsions:
REMARK  status: ('A' for Active; 'I' for Inactive)
REMARK    1  A    between atoms: C_2  and  O_3
REMARK    2  A    between atoms: C_2  and  C_4
REMARK    3  A    between atoms: N_6  and  C_7
REMARK    4  A    between atoms: C_10  and  C_11
REMARK    5  A    between atoms: C_14  and  C_15
REMARK    6  A    between atoms: C_15  and  N_16
REMARK                            x       y       z     vdW  Elec       q    Type
REMARK                         _______ _______ _______ _____ _____    ______ ____
ROOT
ATOM      1  C   UNL     1       2.392   2.637   3.998  0.00  0.00    +0.000 A 
ATOM      2  C   UNL     1       2.022   1.749   5.014  0.00  0.00    +0.000 A 
ATOM      3  C   UNL     1       1.274   2.174   6.119  0.00  0.00    +0.000 A 
ATOM      4  C   UNL     1       0.874   3.510   6.272  0.00  0.00    +0.000 A 
ATOM      5  C   UNL     1       1.288   4.407   5.277  0.00  0.00    +0.000 A 
ATOM      6  C   UNL     1       2.026   3.981   4.161  0.00  0.00    +0.000 A 
ENDROOT
BRANCH   1   9
ATOM      7  C   UNL     1       4.723   2.694   1.096  0.00  0.00    +0.000 A 
ATOM      8  C   UNL     1       3.991   3.064   2.162  0.00  0.00    +0.000 A 
ATOM      9  N   UNL     1       3.132   2.190   2.840  0.00  0.00    +0.000 N 
ATOM     10  C   UNL     1       2.985   0.857   2.389  0.00  0.00    +0.000 A 
ATOM     11  O   UNL     1       2.218  -0.000   2.823  0.00  0.00    +0.000 OA
ATOM     12  C   UNL     1       3.833   0.456   1.230  0.00  0.00    +0.000 A 
ATOM     13  C   UNL     1       4.648   1.329   0.632  0.00  0.00    +0.000 A 
BRANCH   7  15
ATOM     14  O   UNL     1       6.032   4.693   1.153  0.00  0.00    +0.000 OA
ATOM     15  C   UNL     1       5.633   3.724   0.526  0.00  0.00    +0.000 C 
BRANCH  15  16
ATOM     16  O   UNL     1       5.971   3.514  -0.762  0.00  0.00    +0.000 OA
ATOM     17  H   UNL     1       5.475   2.813  -1.219  0.00  0.00    +0.000 HD
ENDBRANCH  15  16
ENDBRANCH   7  15
ENDBRANCH   1   9
BRANCH   4  18
ATOM     18  C   UNL     1       0.006   3.923   7.399  0.00  0.00    +0.000 A 
ATOM     19  C   UNL     1       0.066   3.278   8.646  0.00  0.00    +0.000 A 
ATOM     20  C   UNL     1      -0.850   3.567   9.661  0.00  0.00    +0.000 A 
ATOM     21  C   UNL     1      -1.850   4.525   9.469  0.00  0.00    +0.000 A 
ATOM     22  C   UNL     1      -1.868   5.240   8.269  0.00  0.00    +0.000 A 
ATOM     23  C   UNL     1      -0.962   4.933   7.247  0.00  0.00    +0.000 A 
BRANCH  21  24
ATOM     24  C   UNL     1      -2.891   4.766  10.537  0.00  0.00    +0.000 C 
BRANCH  24  25
ATOM     25  N   UNL     1      -2.459   5.736  11.534  0.00  0.00    +0.000 N 
ATOM     26  C   UNL     1      -2.740   7.079  11.346  0.00  0.00    +0.000 A 
ATOM     27  C   UNL     1      -2.320   8.006  12.213  0.00  0.00    +0.000 A 
ATOM     28  C   UNL     1      -1.539   7.612  13.356  0.00  0.00    +0.000 A 
ATOM     29  C   UNL     1      -1.261   6.324  13.580  0.00  0.00    +0.000 A 
ATOM     30  C   UNL     1      -1.747   5.275  12.642  0.00  0.00    +0.000 A 
ATOM     31  O   UNL     1      -1.501   4.098  12.885  0.00  0.00    +0.000 OA
ENDBRANCH  24  25
ENDBRANCH  21  24
ENDBRANCH   4  18
TORSDOF 6
