REMARK  Name = 
REMARK  8 active torsions:
REMARK  status: ('A' for Active; 'I' for Inactive)
REMARK    1  A    between atoms: C_1  and  N_2
REMARK    2  A    between atoms: N_2  and  C_3
REMARK    3  A    between atoms: C_3  and  C_4
REMARK    4  A    between atoms: C_4  and  O_5
REMARK    5  A    between atoms: O_5  and  C_6
REMARK    6  A    between atoms: C_10  and  C_11
REMARK    7  A    between atoms: C_14  and  C_16
REMARK    8  A    between atoms: N_22  and  C_23
REMARK                            x       y       z     vdW  Elec       q    Type
REMARK                         _______ _______ _______ _____ _____    ______ ____
ROOT
ATOM      1  C   UNL     1       4.721  -0.616   1.035  0.00  0.00    +0.000 A 
ATOM      2  C   UNL     1       5.429   0.563   1.286  0.00  0.00    +0.000 A 
ATOM      3  C   UNL     1       6.822   0.563   1.302  0.00  0.00    +0.000 A 
ATOM      4  C   UNL     1       7.514  -0.639   1.157  0.00  0.00    +0.000 A 
ATOM      5  C   UNL     1       8.984  -0.659   1.191  0.00  0.00    +0.000 A 
ATOM      6  O   UNL     1       9.558   0.419   1.340  0.00  0.00    +0.000 OA
ATOM      7  N   UNL     1       9.601  -1.912   1.099  0.00  0.00    +0.000 N 
ATOM      8  C   UNL     1       8.898  -3.117   1.024  0.00  0.00    +0.000 A 
ATOM      9  O   UNL     1       9.399  -4.241   0.961  0.00  0.00    +0.000 OA
ATOM     10  N   UNL     1       7.530  -3.028   0.970  0.00  0.00    +0.000 N 
ATOM     11  C   UNL     1       6.823  -1.832   1.017  0.00  0.00    +0.000 A 
ATOM     12  C   UNL     1       5.429  -1.829   0.942  0.00  0.00    +0.000 A 
ATOM     13  H   UNL     1       7.045  -3.914   0.892  0.00  0.00    +0.000 HD
ENDROOT
BRANCH   7  14
ATOM     14  C   UNL     1      11.029  -1.943   1.128  0.00  0.00    +0.000 A 
ATOM     15  C   UNL     1      11.710  -2.764   2.035  0.00  0.00    +0.000 A 
ATOM     16  C   UNL     1      13.104  -2.734   2.101  0.00  0.00    +0.000 A 
ATOM     17  C   UNL     1      13.829  -1.913   1.238  0.00  0.00    +0.000 A 
ATOM     18  C   UNL     1      13.163  -1.112   0.314  0.00  0.00    +0.000 A 
ATOM     19  C   UNL     1      11.769  -1.115   0.270  0.00  0.00    +0.000 A 
ENDBRANCH   7  14
BRANCH   1  22
ATOM     20  C   UNL     1       1.041   0.129   0.356  0.00  0.00    +0.000 C 
ATOM     21  N   UNL     1       2.482   0.359   0.360  0.00  0.00    +0.000 N 
ATOM     22  C   UNL     1       3.234  -0.672   0.952  0.00  0.00    +0.000 C 
ATOM     23  O   UNL     1       2.697  -1.686   1.401  0.00  0.00    +0.000 OA
BRANCH  21  24
ATOM     24  C   UNL     1       3.056   1.475  -0.413  0.00  0.00    +0.000 C 
BRANCH  24  25
ATOM     25  C   UNL     1       2.098   2.391  -1.170  0.00  0.00    +0.000 C 
BRANCH  25  26
ATOM     26  O   UNL     1       2.851   3.426  -1.809  0.00  0.00    +0.000 OA
BRANCH  26  27
ATOM     27  C   UNL     1       2.093   4.333  -2.500  0.00  0.00    +0.000 A 
ATOM     28  C   UNL     1       0.777   4.681  -2.183  0.00  0.00    +0.000 A 
ATOM     29  C   UNL     1       0.080   5.601  -2.966  0.00  0.00    +0.000 A 
ATOM     30  C   UNL     1       0.701   6.192  -4.061  0.00  0.00    +0.000 A 
ATOM     31  C   UNL     1       2.030   5.871  -4.362  0.00  0.00    +0.000 A 
ATOM     32  C   UNL     1       2.728   4.953  -3.574  0.00  0.00    +0.000 A 
BRANCH  31  33
ATOM     33  C   UNL     1       2.674   6.483  -5.487  0.00  0.00    +0.000 C 
ATOM     34  N   UNL     1       3.191   6.988  -6.392  0.00  0.00    +0.000 NA
ENDBRANCH  31  33
ENDBRANCH  26  27
ENDBRANCH  25  26
ENDBRANCH  24  25
ENDBRANCH  21  24
ENDBRANCH   1  22
TORSDOF 7
