REMARK  Name = 
REMARK  6 active torsions:
REMARK  status: ('A' for Active; 'I' for Inactive)
REMARK    1  A    between atoms: S_2  and  N_4
REMARK    2  A    between atoms: S_2  and  C_21
REMARK    3  A    between atoms: N_4  and  C_5
REMARK    4  A    between atoms: C_5  and  C_6
REMARK    5  A    between atoms: C_8  and  O_9
REMARK    6  A    between atoms: O_9  and  C_10
REMARK                            x       y       z     vdW  Elec       q    Type
REMARK                         _______ _______ _______ _____ _____    ______ ____
ROOT
ATOM      1  C   UNL     1       2.458  -2.482   1.418  0.00  0.00    +0.000 C 
ENDROOT
BRANCH   1   2
ATOM      2  C   UNL     1       3.026  -3.854   1.160  0.00  0.00    +0.000 A 
ATOM      3  C   UNL     1       3.998  -4.383   2.010  0.00  0.00    +0.000 A 
ATOM      4  C   UNL     1       4.551  -5.618   1.696  0.00  0.00    +0.000 A 
ATOM      5  C   UNL     1       4.082  -6.313   0.585  0.00  0.00    +0.000 A 
ATOM      6  C   UNL     1       3.115  -5.717  -0.199  0.00  0.00    +0.000 A 
ATOM      7  N   UNL     1       2.590  -4.502   0.053  0.00  0.00    +0.000 NA
BRANCH   4   8
ATOM      8  O   UNL     1       5.490  -6.269   2.461  0.00  0.00    +0.000 OA
BRANCH   8   9
ATOM      9  C   UNL     1       6.507  -5.562   3.054  0.00  0.00    +0.000 A 
ATOM     10  C   UNL     1       7.093  -4.409   2.512  0.00  0.00    +0.000 A 
ATOM     11  C   UNL     1       8.136  -3.771   3.189  0.00  0.00    +0.000 A 
ATOM     12  C   UNL     1       8.617  -4.311   4.377  0.00  0.00    +0.000 A 
ATOM     13  F   UNL     1       9.623  -3.700   5.016  0.00  0.00    +0.000 F 
ATOM     14  C   UNL     1       8.068  -5.480   4.889  0.00  0.00    +0.000 A 
ATOM     15  F   UNL     1       8.552  -6.013   6.019  0.00  0.00    +0.000 F 
ATOM     16  C   UNL     1       7.015  -6.110   4.235  0.00  0.00    +0.000 A 
ENDBRANCH   8   9
ENDBRANCH   4   8
ENDBRANCH   1   2
BRANCH   1  17
ATOM     17  N   UNL     1       3.180  -1.443   0.671  0.00  0.00    +0.000 NA
ATOM     18  H   UNL     1       4.198  -1.519   0.696  0.00  0.00    +0.000 HD
BRANCH  17  20
ATOM     19  O   UNL     1       1.826   0.102   2.166  0.00  0.00    +0.000 OA
ATOM     20  S   UNL     1       2.722   0.122   1.033  0.00  0.00    +0.000 S 
ATOM     21  O   UNL     1       3.969   0.866   1.083  0.00  0.00    +0.000 OA
BRANCH  20  22
ATOM     22  C   UNL     1       1.833   0.686  -0.431  0.00  0.00    +0.000 A 
ATOM     23  C   UNL     1       2.685   1.137  -1.448  0.00  0.00    +0.000 A 
ATOM     24  C   UNL     1       2.398   2.330  -2.096  0.00  0.00    +0.000 A 
ATOM     25  C   UNL     1       1.244   3.035  -1.745  0.00  0.00    +0.000 A 
ATOM     26  C   UNL     1       0.287   2.466  -0.892  0.00  0.00    +0.000 A 
ATOM     27  C   UNL     1      -0.930   3.098  -0.621  0.00  0.00    +0.000 A 
ATOM     28  N   UNL     1      -1.943   2.549   0.086  0.00  0.00    +0.000 NA
ATOM     29  C   UNL     1      -1.731   1.314   0.576  0.00  0.00    +0.000 A 
ATOM     30  C   UNL     1      -0.525   0.637   0.456  0.00  0.00    +0.000 A 
ATOM     31  C   UNL     1       0.534   1.230  -0.265  0.00  0.00    +0.000 A 
ENDBRANCH  20  22
ENDBRANCH  17  20
ENDBRANCH   1  17
TORSDOF 6
