REMARK  Name = 
REMARK  5 active torsions:
REMARK  status: ('A' for Active; 'I' for Inactive)
REMARK    1  A    between atoms: C_2  and  C_3
REMARK    2  A    between atoms: C_8  and  S_9
REMARK    3  A    between atoms: S_9  and  C_10
REMARK    4  A    between atoms: C_13  and  N_14
REMARK    5  A    between atoms: C_15  and  C_17
REMARK                            x       y       z     vdW  Elec       q    Type
REMARK                         _______ _______ _______ _____ _____    ______ ____
ROOT
ATOM      1  N   UNL     1      -6.735   1.931   0.130  0.00  0.00    +0.000 N 
ATOM      2  C   UNL     1      -7.465   1.276   1.107  0.00  0.00    +0.000 C 
ATOM      3  O   UNL     1      -7.035   0.817   2.159  0.00  0.00    +0.000 OA
ATOM      4  H   UNL     1      -7.227   2.214  -0.708  0.00  0.00    +0.000 HD
ENDROOT
BRANCH   2   5
ATOM      5  C   UNL     1      -8.902   1.025   0.777  0.00  0.00    +0.000 A 
ATOM      6  C   UNL     1      -9.437  -0.222   1.151  0.00  0.00    +0.000 A 
ATOM      7  C   UNL     1     -10.721  -0.598   0.752  0.00  0.00    +0.000 A 
ATOM      8  C   UNL     1     -11.496   0.317   0.049  0.00  0.00    +0.000 A 
ATOM      9  C   UNL     1     -12.812  -0.045  -0.470  0.00  0.00    +0.000 A 
ATOM     10  N   UNL     1     -13.700   0.828  -0.831  0.00  0.00    +0.000 NA
ATOM     11  N   UNL     1     -13.334   2.144  -0.765  0.00  0.00    +0.000 N 
ATOM     12  C   UNL     1     -12.040   2.605  -0.620  0.00  0.00    +0.000 A 
ATOM     13  O   UNL     1     -11.728   3.780  -0.782  0.00  0.00    +0.000 OA
ATOM     14  C   UNL     1     -11.044   1.612  -0.174  0.00  0.00    +0.000 A 
ATOM     15  C   UNL     1      -9.722   1.964   0.136  0.00  0.00    +0.000 A 
ATOM     16  H   UNL     1     -14.057   2.820  -0.993  0.00  0.00    +0.000 HD
ENDBRANCH   2   5
BRANCH   1  20
ATOM     17  C   UNL     1      -2.525   2.466  -0.201  0.00  0.00    +0.000 A 
ATOM     18  C   UNL     1      -3.057   1.895   0.958  0.00  0.00    +0.000 A 
ATOM     19  C   UNL     1      -4.448   1.726   1.105  0.00  0.00    +0.000 A 
ATOM     20  C   UNL     1      -5.330   2.120   0.095  0.00  0.00    +0.000 A 
ATOM     21  C   UNL     1      -4.794   2.726  -1.046  0.00  0.00    +0.000 A 
ATOM     22  C   UNL     1      -3.411   2.910  -1.184  0.00  0.00    +0.000 A 
BRANCH  17  23
ATOM     23  S   UNL     1      -0.778   2.781  -0.373  0.00  0.00    +0.000 S 
BRANCH  23  29
ATOM     24  C   UNL     1      -0.327   0.688  -2.245  0.00  0.00    +0.000 A 
ATOM     25  C   UNL     1       0.348  -0.479  -2.654  0.00  0.00    +0.000 A 
ATOM     26  C   UNL     1       1.290  -1.088  -1.820  0.00  0.00    +0.000 A 
ATOM     27  C   UNL     1       1.548  -0.533  -0.577  0.00  0.00    +0.000 A 
ATOM     28  C   UNL     1       0.869   0.610  -0.153  0.00  0.00    +0.000 A 
ATOM     29  C   UNL     1      -0.090   1.235  -0.973  0.00  0.00    +0.000 A 
BRANCH  24  31
ATOM     30  N   UNL     1      -1.915   1.745  -4.009  0.00  0.00    +0.000 NA
ATOM     31  C   UNL     1      -1.217   1.290  -3.194  0.00  0.00    +0.000 C 
ENDBRANCH  24  31
ENDBRANCH  23  29
ENDBRANCH  17  23
ENDBRANCH   1  20
TORSDOF 5
