REMARK  Name = 
REMARK  5 active torsions:
REMARK  status: ('A' for Active; 'I' for Inactive)
REMARK    1  A    between atoms: C_2  and  C_16
REMARK    2  A    between atoms: N_3  and  C_4
REMARK    3  A    between atoms: C_7  and  C_8
REMARK    4  A    between atoms: C_21  and  O_22
REMARK    5  A    between atoms: O_22  and  C_23
REMARK                            x       y       z     vdW  Elec       q    Type
REMARK                         _______ _______ _______ _____ _____    ______ ____
ROOT
ATOM      1  O   UNL     1       1.064  -0.004  -0.238  0.00  0.00    +0.000 OA
ATOM      2  C   UNL     1       2.258   0.276  -0.161  0.00  0.00    +0.000 C 
ATOM      3  N   UNL     1       2.805   1.123   0.785  0.00  0.00    +0.000 N 
ATOM      4  H   UNL     1       3.809   1.258   0.771  0.00  0.00    +0.000 HD
ENDROOT
BRANCH   3   5
ATOM      5  C   UNL     1       2.088   1.778   1.819  0.00  0.00    +0.000 A 
ATOM      6  C   UNL     1       0.703   1.696   1.980  0.00  0.00    +0.000 A 
ATOM      7  C   UNL     1       0.058   2.322   3.052  0.00  0.00    +0.000 A 
ATOM      8  C   UNL     1       0.779   3.062   3.991  0.00  0.00    +0.000 A 
ATOM      9  C   UNL     1       2.164   3.178   3.813  0.00  0.00    +0.000 A 
ATOM     10  C   UNL     1       2.811   2.543   2.740  0.00  0.00    +0.000 A 
BRANCH   8  11
ATOM     11  C   UNL     1       0.084   3.739   5.093  0.00  0.00    +0.000 A 
ATOM     12  C   UNL     1      -1.038   3.319   5.699  0.00  0.00    +0.000 A 
ATOM     13  C   UNL     1      -1.407   4.417   6.611  0.00  0.00    +0.000 A 
ATOM     14  O   UNL     1      -2.328   4.393   7.405  0.00  0.00    +0.000 OA
ATOM     15  N   UNL     1      -0.513   5.447   6.378  0.00  0.00    +0.000 N 
ATOM     16  N   UNL     1       0.514   4.977   5.558  0.00  0.00    +0.000 N 
ATOM     17  H   UNL     1      -0.361   6.182   7.058  0.00  0.00    +0.000 HD
ATOM     18  H   UNL     1       0.762   5.599   4.788  0.00  0.00    +0.000 HD
ENDBRANCH   8  11
ENDBRANCH   3   5
BRANCH   2  19
ATOM     19  C   UNL     1       3.161  -0.351  -1.176  0.00  0.00    +0.000 A 
ATOM     20  C   UNL     1       2.483  -1.152  -2.125  0.00  0.00    +0.000 A 
ATOM     21  C   UNL     1       3.193  -1.787  -3.125  0.00  0.00    +0.000 A 
ATOM     22  N   UNL     1       4.517  -1.647  -3.281  0.00  0.00    +0.000 NA
ATOM     23  C   UNL     1       5.152  -0.863  -2.379  0.00  0.00    +0.000 A 
ATOM     24  C   UNL     1       4.552  -0.244  -1.273  0.00  0.00    +0.000 A 
BRANCH  24  25
ATOM     25  O   UNL     1       5.309   0.432  -0.329  0.00  0.00    +0.000 OA
BRANCH  25  26
ATOM     26  C   UNL     1       6.587  -0.055  -0.076  0.00  0.00    +0.000 A 
ATOM     27  C   UNL     1       7.635   0.853   0.074  0.00  0.00    +0.000 A 
ATOM     28  C   UNL     1       8.949   0.387   0.227  0.00  0.00    +0.000 A 
ATOM     29  C   UNL     1       9.200  -0.983   0.220  0.00  0.00    +0.000 A 
ATOM     30  F   UNL     1      10.458  -1.429   0.317  0.00  0.00    +0.000 F 
ATOM     31  C   UNL     1       8.161  -1.895   0.110  0.00  0.00    +0.000 A 
ATOM     32  C   UNL     1       6.850  -1.432   0.005  0.00  0.00    +0.000 A 
ENDBRANCH  25  26
ENDBRANCH  24  25
ENDBRANCH   2  19
TORSDOF 5
