REMARK  Name = 
REMARK  10 active torsions:
REMARK  status: ('A' for Active; 'I' for Inactive)
REMARK    1  A    between atoms: C_2  and  C_4
REMARK    2  A    between atoms: C_4  and  N_5
REMARK    3  A    between atoms: N_5  and  C_6
REMARK    4  A    between atoms: N_5  and  C_21
REMARK    5  A    between atoms: C_6  and  C_7
REMARK    6  A    between atoms: N_9  and  C_10
REMARK    7  A    between atoms: C_10  and  C_11
REMARK    8  A    between atoms: C_16  and  C_17
REMARK    9  A    between atoms: C_21  and  C_22
REMARK   10  A    between atoms: C_25  and  C_26
REMARK                            x       y       z     vdW  Elec       q    Type
REMARK                         _______ _______ _______ _____ _____    ______ ____
ROOT
ATOM      1  N   UNL     1       4.550  -0.990  -0.060  0.00  0.00    +0.000 NA
ENDROOT
BRANCH   1   2
ATOM      2  C   UNL     1       4.926  -0.311   1.216  0.00  0.00    +0.000 C 
BRANCH   2   3
ATOM      3  C   UNL     1       4.642  -1.124   2.510  0.00  0.00    +0.000 C 
ATOM      4  O   UNL     1       5.397  -2.011   2.910  0.00  0.00    +0.000 OA
ATOM      5  N   UNL     1       3.519  -0.823   3.231  0.00  0.00    +0.000 N 
ATOM      6  H   UNL     1       3.353  -1.454   4.010  0.00  0.00    +0.000 HD
BRANCH   5   7
ATOM      7  C   UNL     1       2.397  -0.100   2.703  0.00  0.00    +0.000 C 
BRANCH   7   8
ATOM      8  C   UNL     1       1.895   1.016   3.563  0.00  0.00    +0.000 A 
ATOM      9  C   UNL     1       2.679   2.192   3.580  0.00  0.00    +0.000 A 
ATOM     10  C   UNL     1       2.223   3.351   4.192  0.00  0.00    +0.000 A 
ATOM     11  C   UNL     1       0.976   3.350   4.806  0.00  0.00    +0.000 A 
ATOM     12  C   UNL     1       0.201   2.191   4.809  0.00  0.00    +0.000 A 
ATOM     13  C   UNL     1       0.638   1.002   4.192  0.00  0.00    +0.000 A 
BRANCH  13  14
ATOM     14  C   UNL     1      -0.306  -0.184   4.231  0.00  0.00    +0.000 C 
ATOM     15  F   UNL     1       0.153  -1.335   3.671  0.00  0.00    +0.000 F 
ATOM     16  F   UNL     1      -0.626  -0.528   5.511  0.00  0.00    +0.000 F 
ATOM     17  F   UNL     1      -1.492   0.079   3.614  0.00  0.00    +0.000 F 
ENDBRANCH  13  14
ENDBRANCH   7   8
ENDBRANCH   5   7
ENDBRANCH   2   3
ENDBRANCH   1   2
BRANCH   1  18
ATOM     18  C   UNL     1       5.405  -2.195  -0.161  0.00  0.00    +0.000 C 
BRANCH  18  19
ATOM     19  C   UNL     1       5.335  -2.898  -1.489  0.00  0.00    +0.000 A 
ATOM     20  C   UNL     1       5.654  -2.242  -2.681  0.00  0.00    +0.000 A 
ATOM     21  C   UNL     1       5.612  -2.926  -3.892  0.00  0.00    +0.000 A 
ATOM     22  C   UNL     1       5.270  -4.292  -3.958  0.00  0.00    +0.000 A 
ATOM     23  C   UNL     1       4.949  -4.931  -2.746  0.00  0.00    +0.000 A 
ATOM     24  C   UNL     1       4.973  -4.247  -1.536  0.00  0.00    +0.000 A 
BRANCH  22  25
ATOM     25  C   UNL     1       5.256  -5.035  -5.236  0.00  0.00    +0.000 A 
ATOM     26  C   UNL     1       6.154  -4.728  -6.275  0.00  0.00    +0.000 A 
ATOM     27  C   UNL     1       6.145  -5.439  -7.479  0.00  0.00    +0.000 A 
ATOM     28  C   UNL     1       5.249  -6.486  -7.667  0.00  0.00    +0.000 A 
ATOM     29  C   UNL     1       4.355  -6.817  -6.653  0.00  0.00    +0.000 A 
ATOM     30  C   UNL     1       4.355  -6.095  -5.458  0.00  0.00    +0.000 A 
ENDBRANCH  22  25
ENDBRANCH  18  19
ENDBRANCH   1  18
BRANCH   1  31
ATOM     31  C   UNL     1       3.114  -1.376  -0.211  0.00  0.00    +0.000 C 
BRANCH  31  33
ATOM     32  N   UNL     1       2.386   0.618  -1.509  0.00  0.00    +0.000 N 
ATOM     33  C   UNL     1       2.126  -0.227  -0.471  0.00  0.00    +0.000 C 
ATOM     34  O   UNL     1       1.081  -0.082   0.152  0.00  0.00    +0.000 OA
ATOM     35  H   UNL     1       1.670   1.298  -1.742  0.00  0.00    +0.000 HD
ATOM     36  H   UNL     1       3.142   0.442  -2.160  0.00  0.00    +0.000 HD
ENDBRANCH  31  33
ENDBRANCH   1  31
TORSDOF 10
