REMARK  Name = 
REMARK  5 active torsions:
REMARK  status: ('A' for Active; 'I' for Inactive)
REMARK    1  A    between atoms: C_2  and  C_4
REMARK    2  A    between atoms: C_4  and  N_5
REMARK    3  A    between atoms: C_4  and  C_20
REMARK    4  A    between atoms: C_6  and  C_8
REMARK    5  A    between atoms: C_11  and  C_12
REMARK                            x       y       z     vdW  Elec       q    Type
REMARK                         _______ _______ _______ _____ _____    ______ ____
ROOT
ATOM      1  N   UNL     1       2.756  -0.140  -2.468  0.00  0.00    +0.000 N 
ATOM      2  C   UNL     1       1.696  -0.652  -3.170  0.00  0.00    +0.000 C 
ATOM      3  O   UNL     1       1.006  -1.573  -2.758  0.00  0.00    +0.000 OA
ATOM      4  H   UNL     1       3.340   0.570  -2.889  0.00  0.00    +0.000 HD
ENDROOT
BRANCH   2   5
ATOM      5  C   UNL     1       1.444   0.013  -4.439  0.00  0.00    +0.000 A 
ATOM      6  C   UNL     1       2.022   1.127  -5.020  0.00  0.00    +0.000 A 
ATOM      7  C   UNL     1       1.392   1.347  -6.266  0.00  0.00    +0.000 A 
ATOM      8  C   UNL     1       0.426   0.372  -6.447  0.00  0.00    +0.000 A 
ATOM      9  N   UNL     1       0.470  -0.419  -5.315  0.00  0.00    +0.000 N 
ATOM     10  H   UNL     1      -0.122  -1.224  -5.148  0.00  0.00    +0.000 HD
BRANCH   8  11
ATOM     11  C   UNL     1      -0.487   0.125  -7.577  0.00  0.00    +0.000 A 
ATOM     12  C   UNL     1      -0.438   0.940  -8.721  0.00  0.00    +0.000 A 
ATOM     13  C   UNL     1      -1.266   0.694  -9.822  0.00  0.00    +0.000 A 
ATOM     14  C   UNL     1      -2.165  -0.369  -9.799  0.00  0.00    +0.000 A 
ATOM     15  C   UNL     1      -2.242  -1.180  -8.670  0.00  0.00    +0.000 A 
ATOM     16  C   UNL     1      -1.412  -0.930  -7.576  0.00  0.00    +0.000 A 
ATOM     17  F   UNL     1      -1.519  -1.742  -6.511  0.00  0.00    +0.000 F 
ENDBRANCH   8  11
ENDBRANCH   2   5
BRANCH   1  18
ATOM     18  C   UNL     1       3.159  -0.644  -1.157  0.00  0.00    +0.000 C 
BRANCH  18  19
ATOM     19  C   UNL     1       4.672  -0.535  -1.020  0.00  0.00    +0.000 A 
ATOM     20  C   UNL     1       5.320   0.709  -0.987  0.00  0.00    +0.000 A 
ATOM     21  C   UNL     1       6.714   0.785  -0.893  0.00  0.00    +0.000 A 
ATOM     22  C   UNL     1       7.496  -0.378  -0.827  0.00  0.00    +0.000 A 
ATOM     23  C   UNL     1       8.897  -0.320  -0.725  0.00  0.00    +0.000 A 
ATOM     24  C   UNL     1       9.658  -1.488  -0.659  0.00  0.00    +0.000 A 
ATOM     25  C   UNL     1       9.030  -2.729  -0.696  0.00  0.00    +0.000 A 
ATOM     26  C   UNL     1       7.638  -2.803  -0.796  0.00  0.00    +0.000 A 
ATOM     27  C   UNL     1       6.858  -1.637  -0.860  0.00  0.00    +0.000 A 
ATOM     28  C   UNL     1       5.455  -1.699  -0.956  0.00  0.00    +0.000 A 
ENDBRANCH  18  19
BRANCH  18  30
ATOM     29  N   UNL     1       1.624   1.142  -0.342  0.00  0.00    +0.000 N 
ATOM     30  C   UNL     1       2.421   0.082   0.003  0.00  0.00    +0.000 C 
ATOM     31  O   UNL     1       2.560  -0.210   1.189  0.00  0.00    +0.000 OA
ATOM     32  H   UNL     1       1.074   1.571   0.391  0.00  0.00    +0.000 HD
ATOM     33  H   UNL     1       1.381   1.322  -1.307  0.00  0.00    +0.000 HD
ENDBRANCH  18  30
ENDBRANCH   1  18
TORSDOF 5
