REMARK  Name = 
REMARK  5 active torsions:
REMARK  status: ('A' for Active; 'I' for Inactive)
REMARK    1  A    between atoms: C_2  and  C_3
REMARK    2  A    between atoms: C_5  and  C_6
REMARK    3  A    between atoms: N_8  and  C_9
REMARK    4  A    between atoms: C_14  and  C_15
REMARK    5  A    between atoms: C_25  and  N_26
REMARK                            x       y       z     vdW  Elec       q    Type
REMARK                         _______ _______ _______ _____ _____    ______ ____
ROOT
ATOM      1  C   UNL     1       5.402   3.017  -1.457  0.00  0.00    +0.000 C 
ATOM      2  O   UNL     1       5.272   3.448  -2.604  0.00  0.00    +0.000 OA
ATOM      3  N   UNL     1       6.064   3.701  -0.451  0.00  0.00    +0.000 N 
ATOM      4  H   UNL     1       5.891   3.452   0.512  0.00  0.00    +0.000 HD
ENDROOT
BRANCH   1   7
ATOM      5  C   UNL     1       3.660   0.292   0.629  0.00  0.00    +0.000 A 
ATOM      6  C   UNL     1       4.320   1.422   0.306  0.00  0.00    +0.000 A 
ATOM      7  C   UNL     1       4.734   1.712  -1.064  0.00  0.00    +0.000 A 
ATOM      8  C   UNL     1       4.437   0.818  -2.046  0.00  0.00    +0.000 A 
ATOM      9  N   UNL     1       3.774  -0.334  -1.702  0.00  0.00    +0.000 N 
ATOM     10  C   UNL     1       3.352  -0.685  -0.447  0.00  0.00    +0.000 A 
ATOM     11  O   UNL     1       2.752  -1.739  -0.243  0.00  0.00    +0.000 OA
ATOM     12  H   UNL     1       3.595  -1.014  -2.426  0.00  0.00    +0.000 HD
BRANCH   8  13
ATOM     13  N   UNL     1       4.735   0.965  -3.382  0.00  0.00    +0.000 N 
ATOM     14  H   UNL     1       4.958   1.946  -3.608  0.00  0.00    +0.000 HD
ATOM     15  H   UNL     1       3.993   0.637  -3.993  0.00  0.00    +0.000 HD
ENDBRANCH   8  13
BRANCH   5  17
ATOM     16  N   UNL     1       2.949  -0.167   3.061  0.00  0.00    +0.000 NA
ATOM     17  C   UNL     1       3.224   0.018   1.947  0.00  0.00    +0.000 C 
ENDBRANCH   5  17
ENDBRANCH   1   7
BRANCH   3  18
ATOM     18  C   UNL     1       6.614   5.002  -0.639  0.00  0.00    +0.000 A 
ATOM     19  C   UNL     1       7.510   5.184  -1.701  0.00  0.00    +0.000 A 
ATOM     20  C   UNL     1       8.198   6.384  -1.845  0.00  0.00    +0.000 A 
ATOM     21  C   UNL     1       7.960   7.427  -0.957  0.00  0.00    +0.000 A 
ATOM     22  C   UNL     1       7.027   7.275   0.075  0.00  0.00    +0.000 A 
ATOM     23  C   UNL     1       6.338   6.062   0.277  0.00  0.00    +0.000 A 
BRANCH  23  24
ATOM     24  C   UNL     1       5.305   5.949   1.347  0.00  0.00    +0.000 A 
ATOM     25  C   UNL     1       4.165   5.156   1.121  0.00  0.00    +0.000 A 
ATOM     26  C   UNL     1       3.308   4.794   2.145  0.00  0.00    +0.000 A 
ATOM     27  C   UNL     1       3.428   5.422   3.368  0.00  0.00    +0.000 A 
ATOM     28  C   UNL     1       2.490   5.135   4.342  0.00  0.00    +0.000 A 
ATOM     29  C   UNL     1       1.962   6.230   4.994  0.00  0.00    +0.000 A 
ATOM     30  C   UNL     1       2.774   7.342   5.181  0.00  0.00    +0.000 A 
ATOM     31  C   UNL     1       4.034   7.400   4.566  0.00  0.00    +0.000 A 
ATOM     32  C   UNL     1       4.327   6.486   3.536  0.00  0.00    +0.000 A 
ATOM     33  C   UNL     1       5.355   6.643   2.577  0.00  0.00    +0.000 A 
ENDBRANCH  23  24
ENDBRANCH   3  18
TORSDOF 5
