REMARK  Name = 
REMARK  6 active torsions:
REMARK  status: ('A' for Active; 'I' for Inactive)
REMARK    1  A    between atoms: C_2  and  C_3
REMARK    2  A    between atoms: C_6  and  C_7
REMARK    3  A    between atoms: C_7  and  O_8
REMARK    4  A    between atoms: O_8  and  C_9
REMARK    5  A    between atoms: C_9  and  C_11
REMARK    6  A    between atoms: N_15  and  C_16
REMARK                            x       y       z     vdW  Elec       q    Type
REMARK                         _______ _______ _______ _____ _____    ______ ____
ROOT
ATOM      1  C   UNL     1      -2.005  -5.665  -0.117  0.00  0.00    +0.000 C 
ATOM      2  O   UNL     1      -3.200  -5.599  -0.360  0.00  0.00    +0.000 OA
ENDROOT
BRANCH   1   3
ATOM      3  C   UNL     1      -1.283  -6.948  -0.050  0.00  0.00    +0.000 A 
ATOM      4  C   UNL     1       0.027  -7.033   0.183  0.00  0.00    +0.000 A 
ATOM      5  C   UNL     1       0.716  -8.333   0.250  0.00  0.00    +0.000 A 
ATOM      6  O   UNL     1       1.929  -8.284   0.453  0.00  0.00    +0.000 OA
ATOM      7  N   UNL     1      -0.073  -9.467   0.037  0.00  0.00    +0.000 N 
ATOM      8  N   UNL     1      -1.426  -9.400  -0.255  0.00  0.00    +0.000 NA
ATOM      9  C   UNL     1      -1.971  -8.228  -0.270  0.00  0.00    +0.000 A 
BRANCH   7  10
ATOM     10  C   UNL     1       0.468 -10.794   0.062  0.00  0.00    +0.000 A 
ATOM     11  C   UNL     1       1.657 -11.080   0.749  0.00  0.00    +0.000 A 
ATOM     12  C   UNL     1       2.242 -12.346   0.699  0.00  0.00    +0.000 A 
ATOM     13  C   UNL     1       1.641 -13.358  -0.037  0.00  0.00    +0.000 A 
ATOM     14  C   UNL     1       0.433 -13.114  -0.689  0.00  0.00    +0.000 A 
ATOM     15  C   UNL     1      -0.160 -11.847  -0.624  0.00  0.00    +0.000 A 
ENDBRANCH   7  10
ENDBRANCH   1   3
BRANCH   1  16
ATOM     16  O   UNL     1      -1.179  -4.617   0.108  0.00  0.00    +0.000 OA
BRANCH  16  17
ATOM     17  C   UNL     1      -1.758  -3.307   0.022  0.00  0.00    +0.000 C 
BRANCH  17  21
ATOM     18  C   UNL     1      -1.356  -1.103   3.727  0.00  0.00    +0.000 A 
ATOM     19  C   UNL     1      -2.610  -1.418   3.197  0.00  0.00    +0.000 A 
ATOM     20  C   UNL     1      -2.710  -2.135   2.012  0.00  0.00    +0.000 A 
ATOM     21  C   UNL     1      -1.557  -2.552   1.324  0.00  0.00    +0.000 A 
ATOM     22  C   UNL     1      -0.270  -2.236   1.846  0.00  0.00    +0.000 A 
ATOM     23  C   UNL     1       0.930  -2.617   1.200  0.00  0.00    +0.000 A 
ATOM     24  C   UNL     1       2.185  -2.309   1.725  0.00  0.00    +0.000 A 
ATOM     25  C   UNL     1       2.281  -1.601   2.911  0.00  0.00    +0.000 A 
ATOM     26  C   UNL     1       1.120  -1.201   3.570  0.00  0.00    +0.000 A 
ATOM     27  C   UNL     1      -0.166  -1.505   3.065  0.00  0.00    +0.000 A 
BRANCH  18  29
ATOM     28  N   UNL     1      -1.303   0.234   5.956  0.00  0.00    +0.000 NA
ATOM     29  C   UNL     1      -1.323  -0.363   4.959  0.00  0.00    +0.000 C 
ENDBRANCH  18  29
ENDBRANCH  17  21
ENDBRANCH  16  17
ENDBRANCH   1  16
TORSDOF 6
