REMARK  Name = 
REMARK  3 active torsions:
REMARK  status: ('A' for Active; 'I' for Inactive)
REMARK    1  A    between atoms: C_2  and  C_16
REMARK    2  A    between atoms: N_3  and  C_4
REMARK    3  A    between atoms: C_18  and  C_19
REMARK                            x       y       z     vdW  Elec       q    Type
REMARK                         _______ _______ _______ _____ _____    ______ ____
ROOT
ATOM      1  O   UNL     1       2.940  -0.816  -0.714  0.00  0.00    +0.000 OA
ATOM      2  C   UNL     1       2.265  -0.209   0.110  0.00  0.00    +0.000 C 
ATOM      3  N   UNL     1       0.896  -0.294   0.264  0.00  0.00    +0.000 N 
ATOM      4  H   UNL     1       0.417   0.531   0.600  0.00  0.00    +0.000 HD
ENDROOT
BRANCH   3   5
ATOM      5  C   UNL     1       0.116  -1.130  -0.535  0.00  0.00    +0.000 A 
ATOM      6  C   UNL     1       0.498  -2.446  -0.787  0.00  0.00    +0.000 A 
ATOM      7  C   UNL     1      -0.292  -3.228  -1.622  0.00  0.00    +0.000 A 
ATOM      8  C   UNL     1      -1.402  -2.639  -2.215  0.00  0.00    +0.000 A 
ATOM      9  C   UNL     1      -2.241  -3.349  -3.191  0.00  0.00    +0.000 A 
ATOM     10  O   UNL     1      -2.053  -4.530  -3.450  0.00  0.00    +0.000 OA
ATOM     11  N   UNL     1      -3.224  -2.605  -3.792  0.00  0.00    +0.000 N 
ATOM     12  C   UNL     1      -3.492  -1.290  -3.548  0.00  0.00    +0.000 A 
ATOM     13  O   UNL     1      -4.351  -0.680  -4.175  0.00  0.00    +0.000 OA
ATOM     14  N   UNL     1      -2.753  -0.693  -2.575  0.00  0.00    +0.000 N 
ATOM     15  C   UNL     1      -1.710  -1.324  -1.910  0.00  0.00    +0.000 A 
ATOM     16  N   UNL     1      -1.009  -0.575  -1.034  0.00  0.00    +0.000 NA
ATOM     17  H   UNL     1      -3.792  -3.056  -4.499  0.00  0.00    +0.000 HD
ATOM     18  H   UNL     1      -2.915   0.285  -2.378  0.00  0.00    +0.000 HD
ENDBRANCH   3   5
BRANCH   2  19
ATOM     19  C   UNL     1       2.918   0.788   0.983  0.00  0.00    +0.000 A 
ATOM     20  C   UNL     1       2.695   0.755   2.368  0.00  0.00    +0.000 A 
ATOM     21  C   UNL     1       3.293   1.697   3.222  0.00  0.00    +0.000 A 
ATOM     22  C   UNL     1       4.109   2.675   2.614  0.00  0.00    +0.000 A 
ATOM     23  C   UNL     1       4.360   2.686   1.237  0.00  0.00    +0.000 A 
ATOM     24  C   UNL     1       3.770   1.734   0.416  0.00  0.00    +0.000 A 
BRANCH  21  25
ATOM     25  C   UNL     1       3.080   1.674   4.694  0.00  0.00    +0.000 A 
ATOM     26  C   UNL     1       4.074   2.098   5.596  0.00  0.00    +0.000 A 
ATOM     27  F   UNL     1       5.284   2.475   5.154  0.00  0.00    +0.000 F 
ATOM     28  C   UNL     1       3.868   2.141   6.978  0.00  0.00    +0.000 A 
ATOM     29  C   UNL     1       2.654   1.731   7.513  0.00  0.00    +0.000 A 
ATOM     30  C   UNL     1       1.660   1.267   6.659  0.00  0.00    +0.000 A 
ATOM     31  C   UNL     1       1.875   1.246   5.277  0.00  0.00    +0.000 A 
ATOM     32  F   UNL     1       0.860   0.812   4.513  0.00  0.00    +0.000 F 
ENDBRANCH  21  25
ENDBRANCH   2  19
TORSDOF 3
