REMARK  Name = 
REMARK  6 active torsions:
REMARK  status: ('A' for Active; 'I' for Inactive)
REMARK    1  A    between atoms: C_2  and  C_4
REMARK    2  A    between atoms: C_7  and  C_8
REMARK    3  A    between atoms: C_8  and  O_9
REMARK    4  A    between atoms: O_9  and  C_10
REMARK    5  A    between atoms: C_13  and  C_14
REMARK    6  A    between atoms: C_18  and  N_19
REMARK                            x       y       z     vdW  Elec       q    Type
REMARK                         _______ _______ _______ _____ _____    ______ ____
ROOT
ATOM      1  C   UNL     1       6.834  -5.978  -2.028  0.00  0.00    +0.000 A 
ATOM      2  C   UNL     1       7.465  -5.972  -3.270  0.00  0.00    +0.000 A 
ATOM      3  C   UNL     1       8.318  -7.021  -3.635  0.00  0.00    +0.000 A 
ATOM      4  C   UNL     1       8.556  -8.098  -2.761  0.00  0.00    +0.000 A 
ATOM      5  C   UNL     1       7.946  -8.048  -1.496  0.00  0.00    +0.000 A 
ATOM      6  C   UNL     1       7.112  -6.996  -1.123  0.00  0.00    +0.000 A 
ENDROOT
BRANCH   4   7
ATOM      7  C   UNL     1       9.355  -9.280  -3.146  0.00  0.00    +0.000 A 
ATOM      8  C   UNL     1      10.139  -9.959  -2.195  0.00  0.00    +0.000 A 
ATOM      9  C   UNL     1      10.784 -11.157  -2.499  0.00  0.00    +0.000 A 
ATOM     10  C   UNL     1      10.660 -11.712  -3.770  0.00  0.00    +0.000 A 
ATOM     11  C   UNL     1       9.898 -11.055  -4.743  0.00  0.00    +0.000 A 
ATOM     12  C   UNL     1       9.275  -9.832  -4.436  0.00  0.00    +0.000 A 
BRANCH  11  13
ATOM     13  N   UNL     1       9.694 -11.640  -6.019  0.00  0.00    +0.000 N 
ATOM     14  C   UNL     1      10.085 -12.878  -6.471  0.00  0.00    +0.000 A 
ATOM     15  N   UNL     1       9.658 -13.081  -7.696  0.00  0.00    +0.000 NA
ATOM     16  C   UNL     1       8.994 -11.925  -7.972  0.00  0.00    +0.000 A 
ATOM     17  N   UNL     1       8.988 -11.017  -6.997  0.00  0.00    +0.000 NA
ENDBRANCH  11  13
ENDBRANCH   4   7
BRANCH   1  18
ATOM     18  O   UNL     1       5.959  -4.957  -1.787  0.00  0.00    +0.000 OA
BRANCH  18  19
ATOM     19  C   UNL     1       4.948  -5.248  -0.811  0.00  0.00    +0.000 C 
BRANCH  19  23
ATOM     20  C   UNL     1       1.640  -2.537  -1.278  0.00  0.00    +0.000 A 
ATOM     21  C   UNL     1       2.942  -2.088  -1.529  0.00  0.00    +0.000 A 
ATOM     22  C   UNL     1       4.021  -2.957  -1.366  0.00  0.00    +0.000 A 
ATOM     23  C   UNL     1       3.806  -4.281  -0.966  0.00  0.00    +0.000 A 
ATOM     24  C   UNL     1       2.505  -4.694  -0.665  0.00  0.00    +0.000 A 
ATOM     25  F   UNL     1       2.285  -5.944  -0.233  0.00  0.00    +0.000 F 
ATOM     26  C   UNL     1       1.422  -3.837  -0.816  0.00  0.00    +0.000 A 
BRANCH  20  28
ATOM     27  N   UNL     1       0.583  -0.699  -2.459  0.00  0.00    +0.000 N 
ATOM     28  C   UNL     1       0.467  -1.656  -1.491  0.00  0.00    +0.000 C 
ATOM     29  O   UNL     1      -0.573  -1.809  -0.866  0.00  0.00    +0.000 OA
ATOM     30  H   UNL     1      -0.261  -0.189  -2.683  0.00  0.00    +0.000 HD
ATOM     31  H   UNL     1       1.315  -0.719  -3.156  0.00  0.00    +0.000 HD
ENDBRANCH  20  28
ENDBRANCH  19  23
ENDBRANCH  18  19
ENDBRANCH   1  18
TORSDOF 6
