REMARK  Name = 
REMARK  6 active torsions:
REMARK  status: ('A' for Active; 'I' for Inactive)
REMARK    1  A    between atoms: C_2  and  C_3
REMARK    2  A    between atoms: C_8  and  O_9
REMARK    3  A    between atoms: O_9  and  C_10
REMARK    4  A    between atoms: C_10  and  C_11
REMARK    5  A    between atoms: C_13  and  C_14
REMARK    6  A    between atoms: N_16  and  C_17
REMARK                            x       y       z     vdW  Elec       q    Type
REMARK                         _______ _______ _______ _____ _____    ______ ____
ROOT
ATOM      1  C   UNL     1      -2.385   3.912  -0.167  0.00  0.00    +0.000 A 
ATOM      2  C   UNL     1      -3.720   4.156   0.179  0.00  0.00    +0.000 A 
ATOM      3  C   UNL     1      -4.237   5.465   0.305  0.00  0.00    +0.000 A 
ATOM      4  C   UNL     1      -3.397   6.548   0.054  0.00  0.00    +0.000 A 
ATOM      5  C   UNL     1      -2.072   6.316  -0.331  0.00  0.00    +0.000 A 
ATOM      6  C   UNL     1      -1.572   5.013  -0.445  0.00  0.00    +0.000 A 
ENDROOT
BRANCH   3   7
ATOM      7  C   UNL     1      -5.656   5.579   0.736  0.00  0.00    +0.000 C 
ATOM      8  O   UNL     1      -6.253   4.506   0.853  0.00  0.00    +0.000 OA
ATOM      9  N   UNL     1      -6.236   6.834   0.957  0.00  0.00    +0.000 N 
ATOM     10  H   UNL     1      -5.757   7.663   0.636  0.00  0.00    +0.000 HD
BRANCH   9  11
ATOM     11  C   UNL     1      -7.599   6.985   1.340  0.00  0.00    +0.000 A 
ATOM     12  C   UNL     1      -8.323   5.891   1.832  0.00  0.00    +0.000 A 
ATOM     13  C   UNL     1      -9.705   5.886   1.837  0.00  0.00    +0.000 A 
ATOM     14  C   UNL     1     -10.337   7.070   1.542  0.00  0.00    +0.000 A 
ATOM     15  C   UNL     1     -11.783   7.195   1.534  0.00  0.00    +0.000 A 
ATOM     16  O   UNL     1     -12.468   6.584   0.725  0.00  0.00    +0.000 OA
ATOM     17  N   UNL     1     -12.214   8.188   2.354  0.00  0.00    +0.000 N 
ATOM     18  C   UNL     1     -11.493   9.361   2.277  0.00  0.00    +0.000 A 
ATOM     19  N   UNL     1     -10.319   9.479   1.736  0.00  0.00    +0.000 NA
ATOM     20  C   UNL     1      -9.641   8.280   1.431  0.00  0.00    +0.000 A 
ATOM     21  C   UNL     1      -8.256   8.222   1.225  0.00  0.00    +0.000 A 
ATOM     22  H   UNL     1     -12.227   7.862   3.319  0.00  0.00    +0.000 HD
ENDBRANCH   9  11
ENDBRANCH   3   7
BRANCH   1  23
ATOM     23  C   UNL     1      -1.836   2.501  -0.158  0.00  0.00    +0.000 C 
BRANCH  23  24
ATOM     24  O   UNL     1      -1.958   1.887  -1.438  0.00  0.00    +0.000 OA
BRANCH  24  30
ATOM     25  C   UNL     1      -0.933  -0.305  -0.717  0.00  0.00    +0.000 A 
ATOM     26  C   UNL     1      -0.590  -1.594  -1.134  0.00  0.00    +0.000 A 
ATOM     27  C   UNL     1      -0.811  -2.020  -2.450  0.00  0.00    +0.000 A 
ATOM     28  C   UNL     1      -1.392  -1.143  -3.352  0.00  0.00    +0.000 A 
ATOM     29  C   UNL     1      -1.748   0.147  -2.934  0.00  0.00    +0.000 A 
ATOM     30  C   UNL     1      -1.529   0.593  -1.609  0.00  0.00    +0.000 A 
BRANCH  25  32
ATOM     31  N   UNL     1      -0.394   0.222   1.761  0.00  0.00    +0.000 NA
ATOM     32  C   UNL     1      -0.644  -0.009   0.648  0.00  0.00    +0.000 C 
ENDBRANCH  25  32
ENDBRANCH  24  30
ENDBRANCH  23  24
ENDBRANCH   1  23
TORSDOF 6
