REMARK  Name = 
REMARK  4 active torsions:
REMARK  status: ('A' for Active; 'I' for Inactive)
REMARK    1  A    between atoms: C_2  and  C_16
REMARK    2  A    between atoms: N_3  and  C_4
REMARK    3  A    between atoms: C_4  and  C_5
REMARK    4  A    between atoms: C_18  and  C_19
REMARK                            x       y       z     vdW  Elec       q    Type
REMARK                         _______ _______ _______ _____ _____    ______ ____
ROOT
ATOM      1  O   UNL     1       0.989   0.161   0.061  0.00  0.00    +0.000 OA
ATOM      2  C   UNL     1       2.203  -0.041  -0.016  0.00  0.00    +0.000 C 
ATOM      3  N   UNL     1       2.942  -0.390   1.095  0.00  0.00    +0.000 N 
ATOM      4  H   UNL     1       3.949  -0.264   1.060  0.00  0.00    +0.000 HD
ENDROOT
BRANCH   2   5
ATOM      5  C   UNL     1       2.906   0.071  -1.268  0.00  0.00    +0.000 A 
ATOM      6  C   UNL     1       2.436   0.449  -2.501  0.00  0.00    +0.000 A 
ATOM      7  C   UNL     1       3.540   0.347  -3.380  0.00  0.00    +0.000 A 
ATOM      8  N   UNL     1       4.621  -0.086  -2.709  0.00  0.00    +0.000 NA
ATOM      9  O   UNL     1       4.222  -0.251  -1.387  0.00  0.00    +0.000 OA
BRANCH   7  10
ATOM     10  C   UNL     1       3.544   0.661  -4.804  0.00  0.00    +0.000 A 
ATOM     11  C   UNL     1       2.715   1.681  -5.298  0.00  0.00    +0.000 A 
ATOM     12  F   UNL     1       1.958   2.411  -4.464  0.00  0.00    +0.000 F 
ATOM     13  C   UNL     1       2.637   1.972  -6.655  0.00  0.00    +0.000 A 
ATOM     14  C   UNL     1       3.402   1.236  -7.546  0.00  0.00    +0.000 A 
ATOM     15  F   UNL     1       3.317   1.495  -8.853  0.00  0.00    +0.000 F 
ATOM     16  C   UNL     1       4.245   0.227  -7.096  0.00  0.00    +0.000 A 
ATOM     17  C   UNL     1       4.312  -0.051  -5.729  0.00  0.00    +0.000 A 
ATOM     18  F   UNL     1       5.111  -1.056  -5.340  0.00  0.00    +0.000 F 
ENDBRANCH   7  10
ENDBRANCH   2   5
BRANCH   3  19
ATOM     19  C   UNL     1       2.300  -0.424   2.393  0.00  0.00    +0.000 C 
BRANCH  19  20
ATOM     20  C   UNL     1       2.960  -1.409   3.306  0.00  0.00    +0.000 A 
ATOM     21  C   UNL     1       2.322  -2.486   3.802  0.00  0.00    +0.000 A 
ATOM     22  C   UNL     1       2.996  -3.412   4.712  0.00  0.00    +0.000 A 
ATOM     23  C   UNL     1       2.354  -4.551   5.207  0.00  0.00    +0.000 A 
ATOM     24  C   UNL     1       3.043  -5.430   6.047  0.00  0.00    +0.000 A 
ATOM     25  C   UNL     1       4.368  -5.169   6.401  0.00  0.00    +0.000 A 
ATOM     26  C   UNL     1       5.008  -4.024   5.925  0.00  0.00    +0.000 A 
ATOM     27  C   UNL     1       4.320  -3.152   5.082  0.00  0.00    +0.000 A 
ATOM     28  N   UNL     1       4.954  -2.005   4.589  0.00  0.00    +0.000 N 
ATOM     29  C   UNL     1       4.361  -1.119   3.729  0.00  0.00    +0.000 A 
ATOM     30  O   UNL     1       4.961  -0.132   3.313  0.00  0.00    +0.000 OA
ATOM     31  H   UNL     1       5.905  -1.795   4.857  0.00  0.00    +0.000 HD
ENDBRANCH  19  20
ENDBRANCH   3  19
TORSDOF 4
