REMARK  Name = 
REMARK  6 active torsions:
REMARK  status: ('A' for Active; 'I' for Inactive)
REMARK    1  A    between atoms: N_7  and  C_8
REMARK    2  A    between atoms: C_11  and  N_12
REMARK    3  A    between atoms: N_12  and  C_13
REMARK    4  A    between atoms: C_13  and  C_14
REMARK    5  A    between atoms: N_16  and  C_17
REMARK    6  A    between atoms: C_17  and  C_18
REMARK                            x       y       z     vdW  Elec       q    Type
REMARK                         _______ _______ _______ _____ _____    ______ ____
ROOT
ATOM      1  N   UNL     1      -0.051  -5.905  -0.157  0.00  0.00    +0.000 N 
ATOM      2  H   UNL     1      -0.299  -6.078   0.817  0.00  0.00    +0.000 HD
ENDROOT
BRANCH   1   6
ATOM      3  C   UNL     1       2.564  -2.588  -0.456  0.00  0.00    +0.000 A 
ATOM      4  C   UNL     1       1.933  -3.092  -1.599  0.00  0.00    +0.000 A 
ATOM      5  C   UNL     1       1.036  -4.165  -1.510  0.00  0.00    +0.000 A 
ATOM      6  C   UNL     1       0.759  -4.772  -0.282  0.00  0.00    +0.000 A 
ATOM      7  C   UNL     1       1.446  -4.285   0.843  0.00  0.00    +0.000 A 
ATOM      8  F   UNL     1       1.258  -4.878   2.035  0.00  0.00    +0.000 F 
ATOM      9  C   UNL     1       2.308  -3.192   0.776  0.00  0.00    +0.000 A 
BRANCH   3  16
ATOM     10  O   UNL     1       4.661  -2.353  -2.357  0.00  0.00    +0.000 OA
ATOM     11  C   UNL     1       4.443  -1.460  -1.541  0.00  0.00    +0.000 A 
ATOM     12  C   UNL     1       5.340  -0.269  -1.558  0.00  0.00    +0.000 A 
ATOM     13  C   UNL     1       5.160   0.736  -0.695  0.00  0.00    +0.000 A 
ATOM     14  C   UNL     1       4.097   0.680   0.271  0.00  0.00    +0.000 A 
ATOM     15  C   UNL     1       3.305  -0.396   0.335  0.00  0.00    +0.000 A 
ATOM     16  N   UNL     1       3.446  -1.466  -0.544  0.00  0.00    +0.000 N 
ENDBRANCH   3  16
ENDBRANCH   1   6
BRANCH   1  17
ATOM     17  C   UNL     1      -1.187  -6.093  -1.058  0.00  0.00    +0.000 C 
BRANCH  17  18
ATOM     18  C   UNL     1      -1.979  -7.323  -0.777  0.00  0.00    +0.000 A 
ATOM     19  C   UNL     1      -1.531  -8.628  -0.770  0.00  0.00    +0.000 A 
ATOM     20  N   UNL     1      -2.591  -9.404  -0.397  0.00  0.00    +0.000 N 
ATOM     21  N   UNL     1      -3.721  -8.689  -0.198  0.00  0.00    +0.000 NA
ATOM     22  C   UNL     1      -3.344  -7.429  -0.432  0.00  0.00    +0.000 A 
BRANCH  20  23
ATOM     23  C   UNL     1      -2.536 -10.807  -0.017  0.00  0.00    +0.000 C 
BRANCH  23  24
ATOM     24  C   UNL     1      -2.841 -11.738  -1.157  0.00  0.00    +0.000 A 
ATOM     25  C   UNL     1      -4.158 -12.129  -1.437  0.00  0.00    +0.000 A 
ATOM     26  C   UNL     1      -4.418 -13.073  -2.434  0.00  0.00    +0.000 A 
ATOM     27  C   UNL     1      -3.368 -13.623  -3.171  0.00  0.00    +0.000 A 
ATOM     28  C   UNL     1      -2.060 -13.210  -2.928  0.00  0.00    +0.000 A 
ATOM     29  C   UNL     1      -1.808 -12.271  -1.931  0.00  0.00    +0.000 A 
ATOM     30  F   UNL     1      -0.541 -11.899  -1.698  0.00  0.00    +0.000 F 
ENDBRANCH  23  24
ENDBRANCH  20  23
ENDBRANCH  17  18
ENDBRANCH   1  17
TORSDOF 6
