REMARK  Name = 
REMARK  10 active torsions:
REMARK  status: ('A' for Active; 'I' for Inactive)
REMARK    1  A    between atoms: C_1  and  O_2
REMARK    2  A    between atoms: O_2  and  C_3
REMARK    3  A    between atoms: C_7  and  C_8
REMARK    4  A    between atoms: C_8  and  N_9
REMARK    5  A    between atoms: C_8  and  C_24
REMARK    6  A    between atoms: C_10  and  C_12
REMARK    7  A    between atoms: N_14  and  C_15
REMARK    8  A    between atoms: C_15  and  C_16
REMARK    9  A    between atoms: C_30  and  O_31
REMARK   10  A    between atoms: O_31  and  C_32
REMARK                            x       y       z     vdW  Elec       q    Type
REMARK                         _______ _______ _______ _____ _____    ______ ____
ROOT
ATOM      1  C   UNL     1       6.409  -2.699   0.744  0.00  0.00    +0.000 C 
ENDROOT
BRANCH   1   2
ATOM      2  C   UNL     1       7.151  -3.989   0.354  0.00  0.00    +0.000 A 
ATOM      3  C   UNL     1       6.410  -5.170   0.109  0.00  0.00    +0.000 A 
ATOM      4  C   UNL     1       6.999  -6.350  -0.323  0.00  0.00    +0.000 A 
ATOM      5  F   UNL     1       6.225  -7.407  -0.600  0.00  0.00    +0.000 F 
ATOM      6  C   UNL     1       8.363  -6.426  -0.505  0.00  0.00    +0.000 A 
ATOM      7  C   UNL     1       9.134  -5.292  -0.257  0.00  0.00    +0.000 A 
ATOM      8  C   UNL     1       8.546  -4.080   0.167  0.00  0.00    +0.000 A 
BRANCH   8   9
ATOM      9  O   UNL     1       9.427  -3.032   0.159  0.00  0.00    +0.000 OA
ATOM     10  C   UNL     1       9.564  -2.281   1.357  0.00  0.00    +0.000 C 
ENDBRANCH   8   9
ENDBRANCH   1   2
BRANCH   1  15
ATOM     11  C   UNL     1       3.595  -1.662  -1.674  0.00  0.00    +0.000 A 
ATOM     12  C   UNL     1       2.559  -2.505  -1.276  0.00  0.00    +0.000 A 
ATOM     13  C   UNL     1       2.706  -3.296  -0.144  0.00  0.00    +0.000 A 
ATOM     14  C   UNL     1       3.899  -3.267   0.577  0.00  0.00    +0.000 A 
ATOM     15  C   UNL     1       5.008  -2.527   0.130  0.00  0.00    +0.000 A 
ATOM     16  C   UNL     1       4.820  -1.697  -0.991  0.00  0.00    +0.000 A 
BRANCH  11  18
ATOM     17  C   UNL     1       2.218  -0.436  -3.151  0.00  0.00    +0.000 C 
ATOM     18  O   UNL     1       3.533  -0.805  -2.741  0.00  0.00    +0.000 OA
ENDBRANCH  11  18
ENDBRANCH   1  15
BRANCH   1  19
ATOM     19  N   UNL     1       6.445  -2.409   2.179  0.00  0.00    +0.000 N 
ATOM     20  C   UNL     1       6.065  -3.245   3.197  0.00  0.00    +0.000 C 
ATOM     21  O   UNL     1       5.579  -4.360   3.047  0.00  0.00    +0.000 OA
ATOM     22  H   UNL     1       6.759  -1.483   2.453  0.00  0.00    +0.000 HD
BRANCH  20  23
ATOM     23  C   UNL     1       6.328  -2.705   4.527  0.00  0.00    +0.000 A 
ATOM     24  C   UNL     1       5.971  -3.261   5.736  0.00  0.00    +0.000 A 
ATOM     25  N   UNL     1       6.525  -2.429   6.669  0.00  0.00    +0.000 N 
ATOM     26  N   UNL     1       7.161  -1.397   6.082  0.00  0.00    +0.000 NA
ATOM     27  N   UNL     1       7.035  -1.547   4.769  0.00  0.00    +0.000 NA
BRANCH  25  28
ATOM     28  C   UNL     1       6.579  -2.628   8.107  0.00  0.00    +0.000 C 
BRANCH  28  29
ATOM     29  C   UNL     1       5.385  -2.031   8.793  0.00  0.00    +0.000 A 
ATOM     30  C   UNL     1       4.225  -2.774   9.040  0.00  0.00    +0.000 A 
ATOM     31  C   UNL     1       3.126  -2.160   9.635  0.00  0.00    +0.000 A 
ATOM     32  C   UNL     1       3.225  -0.821   9.973  0.00  0.00    +0.000 A 
ATOM     33  N   UNL     1       4.333  -0.078   9.767  0.00  0.00    +0.000 NA
ATOM     34  C   UNL     1       5.382  -0.694   9.178  0.00  0.00    +0.000 A 
ENDBRANCH  28  29
ENDBRANCH  25  28
ENDBRANCH  20  23
ENDBRANCH   1  19
TORSDOF 8
