REMARK  Name = 
REMARK  4 active torsions:
REMARK  status: ('A' for Active; 'I' for Inactive)
REMARK    1  A    between atoms: C_2  and  C_17
REMARK    2  A    between atoms: N_3  and  C_4
REMARK    3  A    between atoms: C_4  and  C_5
REMARK    4  A    between atoms: C_9  and  C_10
REMARK                            x       y       z     vdW  Elec       q    Type
REMARK                         _______ _______ _______ _____ _____    ______ ____
ROOT
ATOM      1  O   UNL     1       2.213   1.802  -0.082  0.00  0.00    +0.000 OA
ATOM      2  C   UNL     1       2.923   0.801  -0.159  0.00  0.00    +0.000 C 
ATOM      3  N   UNL     1       3.019   0.035  -1.292  0.00  0.00    +0.000 N 
ATOM      4  H   UNL     1       3.635  -0.766  -1.303  0.00  0.00    +0.000 HD
ENDROOT
BRANCH   2   5
ATOM      5  C   UNL     1       3.778   0.355   0.983  0.00  0.00    +0.000 A 
ATOM      6  C   UNL     1       3.698   1.085   2.104  0.00  0.00    +0.000 A 
ATOM      7  C   UNL     1       4.600   0.786   3.219  0.00  0.00    +0.000 A 
ATOM      8  O   UNL     1       4.514   1.377   4.286  0.00  0.00    +0.000 OA
ATOM      9  C   UNL     1       5.627  -0.232   2.967  0.00  0.00    +0.000 A 
ATOM     10  C   UNL     1       6.662  -0.432   3.883  0.00  0.00    +0.000 A 
ATOM     11  C   UNL     1       7.601  -1.419   3.621  0.00  0.00    +0.000 A 
ATOM     12  F   UNL     1       8.618  -1.603   4.472  0.00  0.00    +0.000 F 
ATOM     13  C   UNL     1       7.507  -2.219   2.484  0.00  0.00    +0.000 A 
ATOM     14  C   UNL     1       6.477  -2.002   1.564  0.00  0.00    +0.000 A 
ATOM     15  C   UNL     1       5.552  -0.983   1.793  0.00  0.00    +0.000 A 
ATOM     16  O   UNL     1       4.615  -0.743   0.815  0.00  0.00    +0.000 OA
ENDBRANCH   2   5
BRANCH   3  17
ATOM     17  C   UNL     1       2.309   0.388  -2.504  0.00  0.00    +0.000 C 
BRANCH  17  18
ATOM     18  C   UNL     1       3.273   0.648  -3.629  0.00  0.00    +0.000 A 
ATOM     19  C   UNL     1       3.744   1.944  -3.879  0.00  0.00    +0.000 A 
ATOM     20  C   UNL     1       4.681   2.174  -4.881  0.00  0.00    +0.000 A 
ATOM     21  C   UNL     1       5.186   1.101  -5.614  0.00  0.00    +0.000 A 
ATOM     22  C   UNL     1       4.775  -0.220  -5.361  0.00  0.00    +0.000 A 
ATOM     23  C   UNL     1       3.775  -0.419  -4.393  0.00  0.00    +0.000 A 
BRANCH  22  24
ATOM     24  C   UNL     1       5.435  -1.364  -6.017  0.00  0.00    +0.000 A 
ATOM     25  C   UNL     1       6.801  -1.326  -6.325  0.00  0.00    +0.000 A 
ATOM     26  C   UNL     1       7.405  -2.435  -6.900  0.00  0.00    +0.000 A 
ATOM     27  C   UNL     1       6.642  -3.564  -7.149  0.00  0.00    +0.000 A 
ATOM     28  C   UNL     1       5.298  -3.535  -6.806  0.00  0.00    +0.000 A 
ATOM     29  N   UNL     1       4.687  -2.470  -6.242  0.00  0.00    +0.000 NA
ENDBRANCH  22  24
ENDBRANCH  17  18
ENDBRANCH   3  17
TORSDOF 4
