REMARK  Name = 
REMARK  9 active torsions:
REMARK  status: ('A' for Active; 'I' for Inactive)
REMARK    1  A    between atoms: C_1  and  O_2
REMARK    2  A    between atoms: O_2  and  C_3
REMARK    3  A    between atoms: C_3  and  C_5
REMARK    4  A    between atoms: C_10  and  S_11
REMARK    5  A    between atoms: S_11  and  N_14
REMARK    6  A    between atoms: N_14  and  C_15
REMARK    7  A    between atoms: C_15  and  C_16
REMARK    8  A    between atoms: C_15  and  C_17
REMARK    9  A    between atoms: C_20  and  C_21
REMARK                            x       y       z     vdW  Elec       q    Type
REMARK                         _______ _______ _______ _____ _____    ______ ____
ROOT
ATOM      1  S   UNL     1       9.126   0.879  -1.569  0.00  0.00    +0.000 S 
ATOM      2  O   UNL     1       7.803   1.401  -1.815  0.00  0.00    +0.000 OA
ATOM      3  O   UNL     1      10.024   1.514  -0.632  0.00  0.00    +0.000 OA
ENDROOT
BRANCH   1   9
ATOM      4  C   UNL     1       7.790  -2.466   2.142  0.00  0.00    +0.000 A 
ATOM      5  N   UNL     1       7.464  -1.433   2.972  0.00  0.00    +0.000 NA
ATOM      6  C   UNL     1       7.612  -0.196   2.496  0.00  0.00    +0.000 A 
ATOM      7  C   UNL     1       8.066   0.070   1.221  0.00  0.00    +0.000 A 
ATOM      8  C   UNL     1       8.423  -0.983   0.340  0.00  0.00    +0.000 A 
ATOM      9  C   UNL     1       8.909  -0.786  -0.987  0.00  0.00    +0.000 A 
ATOM     10  C   UNL     1       9.252  -1.851  -1.822  0.00  0.00    +0.000 A 
ATOM     11  C   UNL     1       9.109  -3.146  -1.357  0.00  0.00    +0.000 A 
ATOM     12  C   UNL     1       8.627  -3.371  -0.065  0.00  0.00    +0.000 A 
ATOM     13  C   UNL     1       8.282  -2.311   0.815  0.00  0.00    +0.000 A 
BRANCH   4  14
ATOM     14  C   UNL     1       7.587  -3.822   2.749  0.00  0.00    +0.000 C 
ATOM     15  O   UNL     1       8.238  -4.822   2.495  0.00  0.00    +0.000 OA
BRANCH  14  17
ATOM     16  C   UNL     1       6.232  -5.005   4.246  0.00  0.00    +0.000 C 
ATOM     17  O   UNL     1       6.533  -3.768   3.610  0.00  0.00    +0.000 OA
ENDBRANCH  14  17
ENDBRANCH   4  14
ENDBRANCH   1   9
BRANCH   1  18
ATOM     18  N   UNL     1       9.842   0.799  -3.095  0.00  0.00    +0.000 NA
ATOM     19  H   UNL     1       9.333   1.398  -3.741  0.00  0.00    +0.000 HD
BRANCH  18  20
ATOM     20  C   UNL     1      11.313   0.825  -3.205  0.00  0.00    +0.000 C 
ATOM     21  C   UNL     1      11.717   0.724  -4.679  0.00  0.00    +0.000 C 
BRANCH  20  22
ATOM     22  C   UNL     1      11.961   2.058  -2.622  0.00  0.00    +0.000 A 
ATOM     23  C   UNL     1      13.210   1.940  -2.003  0.00  0.00    +0.000 A 
ATOM     24  C   UNL     1      13.800   3.044  -1.390  0.00  0.00    +0.000 A 
ATOM     25  C   UNL     1      13.156   4.293  -1.353  0.00  0.00    +0.000 A 
ATOM     26  C   UNL     1      11.904   4.395  -1.981  0.00  0.00    +0.000 A 
ATOM     27  C   UNL     1      11.327   3.307  -2.631  0.00  0.00    +0.000 A 
BRANCH  25  28
ATOM     28  C   UNL     1      13.759   5.452  -0.673  0.00  0.00    +0.000 A 
ATOM     29  C   UNL     1      13.550   6.767  -1.115  0.00  0.00    +0.000 A 
ATOM     30  C   UNL     1      14.126   7.842  -0.444  0.00  0.00    +0.000 A 
ATOM     31  C   UNL     1      14.919   7.578   0.657  0.00  0.00    +0.000 A 
ATOM     32  N   UNL     1      15.159   6.338   1.125  0.00  0.00    +0.000 NA
ATOM     33  C   UNL     1      14.569   5.315   0.458  0.00  0.00    +0.000 A 
ENDBRANCH  25  28
ENDBRANCH  20  22
ENDBRANCH  18  20
ENDBRANCH   1  18
TORSDOF 7
