REMARK  Name = 
REMARK  4 active torsions:
REMARK  status: ('A' for Active; 'I' for Inactive)
REMARK    1  A    between atoms: C_2  and  C_17
REMARK    2  A    between atoms: N_3  and  C_4
REMARK    3  A    between atoms: N_8  and  C_9
REMARK    4  A    between atoms: C_23  and  C_24
REMARK                            x       y       z     vdW  Elec       q    Type
REMARK                         _______ _______ _______ _____ _____    ______ ____
ROOT
ATOM      1  O   UNL     1       1.975   0.137   0.400  0.00  0.00    +0.000 OA
ATOM      2  C   UNL     1       3.048   0.039  -0.175  0.00  0.00    +0.000 C 
ATOM      3  N   UNL     1       3.276  -0.016  -1.542  0.00  0.00    +0.000 N 
ATOM      4  H   UNL     1       4.242  -0.244  -1.782  0.00  0.00    +0.000 HD
ENDROOT
BRANCH   2   5
ATOM      5  C   UNL     1       4.330  -0.013   0.520  0.00  0.00    +0.000 A 
ATOM      6  C   UNL     1       4.645  -0.128   1.863  0.00  0.00    +0.000 A 
ATOM      7  N   UNL     1       6.006   0.068   1.931  0.00  0.00    +0.000 N 
ATOM      8  C   UNL     1       6.906   0.001   2.990  0.00  0.00    +0.000 A 
ATOM      9  C   UNL     1       8.179   0.384   2.777  0.00  0.00    +0.000 A 
ATOM     10  C   UNL     1       8.518   1.018   1.505  0.00  0.00    +0.000 A 
ATOM     11  C   UNL     1       7.644   1.085   0.473  0.00  0.00    +0.000 A 
ATOM     12  C   UNL     1       6.401   0.426   0.652  0.00  0.00    +0.000 A 
ATOM     13  N   UNL     1       5.475   0.162  -0.227  0.00  0.00    +0.000 NA
BRANCH  11  14
ATOM     14  C   UNL     1       7.870   1.962  -0.727  0.00  0.00    +0.000 C 
ATOM     15  F   UNL     1       6.751   2.146  -1.483  0.00  0.00    +0.000 F 
ATOM     16  F   UNL     1       8.266   3.209  -0.353  0.00  0.00    +0.000 F 
ATOM     17  F   UNL     1       8.823   1.476  -1.556  0.00  0.00    +0.000 F 
ENDBRANCH  11  14
ENDBRANCH   2   5
BRANCH   3  18
ATOM     18  C   UNL     1       2.401   0.196  -2.571  0.00  0.00    +0.000 A 
ATOM     19  C   UNL     1       1.281   0.913  -2.457  0.00  0.00    +0.000 A 
ATOM     20  C   UNL     1       0.341   1.057  -3.599  0.00  0.00    +0.000 A 
ATOM     21  O   UNL     1      -0.659   1.741  -3.384  0.00  0.00    +0.000 OA
ATOM     22  N   UNL     1       0.658   0.346  -4.780  0.00  0.00    +0.000 N 
ATOM     23  C   UNL     1       1.881  -0.326  -4.867  0.00  0.00    +0.000 A 
ATOM     24  C   UNL     1       2.744  -0.380  -3.840  0.00  0.00    +0.000 A 
BRANCH  22  25
ATOM     25  C   UNL     1      -0.299   0.291  -5.866  0.00  0.00    +0.000 A 
ATOM     26  C   UNL     1      -1.255   1.297  -6.069  0.00  0.00    +0.000 A 
ATOM     27  C   UNL     1      -2.227   1.195  -7.070  0.00  0.00    +0.000 A 
ATOM     28  C   UNL     1      -2.256   0.086  -7.905  0.00  0.00    +0.000 A 
ATOM     29  C   UNL     1      -1.302  -0.913  -7.749  0.00  0.00    +0.000 A 
ATOM     30  C   UNL     1      -0.331  -0.809  -6.744  0.00  0.00    +0.000 A 
ENDBRANCH  22  25
ENDBRANCH   3  18
TORSDOF 4
