REMARK  Name = 
REMARK  5 active torsions:
REMARK  status: ('A' for Active; 'I' for Inactive)
REMARK    1  A    between atoms: N_3  and  C_4
REMARK    2  A    between atoms: C_4  and  C_5
REMARK    3  A    between atoms: C_8  and  C_9
REMARK    4  A    between atoms: N_18  and  C_19
REMARK    5  A    between atoms: C_21  and  C_22
REMARK                            x       y       z     vdW  Elec       q    Type
REMARK                         _______ _______ _______ _____ _____    ______ ____
ROOT
ATOM      1  O   UNL     1       1.154   0.016  -0.079  0.00  0.00    +0.000 OA
ATOM      2  C   UNL     1       2.375  -0.073   0.029  0.00  0.00    +0.000 C 
ATOM      3  N   UNL     1       2.991  -0.700   1.063  0.00  0.00    +0.000 N 
ATOM      4  N   UNL     1       3.175   0.466  -0.936  0.00  0.00    +0.000 N 
ATOM      5  H   UNL     1       3.988  -0.515   1.147  0.00  0.00    +0.000 HD
ATOM      6  H   UNL     1       2.652   0.917  -1.672  0.00  0.00    +0.000 HD
ENDROOT
BRANCH   4   7
ATOM      7  C   UNL     1       4.563   0.354  -1.072  0.00  0.00    +0.000 A 
ATOM      8  C   UNL     1       5.158   0.890  -2.209  0.00  0.00    +0.000 A 
ATOM      9  C   UNL     1       6.534   0.700  -2.437  0.00  0.00    +0.000 A 
ATOM     10  C   UNL     1       7.245  -0.018  -1.468  0.00  0.00    +0.000 A 
ATOM     11  C   UNL     1       6.585  -0.479  -0.345  0.00  0.00    +0.000 A 
ATOM     12  N   UNL     1       5.271  -0.297  -0.129  0.00  0.00    +0.000 NA
BRANCH   9  13
ATOM     13  C   UNL     1       7.198   1.216  -3.654  0.00  0.00    +0.000 A 
ATOM     14  C   UNL     1       6.523   1.355  -4.876  0.00  0.00    +0.000 A 
ATOM     15  C   UNL     1       7.179   1.847  -6.004  0.00  0.00    +0.000 A 
ATOM     16  C   UNL     1       8.515   2.183  -5.892  0.00  0.00    +0.000 A 
ATOM     17  N   UNL     1       9.217   2.063  -4.749  0.00  0.00    +0.000 NA
ATOM     18  C   UNL     1       8.546   1.590  -3.670  0.00  0.00    +0.000 A 
ENDBRANCH   9  13
ENDBRANCH   4   7
BRANCH   3  19
ATOM     19  C   UNL     1       2.285  -1.241   2.193  0.00  0.00    +0.000 C 
BRANCH  19  20
ATOM     20  C   UNL     1       3.023  -2.396   2.830  0.00  0.00    +0.000 A 
ATOM     21  C   UNL     1       3.439  -2.336   4.167  0.00  0.00    +0.000 A 
ATOM     22  C   UNL     1       4.064  -3.433   4.774  0.00  0.00    +0.000 A 
ATOM     23  C   UNL     1       4.281  -4.615   4.055  0.00  0.00    +0.000 A 
ATOM     24  C   UNL     1       3.879  -4.676   2.716  0.00  0.00    +0.000 A 
ATOM     25  C   UNL     1       3.259  -3.577   2.109  0.00  0.00    +0.000 A 
BRANCH  23  26
ATOM     26  C   UNL     1       4.929  -5.774   4.697  0.00  0.00    +0.000 A 
ATOM     27  C   UNL     1       4.155  -6.683   5.321  0.00  0.00    +0.000 A 
ATOM     28  N   UNL     1       4.712  -7.781   5.935  0.00  0.00    +0.000 N 
ATOM     29  C   UNL     1       6.060  -8.045   5.971  0.00  0.00    +0.000 A 
ATOM     30  O   UNL     1       6.534  -9.025   6.526  0.00  0.00    +0.000 OA
ATOM     31  C   UNL     1       6.924  -7.053   5.283  0.00  0.00    +0.000 A 
ATOM     32  C   UNL     1       6.369  -5.986   4.687  0.00  0.00    +0.000 A 
ATOM     33  H   UNL     1       4.119  -8.455   6.402  0.00  0.00    +0.000 HD
ENDBRANCH  23  26
ENDBRANCH  19  20
ENDBRANCH   3  19
TORSDOF 5
