REMARK  Name = 
REMARK  5 active torsions:
REMARK  status: ('A' for Active; 'I' for Inactive)
REMARK    1  A    between atoms: C_1  and  O_2
REMARK    2  A    between atoms: O_2  and  C_3
REMARK    3  A    between atoms: C_3  and  C_5
REMARK    4  A    between atoms: C_9  and  C_10
REMARK    5  A    between atoms: C_13  and  C_14
REMARK                            x       y       z     vdW  Elec       q    Type
REMARK                         _______ _______ _______ _____ _____    ______ ____
ROOT
ATOM      1  C   UNL     1       8.931  -0.981  -0.771  0.00  0.00    +0.000 A 
ATOM      2  N   UNL     1       9.652  -0.043  -1.394  0.00  0.00    +0.000 NA
ATOM      3  O   UNL     1      10.961  -0.404  -1.139  0.00  0.00    +0.000 OA
ATOM      4  C   UNL     1      10.940  -1.542  -0.361  0.00  0.00    +0.000 A 
ATOM      5  N   UNL     1       9.694  -1.935  -0.150  0.00  0.00    +0.000 NA
ENDROOT
BRANCH   4   6
ATOM      6  C   UNL     1      12.132  -2.159   0.133  0.00  0.00    +0.000 A 
ATOM      7  C   UNL     1      13.168  -1.338   0.407  0.00  0.00    +0.000 A 
ATOM      8  C   UNL     1      14.443  -1.835   0.964  0.00  0.00    +0.000 A 
ATOM      9  O   UNL     1      15.372  -1.063   1.188  0.00  0.00    +0.000 OA
ATOM     10  N   UNL     1      14.532  -3.172   1.215  0.00  0.00    +0.000 N 
ATOM     11  C   UNL     1      13.515  -4.082   0.905  0.00  0.00    +0.000 A 
ATOM     12  C   UNL     1      13.734  -5.445   1.099  0.00  0.00    +0.000 A 
ATOM     13  C   UNL     1      12.757  -6.348   0.698  0.00  0.00    +0.000 A 
ATOM     14  F   UNL     1      12.979  -7.662   0.829  0.00  0.00    +0.000 F 
ATOM     15  C   UNL     1      11.562  -5.914   0.139  0.00  0.00    +0.000 A 
ATOM     16  C   UNL     1      11.331  -4.547  -0.016  0.00  0.00    +0.000 A 
ATOM     17  C   UNL     1      12.309  -3.612   0.359  0.00  0.00    +0.000 A 
ATOM     18  H   UNL     1      15.415  -3.493   1.590  0.00  0.00    +0.000 HD
ENDBRANCH   4   6
BRANCH   1  23
ATOM     19  C   UNL     1       4.676  -0.970  -0.689  0.00  0.00    +0.000 A 
ATOM     20  C   UNL     1       5.369  -2.183  -0.629  0.00  0.00    +0.000 A 
ATOM     21  C   UNL     1       6.764  -2.177  -0.657  0.00  0.00    +0.000 A 
ATOM     22  F   UNL     1       7.399  -3.359  -0.616  0.00  0.00    +0.000 F 
ATOM     23  C   UNL     1       7.487  -0.985  -0.740  0.00  0.00    +0.000 A 
ATOM     24  C   UNL     1       6.775   0.215  -0.786  0.00  0.00    +0.000 A 
ATOM     25  F   UNL     1       7.415   1.391  -0.854  0.00  0.00    +0.000 F 
ATOM     26  C   UNL     1       5.384   0.233  -0.756  0.00  0.00    +0.000 A 
BRANCH  19  27
ATOM     27  C   UNL     1       3.197  -0.907  -0.666  0.00  0.00    +0.000 C 
ATOM     28  O   UNL     1       2.580   0.046  -0.226  0.00  0.00    +0.000 OA
BRANCH  27  30
ATOM     29  C   UNL     1       1.242  -2.053  -1.192  0.00  0.00    +0.000 C 
ATOM     30  O   UNL     1       2.671  -2.028  -1.217  0.00  0.00    +0.000 OA
ENDBRANCH  27  30
ENDBRANCH  19  27
ENDBRANCH   1  23
TORSDOF 4
