REMARK  Name = 
REMARK  4 active torsions:
REMARK  status: ('A' for Active; 'I' for Inactive)
REMARK    1  A    between atoms: C_2  and  N_3
REMARK    2  A    between atoms: C_2  and  C_18
REMARK    3  A    between atoms: S_4  and  C_6
REMARK    4  A    between atoms: S_4  and  C_12
REMARK                            x       y       z     vdW  Elec       q    Type
REMARK                         _______ _______ _______ _____ _____    ______ ____
ROOT
ATOM      1  N   UNL     1       2.982   1.232  -0.765  0.00  0.00    +0.000 NA
ATOM      2  S   UNL     1       2.150   2.469  -1.123  0.00  0.00    +0.000 S 
ATOM      3  O   UNL     1       1.148   2.543  -2.168  0.00  0.00    +0.000 OA
ENDROOT
BRANCH   2   4
ATOM      4  C   UNL     1       1.376   3.017   0.399  0.00  0.00    +0.000 A 
ATOM      5  C   UNL     1       2.162   3.427   1.481  0.00  0.00    +0.000 A 
ATOM      6  C   UNL     1       1.544   3.895   2.645  0.00  0.00    +0.000 A 
ATOM      7  C   UNL     1       0.151   3.948   2.731  0.00  0.00    +0.000 A 
ATOM      8  C   UNL     1      -0.630   3.533   1.652  0.00  0.00    +0.000 A 
ATOM      9  C   UNL     1      -0.021   3.065   0.484  0.00  0.00    +0.000 A 
ENDBRANCH   2   4
BRANCH   2  10
ATOM     10  C   UNL     1       3.362   3.684  -1.608  0.00  0.00    +0.000 A 
ATOM     11  C   UNL     1       4.564   3.244  -2.165  0.00  0.00    +0.000 A 
ATOM     12  C   UNL     1       5.493   4.199  -2.521  0.00  0.00    +0.000 A 
ATOM     13  N   UNL     1       5.294   5.522  -2.365  0.00  0.00    +0.000 NA
ATOM     14  C   UNL     1       4.110   5.916  -1.838  0.00  0.00    +0.000 A 
ATOM     15  C   UNL     1       3.112   5.042  -1.447  0.00  0.00    +0.000 A 
ENDBRANCH   2  10
BRANCH   1  17
ATOM     16  O   UNL     1       1.313  -0.355  -0.943  0.00  0.00    +0.000 OA
ATOM     17  C   UNL     1       2.435  -0.033  -0.565  0.00  0.00    +0.000 C 
BRANCH  17  18
ATOM     18  C   UNL     1       3.257  -0.997   0.251  0.00  0.00    +0.000 A 
ATOM     19  C   UNL     1       2.536  -1.870   0.965  0.00  0.00    +0.000 A 
ATOM     20  O   UNL     1       2.857  -2.211   2.288  0.00  0.00    +0.000 OA
ATOM     21  C   UNL     1       3.569  -1.242   2.964  0.00  0.00    +0.000 A 
ATOM     22  O   UNL     1       3.397  -0.976   4.141  0.00  0.00    +0.000 OA
ATOM     23  C   UNL     1       4.675  -0.657   2.184  0.00  0.00    +0.000 A 
ATOM     24  C   UNL     1       5.826  -0.183   2.821  0.00  0.00    +0.000 A 
ATOM     25  C   UNL     1       6.954   0.112   2.057  0.00  0.00    +0.000 A 
ATOM     26  C   UNL     1       6.923  -0.074   0.672  0.00  0.00    +0.000 A 
ATOM     27  C   UNL     1       5.734  -0.448   0.032  0.00  0.00    +0.000 A 
ATOM     28  C   UNL     1       4.584  -0.692   0.792  0.00  0.00    +0.000 A 
ENDBRANCH  17  18
ENDBRANCH   1  17
TORSDOF 4
