REMARK  Name = 
REMARK  3 active torsions:
REMARK  status: ('A' for Active; 'I' for Inactive)
REMARK    1  A    between atoms: C_2  and  C_17
REMARK    2  A    between atoms: N_6  and  C_7
REMARK    3  A    between atoms: N_19  and  C_20
REMARK                            x       y       z     vdW  Elec       q    Type
REMARK                         _______ _______ _______ _____ _____    ______ ____
ROOT
ATOM      1  O   UNL     1       1.036  -0.123  -0.160  0.00  0.00    +0.000 OA
ATOM      2  C   UNL     1       2.249  -0.063   0.022  0.00  0.00    +0.000 C 
ATOM      3  N   UNL     1       2.932  -0.464   1.144  0.00  0.00    +0.000 N 
ATOM      4  C   UNL     1       2.321  -0.979   2.248  0.00  0.00    +0.000 A 
ATOM      5  N   UNL     1       1.050  -1.360   2.337  0.00  0.00    +0.000 NA
ATOM      6  N   UNL     1       0.912  -1.683   3.632  0.00  0.00    +0.000 N 
ATOM      7  C   UNL     1       2.125  -1.540   4.259  0.00  0.00    +0.000 A 
ATOM      8  N   UNL     1       3.033  -1.119   3.403  0.00  0.00    +0.000 NA
ATOM      9  H   UNL     1       3.918  -0.265   1.208  0.00  0.00    +0.000 HD
ENDROOT
BRANCH   6  10
ATOM     10  C   UNL     1      -0.345  -2.074   4.158  0.00  0.00    +0.000 A 
ATOM     11  C   UNL     1      -0.525  -2.285   5.534  0.00  0.00    +0.000 A 
ATOM     12  C   UNL     1      -1.785  -2.651   6.022  0.00  0.00    +0.000 A 
ATOM     13  C   UNL     1      -2.851  -2.813   5.142  0.00  0.00    +0.000 A 
ATOM     14  F   UNL     1      -4.050  -3.168   5.623  0.00  0.00    +0.000 F 
ATOM     15  C   UNL     1      -2.676  -2.609   3.780  0.00  0.00    +0.000 A 
ATOM     16  F   UNL     1      -3.704  -2.773   2.936  0.00  0.00    +0.000 F 
ATOM     17  C   UNL     1      -1.433  -2.235   3.281  0.00  0.00    +0.000 A 
ENDBRANCH   6  10
BRANCH   2  18
ATOM     18  C   UNL     1       3.114   0.547  -1.000  0.00  0.00    +0.000 A 
ATOM     19  N   UNL     1       4.460   0.587  -0.923  0.00  0.00    +0.000 NA
ATOM     20  N   UNL     1       4.853   1.297  -2.029  0.00  0.00    +0.000 N 
ATOM     21  C   UNL     1       3.768   1.659  -2.792  0.00  0.00    +0.000 A 
ATOM     22  C   UNL     1       2.645   1.189  -2.165  0.00  0.00    +0.000 A 
BRANCH  20  23
ATOM     23  C   UNL     1       6.225   1.597  -2.254  0.00  0.00    +0.000 A 
ATOM     24  C   UNL     1       7.207   1.055  -1.406  0.00  0.00    +0.000 A 
ATOM     25  C   UNL     1       8.557   1.371  -1.599  0.00  0.00    +0.000 A 
ATOM     26  C   UNL     1       8.925   2.226  -2.632  0.00  0.00    +0.000 A 
ATOM     27  F   UNL     1      10.215   2.539  -2.805  0.00  0.00    +0.000 F 
ATOM     28  C   UNL     1       7.974   2.764  -3.483  0.00  0.00    +0.000 A 
ATOM     29  C   UNL     1       6.630   2.445  -3.294  0.00  0.00    +0.000 A 
ATOM     30  F   UNL     1       5.758   3.010  -4.137  0.00  0.00    +0.000 F 
ENDBRANCH  20  23
ENDBRANCH   2  18
TORSDOF 3
