REMARK  Name = 
REMARK  10 active torsions:
REMARK  status: ('A' for Active; 'I' for Inactive)
REMARK    1  A    between atoms: C_1  and  O_2
REMARK    2  A    between atoms: O_2  and  C_3
REMARK    3  A    between atoms: C_3  and  C_5
REMARK    4  A    between atoms: C_5  and  N_6
REMARK    5  A    between atoms: C_5  and  C_25
REMARK    6  A    between atoms: C_7  and  C_9
REMARK    7  A    between atoms: N_11  and  C_12
REMARK    8  A    between atoms: C_14  and  C_15
REMARK    9  A    between atoms: C_18  and  O_19
REMARK   10  A    between atoms: O_19  and  C_20
REMARK                            x       y       z     vdW  Elec       q    Type
REMARK                         _______ _______ _______ _____ _____    ______ ____
ROOT
ATOM      1  N   UNL     1       3.740  -1.576   0.527  0.00  0.00    +0.000 N 
ATOM      2  C   UNL     1       4.853  -1.607  -0.287  0.00  0.00    +0.000 C 
ATOM      3  O   UNL     1       5.478  -0.600  -0.597  0.00  0.00    +0.000 OA
ATOM      4  H   UNL     1       3.463  -2.428   1.001  0.00  0.00    +0.000 HD
ENDROOT
BRANCH   2   5
ATOM      5  C   UNL     1       5.253  -2.980  -0.760  0.00  0.00    +0.000 A 
ATOM      6  C   UNL     1       6.481  -3.154  -1.295  0.00  0.00    +0.000 A 
ATOM      7  N   UNL     1       6.899  -4.394  -1.790  0.00  0.00    +0.000 N 
ATOM      8  C   UNL     1       6.074  -5.531  -1.716  0.00  0.00    +0.000 A 
ATOM      9  O   UNL     1       6.376  -6.674  -2.056  0.00  0.00    +0.000 OA
ATOM     10  C   UNL     1       4.708  -5.311  -1.184  0.00  0.00    +0.000 A 
ATOM     11  C   UNL     1       4.332  -4.101  -0.758  0.00  0.00    +0.000 A 
BRANCH   7  12
ATOM     12  C   UNL     1       8.120  -4.545  -2.526  0.00  0.00    +0.000 A 
ATOM     13  C   UNL     1       7.994  -4.978  -3.864  0.00  0.00    +0.000 A 
ATOM     14  C   UNL     1       9.104  -5.172  -4.693  0.00  0.00    +0.000 A 
ATOM     15  C   UNL     1       8.926  -5.667  -6.098  0.00  0.00    +0.000 C 
ATOM     16  C   UNL     1      10.373  -4.924  -4.174  0.00  0.00    +0.000 A 
ATOM     17  C   UNL     1      10.518  -4.477  -2.855  0.00  0.00    +0.000 A 
ATOM     18  C   UNL     1       9.403  -4.289  -2.020  0.00  0.00    +0.000 A 
BRANCH  18  19
ATOM     19  O   UNL     1       9.716  -3.853  -0.759  0.00  0.00    +0.000 OA
ATOM     20  C   UNL     1       9.083  -4.554   0.307  0.00  0.00    +0.000 C 
ENDBRANCH  18  19
ENDBRANCH   7  12
ENDBRANCH   2   5
BRANCH   1  21
ATOM     21  C   UNL     1       3.299  -0.337   1.162  0.00  0.00    +0.000 C 
BRANCH  21  22
ATOM     22  C   UNL     1       1.811  -0.333   1.482  0.00  0.00    +0.000 A 
ATOM     23  C   UNL     1       1.083   0.867   1.383  0.00  0.00    +0.000 A 
ATOM     24  C   UNL     1      -0.224   0.946   1.871  0.00  0.00    +0.000 A 
ATOM     25  C   UNL     1      -0.814  -0.173   2.448  0.00  0.00    +0.000 A 
ATOM     26  F   UNL     1      -2.047  -0.077   2.960  0.00  0.00    +0.000 F 
ATOM     27  C   UNL     1      -0.133  -1.380   2.522  0.00  0.00    +0.000 A 
ATOM     28  C   UNL     1       1.171  -1.448   2.043  0.00  0.00    +0.000 A 
ATOM     29  F   UNL     1       1.831  -2.612   2.153  0.00  0.00    +0.000 F 
ENDBRANCH  21  22
BRANCH  21  30
ATOM     30  C   UNL     1       4.072  -0.107   2.479  0.00  0.00    +0.000 C 
ATOM     31  O   UNL     1       4.503  -0.996   3.206  0.00  0.00    +0.000 OA
BRANCH  30  33
ATOM     32  C   UNL     1       4.635   1.540   4.058  0.00  0.00    +0.000 C 
ATOM     33  O   UNL     1       4.091   1.228   2.776  0.00  0.00    +0.000 OA
ENDBRANCH  30  33
ENDBRANCH  21  30
ENDBRANCH   1  21
TORSDOF 7
