REMARK  Name = 
REMARK  7 active torsions:
REMARK  status: ('A' for Active; 'I' for Inactive)
REMARK    1  A    between atoms: C_1  and  N_2
REMARK    2  A    between atoms: C_3  and  C_4
REMARK    3  A    between atoms: C_4  and  C_6
REMARK    4  A    between atoms: C_15  and  C_16
REMARK    5  A    between atoms: N_18  and  C_19
REMARK    6  A    between atoms: N_18  and  C_25
REMARK    7  A    between atoms: C_19  and  C_20
REMARK                            x       y       z     vdW  Elec       q    Type
REMARK                         _______ _______ _______ _____ _____    ______ ____
ROOT
ATOM      1  C   UNL     1       0.334   2.325  -0.564  0.00  0.00    +0.000 C 
ATOM      2  O   UNL     1      -0.455   3.091  -1.119  0.00  0.00    +0.000 OA
ATOM      3  N   UNL     1       1.509   2.834   0.065  0.00  0.00    +0.000 N 
ENDROOT
BRANCH   3   4
ATOM      4  C   UNL     1       2.688   2.070   0.371  0.00  0.00    +0.000 A 
ATOM      5  C   UNL     1       3.202   1.122  -0.520  0.00  0.00    +0.000 A 
ATOM      6  C   UNL     1       4.365   0.410  -0.202  0.00  0.00    +0.000 A 
ATOM      7  C   UNL     1       5.038   0.644   0.997  0.00  0.00    +0.000 A 
ATOM      8  C   UNL     1       4.546   1.589   1.886  0.00  0.00    +0.000 A 
ATOM      9  C   UNL     1       3.384   2.292   1.572  0.00  0.00    +0.000 A 
ENDBRANCH   3   4
BRANCH   1  15
ATOM     10  C   UNL     1      -2.105   0.780  -1.826  0.00  0.00    +0.000 C 
ATOM     11  N   UNL     1      -0.925   0.180  -1.228  0.00  0.00    +0.000 N 
ATOM     12  C   UNL     1      -0.693  -1.191  -1.141  0.00  0.00    +0.000 A 
ATOM     13  C   UNL     1       0.146  -1.344  -0.050  0.00  0.00    +0.000 A 
ATOM     14  C   UNL     1       0.520  -0.070   0.409  0.00  0.00    +0.000 A 
ATOM     15  C   UNL     1       0.030   0.880  -0.477  0.00  0.00    +0.000 A 
BRANCH  12  16
ATOM     16  C   UNL     1      -1.262  -2.317  -1.881  0.00  0.00    +0.000 C 
ATOM     17  O   UNL     1      -1.353  -3.433  -1.365  0.00  0.00    +0.000 OA
BRANCH  16  18
ATOM     18  C   UNL     1      -1.753  -2.218  -3.277  0.00  0.00    +0.000 A 
ATOM     19  C   UNL     1      -2.788  -3.081  -3.683  0.00  0.00    +0.000 A 
ATOM     20  C   UNL     1      -3.339  -2.977  -4.963  0.00  0.00    +0.000 A 
ATOM     21  C   UNL     1      -2.855  -2.019  -5.851  0.00  0.00    +0.000 A 
ATOM     22  C   UNL     1      -1.777  -1.213  -5.481  0.00  0.00    +0.000 A 
ATOM     23  C   UNL     1      -1.217  -1.334  -4.209  0.00  0.00    +0.000 A 
ATOM     24  F   UNL     1      -0.148  -0.580  -3.918  0.00  0.00    +0.000 F 
ENDBRANCH  16  18
ENDBRANCH  12  16
ENDBRANCH   1  15
BRANCH   3  25
ATOM     25  C   UNL     1       1.713   4.301   0.087  0.00  0.00    +0.000 C 
BRANCH  25  26
ATOM     26  C   UNL     1       1.579   4.846   1.468  0.00  0.00    +0.000 A 
ATOM     27  C   UNL     1       2.331   5.769   2.168  0.00  0.00    +0.000 A 
ATOM     28  N   UNL     1       1.968   5.787   3.490  0.00  0.00    +0.000 NA
ATOM     29  C   UNL     1       0.992   4.916   3.595  0.00  0.00    +0.000 A 
ATOM     30  N   UNL     1       0.659   4.387   2.382  0.00  0.00    +0.000 N 
ATOM     31  H   UNL     1      -0.037   3.675   2.211  0.00  0.00    +0.000 HD
ENDBRANCH  25  26
ENDBRANCH   3  25
TORSDOF 6
