REMARK  Name = 
REMARK  5 active torsions:
REMARK  status: ('A' for Active; 'I' for Inactive)
REMARK    1  A    between atoms: C_2  and  C_3
REMARK    2  A    between atoms: N_5  and  C_6
REMARK    3  A    between atoms: C_9  and  N_10
REMARK    4  A    between atoms: C_11  and  C_13
REMARK    5  A    between atoms: C_15  and  C_16
REMARK                            x       y       z     vdW  Elec       q    Type
REMARK                         _______ _______ _______ _____ _____    ______ ____
ROOT
ATOM      1  N   UNL     1      10.578   3.681   0.268  0.00  0.00    +0.000 N 
ATOM      2  C   UNL     1      10.920   4.619   1.235  0.00  0.00    +0.000 C 
ATOM      3  O   UNL     1      10.213   4.949   2.181  0.00  0.00    +0.000 OA
ATOM      4  H   UNL     1      11.258   3.524  -0.466  0.00  0.00    +0.000 HD
ENDROOT
BRANCH   1   8
ATOM      5  C   UNL     1       7.010   1.419  -0.042  0.00  0.00    +0.000 A 
ATOM      6  C   UNL     1       7.193   2.288   1.036  0.00  0.00    +0.000 A 
ATOM      7  C   UNL     1       8.369   3.031   1.153  0.00  0.00    +0.000 A 
ATOM      8  C   UNL     1       9.380   2.937   0.198  0.00  0.00    +0.000 A 
ATOM      9  C   UNL     1       9.201   2.061  -0.880  0.00  0.00    +0.000 A 
ATOM     10  C   UNL     1       8.024   1.302  -1.001  0.00  0.00    +0.000 A 
BRANCH   5  13
ATOM     11  C   UNL     1       3.837  -0.256   0.243  0.00  0.00    +0.000 A 
ATOM     12  C   UNL     1       4.709   0.713   0.674  0.00  0.00    +0.000 A 
ATOM     13  N   UNL     1       5.817   0.652  -0.147  0.00  0.00    +0.000 N 
ATOM     14  N   UNL     1       5.656  -0.285  -1.119  0.00  0.00    +0.000 NA
ATOM     15  C   UNL     1       4.470  -0.841  -0.859  0.00  0.00    +0.000 A 
BRANCH  11  17
ATOM     16  N   UNL     1       1.548  -0.818   1.299  0.00  0.00    +0.000 NA
ATOM     17  C   UNL     1       2.573  -0.571   0.817  0.00  0.00    +0.000 C 
ENDBRANCH  11  17
ENDBRANCH   5  13
ENDBRANCH   1   8
BRANCH   2  18
ATOM     18  C   UNL     1      12.223   5.210   1.058  0.00  0.00    +0.000 A 
ATOM     19  C   UNL     1      12.888   6.159   1.798  0.00  0.00    +0.000 A 
ATOM     20  C   UNL     1      14.159   6.283   1.187  0.00  0.00    +0.000 A 
ATOM     21  N   UNL     1      14.233   5.476   0.114  0.00  0.00    +0.000 NA
ATOM     22  O   UNL     1      13.024   4.815   0.035  0.00  0.00    +0.000 OA
BRANCH  20  23
ATOM     23  C   UNL     1      15.294   7.095   1.617  0.00  0.00    +0.000 A 
ATOM     24  C   UNL     1      16.603   6.679   1.318  0.00  0.00    +0.000 A 
ATOM     25  C   UNL     1      17.701   7.421   1.759  0.00  0.00    +0.000 A 
ATOM     26  C   UNL     1      17.494   8.584   2.492  0.00  0.00    +0.000 A 
ATOM     27  F   UNL     1      18.550   9.290   2.916  0.00  0.00    +0.000 F 
ATOM     28  C   UNL     1      16.212   9.021   2.793  0.00  0.00    +0.000 A 
ATOM     29  C   UNL     1      15.121   8.273   2.357  0.00  0.00    +0.000 A 
ATOM     30  F   UNL     1      13.893   8.719   2.662  0.00  0.00    +0.000 F 
ENDBRANCH  20  23
ENDBRANCH   2  18
TORSDOF 5
