REMARK  Name = 
REMARK  6 active torsions:
REMARK  status: ('A' for Active; 'I' for Inactive)
REMARK    1  A    between atoms: N_1  and  C_2
REMARK    2  A    between atoms: C_2  and  C_3
REMARK    3  A    between atoms: C_10  and  C_11
REMARK    4  A    between atoms: N_13  and  C_14
REMARK    5  A    between atoms: C_14  and  C_15
REMARK    6  A    between atoms: C_18  and  C_19
REMARK                            x       y       z     vdW  Elec       q    Type
REMARK                         _______ _______ _______ _____ _____    ______ ____
ROOT
ATOM      1  C   UNL     1       4.433   3.993  -3.038  0.00  0.00    +0.000 C 
ATOM      2  O   UNL     1       4.983   4.646  -3.919  0.00  0.00    +0.000 OA
ATOM      3  N   UNL     1       3.997   4.545  -1.847  0.00  0.00    +0.000 N 
ATOM      4  H   UNL     1       3.328   4.035  -1.286  0.00  0.00    +0.000 HD
ENDROOT
BRANCH   1  12
ATOM      5  C   UNL     1       3.986  -0.694  -1.253  0.00  0.00    +0.000 A 
ATOM      6  C   UNL     1       3.786  -2.061  -1.528  0.00  0.00    +0.000 A 
ATOM      7  C   UNL     1       3.605  -2.510  -2.830  0.00  0.00    +0.000 A 
ATOM      8  C   UNL     1       3.613  -1.598  -3.881  0.00  0.00    +0.000 A 
ATOM      9  C   UNL     1       3.801  -0.227  -3.647  0.00  0.00    +0.000 A 
ATOM     10  C   UNL     1       3.808   0.673  -4.726  0.00  0.00    +0.000 A 
ATOM     11  C   UNL     1       4.005   2.041  -4.523  0.00  0.00    +0.000 A 
ATOM     12  C   UNL     1       4.181   2.535  -3.230  0.00  0.00    +0.000 A 
ATOM     13  C   UNL     1       4.177   1.644  -2.147  0.00  0.00    +0.000 A 
ATOM     14  C   UNL     1       3.990   0.249  -2.322  0.00  0.00    +0.000 A 
BRANCH   5  15
ATOM     15  C   UNL     1       4.141  -0.297   0.199  0.00  0.00    +0.000 C 
BRANCH  15  16
ATOM     16  N   UNL     1       2.852   0.035   0.793  0.00  0.00    +0.000 NA
ATOM     17  H   UNL     1       2.974   0.192   1.792  0.00  0.00    +0.000 HD
ATOM     18  H   UNL     1       2.236  -0.775   0.709  0.00  0.00    +0.000 HD
ENDBRANCH  15  16
ENDBRANCH   5  15
ENDBRANCH   1  12
BRANCH   3  19
ATOM     19  C   UNL     1       4.177   5.956  -1.586  0.00  0.00    +0.000 C 
BRANCH  19  20
ATOM     20  C   UNL     1       3.615   6.371  -0.247  0.00  0.00    +0.000 A 
ATOM     21  C   UNL     1       4.391   6.322   0.920  0.00  0.00    +0.000 A 
ATOM     22  C   UNL     1       3.860   6.735   2.150  0.00  0.00    +0.000 A 
ATOM     23  C   UNL     1       2.543   7.202   2.236  0.00  0.00    +0.000 A 
ATOM     24  C   UNL     1       1.760   7.237   1.076  0.00  0.00    +0.000 A 
ATOM     25  C   UNL     1       2.290   6.820  -0.151  0.00  0.00    +0.000 A 
BRANCH  23  26
ATOM     26  C   UNL     1       1.984   7.648   3.525  0.00  0.00    +0.000 A 
ATOM     27  C   UNL     1       2.120   8.942   3.876  0.00  0.00    +0.000 A 
ATOM     28  N   UNL     1       1.618   9.409   5.067  0.00  0.00    +0.000 N 
ATOM     29  C   UNL     1       0.953   8.630   5.980  0.00  0.00    +0.000 A 
ATOM     30  O   UNL     1       0.514   9.065   7.039  0.00  0.00    +0.000 OA
ATOM     31  C   UNL     1       0.790   7.202   5.608  0.00  0.00    +0.000 A 
ATOM     32  C   UNL     1       1.286   6.759   4.440  0.00  0.00    +0.000 A 
ATOM     33  H   UNL     1       1.729  10.384   5.320  0.00  0.00    +0.000 HD
ENDBRANCH  23  26
ENDBRANCH  19  20
ENDBRANCH   3  19
TORSDOF 6
