REMARK  Name = 
REMARK  7 active torsions:
REMARK  status: ('A' for Active; 'I' for Inactive)
REMARK    1  A    between atoms: C_1  and  O_2
REMARK    2  A    between atoms: O_2  and  C_3
REMARK    3  A    between atoms: C_3  and  C_5
REMARK    4  A    between atoms: C_5  and  N_6
REMARK    5  A    between atoms: C_5  and  C_19
REMARK    6  A    between atoms: C_7  and  C_9
REMARK    7  A    between atoms: C_23  and  C_24
REMARK                            x       y       z     vdW  Elec       q    Type
REMARK                         _______ _______ _______ _____ _____    ______ ____
ROOT
ATOM      1  C   UNL     1       4.589   1.179  -0.149  0.00  0.00    +0.000 C 
ENDROOT
BRANCH   1   2
ATOM      2  C   UNL     1       5.186   2.581  -0.179  0.00  0.00    +0.000 A 
ATOM      3  C   UNL     1       5.921   3.060   0.912  0.00  0.00    +0.000 A 
ATOM      4  C   UNL     1       6.366   4.380   0.932  0.00  0.00    +0.000 A 
ATOM      5  C   UNL     1       6.070   5.239  -0.131  0.00  0.00    +0.000 A 
ATOM      6  C   UNL     1       5.362   4.794  -1.260  0.00  0.00    +0.000 A 
ATOM      7  C   UNL     1       4.965   3.443  -1.270  0.00  0.00    +0.000 A 
BRANCH   6   8
ATOM      8  C   UNL     1       4.998   5.709  -2.372  0.00  0.00    +0.000 A 
ATOM      9  C   UNL     1       5.780   6.823  -2.705  0.00  0.00    +0.000 A 
ATOM     10  C   UNL     1       5.377   7.660  -3.737  0.00  0.00    +0.000 A 
ATOM     11  N   UNL     1       4.265   7.467  -4.473  0.00  0.00    +0.000 NA
ATOM     12  C   UNL     1       3.518   6.394  -4.154  0.00  0.00    +0.000 A 
ATOM     13  C   UNL     1       3.833   5.510  -3.131  0.00  0.00    +0.000 A 
ENDBRANCH   6   8
ENDBRANCH   1   2
BRANCH   1  14
ATOM     14  N   UNL     1       5.150   0.350  -1.205  0.00  0.00    +0.000 N 
ATOM     15  C   UNL     1       5.259  -1.015  -1.042  0.00  0.00    +0.000 C 
ATOM     16  O   UNL     1       4.950  -1.569   0.004  0.00  0.00    +0.000 OA
ATOM     17  H   UNL     1       5.322   0.724  -2.135  0.00  0.00    +0.000 HD
BRANCH  15  18
ATOM     18  C   UNL     1       5.804  -1.761  -2.234  0.00  0.00    +0.000 A 
ATOM     19  N   UNL     1       6.034  -0.960  -3.321  0.00  0.00    +0.000 NA
ATOM     20  C   UNL     1       6.607  -1.541  -4.392  0.00  0.00    +0.000 A 
ATOM     21  C   UNL     1       6.982  -2.873  -4.434  0.00  0.00    +0.000 A 
ATOM     22  C   UNL     1       6.734  -3.689  -3.323  0.00  0.00    +0.000 A 
ATOM     23  C   UNL     1       7.110  -5.038  -3.326  0.00  0.00    +0.000 A 
ATOM     24  C   UNL     1       6.839  -5.816  -2.215  0.00  0.00    +0.000 A 
ATOM     25  N   UNL     1       6.212  -5.351  -1.121  0.00  0.00    +0.000 NA
ATOM     26  C   UNL     1       5.862  -4.040  -1.128  0.00  0.00    +0.000 A 
ATOM     27  C   UNL     1       6.106  -3.143  -2.187  0.00  0.00    +0.000 A 
ENDBRANCH  15  18
ENDBRANCH   1  14
BRANCH   1  28
ATOM     28  C   UNL     1       3.047   1.204  -0.269  0.00  0.00    +0.000 C 
ATOM     29  O   UNL     1       2.405   1.890  -1.061  0.00  0.00    +0.000 OA
BRANCH  28  31
ATOM     30  C   UNL     1       1.075   0.115   0.444  0.00  0.00    +0.000 C 
ATOM     31  O   UNL     1       2.490   0.274   0.562  0.00  0.00    +0.000 OA
ENDBRANCH  28  31
ENDBRANCH   1  28
TORSDOF 6
