REMARK  Name = 
REMARK  3 active torsions:
REMARK  status: ('A' for Active; 'I' for Inactive)
REMARK    1  A    between atoms: C_2  and  C_17
REMARK    2  A    between atoms: N_3  and  C_4
REMARK    3  A    between atoms: N_8  and  C_9
REMARK                            x       y       z     vdW  Elec       q    Type
REMARK                         _______ _______ _______ _____ _____    ______ ____
ROOT
ATOM      1  O   UNL     1       1.565   0.529   0.209  0.00  0.00    +0.000 OA
ATOM      2  C   UNL     1       2.635  -0.054   0.086  0.00  0.00    +0.000 C 
ATOM      3  N   UNL     1       2.872  -1.165  -0.715  0.00  0.00    +0.000 N 
ATOM      4  H   UNL     1       3.744  -1.659  -0.582  0.00  0.00    +0.000 HD
ENDROOT
BRANCH   2   5
ATOM      5  C   UNL     1       3.886   0.556   0.655  0.00  0.00    +0.000 A 
ATOM      6  C   UNL     1       3.994   1.906   0.290  0.00  0.00    +0.000 A 
ATOM      7  C   UNL     1       5.178   2.353  -0.277  0.00  0.00    +0.000 A 
ATOM      8  C   UNL     1       6.244   1.466  -0.407  0.00  0.00    +0.000 A 
ATOM      9  F   UNL     1       7.311   1.846  -1.123  0.00  0.00    +0.000 F 
ATOM     10  C   UNL     1       6.213   0.195   0.188  0.00  0.00    +0.000 A 
ATOM     11  C   UNL     1       7.294  -0.685   0.158  0.00  0.00    +0.000 A 
ATOM     12  N   UNL     1       7.320  -1.884   0.783  0.00  0.00    +0.000 NA
ATOM     13  C   UNL     1       6.225  -2.232   1.485  0.00  0.00    +0.000 A 
ATOM     14  C   UNL     1       5.066  -1.475   1.512  0.00  0.00    +0.000 A 
ATOM     15  C   UNL     1       5.040  -0.246   0.819  0.00  0.00    +0.000 A 
ENDBRANCH   2   5
BRANCH   3  16
ATOM     16  C   UNL     1       2.103  -1.641  -1.751  0.00  0.00    +0.000 A 
ATOM     17  C   UNL     1       1.097  -0.971  -2.324  0.00  0.00    +0.000 A 
ATOM     18  C   UNL     1       0.286  -1.594  -3.405  0.00  0.00    +0.000 A 
ATOM     19  O   UNL     1      -0.595  -0.911  -3.921  0.00  0.00    +0.000 OA
ATOM     20  N   UNL     1       0.563  -2.945  -3.673  0.00  0.00    +0.000 N 
ATOM     21  C   UNL     1       1.675  -3.569  -3.132  0.00  0.00    +0.000 A 
ATOM     22  C   UNL     1       2.473  -2.945  -2.261  0.00  0.00    +0.000 A 
BRANCH  20  23
ATOM     23  C   UNL     1      -0.387  -3.693  -4.429  0.00  0.00    +0.000 A 
ATOM     24  C   UNL     1      -0.828  -3.268  -5.686  0.00  0.00    +0.000 A 
ATOM     25  C   UNL     1      -1.804  -3.989  -6.363  0.00  0.00    +0.000 A 
ATOM     26  C   UNL     1      -2.377  -5.119  -5.778  0.00  0.00    +0.000 A 
ATOM     27  C   UNL     1      -1.948  -5.543  -4.519  0.00  0.00    +0.000 A 
ATOM     28  C   UNL     1      -0.942  -4.849  -3.858  0.00  0.00    +0.000 A 
ENDBRANCH  20  23
ENDBRANCH   3  16
TORSDOF 3
