REMARK  Name = 
REMARK  5 active torsions:
REMARK  status: ('A' for Active; 'I' for Inactive)
REMARK    1  A    between atoms: C_2  and  C_17
REMARK    2  A    between atoms: N_3  and  C_4
REMARK    3  A    between atoms: C_4  and  C_5
REMARK    4  A    between atoms: C_10  and  C_11
REMARK    5  A    between atoms: N_19  and  C_20
REMARK                            x       y       z     vdW  Elec       q    Type
REMARK                         _______ _______ _______ _____ _____    ______ ____
ROOT
ATOM      1  O   UNL     1       1.184   0.087  -0.136  0.00  0.00    +0.000 OA
ATOM      2  C   UNL     1       2.406   0.095  -0.098  0.00  0.00    +0.000 C 
ATOM      3  N   UNL     1       3.149   0.258   1.049  0.00  0.00    +0.000 N 
ATOM      4  H   UNL     1       4.135   0.497   0.998  0.00  0.00    +0.000 HD
ENDROOT
BRANCH   2   5
ATOM      5  C   UNL     1       3.175  -0.035  -1.389  0.00  0.00    +0.000 A 
ATOM      6  N   UNL     1       4.174   0.774  -1.591  0.00  0.00    +0.000 NA
ATOM      7  N   UNL     1       4.815   0.741  -2.827  0.00  0.00    +0.000 N 
ATOM      8  C   UNL     1       4.393  -0.076  -3.890  0.00  0.00    +0.000 A 
ATOM      9  O   UNL     1       4.974  -0.250  -4.961  0.00  0.00    +0.000 OA
ATOM     10  N   UNL     1       3.248  -0.791  -3.677  0.00  0.00    +0.000 N 
ATOM     11  C   UNL     1       2.751  -1.029  -2.435  0.00  0.00    +0.000 A 
ATOM     12  O   UNL     1       2.077  -2.007  -2.154  0.00  0.00    +0.000 OA
ATOM     13  H   UNL     1       3.034  -1.473  -4.389  0.00  0.00    +0.000 HD
BRANCH   7  14
ATOM     14  C   UNL     1       5.873   1.706  -2.959  0.00  0.00    +0.000 A 
ATOM     15  C   UNL     1       6.295   2.181  -4.212  0.00  0.00    +0.000 A 
ATOM     16  C   UNL     1       7.281   3.168  -4.323  0.00  0.00    +0.000 A 
ATOM     17  C   UNL     1       7.879   3.689  -3.181  0.00  0.00    +0.000 A 
ATOM     18  C   UNL     1       7.490   3.223  -1.929  0.00  0.00    +0.000 A 
ATOM     19  C   UNL     1       6.491   2.249  -1.819  0.00  0.00    +0.000 A 
ENDBRANCH   7  14
ENDBRANCH   2   5
BRANCH   3  20
ATOM     20  C   UNL     1       2.461   0.551   2.290  0.00  0.00    +0.000 C 
BRANCH  20  21
ATOM     21  C   UNL     1       3.369   0.962   3.431  0.00  0.00    +0.000 A 
ATOM     22  N   UNL     1       4.681   1.146   3.068  0.00  0.00    +0.000 NA
ATOM     23  C   UNL     1       5.559   1.500   4.026  0.00  0.00    +0.000 A 
ATOM     24  C   UNL     1       5.205   1.696   5.343  0.00  0.00    +0.000 A 
ATOM     25  C   UNL     1       3.868   1.529   5.697  0.00  0.00    +0.000 A 
ATOM     26  C   UNL     1       2.890   1.151   4.752  0.00  0.00    +0.000 A 
BRANCH  26  27
ATOM     27  C   UNL     1       1.478   0.944   5.204  0.00  0.00    +0.000 A 
ATOM     28  C   UNL     1       0.361   1.296   4.426  0.00  0.00    +0.000 A 
ATOM     29  C   UNL     1      -0.949   1.004   4.826  0.00  0.00    +0.000 A 
ATOM     30  C   UNL     1      -1.188   0.422   6.062  0.00  0.00    +0.000 A 
ATOM     31  C   UNL     1      -0.116   0.138   6.898  0.00  0.00    +0.000 A 
ATOM     32  C   UNL     1       1.196   0.381   6.468  0.00  0.00    +0.000 A 
ENDBRANCH  26  27
ENDBRANCH  20  21
ENDBRANCH   3  20
TORSDOF 5
