REMARK  Name = 
REMARK  5 active torsions:
REMARK  status: ('A' for Active; 'I' for Inactive)
REMARK    1  A    between atoms: C_2  and  C_15
REMARK    2  A    between atoms: N_3  and  C_4
REMARK    3  A    between atoms: C_19  and  O_20
REMARK    4  A    between atoms: O_20  and  C_21
REMARK    5  A    between atoms: C_21  and  C_22
REMARK                            x       y       z     vdW  Elec       q    Type
REMARK                         _______ _______ _______ _____ _____    ______ ____
ROOT
ATOM      1  O   UNL     1       1.038   0.269  -0.082  0.00  0.00    +0.000 OA
ATOM      2  C   UNL     1       2.173  -0.160   0.101  0.00  0.00    +0.000 C 
ATOM      3  N   UNL     1       2.841  -0.101   1.308  0.00  0.00    +0.000 N 
ATOM      4  H   UNL     1       3.850  -0.069   1.275  0.00  0.00    +0.000 HD
ENDROOT
BRANCH   3   5
ATOM      5  C   UNL     1       2.259   0.534   2.414  0.00  0.00    +0.000 A 
ATOM      6  C   UNL     1       1.014   0.161   2.905  0.00  0.00    +0.000 A 
ATOM      7  N   UNL     1       0.454   0.739   3.993  0.00  0.00    +0.000 NA
ATOM      8  C   UNL     1       1.118   1.787   4.532  0.00  0.00    +0.000 A 
ATOM      9  C   UNL     1       0.585   2.518   5.595  0.00  0.00    +0.000 A 
ATOM     10  F   UNL     1      -0.562   2.123   6.172  0.00  0.00    +0.000 F 
ATOM     11  C   UNL     1       1.187   3.676   6.081  0.00  0.00    +0.000 A 
ATOM     12  C   UNL     1       2.374   4.110   5.513  0.00  0.00    +0.000 A 
ATOM     13  C   UNL     1       2.964   3.351   4.499  0.00  0.00    +0.000 A 
ATOM     14  C   UNL     1       2.367   2.195   4.001  0.00  0.00    +0.000 A 
ATOM     15  N   UNL     1       2.973   1.518   2.997  0.00  0.00    +0.000 NA
ENDBRANCH   3   5
BRANCH   2  16
ATOM     16  C   UNL     1       2.973  -0.745  -1.027  0.00  0.00    +0.000 A 
ATOM     17  C   UNL     1       2.458  -0.668  -2.262  0.00  0.00    +0.000 A 
ATOM     18  C   UNL     1       3.175  -1.303  -3.394  0.00  0.00    +0.000 A 
ATOM     19  O   UNL     1       2.712  -1.228  -4.519  0.00  0.00    +0.000 OA
ATOM     20  C   UNL     1       4.447  -2.013  -3.067  0.00  0.00    +0.000 A 
ATOM     21  C   UNL     1       4.832  -2.000  -1.782  0.00  0.00    +0.000 A 
ATOM     22  O   UNL     1       4.173  -1.377  -0.746  0.00  0.00    +0.000 OA
BRANCH  20  23
ATOM     23  O   UNL     1       5.208  -2.699  -3.993  0.00  0.00    +0.000 OA
BRANCH  23  24
ATOM     24  C   UNL     1       5.178  -2.219  -5.342  0.00  0.00    +0.000 C 
BRANCH  24  25
ATOM     25  C   UNL     1       6.502  -2.567  -5.987  0.00  0.00    +0.000 A 
ATOM     26  C   UNL     1       6.905  -3.905  -6.117  0.00  0.00    +0.000 A 
ATOM     27  C   UNL     1       8.141  -4.221  -6.686  0.00  0.00    +0.000 A 
ATOM     28  C   UNL     1       8.988  -3.205  -7.125  0.00  0.00    +0.000 A 
ATOM     29  C   UNL     1       8.595  -1.874  -7.010  0.00  0.00    +0.000 A 
ATOM     30  C   UNL     1       7.355  -1.556  -6.452  0.00  0.00    +0.000 A 
ENDBRANCH  24  25
ENDBRANCH  23  24
ENDBRANCH  20  23
ENDBRANCH   2  16
TORSDOF 5
