REMARK  Name = 
REMARK  7 active torsions:
REMARK  status: ('A' for Active; 'I' for Inactive)
REMARK    1  A    between atoms: C_2  and  C_3
REMARK    2  A    between atoms: C_4  and  C_5
REMARK    3  A    between atoms: C_5  and  N_6
REMARK    4  A    between atoms: C_7  and  C_9
REMARK    5  A    between atoms: C_12  and  N_13
REMARK    6  A    between atoms: C_17  and  C_18
REMARK    7  A    between atoms: N_27  and  C_28
REMARK                            x       y       z     vdW  Elec       q    Type
REMARK                         _______ _______ _______ _____ _____    ______ ____
ROOT
ATOM      1  C   UNL     1       0.881   0.331  -6.970  0.00  0.00    +0.000 A 
ATOM      2  C   UNL     1       0.910  -0.983  -7.458  0.00  0.00    +0.000 A 
ATOM      3  C   UNL     1       0.975  -1.222  -8.838  0.00  0.00    +0.000 A 
ATOM      4  C   UNL     1       1.046  -0.146  -9.733  0.00  0.00    +0.000 A 
ATOM      5  C   UNL     1       0.922   1.163  -9.253  0.00  0.00    +0.000 A 
ATOM      6  C   UNL     1       0.854   1.399  -7.875  0.00  0.00    +0.000 A 
ENDROOT
BRANCH   4   7
ATOM      7  N   UNL     1       1.317  -0.407 -11.109  0.00  0.00    +0.000 N 
ATOM      8  N   UNL     1       0.840  -1.551 -11.671  0.00  0.00    +0.000 NA
ATOM      9  C   UNL     1       1.112  -1.426 -12.967  0.00  0.00    +0.000 A 
ATOM     10  C   UNL     1       1.879  -0.287 -13.242  0.00  0.00    +0.000 A 
ATOM     11  C   UNL     1       2.096   0.329 -12.017  0.00  0.00    +0.000 A 
BRANCH  11  12
ATOM     12  C   UNL     1       3.002   1.451 -11.706  0.00  0.00    +0.000 A 
ATOM     13  C   UNL     1       3.250   2.453 -12.658  0.00  0.00    +0.000 A 
ATOM     14  C   UNL     1       4.061   3.551 -12.348  0.00  0.00    +0.000 A 
ATOM     15  C   UNL     1       4.609   3.666 -11.077  0.00  0.00    +0.000 A 
ATOM     16  F   UNL     1       5.338   4.744 -10.762  0.00  0.00    +0.000 F 
ATOM     17  C   UNL     1       4.418   2.672 -10.133  0.00  0.00    +0.000 A 
ATOM     18  C   UNL     1       3.663   1.547 -10.468  0.00  0.00    +0.000 A 
ENDBRANCH  11  12
ENDBRANCH   4   7
BRANCH   1  20
ATOM     19  N   UNL     1       1.460  -0.271  -4.675  0.00  0.00    +0.000 N 
ATOM     20  C   UNL     1       0.847   0.640  -5.511  0.00  0.00    +0.000 C 
ATOM     21  O   UNL     1       0.335   1.681  -5.116  0.00  0.00    +0.000 OA
ATOM     22  H   UNL     1       2.020  -1.012  -5.066  0.00  0.00    +0.000 HD
BRANCH  19  23
ATOM     23  C   UNL     1       1.480  -0.096  -3.239  0.00  0.00    +0.000 C 
BRANCH  23  25
ATOM     24  C   UNL     1      -0.191  -2.030  -2.632  0.00  0.00    +0.000 A 
ATOM     25  C   UNL     1       0.265  -0.717  -2.640  0.00  0.00    +0.000 A 
ATOM     26  N   UNL     1      -0.658  -0.021  -1.885  0.00  0.00    +0.000 N 
ATOM     27  C   UNL     1      -0.636   1.349  -1.426  0.00  0.00    +0.000 C 
ATOM     28  N   UNL     1      -1.688  -0.780  -1.456  0.00  0.00    +0.000 NA
ATOM     29  C   UNL     1      -1.404  -1.994  -1.918  0.00  0.00    +0.000 A 
BRANCH  24  31
ATOM     30  C   UNL     1       0.023  -4.425  -3.148  0.00  0.00    +0.000 C 
ATOM     31  C   UNL     1       0.456  -3.157  -3.219  0.00  0.00    +0.000 C 
ENDBRANCH  24  31
ENDBRANCH  23  25
ENDBRANCH  19  23
ENDBRANCH   1  20
TORSDOF 6
