REMARK  Name = 
REMARK  4 active torsions:
REMARK  status: ('A' for Active; 'I' for Inactive)
REMARK    1  A    between atoms: C_2  and  C_17
REMARK    2  A    between atoms: N_3  and  C_4
REMARK    3  A    between atoms: C_4  and  C_5
REMARK    4  A    between atoms: C_9  and  C_10
REMARK                            x       y       z     vdW  Elec       q    Type
REMARK                         _______ _______ _______ _____ _____    ______ ____
ROOT
ATOM      1  O   UNL     1       2.285   0.932   1.924  0.00  0.00    +0.000 OA
ATOM      2  C   UNL     1       2.970   0.469   1.017  0.00  0.00    +0.000 C 
ATOM      3  N   UNL     1       3.091  -0.878   0.758  0.00  0.00    +0.000 N 
ATOM      4  H   UNL     1       3.669  -1.149  -0.029  0.00  0.00    +0.000 HD
ENDROOT
BRANCH   2   5
ATOM      5  C   UNL     1       3.729   1.365   0.098  0.00  0.00    +0.000 A 
ATOM      6  N   UNL     1       4.539   0.758  -0.809  0.00  0.00    +0.000 NA
ATOM      7  C   UNL     1       5.231   1.553  -1.652  0.00  0.00    +0.000 A 
ATOM      8  C   UNL     1       6.207   1.014  -2.429  0.00  0.00    +0.000 A 
ATOM      9  C   UNL     1       6.975   1.826  -3.270  0.00  0.00    +0.000 A 
ATOM     10  F   UNL     1       8.142   1.369  -3.748  0.00  0.00    +0.000 F 
ATOM     11  C   UNL     1       6.604   3.134  -3.523  0.00  0.00    +0.000 A 
ATOM     12  C   UNL     1       5.661   3.705  -2.693  0.00  0.00    +0.000 A 
ATOM     13  F   UNL     1       5.407   5.019  -2.813  0.00  0.00    +0.000 F 
ATOM     14  C   UNL     1       5.024   2.952  -1.697  0.00  0.00    +0.000 A 
ATOM     15  C   UNL     1       4.235   3.545  -0.704  0.00  0.00    +0.000 A 
ATOM     16  C   UNL     1       3.589   2.739   0.219  0.00  0.00    +0.000 A 
ENDBRANCH   2   5
BRANCH   3  17
ATOM     17  C   UNL     1       2.382  -1.869   1.525  0.00  0.00    +0.000 C 
BRANCH  17  18
ATOM     18  C   UNL     1       3.315  -2.801   2.242  0.00  0.00    +0.000 A 
ATOM     19  C   UNL     1       3.271  -4.166   2.005  0.00  0.00    +0.000 A 
ATOM     20  N   UNL     1       4.038  -5.068   2.650  0.00  0.00    +0.000 NA
ATOM     21  C   UNL     1       4.886  -4.583   3.591  0.00  0.00    +0.000 A 
ATOM     22  C   UNL     1       5.041  -3.235   3.926  0.00  0.00    +0.000 A 
ATOM     23  C   UNL     1       4.222  -2.343   3.213  0.00  0.00    +0.000 A 
BRANCH  22  24
ATOM     24  C   UNL     1       5.991  -2.791   4.969  0.00  0.00    +0.000 A 
ATOM     25  C   UNL     1       5.752  -1.667   5.775  0.00  0.00    +0.000 A 
ATOM     26  C   UNL     1       6.669  -1.278   6.754  0.00  0.00    +0.000 A 
ATOM     27  C   UNL     1       7.816  -2.032   6.917  0.00  0.00    +0.000 A 
ATOM     28  N   UNL     1       8.098  -3.121   6.178  0.00  0.00    +0.000 NA
ATOM     29  C   UNL     1       7.189  -3.465   5.229  0.00  0.00    +0.000 A 
ENDBRANCH  22  24
ENDBRANCH  17  18
ENDBRANCH   3  17
TORSDOF 4
