REMARK  Name = 
REMARK  5 active torsions:
REMARK  status: ('A' for Active; 'I' for Inactive)
REMARK    1  A    between atoms: C_2  and  O_3
REMARK    2  A    between atoms: C_2  and  C_17
REMARK    3  A    between atoms: O_3  and  C_4
REMARK    4  A    between atoms: C_4  and  C_5
REMARK    5  A    between atoms: C_8  and  C_9
REMARK                            x       y       z     vdW  Elec       q    Type
REMARK                         _______ _______ _______ _____ _____    ______ ____
ROOT
ATOM      1  O   UNL     1       3.333  -1.508   1.757  0.00  0.00    +0.000 OA
ATOM      2  C   UNL     1       2.528  -1.217   0.888  0.00  0.00    +0.000 C 
ENDROOT
BRANCH   2   3
ATOM      3  C   UNL     1       1.083  -0.985   1.178  0.00  0.00    +0.000 A 
ATOM      4  C   UNL     1       0.155  -0.628   0.182  0.00  0.00    +0.000 A 
ATOM      5  C   UNL     1      -1.143  -0.242   0.539  0.00  0.00    +0.000 A 
ATOM      6  C   UNL     1      -1.511  -0.227   1.891  0.00  0.00    +0.000 A 
ATOM      7  N   UNL     1      -2.755   0.306   2.262  0.00  0.00    +0.000 N 
ATOM      8  C   UNL     1      -3.625   0.874   1.370  0.00  0.00    +0.000 A 
ATOM      9  O   UNL     1      -4.642   1.461   1.721  0.00  0.00    +0.000 OA
ATOM     10  C   UNL     1      -3.279   0.739  -0.066  0.00  0.00    +0.000 A 
ATOM     11  C   UNL     1      -2.116   0.202  -0.460  0.00  0.00    +0.000 A 
ATOM     12  C   UNL     1      -0.618  -0.668   2.863  0.00  0.00    +0.000 A 
ATOM     13  F   UNL     1      -0.985  -0.681   4.153  0.00  0.00    +0.000 F 
ATOM     14  C   UNL     1       0.674  -1.041   2.517  0.00  0.00    +0.000 A 
ATOM     15  H   UNL     1      -2.990   0.385   3.245  0.00  0.00    +0.000 HD
ENDBRANCH   2   3
BRANCH   2  16
ATOM     16  O   UNL     1       2.813  -0.963  -0.412  0.00  0.00    +0.000 OA
BRANCH  16  17
ATOM     17  C   UNL     1       4.207  -0.936  -0.755  0.00  0.00    +0.000 C 
BRANCH  17  18
ATOM     18  C   UNL     1       4.505  -2.005  -1.764  0.00  0.00    +0.000 A 
ATOM     19  C   UNL     1       4.920  -3.276  -1.369  0.00  0.00    +0.000 A 
ATOM     20  C   UNL     1       5.172  -4.250  -2.335  0.00  0.00    +0.000 A 
ATOM     21  C   UNL     1       4.996  -3.951  -3.687  0.00  0.00    +0.000 A 
ATOM     22  N   UNL     1       4.599  -2.709  -4.085  0.00  0.00    +0.000 NA
ATOM     23  C   UNL     1       4.364  -1.781  -3.127  0.00  0.00    +0.000 A 
BRANCH  21  24
ATOM     24  C   UNL     1       5.202  -4.971  -4.747  0.00  0.00    +0.000 A 
ATOM     25  C   UNL     1       5.029  -4.688  -6.104  0.00  0.00    +0.000 A 
ATOM     26  C   UNL     1       5.201  -5.702  -7.047  0.00  0.00    +0.000 A 
ATOM     27  C   UNL     1       5.544  -6.977  -6.620  0.00  0.00    +0.000 A 
ATOM     28  C   UNL     1       5.707  -7.185  -5.264  0.00  0.00    +0.000 A 
ATOM     29  N   UNL     1       5.547  -6.223  -4.329  0.00  0.00    +0.000 NA
ENDBRANCH  21  24
ENDBRANCH  17  18
ENDBRANCH  16  17
ENDBRANCH   2  16
TORSDOF 5
