REMARK  Name = 
REMARK  9 active torsions:
REMARK  status: ('A' for Active; 'I' for Inactive)
REMARK    1  A    between atoms: C_2  and  O_3
REMARK    2  A    between atoms: C_2  and  C_11
REMARK    3  A    between atoms: O_3  and  C_4
REMARK    4  A    between atoms: C_4  and  C_5
REMARK    5  A    between atoms: C_14  and  C_15
REMARK    6  A    between atoms: C_15  and  N_16
REMARK    7  A    between atoms: C_17  and  C_19
REMARK    8  A    between atoms: N_21  and  C_22
REMARK    9  A    between atoms: C_22  and  C_23
REMARK                            x       y       z     vdW  Elec       q    Type
REMARK                         _______ _______ _______ _____ _____    ______ ____
ROOT
ATOM      1  C   UNL     1       5.149   1.049  -4.960  0.00  0.00    +0.000 C 
ENDROOT
BRANCH   1   5
ATOM      2  C   UNL     1       3.056   0.046  -1.284  0.00  0.00    +0.000 A 
ATOM      3  C   UNL     1       2.682   1.168  -2.039  0.00  0.00    +0.000 A 
ATOM      4  C   UNL     1       3.369   1.508  -3.213  0.00  0.00    +0.000 A 
ATOM      5  C   UNL     1       4.443   0.728  -3.663  0.00  0.00    +0.000 A 
ATOM      6  C   UNL     1       4.827  -0.384  -2.896  0.00  0.00    +0.000 A 
ATOM      7  C   UNL     1       4.136  -0.729  -1.724  0.00  0.00    +0.000 A 
BRANCH   2   9
ATOM      8  O   UNL     1       1.328   0.407   0.323  0.00  0.00    +0.000 OA
ATOM      9  C   UNL     1       2.282  -0.265  -0.043  0.00  0.00    +0.000 C 
BRANCH   9  10
ATOM     10  O   UNL     1       2.785  -1.346   0.598  0.00  0.00    +0.000 OA
BRANCH  10  11
ATOM     11  C   UNL     1       2.141  -1.710   1.830  0.00  0.00    +0.000 C 
BRANCH  11  12
ATOM     12  C   UNL     1       1.600  -3.114   1.718  0.00  0.00    +0.000 A 
ATOM     13  C   UNL     1       2.397  -4.220   2.048  0.00  0.00    +0.000 A 
ATOM     14  C   UNL     1       1.895  -5.518   1.927  0.00  0.00    +0.000 A 
ATOM     15  C   UNL     1       0.594  -5.723   1.470  0.00  0.00    +0.000 A 
ATOM     16  C   UNL     1      -0.207  -4.632   1.138  0.00  0.00    +0.000 A 
ATOM     17  C   UNL     1       0.294  -3.334   1.259  0.00  0.00    +0.000 A 
ENDBRANCH  11  12
ENDBRANCH  10  11
ENDBRANCH   9  10
ENDBRANCH   2   9
ENDBRANCH   1   5
BRANCH   1  18
ATOM     18  N   UNL     1       6.257   1.957  -4.806  0.00  0.00    +0.000 N 
ATOM     19  C   UNL     1       7.087   2.255  -5.872  0.00  0.00    +0.000 C 
ATOM     20  O   UNL     1       6.940   1.771  -6.991  0.00  0.00    +0.000 OA
ATOM     21  H   UNL     1       6.385   2.474  -3.940  0.00  0.00    +0.000 HD
BRANCH  19  22
ATOM     22  C   UNL     1       8.149   3.206  -5.562  0.00  0.00    +0.000 A 
ATOM     23  C   UNL     1       9.091   3.739  -6.423  0.00  0.00    +0.000 A 
ATOM     24  N   UNL     1       9.838   4.565  -5.636  0.00  0.00    +0.000 N 
ATOM     25  N   UNL     1       9.384   4.569  -4.368  0.00  0.00    +0.000 NA
ATOM     26  N   UNL     1       8.354   3.733  -4.306  0.00  0.00    +0.000 NA
BRANCH  24  27
ATOM     27  C   UNL     1      10.913   5.462  -6.030  0.00  0.00    +0.000 C 
BRANCH  27  28
ATOM     28  C   UNL     1      12.265   4.809  -5.964  0.00  0.00    +0.000 A 
ATOM     29  C   UNL     1      13.094   4.727  -7.089  0.00  0.00    +0.000 A 
ATOM     30  C   UNL     1      14.343   4.119  -6.989  0.00  0.00    +0.000 A 
ATOM     31  C   UNL     1      14.734   3.621  -5.758  0.00  0.00    +0.000 A 
ATOM     32  N   UNL     1      13.977   3.706  -4.645  0.00  0.00    +0.000 NA
ATOM     33  C   UNL     1      12.767   4.297  -4.769  0.00  0.00    +0.000 A 
ENDBRANCH  27  28
ENDBRANCH  24  27
ENDBRANCH  19  22
ENDBRANCH   1  18
TORSDOF 9
