REMARK  Name = 
REMARK  5 active torsions:
REMARK  status: ('A' for Active; 'I' for Inactive)
REMARK    1  A    between atoms: C_2  and  O_3
REMARK    2  A    between atoms: C_2  and  C_4
REMARK    3  A    between atoms: N_6  and  C_7
REMARK    4  A    between atoms: C_10  and  C_11
REMARK    5  A    between atoms: N_14  and  C_15
REMARK                            x       y       z     vdW  Elec       q    Type
REMARK                         _______ _______ _______ _____ _____    ______ ____
ROOT
ATOM      1  C   UNL     1       2.513   2.179   4.296  0.00  0.00    +0.000 A 
ATOM      2  C   UNL     1       2.182   1.183   5.223  0.00  0.00    +0.000 A 
ATOM      3  C   UNL     1       1.444   1.470   6.375  0.00  0.00    +0.000 A 
ATOM      4  C   UNL     1       1.018   2.772   6.638  0.00  0.00    +0.000 A 
ATOM      5  C   UNL     1       1.374   3.785   5.744  0.00  0.00    +0.000 A 
ATOM      6  C   UNL     1       2.116   3.493   4.591  0.00  0.00    +0.000 A 
ENDROOT
BRANCH   1   9
ATOM      7  C   UNL     1       4.791   2.568   1.376  0.00  0.00    +0.000 A 
ATOM      8  C   UNL     1       4.073   2.818   2.486  0.00  0.00    +0.000 A 
ATOM      9  N   UNL     1       3.245   1.865   3.089  0.00  0.00    +0.000 N 
ATOM     10  C   UNL     1       3.111   0.580   2.513  0.00  0.00    +0.000 A 
ATOM     11  O   UNL     1       2.372  -0.331   2.878  0.00  0.00    +0.000 OA
ATOM     12  C   UNL     1       3.939   0.313   1.305  0.00  0.00    +0.000 A 
ATOM     13  C   UNL     1       4.730   1.255   0.780  0.00  0.00    +0.000 A 
BRANCH   7  15
ATOM     14  O   UNL     1       6.068   4.576   1.603  0.00  0.00    +0.000 OA
ATOM     15  C   UNL     1       5.674   3.664   0.893  0.00  0.00    +0.000 C 
BRANCH  15  16
ATOM     16  O   UNL     1       5.997   3.582  -0.414  0.00  0.00    +0.000 OA
ATOM     17  H   UNL     1       5.502   2.922  -0.930  0.00  0.00    +0.000 HD
ENDBRANCH  15  16
ENDBRANCH   7  15
ENDBRANCH   1   9
BRANCH   4  18
ATOM     18  C   UNL     1       0.207   3.034   7.809  0.00  0.00    +0.000 A 
ATOM     19  C   UNL     1       0.183   4.202   8.531  0.00  0.00    +0.000 A 
ATOM     20  F   UNL     1       0.904   5.262   8.273  0.00  0.00    +0.000 F 
ATOM     21  N   UNL     1      -0.697   4.038   9.579  0.00  0.00    +0.000 N 
ATOM     22  N   UNL     1      -1.245   2.789   9.566  0.00  0.00    +0.000 NA
ATOM     23  C   UNL     1      -0.702   2.204   8.498  0.00  0.00    +0.000 A 
BRANCH  21  24
ATOM     24  C   UNL     1      -1.042   4.976  10.588  0.00  0.00    +0.000 A 
ATOM     25  C   UNL     1      -0.543   6.287  10.559  0.00  0.00    +0.000 A 
ATOM     26  C   UNL     1      -0.891   7.187  11.569  0.00  0.00    +0.000 A 
ATOM     27  C   UNL     1      -1.730   6.787  12.607  0.00  0.00    +0.000 A 
ATOM     28  C   UNL     1      -2.231   5.488  12.639  0.00  0.00    +0.000 A 
ATOM     29  C   UNL     1      -1.893   4.584  11.632  0.00  0.00    +0.000 A 
ENDBRANCH  21  24
ENDBRANCH   4  18
TORSDOF 5
