REMARK  Name = 
REMARK  9 active torsions:
REMARK  status: ('A' for Active; 'I' for Inactive)
REMARK    1  A    between atoms: C_1  and  O_2
REMARK    2  A    between atoms: O_2  and  C_3
REMARK    3  A    between atoms: C_7  and  C_8
REMARK    4  A    between atoms: C_8  and  C_9
REMARK    5  A    between atoms: C_9  and  N_10
REMARK    6  A    between atoms: C_9  and  C_25
REMARK    7  A    between atoms: C_11  and  C_13
REMARK    8  A    between atoms: C_16  and  C_17
REMARK    9  A    between atoms: C_17  and  C_18
REMARK                            x       y       z     vdW  Elec       q    Type
REMARK                         _______ _______ _______ _____ _____    ______ ____
ROOT
ATOM      1  N   UNL     1       7.152   1.858   3.193  0.00  0.00    +0.000 N 
ATOM      2  C   UNL     1       7.234   2.195   4.527  0.00  0.00    +0.000 C 
ATOM      3  O   UNL     1       7.269   3.350   4.933  0.00  0.00    +0.000 OA
ATOM      4  H   UNL     1       7.310   0.906   2.909  0.00  0.00    +0.000 HD
ENDROOT
BRANCH   2   5
ATOM      5  C   UNL     1       7.278   1.086   5.520  0.00  0.00    +0.000 A 
ATOM      6  C   UNL     1       7.969   1.331   6.712  0.00  0.00    +0.000 A 
ATOM      7  C   UNL     1       7.886   0.434   7.777  0.00  0.00    +0.000 A 
ATOM      8  C   UNL     1       7.104  -0.722   7.667  0.00  0.00    +0.000 A 
ATOM      9  C   UNL     1       6.481  -1.009   6.440  0.00  0.00    +0.000 A 
ATOM     10  C   UNL     1       6.564  -0.106   5.368  0.00  0.00    +0.000 A 
BRANCH   8  11
ATOM     11  C   UNL     1       6.909  -1.616   8.875  0.00  0.00    +0.000 C 
BRANCH  11  12
ATOM     12  C   UNL     1       5.497  -1.708   9.352  0.00  0.00    +0.000 A 
ATOM     13  N   UNL     1       4.916  -2.749   9.911  0.00  0.00    +0.000 NA
ATOM     14  N   UNL     1       3.653  -2.373  10.307  0.00  0.00    +0.000 NA
ATOM     15  C   UNL     1       3.490  -1.114   9.977  0.00  0.00    +0.000 A 
ATOM     16  N   UNL     1       4.606  -0.664   9.342  0.00  0.00    +0.000 N 
ATOM     17  H   UNL     1       4.760   0.257   8.957  0.00  0.00    +0.000 HD
ENDBRANCH  11  12
ENDBRANCH   8  11
ENDBRANCH   2   5
BRANCH   1  18
ATOM     18  C   UNL     1       7.206   2.910   2.168  0.00  0.00    +0.000 C 
BRANCH  18  19
ATOM     19  C   UNL     1       8.657   3.275   1.888  0.00  0.00    +0.000 A 
ATOM     20  C   UNL     1       9.140   4.552   2.237  0.00  0.00    +0.000 A 
ATOM     21  C   UNL     1      10.481   4.887   2.036  0.00  0.00    +0.000 A 
ATOM     22  C   UNL     1      11.359   3.952   1.492  0.00  0.00    +0.000 A 
ATOM     23  C   UNL     1      10.896   2.686   1.144  0.00  0.00    +0.000 A 
ATOM     24  C   UNL     1       9.554   2.349   1.339  0.00  0.00    +0.000 A 
ENDBRANCH  18  19
BRANCH  18  25
ATOM     25  C   UNL     1       6.429   2.520   0.882  0.00  0.00    +0.000 C 
BRANCH  25  30
ATOM     26  C   UNL     1       3.126   0.666   1.357  0.00  0.00    +0.000 A 
ATOM     27  C   UNL     1       2.394   1.621   2.061  0.00  0.00    +0.000 A 
ATOM     28  C   UNL     1       2.888   2.916   2.201  0.00  0.00    +0.000 A 
ATOM     29  C   UNL     1       4.151   3.240   1.710  0.00  0.00    +0.000 A 
ATOM     30  C   UNL     1       4.964   2.246   1.148  0.00  0.00    +0.000 A 
ATOM     31  C   UNL     1       4.418   0.975   0.921  0.00  0.00    +0.000 A 
BRANCH  26  33
ATOM     32  C   UNL     1       1.274  -0.752   1.025  0.00  0.00    +0.000 C 
ATOM     33  O   UNL     1       2.692  -0.607   1.097  0.00  0.00    +0.000 OA
ENDBRANCH  26  33
ENDBRANCH  25  30
ENDBRANCH  18  25
ENDBRANCH   1  18
TORSDOF 8
