REMARK  Name = 
REMARK  6 active torsions:
REMARK  status: ('A' for Active; 'I' for Inactive)
REMARK    1  A    between atoms: C_1  and  O_2
REMARK    2  A    between atoms: O_2  and  C_3
REMARK    3  A    between atoms: C_3  and  C_5
REMARK    4  A    between atoms: C_11  and  C_13
REMARK    5  A    between atoms: C_16  and  C_17
REMARK    6  A    between atoms: C_22  and  C_23
REMARK                            x       y       z     vdW  Elec       q    Type
REMARK                         _______ _______ _______ _____ _____    ______ ____
ROOT
ATOM      1  C   UNL     1       4.768   1.107  -0.959  0.00  0.00    +0.000 A 
ATOM      2  C   UNL     1       5.511   2.238  -0.909  0.00  0.00    +0.000 A 
ATOM      3  C   UNL     1       6.910   2.158  -0.649  0.00  0.00    +0.000 A 
ATOM      4  N   UNL     1       7.862   3.066  -0.521  0.00  0.00    +0.000 NA
ATOM      5  C   UNL     1       8.992   2.311  -0.341  0.00  0.00    +0.000 A 
ATOM      6  N   UNL     1      10.207   2.937  -0.232  0.00  0.00    +0.000 N 
ATOM      7  C   UNL     1      11.408   2.260  -0.231  0.00  0.00    +0.000 C 
ATOM      8  O   UNL     1      11.571   1.045  -0.305  0.00  0.00    +0.000 OA
ATOM      9  N   UNL     1       8.787   1.000  -0.301  0.00  0.00    +0.000 NA
ATOM     10  N   UNL     1       7.466   0.889  -0.485  0.00  0.00    +0.000 N 
ATOM     11  C   UNL     1       6.710  -0.276  -0.523  0.00  0.00    +0.000 A 
ATOM     12  C   UNL     1       5.391  -0.205  -0.746  0.00  0.00    +0.000 A 
ATOM     13  H   UNL     1      10.148   3.941  -0.171  0.00  0.00    +0.000 HD
ENDROOT
BRANCH   7  14
ATOM     14  C   UNL     1      12.637   3.094  -0.154  0.00  0.00    +0.000 A 
ATOM     15  C   UNL     1      13.792   2.537   0.406  0.00  0.00    +0.000 A 
ATOM     16  C   UNL     1      14.981   3.278   0.482  0.00  0.00    +0.000 A 
ATOM     17  C   UNL     1      15.065   4.584  -0.033  0.00  0.00    +0.000 A 
ATOM     18  C   UNL     1      13.907   5.084  -0.663  0.00  0.00    +0.000 A 
ATOM     19  C   UNL     1      12.701   4.373  -0.698  0.00  0.00    +0.000 A 
BRANCH  17  20
ATOM     20  C   UNL     1      16.322   5.388   0.047  0.00  0.00    +0.000 A 
ATOM     21  C   UNL     1      17.579   4.751  -0.062  0.00  0.00    +0.000 A 
ATOM     22  C   UNL     1      18.784   5.468  -0.047  0.00  0.00    +0.000 A 
ATOM     23  C   UNL     1      18.771   6.853   0.049  0.00  0.00    +0.000 A 
ATOM     24  C   UNL     1      17.556   7.514   0.181  0.00  0.00    +0.000 A 
ATOM     25  C   UNL     1      16.345   6.797   0.218  0.00  0.00    +0.000 A 
BRANCH  25  26
ATOM     26  C   UNL     1      15.162   7.576   0.462  0.00  0.00    +0.000 C 
ATOM     27  N   UNL     1      14.216   8.225   0.642  0.00  0.00    +0.000 NA
ENDBRANCH  25  26
ENDBRANCH  17  20
ENDBRANCH   7  14
BRANCH   1  28
ATOM     28  C   UNL     1       3.306   1.233  -1.249  0.00  0.00    +0.000 C 
ATOM     29  O   UNL     1       2.743   2.286  -1.505  0.00  0.00    +0.000 OA
BRANCH  28  31
ATOM     30  C   UNL     1       1.306   0.013  -1.437  0.00  0.00    +0.000 C 
ATOM     31  O   UNL     1       2.711   0.012  -1.181  0.00  0.00    +0.000 OA
ENDBRANCH  28  31
ENDBRANCH   1  28
TORSDOF 5
