REMARK  Name = 
REMARK  7 active torsions:
REMARK  status: ('A' for Active; 'I' for Inactive)
REMARK    1  A    between atoms: C_2  and  C_19
REMARK    2  A    between atoms: N_3  and  C_4
REMARK    3  A    between atoms: C_7  and  O_8
REMARK    4  A    between atoms: O_8  and  C_9
REMARK    5  A    between atoms: C_12  and  C_13
REMARK    6  A    between atoms: C_13  and  O_14
REMARK    7  A    between atoms: N_23  and  C_24
REMARK                            x       y       z     vdW  Elec       q    Type
REMARK                         _______ _______ _______ _____ _____    ______ ____
ROOT
ATOM      1  C   UNL     1       2.150   1.635   1.869  0.00  0.00    +0.000 A 
ATOM      2  C   UNL     1       0.967   1.230   2.494  0.00  0.00    +0.000 A 
ATOM      3  C   UNL     1       0.407   1.986   3.526  0.00  0.00    +0.000 A 
ATOM      4  C   UNL     1       1.063   3.117   4.005  0.00  0.00    +0.000 A 
ATOM      5  C   UNL     1       2.239   3.537   3.380  0.00  0.00    +0.000 A 
ATOM      6  C   UNL     1       2.785   2.796   2.323  0.00  0.00    +0.000 A 
ENDROOT
BRANCH   1   9
ATOM      7  O   UNL     1       1.038  -0.571   0.316  0.00  0.00    +0.000 OA
ATOM      8  C   UNL     1       2.129  -0.081   0.062  0.00  0.00    +0.000 C 
ATOM      9  N   UNL     1       2.723   0.943   0.777  0.00  0.00    +0.000 N 
ATOM     10  H   UNL     1       3.599   1.309   0.422  0.00  0.00    +0.000 HD
BRANCH   8  11
ATOM     11  C   UNL     1       2.891  -0.531  -1.074  0.00  0.00    +0.000 A 
ATOM     12  C   UNL     1       4.245  -0.799  -1.174  0.00  0.00    +0.000 A 
ATOM     13  C   UNL     1       4.393  -1.462  -2.399  0.00  0.00    +0.000 A 
ATOM     14  N   UNL     1       3.239  -1.596  -3.049  0.00  0.00    +0.000 NA
ATOM     15  N   UNL     1       2.328  -0.938  -2.279  0.00  0.00    +0.000 N 
BRANCH  15  16
ATOM     16  C   UNL     1       1.023  -0.708  -2.783  0.00  0.00    +0.000 A 
ATOM     17  C   UNL     1       0.246   0.385  -2.386  0.00  0.00    +0.000 A 
ATOM     18  C   UNL     1      -1.044   0.527  -2.892  0.00  0.00    +0.000 A 
ATOM     19  C   UNL     1      -1.510  -0.424  -3.783  0.00  0.00    +0.000 A 
ATOM     20  N   UNL     1      -0.774  -1.470  -4.217  0.00  0.00    +0.000 NA
ATOM     21  C   UNL     1       0.483  -1.584  -3.716  0.00  0.00    +0.000 A 
ENDBRANCH  15  16
ENDBRANCH   8  11
ENDBRANCH   1   9
BRANCH   4  22
ATOM     22  O   UNL     1       0.600   3.898   5.040  0.00  0.00    +0.000 OA
BRANCH  22  23
ATOM     23  C   UNL     1      -0.118   3.317   6.063  0.00  0.00    +0.000 A 
ATOM     24  C   UNL     1       0.129   2.037   6.565  0.00  0.00    +0.000 A 
ATOM     25  C   UNL     1      -0.680   1.507   7.573  0.00  0.00    +0.000 A 
ATOM     26  C   UNL     1      -1.709   2.272   8.134  0.00  0.00    +0.000 A 
ATOM     27  C   UNL     1      -1.900   3.586   7.680  0.00  0.00    +0.000 A 
ATOM     28  C   UNL     1      -1.112   4.103   6.647  0.00  0.00    +0.000 A 
BRANCH  26  29
ATOM     29  C   UNL     1      -2.604   1.693   9.197  0.00  0.00    +0.000 C 
BRANCH  29  30
ATOM     30  O   UNL     1      -2.453   2.401  10.418  0.00  0.00    +0.000 OA
ATOM     31  H   UNL     1      -1.499   2.540  10.547  0.00  0.00    +0.000 HD
ENDBRANCH  29  30
ENDBRANCH  26  29
ENDBRANCH  22  23
ENDBRANCH   4  22
TORSDOF 7
