REMARK  Name = 
REMARK  7 active torsions:
REMARK  status: ('A' for Active; 'I' for Inactive)
REMARK    1  A    between atoms: C_1  and  C_2
REMARK    2  A    between atoms: C_4  and  O_5
REMARK    3  A    between atoms: O_5  and  C_6
REMARK    4  A    between atoms: C_6  and  C_7
REMARK    5  A    between atoms: C_15  and  N_16
REMARK    6  A    between atoms: C_17  and  C_19
REMARK    7  A    between atoms: C_19  and  N_20
REMARK                            x       y       z     vdW  Elec       q    Type
REMARK                         _______ _______ _______ _____ _____    ______ ____
ROOT
ATOM      1  N   UNL     1       1.136  -2.457   0.419  0.00  0.00    +0.000 N 
ATOM      2  C   UNL     1       0.663  -3.707   0.745  0.00  0.00    +0.000 C 
ATOM      3  O   UNL     1      -0.482  -3.943   1.118  0.00  0.00    +0.000 OA
ATOM      4  H   UNL     1       2.150  -2.357   0.361  0.00  0.00    +0.000 HD
ENDROOT
BRANCH   1  11
ATOM      5  C   UNL     1       2.512   0.180   0.128  0.00  0.00    +0.000 C 
ATOM      6  C   UNL     1       1.018  -0.005   0.120  0.00  0.00    +0.000 A 
ATOM      7  C   UNL     1       0.218   1.160  -0.022  0.00  0.00    +0.000 A 
ATOM      8  C   UNL     1      -1.169   1.107  -0.101  0.00  0.00    +0.000 A 
ATOM      9  C   UNL     1      -1.788  -0.159   0.033  0.00  0.00    +0.000 A 
ATOM     10  C   UNL     1      -1.011  -1.304   0.190  0.00  0.00    +0.000 A 
ATOM     11  C   UNL     1       0.391  -1.267   0.246  0.00  0.00    +0.000 A 
BRANCH   8  12
ATOM     12  O   UNL     1      -1.831   2.276  -0.268  0.00  0.00    +0.000 OA
BRANCH  12  13
ATOM     13  C   UNL     1      -3.192   2.175  -0.716  0.00  0.00    +0.000 C 
BRANCH  13  14
ATOM     14  C   UNL     1      -3.700   3.473  -1.294  0.00  0.00    +0.000 A 
ATOM     15  C   UNL     1      -2.986   4.675  -1.221  0.00  0.00    +0.000 A 
ATOM     16  C   UNL     1      -3.499   5.827  -1.810  0.00  0.00    +0.000 A 
ATOM     17  C   UNL     1      -4.736   5.747  -2.430  0.00  0.00    +0.000 A 
ATOM     18  N   UNL     1      -5.469   4.612  -2.508  0.00  0.00    +0.000 NA
ATOM     19  C   UNL     1      -4.936   3.502  -1.945  0.00  0.00    +0.000 A 
ENDBRANCH  13  14
ENDBRANCH  12  13
ENDBRANCH   8  12
ENDBRANCH   1  11
BRANCH   2  20
ATOM     20  C   UNL     1       1.707  -4.825   0.744  0.00  0.00    +0.000 C 
BRANCH  20  21
ATOM     21  N   UNL     1       2.221  -5.006   2.099  0.00  0.00    +0.000 N 
ATOM     22  C   UNL     1       1.370  -5.524   3.064  0.00  0.00    +0.000 A 
ATOM     23  C   UNL     1       1.635  -5.409   4.370  0.00  0.00    +0.000 A 
ATOM     24  C   UNL     1       2.920  -4.843   4.781  0.00  0.00    +0.000 A 
ATOM     25  C   UNL     1       3.267  -4.774   6.122  0.00  0.00    +0.000 A 
ATOM     26  C   UNL     1       4.528  -5.208   6.500  0.00  0.00    +0.000 A 
ATOM     27  C   UNL     1       5.522  -5.314   5.530  0.00  0.00    +0.000 A 
ATOM     28  C   UNL     1       5.248  -4.951   4.207  0.00  0.00    +0.000 A 
ATOM     29  C   UNL     1       3.925  -4.760   3.823  0.00  0.00    +0.000 A 
ATOM     30  C   UNL     1       3.506  -4.553   2.411  0.00  0.00    +0.000 A 
ATOM     31  O   UNL     1       4.261  -4.013   1.608  0.00  0.00    +0.000 OA
ENDBRANCH  20  21
ENDBRANCH   2  20
TORSDOF 6
