REMARK  Name = 
REMARK  7 active torsions:
REMARK  status: ('A' for Active; 'I' for Inactive)
REMARK    1  A    between atoms: C_2  and  C_20
REMARK    2  A    between atoms: N_3  and  C_4
REMARK    3  A    between atoms: C_7  and  C_8
REMARK    4  A    between atoms: C_8  and  C_9
REMARK    5  A    between atoms: C_9  and  C_10
REMARK    6  A    between atoms: C_10  and  O_11
REMARK    7  A    between atoms: C_10  and  C_12
REMARK                            x       y       z     vdW  Elec       q    Type
REMARK                         _______ _______ _______ _____ _____    ______ ____
ROOT
ATOM      1  C   UNL     1       2.176   2.076  -0.940  0.00  0.00    +0.000 A 
ATOM      2  C   UNL     1       1.100   2.699  -0.320  0.00  0.00    +0.000 A 
ATOM      3  C   UNL     1       0.553   3.866  -0.849  0.00  0.00    +0.000 A 
ATOM      4  C   UNL     1       1.085   4.447  -2.002  0.00  0.00    +0.000 A 
ATOM      5  C   UNL     1       2.206   3.856  -2.598  0.00  0.00    +0.000 A 
ATOM      6  C   UNL     1       2.754   2.680  -2.065  0.00  0.00    +0.000 A 
ENDROOT
BRANCH   1   9
ATOM      7  O   UNL     1       1.051   0.103   1.006  0.00  0.00    +0.000 OA
ATOM      8  C   UNL     1       2.142  -0.014   0.463  0.00  0.00    +0.000 C 
ATOM      9  N   UNL     1       2.709   0.849  -0.482  0.00  0.00    +0.000 N 
ATOM     10  H   UNL     1       3.532   0.544  -0.992  0.00  0.00    +0.000 HD
BRANCH   8  11
ATOM     11  C   UNL     1       2.912  -1.263   0.718  0.00  0.00    +0.000 A 
ATOM     12  C   UNL     1       2.238  -2.494   0.766  0.00  0.00    +0.000 A 
ATOM     13  C   UNL     1       2.951  -3.683   0.562  0.00  0.00    +0.000 A 
ATOM     14  C   UNL     1       4.291  -3.626   0.161  0.00  0.00    +0.000 A 
ATOM     15  C   UNL     1       4.936  -2.388   0.131  0.00  0.00    +0.000 A 
ATOM     16  C   UNL     1       4.286  -1.268   0.594  0.00  0.00    +0.000 A 
ATOM     17  C   UNL     1       5.097  -0.077   0.814  0.00  0.00    +0.000 A 
ATOM     18  N   UNL     1       6.121   0.186   0.060  0.00  0.00    +0.000 NA
ATOM     19  N   UNL     1       6.450  -0.781  -0.849  0.00  0.00    +0.000 N 
ATOM     20  C   UNL     1       6.141  -2.125  -0.671  0.00  0.00    +0.000 A 
ATOM     21  O   UNL     1       6.729  -3.029  -1.264  0.00  0.00    +0.000 OA
ATOM     22  H   UNL     1       7.207  -0.550  -1.484  0.00  0.00    +0.000 HD
ENDBRANCH   8  11
ENDBRANCH   1   9
BRANCH   4  23
ATOM     23  C   UNL     1       0.428   5.662  -2.614  0.00  0.00    +0.000 C 
BRANCH  23  24
ATOM     24  C   UNL     1       0.299   6.863  -1.667  0.00  0.00    +0.000 C 
BRANCH  24  25
ATOM     25  C   UNL     1       1.655   7.425  -1.221  0.00  0.00    +0.000 C 
BRANCH  25  26
ATOM     26  C   UNL     1       1.504   8.627  -0.306  0.00  0.00    +0.000 A 
ATOM     27  C   UNL     1       2.004   8.572   1.005  0.00  0.00    +0.000 A 
ATOM     28  C   UNL     1       1.897   9.673   1.857  0.00  0.00    +0.000 A 
ATOM     29  C   UNL     1       1.291  10.845   1.411  0.00  0.00    +0.000 A 
ATOM     30  C   UNL     1       0.779  10.913   0.118  0.00  0.00    +0.000 A 
ATOM     31  C   UNL     1       0.879   9.811  -0.733  0.00  0.00    +0.000 A 
ENDBRANCH  25  26
BRANCH  25  32
ATOM     32  O   UNL     1       2.420   7.774  -2.375  0.00  0.00    +0.000 OA
ATOM     33  H   UNL     1       2.149   8.662  -2.657  0.00  0.00    +0.000 HD
ENDBRANCH  25  32
ENDBRANCH  24  25
ENDBRANCH  23  24
ENDBRANCH   4  23
TORSDOF 7
