REMARK  Name = 
REMARK  7 active torsions:
REMARK  status: ('A' for Active; 'I' for Inactive)
REMARK    1  A    between atoms: C_1  and  C_2
REMARK    2  A    between atoms: C_3  and  C_4
REMARK    3  A    between atoms: N_6  and  C_7
REMARK    4  A    between atoms: C_7  and  C_8
REMARK    5  A    between atoms: C_7  and  C_11
REMARK    6  A    between atoms: N_23  and  C_24
REMARK    7  A    between atoms: C_24  and  C_25
REMARK                            x       y       z     vdW  Elec       q    Type
REMARK                         _______ _______ _______ _____ _____    ______ ____
ROOT
ATOM      1  C   UNL     1       2.807   2.589  -0.174  0.00  0.00    +0.000 C 
ATOM      2  O   UNL     1       1.661   2.887  -0.507  0.00  0.00    +0.000 OA
ATOM      3  N   UNL     1       3.746   3.546   0.116  0.00  0.00    +0.000 N 
ATOM      4  H   UNL     1       4.572   3.267   0.625  0.00  0.00    +0.000 HD
ENDROOT
BRANCH   1   7
ATOM      5  C   UNL     1       0.929   0.168   0.518  0.00  0.00    +0.000 C 
ATOM      6  C   UNL     1       2.399   0.129   0.263  0.00  0.00    +0.000 A 
ATOM      7  C   UNL     1       3.249   1.204   0.001  0.00  0.00    +0.000 A 
ATOM      8  C   UNL     1       4.567   0.667  -0.075  0.00  0.00    +0.000 A 
ATOM      9  C   UNL     1       4.476  -0.699   0.070  0.00  0.00    +0.000 A 
ATOM     10  N   UNL     1       3.152  -1.031   0.239  0.00  0.00    +0.000 N 
BRANCH  10  11
ATOM     11  C   UNL     1       2.663  -2.413   0.246  0.00  0.00    +0.000 C 
BRANCH  11  12
ATOM     12  C   UNL     1       2.667  -3.010   1.633  0.00  0.00    +0.000 A 
ATOM     13  C   UNL     1       1.508  -2.982   2.421  0.00  0.00    +0.000 A 
ATOM     14  C   UNL     1       1.530  -3.429   3.741  0.00  0.00    +0.000 A 
ATOM     15  C   UNL     1       2.704  -3.946   4.281  0.00  0.00    +0.000 A 
ATOM     16  C   UNL     1       3.849  -4.039   3.491  0.00  0.00    +0.000 A 
ATOM     17  C   UNL     1       3.832  -3.574   2.175  0.00  0.00    +0.000 A 
ENDBRANCH  11  12
ENDBRANCH  10  11
ENDBRANCH   1   7
BRANCH   3  18
ATOM     18  C   UNL     1       3.412   4.962   0.055  0.00  0.00    +0.000 C 
BRANCH  18  19
ATOM     19  C   UNL     1       4.609   5.782  -0.403  0.00  0.00    +0.000 A 
ATOM     20  C   UNL     1       5.793   5.838   0.342  0.00  0.00    +0.000 A 
ATOM     21  C   UNL     1       6.859   6.639  -0.079  0.00  0.00    +0.000 A 
ATOM     22  C   UNL     1       6.763   7.409  -1.249  0.00  0.00    +0.000 A 
ATOM     23  C   UNL     1       7.812   8.245  -1.663  0.00  0.00    +0.000 A 
ATOM     24  C   UNL     1       7.692   9.021  -2.818  0.00  0.00    +0.000 A 
ATOM     25  C   UNL     1       6.526   8.966  -3.575  0.00  0.00    +0.000 A 
ATOM     26  C   UNL     1       5.478   8.133  -3.179  0.00  0.00    +0.000 A 
ATOM     27  C   UNL     1       5.581   7.351  -2.016  0.00  0.00    +0.000 A 
ATOM     28  C   UNL     1       4.525   6.530  -1.591  0.00  0.00    +0.000 A 
ENDBRANCH  18  19
BRANCH  18  29
ATOM     29  C   UNL     1       2.801   5.461   1.392  0.00  0.00    +0.000 C 
ATOM     30  N   UNL     1       1.689   4.780   1.828  0.00  0.00    +0.000 N 
ATOM     31  O   UNL     1       3.186   6.435   2.035  0.00  0.00    +0.000 OA
ATOM     32  H   UNL     1       1.215   4.113   1.220  0.00  0.00    +0.000 HD
ATOM     33  H   UNL     1       1.196   5.147   2.624  0.00  0.00    +0.000 HD
ENDBRANCH  18  29
ENDBRANCH   3  18
TORSDOF 6
