REMARK  Name = 
REMARK  9 active torsions:
REMARK  status: ('A' for Active; 'I' for Inactive)
REMARK    1  A    between atoms: C_2  and  C_3
REMARK    2  A    between atoms: C_2  and  O_18
REMARK    3  A    between atoms: C_3  and  O_4
REMARK    4  A    between atoms: O_4  and  C_5
REMARK    5  A    between atoms: C_9  and  O_10
REMARK    6  A    between atoms: O_10  and  C_11
REMARK    7  A    between atoms: O_18  and  C_19
REMARK    8  A    between atoms: C_19  and  C_20
REMARK    9  A    between atoms: N_24  and  C_25
REMARK                            x       y       z     vdW  Elec       q    Type
REMARK                         _______ _______ _______ _____ _____    ______ ____
ROOT
ATOM      1  O   UNL     1       1.937   1.182  -0.649  0.00  0.00    +0.000 OA
ATOM      2  C   UNL     1       2.155   0.092  -0.136  0.00  0.00    +0.000 C 
ENDROOT
BRANCH   2   3
ATOM      3  C   UNL     1       2.897  -1.038  -0.818  0.00  0.00    +0.000 C 
BRANCH   3   4
ATOM      4  O   UNL     1       1.977  -1.912  -1.458  0.00  0.00    +0.000 OA
BRANCH   4   5
ATOM      5  C   UNL     1       2.531  -2.945  -2.171  0.00  0.00    +0.000 A 
ATOM      6  C   UNL     1       3.899  -3.192  -2.299  0.00  0.00    +0.000 A 
ATOM      7  C   UNL     1       4.352  -4.263  -3.072  0.00  0.00    +0.000 A 
ATOM      8  C   UNL     1       3.438  -5.097  -3.708  0.00  0.00    +0.000 A 
ATOM      9  C   UNL     1       2.068  -4.896  -3.539  0.00  0.00    +0.000 A 
ATOM     10  C   UNL     1       1.615  -3.797  -2.802  0.00  0.00    +0.000 A 
BRANCH   9  11
ATOM     11  O   UNL     1       1.113  -5.696  -4.131  0.00  0.00    +0.000 OA
BRANCH  11  12
ATOM     12  C   UNL     1       1.335  -7.071  -4.146  0.00  0.00    +0.000 A 
ATOM     13  C   UNL     1       0.687  -7.795  -5.134  0.00  0.00    +0.000 A 
ATOM     14  C   UNL     1       0.899  -9.171  -5.193  0.00  0.00    +0.000 A 
ATOM     15  C   UNL     1       1.743  -9.771  -4.264  0.00  0.00    +0.000 A 
ATOM     16  C   UNL     1       2.330  -8.970  -3.299  0.00  0.00    +0.000 A 
ATOM     17  N   UNL     1       2.135  -7.638  -3.212  0.00  0.00    +0.000 NA
ENDBRANCH  11  12
ENDBRANCH   9  11
ENDBRANCH   4   5
ENDBRANCH   3   4
ENDBRANCH   2   3
BRANCH   2  18
ATOM     18  O   UNL     1       1.787  -0.273   1.124  0.00  0.00    +0.000 OA
BRANCH  18  19
ATOM     19  C   UNL     1       1.021   0.691   1.861  0.00  0.00    +0.000 C 
BRANCH  19  20
ATOM     20  C   UNL     1      -0.247   0.036   2.253  0.00  0.00    +0.000 A 
ATOM     21  C   UNL     1      -0.750  -1.209   1.931  0.00  0.00    +0.000 A 
ATOM     22  N   UNL     1      -1.853  -1.475   2.678  0.00  0.00    +0.000 NA
ATOM     23  N   UNL     1      -2.059  -0.438   3.473  0.00  0.00    +0.000 NA
ATOM     24  N   UNL     1      -1.168   0.540   3.163  0.00  0.00    +0.000 N 
BRANCH  24  25
ATOM     25  C   UNL     1      -1.279   1.822   3.767  0.00  0.00    +0.000 A 
ATOM     26  C   UNL     1      -1.941   1.939   4.999  0.00  0.00    +0.000 A 
ATOM     27  C   UNL     1      -2.052   3.183   5.623  0.00  0.00    +0.000 A 
ATOM     28  C   UNL     1      -1.530   4.321   5.013  0.00  0.00    +0.000 A 
ATOM     29  C   UNL     1      -0.906   4.219   3.773  0.00  0.00    +0.000 A 
ATOM     30  C   UNL     1      -0.780   2.975   3.148  0.00  0.00    +0.000 A 
ENDBRANCH  24  25
ENDBRANCH  19  20
ENDBRANCH  18  19
ENDBRANCH   2  18
TORSDOF 9
