REMARK  Name = 
REMARK  7 active torsions:
REMARK  status: ('A' for Active; 'I' for Inactive)
REMARK    1  A    between atoms: C_1  and  O_2
REMARK    2  A    between atoms: O_2  and  C_3
REMARK    3  A    between atoms: C_3  and  C_5
REMARK    4  A    between atoms: C_11  and  N_12
REMARK    5  A    between atoms: C_13  and  C_15
REMARK    6  A    between atoms: C_16  and  C_17
REMARK    7  A    between atoms: C_17  and  C_19
REMARK                            x       y       z     vdW  Elec       q    Type
REMARK                         _______ _______ _______ _____ _____    ______ ____
ROOT
ATOM      1  N   UNL     1       7.192  -2.837   3.179  0.00  0.00    +0.000 N 
ATOM      2  C   UNL     1       6.638  -3.527   4.249  0.00  0.00    +0.000 C 
ATOM      3  O   UNL     1       5.436  -3.648   4.456  0.00  0.00    +0.000 OA
ATOM      4  H   UNL     1       8.184  -2.948   3.025  0.00  0.00    +0.000 HD
ENDROOT
BRANCH   1  11
ATOM      5  C   UNL     1       4.393  -0.581  -1.213  0.00  0.00    +0.000 A 
ATOM      6  N   UNL     1       3.050  -0.334  -1.144  0.00  0.00    +0.000 NA
ATOM      7  C   UNL     1       2.432  -0.619   0.013  0.00  0.00    +0.000 A 
ATOM      8  C   UNL     1       3.078  -1.143   1.115  0.00  0.00    +0.000 A 
ATOM      9  C   UNL     1       4.453  -1.391   1.046  0.00  0.00    +0.000 A 
ATOM     10  C   UNL     1       5.120  -1.942   2.155  0.00  0.00    +0.000 A 
ATOM     11  C   UNL     1       6.488  -2.213   2.123  0.00  0.00    +0.000 A 
ATOM     12  C   UNL     1       7.210  -1.870   0.982  0.00  0.00    +0.000 A 
ATOM     13  C   UNL     1       6.560  -1.331  -0.133  0.00  0.00    +0.000 A 
ATOM     14  C   UNL     1       5.161  -1.097  -0.139  0.00  0.00    +0.000 A 
BRANCH   5  15
ATOM     15  C   UNL     1       5.021  -0.287  -2.545  0.00  0.00    +0.000 C 
ATOM     16  O   UNL     1       6.000  -0.855  -3.004  0.00  0.00    +0.000 OA
BRANCH  15  18
ATOM     17  C   UNL     1       4.886   1.103  -4.420  0.00  0.00    +0.000 C 
ATOM     18  O   UNL     1       4.353   0.731  -3.151  0.00  0.00    +0.000 OA
ENDBRANCH  15  18
ENDBRANCH   5  15
ENDBRANCH   1  11
BRANCH   2  19
ATOM     19  C   UNL     1       7.626  -4.093   5.140  0.00  0.00    +0.000 A 
ATOM     20  C   UNL     1       7.550  -5.208   5.968  0.00  0.00    +0.000 A 
ATOM     21  N   UNL     1       8.724  -5.335   6.697  0.00  0.00    +0.000 NA
ATOM     22  C   UNL     1       9.485  -4.331   6.340  0.00  0.00    +0.000 A 
ATOM     23  N   UNL     1       8.863  -3.550   5.415  0.00  0.00    +0.000 N 
ATOM     24  H   UNL     1       9.231  -2.688   5.037  0.00  0.00    +0.000 HD
BRANCH  20  25
ATOM     25  C   UNL     1       6.463  -6.191   6.066  0.00  0.00    +0.000 C 
ATOM     26  O   UNL     1       5.761  -6.496   5.100  0.00  0.00    +0.000 OA
BRANCH  25  27
ATOM     27  C   UNL     1       6.267  -6.906   7.365  0.00  0.00    +0.000 A 
ATOM     28  C   UNL     1       5.696  -8.185   7.356  0.00  0.00    +0.000 A 
ATOM     29  C   UNL     1       5.549  -8.902   8.546  0.00  0.00    +0.000 A 
ATOM     30  C   UNL     1       5.956  -8.339   9.756  0.00  0.00    +0.000 A 
ATOM     31  C   UNL     1       6.488  -7.052   9.780  0.00  0.00    +0.000 A 
ATOM     32  C   UNL     1       6.635  -6.333   8.591  0.00  0.00    +0.000 A 
ENDBRANCH  25  27
ENDBRANCH  20  25
ENDBRANCH   2  19
TORSDOF 6
