REMARK  Name = 
REMARK  5 active torsions:
REMARK  status: ('A' for Active; 'I' for Inactive)
REMARK    1  A    between atoms: C_2  and  C_17
REMARK    2  A    between atoms: N_6  and  C_7
REMARK    3  A    between atoms: C_20  and  C_21
REMARK    4  A    between atoms: C_21  and  O_22
REMARK    5  A    between atoms: O_22  and  C_23
REMARK                            x       y       z     vdW  Elec       q    Type
REMARK                         _______ _______ _______ _____ _____    ______ ____
ROOT
ATOM      1  O   UNL     1       1.119   0.490  -0.304  0.00  0.00    +0.000 OA
ATOM      2  C   UNL     1       2.192   0.027   0.071  0.00  0.00    +0.000 C 
ATOM      3  N   UNL     1       2.791   0.304   1.278  0.00  0.00    +0.000 N 
ATOM      4  C   UNL     1       2.242   1.134   2.216  0.00  0.00    +0.000 A 
ATOM      5  N   UNL     1       0.991   1.591   2.249  0.00  0.00    +0.000 NA
ATOM      6  N   UNL     1       0.991   2.422   3.308  0.00  0.00    +0.000 N 
ATOM      7  C   UNL     1       2.231   2.389   3.897  0.00  0.00    +0.000 A 
ATOM      8  N   UNL     1       3.024   1.564   3.250  0.00  0.00    +0.000 NA
ATOM      9  H   UNL     1       3.737  -0.002   1.451  0.00  0.00    +0.000 HD
ENDROOT
BRANCH   6  10
ATOM     10  C   UNL     1      -0.159   3.172   3.668  0.00  0.00    +0.000 A 
ATOM     11  C   UNL     1      -1.368   2.959   2.986  0.00  0.00    +0.000 A 
ATOM     12  C   UNL     1      -2.502   3.688   3.342  0.00  0.00    +0.000 A 
ATOM     13  F   UNL     1      -3.657   3.469   2.700  0.00  0.00    +0.000 F 
ATOM     14  C   UNL     1      -2.457   4.637   4.352  0.00  0.00    +0.000 A 
ATOM     15  C   UNL     1      -1.256   4.851   5.012  0.00  0.00    +0.000 A 
ATOM     16  F   UNL     1      -1.193   5.773   5.982  0.00  0.00    +0.000 F 
ATOM     17  C   UNL     1      -0.107   4.128   4.690  0.00  0.00    +0.000 A 
ENDBRANCH   6  10
BRANCH   2  18
ATOM     18  C   UNL     1       2.957  -0.844  -0.805  0.00  0.00    +0.000 A 
ATOM     19  C   UNL     1       2.759  -1.099  -2.149  0.00  0.00    +0.000 A 
ATOM     20  C   UNL     1       3.705  -2.068  -2.530  0.00  0.00    +0.000 A 
ATOM     21  C   UNL     1       4.428  -2.374  -1.397  0.00  0.00    +0.000 A 
ATOM     22  O   UNL     1       4.001  -1.605  -0.342  0.00  0.00    +0.000 OA
BRANCH  21  23
ATOM     23  C   UNL     1       5.452  -3.420  -1.129  0.00  0.00    +0.000 C 
BRANCH  23  24
ATOM     24  O   UNL     1       6.732  -2.900  -1.488  0.00  0.00    +0.000 OA
BRANCH  24  25
ATOM     25  C   UNL     1       7.775  -3.790  -1.429  0.00  0.00    +0.000 A 
ATOM     26  C   UNL     1       7.693  -5.123  -1.014  0.00  0.00    +0.000 A 
ATOM     27  C   UNL     1       8.831  -5.935  -1.010  0.00  0.00    +0.000 A 
ATOM     28  C   UNL     1      10.060  -5.422  -1.415  0.00  0.00    +0.000 A 
ATOM     29  C   UNL     1      10.153  -4.093  -1.823  0.00  0.00    +0.000 A 
ATOM     30  C   UNL     1       9.015  -3.282  -1.830  0.00  0.00    +0.000 A 
ENDBRANCH  24  25
ENDBRANCH  23  24
ENDBRANCH  21  23
ENDBRANCH   2  18
TORSDOF 5
