REMARK  Name = 
REMARK  6 active torsions:
REMARK  status: ('A' for Active; 'I' for Inactive)
REMARK    1  A    between atoms: C_2  and  C_18
REMARK    2  A    between atoms: N_3  and  C_4
REMARK    3  A    between atoms: C_4  and  C_5
REMARK    4  A    between atoms: C_10  and  O_11
REMARK    5  A    between atoms: O_11  and  C_12
REMARK    6  A    between atoms: C_21  and  C_22
REMARK                            x       y       z     vdW  Elec       q    Type
REMARK                         _______ _______ _______ _____ _____    ______ ____
ROOT
ATOM      1  O   UNL     1       2.343  -2.139  -0.268  0.00  0.00    +0.000 OA
ATOM      2  C   UNL     1       2.921  -1.063  -0.125  0.00  0.00    +0.000 C 
ATOM      3  N   UNL     1       2.933  -0.365   1.072  0.00  0.00    +0.000 N 
ATOM      4  H   UNL     1       3.514   0.465   1.121  0.00  0.00    +0.000 HD
ENDROOT
BRANCH   2   5
ATOM      5  C   UNL     1       3.655  -0.386  -1.210  0.00  0.00    +0.000 A 
ATOM      6  N   UNL     1       3.814  -0.907  -2.440  0.00  0.00    +0.000 NA
ATOM      7  O   UNL     1       4.540   0.075  -3.123  0.00  0.00    +0.000 OA
ATOM      8  C   UNL     1       4.750   1.097  -2.238  0.00  0.00    +0.000 A 
ATOM      9  N   UNL     1       4.234   0.866  -1.052  0.00  0.00    +0.000 NA
BRANCH   8  10
ATOM     10  C   UNL     1       5.483   2.261  -2.716  0.00  0.00    +0.000 A 
ATOM     11  C   UNL     1       5.692   3.335  -1.838  0.00  0.00    +0.000 A 
ATOM     12  C   UNL     1       6.397   4.457  -2.256  0.00  0.00    +0.000 A 
ATOM     13  F   UNL     1       6.585   5.471  -1.401  0.00  0.00    +0.000 F 
ATOM     14  C   UNL     1       6.907   4.544  -3.544  0.00  0.00    +0.000 A 
ATOM     15  C   UNL     1       6.705   3.490  -4.433  0.00  0.00    +0.000 A 
ATOM     16  C   UNL     1       5.995   2.354  -4.022  0.00  0.00    +0.000 A 
ENDBRANCH   8  10
ENDBRANCH   2   5
BRANCH   3  17
ATOM     17  C   UNL     1       2.327  -0.866   2.287  0.00  0.00    +0.000 C 
BRANCH  17  18
ATOM     18  C   UNL     1       3.267  -1.744   3.074  0.00  0.00    +0.000 A 
ATOM     19  C   UNL     1       3.379  -3.097   2.694  0.00  0.00    +0.000 A 
ATOM     20  C   UNL     1       4.273  -3.959   3.326  0.00  0.00    +0.000 A 
ATOM     21  C   UNL     1       5.053  -3.494   4.375  0.00  0.00    +0.000 A 
ATOM     22  C   UNL     1       4.928  -2.171   4.796  0.00  0.00    +0.000 A 
ATOM     23  C   UNL     1       4.069  -1.278   4.131  0.00  0.00    +0.000 A 
BRANCH  23  24
ATOM     24  O   UNL     1       3.949   0.038   4.546  0.00  0.00    +0.000 OA
BRANCH  24  25
ATOM     25  C   UNL     1       5.115   0.670   4.970  0.00  0.00    +0.000 A 
ATOM     26  C   UNL     1       5.034   1.532   6.055  0.00  0.00    +0.000 A 
ATOM     27  C   UNL     1       6.208   2.143   6.499  0.00  0.00    +0.000 A 
ATOM     28  C   UNL     1       7.409   1.868   5.851  0.00  0.00    +0.000 A 
ATOM     29  C   UNL     1       7.388   1.001   4.773  0.00  0.00    +0.000 A 
ATOM     30  N   UNL     1       6.267   0.417   4.305  0.00  0.00    +0.000 NA
ENDBRANCH  24  25
ENDBRANCH  23  24
ENDBRANCH  17  18
ENDBRANCH   3  17
TORSDOF 6
