REMARK  Name = 
REMARK  4 active torsions:
REMARK  status: ('A' for Active; 'I' for Inactive)
REMARK    1  A    between atoms: C_2  and  O_3
REMARK    2  A    between atoms: C_2  and  C_4
REMARK    3  A    between atoms: C_11  and  C_13
REMARK    4  A    between atoms: C_15  and  C_16
REMARK                            x       y       z     vdW  Elec       q    Type
REMARK                         _______ _______ _______ _____ _____    ______ ____
ROOT
ATOM      1  C   UNL     1       4.520   1.732  -1.390  0.00  0.00    +0.000 A 
ATOM      2  C   UNL     1       5.372   2.711  -1.861  0.00  0.00    +0.000 A 
ATOM      3  N   UNL     1       5.845   3.725  -1.096  0.00  0.00    +0.000 NA
ATOM      4  C   UNL     1       5.509   3.780   0.197  0.00  0.00    +0.000 A 
ATOM      5  N   UNL     1       6.017   4.752   0.947  0.00  0.00    +0.000 NA
ATOM      6  C   UNL     1       5.739   4.822   2.260  0.00  0.00    +0.000 A 
ATOM      7  N   UNL     1       6.310   5.838   3.047  0.00  0.00    +0.000 N 
ATOM      8  C   UNL     1       7.199   6.785   2.567  0.00  0.00    +0.000 C 
ATOM      9  O   UNL     1       7.667   6.860   1.437  0.00  0.00    +0.000 OA
ATOM     10  C   UNL     1       4.890   3.917   2.880  0.00  0.00    +0.000 A 
ATOM     11  C   UNL     1       4.332   2.901   2.115  0.00  0.00    +0.000 A 
ATOM     12  C   UNL     1       4.650   2.819   0.755  0.00  0.00    +0.000 A 
ATOM     13  C   UNL     1       4.151   1.783  -0.052  0.00  0.00    +0.000 A 
ATOM     14  H   UNL     1       6.085   5.834   4.030  0.00  0.00    +0.000 HD
ENDROOT
BRANCH   8  15
ATOM     15  C   UNL     1       7.639   7.822   3.538  0.00  0.00    +0.000 A 
ATOM     16  C   UNL     1       8.911   8.402   3.370  0.00  0.00    +0.000 A 
ATOM     17  C   UNL     1       9.352   9.469   4.178  0.00  0.00    +0.000 A 
ATOM     18  C   UNL     1       8.470   9.926   5.171  0.00  0.00    +0.000 A 
ATOM     19  C   UNL     1       7.215   9.346   5.338  0.00  0.00    +0.000 A 
ATOM     20  F   UNL     1       6.386   9.827   6.272  0.00  0.00    +0.000 F 
ATOM     21  C   UNL     1       6.788   8.299   4.534  0.00  0.00    +0.000 A 
BRANCH  17  22
ATOM     22  C   UNL     1      10.671  10.108   3.994  0.00  0.00    +0.000 A 
ATOM     23  C   UNL     1      11.318  10.175   2.758  0.00  0.00    +0.000 A 
ATOM     24  C   UNL     1      12.554  10.811   2.664  0.00  0.00    +0.000 A 
ATOM     25  C   UNL     1      13.121  11.368   3.801  0.00  0.00    +0.000 A 
ATOM     26  C   UNL     1      12.423  11.267   4.990  0.00  0.00    +0.000 A 
ATOM     27  N   UNL     1      11.220  10.659   5.109  0.00  0.00    +0.000 NA
ENDBRANCH  17  22
ENDBRANCH   8  15
BRANCH   1  29
ATOM     28  O   UNL     1       4.827   0.223  -3.183  0.00  0.00    +0.000 OA
ATOM     29  C   UNL     1       4.112   0.639  -2.288  0.00  0.00    +0.000 C 
BRANCH  29  30
ATOM     30  O   UNL     1       2.881   0.150  -2.035  0.00  0.00    +0.000 OA
ATOM     31  H   UNL     1       2.329   0.675  -1.427  0.00  0.00    +0.000 HD
ENDBRANCH  29  30
ENDBRANCH   1  29
TORSDOF 4
