REMARK  Name = 
REMARK  4 active torsions:
REMARK  status: ('A' for Active; 'I' for Inactive)
REMARK    1  A    between atoms: C_2  and  C_15
REMARK    2  A    between atoms: N_3  and  C_4
REMARK    3  A    between atoms: C_18  and  O_19
REMARK    4  A    between atoms: O_19  and  C_20
REMARK                            x       y       z     vdW  Elec       q    Type
REMARK                         _______ _______ _______ _____ _____    ______ ____
ROOT
ATOM      1  O   UNL     1       1.023   0.067   0.023  0.00  0.00    +0.000 OA
ATOM      2  C   UNL     1       2.242   0.057  -0.089  0.00  0.00    +0.000 C 
ATOM      3  N   UNL     1       2.967  -0.661  -1.034  0.00  0.00    +0.000 N 
ATOM      4  H   UNL     1       3.959  -0.760  -0.865  0.00  0.00    +0.000 HD
ENDROOT
BRANCH   3   5
ATOM      5  C   UNL     1       2.409  -1.426  -2.055  0.00  0.00    +0.000 A 
ATOM      6  C   UNL     1       1.171  -1.198  -2.529  0.00  0.00    +0.000 A 
ATOM      7  C   UNL     1       0.552  -2.006  -3.604  0.00  0.00    +0.000 A 
ATOM      8  O   UNL     1      -0.579  -1.766  -4.013  0.00  0.00    +0.000 OA
ATOM      9  N   UNL     1       1.304  -3.022  -4.111  0.00  0.00    +0.000 N 
ATOM     10  C   UNL     1       2.600  -3.314  -3.674  0.00  0.00    +0.000 A 
ATOM     11  C   UNL     1       3.273  -4.387  -4.252  0.00  0.00    +0.000 A 
ATOM     12  C   UNL     1       4.544  -4.668  -3.793  0.00  0.00    +0.000 A 
ATOM     13  N   UNL     1       5.153  -3.964  -2.817  0.00  0.00    +0.000 NA
ATOM     14  C   UNL     1       4.461  -2.930  -2.275  0.00  0.00    +0.000 A 
ATOM     15  C   UNL     1       3.185  -2.538  -2.663  0.00  0.00    +0.000 A 
ATOM     16  H   UNL     1       0.858  -3.576  -4.833  0.00  0.00    +0.000 HD
ENDBRANCH   3   5
BRANCH   2  17
ATOM     17  C   UNL     1       3.014   0.805   0.923  0.00  0.00    +0.000 A 
ATOM     18  C   UNL     1       2.555   0.843   2.244  0.00  0.00    +0.000 A 
ATOM     19  C   UNL     1       3.239   1.599   3.193  0.00  0.00    +0.000 A 
ATOM     20  C   UNL     1       4.367   2.289   2.782  0.00  0.00    +0.000 A 
ATOM     21  N   UNL     1       4.814   2.296   1.500  0.00  0.00    +0.000 NA
ATOM     22  C   UNL     1       4.131   1.554   0.598  0.00  0.00    +0.000 A 
BRANCH  20  23
ATOM     23  O   UNL     1       5.053   3.006   3.757  0.00  0.00    +0.000 OA
BRANCH  23  24
ATOM     24  C   UNL     1       6.404   3.190   3.556  0.00  0.00    +0.000 A 
ATOM     25  C   UNL     1       6.940   4.437   3.886  0.00  0.00    +0.000 A 
ATOM     26  C   UNL     1       8.294   4.689   3.654  0.00  0.00    +0.000 A 
ATOM     27  C   UNL     1       9.095   3.690   3.107  0.00  0.00    +0.000 A 
ATOM     28  F   UNL     1      10.384   3.946   2.846  0.00  0.00    +0.000 F 
ATOM     29  C   UNL     1       8.582   2.431   2.826  0.00  0.00    +0.000 A 
ATOM     30  C   UNL     1       7.238   2.171   3.078  0.00  0.00    +0.000 A 
ENDBRANCH  23  24
ENDBRANCH  20  23
ENDBRANCH   2  17
TORSDOF 4
