REMARK  Name = 
REMARK  9 active torsions:
REMARK  status: ('A' for Active; 'I' for Inactive)
REMARK    1  A    between atoms: C_1  and  N_2
REMARK    2  A    between atoms: C_3  and  C_5
REMARK    3  A    between atoms: C_5  and  O_6
REMARK    4  A    between atoms: O_6  and  C_7
REMARK    5  A    between atoms: C_11  and  C_12
REMARK    6  A    between atoms: C_12  and  N_13
REMARK    7  A    between atoms: C_14  and  C_16
REMARK    8  A    between atoms: N_18  and  C_19
REMARK    9  A    between atoms: C_23  and  C_24
REMARK                            x       y       z     vdW  Elec       q    Type
REMARK                         _______ _______ _______ _____ _____    ______ ____
ROOT
ATOM      1  N   UNL     1      10.412  -5.355  -2.273  0.00  0.00    +0.000 N 
ATOM      2  C   UNL     1      11.074  -6.261  -3.053  0.00  0.00    +0.000 C 
ATOM      3  O   UNL     1      10.556  -6.808  -4.039  0.00  0.00    +0.000 OA
ATOM      4  H   UNL     1      10.973  -4.881  -1.553  0.00  0.00    +0.000 HD
ENDROOT
BRANCH   2   5
ATOM      5  C   UNL     1      12.447  -6.540  -2.652  0.00  0.00    +0.000 A 
ATOM      6  C   UNL     1      13.343  -7.392  -3.285  0.00  0.00    +0.000 A 
ATOM      7  N   UNL     1      14.540  -7.348  -2.617  0.00  0.00    +0.000 N 
ATOM      8  C   UNL     1      15.736  -8.072  -2.991  0.00  0.00    +0.000 C 
ATOM      9  C   UNL     1      14.450  -6.494  -1.546  0.00  0.00    +0.000 A 
ATOM     10  C   UNL     1      15.382  -6.111  -0.578  0.00  0.00    +0.000 A 
ATOM     11  C   UNL     1      14.931  -5.203   0.371  0.00  0.00    +0.000 A 
ATOM     12  C   UNL     1      13.617  -4.731   0.326  0.00  0.00    +0.000 A 
ATOM     13  N   UNL     1      12.710  -5.113  -0.604  0.00  0.00    +0.000 NA
ATOM     14  C   UNL     1      13.158  -5.994  -1.537  0.00  0.00    +0.000 A 
BRANCH  12  15
ATOM     15  C   UNL     1      13.133  -3.739   1.304  0.00  0.00    +0.000 A 
ATOM     16  C   UNL     1      14.005  -2.787   1.865  0.00  0.00    +0.000 A 
ATOM     17  C   UNL     1      13.550  -1.840   2.780  0.00  0.00    +0.000 A 
ATOM     18  C   UNL     1      12.209  -1.823   3.150  0.00  0.00    +0.000 A 
ATOM     19  C   UNL     1      11.324  -2.752   2.608  0.00  0.00    +0.000 A 
ATOM     20  C   UNL     1      11.782  -3.699   1.690  0.00  0.00    +0.000 A 
ENDBRANCH  12  15
ENDBRANCH   2   5
BRANCH   1  21
ATOM     21  C   UNL     1       9.041  -4.968  -2.491  0.00  0.00    +0.000 C 
BRANCH  21  26
ATOM     22  C   UNL     1       8.811  -1.320  -3.554  0.00  0.00    +0.000 A 
ATOM     23  C   UNL     1       8.775  -1.405  -4.952  0.00  0.00    +0.000 A 
ATOM     24  C   UNL     1       8.721  -2.670  -5.549  0.00  0.00    +0.000 A 
ATOM     25  C   UNL     1       8.759  -3.832  -4.772  0.00  0.00    +0.000 A 
ATOM     26  C   UNL     1       8.883  -3.753  -3.373  0.00  0.00    +0.000 A 
ATOM     27  C   UNL     1       8.875  -2.486  -2.796  0.00  0.00    +0.000 A 
BRANCH  22  28
ATOM     28  O   UNL     1       8.841  -0.085  -2.942  0.00  0.00    +0.000 OA
BRANCH  28  29
ATOM     29  C   UNL     1       8.265  -0.056  -1.610  0.00  0.00    +0.000 C 
BRANCH  29  32
ATOM     30  C   UNL     1       7.569   3.640  -2.125  0.00  0.00    +0.000 C 
ATOM     31  N   UNL     1       7.966   2.276  -2.292  0.00  0.00    +0.000 N 
ATOM     32  C   UNL     1       7.766   1.353  -1.285  0.00  0.00    +0.000 C 
ATOM     33  O   UNL     1       7.226   1.629  -0.222  0.00  0.00    +0.000 OA
ATOM     34  H   UNL     1       8.409   1.964  -3.152  0.00  0.00    +0.000 HD
ENDBRANCH  29  32
ENDBRANCH  28  29
ENDBRANCH  22  28
ENDBRANCH  21  26
ENDBRANCH   1  21
TORSDOF 7
