REMARK  Name = 
REMARK  7 active torsions:
REMARK  status: ('A' for Active; 'I' for Inactive)
REMARK    1  A    between atoms: C_1  and  O_2
REMARK    2  A    between atoms: O_2  and  C_3
REMARK    3  A    between atoms: C_7  and  C_8
REMARK    4  A    between atoms: C_8  and  C_9
REMARK    5  A    between atoms: C_9  and  N_10
REMARK    6  A    between atoms: C_9  and  C_24
REMARK    7  A    between atoms: C_11  and  C_13
REMARK                            x       y       z     vdW  Elec       q    Type
REMARK                         _______ _______ _______ _____ _____    ______ ____
ROOT
ATOM      1  C   UNL     1       7.421  -0.838  -3.754  0.00  0.00    +0.000 C 
ENDROOT
BRANCH   1   2
ATOM      2  C   UNL     1       8.787  -1.516  -3.867  0.00  0.00    +0.000 A 
ATOM      3  C   UNL     1       9.000  -2.494  -4.856  0.00  0.00    +0.000 A 
ATOM      4  C   UNL     1      10.250  -3.103  -5.018  0.00  0.00    +0.000 A 
ATOM      5  C   UNL     1      11.317  -2.740  -4.201  0.00  0.00    +0.000 A 
ATOM      6  C   UNL     1      11.120  -1.790  -3.198  0.00  0.00    +0.000 A 
ATOM      7  C   UNL     1       9.863  -1.196  -3.021  0.00  0.00    +0.000 A 
ENDBRANCH   1   2
BRANCH   1   8
ATOM      8  N   UNL     1       7.499   0.592  -4.030  0.00  0.00    +0.000 N 
ATOM      9  C   UNL     1       7.924   1.553  -3.137  0.00  0.00    +0.000 C 
ATOM     10  O   UNL     1       8.110   1.405  -1.939  0.00  0.00    +0.000 OA
ATOM     11  H   UNL     1       7.606   0.863  -5.004  0.00  0.00    +0.000 HD
BRANCH   9  12
ATOM     12  C   UNL     1       8.453   2.801  -3.823  0.00  0.00    +0.000 A 
ATOM     13  N   UNL     1       8.759   2.638  -5.088  0.00  0.00    +0.000 NA
ATOM     14  C   UNL     1      10.121   2.890  -5.345  0.00  0.00    +0.000 A 
ATOM     15  C   UNL     1      10.713   2.155  -6.371  0.00  0.00    +0.000 A 
ATOM     16  C   UNL     1      12.099   2.027  -6.422  0.00  0.00    +0.000 A 
ATOM     17  C   UNL     1      12.899   2.694  -5.490  0.00  0.00    +0.000 A 
ATOM     18  C   UNL     1      12.325   3.523  -4.525  0.00  0.00    +0.000 A 
ATOM     19  C   UNL     1      10.940   3.587  -4.433  0.00  0.00    +0.000 A 
ATOM     20  N   UNL     1      10.332   4.253  -3.355  0.00  0.00    +0.000 N 
ATOM     21  C   UNL     1       9.024   3.955  -3.026  0.00  0.00    +0.000 A 
ATOM     22  O   UNL     1       8.389   4.546  -2.178  0.00  0.00    +0.000 OA
ATOM     23  H   UNL     1      10.846   4.879  -2.751  0.00  0.00    +0.000 HD
ENDBRANCH   9  12
ENDBRANCH   1   8
BRANCH   1  24
ATOM     24  C   UNL     1       6.650  -1.212  -2.470  0.00  0.00    +0.000 C 
BRANCH  24  29
ATOM     25  C   UNL     1       3.022  -0.311  -3.349  0.00  0.00    +0.000 A 
ATOM     26  C   UNL     1       2.689   0.527  -2.286  0.00  0.00    +0.000 A 
ATOM     27  C   UNL     1       3.628   0.788  -1.284  0.00  0.00    +0.000 A 
ATOM     28  C   UNL     1       4.901   0.221  -1.343  0.00  0.00    +0.000 A 
ATOM     29  C   UNL     1       5.255  -0.621  -2.403  0.00  0.00    +0.000 A 
ATOM     30  C   UNL     1       4.295  -0.891  -3.392  0.00  0.00    +0.000 A 
BRANCH  25  32
ATOM     31  C   UNL     1       0.949   0.016  -4.477  0.00  0.00    +0.000 C 
ATOM     32  O   UNL     1       2.205  -0.647  -4.396  0.00  0.00    +0.000 OA
ENDBRANCH  25  32
ENDBRANCH  24  29
ENDBRANCH   1  24
TORSDOF 6
