REMARK  Name = 
REMARK  3 active torsions:
REMARK  status: ('A' for Active; 'I' for Inactive)
REMARK    1  A    between atoms: C_1  and  C_2
REMARK    2  A    between atoms: C_6  and  C_8
REMARK    3  A    between atoms: N_10  and  C_11
REMARK                            x       y       z     vdW  Elec       q    Type
REMARK                         _______ _______ _______ _____ _____    ______ ____
ROOT
ATOM      1  C   UNL     1       1.127   0.041  -0.080  0.00  0.00    +0.000 C 
ATOM      2  C   UNL     1       2.612   0.030   0.142  0.00  0.00    +0.000 A 
ATOM      3  N   UNL     1       3.196  -1.174  -0.007  0.00  0.00    +0.000 NA
ATOM      4  C   UNL     1       4.517  -1.263   0.133  0.00  0.00    +0.000 A 
ATOM      5  N   UNL     1       5.133  -2.500  -0.026  0.00  0.00    +0.000 N 
ATOM      6  C   UNL     1       4.444  -3.693  -0.009  0.00  0.00    +0.000 C 
ATOM      7  O   UNL     1       3.273  -3.882   0.281  0.00  0.00    +0.000 OA
ATOM      8  N   UNL     1       5.314  -0.217   0.383  0.00  0.00    +0.000 NA
ATOM      9  C   UNL     1       4.726   0.984   0.565  0.00  0.00    +0.000 A 
ATOM     10  C   UNL     1       5.515   2.091   0.865  0.00  0.00    +0.000 A 
ATOM     11  C   UNL     1       4.971   3.370   1.059  0.00  0.00    +0.000 A 
ATOM     12  C   UNL     1       3.601   3.554   0.959  0.00  0.00    +0.000 A 
ATOM     13  C   UNL     1       2.799   2.462   0.665  0.00  0.00    +0.000 A 
ATOM     14  F   UNL     1       1.474   2.666   0.587  0.00  0.00    +0.000 F 
ATOM     15  C   UNL     1       3.343   1.173   0.459  0.00  0.00    +0.000 A 
ATOM     16  H   UNL     1       6.144  -2.495  -0.041  0.00  0.00    +0.000 HD
ENDROOT
BRANCH   6  17
ATOM     17  C   UNL     1       5.293  -4.914  -0.298  0.00  0.00    +0.000 A 
ATOM     18  N   UNL     1       6.529  -4.895   0.133  0.00  0.00    +0.000 NA
ATOM     19  N   UNL     1       7.301  -6.019  -0.074  0.00  0.00    +0.000 N 
ATOM     20  C   UNL     1       6.786  -7.178  -0.627  0.00  0.00    +0.000 A 
ATOM     21  C   UNL     1       5.547  -7.319  -1.093  0.00  0.00    +0.000 A 
ATOM     22  C   UNL     1       4.710  -6.119  -1.015  0.00  0.00    +0.000 A 
ATOM     23  O   UNL     1       3.606  -6.098  -1.532  0.00  0.00    +0.000 OA
BRANCH  19  24
ATOM     24  C   UNL     1       8.596  -5.989   0.536  0.00  0.00    +0.000 A 
ATOM     25  C   UNL     1       8.805  -5.258   1.720  0.00  0.00    +0.000 A 
ATOM     26  C   UNL     1      10.042  -5.267   2.373  0.00  0.00    +0.000 A 
ATOM     27  C   UNL     1      11.108  -5.991   1.842  0.00  0.00    +0.000 A 
ATOM     28  C   UNL     1      10.937  -6.700   0.657  0.00  0.00    +0.000 A 
ATOM     29  C   UNL     1       9.696  -6.696   0.018  0.00  0.00    +0.000 A 
ATOM     30  F   UNL     1       9.592  -7.380  -1.134  0.00  0.00    +0.000 F 
ENDBRANCH  19  24
ENDBRANCH   6  17
TORSDOF 2
