REMARK  Name = 
REMARK  7 active torsions:
REMARK  status: ('A' for Active; 'I' for Inactive)
REMARK    1  A    between atoms: C_5  and  O_6
REMARK    2  A    between atoms: O_6  and  C_7
REMARK    3  A    between atoms: C_11  and  C_12
REMARK    4  A    between atoms: C_12  and  N_13
REMARK    5  A    between atoms: N_13  and  C_14
REMARK    6  A    between atoms: C_14  and  C_15
REMARK    7  A    between atoms: N_17  and  C_18
REMARK                            x       y       z     vdW  Elec       q    Type
REMARK                         _______ _______ _______ _____ _____    ______ ____
ROOT
ATOM      1  C   UNL     1      -5.524   0.869   0.948  0.00  0.00    +0.000 A 
ATOM      2  C   UNL     1      -4.731  -0.273   0.961  0.00  0.00    +0.000 A 
ATOM      3  C   UNL     1      -4.784  -1.116  -0.131  0.00  0.00    +0.000 A 
ATOM      4  N   UNL     1      -5.612  -0.932  -1.183  0.00  0.00    +0.000 NA
ATOM      5  C   UNL     1      -6.441   0.139  -1.143  0.00  0.00    +0.000 A 
ATOM      6  C   UNL     1      -6.412   1.069  -0.107  0.00  0.00    +0.000 A 
ENDROOT
BRANCH   5   7
ATOM      7  C   UNL     1      -7.403   0.306  -2.305  0.00  0.00    +0.000 C 
BRANCH   7   8
ATOM      8  N   UNL     1      -6.860   1.200  -3.331  0.00  0.00    +0.000 NA
ATOM      9  H   UNL     1      -5.975   0.798  -3.654  0.00  0.00    +0.000 HD
BRANCH   8  10
ATOM     10  C   UNL     1      -7.762   1.272  -4.485  0.00  0.00    +0.000 C 
BRANCH  10  11
ATOM     11  C   UNL     1      -7.123   2.142  -5.511  0.00  0.00    +0.000 A 
ATOM     12  N   UNL     1      -6.284   1.647  -6.431  0.00  0.00    +0.000 NA
ATOM     13  N   UNL     1      -5.874   2.769  -7.088  0.00  0.00    +0.000 N 
ATOM     14  N   UNL     1      -6.451   3.935  -6.684  0.00  0.00    +0.000 NA
ATOM     15  C   UNL     1      -7.224   3.531  -5.675  0.00  0.00    +0.000 A 
BRANCH  13  16
ATOM     16  C   UNL     1      -4.893   2.722  -8.111  0.00  0.00    +0.000 A 
ATOM     17  C   UNL     1      -4.354   1.489  -8.509  0.00  0.00    +0.000 A 
ATOM     18  C   UNL     1      -3.378   1.444  -9.505  0.00  0.00    +0.000 A 
ATOM     19  C   UNL     1      -2.930   2.625 -10.101  0.00  0.00    +0.000 A 
ATOM     20  C   UNL     1      -3.463   3.853  -9.706  0.00  0.00    +0.000 A 
ATOM     21  C   UNL     1      -4.445   3.907  -8.715  0.00  0.00    +0.000 A 
ENDBRANCH  13  16
ENDBRANCH  10  11
ENDBRANCH   8  10
ENDBRANCH   7   8
ENDBRANCH   5   7
BRANCH   1  22
ATOM     22  O   UNL     1      -5.545   1.821   1.945  0.00  0.00    +0.000 OA
BRANCH  22  27
ATOM     23  F   UNL     1      -1.159   2.800   5.116  0.00  0.00    +0.000 F 
ATOM     24  C   UNL     1      -2.217   2.583   4.321  0.00  0.00    +0.000 A 
ATOM     25  C   UNL     1      -2.012   2.276   2.980  0.00  0.00    +0.000 A 
ATOM     26  C   UNL     1      -3.113   2.049   2.153  0.00  0.00    +0.000 A 
ATOM     27  C   UNL     1      -4.409   2.069   2.683  0.00  0.00    +0.000 A 
ATOM     28  C   UNL     1      -4.609   2.419   4.021  0.00  0.00    +0.000 A 
ATOM     29  C   UNL     1      -3.507   2.672   4.834  0.00  0.00    +0.000 A 
ATOM     30  F   UNL     1      -3.701   2.998   6.119  0.00  0.00    +0.000 F 
ENDBRANCH  22  27
ENDBRANCH   1  22
TORSDOF 7
