REMARK  Name = 
REMARK  6 active torsions:
REMARK  status: ('A' for Active; 'I' for Inactive)
REMARK    1  A    between atoms: C_2  and  C_19
REMARK    2  A    between atoms: N_3  and  C_4
REMARK    3  A    between atoms: C_4  and  C_5
REMARK    4  A    between atoms: C_8  and  O_9
REMARK    5  A    between atoms: O_9  and  C_10
REMARK    6  A    between atoms: N_23  and  C_24
REMARK                            x       y       z     vdW  Elec       q    Type
REMARK                         _______ _______ _______ _____ _____    ______ ____
ROOT
ATOM      1  O   UNL     1       1.211  -1.281  -0.355  0.00  0.00    +0.000 OA
ATOM      2  C   UNL     1       2.303  -0.749  -0.180  0.00  0.00    +0.000 C 
ATOM      3  N   UNL     1       2.946  -0.822   1.034  0.00  0.00    +0.000 N 
ATOM      4  H   UNL     1       3.777  -0.268   1.190  0.00  0.00    +0.000 HD
ENDROOT
BRANCH   2   5
ATOM      5  C   UNL     1       3.006  -0.012  -1.197  0.00  0.00    +0.000 A 
ATOM      6  C   UNL     1       4.373   0.114  -1.392  0.00  0.00    +0.000 A 
ATOM      7  C   UNL     1       4.513   0.742  -2.635  0.00  0.00    +0.000 A 
ATOM      8  N   UNL     1       3.339   1.009  -3.200  0.00  0.00    +0.000 NA
ATOM      9  N   UNL     1       2.411   0.639  -2.273  0.00  0.00    +0.000 N 
BRANCH   9  10
ATOM     10  C   UNL     1       1.055   0.999  -2.476  0.00  0.00    +0.000 A 
ATOM     11  C   UNL     1       0.167   1.214  -1.420  0.00  0.00    +0.000 A 
ATOM     12  C   UNL     1      -1.160   1.533  -1.696  0.00  0.00    +0.000 A 
ATOM     13  C   UNL     1      -1.550   1.637  -3.021  0.00  0.00    +0.000 A 
ATOM     14  N   UNL     1      -0.709   1.476  -4.065  0.00  0.00    +0.000 NA
ATOM     15  C   UNL     1       0.580   1.172  -3.771  0.00  0.00    +0.000 A 
ENDBRANCH   9  10
ENDBRANCH   2   5
BRANCH   3  16
ATOM     16  C   UNL     1       2.282  -1.399   2.175  0.00  0.00    +0.000 C 
BRANCH  16  17
ATOM     17  C   UNL     1       3.265  -1.972   3.145  0.00  0.00    +0.000 A 
ATOM     18  C   UNL     1       3.764  -1.245   4.229  0.00  0.00    +0.000 A 
ATOM     19  C   UNL     1       4.626  -1.863   5.134  0.00  0.00    +0.000 A 
ATOM     20  C   UNL     1       4.960  -3.190   4.913  0.00  0.00    +0.000 A 
ATOM     21  N   UNL     1       4.562  -3.890   3.826  0.00  0.00    +0.000 NA
ATOM     22  C   UNL     1       3.717  -3.276   2.978  0.00  0.00    +0.000 A 
BRANCH  20  23
ATOM     23  O   UNL     1       5.713  -3.830   5.890  0.00  0.00    +0.000 OA
BRANCH  23  24
ATOM     24  C   UNL     1       5.457  -5.175   6.079  0.00  0.00    +0.000 A 
ATOM     25  C   UNL     1       6.553  -6.001   6.339  0.00  0.00    +0.000 A 
ATOM     26  C   UNL     1       6.360  -7.375   6.503  0.00  0.00    +0.000 A 
ATOM     27  C   UNL     1       5.077  -7.907   6.415  0.00  0.00    +0.000 A 
ATOM     28  F   UNL     1       4.898  -9.228   6.540  0.00  0.00    +0.000 F 
ATOM     29  C   UNL     1       3.976  -7.088   6.199  0.00  0.00    +0.000 A 
ATOM     30  C   UNL     1       4.164  -5.715   6.055  0.00  0.00    +0.000 A 
ENDBRANCH  23  24
ENDBRANCH  20  23
ENDBRANCH  16  17
ENDBRANCH   3  16
TORSDOF 6
