REMARK  Name = 
REMARK  4 active torsions:
REMARK  status: ('A' for Active; 'I' for Inactive)
REMARK    1  A    between atoms: C_7  and  S_8
REMARK    2  A    between atoms: S_8  and  N_11
REMARK    3  A    between atoms: N_11  and  C_12
REMARK    4  A    between atoms: C_17  and  C_18
REMARK                            x       y       z     vdW  Elec       q    Type
REMARK                         _______ _______ _______ _____ _____    ______ ____
ROOT
ATOM      1  S   UNL     1      -5.317  -1.531  -1.184  0.00  0.00    +0.000 S 
ATOM      2  O   UNL     1      -6.056  -2.737  -0.877  0.00  0.00    +0.000 OA
ATOM      3  O   UNL     1      -3.870  -1.519  -1.232  0.00  0.00    +0.000 OA
ENDROOT
BRANCH   1  10
ATOM      4  O   UNL     1      -6.950   2.247  -8.010  0.00  0.00    +0.000 OA
ATOM      5  C   UNL     1      -6.639   1.755  -6.937  0.00  0.00    +0.000 A 
ATOM      6  C   UNL     1      -5.654   2.473  -6.041  0.00  0.00    +0.000 A 
ATOM      7  N   UNL     1      -5.255   2.024  -4.890  0.00  0.00    +0.000 NA
ATOM      8  C   UNL     1      -5.777   0.790  -4.461  0.00  0.00    +0.000 A 
ATOM      9  C   UNL     1      -5.348   0.279  -3.239  0.00  0.00    +0.000 A 
ATOM     10  C   UNL     1      -5.882  -0.922  -2.758  0.00  0.00    +0.000 A 
ATOM     11  C   UNL     1      -6.821  -1.639  -3.505  0.00  0.00    +0.000 A 
ATOM     12  C   UNL     1      -7.236  -1.145  -4.746  0.00  0.00    +0.000 A 
ATOM     13  C   UNL     1      -6.718   0.064  -5.214  0.00  0.00    +0.000 A 
ATOM     14  N   UNL     1      -7.129   0.569  -6.452  0.00  0.00    +0.000 N 
ATOM     15  H   UNL     1      -7.789   0.069  -7.033  0.00  0.00    +0.000 HD
ENDBRANCH   1  10
BRANCH   1  16
ATOM     16  N   UNL     1      -5.777  -0.313  -0.099  0.00  0.00    +0.000 N 
ATOM     17  H   UNL     1      -5.125   0.470  -0.097  0.00  0.00    +0.000 HD
BRANCH  16  18
ATOM     18  C   UNL     1      -7.161  -0.032   0.048  0.00  0.00    +0.000 A 
ATOM     19  C   UNL     1      -7.750   0.989  -0.687  0.00  0.00    +0.000 A 
ATOM     20  C   UNL     1      -9.126   1.175  -0.606  0.00  0.00    +0.000 A 
ATOM     21  C   UNL     1      -9.899   0.345   0.210  0.00  0.00    +0.000 A 
ATOM     22  F   UNL     1     -11.224   0.558   0.206  0.00  0.00    +0.000 F 
ATOM     23  C   UNL     1      -9.335  -0.685   0.985  0.00  0.00    +0.000 A 
ATOM     24  C   UNL     1      -7.938  -0.846   0.880  0.00  0.00    +0.000 A 
BRANCH  23  25
ATOM     25  C   UNL     1     -10.145  -1.576   1.858  0.00  0.00    +0.000 A 
ATOM     26  C   UNL     1      -9.750  -2.904   2.117  0.00  0.00    +0.000 A 
ATOM     27  C   UNL     1     -10.492  -3.746   2.952  0.00  0.00    +0.000 A 
ATOM     28  C   UNL     1     -11.665  -3.288   3.539  0.00  0.00    +0.000 A 
ATOM     29  C   UNL     1     -12.091  -1.987   3.294  0.00  0.00    +0.000 A 
ATOM     30  C   UNL     1     -11.335  -1.142   2.472  0.00  0.00    +0.000 A 
ENDBRANCH  23  25
ENDBRANCH  16  18
ENDBRANCH   1  16
TORSDOF 4
