REMARK  Name = 
REMARK  7 active torsions:
REMARK  status: ('A' for Active; 'I' for Inactive)
REMARK    1  A    between atoms: C_2  and  C_3
REMARK    2  A    between atoms: C_5  and  C_6
REMARK    3  A    between atoms: C_6  and  C_7
REMARK    4  A    between atoms: C_7  and  N_8
REMARK    5  A    between atoms: C_9  and  C_11
REMARK    6  A    between atoms: C_18  and  C_19
REMARK    7  A    between atoms: C_19  and  C_21
REMARK                            x       y       z     vdW  Elec       q    Type
REMARK                         _______ _______ _______ _____ _____    ______ ____
ROOT
ATOM      1  C   UNL     1      -6.464  -5.027   0.084  0.00  0.00    +0.000 A 
ATOM      2  C   UNL     1      -6.096  -6.131   0.889  0.00  0.00    +0.000 A 
ATOM      3  C   UNL     1      -6.756  -7.347   0.777  0.00  0.00    +0.000 A 
ATOM      4  F   UNL     1      -6.397  -8.367   1.569  0.00  0.00    +0.000 F 
ATOM      5  C   UNL     1      -7.800  -7.490  -0.116  0.00  0.00    +0.000 A 
ATOM      6  F   UNL     1      -8.460  -8.652  -0.207  0.00  0.00    +0.000 F 
ATOM      7  C   UNL     1      -8.188  -6.423  -0.918  0.00  0.00    +0.000 A 
ATOM      8  C   UNL     1      -7.515  -5.182  -0.858  0.00  0.00    +0.000 A 
ENDROOT
BRANCH   1  10
ATOM      9  N   UNL     1      -4.472  -3.820   0.871  0.00  0.00    +0.000 N 
ATOM     10  C   UNL     1      -5.766  -3.734   0.390  0.00  0.00    +0.000 C 
ATOM     11  O   UNL     1      -6.324  -2.652   0.314  0.00  0.00    +0.000 OA
ATOM     12  H   UNL     1      -3.916  -4.662   0.749  0.00  0.00    +0.000 HD
BRANCH   9  13
ATOM     13  C   UNL     1      -3.724  -2.615   1.194  0.00  0.00    +0.000 C 
BRANCH  13  14
ATOM     14  C   UNL     1      -2.742  -2.788   2.357  0.00  0.00    +0.000 C 
BRANCH  14  17
ATOM     15  C   UNL     1      -0.969  -5.770   1.094  0.00  0.00    +0.000 A 
ATOM     16  N   UNL     1      -1.946  -4.864   1.330  0.00  0.00    +0.000 NA
ATOM     17  C   UNL     1      -1.635  -3.778   2.080  0.00  0.00    +0.000 A 
ATOM     18  C   UNL     1      -0.371  -3.603   2.639  0.00  0.00    +0.000 A 
ATOM     19  C   UNL     1       0.615  -4.556   2.389  0.00  0.00    +0.000 A 
ATOM     20  C   UNL     1       0.316  -5.660   1.599  0.00  0.00    +0.000 A 
BRANCH  15  22
ATOM     21  N   UNL     1      -1.661  -7.770  -0.407  0.00  0.00    +0.000 NA
ATOM     22  C   UNL     1      -1.350  -6.874   0.267  0.00  0.00    +0.000 C 
ENDBRANCH  15  22
ENDBRANCH  14  17
ENDBRANCH  13  14
ENDBRANCH   9  13
ENDBRANCH   1  10
BRANCH   8  23
ATOM     23  C   UNL     1      -8.024  -4.106  -1.775  0.00  0.00    +0.000 C 
ATOM     24  O   UNL     1      -8.066  -2.934  -1.427  0.00  0.00    +0.000 OA
BRANCH  23  25
ATOM     25  C   UNL     1      -8.597  -4.397  -3.122  0.00  0.00    +0.000 A 
ATOM     26  C   UNL     1      -8.177  -5.470  -3.915  0.00  0.00    +0.000 A 
ATOM     27  C   UNL     1      -8.721  -5.652  -5.188  0.00  0.00    +0.000 A 
ATOM     28  C   UNL     1      -9.670  -4.756  -5.684  0.00  0.00    +0.000 A 
ATOM     29  C   UNL     1     -10.098  -3.689  -4.899  0.00  0.00    +0.000 A 
ATOM     30  C   UNL     1      -9.569  -3.512  -3.622  0.00  0.00    +0.000 A 
ENDBRANCH  23  25
ENDBRANCH   8  23
TORSDOF 7
