REMARK  Name = 
REMARK  4 active torsions:
REMARK  status: ('A' for Active; 'I' for Inactive)
REMARK    1  A    between atoms: C_2  and  C_17
REMARK    2  A    between atoms: N_3  and  C_4
REMARK    3  A    between atoms: C_4  and  C_5
REMARK    4  A    between atoms: C_8  and  C_9
REMARK                            x       y       z     vdW  Elec       q    Type
REMARK                         _______ _______ _______ _____ _____    ______ ____
ROOT
ATOM      1  O   UNL     1       1.183   0.676  -0.033  0.00  0.00    +0.000 OA
ATOM      2  C   UNL     1       2.397   0.523   0.030  0.00  0.00    +0.000 C 
ATOM      3  N   UNL     1       3.075   0.386   1.212  0.00  0.00    +0.000 N 
ATOM      4  H   UNL     1       4.084   0.479   1.243  0.00  0.00    +0.000 HD
ENDROOT
BRANCH   2   5
ATOM      5  C   UNL     1       3.271   0.461  -1.193  0.00  0.00    +0.000 A 
ATOM      6  C   UNL     1       2.745   0.966  -2.318  0.00  0.00    +0.000 A 
ATOM      7  C   UNL     1       3.520   0.853  -3.573  0.00  0.00    +0.000 A 
ATOM      8  O   UNL     1       3.120   1.376  -4.606  0.00  0.00    +0.000 OA
ATOM      9  C   UNL     1       4.767   0.055  -3.544  0.00  0.00    +0.000 A 
ATOM     10  C   UNL     1       5.460  -0.214  -4.727  0.00  0.00    +0.000 A 
ATOM     11  C   UNL     1       6.612  -0.990  -4.670  0.00  0.00    +0.000 A 
ATOM     12  F   UNL     1       7.274  -1.267  -5.800  0.00  0.00    +0.000 F 
ATOM     13  C   UNL     1       7.088  -1.485  -3.462  0.00  0.00    +0.000 A 
ATOM     14  C   UNL     1       6.390  -1.202  -2.293  0.00  0.00    +0.000 A 
ATOM     15  F   UNL     1       6.851  -1.677  -1.126  0.00  0.00    +0.000 F 
ATOM     16  C   UNL     1       5.208  -0.454  -2.312  0.00  0.00    +0.000 A 
ATOM     17  N   UNL     1       4.518  -0.138  -1.126  0.00  0.00    +0.000 N 
ATOM     18  H   UNL     1       4.681  -0.765  -0.341  0.00  0.00    +0.000 HD
ENDBRANCH   2   5
BRANCH   3  19
ATOM     19  C   UNL     1       2.358   0.459   2.470  0.00  0.00    +0.000 C 
BRANCH  19  20
ATOM     20  C   UNL     1       3.295   0.279   3.611  0.00  0.00    +0.000 A 
ATOM     21  N   UNL     1       2.876   0.288   4.883  0.00  0.00    +0.000 NA
ATOM     22  O   UNL     1       4.053   0.107   5.607  0.00  0.00    +0.000 OA
ATOM     23  C   UNL     1       5.069   0.008   4.696  0.00  0.00    +0.000 A 
ATOM     24  N   UNL     1       4.655   0.110   3.450  0.00  0.00    +0.000 NA
BRANCH  23  25
ATOM     25  C   UNL     1       6.414  -0.182   5.227  0.00  0.00    +0.000 A 
ATOM     26  C   UNL     1       6.662  -0.242   6.610  0.00  0.00    +0.000 A 
ATOM     27  C   UNL     1       7.961  -0.413   7.095  0.00  0.00    +0.000 A 
ATOM     28  C   UNL     1       9.018  -0.527   6.201  0.00  0.00    +0.000 A 
ATOM     29  F   UNL     1      10.262  -0.686   6.667  0.00  0.00    +0.000 F 
ATOM     30  C   UNL     1       8.800  -0.475   4.829  0.00  0.00    +0.000 A 
ATOM     31  C   UNL     1       7.501  -0.303   4.343  0.00  0.00    +0.000 A 
ENDBRANCH  23  25
ENDBRANCH  19  20
ENDBRANCH   3  19
TORSDOF 4
