REMARK  Name = 
REMARK  8 active torsions:
REMARK  status: ('A' for Active; 'I' for Inactive)
REMARK    1  A    between atoms: C_1  and  O_2
REMARK    2  A    between atoms: O_2  and  C_3
REMARK    3  A    between atoms: C_8  and  C_9
REMARK    4  A    between atoms: C_9  and  N_10
REMARK    5  A    between atoms: C_9  and  C_25
REMARK    6  A    between atoms: C_11  and  C_13
REMARK    7  A    between atoms: C_14  and  C_15
REMARK    8  A    between atoms: N_21  and  C_22
REMARK                            x       y       z     vdW  Elec       q    Type
REMARK                         _______ _______ _______ _____ _____    ______ ____
ROOT
ATOM      1  N   UNL     1       5.944   0.452   1.618  0.00  0.00    +0.000 N 
ATOM      2  C   UNL     1       7.075  -0.104   2.176  0.00  0.00    +0.000 C 
ATOM      3  O   UNL     1       7.021  -0.979   3.035  0.00  0.00    +0.000 OA
ATOM      4  H   UNL     1       6.019   1.069   0.825  0.00  0.00    +0.000 HD
ENDROOT
BRANCH   2   5
ATOM      5  C   UNL     1       8.331   0.468   1.713  0.00  0.00    +0.000 A 
ATOM      6  C   UNL     1       9.512   0.629   2.446  0.00  0.00    +0.000 A 
ATOM      7  N   UNL     1      10.418   1.151   1.541  0.00  0.00    +0.000 N 
ATOM      8  C   UNL     1      11.808   1.511   1.710  0.00  0.00    +0.000 C 
ATOM      9  N   UNL     1       9.886   1.385   0.318  0.00  0.00    +0.000 NA
ATOM     10  C   UNL     1       8.638   0.942   0.423  0.00  0.00    +0.000 A 
BRANCH   6  11
ATOM     11  C   UNL     1       9.804   0.313   3.850  0.00  0.00    +0.000 A 
ATOM     12  C   UNL     1       8.852   0.429   4.861  0.00  0.00    +0.000 A 
ATOM     13  C   UNL     1       9.167  -0.011   6.145  0.00  0.00    +0.000 A 
ATOM     14  C   UNL     1      10.437  -0.506   6.399  0.00  0.00    +0.000 A 
ATOM     15  C   UNL     1      11.341  -0.539   5.352  0.00  0.00    +0.000 A 
ATOM     16  N   UNL     1      11.051  -0.151   4.090  0.00  0.00    +0.000 NA
ENDBRANCH   6  11
ENDBRANCH   2   5
BRANCH   1  17
ATOM     17  C   UNL     1       4.627  -0.057   1.933  0.00  0.00    +0.000 C 
BRANCH  17  18
ATOM     18  C   UNL     1       3.601   1.073   1.999  0.00  0.00    +0.000 A 
ATOM     19  C   UNL     1       3.069   1.449   3.247  0.00  0.00    +0.000 A 
ATOM     20  C   UNL     1       2.074   2.423   3.340  0.00  0.00    +0.000 A 
ATOM     21  C   UNL     1       1.603   3.048   2.188  0.00  0.00    +0.000 A 
ATOM     22  C   UNL     1       2.143   2.713   0.948  0.00  0.00    +0.000 A 
ATOM     23  C   UNL     1       3.139   1.736   0.852  0.00  0.00    +0.000 A 
ENDBRANCH  17  18
BRANCH  17  29
ATOM     24  C   UNL     1       4.540  -1.460  -0.267  0.00  0.00    +0.000 A 
ATOM     25  C   UNL     1       4.010  -2.566  -0.951  0.00  0.00    +0.000 A 
ATOM     26  C   UNL     1       3.096  -3.426  -0.337  0.00  0.00    +0.000 A 
ATOM     27  C   UNL     1       2.708  -3.203   0.976  0.00  0.00    +0.000 A 
ATOM     28  C   UNL     1       3.236  -2.119   1.671  0.00  0.00    +0.000 A 
ATOM     29  C   UNL     1       4.162  -1.232   1.071  0.00  0.00    +0.000 A 
BRANCH  24  31
ATOM     30  C   UNL     1       5.562  -0.621  -2.251  0.00  0.00    +0.000 C 
ATOM     31  O   UNL     1       5.430  -0.581  -0.833  0.00  0.00    +0.000 OA
ENDBRANCH  24  31
ENDBRANCH  17  29
ENDBRANCH   1  17
TORSDOF 6
