REMARK  Name = 
REMARK  6 active torsions:
REMARK  status: ('A' for Active; 'I' for Inactive)
REMARK    1  A    between atoms: C_2  and  C_20
REMARK    2  A    between atoms: N_3  and  C_4
REMARK    3  A    between atoms: C_4  and  C_5
REMARK    4  A    between atoms: C_4  and  C_14
REMARK    5  A    between atoms: C_5  and  C_7
REMARK    6  A    between atoms: C_7  and  C_8
REMARK                            x       y       z     vdW  Elec       q    Type
REMARK                         _______ _______ _______ _____ _____    ______ ____
ROOT
ATOM      1  O   UNL     1       2.063  -0.816  -2.028  0.00  0.00    +0.000 OA
ATOM      2  C   UNL     1       2.856  -0.514  -1.142  0.00  0.00    +0.000 C 
ATOM      3  N   UNL     1       3.219   0.791  -0.886  0.00  0.00    +0.000 N 
ATOM      4  H   UNL     1       3.759   0.962  -0.041  0.00  0.00    +0.000 HD
ENDROOT
BRANCH   2   5
ATOM      5  C   UNL     1       3.468  -1.576  -0.281  0.00  0.00    +0.000 A 
ATOM      6  C   UNL     1       3.091  -2.893  -0.489  0.00  0.00    +0.000 A 
ATOM      7  C   UNL     1       3.637  -3.864   0.346  0.00  0.00    +0.000 A 
ATOM      8  C   UNL     1       4.536  -3.530   1.357  0.00  0.00    +0.000 A 
ATOM      9  C   UNL     1       4.861  -2.182   1.468  0.00  0.00    +0.000 A 
ATOM     10  N   UNL     1       4.351  -1.189   0.682  0.00  0.00    +0.000 NA
ATOM     11  N   UNL     1       5.080  -4.490   2.233  0.00  0.00    +0.000 NA
ATOM     12  C   UNL     1       4.702  -5.716   2.081  0.00  0.00    +0.000 A 
ATOM     13  N   UNL     1       3.826  -6.132   1.120  0.00  0.00    +0.000 N 
ATOM     14  C   UNL     1       3.267  -5.279   0.203  0.00  0.00    +0.000 A 
ATOM     15  O   UNL     1       2.513  -5.669  -0.679  0.00  0.00    +0.000 OA
ATOM     16  H   UNL     1       3.570  -7.106   1.034  0.00  0.00    +0.000 HD
ENDBRANCH   2   5
BRANCH   3  17
ATOM     17  C   UNL     1       2.502   1.911  -1.496  0.00  0.00    +0.000 C 
BRANCH  17  18
ATOM     18  C   UNL     1       3.424   2.752  -2.377  0.00  0.00    +0.000 A 
ATOM     19  C   UNL     1       4.051   2.139  -3.477  0.00  0.00    +0.000 A 
ATOM     20  C   UNL     1       4.772   2.889  -4.409  0.00  0.00    +0.000 A 
ATOM     21  C   UNL     1       4.862   4.272  -4.274  0.00  0.00    +0.000 A 
ATOM     22  C   UNL     1       4.279   4.895  -3.177  0.00  0.00    +0.000 A 
ATOM     23  C   UNL     1       3.598   4.139  -2.220  0.00  0.00    +0.000 A 
ENDBRANCH  17  18
BRANCH  17  24
ATOM     24  C   UNL     1       1.749   2.682  -0.396  0.00  0.00    +0.000 C 
ATOM     25  O   UNL     1       1.967   2.494   0.807  0.00  0.00    +0.000 OA
BRANCH  24  26
ATOM     26  C   UNL     1       0.732   3.718  -0.847  0.00  0.00    +0.000 C 
BRANCH  26  27
ATOM     27  C   UNL     1      -0.706   3.276  -0.868  0.00  0.00    +0.000 A 
ATOM     28  C   UNL     1      -1.326   2.779   0.281  0.00  0.00    +0.000 A 
ATOM     29  C   UNL     1      -2.696   2.506   0.279  0.00  0.00    +0.000 A 
ATOM     30  C   UNL     1      -3.453   2.732  -0.870  0.00  0.00    +0.000 A 
ATOM     31  C   UNL     1      -2.841   3.212  -2.024  0.00  0.00    +0.000 A 
ATOM     32  C   UNL     1      -1.474   3.483  -2.025  0.00  0.00    +0.000 A 
ENDBRANCH  26  27
ENDBRANCH  24  26
ENDBRANCH  17  24
ENDBRANCH   3  17
TORSDOF 6
