REMARK  Name = 
REMARK  6 active torsions:
REMARK  status: ('A' for Active; 'I' for Inactive)
REMARK    1  A    between atoms: C_2  and  C_3
REMARK    2  A    between atoms: C_3  and  C_4
REMARK    3  A    between atoms: N_13  and  C_14
REMARK    4  A    between atoms: C_14  and  C_15
REMARK    5  A    between atoms: C_17  and  O_18
REMARK    6  A    between atoms: O_18  and  C_19
REMARK                            x       y       z     vdW  Elec       q    Type
REMARK                         _______ _______ _______ _____ _____    ______ ____
ROOT
ATOM      1  C   UNL     1       4.510  -1.051  -0.671  0.00  0.00    +0.000 C 
ENDROOT
BRANCH   1   2
ATOM      2  C   UNL     1       4.995  -2.213  -1.505  0.00  0.00    +0.000 A 
ATOM      3  C   UNL     1       5.112  -3.474  -0.928  0.00  0.00    +0.000 A 
ATOM      4  C   UNL     1       5.671  -4.505  -1.679  0.00  0.00    +0.000 A 
ATOM      5  C   UNL     1       5.992  -4.282  -3.012  0.00  0.00    +0.000 A 
ATOM      6  C   UNL     1       5.791  -3.013  -3.525  0.00  0.00    +0.000 A 
ATOM      7  N   UNL     1       5.313  -1.973  -2.803  0.00  0.00    +0.000 NA
BRANCH   4   8
ATOM      8  O   UNL     1       5.897  -5.775  -1.195  0.00  0.00    +0.000 OA
BRANCH   8   9
ATOM      9  C   UNL     1       6.249  -5.942   0.127  0.00  0.00    +0.000 A 
ATOM     10  C   UNL     1       7.052  -5.041   0.843  0.00  0.00    +0.000 A 
ATOM     11  C   UNL     1       7.330  -5.267   2.192  0.00  0.00    +0.000 A 
ATOM     12  C   UNL     1       6.853  -6.419   2.803  0.00  0.00    +0.000 A 
ATOM     13  F   UNL     1       7.128  -6.636   4.097  0.00  0.00    +0.000 F 
ATOM     14  C   UNL     1       6.108  -7.344   2.080  0.00  0.00    +0.000 A 
ATOM     15  F   UNL     1       5.672  -8.465   2.671  0.00  0.00    +0.000 F 
ATOM     16  C   UNL     1       5.805  -7.114   0.741  0.00  0.00    +0.000 A 
ENDBRANCH   8   9
ENDBRANCH   4   8
ENDBRANCH   1   2
BRANCH   1  19
ATOM     17  O   UNL     1       2.698  -2.291   1.097  0.00  0.00    +0.000 OA
ATOM     18  C   UNL     1       2.262  -1.568   0.206  0.00  0.00    +0.000 C 
ATOM     19  N   UNL     1       3.070  -0.909  -0.693  0.00  0.00    +0.000 N 
ATOM     20  H   UNL     1       2.662  -0.539  -1.541  0.00  0.00    +0.000 HD
BRANCH  18  21
ATOM     21  C   UNL     1       0.776  -1.308   0.017  0.00  0.00    +0.000 C 
BRANCH  21  22
ATOM     22  C   UNL     1       0.087  -2.303  -0.888  0.00  0.00    +0.000 A 
ATOM     23  C   UNL     1       0.075  -3.674  -0.564  0.00  0.00    +0.000 A 
ATOM     24  C   UNL     1      -0.584  -4.621  -1.361  0.00  0.00    +0.000 A 
ATOM     25  C   UNL     1      -1.229  -4.119  -2.483  0.00  0.00    +0.000 A 
ATOM     26  O   UNL     1      -1.942  -4.817  -3.415  0.00  0.00    +0.000 OA
ATOM     27  C   UNL     1      -2.360  -3.853  -4.284  0.00  0.00    +0.000 A 
ATOM     28  N   UNL     1      -1.985  -2.625  -3.997  0.00  0.00    +0.000 NA
ATOM     29  C   UNL     1      -1.257  -2.782  -2.844  0.00  0.00    +0.000 A 
ATOM     30  C   UNL     1      -0.592  -1.847  -2.038  0.00  0.00    +0.000 A 
ENDBRANCH  21  22
ENDBRANCH  18  21
ENDBRANCH   1  19
TORSDOF 6
