REMARK  Name = 
REMARK  4 active torsions:
REMARK  status: ('A' for Active; 'I' for Inactive)
REMARK    1  A    between atoms: C_2  and  C_17
REMARK    2  A    between atoms: N_3  and  C_4
REMARK    3  A    between atoms: N_8  and  C_9
REMARK    4  A    between atoms: C_25  and  C_26
REMARK                            x       y       z     vdW  Elec       q    Type
REMARK                         _______ _______ _______ _____ _____    ______ ____
ROOT
ATOM      1  O   UNL     1       1.319  -0.899   0.556  0.00  0.00    +0.000 OA
ATOM      2  C   UNL     1       1.935  -0.225  -0.259  0.00  0.00    +0.000 C 
ATOM      3  N   UNL     1       1.979   1.159  -0.297  0.00  0.00    +0.000 N 
ATOM      4  H   UNL     1       2.656   1.585  -0.921  0.00  0.00    +0.000 HD
ENDROOT
BRANCH   2   5
ATOM      5  C   UNL     1       2.903  -0.801  -1.165  0.00  0.00    +0.000 A 
ATOM      6  C   UNL     1       3.896  -1.678  -0.780  0.00  0.00    +0.000 A 
ATOM      7  C   UNL     1       4.180  -2.433   0.392  0.00  0.00    +0.000 A 
ATOM      8  C   UNL     1       5.460  -2.546   0.789  0.00  0.00    +0.000 A 
ATOM      9  C   UNL     1       6.539  -1.939   0.022  0.00  0.00    +0.000 A 
ATOM     10  C   UNL     1       6.270  -1.456  -1.204  0.00  0.00    +0.000 A 
ATOM     11  N   UNL     1       4.948  -1.393  -1.648  0.00  0.00    +0.000 N 
ATOM     12  N   UNL     1       4.470  -0.889  -2.815  0.00  0.00    +0.000 NA
ATOM     13  C   UNL     1       3.216  -0.484  -2.518  0.00  0.00    +0.000 A 
BRANCH  13  14
ATOM     14  C   UNL     1       2.376   0.301  -3.490  0.00  0.00    +0.000 C 
ATOM     15  F   UNL     1       1.246   0.786  -2.908  0.00  0.00    +0.000 F 
ATOM     16  F   UNL     1       3.041   1.389  -3.962  0.00  0.00    +0.000 F 
ATOM     17  F   UNL     1       1.977  -0.430  -4.559  0.00  0.00    +0.000 F 
ENDBRANCH  13  14
ENDBRANCH   2   5
BRANCH   3  18
ATOM     18  C   UNL     1       1.341   2.037   0.554  0.00  0.00    +0.000 A 
ATOM     19  C   UNL     1       0.408   1.737   1.448  0.00  0.00    +0.000 A 
ATOM     20  C   UNL     1      -0.194   2.756   2.334  0.00  0.00    +0.000 A 
ATOM     21  O   UNL     1      -1.034   2.344   3.128  0.00  0.00    +0.000 OA
ATOM     22  N   UNL     1       0.268   4.066   2.169  0.00  0.00    +0.000 N 
ATOM     23  N   UNL     1       1.249   4.405   1.245  0.00  0.00    +0.000 NA
ATOM     24  C   UNL     1       1.726   3.458   0.505  0.00  0.00    +0.000 A 
BRANCH  22  25
ATOM     25  C   UNL     1      -0.269   5.211   2.866  0.00  0.00    +0.000 A 
ATOM     26  C   UNL     1      -1.336   5.118   3.772  0.00  0.00    +0.000 A 
ATOM     27  C   UNL     1      -1.911   6.258   4.345  0.00  0.00    +0.000 A 
ATOM     28  C   UNL     1      -1.419   7.522   4.039  0.00  0.00    +0.000 A 
ATOM     29  C   UNL     1      -0.328   7.642   3.186  0.00  0.00    +0.000 A 
ATOM     30  C   UNL     1       0.243   6.501   2.615  0.00  0.00    +0.000 A 
ENDBRANCH  22  25
ENDBRANCH   3  18
TORSDOF 4
