REMARK  Name = 
REMARK  6 active torsions:
REMARK  status: ('A' for Active; 'I' for Inactive)
REMARK    1  A    between atoms: C_1  and  O_2
REMARK    2  A    between atoms: O_2  and  C_3
REMARK    3  A    between atoms: C_8  and  C_9
REMARK    4  A    between atoms: N_11  and  C_12
REMARK    5  A    between atoms: C_12  and  C_13
REMARK    6  A    between atoms: C_16  and  C_17
REMARK                            x       y       z     vdW  Elec       q    Type
REMARK                         _______ _______ _______ _____ _____    ______ ____
ROOT
ATOM      1  C   UNL     1       6.720   6.463   0.942  0.00  0.00    +0.000 C 
ATOM      2  O   UNL     1       6.393   6.983   2.004  0.00  0.00    +0.000 OA
ATOM      3  N   UNL     1       7.733   6.951   0.146  0.00  0.00    +0.000 N 
ATOM      4  H   UNL     1       7.865   6.514  -0.761  0.00  0.00    +0.000 HD
ENDROOT
BRANCH   1  10
ATOM      5  C   UNL     1       4.640   1.310  -2.324  0.00  0.00    +0.000 A 
ATOM      6  C   UNL     1       4.204   1.836  -1.107  0.00  0.00    +0.000 A 
ATOM      7  C   UNL     1       4.797   2.993  -0.566  0.00  0.00    +0.000 A 
ATOM      8  C   UNL     1       4.382   3.529   0.661  0.00  0.00    +0.000 A 
ATOM      9  C   UNL     1       5.003   4.666   1.166  0.00  0.00    +0.000 A 
ATOM     10  C   UNL     1       6.023   5.239   0.420  0.00  0.00    +0.000 A 
ATOM     11  N   UNL     1       6.453   4.751  -0.776  0.00  0.00    +0.000 NA
ATOM     12  C   UNL     1       5.847   3.647  -1.251  0.00  0.00    +0.000 A 
ATOM     13  C   UNL     1       6.259   3.116  -2.461  0.00  0.00    +0.000 A 
ATOM     14  C   UNL     1       5.671   1.968  -2.992  0.00  0.00    +0.000 A 
ATOM     15  F   UNL     1       6.139   1.525  -4.168  0.00  0.00    +0.000 F 
BRANCH   5  17
ATOM     16  C   UNL     1       4.437  -0.444  -3.920  0.00  0.00    +0.000 C 
ATOM     17  O   UNL     1       3.984   0.177  -2.722  0.00  0.00    +0.000 OA
ENDBRANCH   5  17
ENDBRANCH   1  10
BRANCH   3  18
ATOM     18  C   UNL     1       8.457   8.166   0.468  0.00  0.00    +0.000 C 
BRANCH  18  19
ATOM     19  C   UNL     1       7.785   9.402  -0.074  0.00  0.00    +0.000 A 
ATOM     20  C   UNL     1       6.818  10.073   0.667  0.00  0.00    +0.000 A 
ATOM     21  N   UNL     1       6.123  11.139   0.190  0.00  0.00    +0.000 NA
ATOM     22  C   UNL     1       6.401  11.522  -1.083  0.00  0.00    +0.000 A 
ATOM     23  C   UNL     1       7.408  10.874  -1.799  0.00  0.00    +0.000 A 
ATOM     24  N   UNL     1       8.111   9.812  -1.326  0.00  0.00    +0.000 NA
BRANCH  22  25
ATOM     25  C   UNL     1       5.530  12.567  -1.663  0.00  0.00    +0.000 A 
ATOM     26  C   UNL     1       4.925  13.546  -0.853  0.00  0.00    +0.000 A 
ATOM     27  C   UNL     1       4.039  14.490  -1.387  0.00  0.00    +0.000 A 
ATOM     28  C   UNL     1       3.738  14.476  -2.745  0.00  0.00    +0.000 A 
ATOM     29  C   UNL     1       4.330  13.527  -3.572  0.00  0.00    +0.000 A 
ATOM     30  C   UNL     1       5.215  12.586  -3.036  0.00  0.00    +0.000 A 
ENDBRANCH  22  25
ENDBRANCH  18  19
ENDBRANCH   3  18
TORSDOF 5
