REMARK  Name = 
REMARK  6 active torsions:
REMARK  status: ('A' for Active; 'I' for Inactive)
REMARK    1  A    between atoms: C_2  and  C_19
REMARK    2  A    between atoms: N_3  and  C_4
REMARK    3  A    between atoms: C_9  and  C_10
REMARK    4  A    between atoms: C_10  and  O_11
REMARK    5  A    between atoms: O_11  and  C_12
REMARK    6  A    between atoms: C_12  and  C_13
REMARK                            x       y       z     vdW  Elec       q    Type
REMARK                         _______ _______ _______ _____ _____    ______ ____
ROOT
ATOM      1  O   UNL     1       1.069  -1.017   0.170  0.00  0.00    +0.000 OA
ATOM      2  C   UNL     1       2.181  -0.493   0.123  0.00  0.00    +0.000 C 
ATOM      3  N   UNL     1       2.778   0.248   1.129  0.00  0.00    +0.000 N 
ATOM      4  H   UNL     1       3.615   0.759   0.865  0.00  0.00    +0.000 HD
ENDROOT
BRANCH   2   5
ATOM      5  C   UNL     1       2.993  -0.601  -1.145  0.00  0.00    +0.000 A 
ATOM      6  C   UNL     1       2.360  -1.206  -2.157  0.00  0.00    +0.000 A 
ATOM      7  C   UNL     1       3.074  -1.387  -3.421  0.00  0.00    +0.000 A 
ATOM      8  O   UNL     1       2.479  -1.898  -4.370  0.00  0.00    +0.000 OA
ATOM      9  N   UNL     1       4.388  -0.948  -3.430  0.00  0.00    +0.000 N 
ATOM     10  C   UNL     1       5.137  -1.100  -4.592  0.00  0.00    +0.000 A 
ATOM     11  C   UNL     1       6.401  -0.671  -4.674  0.00  0.00    +0.000 A 
ATOM     12  C   UNL     1       7.026  -0.050  -3.538  0.00  0.00    +0.000 A 
ATOM     13  C   UNL     1       6.340   0.119  -2.395  0.00  0.00    +0.000 A 
ATOM     14  C   UNL     1       4.926  -0.336  -2.300  0.00  0.00    +0.000 A 
ATOM     15  N   UNL     1       4.282  -0.139  -1.188  0.00  0.00    +0.000 NA
ENDBRANCH   2   5
BRANCH   3  16
ATOM     16  C   UNL     1       2.242   0.453   2.425  0.00  0.00    +0.000 A 
ATOM     17  C   UNL     1       1.178  -0.332   2.896  0.00  0.00    +0.000 A 
ATOM     18  C   UNL     1       0.617  -0.133   4.157  0.00  0.00    +0.000 A 
ATOM     19  C   UNL     1       1.138   0.837   4.995  0.00  0.00    +0.000 A 
ATOM     20  C   UNL     1       2.199   1.623   4.559  0.00  0.00    +0.000 A 
ATOM     21  C   UNL     1       2.750   1.463   3.268  0.00  0.00    +0.000 A 
BRANCH  21  22
ATOM     22  C   UNL     1       3.772   2.494   2.840  0.00  0.00    +0.000 C 
BRANCH  22  23
ATOM     23  O   UNL     1       3.382   3.200   1.659  0.00  0.00    +0.000 OA
BRANCH  23  24
ATOM     24  C   UNL     1       2.167   3.938   1.840  0.00  0.00    +0.000 C 
BRANCH  24  25
ATOM     25  C   UNL     1       1.818   4.670   0.571  0.00  0.00    +0.000 A 
ATOM     26  C   UNL     1       1.644   3.968  -0.631  0.00  0.00    +0.000 A 
ATOM     27  C   UNL     1       1.303   4.643  -1.803  0.00  0.00    +0.000 A 
ATOM     28  C   UNL     1       1.123   6.025  -1.786  0.00  0.00    +0.000 A 
ATOM     29  C   UNL     1       1.261   6.728  -0.592  0.00  0.00    +0.000 A 
ATOM     30  C   UNL     1       1.606   6.056   0.582  0.00  0.00    +0.000 A 
ENDBRANCH  24  25
ENDBRANCH  23  24
ENDBRANCH  22  23
ENDBRANCH  21  22
ENDBRANCH   3  16
TORSDOF 6
