REMARK  Name = 
REMARK  4 active torsions:
REMARK  status: ('A' for Active; 'I' for Inactive)
REMARK    1  A    between atoms: C_2  and  C_17
REMARK    2  A    between atoms: N_3  and  C_4
REMARK    3  A    between atoms: N_8  and  C_9
REMARK    4  A    between atoms: C_18  and  C_19
REMARK                            x       y       z     vdW  Elec       q    Type
REMARK                         _______ _______ _______ _____ _____    ______ ____
ROOT
ATOM      1  O   UNL     1       1.002  -0.418   0.246  0.00  0.00    +0.000 OA
ATOM      2  C   UNL     1       2.203  -0.208   0.099  0.00  0.00    +0.000 C 
ATOM      3  N   UNL     1       2.867   0.876   0.666  0.00  0.00    +0.000 N 
ATOM      4  H   UNL     1       3.793   1.076   0.299  0.00  0.00    +0.000 HD
ENDROOT
BRANCH   3   5
ATOM      5  C   UNL     1       2.262   1.828   1.466  0.00  0.00    +0.000 A 
ATOM      6  C   UNL     1       1.156   1.587   2.180  0.00  0.00    +0.000 A 
ATOM      7  C   UNL     1       0.433   2.654   2.910  0.00  0.00    +0.000 A 
ATOM      8  O   UNL     1      -0.607   2.307   3.469  0.00  0.00    +0.000 OA
ATOM      9  N   UNL     1       0.978   3.955   2.829  0.00  0.00    +0.000 N 
ATOM     10  C   UNL     1       2.182   4.146   2.142  0.00  0.00    +0.000 A 
ATOM     11  C   UNL     1       2.829   3.153   1.511  0.00  0.00    +0.000 A 
BRANCH   9  12
ATOM     12  C   UNL     1       0.265   5.067   3.436  0.00  0.00    +0.000 A 
ATOM     13  C   UNL     1      -0.655   4.881   4.484  0.00  0.00    +0.000 A 
ATOM     14  C   UNL     1      -1.371   5.947   5.038  0.00  0.00    +0.000 A 
ATOM     15  C   UNL     1      -1.174   7.238   4.569  0.00  0.00    +0.000 A 
ATOM     16  C   UNL     1      -0.260   7.457   3.545  0.00  0.00    +0.000 A 
ATOM     17  C   UNL     1       0.450   6.386   2.985  0.00  0.00    +0.000 A 
ENDBRANCH   9  12
ENDBRANCH   3   5
BRANCH   2  18
ATOM     18  C   UNL     1       2.996  -1.028  -0.778  0.00  0.00    +0.000 A 
ATOM     19  C   UNL     1       2.700  -1.634  -1.984  0.00  0.00    +0.000 A 
ATOM     20  N   UNL     1       3.722  -2.489  -2.334  0.00  0.00    +0.000 NA
ATOM     21  C   UNL     1       4.593  -2.341  -1.361  0.00  0.00    +0.000 A 
ATOM     22  O   UNL     1       4.250  -1.437  -0.400  0.00  0.00    +0.000 OA
BRANCH  19  23
ATOM     23  C   UNL     1       1.500  -1.428  -2.778  0.00  0.00    +0.000 A 
ATOM     24  C   UNL     1       0.910  -0.158  -2.889  0.00  0.00    +0.000 A 
ATOM     25  C   UNL     1      -0.271   0.023  -3.612  0.00  0.00    +0.000 A 
ATOM     26  C   UNL     1      -0.864  -1.061  -4.252  0.00  0.00    +0.000 A 
ATOM     27  C   UNL     1      -0.272  -2.321  -4.178  0.00  0.00    +0.000 A 
ATOM     28  C   UNL     1       0.908  -2.504  -3.449  0.00  0.00    +0.000 A 
ENDBRANCH  19  23
ENDBRANCH   2  18
TORSDOF 4
