REMARK  Name = 
REMARK  6 active torsions:
REMARK  status: ('A' for Active; 'I' for Inactive)
REMARK    1  A    between atoms: C_2  and  C_15
REMARK    2  A    between atoms: N_3  and  C_4
REMARK    3  A    between atoms: C_4  and  C_5
REMARK    4  A    between atoms: C_10  and  O_11
REMARK    5  A    between atoms: O_11  and  C_12
REMARK    6  A    between atoms: C_18  and  N_19
REMARK                            x       y       z     vdW  Elec       q    Type
REMARK                         _______ _______ _______ _____ _____    ______ ____
ROOT
ATOM      1  O   UNL     1       1.264   0.618  -0.567  0.00  0.00    +0.000 OA
ATOM      2  C   UNL     1       2.456   0.445  -0.333  0.00  0.00    +0.000 C 
ATOM      3  N   UNL     1       3.228  -0.292  -1.202  0.00  0.00    +0.000 N 
ATOM      4  H   UNL     1       2.758  -0.479  -2.079  0.00  0.00    +0.000 HD
ENDROOT
BRANCH   2   5
ATOM      5  C   UNL     1       3.042   0.926   0.943  0.00  0.00    +0.000 A 
ATOM      6  C   UNL     1       2.316   0.656   2.099  0.00  0.00    +0.000 A 
ATOM      7  C   UNL     1       2.931   0.810   3.332  0.00  0.00    +0.000 A 
ATOM      8  C   UNL     1       4.267   1.236   3.409  0.00  0.00    +0.000 A 
ATOM      9  C   UNL     1       4.954   1.648   2.272  0.00  0.00    +0.000 A 
ATOM     10  C   UNL     1       4.317   1.516   1.033  0.00  0.00    +0.000 A 
BRANCH   8  11
ATOM     11  N   UNL     1       4.855   1.232   4.687  0.00  0.00    +0.000 N 
ATOM     12  C   UNL     1       4.642   0.229   5.614  0.00  0.00    +0.000 A 
ATOM     13  N   UNL     1       4.689   0.676   6.845  0.00  0.00    +0.000 NA
ATOM     14  C   UNL     1       5.021   2.000   6.707  0.00  0.00    +0.000 A 
ATOM     15  C   UNL     1       5.045   2.996   7.690  0.00  0.00    +0.000 A 
ATOM     16  C   UNL     1       5.436   4.289   7.325  0.00  0.00    +0.000 A 
ATOM     17  C   UNL     1       5.829   4.574   6.017  0.00  0.00    +0.000 A 
ATOM     18  C   UNL     1       5.776   3.604   5.007  0.00  0.00    +0.000 A 
ATOM     19  C   UNL     1       5.311   2.327   5.387  0.00  0.00    +0.000 A 
ENDBRANCH   8  11
ENDBRANCH   2   5
BRANCH   3  20
ATOM     20  C   UNL     1       4.648  -0.569  -1.091  0.00  0.00    +0.000 C 
BRANCH  20  21
ATOM     21  C   UNL     1       5.165  -1.825  -1.723  0.00  0.00    +0.000 A 
ATOM     22  C   UNL     1       4.296  -2.757  -2.311  0.00  0.00    +0.000 A 
ATOM     23  C   UNL     1       4.780  -3.965  -2.791  0.00  0.00    +0.000 A 
ATOM     24  C   UNL     1       6.132  -4.205  -2.688  0.00  0.00    +0.000 A 
ATOM     25  N   UNL     1       7.006  -3.340  -2.134  0.00  0.00    +0.000 NA
ATOM     26  C   UNL     1       6.527  -2.170  -1.653  0.00  0.00    +0.000 A 
BRANCH  26  27
ATOM     27  O   UNL     1       7.465  -1.547  -0.889  0.00  0.00    +0.000 OA
BRANCH  27  28
ATOM     28  C   UNL     1       7.708  -0.169  -1.072  0.00  0.00    +0.000 C 
ATOM     29  F   UNL     1       7.194   0.297  -2.233  0.00  0.00    +0.000 F 
ATOM     30  F   UNL     1       7.094   0.496  -0.059  0.00  0.00    +0.000 F 
ENDBRANCH  27  28
ENDBRANCH  26  27
ENDBRANCH  20  21
ENDBRANCH   3  20
TORSDOF 6
