REMARK  Name = 
REMARK  6 active torsions:
REMARK  status: ('A' for Active; 'I' for Inactive)
REMARK    1  A    between atoms: C_2  and  C_3
REMARK    2  A    between atoms: C_6  and  C_7
REMARK    3  A    between atoms: N_9  and  C_10
REMARK    4  A    between atoms: C_10  and  C_11
REMARK    5  A    between atoms: C_13  and  O_14
REMARK    6  A    between atoms: O_14  and  C_15
REMARK                            x       y       z     vdW  Elec       q    Type
REMARK                         _______ _______ _______ _____ _____    ______ ____
ROOT
ATOM      1  C   UNL     1       7.588  -3.644   1.261  0.00  0.00    +0.000 C 
ATOM      2  O   UNL     1       7.610  -4.159   2.374  0.00  0.00    +0.000 OA
ATOM      3  N   UNL     1       7.503  -4.408   0.120  0.00  0.00    +0.000 N 
ATOM      4  H   UNL     1       7.592  -3.989  -0.794  0.00  0.00    +0.000 HD
ENDROOT
BRANCH   1   8
ATOM      5  C   UNL     1       7.837  -0.203   4.168  0.00  0.00    +0.000 A 
ATOM      6  C   UNL     1       7.759  -1.324   3.422  0.00  0.00    +0.000 A 
ATOM      7  N   UNL     1       7.718  -1.230   2.023  0.00  0.00    +0.000 N 
ATOM      8  C   UNL     1       7.643  -2.215   1.042  0.00  0.00    +0.000 A 
ATOM      9  C   UNL     1       7.626  -1.498  -0.145  0.00  0.00    +0.000 A 
ATOM     10  N   UNL     1       7.691  -0.150   0.057  0.00  0.00    +0.000 NA
ATOM     11  C   UNL     1       7.748  -0.004   1.360  0.00  0.00    +0.000 A 
ATOM     12  C   UNL     1       7.833   1.179   2.146  0.00  0.00    +0.000 A 
ATOM     13  C   UNL     1       7.878   1.089   3.488  0.00  0.00    +0.000 A 
BRANCH   5  15
ATOM     14  N   UNL     1       7.915  -0.279   6.752  0.00  0.00    +0.000 NA
ATOM     15  C   UNL     1       7.880  -0.253   5.590  0.00  0.00    +0.000 C 
ENDBRANCH   5  15
ENDBRANCH   1   8
BRANCH   3  16
ATOM     16  C   UNL     1       7.467  -5.855   0.147  0.00  0.00    +0.000 C 
BRANCH  16  17
ATOM     17  C   UNL     1       8.845  -6.476   0.083  0.00  0.00    +0.000 A 
ATOM     18  C   UNL     1       9.514  -6.785   1.260  0.00  0.00    +0.000 A 
ATOM     19  C   UNL     1      10.720  -7.483   1.190  0.00  0.00    +0.000 A 
ATOM     20  C   UNL     1      11.287  -7.736  -0.052  0.00  0.00    +0.000 A 
ATOM     21  C   UNL     1      10.582  -7.343  -1.177  0.00  0.00    +0.000 A 
ATOM     22  N   UNL     1       9.373  -6.736  -1.140  0.00  0.00    +0.000 NA
BRANCH  19  23
ATOM     23  O   UNL     1      11.415  -7.939   2.292  0.00  0.00    +0.000 OA
BRANCH  23  24
ATOM     24  C   UNL     1      10.704  -8.290   3.422  0.00  0.00    +0.000 A 
ATOM     25  C   UNL     1       9.461  -8.927   3.379  0.00  0.00    +0.000 A 
ATOM     26  C   UNL     1       8.752  -9.116   4.557  0.00  0.00    +0.000 A 
ATOM     27  F   UNL     1       7.512  -9.620   4.500  0.00  0.00    +0.000 F 
ATOM     28  C   UNL     1       9.296  -8.765   5.786  0.00  0.00    +0.000 A 
ATOM     29  C   UNL     1      10.582  -8.228   5.839  0.00  0.00    +0.000 A 
ATOM     30  C   UNL     1      11.286  -7.987   4.656  0.00  0.00    +0.000 A 
ENDBRANCH  23  24
ENDBRANCH  19  23
ENDBRANCH  16  17
ENDBRANCH   3  16
TORSDOF 6
