REMARK  Name = 
REMARK  4 active torsions:
REMARK  status: ('A' for Active; 'I' for Inactive)
REMARK    1  A    between atoms: C_2  and  C_17
REMARK    2  A    between atoms: N_3  and  C_4
REMARK    3  A    between atoms: C_6  and  C_7
REMARK    4  A    between atoms: C_20  and  N_21
REMARK                            x       y       z     vdW  Elec       q    Type
REMARK                         _______ _______ _______ _____ _____    ______ ____
ROOT
ATOM      1  O   UNL     1       1.053  -0.119   0.315  0.00  0.00    +0.000 OA
ATOM      2  C   UNL     1       2.254  -0.118   0.061  0.00  0.00    +0.000 C 
ATOM      3  N   UNL     1       2.863   0.533  -0.992  0.00  0.00    +0.000 N 
ATOM      4  H   UNL     1       3.811   0.264  -1.255  0.00  0.00    +0.000 HD
ENDROOT
BRANCH   3   5
ATOM      5  C   UNL     1       2.229   1.348  -1.909  0.00  0.00    +0.000 A 
ATOM      6  C   UNL     1       1.033   1.935  -1.735  0.00  0.00    +0.000 A 
ATOM      7  C   UNL     1       0.414   2.756  -2.759  0.00  0.00    +0.000 A 
ATOM      8  C   UNL     1       1.053   2.922  -3.930  0.00  0.00    +0.000 A 
ATOM      9  N   UNL     1       2.282   2.347  -4.146  0.00  0.00    +0.000 N 
ATOM     10  C   UNL     1       2.947   1.585  -3.211  0.00  0.00    +0.000 A 
ATOM     11  O   UNL     1       4.057   1.099  -3.417  0.00  0.00    +0.000 OA
ATOM     12  H   UNL     1       2.756   2.480  -5.031  0.00  0.00    +0.000 HD
BRANCH   7  13
ATOM     13  C   UNL     1      -0.885   3.411  -2.547  0.00  0.00    +0.000 A 
ATOM     14  C   UNL     1      -2.072   2.772  -2.902  0.00  0.00    +0.000 A 
ATOM     15  C   UNL     1      -3.267   3.422  -2.642  0.00  0.00    +0.000 A 
ATOM     16  N   UNL     1      -3.349   4.639  -2.061  0.00  0.00    +0.000 NA
ATOM     17  C   UNL     1      -2.185   5.228  -1.714  0.00  0.00    +0.000 A 
ATOM     18  C   UNL     1      -0.942   4.662  -1.931  0.00  0.00    +0.000 A 
ENDBRANCH   7  13
ENDBRANCH   3   5
BRANCH   2  19
ATOM     19  C   UNL     1       3.134  -0.951   0.904  0.00  0.00    +0.000 A 
ATOM     20  C   UNL     1       2.689  -2.229   1.261  0.00  0.00    +0.000 A 
ATOM     21  C   UNL     1       3.466  -3.041   2.086  0.00  0.00    +0.000 A 
ATOM     22  C   UNL     1       4.681  -2.560   2.590  0.00  0.00    +0.000 A 
ATOM     23  C   UNL     1       5.100  -1.266   2.251  0.00  0.00    +0.000 A 
ATOM     24  F   UNL     1       6.265  -0.772   2.692  0.00  0.00    +0.000 F 
ATOM     25  C   UNL     1       4.345  -0.465   1.397  0.00  0.00    +0.000 A 
BRANCH  22  26
ATOM     26  N   UNL     1       5.472  -3.385   3.425  0.00  0.00    +0.000 N 
ATOM     27  C   UNL     1       5.468  -4.763   3.457  0.00  0.00    +0.000 A 
ATOM     28  C   UNL     1       6.422  -5.122   4.380  0.00  0.00    +0.000 A 
ATOM     29  N   UNL     1       6.982  -4.016   4.952  0.00  0.00    +0.000 NA
ATOM     30  C   UNL     1       6.398  -2.994   4.366  0.00  0.00    +0.000 A 
ENDBRANCH  22  26
ENDBRANCH   2  19
TORSDOF 4
