REMARK  Name = 
REMARK  8 active torsions:
REMARK  status: ('A' for Active; 'I' for Inactive)
REMARK    1  A    between atoms: C_1  and  O_2
REMARK    2  A    between atoms: O_2  and  C_3
REMARK    3  A    between atoms: C_6  and  C_7
REMARK    4  A    between atoms: C_9  and  N_10
REMARK    5  A    between atoms: C_12  and  C_13
REMARK    6  A    between atoms: N_15  and  C_16
REMARK    7  A    between atoms: C_16  and  C_17
REMARK    8  A    between atoms: C_21  and  C_22
REMARK                            x       y       z     vdW  Elec       q    Type
REMARK                         _______ _______ _______ _____ _____    ______ ____
ROOT
ATOM      1  C   UNL     1       2.667   0.507   4.773  0.00  0.00    +0.000 C 
ATOM      2  O   UNL     1       2.994   0.714   5.938  0.00  0.00    +0.000 OA
ATOM      3  N   UNL     1       1.365   0.544   4.337  0.00  0.00    +0.000 N 
ATOM      4  H   UNL     1       1.161   0.544   3.349  0.00  0.00    +0.000 HD
ENDROOT
BRANCH   1   7
ATOM      5  N   UNL     1       4.432  -0.867   1.713  0.00  0.00    +0.000 N 
ATOM      6  C   UNL     1       3.447  -0.516   2.638  0.00  0.00    +0.000 A 
ATOM      7  C   UNL     1       3.711   0.221   3.730  0.00  0.00    +0.000 A 
ATOM      8  C   UNL     1       5.072   0.667   3.949  0.00  0.00    +0.000 A 
ATOM      9  C   UNL     1       6.053   0.336   3.101  0.00  0.00    +0.000 A 
ATOM     10  C   UNL     1       5.775  -0.506   1.903  0.00  0.00    +0.000 A 
ATOM     11  O   UNL     1       6.720  -0.791   1.170  0.00  0.00    +0.000 OA
BRANCH   5  18
ATOM     12  C   UNL     1       3.049  -1.197  -0.317  0.00  0.00    +0.000 A 
ATOM     13  C   UNL     1       2.706  -1.986  -1.419  0.00  0.00    +0.000 A 
ATOM     14  C   UNL     1       3.343  -3.211  -1.640  0.00  0.00    +0.000 A 
ATOM     15  C   UNL     1       4.351  -3.654  -0.780  0.00  0.00    +0.000 A 
ATOM     16  C   UNL     1       4.998  -4.992  -0.981  0.00  0.00    +0.000 C 
ATOM     17  C   UNL     1       4.732  -2.845   0.296  0.00  0.00    +0.000 A 
ATOM     18  C   UNL     1       4.080  -1.625   0.546  0.00  0.00    +0.000 A 
BRANCH  12  20
ATOM     19  C   UNL     1       1.233   0.310  -0.646  0.00  0.00    +0.000 C 
ATOM     20  O   UNL     1       2.498   0.035  -0.061  0.00  0.00    +0.000 OA
ENDBRANCH  12  20
ENDBRANCH   5  18
ENDBRANCH   1   7
BRANCH   3  21
ATOM     21  C   UNL     1       0.272   0.835   5.237  0.00  0.00    +0.000 C 
BRANCH  21  22
ATOM     22  C   UNL     1      -0.106   2.293   5.207  0.00  0.00    +0.000 A 
ATOM     23  C   UNL     1       0.519   3.193   6.078  0.00  0.00    +0.000 A 
ATOM     24  C   UNL     1       0.140   4.530   6.096  0.00  0.00    +0.000 A 
ATOM     25  C   UNL     1      -0.851   4.987   5.226  0.00  0.00    +0.000 A 
ATOM     26  C   UNL     1      -1.472   4.128   4.299  0.00  0.00    +0.000 A 
ATOM     27  C   UNL     1      -1.084   2.773   4.316  0.00  0.00    +0.000 A 
BRANCH  26  28
ATOM     28  C   UNL     1      -2.505   4.625   3.362  0.00  0.00    +0.000 A 
ATOM     29  C   UNL     1      -2.505   5.934   2.873  0.00  0.00    +0.000 A 
ATOM     30  C   UNL     1      -3.538   6.360   2.042  0.00  0.00    +0.000 A 
ATOM     31  C   UNL     1      -4.547   5.468   1.706  0.00  0.00    +0.000 A 
ATOM     32  C   UNL     1      -4.467   4.181   2.206  0.00  0.00    +0.000 A 
ATOM     33  N   UNL     1      -3.475   3.740   3.013  0.00  0.00    +0.000 NA
ENDBRANCH  26  28
ENDBRANCH  21  22
ENDBRANCH   3  21
TORSDOF 6
