REMARK  Name = 
REMARK  4 active torsions:
REMARK  status: ('A' for Active; 'I' for Inactive)
REMARK    1  A    between atoms: C_2  and  C_17
REMARK    2  A    between atoms: N_3  and  C_4
REMARK    3  A    between atoms: N_8  and  C_9
REMARK    4  A    between atoms: C_19  and  C_20
REMARK                            x       y       z     vdW  Elec       q    Type
REMARK                         _______ _______ _______ _____ _____    ______ ____
ROOT
ATOM      1  O   UNL     1       1.052   0.194   0.293  0.00  0.00    +0.000 OA
ATOM      2  C   UNL     1       2.261   0.098   0.114  0.00  0.00    +0.000 C 
ATOM      3  N   UNL     1       2.895  -0.874  -0.650  0.00  0.00    +0.000 N 
ATOM      4  H   UNL     1       3.908  -0.908  -0.625  0.00  0.00    +0.000 HD
ENDROOT
BRANCH   3   5
ATOM      5  C   UNL     1       2.246  -1.858  -1.378  0.00  0.00    +0.000 A 
ATOM      6  C   UNL     1       0.926  -1.982  -1.512  0.00  0.00    +0.000 A 
ATOM      7  C   UNL     1       0.299  -3.060  -2.286  0.00  0.00    +0.000 A 
ATOM      8  O   UNL     1      -0.932  -3.083  -2.277  0.00  0.00    +0.000 OA
ATOM      9  N   UNL     1       1.168  -3.962  -2.909  0.00  0.00    +0.000 N 
ATOM     10  N   UNL     1       2.547  -3.885  -2.783  0.00  0.00    +0.000 NA
ATOM     11  C   UNL     1       3.025  -2.900  -2.089  0.00  0.00    +0.000 A 
BRANCH   9  12
ATOM     12  C   UNL     1       0.673  -5.087  -3.650  0.00  0.00    +0.000 A 
ATOM     13  C   UNL     1      -0.613  -5.080  -4.212  0.00  0.00    +0.000 A 
ATOM     14  C   UNL     1      -1.159  -6.218  -4.810  0.00  0.00    +0.000 A 
ATOM     15  C   UNL     1      -0.410  -7.388  -4.872  0.00  0.00    +0.000 A 
ATOM     16  C   UNL     1       0.893  -7.401  -4.380  0.00  0.00    +0.000 A 
ATOM     17  C   UNL     1       1.439  -6.252  -3.789  0.00  0.00    +0.000 A 
ENDBRANCH   9  12
ENDBRANCH   3   5
BRANCH   2  18
ATOM     18  C   UNL     1       3.113   1.096   0.796  0.00  0.00    +0.000 A 
ATOM     19  C   UNL     1       2.652   1.599   2.028  0.00  0.00    +0.000 A 
ATOM     20  C   UNL     1       3.332   2.621   2.710  0.00  0.00    +0.000 A 
ATOM     21  C   UNL     1       4.504   3.113   2.110  0.00  0.00    +0.000 A 
ATOM     22  C   UNL     1       4.953   2.614   0.888  0.00  0.00    +0.000 A 
ATOM     23  F   UNL     1       6.058   3.130   0.335  0.00  0.00    +0.000 F 
ATOM     24  C   UNL     1       4.270   1.609   0.218  0.00  0.00    +0.000 A 
BRANCH  20  25
ATOM     25  C   UNL     1       2.849   3.164   3.997  0.00  0.00    +0.000 A 
ATOM     26  C   UNL     1       1.500   3.190   4.362  0.00  0.00    +0.000 A 
ATOM     27  C   UNL     1       1.136   3.719   5.599  0.00  0.00    +0.000 A 
ATOM     28  C   UNL     1       2.119   4.210   6.445  0.00  0.00    +0.000 A 
ATOM     29  C   UNL     1       3.431   4.151   6.015  0.00  0.00    +0.000 A 
ATOM     30  N   UNL     1       3.813   3.646   4.822  0.00  0.00    +0.000 NA
ENDBRANCH  20  25
ENDBRANCH   2  18
TORSDOF 4
