REMARK  Name = 
REMARK  7 active torsions:
REMARK  status: ('A' for Active; 'I' for Inactive)
REMARK    1  A    between atoms: C_1  and  O_2
REMARK    2  A    between atoms: O_2  and  C_3
REMARK    3  A    between atoms: C_8  and  C_9
REMARK    4  A    between atoms: C_13  and  C_14
REMARK    5  A    between atoms: N_16  and  C_17
REMARK    6  A    between atoms: C_17  and  C_18
REMARK    7  A    between atoms: C_21  and  C_22
REMARK                            x       y       z     vdW  Elec       q    Type
REMARK                         _______ _______ _______ _____ _____    ______ ____
ROOT
ATOM      1  C   UNL     1       6.981   1.209   0.200  0.00  0.00    +0.000 C 
ATOM      2  O   UNL     1       7.955   1.933   0.044  0.00  0.00    +0.000 OA
ATOM      3  N   UNL     1       6.873  -0.083  -0.280  0.00  0.00    +0.000 N 
ATOM      4  H   UNL     1       6.068  -0.612   0.021  0.00  0.00    +0.000 HD
ENDROOT
BRANCH   1   9
ATOM      5  C   UNL     1       5.178   2.970   0.923  0.00  0.00    +0.000 A 
ATOM      6  C   UNL     1       4.095   2.874   1.782  0.00  0.00    +0.000 A 
ATOM      7  N   UNL     1       4.079   1.634   2.353  0.00  0.00    +0.000 N 
ATOM      8  C   UNL     1       5.086   0.881   1.825  0.00  0.00    +0.000 A 
ATOM      9  C   UNL     1       5.798   1.665   0.925  0.00  0.00    +0.000 A 
ATOM     10  H   UNL     1       3.420   1.329   3.058  0.00  0.00    +0.000 HD
BRANCH   5  16
ATOM     11  C   UNL     1       5.213   5.500   0.648  0.00  0.00    +0.000 A 
ATOM     12  C   UNL     1       5.418   6.619  -0.178  0.00  0.00    +0.000 A 
ATOM     13  C   UNL     1       5.925   6.471  -1.469  0.00  0.00    +0.000 A 
ATOM     14  C   UNL     1       6.225   5.204  -1.950  0.00  0.00    +0.000 A 
ATOM     15  C   UNL     1       5.983   4.079  -1.156  0.00  0.00    +0.000 A 
ATOM     16  C   UNL     1       5.467   4.197   0.149  0.00  0.00    +0.000 A 
BRANCH  11  18
ATOM     17  C   UNL     1       4.647   6.906   2.509  0.00  0.00    +0.000 C 
ATOM     18  O   UNL     1       4.775   5.609   1.946  0.00  0.00    +0.000 OA
ENDBRANCH  11  18
ENDBRANCH   5  16
ENDBRANCH   1   9
BRANCH   3  19
ATOM     19  C   UNL     1       7.950  -0.828  -0.899  0.00  0.00    +0.000 C 
BRANCH  19  20
ATOM     20  C   UNL     1       8.701  -0.079  -1.967  0.00  0.00    +0.000 A 
ATOM     21  C   UNL     1       9.886   0.595  -1.632  0.00  0.00    +0.000 A 
ATOM     22  C   UNL     1      10.550   1.381  -2.570  0.00  0.00    +0.000 A 
ATOM     23  C   UNL     1      10.056   1.478  -3.873  0.00  0.00    +0.000 A 
ATOM     24  C   UNL     1       8.883   0.796  -4.221  0.00  0.00    +0.000 A 
ATOM     25  C   UNL     1       8.204   0.028  -3.271  0.00  0.00    +0.000 A 
BRANCH  23  26
ATOM     26  C   UNL     1      10.754   2.306  -4.863  0.00  0.00    +0.000 A 
ATOM     27  C   UNL     1      11.751   1.744  -5.569  0.00  0.00    +0.000 A 
ATOM     28  N   UNL     1      12.429   2.462  -6.514  0.00  0.00    +0.000 N 
ATOM     29  C   UNL     1      12.167   3.782  -6.821  0.00  0.00    +0.000 A 
ATOM     30  O   UNL     1      12.781   4.408  -7.676  0.00  0.00    +0.000 OA
ATOM     31  C   UNL     1      11.074   4.416  -6.037  0.00  0.00    +0.000 A 
ATOM     32  C   UNL     1      10.418   3.698  -5.112  0.00  0.00    +0.000 A 
ATOM     33  H   UNL     1      13.181   2.038  -7.046  0.00  0.00    +0.000 HD
ENDBRANCH  23  26
ENDBRANCH  19  20
ENDBRANCH   3  19
TORSDOF 6
