REMARK  Name = 
REMARK  9 active torsions:
REMARK  status: ('A' for Active; 'I' for Inactive)
REMARK    1  A    between atoms: C_1  and  O_2
REMARK    2  A    between atoms: O_2  and  C_3
REMARK    3  A    between atoms: C_7  and  C_8
REMARK    4  A    between atoms: C_8  and  C_10
REMARK    5  A    between atoms: C_13  and  C_14
REMARK    6  A    between atoms: C_14  and  O_16
REMARK    7  A    between atoms: O_16  and  C_17
REMARK    8  A    between atoms: C_17  and  C_18
REMARK    9  A    between atoms: N_27  and  C_28
REMARK                            x       y       z     vdW  Elec       q    Type
REMARK                         _______ _______ _______ _____ _____    ______ ____
ROOT
ATOM      1  C   UNL     1       7.127   3.076  -2.882  0.00  0.00    +0.000 A 
ATOM      2  C   UNL     1       7.456   3.995  -1.875  0.00  0.00    +0.000 A 
ATOM      3  C   UNL     1       8.239   5.121  -2.169  0.00  0.00    +0.000 A 
ATOM      4  C   UNL     1       8.700   5.330  -3.475  0.00  0.00    +0.000 A 
ATOM      5  C   UNL     1       8.366   4.417  -4.482  0.00  0.00    +0.000 A 
ATOM      6  C   UNL     1       7.562   3.312  -4.193  0.00  0.00    +0.000 A 
ENDROOT
BRANCH   1   7
ATOM      7  C   UNL     1       6.302   1.879  -2.538  0.00  0.00    +0.000 C 
ATOM      8  O   UNL     1       5.520   1.935  -1.595  0.00  0.00    +0.000 OA
BRANCH   7  13
ATOM      9  C   UNL     1       5.330  -1.289  -4.370  0.00  0.00    +0.000 A 
ATOM     10  C   UNL     1       6.554  -1.663  -4.931  0.00  0.00    +0.000 A 
ATOM     11  C   UNL     1       7.708  -0.925  -4.665  0.00  0.00    +0.000 A 
ATOM     12  C   UNL     1       7.642   0.202  -3.849  0.00  0.00    +0.000 A 
ATOM     13  C   UNL     1       6.412   0.621  -3.330  0.00  0.00    +0.000 A 
ATOM     14  C   UNL     1       5.264  -0.147  -3.563  0.00  0.00    +0.000 A 
BRANCH   9  16
ATOM     15  C   UNL     1       4.170  -3.102  -5.380  0.00  0.00    +0.000 C 
ATOM     16  O   UNL     1       4.144  -1.948  -4.547  0.00  0.00    +0.000 OA
ENDBRANCH   9  16
ENDBRANCH   7  13
ENDBRANCH   1   7
BRANCH   4  17
ATOM     17  C   UNL     1       9.545   6.488  -3.859  0.00  0.00    +0.000 C 
ATOM     18  O   UNL     1      10.313   6.457  -4.807  0.00  0.00    +0.000 OA
BRANCH  17  19
ATOM     19  O   UNL     1       9.277   7.555  -3.072  0.00  0.00    +0.000 OA
BRANCH  19  20
ATOM     20  C   UNL     1       9.962   8.766  -3.418  0.00  0.00    +0.000 C 
BRANCH  20  21
ATOM     21  C   UNL     1       8.957   9.793  -3.883  0.00  0.00    +0.000 A 
ATOM     22  C   UNL     1       8.622   9.884  -5.258  0.00  0.00    +0.000 A 
ATOM     23  C   UNL     1       7.693  10.824  -5.720  0.00  0.00    +0.000 A 
ATOM     24  C   UNL     1       7.109  11.642  -4.778  0.00  0.00    +0.000 A 
ATOM     25  C   UNL     1       7.412  11.555  -3.436  0.00  0.00    +0.000 A 
ATOM     26  C   UNL     1       8.331  10.644  -2.956  0.00  0.00    +0.000 A 
ATOM     27  O   UNL     1       6.700  12.462  -2.667  0.00  0.00    +0.000 OA
ATOM     28  C   UNL     1       5.920  13.128  -3.624  0.00  0.00    +0.000 A 
ATOM     29  O   UNL     1       5.129  14.017  -3.335  0.00  0.00    +0.000 OA
ATOM     30  N   UNL     1       6.175  12.643  -4.891  0.00  0.00    +0.000 N 
ATOM     31  C   UNL     1       5.573  13.091  -6.113  0.00  0.00    +0.000 C 
ENDBRANCH  20  21
ENDBRANCH  19  20
ENDBRANCH  17  19
ENDBRANCH   4  17
TORSDOF 7
