REMARK  Name = 
REMARK  7 active torsions:
REMARK  status: ('A' for Active; 'I' for Inactive)
REMARK    1  A    between atoms: C_2  and  C_3
REMARK    2  A    between atoms: C_3  and  N_4
REMARK    3  A    between atoms: C_8  and  C_9
REMARK    4  A    between atoms: N_15  and  C_16
REMARK    5  A    between atoms: C_16  and  C_17
REMARK    6  A    between atoms: C_19  and  O_20
REMARK    7  A    between atoms: O_20  and  C_21
REMARK                            x       y       z     vdW  Elec       q    Type
REMARK                         _______ _______ _______ _____ _____    ______ ____
ROOT
ATOM      1  O   UNL     1       2.925   2.081   1.526  0.00  0.00    +0.000 OA
ATOM      2  C   UNL     1       2.387   0.998   1.298  0.00  0.00    +0.000 C 
ATOM      3  N   UNL     1       3.088  -0.180   1.174  0.00  0.00    +0.000 N 
ATOM      4  H   UNL     1       2.584  -1.060   1.249  0.00  0.00    +0.000 HD
ENDROOT
BRANCH   2   5
ATOM      5  C   UNL     1       0.868   0.858   1.173  0.00  0.00    +0.000 C 
BRANCH   5   6
ATOM      6  N   UNL     1       0.237   0.679   2.479  0.00  0.00    +0.000 N 
ATOM      7  C   UNL     1      -0.147   1.793   3.203  0.00  0.00    +0.000 A 
ATOM      8  C   UNL     1      -0.753   1.669   4.385  0.00  0.00    +0.000 A 
ATOM      9  C   UNL     1      -0.995   0.357   4.927  0.00  0.00    +0.000 A 
ATOM     10  C   UNL     1      -0.615  -0.757   4.271  0.00  0.00    +0.000 A 
ATOM     11  C   UNL     1       0.048  -0.625   2.946  0.00  0.00    +0.000 A 
ATOM     12  O   UNL     1       0.407  -1.602   2.296  0.00  0.00    +0.000 OA
BRANCH  10  13
ATOM     13  C   UNL     1      -0.816  -2.117   4.831  0.00  0.00    +0.000 C 
ATOM     14  F   UNL     1      -0.396  -3.155   4.072  0.00  0.00    +0.000 F 
ATOM     15  F   UNL     1      -0.181  -2.240   6.030  0.00  0.00    +0.000 F 
ATOM     16  F   UNL     1      -2.135  -2.345   5.091  0.00  0.00    +0.000 F 
ENDBRANCH  10  13
ENDBRANCH   5   6
ENDBRANCH   2   5
BRANCH   3  17
ATOM     17  C   UNL     1       4.540  -0.230   1.201  0.00  0.00    +0.000 C 
BRANCH  17  18
ATOM     18  C   UNL     1       5.122  -0.359   2.591  0.00  0.00    +0.000 A 
ATOM     19  C   UNL     1       5.464   0.782   3.309  0.00  0.00    +0.000 A 
ATOM     20  C   UNL     1       5.932   0.645   4.617  0.00  0.00    +0.000 A 
ATOM     21  C   UNL     1       6.149  -0.626   5.132  0.00  0.00    +0.000 A 
ATOM     22  C   UNL     1       5.812  -1.710   4.342  0.00  0.00    +0.000 A 
ATOM     23  N   UNL     1       5.285  -1.606   3.099  0.00  0.00    +0.000 NA
BRANCH  20  24
ATOM     24  O   UNL     1       6.236   1.704   5.446  0.00  0.00    +0.000 OA
BRANCH  24  25
ATOM     25  C   UNL     1       5.521   2.875   5.313  0.00  0.00    +0.000 A 
ATOM     26  C   UNL     1       4.151   2.916   5.020  0.00  0.00    +0.000 A 
ATOM     27  C   UNL     1       3.518   4.136   4.793  0.00  0.00    +0.000 A 
ATOM     28  C   UNL     1       4.238   5.314   4.936  0.00  0.00    +0.000 A 
ATOM     29  F   UNL     1       3.631   6.485   4.700  0.00  0.00    +0.000 F 
ATOM     30  C   UNL     1       5.575   5.280   5.320  0.00  0.00    +0.000 A 
ATOM     31  F   UNL     1       6.254   6.423   5.489  0.00  0.00    +0.000 F 
ATOM     32  C   UNL     1       6.225   4.064   5.513  0.00  0.00    +0.000 A 
ENDBRANCH  24  25
ENDBRANCH  20  24
ENDBRANCH  17  18
ENDBRANCH   3  17
TORSDOF 7
