REMARK  Name = 
REMARK  8 active torsions:
REMARK  status: ('A' for Active; 'I' for Inactive)
REMARK    1  A    between atoms: C_1  and  C_2
REMARK    2  A    between atoms: C_6  and  C_7
REMARK    3  A    between atoms: C_7  and  N_8
REMARK    4  A    between atoms: C_12  and  C_13
REMARK    5  A    between atoms: N_15  and  C_16
REMARK    6  A    between atoms: C_16  and  C_17
REMARK    7  A    between atoms: C_16  and  C_24
REMARK    8  A    between atoms: N_26  and  C_27
REMARK                            x       y       z     vdW  Elec       q    Type
REMARK                         _______ _______ _______ _____ _____    ______ ____
ROOT
ATOM      1  C   UNL     1      -6.042  -0.875  -2.371  0.00  0.00    +0.000 C 
ATOM      2  O   UNL     1      -7.222  -0.542  -2.299  0.00  0.00    +0.000 OA
ATOM      3  N   UNL     1      -5.298  -0.744  -3.511  0.00  0.00    +0.000 N 
ATOM      4  H   UNL     1      -4.305  -0.961  -3.475  0.00  0.00    +0.000 HD
ENDROOT
BRANCH   1   9
ATOM      5  N   UNL     1      -3.323  -2.327  -0.037  0.00  0.00    +0.000 N 
ATOM      6  C   UNL     1      -4.083  -2.498   1.105  0.00  0.00    +0.000 A 
ATOM      7  C   UNL     1      -5.373  -2.151   1.135  0.00  0.00    +0.000 A 
ATOM      8  C   UNL     1      -5.995  -1.594  -0.040  0.00  0.00    +0.000 A 
ATOM      9  C   UNL     1      -5.319  -1.454  -1.196  0.00  0.00    +0.000 A 
ATOM     10  C   UNL     1      -3.871  -1.841  -1.225  0.00  0.00    +0.000 A 
ATOM     11  O   UNL     1      -3.206  -1.667  -2.249  0.00  0.00    +0.000 OA
BRANCH   5  12
ATOM     12  C   UNL     1      -1.875  -2.510   0.031  0.00  0.00    +0.000 C 
BRANCH  12  18
ATOM     13  C   UNL     1      -0.177  -5.934  -3.241  0.00  0.00    +0.000 C 
ATOM     14  C   UNL     1      -0.536  -5.559  -1.836  0.00  0.00    +0.000 A 
ATOM     15  C   UNL     1      -0.346  -6.469  -0.783  0.00  0.00    +0.000 A 
ATOM     16  C   UNL     1      -0.700  -6.117   0.516  0.00  0.00    +0.000 A 
ATOM     17  C   UNL     1      -1.236  -4.857   0.782  0.00  0.00    +0.000 A 
ATOM     18  C   UNL     1      -1.398  -3.919  -0.246  0.00  0.00    +0.000 A 
ATOM     19  C   UNL     1      -1.057  -4.290  -1.556  0.00  0.00    +0.000 A 
ENDBRANCH  12  18
ENDBRANCH   5  12
ENDBRANCH   1   9
BRANCH   3  20
ATOM     20  C   UNL     1      -5.834  -0.191  -4.736  0.00  0.00    +0.000 C 
BRANCH  20  21
ATOM     21  C   UNL     1      -5.660   1.321  -4.841  0.00  0.00    +0.000 A 
ATOM     22  C   UNL     1      -4.573   2.001  -4.258  0.00  0.00    +0.000 A 
ATOM     23  C   UNL     1      -4.456   3.389  -4.369  0.00  0.00    +0.000 A 
ATOM     24  C   UNL     1      -5.418   4.106  -5.069  0.00  0.00    +0.000 A 
ATOM     25  F   UNL     1      -5.302   5.436  -5.174  0.00  0.00    +0.000 F 
ATOM     26  C   UNL     1      -6.497   3.463  -5.660  0.00  0.00    +0.000 A 
ATOM     27  C   UNL     1      -6.619   2.076  -5.546  0.00  0.00    +0.000 A 
ENDBRANCH  20  21
BRANCH  20  28
ATOM     28  C   UNL     1      -5.109  -0.776  -5.929  0.00  0.00    +0.000 A 
ATOM     29  N   UNL     1      -5.783  -1.476  -6.861  0.00  0.00    +0.000 NA
ATOM     30  N   UNL     1      -4.853  -1.797  -7.777  0.00  0.00    +0.000 N 
ATOM     31  C   UNL     1      -5.239  -2.484  -8.986  0.00  0.00    +0.000 C 
ATOM     32  C   UNL     1      -3.601  -1.368  -7.457  0.00  0.00    +0.000 A 
ATOM     33  C   UNL     1      -3.725  -0.712  -6.256  0.00  0.00    +0.000 A 
ENDBRANCH  20  28
ENDBRANCH   3  20
TORSDOF 6
