REMARK  Name = 
REMARK  4 active torsions:
REMARK  status: ('A' for Active; 'I' for Inactive)
REMARK    1  A    between atoms: C_2  and  C_17
REMARK    2  A    between atoms: N_3  and  C_4
REMARK    3  A    between atoms: N_6  and  C_7
REMARK    4  A    between atoms: C_20  and  C_21
REMARK                            x       y       z     vdW  Elec       q    Type
REMARK                         _______ _______ _______ _____ _____    ______ ____
ROOT
ATOM      1  O   UNL     1       1.042   0.576   0.542  0.00  0.00    +0.000 OA
ATOM      2  C   UNL     1       2.201   0.293   0.253  0.00  0.00    +0.000 C 
ATOM      3  N   UNL     1       2.783   0.514  -0.997  0.00  0.00    +0.000 N 
ATOM      4  H   UNL     1       3.703   0.103  -1.127  0.00  0.00    +0.000 HD
ENDROOT
BRANCH   3   5
ATOM      5  C   UNL     1       2.130   1.028  -2.098  0.00  0.00    +0.000 A 
ATOM      6  C   UNL     1       0.994   1.740  -2.031  0.00  0.00    +0.000 A 
ATOM      7  N   UNL     1       0.272   2.142  -3.150  0.00  0.00    +0.000 N 
ATOM      8  C   UNL     1       0.716   1.818  -4.442  0.00  0.00    +0.000 A 
ATOM      9  O   UNL     1       0.130   2.034  -5.501  0.00  0.00    +0.000 OA
ATOM     10  C   UNL     1       2.017   1.089  -4.513  0.00  0.00    +0.000 A 
ATOM     11  C   UNL     1       2.679   0.739  -3.403  0.00  0.00    +0.000 A 
BRANCH   7  12
ATOM     12  C   UNL     1      -1.008   2.769  -2.982  0.00  0.00    +0.000 A 
ATOM     13  C   UNL     1      -1.885   2.324  -1.978  0.00  0.00    +0.000 A 
ATOM     14  C   UNL     1      -3.151   2.894  -1.829  0.00  0.00    +0.000 A 
ATOM     15  C   UNL     1      -3.541   3.942  -2.658  0.00  0.00    +0.000 A 
ATOM     16  C   UNL     1      -2.669   4.417  -3.636  0.00  0.00    +0.000 A 
ATOM     17  C   UNL     1      -1.413   3.825  -3.806  0.00  0.00    +0.000 A 
ENDBRANCH   7  12
ENDBRANCH   3   5
BRANCH   2  18
ATOM     18  C   UNL     1       3.087  -0.383   1.206  0.00  0.00    +0.000 A 
ATOM     19  N   UNL     1       2.641  -0.823   2.394  0.00  0.00    +0.000 NA
ATOM     20  O   UNL     1       3.759  -1.402   2.970  0.00  0.00    +0.000 OA
ATOM     21  C   UNL     1       4.783  -1.261   2.081  0.00  0.00    +0.000 A 
ATOM     22  N   UNL     1       4.425  -0.657   0.966  0.00  0.00    +0.000 NA
BRANCH  21  23
ATOM     23  C   UNL     1       6.080  -1.764   2.511  0.00  0.00    +0.000 A 
ATOM     24  C   UNL     1       6.224  -2.476   3.713  0.00  0.00    +0.000 A 
ATOM     25  C   UNL     1       7.479  -2.924   4.116  0.00  0.00    +0.000 A 
ATOM     26  F   UNL     1       7.595  -3.598   5.267  0.00  0.00    +0.000 F 
ATOM     27  C   UNL     1       8.605  -2.684   3.346  0.00  0.00    +0.000 A 
ATOM     28  C   UNL     1       8.463  -1.986   2.156  0.00  0.00    +0.000 A 
ATOM     29  F   UNL     1       9.543  -1.744   1.403  0.00  0.00    +0.000 F 
ATOM     30  C   UNL     1       7.217  -1.530   1.732  0.00  0.00    +0.000 A 
ENDBRANCH  21  23
ENDBRANCH   2  18
TORSDOF 4
