REMARK  Name = 
REMARK  5 active torsions:
REMARK  status: ('A' for Active; 'I' for Inactive)
REMARK    1  A    between atoms: C_2  and  C_19
REMARK    2  A    between atoms: N_3  and  C_4
REMARK    3  A    between atoms: C_8  and  O_9
REMARK    4  A    between atoms: O_9  and  C_10
REMARK    5  A    between atoms: N_23  and  C_24
REMARK                            x       y       z     vdW  Elec       q    Type
REMARK                         _______ _______ _______ _____ _____    ______ ____
ROOT
ATOM      1  O   UNL     1       0.980   0.337  -0.583  0.00  0.00    +0.000 OA
ATOM      2  C   UNL     1       2.149   0.107  -0.298  0.00  0.00    +0.000 C 
ATOM      3  N   UNL     1       2.802  -1.088  -0.562  0.00  0.00    +0.000 N 
ATOM      4  H   UNL     1       3.730  -1.197  -0.175  0.00  0.00    +0.000 HD
ENDROOT
BRANCH   3   5
ATOM      5  C   UNL     1       2.208  -2.241  -1.131  0.00  0.00    +0.000 A 
ATOM      6  C   UNL     1       0.971  -2.222  -1.772  0.00  0.00    +0.000 A 
ATOM      7  C   UNL     1       0.430  -3.414  -2.212  0.00  0.00    +0.000 A 
ATOM      8  N   UNL     1       1.047  -4.601  -2.079  0.00  0.00    +0.000 NA
ATOM      9  C   UNL     1       2.276  -4.596  -1.518  0.00  0.00    +0.000 A 
ATOM     10  C   UNL     1       2.891  -3.454  -1.025  0.00  0.00    +0.000 A 
BRANCH   9  11
ATOM     11  O   UNL     1       2.984  -5.790  -1.414  0.00  0.00    +0.000 OA
BRANCH  11  12
ATOM     12  C   UNL     1       2.619  -6.816  -2.256  0.00  0.00    +0.000 A 
ATOM     13  C   UNL     1       2.350  -6.622  -3.621  0.00  0.00    +0.000 A 
ATOM     14  C   UNL     1       1.967  -7.698  -4.418  0.00  0.00    +0.000 A 
ATOM     15  C   UNL     1       1.899  -8.972  -3.864  0.00  0.00    +0.000 A 
ATOM     16  F   UNL     1       1.529 -10.003  -4.636  0.00  0.00    +0.000 F 
ATOM     17  C   UNL     1       2.213  -9.191  -2.530  0.00  0.00    +0.000 A 
ATOM     18  C   UNL     1       2.575  -8.109  -1.732  0.00  0.00    +0.000 A 
ATOM     19  F   UNL     1       2.878  -8.326  -0.444  0.00  0.00    +0.000 F 
ENDBRANCH  11  12
ENDBRANCH   9  11
ENDBRANCH   3   5
BRANCH   2  20
ATOM     20  C   UNL     1       2.951   1.073   0.406  0.00  0.00    +0.000 A 
ATOM     21  C   UNL     1       4.273   1.429   0.207  0.00  0.00    +0.000 A 
ATOM     22  C   UNL     1       4.457   2.584   0.978  0.00  0.00    +0.000 A 
ATOM     23  N   UNL     1       3.354   2.939   1.632  0.00  0.00    +0.000 NA
ATOM     24  N   UNL     1       2.460   1.946   1.370  0.00  0.00    +0.000 N 
BRANCH  24  25
ATOM     25  C   UNL     1       1.256   1.875   2.127  0.00  0.00    +0.000 A 
ATOM     26  C   UNL     1       0.718   3.046   2.665  0.00  0.00    +0.000 A 
ATOM     27  C   UNL     1      -0.454   2.948   3.397  0.00  0.00    +0.000 A 
ATOM     28  N   UNL     1      -1.089   1.784   3.651  0.00  0.00    +0.000 NA
ATOM     29  C   UNL     1      -0.532   0.665   3.143  0.00  0.00    +0.000 A 
ATOM     30  C   UNL     1       0.625   0.656   2.381  0.00  0.00    +0.000 A 
ENDBRANCH  24  25
ENDBRANCH   2  20
TORSDOF 5
