REMARK  Name = 
REMARK  7 active torsions:
REMARK  status: ('A' for Active; 'I' for Inactive)
REMARK    1  A    between atoms: N_1  and  C_2
REMARK    2  A    between atoms: C_2  and  C_3
REMARK    3  A    between atoms: C_3  and  N_4
REMARK    4  A    between atoms: C_3  and  C_23
REMARK    5  A    between atoms: C_5  and  C_7
REMARK    6  A    between atoms: C_14  and  C_15
REMARK    7  A    between atoms: C_15  and  C_17
REMARK                            x       y       z     vdW  Elec       q    Type
REMARK                         _______ _______ _______ _____ _____    ______ ____
ROOT
ATOM      1  N   UNL     1       2.433   0.828   2.515  0.00  0.00    +0.000 N 
ATOM      2  C   UNL     1       1.088   0.982   2.799  0.00  0.00    +0.000 C 
ATOM      3  O   UNL     1       0.375   1.688   2.109  0.00  0.00    +0.000 OA
ATOM      4  H   UNL     1       2.957   0.096   2.972  0.00  0.00    +0.000 HD
ENDROOT
BRANCH   2   5
ATOM      5  C   UNL     1       0.574   0.328   4.048  0.00  0.00    +0.000 A 
ATOM      6  C   UNL     1       1.504   0.208   5.107  0.00  0.00    +0.000 A 
ATOM      7  C   UNL     1       1.122  -0.311   6.338  0.00  0.00    +0.000 A 
ATOM      8  F   UNL     1       2.029  -0.413   7.317  0.00  0.00    +0.000 F 
ATOM      9  C   UNL     1      -0.188  -0.691   6.554  0.00  0.00    +0.000 A 
ATOM     10  F   UNL     1      -0.564  -1.168   7.746  0.00  0.00    +0.000 F 
ATOM     11  C   UNL     1      -1.132  -0.559   5.542  0.00  0.00    +0.000 A 
ATOM     12  C   UNL     1      -0.773  -0.069   4.268  0.00  0.00    +0.000 A 
BRANCH  12  13
ATOM     13  C   UNL     1      -1.893   0.080   3.280  0.00  0.00    +0.000 C 
ATOM     14  O   UNL     1      -1.958   1.052   2.539  0.00  0.00    +0.000 OA
BRANCH  13  15
ATOM     15  C   UNL     1      -3.071  -0.835   3.247  0.00  0.00    +0.000 A 
ATOM     16  C   UNL     1      -2.999  -2.199   3.552  0.00  0.00    +0.000 A 
ATOM     17  C   UNL     1      -4.163  -2.975   3.545  0.00  0.00    +0.000 A 
ATOM     18  C   UNL     1      -5.392  -2.402   3.209  0.00  0.00    +0.000 A 
ATOM     19  C   UNL     1      -5.464  -1.053   2.872  0.00  0.00    +0.000 A 
ATOM     20  C   UNL     1      -4.309  -0.275   2.890  0.00  0.00    +0.000 A 
ENDBRANCH  13  15
ENDBRANCH  12  13
ENDBRANCH   2   5
BRANCH   1  21
ATOM     21  C   UNL     1       3.096   1.422   1.343  0.00  0.00    +0.000 C 
BRANCH  21  22
ATOM     22  C   UNL     1       3.107   0.448   0.187  0.00  0.00    +0.000 A 
ATOM     23  C   UNL     1       1.929   0.090  -0.484  0.00  0.00    +0.000 A 
ATOM     24  C   UNL     1       1.968  -0.809  -1.555  0.00  0.00    +0.000 A 
ATOM     25  C   UNL     1       3.182  -1.361  -1.962  0.00  0.00    +0.000 A 
ATOM     26  C   UNL     1       4.357  -1.019  -1.301  0.00  0.00    +0.000 A 
ATOM     27  C   UNL     1       4.312  -0.124  -0.239  0.00  0.00    +0.000 A 
ATOM     28  F   UNL     1       5.457   0.183   0.386  0.00  0.00    +0.000 F 
ENDBRANCH  21  22
BRANCH  21  29
ATOM     29  C   UNL     1       2.617   2.847   0.917  0.00  0.00    +0.000 C 
BRANCH  29  30
ATOM     30  N   UNL     1       2.579   3.824   2.020  0.00  0.00    +0.000 NA
ATOM     31  H   UNL     1       1.775   3.568   2.602  0.00  0.00    +0.000 HD
ATOM     32  H   UNL     1       3.400   3.708   2.608  0.00  0.00    +0.000 HD
ENDBRANCH  29  30
ENDBRANCH  21  29
ENDBRANCH   1  21
TORSDOF 7
