REMARK  Name = 
REMARK  6 active torsions:
REMARK  status: ('A' for Active; 'I' for Inactive)
REMARK    1  A    between atoms: C_2  and  C_17
REMARK    2  A    between atoms: N_3  and  C_4
REMARK    3  A    between atoms: C_4  and  C_5
REMARK    4  A    between atoms: C_9  and  C_10
REMARK    5  A    between atoms: N_19  and  C_20
REMARK    6  A    between atoms: C_28  and  O_29
REMARK                            x       y       z     vdW  Elec       q    Type
REMARK                         _______ _______ _______ _____ _____    ______ ____
ROOT
ATOM      1  O   UNL     1       1.028  -0.200   0.151  0.00  0.00    +0.000 OA
ATOM      2  C   UNL     1       2.253  -0.170   0.075  0.00  0.00    +0.000 C 
ATOM      3  N   UNL     1       2.957  -0.867  -0.882  0.00  0.00    +0.000 N 
ATOM      4  H   UNL     1       3.965  -0.752  -0.877  0.00  0.00    +0.000 HD
ENDROOT
BRANCH   2   5
ATOM      5  C   UNL     1       3.106   0.586   1.005  0.00  0.00    +0.000 A 
ATOM      6  N   UNL     1       4.454   0.576   0.907  0.00  0.00    +0.000 NA
ATOM      7  N   UNL     1       4.893   1.318   1.963  0.00  0.00    +0.000 N 
ATOM      8  C   UNL     1       3.847   1.829   2.699  0.00  0.00    +0.000 A 
ATOM      9  C   UNL     1       2.705   1.378   2.100  0.00  0.00    +0.000 A 
BRANCH   7  10
ATOM     10  C   UNL     1       6.286   1.468   2.214  0.00  0.00    +0.000 A 
ATOM     11  C   UNL     1       6.753   2.148   3.352  0.00  0.00    +0.000 A 
ATOM     12  C   UNL     1       8.127   2.252   3.594  0.00  0.00    +0.000 A 
ATOM     13  C   UNL     1       9.037   1.690   2.702  0.00  0.00    +0.000 A 
ATOM     14  C   UNL     1       8.571   1.029   1.572  0.00  0.00    +0.000 A 
ATOM     15  F   UNL     1       9.449   0.493   0.715  0.00  0.00    +0.000 F 
ATOM     16  C   UNL     1       7.209   0.910   1.319  0.00  0.00    +0.000 A 
ENDBRANCH   7  10
BRANCH   9  17
ATOM     17  O   UNL     1       1.465   1.654   2.533  0.00  0.00    +0.000 OA
ATOM     18  H   UNL     1       1.483   2.241   3.305  0.00  0.00    +0.000 HD
ENDBRANCH   9  17
ENDBRANCH   2   5
BRANCH   3  19
ATOM     19  C   UNL     1       2.311  -1.713  -1.850  0.00  0.00    +0.000 C 
BRANCH  19  20
ATOM     20  C   UNL     1       2.552  -1.217  -3.250  0.00  0.00    +0.000 A 
ATOM     21  C   UNL     1       1.677  -0.297  -3.836  0.00  0.00    +0.000 A 
ATOM     22  C   UNL     1       1.913   0.167  -5.126  0.00  0.00    +0.000 A 
ATOM     23  C   UNL     1       3.037  -0.269  -5.833  0.00  0.00    +0.000 A 
ATOM     24  C   UNL     1       3.958  -1.169  -5.267  0.00  0.00    +0.000 A 
ATOM     25  C   UNL     1       3.684  -1.637  -3.968  0.00  0.00    +0.000 A 
BRANCH  24  26
ATOM     26  C   UNL     1       5.180  -1.584  -5.988  0.00  0.00    +0.000 A 
ATOM     27  C   UNL     1       5.744  -2.861  -5.844  0.00  0.00    +0.000 A 
ATOM     28  C   UNL     1       6.915  -3.204  -6.519  0.00  0.00    +0.000 A 
ATOM     29  C   UNL     1       7.500  -2.260  -7.342  0.00  0.00    +0.000 A 
ATOM     30  N   UNL     1       7.003  -1.021  -7.522  0.00  0.00    +0.000 NA
ATOM     31  C   UNL     1       5.870  -0.717  -6.841  0.00  0.00    +0.000 A 
ENDBRANCH  24  26
ENDBRANCH  19  20
ENDBRANCH   3  19
TORSDOF 6
