REMARK  Name = 
REMARK  4 active torsions:
REMARK  status: ('A' for Active; 'I' for Inactive)
REMARK    1  A    between atoms: C_2  and  C_15
REMARK    2  A    between atoms: N_3  and  C_4
REMARK    3  A    between atoms: C_7  and  C_8
REMARK    4  A    between atoms: C_17  and  C_18
REMARK                            x       y       z     vdW  Elec       q    Type
REMARK                         _______ _______ _______ _____ _____    ______ ____
ROOT
ATOM      1  O   UNL     1       0.936   0.104   0.219  0.00  0.00    +0.000 OA
ATOM      2  C   UNL     1       2.153   0.093   0.047  0.00  0.00    +0.000 C 
ATOM      3  N   UNL     1       2.869   1.123  -0.548  0.00  0.00    +0.000 N 
ATOM      4  H   UNL     1       3.832   0.933  -0.796  0.00  0.00    +0.000 HD
ENDROOT
BRANCH   3   5
ATOM      5  C   UNL     1       2.295   2.330  -1.019  0.00  0.00    +0.000 A 
ATOM      6  C   UNL     1       1.035   2.775  -0.612  0.00  0.00    +0.000 A 
ATOM      7  C   UNL     1       0.448   3.907  -1.181  0.00  0.00    +0.000 A 
ATOM      8  C   UNL     1       1.118   4.631  -2.168  0.00  0.00    +0.000 A 
ATOM      9  C   UNL     1       2.418   4.240  -2.514  0.00  0.00    +0.000 A 
ATOM     10  C   UNL     1       3.006   3.102  -1.942  0.00  0.00    +0.000 A 
BRANCH   8  11
ATOM     11  C   UNL     1       0.473   5.752  -2.843  0.00  0.00    +0.000 A 
ATOM     12  N   UNL     1       1.046   6.802  -3.400  0.00  0.00    +0.000 NA
ATOM     13  N   UNL     1       0.064   7.588  -3.961  0.00  0.00    +0.000 NA
ATOM     14  C   UNL     1      -1.085   6.992  -3.758  0.00  0.00    +0.000 A 
ATOM     15  N   UNL     1      -0.881   5.845  -3.060  0.00  0.00    +0.000 N 
ATOM     16  H   UNL     1      -1.577   5.166  -2.793  0.00  0.00    +0.000 HD
ENDBRANCH   8  11
ENDBRANCH   3   5
BRANCH   2  17
ATOM     17  C   UNL     1       2.911  -1.072   0.422  0.00  0.00    +0.000 A 
ATOM     18  C   UNL     1       2.457  -2.289   0.864  0.00  0.00    +0.000 A 
ATOM     19  C   UNL     1       3.616  -3.060   1.108  0.00  0.00    +0.000 A 
ATOM     20  N   UNL     1       4.715  -2.339   0.826  0.00  0.00    +0.000 NA
ATOM     21  O   UNL     1       4.269  -1.097   0.391  0.00  0.00    +0.000 OA
BRANCH  19  22
ATOM     22  C   UNL     1       3.655  -4.439   1.579  0.00  0.00    +0.000 A 
ATOM     23  C   UNL     1       2.658  -5.347   1.191  0.00  0.00    +0.000 A 
ATOM     24  F   UNL     1       1.675  -4.971   0.359  0.00  0.00    +0.000 F 
ATOM     25  C   UNL     1       2.647  -6.663   1.646  0.00  0.00    +0.000 A 
ATOM     26  C   UNL     1       3.648  -7.084   2.506  0.00  0.00    +0.000 A 
ATOM     27  F   UNL     1       3.645  -8.346   2.951  0.00  0.00    +0.000 F 
ATOM     28  C   UNL     1       4.649  -6.213   2.917  0.00  0.00    +0.000 A 
ATOM     29  C   UNL     1       4.646  -4.898   2.453  0.00  0.00    +0.000 A 
ATOM     30  F   UNL     1       5.603  -4.075   2.903  0.00  0.00    +0.000 F 
ENDBRANCH  19  22
ENDBRANCH   2  17
TORSDOF 4
