REMARK  Name = 
REMARK  5 active torsions:
REMARK  status: ('A' for Active; 'I' for Inactive)
REMARK    1  A    between atoms: C_2  and  C_22
REMARK    2  A    between atoms: N_3  and  C_4
REMARK    3  A    between atoms: C_9  and  C_10
REMARK    4  A    between atoms: C_10  and  C_12
REMARK    5  A    between atoms: C_25  and  O_26
REMARK                            x       y       z     vdW  Elec       q    Type
REMARK                         _______ _______ _______ _____ _____    ______ ____
ROOT
ATOM      1  C   UNL     1       2.353   1.657   1.744  0.00  0.00    +0.000 A 
ATOM      2  C   UNL     1       1.223   1.233   2.453  0.00  0.00    +0.000 A 
ATOM      3  C   UNL     1       0.572   2.080   3.345  0.00  0.00    +0.000 A 
ATOM      4  C   UNL     1       1.052   3.363   3.545  0.00  0.00    +0.000 A 
ATOM      5  F   UNL     1       0.324   4.172   4.325  0.00  0.00    +0.000 F 
ATOM      6  C   UNL     1       2.225   3.792   2.922  0.00  0.00    +0.000 A 
ATOM      7  C   UNL     1       2.881   2.927   2.018  0.00  0.00    +0.000 A 
ENDROOT
BRANCH   1  10
ATOM      8  O   UNL     1       1.174  -0.586   0.317  0.00  0.00    +0.000 OA
ATOM      9  C   UNL     1       2.328  -0.215   0.112  0.00  0.00    +0.000 C 
ATOM     10  N   UNL     1       2.953   0.854   0.746  0.00  0.00    +0.000 N 
ATOM     11  H   UNL     1       3.850   1.140   0.360  0.00  0.00    +0.000 HD
BRANCH   9  12
ATOM     12  C   UNL     1       3.128  -0.928  -0.918  0.00  0.00    +0.000 A 
ATOM     13  C   UNL     1       2.528  -1.914  -1.672  0.00  0.00    +0.000 A 
ATOM     14  F   UNL     1       1.239  -2.265  -1.585  0.00  0.00    +0.000 F 
ATOM     15  C   UNL     1       3.350  -2.550  -2.563  0.00  0.00    +0.000 A 
ATOM     16  N   UNL     1       4.651  -2.263  -2.721  0.00  0.00    +0.000 NA
ATOM     17  C   UNL     1       5.133  -1.281  -1.942  0.00  0.00    +0.000 A 
ATOM     18  N   UNL     1       4.437  -0.573  -1.036  0.00  0.00    +0.000 NA
BRANCH  15  19
ATOM     19  O   UNL     1       2.860  -3.550  -3.360  0.00  0.00    +0.000 OA
ATOM     20  H   UNL     1       1.918  -3.653  -3.146  0.00  0.00    +0.000 HD
ENDBRANCH  15  19
ENDBRANCH   9  12
ENDBRANCH   1  10
BRANCH   6  21
ATOM     21  C   UNL     1       2.741   5.173   3.110  0.00  0.00    +0.000 C 
ATOM     22  O   UNL     1       3.354   5.684   2.173  0.00  0.00    +0.000 OA
BRANCH  21  23
ATOM     23  C   UNL     1       2.535   5.883   4.374  0.00  0.00    +0.000 A 
ATOM     24  C   UNL     1       2.454   5.316   5.636  0.00  0.00    +0.000 A 
ATOM     25  N   UNL     1       2.276   6.314   6.555  0.00  0.00    +0.000 N 
ATOM     26  C   UNL     1       2.280   7.538   5.933  0.00  0.00    +0.000 A 
ATOM     27  C   UNL     1       2.174   8.822   6.480  0.00  0.00    +0.000 A 
ATOM     28  C   UNL     1       2.191   9.905   5.599  0.00  0.00    +0.000 A 
ATOM     29  C   UNL     1       2.291   9.707   4.224  0.00  0.00    +0.000 A 
ATOM     30  C   UNL     1       2.402   8.415   3.695  0.00  0.00    +0.000 A 
ATOM     31  C   UNL     1       2.415   7.303   4.563  0.00  0.00    +0.000 A 
ATOM     32  H   UNL     1       2.169   6.178   7.551  0.00  0.00    +0.000 HD
ENDBRANCH  21  23
ENDBRANCH   6  21
TORSDOF 5
