REMARK  Name = 
REMARK  12 active torsions:
REMARK  status: ('A' for Active; 'I' for Inactive)
REMARK    1  A    between atoms: C_1  and  O_2
REMARK    2  A    between atoms: O_2  and  C_3
REMARK    3  A    between atoms: C_5  and  C_6
REMARK    4  A    between atoms: C_6  and  O_8
REMARK    5  A    between atoms: O_8  and  C_9
REMARK    6  A    between atoms: C_9  and  C_10
REMARK    7  A    between atoms: C_13  and  C_14
REMARK    8  A    between atoms: C_21  and  O_22
REMARK    9  A    between atoms: O_22  and  C_23
REMARK   10  A    between atoms: C_24  and  O_25
REMARK   11  A    between atoms: O_25  and  C_26
REMARK   12  A    between atoms: C_26  and  C_27
REMARK                            x       y       z     vdW  Elec       q    Type
REMARK                         _______ _______ _______ _____ _____    ______ ____
ROOT
ATOM      1  C   UNL     1       3.147  -0.254   1.119  0.00  0.00    +0.000 A 
ATOM      2  C   UNL     1       2.761  -1.190   2.088  0.00  0.00    +0.000 A 
ATOM      3  C   UNL     1       3.522  -1.382   3.237  0.00  0.00    +0.000 A 
ATOM      4  C   UNL     1       4.691  -0.644   3.426  0.00  0.00    +0.000 A 
ATOM      5  C   UNL     1       5.080   0.313   2.485  0.00  0.00    +0.000 A 
ATOM      6  C   UNL     1       4.272   0.565   1.351  0.00  0.00    +0.000 A 
ENDROOT
BRANCH   3   7
ATOM      7  C   UNL     1       3.174  -2.417   4.234  0.00  0.00    +0.000 C 
ATOM      8  O   UNL     1       4.016  -2.929   4.961  0.00  0.00    +0.000 OA
BRANCH   7   9
ATOM      9  O   UNL     1       1.849  -2.686   4.233  0.00  0.00    +0.000 OA
BRANCH   9  10
ATOM     10  C   UNL     1       1.426  -3.703   5.153  0.00  0.00    +0.000 C 
BRANCH  10  11
ATOM     11  C   UNL     1       0.476  -3.112   6.156  0.00  0.00    +0.000 A 
ATOM     12  C   UNL     1       0.951  -2.572   7.357  0.00  0.00    +0.000 A 
ATOM     13  C   UNL     1       0.057  -2.031   8.287  0.00  0.00    +0.000 A 
ATOM     14  C   UNL     1      -1.322  -2.009   8.028  0.00  0.00    +0.000 A 
ATOM     15  C   UNL     1      -1.796  -2.532   6.824  0.00  0.00    +0.000 A 
ATOM     16  C   UNL     1      -0.897  -3.075   5.906  0.00  0.00    +0.000 A 
ATOM     17  F   UNL     1      -1.380  -3.589   4.767  0.00  0.00    +0.000 F 
BRANCH  14  18
ATOM     18  C   UNL     1      -2.214  -1.427   9.075  0.00  0.00    +0.000 C 
ATOM     19  N   UNL     1      -3.561  -1.405   8.852  0.00  0.00    +0.000 N 
ATOM     20  O   UNL     1      -1.761  -0.977  10.122  0.00  0.00    +0.000 OA
ATOM     21  H   UNL     1      -4.028  -1.747   8.030  0.00  0.00    +0.000 HD
ATOM     22  H   UNL     1      -4.132  -1.000   9.584  0.00  0.00    +0.000 HD
ENDBRANCH  14  18
ENDBRANCH  10  11
ENDBRANCH   9  10
ENDBRANCH   7   9
ENDBRANCH   3   7
BRANCH   5  23
ATOM     23  O   UNL     1       6.226   1.061   2.632  0.00  0.00    +0.000 OA
ATOM     24  C   UNL     1       7.303   0.405   3.302  0.00  0.00    +0.000 C 
ENDBRANCH   5  23
BRANCH   1  26
ATOM     25  C   UNL     1       1.936  -1.337  -0.603  0.00  0.00    +0.000 C 
ATOM     26  O   UNL     1       2.438  -0.117  -0.050  0.00  0.00    +0.000 OA
ENDBRANCH   1  26
BRANCH   6  27
ATOM     27  O   UNL     1       4.723   1.563   0.517  0.00  0.00    +0.000 OA
BRANCH  27  28
ATOM     28  C   UNL     1       3.736   2.319  -0.195  0.00  0.00    +0.000 C 
BRANCH  28  29
ATOM     29  C   UNL     1       4.215   3.738  -0.458  0.00  0.00    +0.000 A 
ATOM     30  C   UNL     1       3.757   4.435  -1.589  0.00  0.00    +0.000 A 
ATOM     31  C   UNL     1       4.168   5.750  -1.836  0.00  0.00    +0.000 A 
ATOM     32  C   UNL     1       5.027   6.390  -0.946  0.00  0.00    +0.000 A 
ATOM     33  C   UNL     1       5.469   5.720   0.193  0.00  0.00    +0.000 A 
ATOM     34  C   UNL     1       5.060   4.406   0.439  0.00  0.00    +0.000 A 
ENDBRANCH  28  29
ENDBRANCH  27  28
ENDBRANCH   6  27
TORSDOF 10
