REMARK  Name = 
REMARK  4 active torsions:
REMARK  status: ('A' for Active; 'I' for Inactive)
REMARK    1  A    between atoms: C_2  and  C_17
REMARK    2  A    between atoms: N_3  and  C_4
REMARK    3  A    between atoms: C_7  and  O_8
REMARK    4  A    between atoms: O_8  and  C_9
REMARK                            x       y       z     vdW  Elec       q    Type
REMARK                         _______ _______ _______ _____ _____    ______ ____
ROOT
ATOM      1  O   UNL     1       1.199  -0.127  -0.806  0.00  0.00    +0.000 OA
ATOM      2  C   UNL     1       2.247  -0.112  -0.173  0.00  0.00    +0.000 C 
ATOM      3  N   UNL     1       2.673  -1.075   0.723  0.00  0.00    +0.000 N 
ATOM      4  H   UNL     1       3.513  -0.879   1.253  0.00  0.00    +0.000 HD
ENDROOT
BRANCH   2   5
ATOM      5  C   UNL     1       3.170   1.065  -0.258  0.00  0.00    +0.000 A 
ATOM      6  C   UNL     1       4.483   0.805  -0.379  0.00  0.00    +0.000 A 
ATOM      7  C   UNL     1       5.489   1.885  -0.414  0.00  0.00    +0.000 A 
ATOM      8  O   UNL     1       6.681   1.616  -0.477  0.00  0.00    +0.000 OA
ATOM      9  N   UNL     1       5.026   3.160  -0.336  0.00  0.00    +0.000 N 
ATOM     10  C   UNL     1       3.669   3.493  -0.251  0.00  0.00    +0.000 A 
ATOM     11  C   UNL     1       3.309   4.840  -0.172  0.00  0.00    +0.000 A 
ATOM     12  C   UNL     1       1.964   5.187  -0.086  0.00  0.00    +0.000 A 
ATOM     13  C   UNL     1       0.999   4.187  -0.100  0.00  0.00    +0.000 A 
ATOM     14  F   UNL     1      -0.294   4.525  -0.025  0.00  0.00    +0.000 F 
ATOM     15  C   UNL     1       1.352   2.841  -0.177  0.00  0.00    +0.000 A 
ATOM     16  C   UNL     1       2.702   2.470  -0.239  0.00  0.00    +0.000 A 
ATOM     17  H   UNL     1       5.729   3.888  -0.354  0.00  0.00    +0.000 HD
ENDBRANCH   2   5
BRANCH   3  18
ATOM     18  C   UNL     1       1.991  -2.254   1.086  0.00  0.00    +0.000 A 
ATOM     19  C   UNL     1       0.836  -2.727   0.469  0.00  0.00    +0.000 A 
ATOM     20  C   UNL     1       0.228  -3.895   0.935  0.00  0.00    +0.000 A 
ATOM     21  C   UNL     1       0.813  -4.560   1.999  0.00  0.00    +0.000 A 
ATOM     22  N   UNL     1       1.923  -4.121   2.634  0.00  0.00    +0.000 NA
ATOM     23  C   UNL     1       2.492  -2.998   2.151  0.00  0.00    +0.000 A 
BRANCH  21  24
ATOM     24  O   UNL     1       0.219  -5.747   2.407  0.00  0.00    +0.000 OA
BRANCH  24  25
ATOM     25  C   UNL     1       1.055  -6.712   2.926  0.00  0.00    +0.000 A 
ATOM     26  C   UNL     1       0.576  -7.458   4.001  0.00  0.00    +0.000 A 
ATOM     27  C   UNL     1       1.388  -8.439   4.583  0.00  0.00    +0.000 A 
ATOM     28  C   UNL     1       2.669  -8.671   4.082  0.00  0.00    +0.000 A 
ATOM     29  C   UNL     1       3.133  -7.950   2.984  0.00  0.00    +0.000 A 
ATOM     30  C   UNL     1       2.318  -6.988   2.390  0.00  0.00    +0.000 A 
ENDBRANCH  24  25
ENDBRANCH  21  24
ENDBRANCH   3  18
TORSDOF 4
