REMARK  Name = 
REMARK  7 active torsions:
REMARK  status: ('A' for Active; 'I' for Inactive)
REMARK    1  A    between atoms: C_1  and  N_2
REMARK    2  A    between atoms: C_4  and  C_5
REMARK    3  A    between atoms: N_7  and  C_8
REMARK    4  A    between atoms: C_8  and  C_9
REMARK    5  A    between atoms: C_12  and  C_13
REMARK    6  A    between atoms: C_16  and  C_17
REMARK    7  A    between atoms: N_27  and  C_28
REMARK                            x       y       z     vdW  Elec       q    Type
REMARK                         _______ _______ _______ _____ _____    ______ ____
ROOT
ATOM      1  C   UNL     1       6.469   5.081   0.032  0.00  0.00    +0.000 A 
ATOM      2  C   UNL     1       5.244   5.502   0.556  0.00  0.00    +0.000 A 
ATOM      3  C   UNL     1       4.928   6.860   0.612  0.00  0.00    +0.000 A 
ATOM      4  C   UNL     1       5.829   7.840   0.160  0.00  0.00    +0.000 A 
ATOM      5  C   UNL     1       7.059   7.398  -0.355  0.00  0.00    +0.000 A 
ATOM      6  C   UNL     1       7.371   6.041  -0.435  0.00  0.00    +0.000 A 
ENDROOT
BRANCH   4   7
ATOM      7  C   UNL     1       5.491   9.277   0.212  0.00  0.00    +0.000 A 
ATOM      8  C   UNL     1       4.666   9.807   1.214  0.00  0.00    +0.000 A 
ATOM      9  C   UNL     1       4.327  11.165   1.240  0.00  0.00    +0.000 A 
ATOM     10  C   UNL     1       4.830  12.061   0.284  0.00  0.00    +0.000 A 
ATOM     11  C   UNL     1       5.675  11.534  -0.701  0.00  0.00    +0.000 A 
ATOM     12  C   UNL     1       5.982  10.171  -0.750  0.00  0.00    +0.000 A 
BRANCH  10  13
ATOM     13  C   UNL     1       4.496  13.501   0.312  0.00  0.00    +0.000 A 
ATOM     14  C   UNL     1       4.245  14.177   1.519  0.00  0.00    +0.000 A 
ATOM     15  C   UNL     1       3.955  15.543   1.540  0.00  0.00    +0.000 A 
ATOM     16  C   UNL     1       3.924  16.268   0.353  0.00  0.00    +0.000 A 
ATOM     17  C   UNL     1       4.163  15.626  -0.856  0.00  0.00    +0.000 A 
ATOM     18  C   UNL     1       4.435  14.256  -0.875  0.00  0.00    +0.000 A 
ENDBRANCH  10  13
ENDBRANCH   4   7
BRANCH   1  19
ATOM     19  C   UNL     1       6.812   3.623  -0.043  0.00  0.00    +0.000 C 
BRANCH  19  22
ATOM     20  C   UNL     1       6.549   1.678  -1.471  0.00  0.00    +0.000 C 
ATOM     21  O   UNL     1       7.133   0.984  -0.645  0.00  0.00    +0.000 OA
ATOM     22  N   UNL     1       6.325   3.018  -1.259  0.00  0.00    +0.000 N 
ATOM     23  H   UNL     1       5.955   3.617  -1.985  0.00  0.00    +0.000 HD
BRANCH  20  27
ATOM     24  C   UNL     1       3.921   0.953  -5.669  0.00  0.00    +0.000 C 
ATOM     25  N   UNL     1       4.885   0.797  -4.619  0.00  0.00    +0.000 N 
ATOM     26  C   UNL     1       5.086   1.636  -3.544  0.00  0.00    +0.000 A 
ATOM     27  C   UNL     1       6.059   1.123  -2.764  0.00  0.00    +0.000 A 
ATOM     28  N   UNL     1       6.489  -0.067  -3.337  0.00  0.00    +0.000 N 
ATOM     29  C   UNL     1       7.493  -0.984  -2.876  0.00  0.00    +0.000 C 
ATOM     30  C   UNL     1       5.755  -0.306  -4.519  0.00  0.00    +0.000 A 
ATOM     31  O   UNL     1       5.846  -1.253  -5.280  0.00  0.00    +0.000 OA
ENDBRANCH  20  27
ENDBRANCH  19  22
ENDBRANCH   1  19
TORSDOF 5
