REMARK  Name = 
REMARK  5 active torsions:
REMARK  status: ('A' for Active; 'I' for Inactive)
REMARK    1  A    between atoms: C_1  and  N_2
REMARK    2  A    between atoms: C_8  and  C_9
REMARK    3  A    between atoms: N_11  and  C_12
REMARK    4  A    between atoms: C_18  and  N_19
REMARK    5  A    between atoms: C_20  and  C_22
REMARK                            x       y       z     vdW  Elec       q    Type
REMARK                         _______ _______ _______ _____ _____    ______ ____
ROOT
ATOM      1  C   UNL     1       8.760  -1.085   0.294  0.00  0.00    +0.000 C 
ATOM      2  O   UNL     1       9.250   0.034   0.374  0.00  0.00    +0.000 OA
ATOM      3  N   UNL     1       9.455  -2.264   0.090  0.00  0.00    +0.000 N 
ATOM      4  H   UNL     1       8.921  -2.987  -0.381  0.00  0.00    +0.000 HD
ENDROOT
BRANCH   1  12
ATOM      5  C   UNL     1       0.890  -0.274   0.201  0.00  0.00    +0.000 C 
ATOM      6  N   UNL     1       2.336  -0.268   0.081  0.00  0.00    +0.000 N 
ATOM      7  C   UNL     1       2.947   0.774  -0.600  0.00  0.00    +0.000 A 
ATOM      8  O   UNL     1       2.342   1.704  -1.132  0.00  0.00    +0.000 OA
ATOM      9  N   UNL     1       4.313   0.744  -0.668  0.00  0.00    +0.000 N 
ATOM     10  C   UNL     1       5.099  -0.261  -0.112  0.00  0.00    +0.000 A 
ATOM     11  C   UNL     1       6.491  -0.199  -0.217  0.00  0.00    +0.000 A 
ATOM     12  C   UNL     1       7.277  -1.219   0.342  0.00  0.00    +0.000 A 
ATOM     13  C   UNL     1       6.664  -2.302   0.988  0.00  0.00    +0.000 A 
ATOM     14  C   UNL     1       5.270  -2.349   1.097  0.00  0.00    +0.000 A 
ATOM     15  C   UNL     1       4.493  -1.320   0.551  0.00  0.00    +0.000 A 
ATOM     16  C   UNL     1       3.022  -1.321   0.680  0.00  0.00    +0.000 A 
ATOM     17  O   UNL     1       2.477  -2.230   1.307  0.00  0.00    +0.000 OA
ATOM     18  H   UNL     1       4.733   1.522  -1.160  0.00  0.00    +0.000 HD
ENDBRANCH   1  12
BRANCH   3  19
ATOM     19  C   UNL     1      10.860  -2.311  -0.120  0.00  0.00    +0.000 A 
ATOM     20  C   UNL     1      11.277  -3.035  -1.251  0.00  0.00    +0.000 A 
ATOM     21  C   UNL     1      12.624  -3.118  -1.574  0.00  0.00    +0.000 A 
ATOM     22  F   UNL     1      12.996  -3.765  -2.685  0.00  0.00    +0.000 F 
ATOM     23  C   UNL     1      13.584  -2.539  -0.767  0.00  0.00    +0.000 A 
ATOM     24  C   UNL     1      13.185  -1.853   0.381  0.00  0.00    +0.000 A 
ATOM     25  C   UNL     1      11.828  -1.710   0.722  0.00  0.00    +0.000 A 
BRANCH  25  26
ATOM     26  N   UNL     1      11.452  -1.059   1.926  0.00  0.00    +0.000 N 
ATOM     27  C   UNL     1      12.271  -0.298   2.748  0.00  0.00    +0.000 C 
ATOM     28  O   UNL     1      13.453  -0.020   2.545  0.00  0.00    +0.000 OA
ATOM     29  H   UNL     1      10.466  -1.051   2.171  0.00  0.00    +0.000 HD
BRANCH  27  30
ATOM     30  C   UNL     1      11.628   0.234   3.990  0.00  0.00    +0.000 A 
ATOM     31  C   UNL     1      12.384   1.038   4.844  0.00  0.00    +0.000 A 
ATOM     32  C   UNL     1      11.792   1.524   6.003  0.00  0.00    +0.000 A 
ATOM     33  C   UNL     1      10.469   1.191   6.272  0.00  0.00    +0.000 A 
ATOM     34  C   UNL     1       9.792   0.378   5.370  0.00  0.00    +0.000 A 
ATOM     35  N   UNL     1      10.334  -0.116   4.233  0.00  0.00    +0.000 NA
ENDBRANCH  27  30
ENDBRANCH  25  26
ENDBRANCH   3  19
TORSDOF 4
