REMARK  Name = 
REMARK  4 active torsions:
REMARK  status: ('A' for Active; 'I' for Inactive)
REMARK    1  A    between atoms: C_2  and  C_15
REMARK    2  A    between atoms: N_3  and  C_4
REMARK    3  A    between atoms: C_8  and  C_9
REMARK    4  A    between atoms: N_17  and  C_18
REMARK                            x       y       z     vdW  Elec       q    Type
REMARK                         _______ _______ _______ _____ _____    ______ ____
ROOT
ATOM      1  O   UNL     1       1.126  -0.450  -0.070  0.00  0.00    +0.000 OA
ATOM      2  C   UNL     1       2.309  -0.127  -0.034  0.00  0.00    +0.000 C 
ATOM      3  N   UNL     1       2.960   0.607  -1.000  0.00  0.00    +0.000 N 
ATOM      4  H   UNL     1       3.946   0.800  -0.907  0.00  0.00    +0.000 HD
ENDROOT
BRANCH   2   5
ATOM      5  C   UNL     1       3.165  -0.502   1.145  0.00  0.00    +0.000 A 
ATOM      6  C   UNL     1       2.742  -1.542   1.885  0.00  0.00    +0.000 A 
ATOM      7  N   UNL     1       3.348  -1.901   3.081  0.00  0.00    +0.000 N 
ATOM      8  C   UNL     1       4.436  -1.178   3.597  0.00  0.00    +0.000 A 
ATOM      9  O   UNL     1       5.023  -1.399   4.653  0.00  0.00    +0.000 OA
ATOM     10  C   UNL     1       4.929  -0.065   2.743  0.00  0.00    +0.000 A 
ATOM     11  C   UNL     1       4.317   0.252   1.595  0.00  0.00    +0.000 A 
BRANCH   7  12
ATOM     12  C   UNL     1       2.803  -2.973   3.854  0.00  0.00    +0.000 A 
ATOM     13  C   UNL     1       2.426  -2.769   5.185  0.00  0.00    +0.000 A 
ATOM     14  C   UNL     1       1.813  -3.800   5.888  0.00  0.00    +0.000 A 
ATOM     15  F   UNL     1       1.392  -3.582   7.141  0.00  0.00    +0.000 F 
ATOM     16  C   UNL     1       1.603  -5.045   5.307  0.00  0.00    +0.000 A 
ATOM     17  C   UNL     1       2.003  -5.265   3.990  0.00  0.00    +0.000 A 
ATOM     18  C   UNL     1       2.581  -4.226   3.258  0.00  0.00    +0.000 A 
ENDBRANCH   7  12
ENDBRANCH   2   5
BRANCH   3  19
ATOM     19  C   UNL     1       2.336   1.166  -2.110  0.00  0.00    +0.000 A 
ATOM     20  C   UNL     1       1.085   0.892  -2.606  0.00  0.00    +0.000 A 
ATOM     21  O   UNL     1       0.869   1.621  -3.725  0.00  0.00    +0.000 OA
ATOM     22  N   UNL     1       1.970   2.408  -3.984  0.00  0.00    +0.000 NA
ATOM     23  C   UNL     1       2.856   2.156  -3.005  0.00  0.00    +0.000 A 
BRANCH  23  24
ATOM     24  C   UNL     1       4.137   2.866  -2.951  0.00  0.00    +0.000 A 
ATOM     25  C   UNL     1       4.733   3.204  -1.725  0.00  0.00    +0.000 A 
ATOM     26  C   UNL     1       5.981   3.832  -1.688  0.00  0.00    +0.000 A 
ATOM     27  C   UNL     1       6.629   4.163  -2.874  0.00  0.00    +0.000 A 
ATOM     28  C   UNL     1       6.028   3.877  -4.098  0.00  0.00    +0.000 A 
ATOM     29  C   UNL     1       4.789   3.232  -4.136  0.00  0.00    +0.000 A 
ENDBRANCH  23  24
ENDBRANCH   3  19
TORSDOF 4
