REMARK  Name = 
REMARK  3 active torsions:
REMARK  status: ('A' for Active; 'I' for Inactive)
REMARK    1  A    between atoms: C_2  and  C_17
REMARK    2  A    between atoms: N_3  and  C_4
REMARK    3  A    between atoms: N_6  and  C_7
REMARK                            x       y       z     vdW  Elec       q    Type
REMARK                         _______ _______ _______ _____ _____    ______ ____
ROOT
ATOM      1  O   UNL     1       1.376  -1.040   0.370  0.00  0.00    +0.000 OA
ATOM      2  C   UNL     1       2.251  -0.178   0.331  0.00  0.00    +0.000 C 
ATOM      3  N   UNL     1       2.432   0.827   1.260  0.00  0.00    +0.000 N 
ATOM      4  H   UNL     1       3.216   1.460   1.106  0.00  0.00    +0.000 HD
ENDROOT
BRANCH   2   5
ATOM      5  C   UNL     1       3.353  -0.303  -0.659  0.00  0.00    +0.000 A 
ATOM      6  C   UNL     1       3.291  -1.360  -1.492  0.00  0.00    +0.000 A 
ATOM      7  N   UNL     1       4.405  -2.111  -1.866  0.00  0.00    +0.000 N 
ATOM      8  C   UNL     1       5.457  -2.038  -0.904  0.00  0.00    +0.000 A 
ATOM      9  C   UNL     1       6.102  -3.191  -0.472  0.00  0.00    +0.000 A 
ATOM     10  C   UNL     1       7.034  -3.101   0.565  0.00  0.00    +0.000 A 
ATOM     11  C   UNL     1       7.371  -1.856   1.103  0.00  0.00    +0.000 A 
ATOM     12  F   UNL     1       8.260  -1.793   2.101  0.00  0.00    +0.000 F 
ATOM     13  C   UNL     1       6.743  -0.693   0.683  0.00  0.00    +0.000 A 
ATOM     14  C   UNL     1       5.744  -0.811  -0.275  0.00  0.00    +0.000 A 
ATOM     15  C   UNL     1       4.711   0.240  -0.395  0.00  0.00    +0.000 A 
ATOM     16  O   UNL     1       4.905   1.413  -0.108  0.00  0.00    +0.000 OA
ATOM     17  H   UNL     1       4.763  -1.749  -2.757  0.00  0.00    +0.000 HD
ENDBRANCH   2   5
BRANCH   3  18
ATOM     18  C   UNL     1       1.765   0.944   2.460  0.00  0.00    +0.000 A 
ATOM     19  C   UNL     1       0.677   0.240   2.812  0.00  0.00    +0.000 A 
ATOM     20  N   UNL     1       0.032   0.364   4.043  0.00  0.00    +0.000 N 
ATOM     21  C   UNL     1       0.515   1.274   4.995  0.00  0.00    +0.000 A 
ATOM     22  O   UNL     1       0.070   1.486   6.132  0.00  0.00    +0.000 OA
ATOM     23  C   UNL     1       1.735   2.042   4.617  0.00  0.00    +0.000 A 
ATOM     24  C   UNL     1       2.308   1.876   3.422  0.00  0.00    +0.000 A 
BRANCH  20  25
ATOM     25  C   UNL     1      -1.123  -0.450   4.335  0.00  0.00    +0.000 A 
ATOM     26  C   UNL     1      -2.171   0.023   5.137  0.00  0.00    +0.000 A 
ATOM     27  C   UNL     1      -3.299  -0.765   5.393  0.00  0.00    +0.000 A 
ATOM     28  C   UNL     1      -3.395  -2.048   4.863  0.00  0.00    +0.000 A 
ATOM     29  C   UNL     1      -2.368  -2.541   4.067  0.00  0.00    +0.000 A 
ATOM     30  C   UNL     1      -1.246  -1.748   3.799  0.00  0.00    +0.000 A 
ENDBRANCH  20  25
ENDBRANCH   3  18
TORSDOF 3
