REMARK  Name = 
REMARK  5 active torsions:
REMARK  status: ('A' for Active; 'I' for Inactive)
REMARK    1  A    between atoms: C_2  and  C_18
REMARK    2  A    between atoms: N_3  and  C_4
REMARK    3  A    between atoms: C_4  and  C_5
REMARK    4  A    between atoms: C_6  and  C_7
REMARK    5  A    between atoms: N_22  and  C_23
REMARK                            x       y       z     vdW  Elec       q    Type
REMARK                         _______ _______ _______ _____ _____    ______ ____
ROOT
ATOM      1  O   UNL     1       0.925   0.036  -0.046  0.00  0.00    +0.000 OA
ATOM      2  C   UNL     1       2.149   0.035  -0.102  0.00  0.00    +0.000 C 
ATOM      3  N   UNL     1       2.845   0.853  -0.957  0.00  0.00    +0.000 N 
ATOM      4  H   UNL     1       3.817   0.647  -1.133  0.00  0.00    +0.000 HD
ENDROOT
BRANCH   2   5
ATOM      5  C   UNL     1       2.988  -0.794   0.725  0.00  0.00    +0.000 A 
ATOM      6  C   UNL     1       4.211  -0.473   1.290  0.00  0.00    +0.000 A 
ATOM      7  N   UNL     1       4.628  -1.424   2.174  0.00  0.00    +0.000 NA
ATOM      8  C   UNL     1       3.679  -2.330   2.156  0.00  0.00    +0.000 A 
ATOM      9  N   UNL     1       2.680  -2.044   1.246  0.00  0.00    +0.000 N 
BRANCH   9  10
ATOM     10  C   UNL     1       1.623  -2.929   0.897  0.00  0.00    +0.000 A 
ATOM     11  C   UNL     1       1.133  -3.837   1.845  0.00  0.00    +0.000 A 
ATOM     12  C   UNL     1       0.119  -4.720   1.486  0.00  0.00    +0.000 A 
ATOM     13  F   UNL     1      -0.362  -5.571   2.402  0.00  0.00    +0.000 F 
ATOM     14  C   UNL     1      -0.405  -4.734   0.199  0.00  0.00    +0.000 A 
ATOM     15  C   UNL     1       0.088  -3.843  -0.750  0.00  0.00    +0.000 A 
ATOM     16  C   UNL     1       1.098  -2.939  -0.404  0.00  0.00    +0.000 A 
ENDBRANCH   9  10
ENDBRANCH   2   5
BRANCH   3  17
ATOM     17  C   UNL     1       2.166   1.661  -1.942  0.00  0.00    +0.000 C 
BRANCH  17  18
ATOM     18  C   UNL     1       1.996   0.915  -3.225  0.00  0.00    +0.000 A 
ATOM     19  C   UNL     1       1.389   1.341  -4.398  0.00  0.00    +0.000 A 
ATOM     20  O   UNL     1       1.424   0.290  -5.280  0.00  0.00    +0.000 OA
ATOM     21  C   UNL     1       2.070  -0.697  -4.607  0.00  0.00    +0.000 A 
ATOM     22  N   UNL     1       2.442  -0.389  -3.387  0.00  0.00    +0.000 NA
BRANCH  19  23
ATOM     23  C   UNL     1       0.777   2.567  -4.894  0.00  0.00    +0.000 A 
ATOM     24  C   UNL     1      -0.289   2.515  -5.809  0.00  0.00    +0.000 A 
ATOM     25  C   UNL     1      -0.861   3.694  -6.304  0.00  0.00    +0.000 A 
ATOM     26  C   UNL     1      -0.371   4.927  -5.887  0.00  0.00    +0.000 A 
ATOM     27  F   UNL     1      -0.914   6.051  -6.369  0.00  0.00    +0.000 F 
ATOM     28  C   UNL     1       0.675   5.007  -4.984  0.00  0.00    +0.000 A 
ATOM     29  C   UNL     1       1.241   3.831  -4.502  0.00  0.00    +0.000 A 
ATOM     30  F   UNL     1       2.282   3.949  -3.668  0.00  0.00    +0.000 F 
ENDBRANCH  19  23
ENDBRANCH  17  18
ENDBRANCH   3  17
TORSDOF 5
