REMARK  Name = 
REMARK  8 active torsions:
REMARK  status: ('A' for Active; 'I' for Inactive)
REMARK    1  A    between atoms: C_1  and  O_2
REMARK    2  A    between atoms: O_2  and  C_3
REMARK    3  A    between atoms: C_10  and  C_11
REMARK    4  A    between atoms: C_11  and  O_12
REMARK    5  A    between atoms: O_12  and  C_13
REMARK    6  A    between atoms: C_13  and  C_15
REMARK    7  A    between atoms: C_19  and  C_20
REMARK    8  A    between atoms: C_20  and  C_21
REMARK                            x       y       z     vdW  Elec       q    Type
REMARK                         _______ _______ _______ _____ _____    ______ ____
ROOT
ATOM      1  O   UNL     1       9.225   1.802  -4.949  0.00  0.00    +0.000 OA
ENDROOT
BRANCH   1   2
ATOM      2  C   UNL     1      10.325   1.426  -5.643  0.00  0.00    +0.000 C 
ATOM      3  O   UNL     1      10.746   0.290  -5.774  0.00  0.00    +0.000 OA
BRANCH   2   4
ATOM      4  C   UNL     1      10.991   2.624  -6.234  0.00  0.00    +0.000 A 
ATOM      5  C   UNL     1      10.498   3.921  -6.039  0.00  0.00    +0.000 A 
ATOM      6  C   UNL     1      11.147   5.012  -6.618  0.00  0.00    +0.000 A 
ATOM      7  C   UNL     1      12.304   4.819  -7.374  0.00  0.00    +0.000 A 
ATOM      8  C   UNL     1      12.844   3.535  -7.541  0.00  0.00    +0.000 A 
ATOM      9  C   UNL     1      12.165   2.438  -6.984  0.00  0.00    +0.000 A 
BRANCH   8  10
ATOM     10  C   UNL     1      14.174   3.360  -8.238  0.00  0.00    +0.000 C 
BRANCH  10  11
ATOM     11  C   UNL     1      14.132   3.128  -9.730  0.00  0.00    +0.000 A 
ATOM     12  C   UNL     1      14.043   1.834 -10.240  0.00  0.00    +0.000 A 
ATOM     13  C   UNL     1      14.164   1.639 -11.614  0.00  0.00    +0.000 A 
ATOM     14  C   UNL     1      14.353   2.737 -12.444  0.00  0.00    +0.000 A 
ATOM     15  C   UNL     1      14.398   3.992 -11.863  0.00  0.00    +0.000 A 
ATOM     16  N   UNL     1      14.295   4.212 -10.532  0.00  0.00    +0.000 NA
ENDBRANCH  10  11
ENDBRANCH   8  10
ENDBRANCH   2   4
ENDBRANCH   1   2
BRANCH   1  17
ATOM     17  C   UNL     1       8.493   0.771  -4.257  0.00  0.00    +0.000 C 
BRANCH  17  25
ATOM     18  C   UNL     1       9.546   3.448   1.323  0.00  0.00    +0.000 A 
ATOM     19  C   UNL     1       8.830   2.509   2.067  0.00  0.00    +0.000 A 
ATOM     20  C   UNL     1       8.203   1.431   1.430  0.00  0.00    +0.000 A 
ATOM     21  C   UNL     1       8.294   1.301   0.045  0.00  0.00    +0.000 A 
ATOM     22  N   UNL     1       7.653   0.243  -0.609  0.00  0.00    +0.000 N 
ATOM     23  C   UNL     1       7.682   0.060  -1.968  0.00  0.00    +0.000 A 
ATOM     24  O   UNL     1       7.077  -0.868  -2.496  0.00  0.00    +0.000 OA
ATOM     25  C   UNL     1       8.476   1.037  -2.774  0.00  0.00    +0.000 A 
ATOM     26  C   UNL     1       9.100   2.056  -2.157  0.00  0.00    +0.000 A 
ATOM     27  C   UNL     1       9.019   2.228  -0.708  0.00  0.00    +0.000 A 
ATOM     28  C   UNL     1       9.643   3.299  -0.066  0.00  0.00    +0.000 A 
ATOM     29  H   UNL     1       7.115  -0.432  -0.084  0.00  0.00    +0.000 HD
BRANCH  18  31
ATOM     30  C   UNL     1      10.053   4.795   3.215  0.00  0.00    +0.000 C 
ATOM     31  O   UNL     1      10.189   4.548   1.821  0.00  0.00    +0.000 OA
ENDBRANCH  18  31
ENDBRANCH  17  25
ENDBRANCH   1  17
TORSDOF 7
