REMARK  Name = 
REMARK  4 active torsions:
REMARK  status: ('A' for Active; 'I' for Inactive)
REMARK    1  A    between atoms: C_1  and  C_2
REMARK    2  A    between atoms: C_6  and  C_7
REMARK    3  A    between atoms: C_13  and  C_15
REMARK    4  A    between atoms: C_19  and  C_20
REMARK                            x       y       z     vdW  Elec       q    Type
REMARK                         _______ _______ _______ _____ _____    ______ ____
ROOT
ATOM      1  C   UNL     1      -2.139   4.629  -1.089  0.00  0.00    +0.000 A 
ATOM      2  N   UNL     1      -1.487   3.450  -1.096  0.00  0.00    +0.000 NA
ATOM      3  C   UNL     1      -1.664   2.655  -0.030  0.00  0.00    +0.000 A 
ATOM      4  C   UNL     1      -2.465   2.984   1.038  0.00  0.00    +0.000 A 
ATOM      5  C   UNL     1      -3.102   4.203   0.962  0.00  0.00    +0.000 A 
ATOM      6  N   UNL     1      -3.938   4.582   2.020  0.00  0.00    +0.000 N 
ATOM      7  C   UNL     1      -4.602   5.795   2.093  0.00  0.00    +0.000 C 
ATOM      8  O   UNL     1      -4.546   6.697   1.266  0.00  0.00    +0.000 OA
ATOM      9  N   UNL     1      -2.942   5.024  -0.083  0.00  0.00    +0.000 NA
ATOM     10  H   UNL     1      -4.082   3.938   2.788  0.00  0.00    +0.000 HD
ENDROOT
BRANCH   1  16
ATOM     11  C   UNL     1       0.090   5.542  -5.298  0.00  0.00    +0.000 C 
ATOM     12  C   UNL     1      -0.882   6.015  -4.263  0.00  0.00    +0.000 A 
ATOM     13  C   UNL     1      -1.516   7.247  -4.378  0.00  0.00    +0.000 A 
ATOM     14  C   UNL     1      -2.406   7.634  -3.384  0.00  0.00    +0.000 A 
ATOM     15  C   UNL     1      -2.630   6.787  -2.301  0.00  0.00    +0.000 A 
ATOM     16  C   UNL     1      -1.959   5.562  -2.232  0.00  0.00    +0.000 A 
ATOM     17  N   UNL     1      -1.093   5.184  -3.216  0.00  0.00    +0.000 NA
ENDBRANCH   1  16
BRANCH   7  18
ATOM     18  C   UNL     1      -5.403   5.947   3.315  0.00  0.00    +0.000 A 
ATOM     19  N   UNL     1      -5.802   4.868   4.016  0.00  0.00    +0.000 NA
ATOM     20  O   UNL     1      -6.615   5.352   5.022  0.00  0.00    +0.000 OA
ATOM     21  C   UNL     1      -6.659   6.704   4.961  0.00  0.00    +0.000 A 
ATOM     22  C   UNL     1      -5.881   7.154   3.920  0.00  0.00    +0.000 A 
BRANCH  22  23
ATOM     23  C   UNL     1      -5.657   8.560   3.608  0.00  0.00    +0.000 A 
ATOM     24  C   UNL     1      -4.406   8.990   3.135  0.00  0.00    +0.000 A 
ATOM     25  C   UNL     1      -4.194  10.326   2.781  0.00  0.00    +0.000 A 
ATOM     26  C   UNL     1      -5.223  11.246   2.928  0.00  0.00    +0.000 A 
ATOM     27  F   UNL     1      -5.021  12.523   2.580  0.00  0.00    +0.000 F 
ATOM     28  C   UNL     1      -6.457  10.860   3.429  0.00  0.00    +0.000 A 
ATOM     29  C   UNL     1      -6.665   9.524   3.766  0.00  0.00    +0.000 A 
ATOM     30  F   UNL     1      -7.872   9.180   4.241  0.00  0.00    +0.000 F 
ENDBRANCH  22  23
ENDBRANCH   7  18
TORSDOF 3
