REMARK  Name = 
REMARK  5 active torsions:
REMARK  status: ('A' for Active; 'I' for Inactive)
REMARK    1  A    between atoms: C_1  and  O_2
REMARK    2  A    between atoms: O_2  and  C_3
REMARK    3  A    between atoms: C_9  and  C_10
REMARK    4  A    between atoms: C_15  and  C_16
REMARK    5  A    between atoms: C_21  and  C_22
REMARK                            x       y       z     vdW  Elec       q    Type
REMARK                         _______ _______ _______ _____ _____    ______ ____
ROOT
ATOM      1  C   UNL     1       7.325   5.365   0.378  0.00  0.00    +0.000 C 
ATOM      2  O   UNL     1       7.335   5.185  -0.833  0.00  0.00    +0.000 OA
ATOM      3  N   UNL     1       8.121   6.242   1.101  0.00  0.00    +0.000 N 
ATOM      4  C   UNL     1       9.006   7.168   0.522  0.00  0.00    +0.000 A 
ATOM      5  N   UNL     1       8.897   7.477  -0.781  0.00  0.00    +0.000 NA
ATOM      6  C   UNL     1       9.761   8.361  -1.334  0.00  0.00    +0.000 A 
ATOM      7  C   UNL     1      10.762   8.965  -0.581  0.00  0.00    +0.000 A 
ATOM      8  C   UNL     1      10.868   8.656   0.769  0.00  0.00    +0.000 A 
ATOM      9  C   UNL     1       9.968   7.756   1.335  0.00  0.00    +0.000 A 
ATOM     10  H   UNL     1       8.157   6.154   2.105  0.00  0.00    +0.000 HD
ENDROOT
BRANCH   1  17
ATOM     11  C   UNL     1       3.650   3.944   4.947  0.00  0.00    +0.000 A 
ATOM     12  C   UNL     1       3.326   2.661   4.547  0.00  0.00    +0.000 A 
ATOM     13  N   UNL     1       3.828   2.105   3.414  0.00  0.00    +0.000 NA
ATOM     14  C   UNL     1       4.661   2.881   2.687  0.00  0.00    +0.000 A 
ATOM     15  C   UNL     1       5.226   2.417   1.506  0.00  0.00    +0.000 A 
ATOM     16  C   UNL     1       6.095   3.218   0.753  0.00  0.00    +0.000 A 
ATOM     17  C   UNL     1       6.416   4.509   1.189  0.00  0.00    +0.000 A 
ATOM     18  C   UNL     1       5.833   4.991   2.356  0.00  0.00    +0.000 A 
ATOM     19  C   UNL     1       4.981   4.195   3.107  0.00  0.00    +0.000 A 
ATOM     20  N   UNL     1       4.485   4.721   4.231  0.00  0.00    +0.000 NA
BRANCH  11  22
ATOM     21  C   UNL     1       3.554   5.768   6.385  0.00  0.00    +0.000 C 
ATOM     22  O   UNL     1       3.099   4.443   6.106  0.00  0.00    +0.000 OA
ENDBRANCH  11  22
ENDBRANCH   1  17
BRANCH   6  23
ATOM     23  C   UNL     1       9.577   8.601  -2.778  0.00  0.00    +0.000 A 
ATOM     24  C   UNL     1      10.648   8.967  -3.609  0.00  0.00    +0.000 A 
ATOM     25  C   UNL     1      10.470   9.108  -4.982  0.00  0.00    +0.000 A 
ATOM     26  F   UNL     1      11.520   9.433  -5.745  0.00  0.00    +0.000 F 
ATOM     27  C   UNL     1       9.235   8.893  -5.572  0.00  0.00    +0.000 A 
ATOM     28  C   UNL     1       8.150   8.541  -4.768  0.00  0.00    +0.000 A 
ATOM     29  C   UNL     1       8.319   8.415  -3.384  0.00  0.00    +0.000 A 
BRANCH  28  30
ATOM     30  C   UNL     1       6.874   8.283  -5.364  0.00  0.00    +0.000 C 
ATOM     31  N   UNL     1       5.845   8.076  -5.868  0.00  0.00    +0.000 NA
ENDBRANCH  28  30
ENDBRANCH   6  23
TORSDOF 4
