REMARK  Name = 
REMARK  5 active torsions:
REMARK  status: ('A' for Active; 'I' for Inactive)
REMARK    1  A    between atoms: C_2  and  C_16
REMARK    2  A    between atoms: N_3  and  C_4
REMARK    3  A    between atoms: C_4  and  C_5
REMARK    4  A    between atoms: C_9  and  N_10
REMARK    5  A    between atoms: C_19  and  C_20
REMARK                            x       y       z     vdW  Elec       q    Type
REMARK                         _______ _______ _______ _____ _____    ______ ____
ROOT
ATOM      1  O   UNL     1       0.978  -0.057  -0.454  0.00  0.00    +0.000 OA
ATOM      2  C   UNL     1       2.180  -0.068  -0.207  0.00  0.00    +0.000 C 
ATOM      3  N   UNL     1       2.941   1.075  -0.137  0.00  0.00    +0.000 N 
ATOM      4  H   UNL     1       3.935   0.970   0.045  0.00  0.00    +0.000 HD
ENDROOT
BRANCH   2   5
ATOM      5  C   UNL     1       2.909  -1.320   0.022  0.00  0.00    +0.000 A 
ATOM      6  N   UNL     1       4.209  -1.361   0.352  0.00  0.00    +0.000 NA
ATOM      7  O   UNL     1       4.529  -2.710   0.456  0.00  0.00    +0.000 OA
ATOM      8  C   UNL     1       3.428  -3.468   0.184  0.00  0.00    +0.000 A 
ATOM      9  C   UNL     1       2.374  -2.627  -0.076  0.00  0.00    +0.000 A 
BRANCH   8  10
ATOM     10  C   UNL     1       3.603  -4.913   0.173  0.00  0.00    +0.000 A 
ATOM     11  C   UNL     1       4.555  -5.560   0.971  0.00  0.00    +0.000 A 
ATOM     12  F   UNL     1       5.330  -4.859   1.813  0.00  0.00    +0.000 F 
ATOM     13  C   UNL     1       4.719  -6.944   0.938  0.00  0.00    +0.000 A 
ATOM     14  C   UNL     1       3.920  -7.702   0.094  0.00  0.00    +0.000 A 
ATOM     15  F   UNL     1       4.076  -9.031   0.052  0.00  0.00    +0.000 F 
ATOM     16  C   UNL     1       2.961  -7.101  -0.706  0.00  0.00    +0.000 A 
ATOM     17  C   UNL     1       2.808  -5.718  -0.656  0.00  0.00    +0.000 A 
ATOM     18  F   UNL     1       1.875  -5.165  -1.446  0.00  0.00    +0.000 F 
ENDBRANCH   8  10
ENDBRANCH   2   5
BRANCH   3  19
ATOM     19  C   UNL     1       2.380   2.388  -0.343  0.00  0.00    +0.000 C 
BRANCH  19  20
ATOM     20  C   UNL     1       3.044   3.082  -1.504  0.00  0.00    +0.000 A 
ATOM     21  C   UNL     1       4.111   3.959  -1.283  0.00  0.00    +0.000 A 
ATOM     22  C   UNL     1       4.752   4.571  -2.357  0.00  0.00    +0.000 A 
ATOM     23  C   UNL     1       4.356   4.290  -3.666  0.00  0.00    +0.000 A 
ATOM     24  C   UNL     1       3.309   3.391  -3.915  0.00  0.00    +0.000 A 
ATOM     25  C   UNL     1       2.638   2.811  -2.825  0.00  0.00    +0.000 A 
BRANCH  24  26
ATOM     26  N   UNL     1       2.980   3.024  -5.254  0.00  0.00    +0.000 N 
ATOM     27  C   UNL     1       3.642   3.393  -6.408  0.00  0.00    +0.000 A 
ATOM     28  C   UNL     1       3.044   2.700  -7.434  0.00  0.00    +0.000 A 
ATOM     29  N   UNL     1       2.000   1.957  -6.970  0.00  0.00    +0.000 NA
ATOM     30  C   UNL     1       1.974   2.177  -5.673  0.00  0.00    +0.000 A 
ENDBRANCH  24  26
ENDBRANCH  19  20
ENDBRANCH   3  19
TORSDOF 5
