REMARK  Name = 
REMARK  6 active torsions:
REMARK  status: ('A' for Active; 'I' for Inactive)
REMARK    1  A    between atoms: C_2  and  C_20
REMARK    2  A    between atoms: N_3  and  C_4
REMARK    3  A    between atoms: C_4  and  C_5
REMARK    4  A    between atoms: C_4  and  C_15
REMARK    5  A    between atoms: C_7  and  C_8
REMARK    6  A    between atoms: N_23  and  C_24
REMARK                            x       y       z     vdW  Elec       q    Type
REMARK                         _______ _______ _______ _____ _____    ______ ____
ROOT
ATOM      1  O   UNL     1       2.835   0.235  -1.003  0.00  0.00    +0.000 OA
ATOM      2  C   UNL     1       2.211   0.167   0.059  0.00  0.00    +0.000 C 
ATOM      3  N   UNL     1       2.918  -0.086   1.215  0.00  0.00    +0.000 N 
ATOM      4  H   UNL     1       3.910  -0.197   1.064  0.00  0.00    +0.000 HD
ENDROOT
BRANCH   2   5
ATOM      5  C   UNL     1       0.719   0.334   0.059  0.00  0.00    +0.000 A 
ATOM      6  C   UNL     1       0.069   0.543  -1.134  0.00  0.00    +0.000 A 
ATOM      7  C   UNL     1      -1.305   0.577  -1.069  0.00  0.00    +0.000 A 
ATOM      8  N   UNL     1      -2.032   0.640  -2.272  0.00  0.00    +0.000 N 
ATOM      9  N   UNL     1      -1.972   0.478   0.096  0.00  0.00    +0.000 NA
ATOM     10  C   UNL     1      -1.255   0.314   1.199  0.00  0.00    +0.000 A 
ATOM     11  N   UNL     1       0.068   0.225   1.232  0.00  0.00    +0.000 NA
ATOM     12  H   UNL     1      -1.766   1.444  -2.829  0.00  0.00    +0.000 HD
BRANCH   8  13
ATOM     13  C   UNL     1      -3.373   0.244  -2.425  0.00  0.00    +0.000 A 
ATOM     14  C   UNL     1      -4.221   0.947  -3.288  0.00  0.00    +0.000 A 
ATOM     15  C   UNL     1      -5.552   0.558  -3.444  0.00  0.00    +0.000 A 
ATOM     16  C   UNL     1      -6.049  -0.544  -2.751  0.00  0.00    +0.000 A 
ATOM     17  C   UNL     1      -5.216  -1.265  -1.902  0.00  0.00    +0.000 A 
ATOM     18  C   UNL     1      -3.886  -0.873  -1.746  0.00  0.00    +0.000 A 
ENDBRANCH   8  13
ENDBRANCH   2   5
BRANCH   3  19
ATOM     19  C   UNL     1       2.393  -0.321   2.553  0.00  0.00    +0.000 C 
BRANCH  19  20
ATOM     20  C   UNL     1       1.894  -1.754   2.722  0.00  0.00    +0.000 A 
ATOM     21  C   UNL     1       0.705  -1.987   3.439  0.00  0.00    +0.000 A 
ATOM     22  C   UNL     1       0.146  -3.272   3.539  0.00  0.00    +0.000 A 
ATOM     23  C   UNL     1       0.821  -4.349   2.949  0.00  0.00    +0.000 A 
ATOM     24  C   UNL     1       2.013  -4.141   2.255  0.00  0.00    +0.000 A 
ATOM     25  C   UNL     1       2.542  -2.854   2.135  0.00  0.00    +0.000 A 
BRANCH  22  26
ATOM     26  C   UNL     1      -1.175  -3.494   4.236  0.00  0.00    +0.000 C 
ATOM     27  F   UNL     1      -1.741  -2.346   4.703  0.00  0.00    +0.000 F 
ATOM     28  F   UNL     1      -2.107  -4.060   3.420  0.00  0.00    +0.000 F 
ATOM     29  F   UNL     1      -1.064  -4.321   5.311  0.00  0.00    +0.000 F 
ENDBRANCH  22  26
ENDBRANCH  19  20
BRANCH  19  30
ATOM     30  C   UNL     1       3.384   0.133   3.576  0.00  0.00    +0.000 A 
ATOM     31  N   UNL     1       3.505   1.366   4.031  0.00  0.00    +0.000 NA
ATOM     32  N   UNL     1       4.446   1.362   5.026  0.00  0.00    +0.000 NA
ATOM     33  C   UNL     1       4.881   0.134   5.154  0.00  0.00    +0.000 A 
ATOM     34  N   UNL     1       4.252  -0.674   4.257  0.00  0.00    +0.000 N 
ATOM     35  H   UNL     1       4.363  -1.669   4.150  0.00  0.00    +0.000 HD
ENDBRANCH  19  30
ENDBRANCH   3  19
TORSDOF 6
