REMARK  Name = 
REMARK  9 active torsions:
REMARK  status: ('A' for Active; 'I' for Inactive)
REMARK    1  A    between atoms: C_1  and  O_2
REMARK    2  A    between atoms: O_2  and  C_3
REMARK    3  A    between atoms: C_3  and  C_5
REMARK    4  A    between atoms: C_7  and  N_8
REMARK    5  A    between atoms: C_9  and  C_11
REMARK    6  A    between atoms: C_11  and  O_12
REMARK    7  A    between atoms: O_12  and  C_13
REMARK    8  A    between atoms: C_17  and  O_18
REMARK    9  A    between atoms: O_18  and  C_19
REMARK                            x       y       z     vdW  Elec       q    Type
REMARK                         _______ _______ _______ _____ _____    ______ ____
ROOT
ATOM      1  N   UNL     1       7.173   1.707   0.985  0.00  0.00    +0.000 N 
ATOM      2  C   UNL     1       6.553   2.948   1.092  0.00  0.00    +0.000 C 
ATOM      3  O   UNL     1       5.344   3.169   1.091  0.00  0.00    +0.000 OA
ATOM      4  H   UNL     1       8.189   1.721   1.017  0.00  0.00    +0.000 HD
ENDROOT
BRANCH   1   7
ATOM      5  C   UNL     1       4.524  -0.944   0.998  0.00  0.00    +0.000 A 
ATOM      6  C   UNL     1       5.157   0.311   0.994  0.00  0.00    +0.000 A 
ATOM      7  C   UNL     1       6.540   0.441   0.942  0.00  0.00    +0.000 A 
ATOM      8  C   UNL     1       7.338  -0.714   0.868  0.00  0.00    +0.000 A 
ATOM      9  C   UNL     1       6.700  -1.973   0.878  0.00  0.00    +0.000 A 
ATOM     10  C   UNL     1       5.311  -2.112   0.957  0.00  0.00    +0.000 A 
ATOM     11  C   UNL     1       5.029  -3.508   0.970  0.00  0.00    +0.000 A 
ATOM     12  C   UNL     1       6.226  -4.181   0.890  0.00  0.00    +0.000 A 
ATOM     13  N   UNL     1       7.227  -3.247   0.826  0.00  0.00    +0.000 N 
ATOM     14  H   UNL     1       8.211  -3.465   0.757  0.00  0.00    +0.000 HD
BRANCH   5  15
ATOM     15  C   UNL     1       3.054  -1.036   1.090  0.00  0.00    +0.000 C 
ATOM     16  O   UNL     1       2.445  -1.970   1.587  0.00  0.00    +0.000 OA
BRANCH  15  18
ATOM     17  C   UNL     1       1.073   0.085   0.565  0.00  0.00    +0.000 C 
ATOM     18  O   UNL     1       2.496   0.062   0.519  0.00  0.00    +0.000 OA
ENDBRANCH  15  18
ENDBRANCH   5  15
ENDBRANCH   1   7
BRANCH   2  19
ATOM     19  C   UNL     1       7.524   4.122   1.155  0.00  0.00    +0.000 C 
BRANCH  19  20
ATOM     20  O   UNL     1       8.733   3.703   1.773  0.00  0.00    +0.000 OA
BRANCH  20  21
ATOM     21  C   UNL     1       9.704   4.649   1.938  0.00  0.00    +0.000 A 
ATOM     22  C   UNL     1       9.636   5.981   1.523  0.00  0.00    +0.000 A 
ATOM     23  C   UNL     1      10.739   6.819   1.694  0.00  0.00    +0.000 A 
ATOM     24  C   UNL     1      11.899   6.335   2.292  0.00  0.00    +0.000 A 
ATOM     25  C   UNL     1      11.943   5.029   2.787  0.00  0.00    +0.000 A 
ATOM     26  C   UNL     1      10.855   4.181   2.579  0.00  0.00    +0.000 A 
BRANCH  25  27
ATOM     27  O   UNL     1      13.044   4.500   3.423  0.00  0.00    +0.000 OA
BRANCH  27  28
ATOM     28  C   UNL     1      13.733   5.320   4.313  0.00  0.00    +0.000 A 
ATOM     29  C   UNL     1      15.058   4.996   4.566  0.00  0.00    +0.000 A 
ATOM     30  C   UNL     1      15.777   5.804   5.444  0.00  0.00    +0.000 A 
ATOM     31  C   UNL     1      15.153   6.901   6.032  0.00  0.00    +0.000 A 
ATOM     32  C   UNL     1      13.825   7.140   5.726  0.00  0.00    +0.000 A 
ATOM     33  N   UNL     1      13.098   6.363   4.898  0.00  0.00    +0.000 NA
ENDBRANCH  27  28
ENDBRANCH  25  27
ENDBRANCH  20  21
ENDBRANCH  19  20
ENDBRANCH   2  19
TORSDOF 8
