REMARK  Name = 
REMARK  8 active torsions:
REMARK  status: ('A' for Active; 'I' for Inactive)
REMARK    1  A    between atoms: C_1  and  O_2
REMARK    2  A    between atoms: O_2  and  C_3
REMARK    3  A    between atoms: C_6  and  C_7
REMARK    4  A    between atoms: N_9  and  C_10
REMARK    5  A    between atoms: C_16  and  C_17
REMARK    6  A    between atoms: N_19  and  C_20
REMARK    7  A    between atoms: C_20  and  C_21
REMARK    8  A    between atoms: C_28  and  C_29
REMARK                            x       y       z     vdW  Elec       q    Type
REMARK                         _______ _______ _______ _____ _____    ______ ____
ROOT
ATOM      1  C   UNL     1       5.684  -7.070   0.174  0.00  0.00    +0.000 A 
ATOM      2  C   UNL     1       6.068  -7.538   1.440  0.00  0.00    +0.000 A 
ATOM      3  C   UNL     1       6.606  -8.810   1.594  0.00  0.00    +0.000 A 
ATOM      4  F   UNL     1       6.957  -9.233   2.816  0.00  0.00    +0.000 F 
ATOM      5  C   UNL     1       6.764  -9.659   0.510  0.00  0.00    +0.000 A 
ATOM      6  C   UNL     1       6.388  -9.218  -0.756  0.00  0.00    +0.000 A 
ATOM      7  C   UNL     1       5.862  -7.923  -0.941  0.00  0.00    +0.000 A 
ENDROOT
BRANCH   1  10
ATOM      8  C   UNL     1       5.062  -4.778   0.957  0.00  0.00    +0.000 C 
ATOM      9  O   UNL     1       5.669  -4.762   2.022  0.00  0.00    +0.000 OA
ATOM     10  N   UNL     1       5.072  -5.799   0.023  0.00  0.00    +0.000 N 
ATOM     11  H   UNL     1       4.688  -5.599  -0.898  0.00  0.00    +0.000 HD
BRANCH   8  15
ATOM     12  C   UNL     1       2.929  -1.208  -0.089  0.00  0.00    +0.000 A 
ATOM     13  C   UNL     1       4.079  -1.148   0.702  0.00  0.00    +0.000 A 
ATOM     14  C   UNL     1       4.755  -2.321   1.038  0.00  0.00    +0.000 A 
ATOM     15  C   UNL     1       4.298  -3.562   0.577  0.00  0.00    +0.000 A 
ATOM     16  C   UNL     1       3.133  -3.628  -0.194  0.00  0.00    +0.000 A 
ATOM     17  C   UNL     1       2.461  -2.450  -0.526  0.00  0.00    +0.000 A 
BRANCH  12  19
ATOM     18  C   UNL     1       2.606   1.143  -0.041  0.00  0.00    +0.000 C 
ATOM     19  O   UNL     1       2.180  -0.139  -0.493  0.00  0.00    +0.000 OA
ENDBRANCH  12  19
ENDBRANCH   8  15
ENDBRANCH   1  10
BRANCH   7  20
ATOM     20  C   UNL     1       5.501  -7.556  -2.344  0.00  0.00    +0.000 C 
ATOM     21  O   UNL     1       5.093  -8.418  -3.114  0.00  0.00    +0.000 OA
ATOM     22  N   UNL     1       5.670  -6.235  -2.701  0.00  0.00    +0.000 N 
ATOM     23  H   UNL     1       6.376  -5.707  -2.200  0.00  0.00    +0.000 HD
BRANCH  22  24
ATOM     24  C   UNL     1       5.469  -5.815  -4.077  0.00  0.00    +0.000 C 
BRANCH  24  25
ATOM     25  C   UNL     1       6.769  -5.878  -4.803  0.00  0.00    +0.000 A 
ATOM     26  C   UNL     1       7.109  -6.605  -5.925  0.00  0.00    +0.000 A 
ATOM     27  C   UNL     1       6.444  -7.521  -6.789  0.00  0.00    +0.000 A 
ATOM     28  C   UNL     1       7.121  -8.071  -7.816  0.00  0.00    +0.000 A 
ATOM     29  C   UNL     1       8.517  -7.753  -8.061  0.00  0.00    +0.000 A 
ATOM     30  C   UNL     1       9.143  -6.890  -7.246  0.00  0.00    +0.000 A 
ATOM     31  N   UNL     1       8.444  -6.315  -6.178  0.00  0.00    +0.000 N 
ATOM     32  C   UNL     1       8.843  -5.418  -5.202  0.00  0.00    +0.000 A 
ATOM     33  C   UNL     1      10.212  -4.849  -5.093  0.00  0.00    +0.000 C 
ATOM     34  N   UNL     1       7.853  -5.142  -4.368  0.00  0.00    +0.000 NA
ENDBRANCH  24  25
ENDBRANCH  22  24
ENDBRANCH   7  20
TORSDOF 6
