REMARK  Name = 
REMARK  5 active torsions:
REMARK  status: ('A' for Active; 'I' for Inactive)
REMARK    1  A    between atoms: C_2  and  C_14
REMARK    2  A    between atoms: N_3  and  C_4
REMARK    3  A    between atoms: C_17  and  C_18
REMARK    4  A    between atoms: C_18  and  C_20
REMARK    5  A    between atoms: C_22  and  O_23
REMARK                            x       y       z     vdW  Elec       q    Type
REMARK                         _______ _______ _______ _____ _____    ______ ____
ROOT
ATOM      1  C   UNL     1       3.146   1.148   0.115  0.00  0.00    +0.000 A 
ATOM      2  C   UNL     1       2.708   2.130   1.012  0.00  0.00    +0.000 A 
ATOM      3  C   UNL     1       3.434   3.311   1.168  0.00  0.00    +0.000 A 
ATOM      4  C   UNL     1       4.595   3.521   0.415  0.00  0.00    +0.000 A 
ATOM      5  C   UNL     1       5.057   2.514  -0.445  0.00  0.00    +0.000 A 
ATOM      6  C   UNL     1       4.323   1.336  -0.613  0.00  0.00    +0.000 A 
ENDROOT
BRANCH   1   8
ATOM      7  O   UNL     1       1.066   0.128  -0.019  0.00  0.00    +0.000 OA
ATOM      8  C   UNL     1       2.279  -0.038  -0.091  0.00  0.00    +0.000 C 
ATOM      9  N   UNL     1       2.926  -1.245  -0.298  0.00  0.00    +0.000 N 
ATOM     10  H   UNL     1       3.925  -1.284  -0.134  0.00  0.00    +0.000 HD
BRANCH   9  11
ATOM     11  C   UNL     1       2.259  -2.478  -0.486  0.00  0.00    +0.000 A 
ATOM     12  C   UNL     1       0.912  -2.589  -0.810  0.00  0.00    +0.000 A 
ATOM     13  N   UNL     1       0.254  -3.765  -0.927  0.00  0.00    +0.000 NA
ATOM     14  C   UNL     1       0.956  -4.884  -0.696  0.00  0.00    +0.000 A 
ATOM     15  C   UNL     1       0.303  -6.102  -0.731  0.00  0.00    +0.000 A 
ATOM     16  C   UNL     1       0.989  -7.283  -0.472  0.00  0.00    +0.000 A 
ATOM     17  C   UNL     1       2.340  -7.200  -0.196  0.00  0.00    +0.000 A 
ATOM     18  N   UNL     1       3.026  -6.036  -0.160  0.00  0.00    +0.000 NA
ATOM     19  C   UNL     1       2.336  -4.900  -0.397  0.00  0.00    +0.000 A 
ATOM     20  C   UNL     1       2.972  -3.666  -0.321  0.00  0.00    +0.000 A 
ENDBRANCH   9  11
ENDBRANCH   1   8
BRANCH   4  21
ATOM     21  C   UNL     1       5.302   4.821   0.565  0.00  0.00    +0.000 C 
ATOM     22  O   UNL     1       5.245   5.405   1.645  0.00  0.00    +0.000 OA
BRANCH  21  23
ATOM     23  C   UNL     1       6.071   5.433  -0.552  0.00  0.00    +0.000 A 
ATOM     24  C   UNL     1       5.719   5.234  -1.895  0.00  0.00    +0.000 A 
ATOM     25  C   UNL     1       6.500   5.804  -2.896  0.00  0.00    +0.000 A 
ATOM     26  C   UNL     1       7.595   6.601  -2.582  0.00  0.00    +0.000 A 
ATOM     27  C   UNL     1       7.921   6.836  -1.248  0.00  0.00    +0.000 A 
ATOM     28  C   UNL     1       7.160   6.253  -0.233  0.00  0.00    +0.000 A 
BRANCH  25  29
ATOM     29  O   UNL     1       6.224   5.599  -4.216  0.00  0.00    +0.000 OA
ATOM     30  H   UNL     1       5.426   5.051  -4.298  0.00  0.00    +0.000 HD
ENDBRANCH  25  29
ENDBRANCH  21  23
ENDBRANCH   4  21
TORSDOF 5
