REMARK  Name = 
REMARK  4 active torsions:
REMARK  status: ('A' for Active; 'I' for Inactive)
REMARK    1  A    between atoms: C_2  and  C_20
REMARK    2  A    between atoms: N_3  and  C_4
REMARK    3  A    between atoms: C_6  and  C_7
REMARK    4  A    between atoms: C_14  and  C_15
REMARK                            x       y       z     vdW  Elec       q    Type
REMARK                         _______ _______ _______ _____ _____    ______ ____
ROOT
ATOM      1  C   UNL     1       2.309   2.017   1.381  0.00  0.00    +0.000 A 
ATOM      2  C   UNL     1       1.172   1.817   2.172  0.00  0.00    +0.000 A 
ATOM      3  C   UNL     1       0.663   2.809   3.029  0.00  0.00    +0.000 A 
ATOM      4  C   UNL     1       1.299   4.059   3.010  0.00  0.00    +0.000 A 
ATOM      5  C   UNL     1       2.441   4.295   2.228  0.00  0.00    +0.000 A 
ATOM      6  C   UNL     1       2.951   3.257   1.428  0.00  0.00    +0.000 A 
ENDROOT
BRANCH   3   7
ATOM      7  C   UNL     1      -0.430   2.515   3.986  0.00  0.00    +0.000 A 
ATOM      8  C   UNL     1      -0.542   1.244   4.582  0.00  0.00    +0.000 A 
ATOM      9  C   UNL     1      -1.501   0.973   5.559  0.00  0.00    +0.000 A 
ATOM     10  C   UNL     1      -2.372   1.975   5.970  0.00  0.00    +0.000 A 
ATOM     11  C   UNL     1      -2.299   3.236   5.386  0.00  0.00    +0.000 A 
ATOM     12  C   UNL     1      -1.346   3.498   4.396  0.00  0.00    +0.000 A 
ENDBRANCH   3   7
BRANCH   1  15
ATOM     13  O   UNL     1       1.091  -0.496   0.498  0.00  0.00    +0.000 OA
ATOM     14  C   UNL     1       2.239  -0.173   0.194  0.00  0.00    +0.000 C 
ATOM     15  N   UNL     1       2.860   1.004   0.561  0.00  0.00    +0.000 N 
ATOM     16  H   UNL     1       3.796   1.174   0.187  0.00  0.00    +0.000 HD
BRANCH  14  17
ATOM     17  C   UNL     1       3.033  -1.087  -0.681  0.00  0.00    +0.000 A 
ATOM     18  C   UNL     1       2.378  -2.158  -1.179  0.00  0.00    +0.000 A 
ATOM     19  N   UNL     1       3.020  -3.054  -2.000  0.00  0.00    +0.000 N 
ATOM     20  C   UNL     1       4.350  -2.966  -2.369  0.00  0.00    +0.000 A 
ATOM     21  O   UNL     1       4.864  -3.805  -3.100  0.00  0.00    +0.000 OA
ATOM     22  C   UNL     1       5.039  -1.827  -1.821  0.00  0.00    +0.000 A 
ATOM     23  C   UNL     1       6.345  -1.415  -1.929  0.00  0.00    +0.000 A 
ATOM     24  C   UNL     1       6.402  -0.237  -1.172  0.00  0.00    +0.000 A 
ATOM     25  N   UNL     1       5.224   0.092  -0.634  0.00  0.00    +0.000 NA
ATOM     26  N   UNL     1       4.378  -0.916  -1.012  0.00  0.00    +0.000 N 
ATOM     27  H   UNL     1       2.513  -3.852  -2.375  0.00  0.00    +0.000 HD
ENDBRANCH  14  17
ENDBRANCH   1  15
BRANCH   5  28
ATOM     28  C   UNL     1       3.131   5.634   2.286  0.00  0.00    +0.000 C 
ATOM     29  F   UNL     1       2.534   6.519   3.133  0.00  0.00    +0.000 F 
ATOM     30  F   UNL     1       4.422   5.533   2.707  0.00  0.00    +0.000 F 
ATOM     31  F   UNL     1       3.179   6.254   1.075  0.00  0.00    +0.000 F 
ENDBRANCH   5  28
TORSDOF 4
