REMARK  Name = 
REMARK  5 active torsions:
REMARK  status: ('A' for Active; 'I' for Inactive)
REMARK    1  A    between atoms: C_2  and  C_3
REMARK    2  A    between atoms: C_4  and  N_5
REMARK    3  A    between atoms: N_8  and  C_9
REMARK    4  A    between atoms: C_12  and  C_13
REMARK    5  A    between atoms: N_22  and  C_23
REMARK                            x       y       z     vdW  Elec       q    Type
REMARK                         _______ _______ _______ _____ _____    ______ ____
ROOT
ATOM      1  N   UNL     1       3.614   2.377   0.261  0.00  0.00    +0.000 N 
ATOM      2  C   UNL     1       2.323   2.642  -0.204  0.00  0.00    +0.000 C 
ATOM      3  O   UNL     1       1.551   1.778  -0.604  0.00  0.00    +0.000 OA
ATOM      4  N   UNL     1       2.012   4.004  -0.193  0.00  0.00    +0.000 N 
ATOM      5  H   UNL     1       4.001   3.121   0.831  0.00  0.00    +0.000 HD
ATOM      6  H   UNL     1       2.789   4.635  -0.335  0.00  0.00    +0.000 HD
ENDROOT
BRANCH   1   8
ATOM      7  C   UNL     1       5.497   0.941   0.842  0.00  0.00    +0.000 A 
ATOM      8  C   UNL     1       4.316   1.156   0.201  0.00  0.00    +0.000 A 
ATOM      9  C   UNL     1       3.818   0.078  -0.634  0.00  0.00    +0.000 A 
ATOM     10  C   UNL     1       4.495  -1.066  -0.770  0.00  0.00    +0.000 A 
ATOM     11  N   UNL     1       5.713  -1.279  -0.148  0.00  0.00    +0.000 N 
ATOM     12  C   UNL     1       6.279  -0.307   0.691  0.00  0.00    +0.000 A 
ATOM     13  O   UNL     1       7.335  -0.421   1.313  0.00  0.00    +0.000 OA
BRANCH  11  14
ATOM     14  C   UNL     1       6.410  -2.510  -0.314  0.00  0.00    +0.000 A 
ATOM     15  C   UNL     1       5.737  -3.724  -0.147  0.00  0.00    +0.000 A 
ATOM     16  C   UNL     1       6.443  -4.925  -0.191  0.00  0.00    +0.000 A 
ATOM     17  C   UNL     1       7.814  -4.921  -0.450  0.00  0.00    +0.000 A 
ATOM     18  C   UNL     1       8.482  -3.719  -0.671  0.00  0.00    +0.000 A 
ATOM     19  C   UNL     1       7.783  -2.516  -0.595  0.00  0.00    +0.000 A 
ENDBRANCH  11  14
BRANCH   7  21
ATOM     20  N   UNL     1       6.641   3.021   2.290  0.00  0.00    +0.000 NA
ATOM     21  C   UNL     1       6.122   2.078   1.634  0.00  0.00    +0.000 C 
ENDBRANCH   7  21
ENDBRANCH   1   8
BRANCH   4  22
ATOM     22  C   UNL     1       0.746   4.475  -0.652  0.00  0.00    +0.000 A 
ATOM     23  C   UNL     1      -0.443   3.794  -0.367  0.00  0.00    +0.000 A 
ATOM     24  C   UNL     1      -1.661   4.185  -0.949  0.00  0.00    +0.000 A 
ATOM     25  C   UNL     1      -1.717   5.265  -1.839  0.00  0.00    +0.000 A 
ATOM     26  C   UNL     1      -0.543   5.997  -2.051  0.00  0.00    +0.000 A 
ATOM     27  C   UNL     1       0.677   5.622  -1.445  0.00  0.00    +0.000 A 
BRANCH  25  28
ATOM     28  C   UNL     1      -2.941   5.602  -2.566  0.00  0.00    +0.000 A 
ATOM     29  C   UNL     1      -4.164   4.970  -2.469  0.00  0.00    +0.000 A 
ATOM     30  N   UNL     1      -4.971   5.588  -3.387  0.00  0.00    +0.000 N 
ATOM     31  C   UNL     1      -4.223   6.551  -4.001  0.00  0.00    +0.000 A 
ATOM     32  N   UNL     1      -3.003   6.594  -3.525  0.00  0.00    +0.000 NA
ATOM     33  H   UNL     1      -5.936   5.367  -3.591  0.00  0.00    +0.000 HD
ENDBRANCH  25  28
ENDBRANCH   4  22
TORSDOF 5
