REMARK  Name = 
REMARK  5 active torsions:
REMARK  status: ('A' for Active; 'I' for Inactive)
REMARK    1  A    between atoms: C_2  and  C_18
REMARK    2  A    between atoms: N_3  and  C_4
REMARK    3  A    between atoms: C_7  and  C_8
REMARK    4  A    between atoms: C_8  and  C_9
REMARK    5  A    between atoms: C_23  and  C_24
REMARK                            x       y       z     vdW  Elec       q    Type
REMARK                         _______ _______ _______ _____ _____    ______ ____
ROOT
ATOM      1  O   UNL     1       1.273  -0.411  -0.794  0.00  0.00    +0.000 OA
ATOM      2  C   UNL     1       2.359  -0.201  -0.270  0.00  0.00    +0.000 C 
ATOM      3  N   UNL     1       2.957  -1.030   0.677  0.00  0.00    +0.000 N 
ATOM      4  H   UNL     1       3.733  -0.630   1.196  0.00  0.00    +0.000 HD
ENDROOT
BRANCH   3   5
ATOM      5  C   UNL     1       2.297  -2.159   1.195  0.00  0.00    +0.000 A 
ATOM      6  C   UNL     1       1.621  -3.078   0.419  0.00  0.00    +0.000 A 
ATOM      7  N   UNL     1       0.928  -4.123   0.924  0.00  0.00    +0.000 NA
ATOM      8  C   UNL     1       0.893  -4.229   2.269  0.00  0.00    +0.000 A 
ATOM      9  N   UNL     1       1.550  -3.406   3.116  0.00  0.00    +0.000 NA
ATOM     10  C   UNL     1       2.253  -2.400   2.552  0.00  0.00    +0.000 A 
BRANCH   8  11
ATOM     11  C   UNL     1      -0.005  -5.290   2.861  0.00  0.00    +0.000 C 
BRANCH  11  12
ATOM     12  C   UNL     1       0.686  -6.605   3.136  0.00  0.00    +0.000 A 
ATOM     13  C   UNL     1       1.271  -6.850   4.389  0.00  0.00    +0.000 A 
ATOM     14  C   UNL     1       1.931  -8.054   4.635  0.00  0.00    +0.000 A 
ATOM     15  C   UNL     1       2.008  -9.011   3.631  0.00  0.00    +0.000 A 
ATOM     16  F   UNL     1       2.653 -10.162   3.865  0.00  0.00    +0.000 F 
ATOM     17  C   UNL     1       1.431  -8.791   2.386  0.00  0.00    +0.000 A 
ATOM     18  C   UNL     1       0.771  -7.587   2.136  0.00  0.00    +0.000 A 
ENDBRANCH  11  12
ENDBRANCH   8  11
ENDBRANCH   3   5
BRANCH   2  19
ATOM     19  C   UNL     1       3.123   1.051  -0.543  0.00  0.00    +0.000 A 
ATOM     20  N   UNL     1       4.478   0.858  -0.613  0.00  0.00    +0.000 NA
ATOM     21  C   UNL     1       5.201   1.934  -0.985  0.00  0.00    +0.000 A 
ATOM     22  C   UNL     1       4.620   3.160  -1.240  0.00  0.00    +0.000 A 
ATOM     23  N   UNL     1       3.289   3.370  -1.107  0.00  0.00    +0.000 NA
ATOM     24  C   UNL     1       2.513   2.302  -0.740  0.00  0.00    +0.000 A 
BRANCH  24  25
ATOM     25  C   UNL     1       1.095   2.654  -0.497  0.00  0.00    +0.000 A 
ATOM     26  C   UNL     1       0.454   3.634  -1.274  0.00  0.00    +0.000 A 
ATOM     27  C   UNL     1      -0.860   3.980  -0.997  0.00  0.00    +0.000 A 
ATOM     28  N   UNL     1      -1.591   3.426  -0.017  0.00  0.00    +0.000 NA
ATOM     29  C   UNL     1      -0.970   2.495   0.740  0.00  0.00    +0.000 A 
ATOM     30  C   UNL     1       0.347   2.105   0.555  0.00  0.00    +0.000 A 
ENDBRANCH  24  25
ENDBRANCH   2  19
TORSDOF 5
