REMARK  Name = 
REMARK  5 active torsions:
REMARK  status: ('A' for Active; 'I' for Inactive)
REMARK    1  A    between atoms: C_2  and  C_3
REMARK    2  A    between atoms: C_3  and  C_4
REMARK    3  A    between atoms: N_14  and  C_15
REMARK    4  A    between atoms: C_17  and  N_18
REMARK    5  A    between atoms: C_19  and  C_21
REMARK                            x       y       z     vdW  Elec       q    Type
REMARK                         _______ _______ _______ _____ _____    ______ ____
ROOT
ATOM      1  C   UNL     1       4.332   0.737   1.067  0.00  0.00    +0.000 A 
ATOM      2  C   UNL     1       4.975   1.002  -0.143  0.00  0.00    +0.000 A 
ATOM      3  C   UNL     1       6.362   1.151  -0.229  0.00  0.00    +0.000 A 
ATOM      4  C   UNL     1       7.122   1.012   0.936  0.00  0.00    +0.000 A 
ATOM      5  C   UNL     1       6.487   0.802   2.166  0.00  0.00    +0.000 A 
ATOM      6  C   UNL     1       5.094   0.682   2.235  0.00  0.00    +0.000 A 
ENDROOT
BRANCH   1   9
ATOM      7  O   UNL     1       2.493  -0.097  -1.059  0.00  0.00    +0.000 OA
ATOM      8  C   UNL     1       2.118   0.183   0.077  0.00  0.00    +0.000 C 
ATOM      9  N   UNL     1       2.934   0.531   1.147  0.00  0.00    +0.000 N 
ATOM     10  H   UNL     1       2.525   0.524   2.072  0.00  0.00    +0.000 HD
BRANCH   8  11
ATOM     11  C   UNL     1       0.639   0.137   0.410  0.00  0.00    +0.000 C 
BRANCH  11  12
ATOM     12  C   UNL     1      -0.082   1.460   0.280  0.00  0.00    +0.000 A 
ATOM     13  C   UNL     1      -1.228   1.687   1.053  0.00  0.00    +0.000 A 
ATOM     14  C   UNL     1      -1.956   2.872   0.922  0.00  0.00    +0.000 A 
ATOM     15  C   UNL     1      -1.564   3.857   0.003  0.00  0.00    +0.000 A 
ATOM     16  C   UNL     1      -2.276   5.051  -0.151  0.00  0.00    +0.000 A 
ATOM     17  C   UNL     1      -1.836   5.975  -1.085  0.00  0.00    +0.000 A 
ATOM     18  N   UNL     1      -0.752   5.797  -1.866  0.00  0.00    +0.000 NA
ATOM     19  C   UNL     1      -0.076   4.633  -1.706  0.00  0.00    +0.000 A 
ATOM     20  C   UNL     1      -0.427   3.632  -0.796  0.00  0.00    +0.000 A 
ATOM     21  C   UNL     1       0.299   2.432  -0.658  0.00  0.00    +0.000 A 
ENDBRANCH  11  12
ENDBRANCH   8  11
ENDBRANCH   1   9
BRANCH   3  22
ATOM     22  N   UNL     1       7.021   1.412  -1.452  0.00  0.00    +0.000 N 
ATOM     23  C   UNL     1       6.406   1.886  -2.594  0.00  0.00    +0.000 C 
ATOM     24  O   UNL     1       5.251   2.304  -2.677  0.00  0.00    +0.000 OA
ATOM     25  H   UNL     1       8.029   1.350  -1.442  0.00  0.00    +0.000 HD
BRANCH  23  26
ATOM     26  C   UNL     1       7.263   2.011  -3.825  0.00  0.00    +0.000 A 
ATOM     27  C   UNL     1       8.416   1.361  -4.055  0.00  0.00    +0.000 A 
ATOM     28  C   UNL     1       9.109   1.556  -5.314  0.00  0.00    +0.000 A 
ATOM     29  C   UNL     1       8.603   2.356  -6.265  0.00  0.00    +0.000 A 
ATOM     30  C   UNL     1       7.316   3.055  -6.027  0.00  0.00    +0.000 A 
ATOM     31  O   UNL     1       6.823   3.781  -6.881  0.00  0.00    +0.000 OA
ATOM     32  N   UNL     1       6.742   2.830  -4.807  0.00  0.00    +0.000 N 
ATOM     33  H   UNL     1       5.840   3.262  -4.623  0.00  0.00    +0.000 HD
ENDBRANCH  23  26
ENDBRANCH   3  22
TORSDOF 5
