REMARK  Name = 
REMARK  4 active torsions:
REMARK  status: ('A' for Active; 'I' for Inactive)
REMARK    1  A    between atoms: N_3  and  C_4
REMARK    2  A    between atoms: C_7  and  N_8
REMARK    3  A    between atoms: N_16  and  C_17
REMARK    4  A    between atoms: N_19  and  C_20
REMARK                            x       y       z     vdW  Elec       q    Type
REMARK                         _______ _______ _______ _____ _____    ______ ____
ROOT
ATOM      1  O   UNL     1       1.135   0.409  -0.159  0.00  0.00    +0.000 OA
ATOM      2  C   UNL     1       2.336   0.150  -0.177  0.00  0.00    +0.000 C 
ATOM      3  N   UNL     1       2.893  -1.066  -0.485  0.00  0.00    +0.000 N 
ATOM      4  N   UNL     1       3.213   1.119   0.250  0.00  0.00    +0.000 N 
ATOM      5  H   UNL     1       3.833  -1.206  -0.143  0.00  0.00    +0.000 HD
ATOM      6  H   UNL     1       2.723   1.842   0.771  0.00  0.00    +0.000 HD
ENDROOT
BRANCH   3   7
ATOM      7  C   UNL     1       2.234  -2.235  -0.904  0.00  0.00    +0.000 A 
ATOM      8  C   UNL     1       0.896  -2.270  -1.298  0.00  0.00    +0.000 A 
ATOM      9  C   UNL     1       0.283  -3.485  -1.624  0.00  0.00    +0.000 A 
ATOM     10  C   UNL     1       1.005  -4.681  -1.543  0.00  0.00    +0.000 A 
ATOM     11  C   UNL     1       2.355  -4.634  -1.190  0.00  0.00    +0.000 A 
ATOM     12  F   UNL     1       3.113  -5.739  -1.167  0.00  0.00    +0.000 F 
ATOM     13  C   UNL     1       2.972  -3.422  -0.894  0.00  0.00    +0.000 A 
BRANCH  10  14
ATOM     14  N   UNL     1       0.364  -5.916  -1.800  0.00  0.00    +0.000 N 
ATOM     15  C   UNL     1      -0.778  -6.113  -2.546  0.00  0.00    +0.000 A 
ATOM     16  C   UNL     1      -1.017  -7.466  -2.521  0.00  0.00    +0.000 A 
ATOM     17  N   UNL     1      -0.088  -8.109  -1.755  0.00  0.00    +0.000 NA
ATOM     18  C   UNL     1       0.724  -7.162  -1.337  0.00  0.00    +0.000 A 
ENDBRANCH  10  14
ENDBRANCH   3   7
BRANCH   4  19
ATOM     19  C   UNL     1       4.582   1.178   0.202  0.00  0.00    +0.000 A 
ATOM     20  C   UNL     1       5.333   0.574  -0.733  0.00  0.00    +0.000 A 
ATOM     21  N   UNL     1       6.720   0.470  -0.643  0.00  0.00    +0.000 N 
ATOM     22  C   UNL     1       7.402   1.069   0.435  0.00  0.00    +0.000 A 
ATOM     23  O   UNL     1       8.614   1.047   0.656  0.00  0.00    +0.000 OA
ATOM     24  C   UNL     1       6.569   1.863   1.382  0.00  0.00    +0.000 A 
ATOM     25  C   UNL     1       5.239   1.921   1.248  0.00  0.00    +0.000 A 
BRANCH  21  26
ATOM     26  C   UNL     1       7.449  -0.319  -1.611  0.00  0.00    +0.000 A 
ATOM     27  C   UNL     1       8.577  -1.065  -1.242  0.00  0.00    +0.000 A 
ATOM     28  C   UNL     1       9.277  -1.833  -2.178  0.00  0.00    +0.000 A 
ATOM     29  C   UNL     1       8.860  -1.869  -3.504  0.00  0.00    +0.000 A 
ATOM     30  C   UNL     1       7.730  -1.155  -3.891  0.00  0.00    +0.000 A 
ATOM     31  C   UNL     1       7.026  -0.394  -2.951  0.00  0.00    +0.000 A 
ENDBRANCH  21  26
ENDBRANCH   4  19
TORSDOF 4
