REMARK  Name = 
REMARK  4 active torsions:
REMARK  status: ('A' for Active; 'I' for Inactive)
REMARK    1  A    between atoms: N_3  and  C_4
REMARK    2  A    between atoms: C_7  and  N_8
REMARK    3  A    between atoms: N_16  and  C_17
REMARK    4  A    between atoms: N_21  and  C_22
REMARK                            x       y       z     vdW  Elec       q    Type
REMARK                         _______ _______ _______ _____ _____    ______ ____
ROOT
ATOM      1  O   UNL     1       2.777   0.141   1.129  0.00  0.00    +0.000 OA
ATOM      2  C   UNL     1       2.325  -0.164   0.032  0.00  0.00    +0.000 C 
ATOM      3  N   UNL     1       0.985  -0.397  -0.221  0.00  0.00    +0.000 N 
ATOM      4  N   UNL     1       3.117  -0.389  -1.078  0.00  0.00    +0.000 N 
ATOM      5  H   UNL     1       0.760  -0.794  -1.123  0.00  0.00    +0.000 HD
ATOM      6  H   UNL     1       2.681  -0.440  -1.994  0.00  0.00    +0.000 HD
ENDROOT
BRANCH   3   7
ATOM      7  C   UNL     1      -0.036  -0.405   0.755  0.00  0.00    +0.000 A 
ATOM      8  C   UNL     1       0.114   0.129   2.037  0.00  0.00    +0.000 A 
ATOM      9  C   UNL     1      -0.900   0.007   2.995  0.00  0.00    +0.000 A 
ATOM     10  C   UNL     1      -2.099  -0.646   2.683  0.00  0.00    +0.000 A 
ATOM     11  C   UNL     1      -2.265  -1.139   1.389  0.00  0.00    +0.000 A 
ATOM     12  F   UNL     1      -3.384  -1.767   1.006  0.00  0.00    +0.000 F 
ATOM     13  C   UNL     1      -1.250  -1.014   0.430  0.00  0.00    +0.000 A 
BRANCH  10  14
ATOM     14  N   UNL     1      -3.086  -0.790   3.693  0.00  0.00    +0.000 N 
ATOM     15  C   UNL     1      -4.311  -1.422   3.630  0.00  0.00    +0.000 A 
ATOM     16  C   UNL     1      -4.895  -1.314   4.870  0.00  0.00    +0.000 A 
ATOM     17  C   UNL     1      -3.964  -0.604   5.635  0.00  0.00    +0.000 A 
ATOM     18  N   UNL     1      -2.873  -0.282   4.941  0.00  0.00    +0.000 NA
ENDBRANCH  10  14
ENDBRANCH   3   7
BRANCH   4  19
ATOM     19  C   UNL     1       4.501  -0.471  -1.106  0.00  0.00    +0.000 A 
ATOM     20  C   UNL     1       5.309  -0.398  -0.039  0.00  0.00    +0.000 A 
ATOM     21  C   UNL     1       6.733  -0.526  -0.153  0.00  0.00    +0.000 A 
ATOM     22  C   UNL     1       7.294  -0.678  -1.354  0.00  0.00    +0.000 A 
ATOM     23  N   UNL     1       6.536  -0.748  -2.516  0.00  0.00    +0.000 N 
ATOM     24  C   UNL     1       5.127  -0.686  -2.474  0.00  0.00    +0.000 A 
ATOM     25  O   UNL     1       4.365  -0.745  -3.443  0.00  0.00    +0.000 OA
BRANCH  23  26
ATOM     26  C   UNL     1       7.192  -0.847  -3.781  0.00  0.00    +0.000 A 
ATOM     27  C   UNL     1       8.253   0.021  -4.083  0.00  0.00    +0.000 A 
ATOM     28  C   UNL     1       8.884  -0.038  -5.327  0.00  0.00    +0.000 A 
ATOM     29  C   UNL     1       8.490  -0.993  -6.260  0.00  0.00    +0.000 A 
ATOM     30  C   UNL     1       7.461  -1.884  -5.955  0.00  0.00    +0.000 A 
ATOM     31  C   UNL     1       6.803  -1.801  -4.726  0.00  0.00    +0.000 A 
ENDBRANCH  23  26
ENDBRANCH   4  19
TORSDOF 4
