REMARK  Name = 
REMARK  3 active torsions:
REMARK  status: ('A' for Active; 'I' for Inactive)
REMARK    1  A    between atoms: C_2  and  C_17
REMARK    2  A    between atoms: N_3  and  C_4
REMARK    3  A    between atoms: N_6  and  C_7
REMARK                            x       y       z     vdW  Elec       q    Type
REMARK                         _______ _______ _______ _____ _____    ______ ____
ROOT
ATOM      1  O   UNL     1       2.637   0.697  -1.475  0.00  0.00    +0.000 OA
ATOM      2  C   UNL     1       3.480  -0.040  -0.983  0.00  0.00    +0.000 C 
ATOM      3  N   UNL     1       3.399  -1.423  -0.821  0.00  0.00    +0.000 N 
ATOM      4  H   UNL     1       4.148  -1.851  -0.295  0.00  0.00    +0.000 HD
ENDROOT
BRANCH   2   5
ATOM      5  C   UNL     1       4.734   0.536  -0.414  0.00  0.00    +0.000 A 
ATOM      6  C   UNL     1       4.773   1.737   0.276  0.00  0.00    +0.000 A 
ATOM      7  N   UNL     1       5.850   2.134   1.008  0.00  0.00    +0.000 NA
ATOM      8  C   UNL     1       6.886   1.268   1.181  0.00  0.00    +0.000 A 
ATOM      9  C   UNL     1       7.984   1.492   2.019  0.00  0.00    +0.000 A 
ATOM     10  F   UNL     1       8.144   2.682   2.614  0.00  0.00    +0.000 F 
ATOM     11  C   UNL     1       8.936   0.494   2.302  0.00  0.00    +0.000 A 
ATOM     12  C   UNL     1       8.812  -0.764   1.738  0.00  0.00    +0.000 A 
ATOM     13  C   UNL     1       7.801  -0.989   0.814  0.00  0.00    +0.000 A 
ATOM     14  C   UNL     1       6.883   0.024   0.515  0.00  0.00    +0.000 A 
ATOM     15  C   UNL     1       5.878  -0.252  -0.397  0.00  0.00    +0.000 A 
ENDBRANCH   2   5
BRANCH   3  16
ATOM     16  C   UNL     1       2.407  -2.309  -1.185  0.00  0.00    +0.000 A 
ATOM     17  C   UNL     1       1.252  -2.001  -1.786  0.00  0.00    +0.000 A 
ATOM     18  N   UNL     1       0.261  -2.953  -2.097  0.00  0.00    +0.000 N 
ATOM     19  C   UNL     1       0.502  -4.318  -1.818  0.00  0.00    +0.000 A 
ATOM     20  O   UNL     1      -0.208  -5.286  -2.099  0.00  0.00    +0.000 OA
ATOM     21  C   UNL     1       1.772  -4.644  -1.124  0.00  0.00    +0.000 A 
ATOM     22  C   UNL     1       2.663  -3.692  -0.847  0.00  0.00    +0.000 A 
BRANCH  18  23
ATOM     23  C   UNL     1      -0.993  -2.560  -2.722  0.00  0.00    +0.000 A 
ATOM     24  C   UNL     1      -2.146  -3.360  -2.631  0.00  0.00    +0.000 A 
ATOM     25  C   UNL     1      -3.346  -3.004  -3.259  0.00  0.00    +0.000 A 
ATOM     26  C   UNL     1      -3.430  -1.822  -3.980  0.00  0.00    +0.000 A 
ATOM     27  C   UNL     1      -2.317  -0.994  -4.062  0.00  0.00    +0.000 A 
ATOM     28  C   UNL     1      -1.115  -1.356  -3.438  0.00  0.00    +0.000 A 
ENDBRANCH  18  23
ENDBRANCH   3  16
TORSDOF 3
