REMARK  Name = 
REMARK  8 active torsions:
REMARK  status: ('A' for Active; 'I' for Inactive)
REMARK    1  A    between atoms: C_2  and  C_3
REMARK    2  A    between atoms: C_2  and  O_18
REMARK    3  A    between atoms: C_3  and  O_4
REMARK    4  A    between atoms: O_4  and  C_5
REMARK    5  A    between atoms: C_9  and  O_10
REMARK    6  A    between atoms: O_10  and  C_11
REMARK    7  A    between atoms: O_18  and  C_19
REMARK    8  A    between atoms: C_19  and  C_20
REMARK                            x       y       z     vdW  Elec       q    Type
REMARK                         _______ _______ _______ _____ _____    ______ ____
ROOT
ATOM      1  O   UNL     1       1.835   0.706   1.192  0.00  0.00    +0.000 OA
ATOM      2  C   UNL     1       2.068   0.081   0.167  0.00  0.00    +0.000 C 
ENDROOT
BRANCH   2   3
ATOM      3  C   UNL     1       2.899   0.595  -0.999  0.00  0.00    +0.000 C 
BRANCH   3   4
ATOM      4  O   UNL     1       2.071   1.249  -1.950  0.00  0.00    +0.000 OA
BRANCH   4   5
ATOM      5  C   UNL     1       2.581   1.442  -3.207  0.00  0.00    +0.000 A 
ATOM      6  C   UNL     1       3.817   0.981  -3.668  0.00  0.00    +0.000 A 
ATOM      7  C   UNL     1       4.207   1.210  -4.989  0.00  0.00    +0.000 A 
ATOM      8  C   UNL     1       3.370   1.905  -5.857  0.00  0.00    +0.000 A 
ATOM      9  C   UNL     1       2.119   2.344  -5.417  0.00  0.00    +0.000 A 
ATOM     10  C   UNL     1       1.744   2.142  -4.086  0.00  0.00    +0.000 A 
BRANCH   9  11
ATOM     11  O   UNL     1       1.242   3.038  -6.224  0.00  0.00    +0.000 OA
BRANCH  11  12
ATOM     12  C   UNL     1       1.101   2.624  -7.546  0.00  0.00    +0.000 A 
ATOM     13  C   UNL     1       0.674   3.582  -8.457  0.00  0.00    +0.000 A 
ATOM     14  C   UNL     1       0.534   3.208  -9.790  0.00  0.00    +0.000 A 
ATOM     15  C   UNL     1       0.814   1.897 -10.165  0.00  0.00    +0.000 A 
ATOM     16  C   UNL     1       1.212   1.006  -9.183  0.00  0.00    +0.000 A 
ATOM     17  N   UNL     1       1.349   1.337  -7.882  0.00  0.00    +0.000 NA
ENDBRANCH  11  12
ENDBRANCH   9  11
ENDBRANCH   4   5
ENDBRANCH   3   4
ENDBRANCH   2   3
BRANCH   2  18
ATOM     18  O   UNL     1       1.669  -1.201  -0.079  0.00  0.00    +0.000 OA
BRANCH  18  19
ATOM     19  C   UNL     1       0.861  -1.832   0.930  0.00  0.00    +0.000 C 
BRANCH  19  20
ATOM     20  C   UNL     1       1.675  -2.672   1.907  0.00  0.00    +0.000 A 
ATOM     21  C   UNL     1       3.013  -2.631   1.941  0.00  0.00    +0.000 A 
ATOM     22  C   UNL     1       3.738  -3.541   2.833  0.00  0.00    +0.000 A 
ATOM     23  O   UNL     1       4.954  -3.662   2.697  0.00  0.00    +0.000 OA
ATOM     24  N   UNL     1       2.959  -4.216   3.752  0.00  0.00    +0.000 N 
ATOM     25  C   UNL     1       3.580  -4.934   4.769  0.00  0.00    +0.000 A 
ATOM     26  C   UNL     1       2.874  -5.613   5.685  0.00  0.00    +0.000 A 
ATOM     27 CL   UNL     1       3.651  -6.434   6.980  0.00  0.00    +0.000 Cl
ATOM     28  C   UNL     1       1.435  -5.642   5.598  0.00  0.00    +0.000 A 
ATOM     29  C   UNL     1       0.793  -4.990   4.622  0.00  0.00    +0.000 A 
ATOM     30  C   UNL     1       1.574  -4.176   3.638  0.00  0.00    +0.000 A 
ATOM     31  N   UNL     1       0.938  -3.485   2.744  0.00  0.00    +0.000 NA
ENDBRANCH  19  20
ENDBRANCH  18  19
ENDBRANCH   2  18
TORSDOF 8
