REMARK  Name = 
REMARK  8 active torsions:
REMARK  status: ('A' for Active; 'I' for Inactive)
REMARK    1  A    between atoms: C_1  and  O_2
REMARK    2  A    between atoms: O_2  and  C_3
REMARK    3  A    between atoms: C_3  and  C_5
REMARK    4  A    between atoms: C_9  and  C_10
REMARK    5  A    between atoms: C_15  and  C_16
REMARK    6  A    between atoms: C_16  and  N_17
REMARK    7  A    between atoms: C_18  and  C_20
REMARK    8  A    between atoms: C_26  and  O_27
REMARK                            x       y       z     vdW  Elec       q    Type
REMARK                         _______ _______ _______ _____ _____    ______ ____
ROOT
ATOM      1  C   UNL     1       7.039  -2.265   3.555  0.00  0.00    +0.000 C 
ENDROOT
BRANCH   1   7
ATOM      2  C   UNL     1       7.331   0.341   3.505  0.00  0.00    +0.000 A 
ATOM      3  C   UNL     1       7.886   1.459   4.184  0.00  0.00    +0.000 A 
ATOM      4  C   UNL     1       8.521   1.360   5.422  0.00  0.00    +0.000 A 
ATOM      5  C   UNL     1       8.602   0.131   6.050  0.00  0.00    +0.000 A 
ATOM      6  C   UNL     1       8.090  -0.996   5.413  0.00  0.00    +0.000 A 
ATOM      7  C   UNL     1       7.480  -0.928   4.135  0.00  0.00    +0.000 A 
BRANCH   2  12
ATOM      8  C   UNL     1       6.283   1.981   0.194  0.00  0.00    +0.000 A 
ATOM      9  C   UNL     1       5.151   1.240  -0.147  0.00  0.00    +0.000 A 
ATOM     10  C   UNL     1       4.738   0.202   0.680  0.00  0.00    +0.000 A 
ATOM     11  C   UNL     1       5.438  -0.084   1.857  0.00  0.00    +0.000 A 
ATOM     12  C   UNL     1       6.609   0.600   2.218  0.00  0.00    +0.000 A 
ATOM     13  C   UNL     1       7.016   1.635   1.345  0.00  0.00    +0.000 A 
BRANCH   8  14
ATOM     14  C   UNL     1       6.727   3.160  -0.599  0.00  0.00    +0.000 C 
ATOM     15  O   UNL     1       7.711   3.828  -0.321  0.00  0.00    +0.000 OA
BRANCH  14  17
ATOM     16  C   UNL     1       6.229   4.510  -2.446  0.00  0.00    +0.000 C 
ATOM     17  O   UNL     1       5.884   3.384  -1.638  0.00  0.00    +0.000 OA
ENDBRANCH  14  17
ENDBRANCH   8  14
ENDBRANCH   2  12
ENDBRANCH   1   7
BRANCH   1  18
ATOM     18  N   UNL     1       7.679  -2.574   2.299  0.00  0.00    +0.000 N 
ATOM     19  C   UNL     1       7.397  -3.740   1.615  0.00  0.00    +0.000 C 
ATOM     20  O   UNL     1       6.582  -4.569   1.994  0.00  0.00    +0.000 OA
ATOM     21  H   UNL     1       8.229  -1.845   1.863  0.00  0.00    +0.000 HD
BRANCH  19  22
ATOM     22  C   UNL     1       8.149  -3.944   0.335  0.00  0.00    +0.000 A 
ATOM     23  C   UNL     1       9.403  -3.344   0.132  0.00  0.00    +0.000 A 
ATOM     24  C   UNL     1      10.077  -3.449  -1.091  0.00  0.00    +0.000 A 
ATOM     25  C   UNL     1       9.469  -4.220  -2.084  0.00  0.00    +0.000 A 
ATOM     26  N   UNL     1       9.837  -4.489  -3.381  0.00  0.00    +0.000 N 
ATOM     27  N   UNL     1       9.053  -5.396  -3.991  0.00  0.00    +0.000 NA
ATOM     28  C   UNL     1       8.128  -5.633  -3.076  0.00  0.00    +0.000 A 
ATOM     29  C   UNL     1       8.275  -4.909  -1.884  0.00  0.00    +0.000 A 
ATOM     30  C   UNL     1       7.591  -4.770  -0.661  0.00  0.00    +0.000 A 
ATOM     31  H   UNL     1      10.616  -4.094  -3.897  0.00  0.00    +0.000 HD
BRANCH  28  32
ATOM     32  O   UNL     1       7.223  -6.552  -3.415  0.00  0.00    +0.000 OA
ATOM     33  H   UNL     1       7.525  -6.881  -4.280  0.00  0.00    +0.000 HD
ENDBRANCH  28  32
ENDBRANCH  19  22
ENDBRANCH   1  18
TORSDOF 7
