REMARK  Name = 
REMARK  5 active torsions:
REMARK  status: ('A' for Active; 'I' for Inactive)
REMARK    1  A    between atoms: N_1  and  C_2
REMARK    2  A    between atoms: C_2  and  C_3
REMARK    3  A    between atoms: C_6  and  C_7
REMARK    4  A    between atoms: C_12  and  C_13
REMARK    5  A    between atoms: N_15  and  C_16
REMARK                            x       y       z     vdW  Elec       q    Type
REMARK                         _______ _______ _______ _____ _____    ______ ____
ROOT
ATOM      1  C   UNL     1       4.049  -4.619  -2.564  0.00  0.00    +0.000 A 
ATOM      2  C   UNL     1       5.237  -5.385  -2.416  0.00  0.00    +0.000 A 
ATOM      3  C   UNL     1       5.479  -6.565  -3.134  0.00  0.00    +0.000 A 
ATOM      4  C   UNL     1       4.534  -7.039  -4.022  0.00  0.00    +0.000 A 
ATOM      5  C   UNL     1       3.371  -6.306  -4.214  0.00  0.00    +0.000 A 
ATOM      6  C   UNL     1       3.125  -5.090  -3.526  0.00  0.00    +0.000 A 
ENDROOT
BRANCH   1  10
ATOM      7  C   UNL     1       3.450  -0.870  -0.514  0.00  0.00    +0.000 A 
ATOM      8  C   UNL     1       4.742  -1.335  -0.773  0.00  0.00    +0.000 A 
ATOM      9  C   UNL     1       4.940  -2.573  -1.391  0.00  0.00    +0.000 A 
ATOM     10  C   UNL     1       3.859  -3.410  -1.721  0.00  0.00    +0.000 A 
ATOM     11  C   UNL     1       2.596  -3.013  -1.254  0.00  0.00    +0.000 A 
ATOM     12  C   UNL     1       2.379  -1.738  -0.723  0.00  0.00    +0.000 A 
BRANCH   7  13
ATOM     13  C   UNL     1       3.221   0.536  -0.025  0.00  0.00    +0.000 C 
BRANCH  13  14
ATOM     14  N   UNL     1       3.835   1.511  -0.923  0.00  0.00    +0.000 NA
ATOM     15  H   UNL     1       3.600   2.449  -0.607  0.00  0.00    +0.000 HD
ATOM     16  H   UNL     1       3.417   1.412  -1.848  0.00  0.00    +0.000 HD
ENDBRANCH  13  14
ENDBRANCH   7  13
ENDBRANCH   1  10
BRANCH   6  17
ATOM     17  C   UNL     1       1.788  -4.520  -3.846  0.00  0.00    +0.000 C 
ATOM     18  O   UNL     1       0.921  -5.371  -4.069  0.00  0.00    +0.000 OA
ATOM     19  N   UNL     1       1.579  -3.143  -3.923  0.00  0.00    +0.000 N 
ATOM     20  H   UNL     1       2.383  -2.523  -3.903  0.00  0.00    +0.000 HD
BRANCH  19  21
ATOM     21  C   UNL     1       0.295  -2.578  -4.149  0.00  0.00    +0.000 A 
ATOM     22  C   UNL     1      -0.848  -3.382  -4.044  0.00  0.00    +0.000 A 
ATOM     23  C   UNL     1      -2.045  -3.008  -4.614  0.00  0.00    +0.000 A 
ATOM     24  C   UNL     1      -2.143  -1.740  -5.131  0.00  0.00    +0.000 A 
ATOM     25  C   UNL     1      -3.397  -1.360  -5.763  0.00  0.00    +0.000 A 
ATOM     26  C   UNL     1      -3.837  -0.159  -5.344  0.00  0.00    +0.000 A 
ATOM     27  N   UNL     1      -2.942   0.820  -5.016  0.00  0.00    +0.000 N 
ATOM     28  C   UNL     1      -1.568   0.612  -4.961  0.00  0.00    +0.000 A 
ATOM     29  O   UNL     1      -0.762   1.527  -4.839  0.00  0.00    +0.000 OA
ATOM     30  C   UNL     1      -1.131  -0.803  -4.917  0.00  0.00    +0.000 A 
ATOM     31  C   UNL     1       0.134  -1.229  -4.492  0.00  0.00    +0.000 A 
ATOM     32  H   UNL     1      -3.270   1.753  -4.890  0.00  0.00    +0.000 HD
ENDBRANCH  19  21
ENDBRANCH   6  17
TORSDOF 5
