REMARK  Name = 
REMARK  5 active torsions:
REMARK  status: ('A' for Active; 'I' for Inactive)
REMARK    1  A    between atoms: C_2  and  C_16
REMARK    2  A    between atoms: N_3  and  C_4
REMARK    3  A    between atoms: C_4  and  C_5
REMARK    4  A    between atoms: C_19  and  O_20
REMARK    5  A    between atoms: O_20  and  C_21
REMARK                            x       y       z     vdW  Elec       q    Type
REMARK                         _______ _______ _______ _____ _____    ______ ____
ROOT
ATOM      1  O   UNL     1       1.054  -0.055   0.076  0.00  0.00    +0.000 OA
ATOM      2  C   UNL     1       2.280  -0.047  -0.002  0.00  0.00    +0.000 C 
ATOM      3  N   UNL     1       3.029  -1.196  -0.139  0.00  0.00    +0.000 N 
ATOM      4  H   UNL     1       4.036  -1.099  -0.236  0.00  0.00    +0.000 HD
ENDROOT
BRANCH   2   5
ATOM      5  C   UNL     1       3.035   1.251   0.053  0.00  0.00    +0.000 A 
ATOM      6  C   UNL     1       2.315   2.421   0.276  0.00  0.00    +0.000 A 
ATOM      7  C   UNL     1       3.002   3.630   0.356  0.00  0.00    +0.000 A 
ATOM      8  C   UNL     1       4.381   3.653   0.157  0.00  0.00    +0.000 A 
ATOM      9  C   UNL     1       5.020   2.431  -0.046  0.00  0.00    +0.000 A 
ATOM     10  N   UNL     1       4.388   1.224  -0.107  0.00  0.00    +0.000 NA
BRANCH   8  11
ATOM     11  O   UNL     1       5.144   4.801   0.193  0.00  0.00    +0.000 OA
BRANCH  11  12
ATOM     12  C   UNL     1       4.638   5.960  -0.369  0.00  0.00    +0.000 A 
ATOM     13  C   UNL     1       5.063   7.179   0.172  0.00  0.00    +0.000 A 
ATOM     14  C   UNL     1       4.573   8.386  -0.352  0.00  0.00    +0.000 A 
ATOM     15  C   UNL     1       3.662   8.355  -1.402  0.00  0.00    +0.000 A 
ATOM     16  F   UNL     1       3.170   9.508  -1.884  0.00  0.00    +0.000 F 
ATOM     17  C   UNL     1       3.257   7.156  -1.964  0.00  0.00    +0.000 A 
ATOM     18  C   UNL     1       3.765   5.958  -1.465  0.00  0.00    +0.000 A 
ENDBRANCH  11  12
ENDBRANCH   8  11
ENDBRANCH   2   5
BRANCH   3  19
ATOM     19  C   UNL     1       2.416  -2.506  -0.221  0.00  0.00    +0.000 C 
BRANCH  19  20
ATOM     20  C   UNL     1       2.223  -3.107   1.143  0.00  0.00    +0.000 A 
ATOM     21  C   UNL     1       1.097  -2.945   1.865  0.00  0.00    +0.000 A 
ATOM     22  C   UNL     1       0.902  -3.634   3.142  0.00  0.00    +0.000 A 
ATOM     23  C   UNL     1      -0.265  -3.467   3.894  0.00  0.00    +0.000 A 
ATOM     24  C   UNL     1      -0.427  -4.158   5.098  0.00  0.00    +0.000 A 
ATOM     25  C   UNL     1       0.573  -5.017   5.553  0.00  0.00    +0.000 A 
ATOM     26  C   UNL     1       1.742  -5.189   4.807  0.00  0.00    +0.000 A 
ATOM     27  C   UNL     1       1.899  -4.498   3.604  0.00  0.00    +0.000 A 
ATOM     28  N   UNL     1       3.060  -4.665   2.840  0.00  0.00    +0.000 N 
ATOM     29  C   UNL     1       3.289  -4.027   1.646  0.00  0.00    +0.000 A 
ATOM     30  O   UNL     1       4.325  -4.220   1.015  0.00  0.00    +0.000 OA
ATOM     31  H   UNL     1       3.790  -5.289   3.155  0.00  0.00    +0.000 HD
ENDBRANCH  19  20
ENDBRANCH   3  19
TORSDOF 5
