REMARK  Name = 
REMARK  7 active torsions:
REMARK  status: ('A' for Active; 'I' for Inactive)
REMARK    1  A    between atoms: C_1  and  C_2
REMARK    2  A    between atoms: N_7  and  C_8
REMARK    3  A    between atoms: C_12  and  C_13
REMARK    4  A    between atoms: N_15  and  C_16
REMARK    5  A    between atoms: C_16  and  C_17
REMARK    6  A    between atoms: C_19  and  O_20
REMARK    7  A    between atoms: O_20  and  C_21
REMARK                            x       y       z     vdW  Elec       q    Type
REMARK                         _______ _______ _______ _____ _____    ______ ____
ROOT
ATOM      1  C   UNL     1       3.578  -5.593   1.812  0.00  0.00    +0.000 C 
ATOM      2  O   UNL     1       4.341  -5.168   2.693  0.00  0.00    +0.000 OA
ATOM      3  N   UNL     1       3.384  -6.935   1.601  0.00  0.00    +0.000 N 
ATOM      4  H   UNL     1       2.880  -7.299   0.805  0.00  0.00    +0.000 HD
ENDROOT
BRANCH   1   9
ATOM      5  C   UNL     1       2.459  -2.318   0.295  0.00  0.00    +0.000 A 
ATOM      6  C   UNL     1       1.592  -2.755  -0.712  0.00  0.00    +0.000 A 
ATOM      7  C   UNL     1       1.351  -4.115  -0.896  0.00  0.00    +0.000 A 
ATOM      8  C   UNL     1       1.966  -5.051  -0.066  0.00  0.00    +0.000 A 
ATOM      9  C   UNL     1       2.853  -4.633   0.935  0.00  0.00    +0.000 A 
ATOM     10  C   UNL     1       3.094  -3.260   1.109  0.00  0.00    +0.000 A 
BRANCH   5  17
ATOM     11  C   UNL     1       0.404  -0.019   0.807  0.00  0.00    +0.000 C 
ATOM     12  C   UNL     1       1.861   0.128   0.559  0.00  0.00    +0.000 A 
ATOM     13  C   UNL     1       2.571   1.269   0.535  0.00  0.00    +0.000 A 
ATOM     14  N   UNL     1       3.897   0.968   0.390  0.00  0.00    +0.000 N 
ATOM     15  C   UNL     1       4.066  -0.427   0.332  0.00  0.00    +0.000 A 
ATOM     16  O   UNL     1       5.128  -1.006   0.174  0.00  0.00    +0.000 OA
ATOM     17  N   UNL     1       2.739  -0.947   0.440  0.00  0.00    +0.000 N 
ATOM     18  H   UNL     1       4.668   1.615   0.321  0.00  0.00    +0.000 HD
ENDBRANCH   5  17
ENDBRANCH   1   9
BRANCH   3  19
ATOM     19  C   UNL     1       4.088  -7.914   2.397  0.00  0.00    +0.000 C 
BRANCH  19  20
ATOM     20  C   UNL     1       5.416  -8.307   1.801  0.00  0.00    +0.000 A 
ATOM     21  C   UNL     1       6.538  -7.580   2.180  0.00  0.00    +0.000 A 
ATOM     22  C   UNL     1       7.783  -7.933   1.665  0.00  0.00    +0.000 A 
ATOM     23  C   UNL     1       7.872  -9.006   0.791  0.00  0.00    +0.000 A 
ATOM     24  C   UNL     1       6.704  -9.669   0.450  0.00  0.00    +0.000 A 
ATOM     25  N   UNL     1       5.480  -9.348   0.932  0.00  0.00    +0.000 NA
BRANCH  22  26
ATOM     26  O   UNL     1       8.962  -7.302   1.991  0.00  0.00    +0.000 OA
BRANCH  26  27
ATOM     27  C   UNL     1       8.938  -5.956   2.287  0.00  0.00    +0.000 A 
ATOM     28  C   UNL     1       8.035  -5.062   1.693  0.00  0.00    +0.000 A 
ATOM     29  C   UNL     1       8.065  -3.708   2.022  0.00  0.00    +0.000 A 
ATOM     30  C   UNL     1       9.002  -3.253   2.942  0.00  0.00    +0.000 A 
ATOM     31  F   UNL     1       9.036  -1.952   3.251  0.00  0.00    +0.000 F 
ATOM     32  C   UNL     1       9.897  -4.140   3.535  0.00  0.00    +0.000 A 
ATOM     33  F   UNL     1      10.780  -3.694   4.440  0.00  0.00    +0.000 F 
ATOM     34  C   UNL     1       9.885  -5.490   3.200  0.00  0.00    +0.000 A 
ENDBRANCH  26  27
ENDBRANCH  22  26
ENDBRANCH  19  20
ENDBRANCH   3  19
TORSDOF 6
