REMARK  Name = 
REMARK  7 active torsions:
REMARK  status: ('A' for Active; 'I' for Inactive)
REMARK    1  A    between atoms: C_2  and  C_3
REMARK    2  A    between atoms: C_3  and  N_4
REMARK    3  A    between atoms: C_5  and  C_7
REMARK    4  A    between atoms: C_8  and  O_9
REMARK    5  A    between atoms: N_18  and  C_19
REMARK    6  A    between atoms: C_23  and  C_24
REMARK    7  A    between atoms: C_27  and  C_28
REMARK                            x       y       z     vdW  Elec       q    Type
REMARK                         _______ _______ _______ _____ _____    ______ ____
ROOT
ATOM      1  O   UNL     1       1.975  -0.050   1.157  0.00  0.00    +0.000 OA
ATOM      2  C   UNL     1       2.308   0.157  -0.008  0.00  0.00    +0.000 C 
ATOM      3  N   UNL     1       2.052   1.311  -0.736  0.00  0.00    +0.000 N 
ATOM      4  H   UNL     1       2.085   1.220  -1.749  0.00  0.00    +0.000 HD
ENDROOT
BRANCH   3   5
ATOM      5  C   UNL     1       1.534   2.518  -0.210  0.00  0.00    +0.000 A 
ATOM      6  C   UNL     1       1.546   2.816   1.156  0.00  0.00    +0.000 A 
ATOM      7  C   UNL     1       0.983   4.000   1.635  0.00  0.00    +0.000 A 
ATOM      8  C   UNL     1       0.391   4.898   0.751  0.00  0.00    +0.000 A 
ATOM      9  C   UNL     1       0.377   4.632  -0.625  0.00  0.00    +0.000 A 
ATOM     10  C   UNL     1       0.983   3.451  -1.099  0.00  0.00    +0.000 A 
BRANCH   9  11
ATOM     11  C   UNL     1      -0.316   5.530  -1.547  0.00  0.00    +0.000 A 
ATOM     12  N   UNL     1      -0.965   6.643  -1.164  0.00  0.00    +0.000 NA
ATOM     13  O   UNL     1      -1.555   7.108  -2.336  0.00  0.00    +0.000 OA
ATOM     14  C   UNL     1      -1.201   6.236  -3.321  0.00  0.00    +0.000 A 
ATOM     15  N   UNL     1      -0.426   5.260  -2.895  0.00  0.00    +0.000 NA
BRANCH  14  16
ATOM     16  C   UNL     1      -1.758   6.503  -4.666  0.00  0.00    +0.000 C 
ATOM     17  F   UNL     1      -3.116   6.397  -4.676  0.00  0.00    +0.000 F 
ATOM     18  F   UNL     1      -1.474   7.764  -5.093  0.00  0.00    +0.000 F 
ENDBRANCH  14  16
ENDBRANCH   9  11
ENDBRANCH   3   5
BRANCH   2  19
ATOM     19  C   UNL     1       2.974  -0.954  -0.820  0.00  0.00    +0.000 C 
BRANCH  19  20
ATOM     20  N   UNL     1       1.988  -1.832  -1.430  0.00  0.00    +0.000 N 
ATOM     21  C   UNL     1       1.572  -1.609  -2.721  0.00  0.00    +0.000 C 
ATOM     22  O   UNL     1       1.982  -0.660  -3.385  0.00  0.00    +0.000 OA
ATOM     23  H   UNL     1       1.678  -2.632  -0.893  0.00  0.00    +0.000 HD
BRANCH  21  24
ATOM     24  C   UNL     1       0.644  -2.570  -3.353  0.00  0.00    +0.000 A 
ATOM     25  C   UNL     1       0.676  -2.773  -4.735  0.00  0.00    +0.000 A 
ATOM     26  C   UNL     1      -0.254  -3.627  -5.359  0.00  0.00    +0.000 A 
ATOM     27  C   UNL     1      -0.273  -3.853  -6.753  0.00  0.00    +0.000 A 
ATOM     28  C   UNL     1      -1.254  -4.653  -7.334  0.00  0.00    +0.000 A 
ATOM     29  C   UNL     1      -2.217  -5.243  -6.527  0.00  0.00    +0.000 A 
ATOM     30  C   UNL     1      -2.182  -5.044  -5.143  0.00  0.00    +0.000 A 
ATOM     31  C   UNL     1      -1.216  -4.247  -4.538  0.00  0.00    +0.000 A 
ATOM     32  N   UNL     1      -1.242  -4.074  -3.201  0.00  0.00    +0.000 NA
ATOM     33  C   UNL     1      -0.328  -3.244  -2.638  0.00  0.00    +0.000 A 
BRANCH  25  34
ATOM     34  O   UNL     1       1.601  -2.136  -5.534  0.00  0.00    +0.000 OA
ATOM     35  H   UNL     1       2.003  -1.403  -5.018  0.00  0.00    +0.000 HD
ENDBRANCH  25  34
ENDBRANCH  21  24
ENDBRANCH  19  20
ENDBRANCH   2  19
TORSDOF 7
