REMARK  Name = 
REMARK  7 active torsions:
REMARK  status: ('A' for Active; 'I' for Inactive)
REMARK    1  A    between atoms: C_1  and  C_2
REMARK    2  A    between atoms: C_2  and  N_3
REMARK    3  A    between atoms: C_2  and  C_22
REMARK    4  A    between atoms: N_6  and  C_7
REMARK    5  A    between atoms: C_10  and  O_11
REMARK    6  A    between atoms: O_11  and  C_12
REMARK    7  A    between atoms: N_26  and  C_27
REMARK                            x       y       z     vdW  Elec       q    Type
REMARK                         _______ _______ _______ _____ _____    ______ ____
ROOT
ATOM      1  N   UNL     1       2.865  -1.057  -0.923  0.00  0.00    +0.000 N 
ATOM      2  C   UNL     1       2.715  -2.365  -0.512  0.00  0.00    +0.000 C 
ATOM      3  O   UNL     1       2.319  -2.631   0.620  0.00  0.00    +0.000 OA
ATOM      4  N   UNL     1       3.071  -3.281  -1.465  0.00  0.00    +0.000 N 
ATOM      5  H   UNL     1       2.944  -0.862  -1.913  0.00  0.00    +0.000 HD
ATOM      6  H   UNL     1       3.757  -2.978  -2.141  0.00  0.00    +0.000 HD
ENDROOT
BRANCH   4   7
ATOM      7  C   UNL     1       2.865  -4.675  -1.322  0.00  0.00    +0.000 A 
ATOM      8  C   UNL     1       1.880  -5.219  -0.494  0.00  0.00    +0.000 A 
ATOM      9  C   UNL     1       1.748  -6.598  -0.379  0.00  0.00    +0.000 A 
ATOM     10  C   UNL     1       2.593  -7.401  -1.122  0.00  0.00    +0.000 A 
ATOM     11  N   UNL     1       3.553  -6.917  -1.947  0.00  0.00    +0.000 NA
ATOM     12  C   UNL     1       3.654  -5.571  -2.035  0.00  0.00    +0.000 A 
BRANCH  10  13
ATOM     13  O   UNL     1       2.431  -8.771  -0.974  0.00  0.00    +0.000 OA
BRANCH  13  14
ATOM     14  C   UNL     1       2.733  -9.572  -2.050  0.00  0.00    +0.000 A 
ATOM     15  C   UNL     1       2.432  -9.222  -3.373  0.00  0.00    +0.000 A 
ATOM     16  C   UNL     1       2.743 -10.092  -4.420  0.00  0.00    +0.000 A 
ATOM     17  C   UNL     1       3.320 -11.329  -4.146  0.00  0.00    +0.000 A 
ATOM     18  C   UNL     1       3.582 -11.690  -2.827  0.00  0.00    +0.000 A 
ATOM     19  F   UNL     1       4.119 -12.892  -2.574  0.00  0.00    +0.000 F 
ATOM     20  C   UNL     1       3.289 -10.823  -1.780  0.00  0.00    +0.000 A 
ATOM     21  F   UNL     1       3.537 -11.196  -0.516  0.00  0.00    +0.000 F 
ENDBRANCH  13  14
ENDBRANCH  10  13
ENDBRANCH   4   7
BRANCH   1  23
ATOM     22  C   UNL     1       0.867  -0.007   0.108  0.00  0.00    +0.000 C 
ATOM     23  C   UNL     1       2.399   0.006  -0.037  0.00  0.00    +0.000 C 
BRANCH  23  24
ATOM     24  C   UNL     1       2.853   1.336  -0.543  0.00  0.00    +0.000 A 
ATOM     25  N   UNL     1       2.168   2.124  -1.353  0.00  0.00    +0.000 NA
ATOM     26  N   UNL     1       2.741   3.360  -1.266  0.00  0.00    +0.000 NA
ATOM     27  N   UNL     1       3.773   3.347  -0.440  0.00  0.00    +0.000 NA
ATOM     28  N   UNL     1       3.940   2.054  -0.064  0.00  0.00    +0.000 N 
BRANCH  28  29
ATOM     29  C   UNL     1       5.099   1.649   0.646  0.00  0.00    +0.000 A 
ATOM     30  C   UNL     1       5.819   2.601   1.382  0.00  0.00    +0.000 A 
ATOM     31  C   UNL     1       6.975   2.224   2.068  0.00  0.00    +0.000 A 
ATOM     32  C   UNL     1       7.433   0.910   1.998  0.00  0.00    +0.000 A 
ATOM     33  C   UNL     1       6.738  -0.030   1.243  0.00  0.00    +0.000 A 
ATOM     34  C   UNL     1       5.571   0.335   0.570  0.00  0.00    +0.000 A 
ENDBRANCH  28  29
ENDBRANCH  23  24
ENDBRANCH   1  23
TORSDOF 6
