REMARK  Name = 
REMARK  9 active torsions:
REMARK  status: ('A' for Active; 'I' for Inactive)
REMARK    1  A    between atoms: C_1  and  C_2
REMARK    2  A    between atoms: C_3  and  C_4
REMARK    3  A    between atoms: N_6  and  C_7
REMARK    4  A    between atoms: C_7  and  C_8
REMARK    5  A    between atoms: C_12  and  C_13
REMARK    6  A    between atoms: N_22  and  C_23
REMARK    7  A    between atoms: C_23  and  C_24
REMARK    8  A    between atoms: C_24  and  O_25
REMARK    9  A    between atoms: O_25  and  C_26
REMARK                            x       y       z     vdW  Elec       q    Type
REMARK                         _______ _______ _______ _____ _____    ______ ____
ROOT
ATOM      1  C   UNL     1       2.900  -2.449  -0.150  0.00  0.00    +0.000 C 
ATOM      2  O   UNL     1       1.728  -2.809  -0.195  0.00  0.00    +0.000 OA
ATOM      3  N   UNL     1       3.962  -3.331  -0.113  0.00  0.00    +0.000 N 
ATOM      4  H   UNL     1       4.894  -2.943  -0.205  0.00  0.00    +0.000 HD
ENDROOT
BRANCH   1   7
ATOM      5  C   UNL     1       1.058   0.322  -0.219  0.00  0.00    +0.000 C 
ATOM      6  C   UNL     1       2.524   0.108  -0.161  0.00  0.00    +0.000 A 
ATOM      7  C   UNL     1       3.305  -1.043  -0.131  0.00  0.00    +0.000 A 
ATOM      8  N   UNL     1       4.629  -0.679  -0.076  0.00  0.00    +0.000 NA
ATOM      9  N   UNL     1       4.699   0.639  -0.066  0.00  0.00    +0.000 NA
ATOM     10  N   UNL     1       3.444   1.129  -0.122  0.00  0.00    +0.000 N 
BRANCH  10  11
ATOM     11  C   UNL     1       3.230   2.571  -0.136  0.00  0.00    +0.000 C 
BRANCH  11  12
ATOM     12  C   UNL     1       4.550   3.345  -0.083  0.00  0.00    +0.000 C 
BRANCH  12  13
ATOM     13  O   UNL     1       4.370   4.765  -0.117  0.00  0.00    +0.000 OA
BRANCH  13  14
ATOM     14  C   UNL     1       5.547   5.483  -0.108  0.00  0.00    +0.000 A 
ATOM     15  C   UNL     1       6.834   4.930  -0.041  0.00  0.00    +0.000 A 
ATOM     16  C   UNL     1       7.963   5.751  -0.051  0.00  0.00    +0.000 A 
ATOM     17  C   UNL     1       7.809   7.127  -0.127  0.00  0.00    +0.000 A 
ATOM     18  F   UNL     1       8.895   7.912  -0.140  0.00  0.00    +0.000 F 
ATOM     19  C   UNL     1       6.544   7.696  -0.190  0.00  0.00    +0.000 A 
ATOM     20  C   UNL     1       5.411   6.874  -0.184  0.00  0.00    +0.000 A 
ENDBRANCH  13  14
ENDBRANCH  12  13
ENDBRANCH  11  12
ENDBRANCH  10  11
ENDBRANCH   1   7
BRANCH   3  21
ATOM     21  C   UNL     1       3.782  -4.759  -0.229  0.00  0.00    +0.000 C 
BRANCH  21  22
ATOM     22  C   UNL     1       4.816  -5.542   0.545  0.00  0.00    +0.000 A 
ATOM     23  C   UNL     1       4.984  -5.330   1.919  0.00  0.00    +0.000 A 
ATOM     24  C   UNL     1       5.872  -6.114   2.652  0.00  0.00    +0.000 A 
ATOM     25  C   UNL     1       6.578  -7.145   2.027  0.00  0.00    +0.000 A 
ATOM     26  C   UNL     1       6.412  -7.420   0.658  0.00  0.00    +0.000 A 
ATOM     27  C   UNL     1       5.547  -6.576  -0.071  0.00  0.00    +0.000 A 
BRANCH  26  28
ATOM     28  C   UNL     1       7.053  -8.591   0.015  0.00  0.00    +0.000 A 
ATOM     29  C   UNL     1       7.264  -9.792   0.698  0.00  0.00    +0.000 A 
ATOM     30  C   UNL     1       7.799 -10.886   0.021  0.00  0.00    +0.000 A 
ATOM     31  C   UNL     1       8.118 -10.762  -1.322  0.00  0.00    +0.000 A 
ATOM     32  C   UNL     1       7.888  -9.541  -1.933  0.00  0.00    +0.000 A 
ATOM     33  N   UNL     1       7.362  -8.465  -1.302  0.00  0.00    +0.000 NA
ENDBRANCH  26  28
ENDBRANCH  21  22
ENDBRANCH   3  21
TORSDOF 8
