REMARK  Name = 
REMARK  6 active torsions:
REMARK  status: ('A' for Active; 'I' for Inactive)
REMARK    1  A    between atoms: C_2  and  C_3
REMARK    2  A    between atoms: C_3  and  N_4
REMARK    3  A    between atoms: N_16  and  C_17
REMARK    4  A    between atoms: C_17  and  C_18
REMARK    5  A    between atoms: C_17  and  C_28
REMARK    6  A    between atoms: C_22  and  C_23
REMARK                            x       y       z     vdW  Elec       q    Type
REMARK                         _______ _______ _______ _____ _____    ______ ____
ROOT
ATOM      1  O   UNL     1       2.648  -0.864   0.106  0.00  0.00    +0.000 OA
ATOM      2  C   UNL     1       2.234   0.291   0.187  0.00  0.00    +0.000 C 
ATOM      3  N   UNL     1       3.053   1.394   0.078  0.00  0.00    +0.000 N 
ATOM      4  H   UNL     1       2.675   2.312   0.281  0.00  0.00    +0.000 HD
ENDROOT
BRANCH   2   5
ATOM      5  C   UNL     1       0.766   0.614   0.502  0.00  0.00    +0.000 C 
BRANCH   5   6
ATOM      6  N   UNL     1      -0.218  -0.010  -0.378  0.00  0.00    +0.000 N 
ATOM      7  C   UNL     1      -0.636  -1.298  -0.146  0.00  0.00    +0.000 A 
ATOM      8  N   UNL     1      -1.645  -1.865  -0.726  0.00  0.00    +0.000 NA
ATOM      9  C   UNL     1      -2.403  -1.097  -1.622  0.00  0.00    +0.000 A 
ATOM     10  C   UNL     1      -3.571  -1.643  -2.166  0.00  0.00    +0.000 A 
ATOM     11  C   UNL     1      -4.385  -0.879  -3.006  0.00  0.00    +0.000 A 
ATOM     12  C   UNL     1      -4.023   0.428  -3.310  0.00  0.00    +0.000 A 
ATOM     13  F   UNL     1      -4.823   1.169  -4.088  0.00  0.00    +0.000 F 
ATOM     14  C   UNL     1      -2.855   0.985  -2.802  0.00  0.00    +0.000 A 
ATOM     15  C   UNL     1      -2.050   0.212  -1.958  0.00  0.00    +0.000 A 
ATOM     16  C   UNL     1      -0.842   0.784  -1.328  0.00  0.00    +0.000 A 
ATOM     17  O   UNL     1      -0.475   1.919  -1.620  0.00  0.00    +0.000 OA
ENDBRANCH   5   6
ENDBRANCH   2   5
BRANCH   3  18
ATOM     18  C   UNL     1       4.505   1.313   0.078  0.00  0.00    +0.000 C 
BRANCH  18  19
ATOM     19  C   UNL     1       4.993   2.040   1.306  0.00  0.00    +0.000 A 
ATOM     20  N   UNL     1       4.403   3.044   1.930  0.00  0.00    +0.000 NA
ATOM     21  N   UNL     1       5.226   3.454   2.950  0.00  0.00    +0.000 NA
ATOM     22  C   UNL     1       6.298   2.698   2.929  0.00  0.00    +0.000 A 
ATOM     23  N   UNL     1       6.199   1.797   1.912  0.00  0.00    +0.000 N 
ATOM     24  H   UNL     1       6.889   1.108   1.647  0.00  0.00    +0.000 HD
ENDBRANCH  18  19
BRANCH  18  25
ATOM     25  C   UNL     1       5.109   1.925  -1.181  0.00  0.00    +0.000 A 
ATOM     26  C   UNL     1       5.866   1.134  -2.060  0.00  0.00    +0.000 A 
ATOM     27  C   UNL     1       6.537   1.711  -3.141  0.00  0.00    +0.000 A 
ATOM     28  C   UNL     1       6.483   3.090  -3.347  0.00  0.00    +0.000 A 
ATOM     29  C   UNL     1       5.735   3.905  -2.489  0.00  0.00    +0.000 A 
ATOM     30  C   UNL     1       5.016   3.307  -1.438  0.00  0.00    +0.000 A 
BRANCH  29  31
ATOM     31  C   UNL     1       5.745   5.409  -2.631  0.00  0.00    +0.000 C 
ATOM     32  F   UNL     1       6.637   5.858  -3.560  0.00  0.00    +0.000 F 
ATOM     33  F   UNL     1       4.538   5.919  -2.992  0.00  0.00    +0.000 F 
ATOM     34  F   UNL     1       6.086   6.031  -1.468  0.00  0.00    +0.000 F 
ENDBRANCH  29  31
ENDBRANCH  18  25
ENDBRANCH   3  18
TORSDOF 6
