REMARK  Name = 
REMARK  5 active torsions:
REMARK  status: ('A' for Active; 'I' for Inactive)
REMARK    1  A    between atoms: C_2  and  O_3
REMARK    2  A    between atoms: C_2  and  C_17
REMARK    3  A    between atoms: O_3  and  C_4
REMARK    4  A    between atoms: C_4  and  C_5
REMARK    5  A    between atoms: C_5  and  C_7
REMARK                            x       y       z     vdW  Elec       q    Type
REMARK                         _______ _______ _______ _____ _____    ______ ____
ROOT
ATOM      1  O   UNL     1       2.943   0.619   0.858  0.00  0.00    +0.000 OA
ATOM      2  C   UNL     1       2.348   0.078  -0.059  0.00  0.00    +0.000 C 
ENDROOT
BRANCH   2   3
ATOM      3  C   UNL     1       0.886   0.257  -0.312  0.00  0.00    +0.000 A 
ATOM      4  C   UNL     1       0.128   0.982   0.627  0.00  0.00    +0.000 A 
ATOM      5  C   UNL     1      -1.247   1.180   0.433  0.00  0.00    +0.000 A 
ATOM      6  C   UNL     1      -1.860   0.664  -0.714  0.00  0.00    +0.000 A 
ATOM      7  N   UNL     1      -3.232   0.872  -0.922  0.00  0.00    +0.000 N 
ATOM      8  C   UNL     1      -4.029   1.575  -0.059  0.00  0.00    +0.000 A 
ATOM      9  O   UNL     1      -5.222   1.767  -0.268  0.00  0.00    +0.000 OA
ATOM     10  C   UNL     1      -3.374   2.105   1.163  0.00  0.00    +0.000 A 
ATOM     11  C   UNL     1      -2.069   1.918   1.396  0.00  0.00    +0.000 A 
ATOM     12  C   UNL     1      -1.105  -0.045  -1.648  0.00  0.00    +0.000 A 
ATOM     13  F   UNL     1      -1.692  -0.530  -2.752  0.00  0.00    +0.000 F 
ATOM     14  C   UNL     1       0.259  -0.252  -1.458  0.00  0.00    +0.000 A 
ATOM     15  H   UNL     1      -3.677   0.500  -1.753  0.00  0.00    +0.000 HD
ENDBRANCH   2   3
BRANCH   2  16
ATOM     16  O   UNL     1       2.904  -0.720  -1.002  0.00  0.00    +0.000 OA
BRANCH  16  17
ATOM     17  C   UNL     1       4.317  -0.918  -0.886  0.00  0.00    +0.000 C 
BRANCH  17  18
ATOM     18  C   UNL     1       4.760  -2.045   0.065  0.00  0.00    +0.000 C 
ATOM     19  O   UNL     1       3.942  -2.656   0.753  0.00  0.00    +0.000 OA
BRANCH  18  20
ATOM     20  C   UNL     1       6.193  -2.393   0.083  0.00  0.00    +0.000 A 
ATOM     21  C   UNL     1       7.179  -1.792  -0.683  0.00  0.00    +0.000 A 
ATOM     22  N   UNL     1       8.377  -2.398  -0.416  0.00  0.00    +0.000 N 
ATOM     23  C   UNL     1       8.210  -3.396   0.512  0.00  0.00    +0.000 A 
ATOM     24  C   UNL     1       9.156  -4.273   1.060  0.00  0.00    +0.000 A 
ATOM     25  C   UNL     1       8.708  -5.203   1.998  0.00  0.00    +0.000 A 
ATOM     26  C   UNL     1       7.370  -5.239   2.365  0.00  0.00    +0.000 A 
ATOM     27  F   UNL     1       6.970  -6.142   3.271  0.00  0.00    +0.000 F 
ATOM     28  C   UNL     1       6.431  -4.364   1.813  0.00  0.00    +0.000 A 
ATOM     29  C   UNL     1       6.854  -3.414   0.856  0.00  0.00    +0.000 A 
ATOM     30  H   UNL     1       9.263  -2.157  -0.841  0.00  0.00    +0.000 HD
ENDBRANCH  18  20
ENDBRANCH  17  18
ENDBRANCH  16  17
ENDBRANCH   2  16
TORSDOF 5
