REMARK  Name = 
REMARK  6 active torsions:
REMARK  status: ('A' for Active; 'I' for Inactive)
REMARK    1  A    between atoms: C_2  and  C_3
REMARK    2  A    between atoms: C_2  and  O_12
REMARK    3  A    between atoms: C_3  and  N_4
REMARK    4  A    between atoms: O_12  and  C_13
REMARK    5  A    between atoms: C_13  and  C_14
REMARK    6  A    between atoms: N_23  and  C_24
REMARK                            x       y       z     vdW  Elec       q    Type
REMARK                         _______ _______ _______ _____ _____    ______ ____
ROOT
ATOM      1  C   UNL     1       5.552  -1.810   0.965  0.00  0.00    +0.000 A 
ATOM      2  N   UNL     1       6.193  -0.853   1.630  0.00  0.00    +0.000 NA
ATOM      3  C   UNL     1       7.340  -0.736   0.893  0.00  0.00    +0.000 A 
ATOM      4  C   UNL     1       8.205   0.345   0.780  0.00  0.00    +0.000 A 
ATOM      5  C   UNL     1       9.185   0.265  -0.202  0.00  0.00    +0.000 A 
ATOM      6  F   UNL     1       9.972   1.335  -0.412  0.00  0.00    +0.000 F 
ATOM      7  C   UNL     1       9.365  -0.863  -1.002  0.00  0.00    +0.000 A 
ATOM      8  C   UNL     1       8.551  -1.985  -0.846  0.00  0.00    +0.000 A 
ATOM      9  C   UNL     1       7.531  -1.871   0.106  0.00  0.00    +0.000 A 
ATOM     10  N   UNL     1       6.534  -2.722   0.571  0.00  0.00    +0.000 N 
ENDROOT
BRANCH  10  11
ATOM     11  C   UNL     1       6.681  -4.088   0.971  0.00  0.00    +0.000 A 
ATOM     12  C   UNL     1       7.960  -4.669   1.009  0.00  0.00    +0.000 A 
ATOM     13  C   UNL     1       8.155  -5.936   1.567  0.00  0.00    +0.000 A 
ATOM     14  C   UNL     1       7.072  -6.644   2.074  0.00  0.00    +0.000 A 
ATOM     15  C   UNL     1       5.793  -6.088   2.017  0.00  0.00    +0.000 A 
ATOM     16  C   UNL     1       5.593  -4.810   1.474  0.00  0.00    +0.000 A 
ENDBRANCH  10  11
BRANCH   1  17
ATOM     17  C   UNL     1       4.335  -1.440   0.161  0.00  0.00    +0.000 C 
BRANCH  17  18
ATOM     18  O   UNL     1       4.220  -2.245  -1.009  0.00  0.00    +0.000 OA
BRANCH  18  20
ATOM     19  O   UNL     1       1.940  -2.168  -0.757  0.00  0.00    +0.000 OA
ATOM     20  C   UNL     1       2.937  -2.443  -1.415  0.00  0.00    +0.000 C 
BRANCH  20  21
ATOM     21  C   UNL     1       2.881  -3.041  -2.809  0.00  0.00    +0.000 C 
BRANCH  21  22
ATOM     22  N   UNL     1       2.287  -4.371  -2.778  0.00  0.00    +0.000 N 
ATOM     23  C   UNL     1       0.918  -4.539  -2.939  0.00  0.00    +0.000 A 
ATOM     24  C   UNL     1       0.372  -5.761  -2.917  0.00  0.00    +0.000 A 
ATOM     25  F   UNL     1      -0.953  -5.930  -3.076  0.00  0.00    +0.000 F 
ATOM     26  C   UNL     1       1.194  -6.922  -2.724  0.00  0.00    +0.000 A 
ATOM     27  C   UNL     1       2.516  -6.793  -2.532  0.00  0.00    +0.000 A 
ATOM     28  C   UNL     1       3.145  -5.443  -2.537  0.00  0.00    +0.000 A 
ATOM     29  O   UNL     1       4.350  -5.332  -2.337  0.00  0.00    +0.000 OA
ENDBRANCH  21  22
ENDBRANCH  20  21
ENDBRANCH  18  20
ENDBRANCH  17  18
ENDBRANCH   1  17
TORSDOF 6
