REMARK  Name = 
REMARK  5 active torsions:
REMARK  status: ('A' for Active; 'I' for Inactive)
REMARK    1  A    between atoms: C_2  and  C_3
REMARK    2  A    between atoms: C_8  and  S_9
REMARK    3  A    between atoms: S_9  and  C_10
REMARK    4  A    between atoms: C_15  and  C_16
REMARK    5  A    between atoms: N_18  and  C_19
REMARK                            x       y       z     vdW  Elec       q    Type
REMARK                         _______ _______ _______ _____ _____    ______ ____
ROOT
ATOM      1  C   UNL     1      -2.541   3.662  -2.460  0.00  0.00    +0.000 C 
ATOM      2  O   UNL     1      -3.228   4.521  -3.006  0.00  0.00    +0.000 OA
ATOM      3  N   UNL     1      -1.344   3.157  -2.930  0.00  0.00    +0.000 N 
ATOM      4  H   UNL     1      -0.873   2.458  -2.372  0.00  0.00    +0.000 HD
ENDROOT
BRANCH   3   5
ATOM      5  C   UNL     1      -0.739   3.538  -4.143  0.00  0.00    +0.000 A 
ATOM      6  C   UNL     1       0.481   2.971  -4.469  0.00  0.00    +0.000 A 
ATOM      7  C   UNL     1       1.098   3.370  -5.661  0.00  0.00    +0.000 A 
ATOM      8  C   UNL     1       0.505   4.301  -6.509  0.00  0.00    +0.000 A 
ATOM      9  C   UNL     1      -0.720   4.790  -6.110  0.00  0.00    +0.000 A 
ATOM     10  N   UNL     1      -1.335   4.429  -4.959  0.00  0.00    +0.000 NA
ATOM     11  N   UNL     1       1.173   4.706  -7.658  0.00  0.00    +0.000 N 
ATOM     12  C   UNL     1       2.429   4.227  -7.878  0.00  0.00    +0.000 A 
ATOM     13  N   UNL     1       3.064   3.356  -7.171  0.00  0.00    +0.000 NA
ATOM     14  C   UNL     1       2.417   2.820  -6.074  0.00  0.00    +0.000 A 
ATOM     15  O   UNL     1       2.886   1.902  -5.411  0.00  0.00    +0.000 OA
ATOM     16  H   UNL     1       0.739   5.362  -8.296  0.00  0.00    +0.000 HD
ENDBRANCH   3   5
BRANCH   1  22
ATOM     17  C   UNL     1      -2.355   2.643  -0.079  0.00  0.00    +0.000 A 
ATOM     18  C   UNL     1      -3.051   2.046   0.992  0.00  0.00    +0.000 A 
ATOM     19  C   UNL     1      -4.439   1.899   0.977  0.00  0.00    +0.000 A 
ATOM     20  C   UNL     1      -5.164   2.330  -0.123  0.00  0.00    +0.000 A 
ATOM     21  C   UNL     1      -4.495   2.902  -1.204  0.00  0.00    +0.000 A 
ATOM     22  C   UNL     1      -3.090   3.055  -1.207  0.00  0.00    +0.000 A 
BRANCH  17  23
ATOM     23  S   UNL     1      -0.578   2.702   0.114  0.00  0.00    +0.000 S 
BRANCH  23  29
ATOM     24  C   UNL     1      -0.616   4.967   1.863  0.00  0.00    +0.000 A 
ATOM     25  C   UNL     1      -0.210   6.280   2.167  0.00  0.00    +0.000 A 
ATOM     26  C   UNL     1       0.594   7.002   1.286  0.00  0.00    +0.000 A 
ATOM     27  C   UNL     1       1.003   6.415   0.095  0.00  0.00    +0.000 A 
ATOM     28  C   UNL     1       0.590   5.120  -0.225  0.00  0.00    +0.000 A 
ATOM     29  C   UNL     1      -0.238   4.383   0.639  0.00  0.00    +0.000 A 
BRANCH  24  31
ATOM     30  N   UNL     1      -1.938   3.744   3.730  0.00  0.00    +0.000 NA
ATOM     31  C   UNL     1      -1.359   4.267   2.874  0.00  0.00    +0.000 C 
ENDBRANCH  24  31
ENDBRANCH  23  29
ENDBRANCH  17  23
ENDBRANCH   1  22
TORSDOF 5
