REMARK  Name = 
REMARK  6 active torsions:
REMARK  status: ('A' for Active; 'I' for Inactive)
REMARK    1  A    between atoms: C_2  and  C_20
REMARK    2  A    between atoms: N_3  and  C_4
REMARK    3  A    between atoms: C_4  and  C_5
REMARK    4  A    between atoms: C_7  and  O_8
REMARK    5  A    between atoms: O_8  and  C_9
REMARK    6  A    between atoms: N_22  and  C_23
REMARK                            x       y       z     vdW  Elec       q    Type
REMARK                         _______ _______ _______ _____ _____    ______ ____
ROOT
ATOM      1  O   UNL     1       3.127  -2.402   0.966  0.00  0.00    +0.000 OA
ATOM      2  C   UNL     1       3.304  -1.299   0.448  0.00  0.00    +0.000 C 
ATOM      3  N   UNL     1       2.974  -0.122   1.070  0.00  0.00    +0.000 N 
ATOM      4  H   UNL     1       3.251   0.747   0.626  0.00  0.00    +0.000 HD
ENDROOT
BRANCH   2   5
ATOM      5  C   UNL     1       3.853  -1.165  -0.897  0.00  0.00    +0.000 A 
ATOM      6  N   UNL     1       4.114   0.008  -1.510  0.00  0.00    +0.000 NA
ATOM      7  N   UNL     1       4.543  -0.399  -2.743  0.00  0.00    +0.000 N 
ATOM      8  N   UNL     1       4.576  -1.742  -2.948  0.00  0.00    +0.000 NA
ATOM      9  C   UNL     1       4.157  -2.218  -1.777  0.00  0.00    +0.000 A 
BRANCH   7  10
ATOM     10  C   UNL     1       4.941   0.514  -3.755  0.00  0.00    +0.000 A 
ATOM     11  C   UNL     1       4.997   1.890  -3.484  0.00  0.00    +0.000 A 
ATOM     12  C   UNL     1       5.412   2.775  -4.482  0.00  0.00    +0.000 A 
ATOM     13  C   UNL     1       5.752   2.289  -5.741  0.00  0.00    +0.000 A 
ATOM     14  F   UNL     1       6.146   3.144  -6.693  0.00  0.00    +0.000 F 
ATOM     15  C   UNL     1       5.691   0.930  -6.025  0.00  0.00    +0.000 A 
ATOM     16  C   UNL     1       5.291   0.036  -5.030  0.00  0.00    +0.000 A 
ENDBRANCH   7  10
ENDBRANCH   2   5
BRANCH   3  17
ATOM     17  C   UNL     1       2.294  -0.095   2.349  0.00  0.00    +0.000 C 
BRANCH  17  18
ATOM     18  C   UNL     1       3.248  -0.043   3.519  0.00  0.00    +0.000 A 
ATOM     19  C   UNL     1       3.726  -1.224   4.080  0.00  0.00    +0.000 A 
ATOM     20  C   UNL     1       4.689  -1.150   5.084  0.00  0.00    +0.000 A 
ATOM     21  C   UNL     1       5.069   0.095   5.570  0.00  0.00    +0.000 A 
ATOM     22  C   UNL     1       4.519   1.219   4.981  0.00  0.00    +0.000 A 
ATOM     23  N   UNL     1       3.641   1.180   3.955  0.00  0.00    +0.000 NA
BRANCH  20  24
ATOM     24  O   UNL     1       5.276  -2.241   5.687  0.00  0.00    +0.000 OA
BRANCH  24  25
ATOM     25  C   UNL     1       5.494  -3.396   4.968  0.00  0.00    +0.000 A 
ATOM     26  C   UNL     1       5.751  -3.435   3.591  0.00  0.00    +0.000 A 
ATOM     27  C   UNL     1       5.904  -4.659   2.937  0.00  0.00    +0.000 A 
ATOM     28  C   UNL     1       5.871  -5.836   3.674  0.00  0.00    +0.000 A 
ATOM     29  F   UNL     1       6.022  -7.009   3.045  0.00  0.00    +0.000 F 
ATOM     30  C   UNL     1       5.693  -5.796   5.053  0.00  0.00    +0.000 A 
ATOM     31  F   UNL     1       5.696  -6.932   5.764  0.00  0.00    +0.000 F 
ATOM     32  C   UNL     1       5.502  -4.582   5.707  0.00  0.00    +0.000 A 
ENDBRANCH  24  25
ENDBRANCH  20  24
ENDBRANCH  17  18
ENDBRANCH   3  17
TORSDOF 6
