REMARK  Name = 
REMARK  10 active torsions:
REMARK  status: ('A' for Active; 'I' for Inactive)
REMARK    1  A    between atoms: C_1  and  C_2
REMARK    2  A    between atoms: C_2  and  N_3
REMARK    3  A    between atoms: N_3  and  C_4
REMARK    4  A    between atoms: N_3  and  C_6
REMARK    5  A    between atoms: C_4  and  C_5
REMARK    6  A    between atoms: C_6  and  C_7
REMARK    7  A    between atoms: C_7  and  N_8
REMARK    8  A    between atoms: C_7  and  C_28
REMARK    9  A    between atoms: C_9  and  C_11
REMARK   10  A    between atoms: C_14  and  N_15
REMARK                            x       y       z     vdW  Elec       q    Type
REMARK                         _______ _______ _______ _____ _____    ______ ____
ROOT
ATOM      1  N   UNL     1       4.454  -1.466  -3.357  0.00  0.00    +0.000 N 
ATOM      2  C   UNL     1       3.967  -2.395  -4.241  0.00  0.00    +0.000 C 
ATOM      3  O   UNL     1       3.800  -3.578  -3.958  0.00  0.00    +0.000 OA
ATOM      4  H   UNL     1       4.664  -0.531  -3.667  0.00  0.00    +0.000 HD
ENDROOT
BRANCH   2   5
ATOM      5  C   UNL     1       3.587  -1.904  -5.596  0.00  0.00    +0.000 A 
ATOM      6  C   UNL     1       3.419  -2.855  -6.607  0.00  0.00    +0.000 A 
ATOM      7  C   UNL     1       2.714  -2.528  -7.762  0.00  0.00    +0.000 A 
ATOM      8  C   UNL     1       2.066  -1.285  -7.835  0.00  0.00    +0.000 A 
ATOM      9  C   UNL     1       2.497  -0.254  -6.986  0.00  0.00    +0.000 A 
ATOM     10  C   UNL     1       3.230  -0.573  -5.841  0.00  0.00    +0.000 A 
BRANCH   8  11
ATOM     11  N   UNL     1       0.734  -1.218  -8.457  0.00  0.00    +0.000 N 
ATOM     12  C   UNL     1      -0.076  -0.231  -7.937  0.00  0.00    +0.000 A 
ATOM     13  N   UNL     1      -0.811  -0.384  -6.875  0.00  0.00    +0.000 NA
ATOM     14  C   UNL     1      -0.731  -1.666  -6.275  0.00  0.00    +0.000 A 
ATOM     15  C   UNL     1      -0.814  -1.815  -4.890  0.00  0.00    +0.000 A 
ATOM     16  C   UNL     1      -0.555  -3.062  -4.312  0.00  0.00    +0.000 A 
ATOM     17  C   UNL     1      -0.270  -4.176  -5.112  0.00  0.00    +0.000 A 
ATOM     18  C   UNL     1      -0.212  -4.045  -6.498  0.00  0.00    +0.000 A 
ATOM     19  C   UNL     1      -0.405  -2.782  -7.050  0.00  0.00    +0.000 A 
ATOM     20  C   UNL     1       0.070  -2.450  -8.418  0.00  0.00    +0.000 A 
ATOM     21  O   UNL     1      -0.078  -3.211  -9.365  0.00  0.00    +0.000 OA
ENDBRANCH   8  11
ENDBRANCH   2   5
BRANCH   1  22
ATOM     22  C   UNL     1       4.907  -1.835  -2.022  0.00  0.00    +0.000 C 
BRANCH  22  23
ATOM     23  C   UNL     1       6.431  -1.899  -2.015  0.00  0.00    +0.000 A 
ATOM     24  C   UNL     1       7.084  -3.104  -1.710  0.00  0.00    +0.000 A 
ATOM     25  C   UNL     1       8.478  -3.178  -1.710  0.00  0.00    +0.000 A 
ATOM     26  C   UNL     1       9.238  -2.053  -2.023  0.00  0.00    +0.000 A 
ATOM     27  C   UNL     1       8.606  -0.853  -2.339  0.00  0.00    +0.000 A 
ATOM     28  C   UNL     1       7.213  -0.775  -2.337  0.00  0.00    +0.000 A 
ENDBRANCH  22  23
BRANCH  22  29
ATOM     29  C   UNL     1       4.376  -0.842  -0.936  0.00  0.00    +0.000 C 
BRANCH  29  30
ATOM     30  N   UNL     1       2.900  -0.604  -0.907  0.00  0.00    +0.000 NA
BRANCH  30  32
ATOM     31  C   UNL     1       0.678  -1.747  -0.459  0.00  0.00    +0.000 C 
ATOM     32  C   UNL     1       2.203  -1.847  -0.496  0.00  0.00    +0.000 C 
ENDBRANCH  30  32
BRANCH  30  33
ATOM     33  C   UNL     1       2.566   0.509   0.005  0.00  0.00    +0.000 C 
ATOM     34  C   UNL     1       3.124   1.873  -0.406  0.00  0.00    +0.000 C 
ENDBRANCH  30  33
ENDBRANCH  29  30
ENDBRANCH  22  29
ENDBRANCH   1  22
TORSDOF 8
