REMARK  Name = 
REMARK  6 active torsions:
REMARK  status: ('A' for Active; 'I' for Inactive)
REMARK    1  A    between atoms: C_2  and  C_22
REMARK    2  A    between atoms: N_3  and  C_4
REMARK    3  A    between atoms: C_4  and  C_5
REMARK    4  A    between atoms: N_7  and  C_8
REMARK    5  A    between atoms: C_13  and  C_14
REMARK    6  A    between atoms: C_28  and  O_29
REMARK                            x       y       z     vdW  Elec       q    Type
REMARK                         _______ _______ _______ _____ _____    ______ ____
ROOT
ATOM      1  C   UNL     1       3.155   2.041  -2.891  0.00  0.00    +0.000 A 
ATOM      2  C   UNL     1       3.331   3.400  -3.039  0.00  0.00    +0.000 A 
ATOM      3  N   UNL     1       4.215   3.528  -4.086  0.00  0.00    +0.000 N 
ATOM      4  N   UNL     1       4.673   2.303  -4.438  0.00  0.00    +0.000 NA
ATOM      5  N   UNL     1       4.010   1.390  -3.737  0.00  0.00    +0.000 NA
ENDROOT
BRANCH   3   6
ATOM      6  C   UNL     1       4.606   4.728  -4.732  0.00  0.00    +0.000 A 
ATOM      7  C   UNL     1       4.793   5.851  -3.892  0.00  0.00    +0.000 A 
ATOM      8  C   UNL     1       5.268   7.054  -4.402  0.00  0.00    +0.000 A 
ATOM      9  C   UNL     1       5.551   7.154  -5.754  0.00  0.00    +0.000 A 
ATOM     10  C   UNL     1       5.313   6.065  -6.601  0.00  0.00    +0.000 A 
ATOM     11  C   UNL     1       4.814   4.821  -6.137  0.00  0.00    +0.000 A 
BRANCH  11  12
ATOM     12  C   UNL     1       4.431   3.785  -7.157  0.00  0.00    +0.000 A 
ATOM     13  C   UNL     1       5.101   3.675  -8.394  0.00  0.00    +0.000 A 
ATOM     14  C   UNL     1       4.729   2.730  -9.362  0.00  0.00    +0.000 A 
ATOM     15  C   UNL     1       3.704   1.829  -9.102  0.00  0.00    +0.000 A 
ATOM     16  C   UNL     1       3.015   1.913  -7.902  0.00  0.00    +0.000 A 
ATOM     17  C   UNL     1       3.343   2.909  -6.974  0.00  0.00    +0.000 A 
ENDBRANCH  11  12
ENDBRANCH   3   6
BRANCH   1  18
ATOM     18  C   UNL     1       2.192   1.303  -2.040  0.00  0.00    +0.000 C 
BRANCH  18  21
ATOM     19  O   UNL     1       1.950   3.074   0.119  0.00  0.00    +0.000 OA
ATOM     20  C   UNL     1       2.598   2.041   0.272  0.00  0.00    +0.000 C 
ATOM     21  N   UNL     1       2.749   1.109  -0.722  0.00  0.00    +0.000 N 
ATOM     22  H   UNL     1       3.375   0.321  -0.579  0.00  0.00    +0.000 HD
BRANCH  20  23
ATOM     23  C   UNL     1       3.243   1.773   1.580  0.00  0.00    +0.000 A 
ATOM     24  C   UNL     1       3.043   2.691   2.616  0.00  0.00    +0.000 A 
ATOM     25  C   UNL     1       3.626   2.462   3.852  0.00  0.00    +0.000 A 
ATOM     26  F   UNL     1       3.446   3.327   4.854  0.00  0.00    +0.000 F 
ATOM     27  C   UNL     1       4.397   1.323   4.033  0.00  0.00    +0.000 A 
ATOM     28  N   UNL     1       4.618   0.410   3.058  0.00  0.00    +0.000 NA
ATOM     29  C   UNL     1       4.036   0.665   1.871  0.00  0.00    +0.000 A 
BRANCH  29  30
ATOM     30  O   UNL     1       4.315  -0.300   0.955  0.00  0.00    +0.000 OA
ATOM     31  H   UNL     1       4.891  -0.878   1.494  0.00  0.00    +0.000 HD
ENDBRANCH  29  30
ENDBRANCH  20  23
ENDBRANCH  18  21
ENDBRANCH   1  18
TORSDOF 6
