REMARK  Name = 
REMARK  6 active torsions:
REMARK  status: ('A' for Active; 'I' for Inactive)
REMARK    1  A    between atoms: C_2  and  C_15
REMARK    2  A    between atoms: N_3  and  C_4
REMARK    3  A    between atoms: C_8  and  C_9
REMARK    4  A    between atoms: C_17  and  C_18
REMARK    5  A    between atoms: C_18  and  O_19
REMARK    6  A    between atoms: O_19  and  C_20
REMARK                            x       y       z     vdW  Elec       q    Type
REMARK                         _______ _______ _______ _____ _____    ______ ____
ROOT
ATOM      1  O   UNL     1       2.757   0.682   0.805  0.00  0.00    +0.000 OA
ATOM      2  C   UNL     1       2.168  -0.132   0.107  0.00  0.00    +0.000 C 
ATOM      3  N   UNL     1       0.803  -0.216  -0.092  0.00  0.00    +0.000 N 
ATOM      4  H   UNL     1       0.401  -1.050  -0.518  0.00  0.00    +0.000 HD
ENDROOT
BRANCH   3   5
ATOM      5  C   UNL     1      -0.126   0.660   0.441  0.00  0.00    +0.000 A 
ATOM      6  C   UNL     1       0.102   1.888   1.008  0.00  0.00    +0.000 A 
ATOM      7  N   UNL     1      -1.112   2.357   1.395  0.00  0.00    +0.000 N 
ATOM      8  N   UNL     1      -2.130   1.532   1.106  0.00  0.00    +0.000 NA
ATOM      9  C   UNL     1      -1.542   0.467   0.524  0.00  0.00    +0.000 A 
ATOM     10  H   UNL     1      -1.319   3.232   1.868  0.00  0.00    +0.000 HD
BRANCH   9  11
ATOM     11  C   UNL     1      -2.306  -0.722   0.129  0.00  0.00    +0.000 A 
ATOM     12  C   UNL     1      -3.666  -0.827   0.405  0.00  0.00    +0.000 A 
ATOM     13  N   UNL     1      -4.397  -1.937   0.116  0.00  0.00    +0.000 NA
ATOM     14  C   UNL     1      -3.707  -2.944  -0.463  0.00  0.00    +0.000 A 
ATOM     15  C   UNL     1      -2.355  -2.847  -0.750  0.00  0.00    +0.000 A 
ATOM     16  N   UNL     1      -1.621  -1.744  -0.470  0.00  0.00    +0.000 NA
ENDBRANCH   9  11
ENDBRANCH   3   5
BRANCH   2  17
ATOM     17  C   UNL     1       2.961  -1.195  -0.570  0.00  0.00    +0.000 A 
ATOM     18  C   UNL     1       2.631  -1.646  -1.855  0.00  0.00    +0.000 A 
ATOM     19  C   UNL     1       3.417  -2.622  -2.486  0.00  0.00    +0.000 A 
ATOM     20  C   UNL     1       4.515  -3.159  -1.800  0.00  0.00    +0.000 A 
ATOM     21  C   UNL     1       4.854  -2.703  -0.523  0.00  0.00    +0.000 A 
ATOM     22  C   UNL     1       4.080  -1.717   0.088  0.00  0.00    +0.000 A 
BRANCH  19  23
ATOM     23  C   UNL     1       3.086  -3.083  -3.881  0.00  0.00    +0.000 C 
BRANCH  23  24
ATOM     24  O   UNL     1       2.199  -4.197  -3.801  0.00  0.00    +0.000 OA
BRANCH  24  25
ATOM     25  C   UNL     1       1.863  -4.793  -4.988  0.00  0.00    +0.000 A 
ATOM     26  C   UNL     1       2.246  -4.358  -6.256  0.00  0.00    +0.000 A 
ATOM     27  C   UNL     1       1.836  -5.069  -7.380  0.00  0.00    +0.000 A 
ATOM     28  F   UNL     1       2.210  -4.646  -8.594  0.00  0.00    +0.000 F 
ATOM     29  C   UNL     1       1.049  -6.209  -7.266  0.00  0.00    +0.000 A 
ATOM     30  C   UNL     1       0.660  -6.646  -6.004  0.00  0.00    +0.000 A 
ATOM     31  C   UNL     1       1.063  -5.935  -4.869  0.00  0.00    +0.000 A 
ENDBRANCH  24  25
ENDBRANCH  23  24
ENDBRANCH  19  23
ENDBRANCH   2  17
TORSDOF 6
