REMARK  Name = 
REMARK  5 active torsions:
REMARK  status: ('A' for Active; 'I' for Inactive)
REMARK    1  A    between atoms: C_2  and  C_17
REMARK    2  A    between atoms: N_3  and  C_4
REMARK    3  A    between atoms: C_4  and  C_5
REMARK    4  A    between atoms: N_7  and  C_8
REMARK    5  A    between atoms: C_20  and  C_21
REMARK                            x       y       z     vdW  Elec       q    Type
REMARK                         _______ _______ _______ _____ _____    ______ ____
ROOT
ATOM      1  O   UNL     1       1.100   0.038   0.018  0.00  0.00    +0.000 OA
ATOM      2  C   UNL     1       2.323   0.064   0.113  0.00  0.00    +0.000 C 
ATOM      3  N   UNL     1       2.979   0.706   1.136  0.00  0.00    +0.000 N 
ATOM      4  H   UNL     1       3.990   0.780   1.120  0.00  0.00    +0.000 HD
ENDROOT
BRANCH   2   5
ATOM      5  C   UNL     1       3.157  -0.625  -0.911  0.00  0.00    +0.000 A 
ATOM      6  C   UNL     1       2.521  -1.278  -1.973  0.00  0.00    +0.000 A 
ATOM      7  C   UNL     1       3.272  -1.944  -2.955  0.00  0.00    +0.000 A 
ATOM      8  C   UNL     1       4.677  -1.988  -2.903  0.00  0.00    +0.000 A 
ATOM      9  C   UNL     1       5.296  -1.329  -1.827  0.00  0.00    +0.000 A 
ATOM     10  C   UNL     1       4.548  -0.658  -0.857  0.00  0.00    +0.000 A 
ATOM     11  F   UNL     1       5.220  -0.049   0.132  0.00  0.00    +0.000 F 
BRANCH   8  12
ATOM     12  C   UNL     1       5.475  -2.696  -3.921  0.00  0.00    +0.000 A 
ATOM     13  C   UNL     1       6.741  -2.288  -4.320  0.00  0.00    +0.000 A 
ATOM     14  N   UNL     1       7.515  -2.926  -5.226  0.00  0.00    +0.000 NA
ATOM     15  C   UNL     1       6.984  -4.029  -5.766  0.00  0.00    +0.000 A 
ATOM     16  N   UNL     1       5.774  -4.532  -5.487  0.00  0.00    +0.000 NA
ATOM     17  C   UNL     1       5.054  -3.850  -4.567  0.00  0.00    +0.000 A 
ENDBRANCH   8  12
ENDBRANCH   2   5
BRANCH   3  18
ATOM     18  C   UNL     1       2.265   1.443   2.151  0.00  0.00    +0.000 C 
BRANCH  18  19
ATOM     19  C   UNL     1       3.044   1.389   3.412  0.00  0.00    +0.000 A 
ATOM     20  C   UNL     1       3.400   0.277   4.150  0.00  0.00    +0.000 A 
ATOM     21  N   UNL     1       4.048   0.715   5.284  0.00  0.00    +0.000 N 
ATOM     22  N   UNL     1       4.172   2.068   5.279  0.00  0.00    +0.000 NA
ATOM     23  C   UNL     1       3.562   2.462   4.161  0.00  0.00    +0.000 A 
BRANCH  21  24
ATOM     24  C   UNL     1       4.525  -0.065   6.376  0.00  0.00    +0.000 A 
ATOM     25  C   UNL     1       4.441  -1.465   6.359  0.00  0.00    +0.000 A 
ATOM     26  C   UNL     1       4.879  -2.208   7.460  0.00  0.00    +0.000 A 
ATOM     27  C   UNL     1       5.397  -1.558   8.579  0.00  0.00    +0.000 A 
ATOM     28 CL   UNL     1       5.910  -2.479   9.938  0.00  0.00    +0.000 Cl
ATOM     29  C   UNL     1       5.496  -0.170   8.603  0.00  0.00    +0.000 A 
ATOM     30  C   UNL     1       5.065   0.578   7.503  0.00  0.00    +0.000 A 
ENDBRANCH  21  24
ENDBRANCH  18  19
ENDBRANCH   3  18
TORSDOF 5
