REMARK  Name = 
REMARK  6 active torsions:
REMARK  status: ('A' for Active; 'I' for Inactive)
REMARK    1  A    between atoms: C_2  and  C_18
REMARK    2  A    between atoms: N_3  and  C_4
REMARK    3  A    between atoms: C_7  and  O_8
REMARK    4  A    between atoms: O_8  and  C_9
REMARK    5  A    between atoms: C_9  and  C_10
REMARK    6  A    between atoms: C_22  and  C_23
REMARK                            x       y       z     vdW  Elec       q    Type
REMARK                         _______ _______ _______ _____ _____    ______ ____
ROOT
ATOM      1  O   UNL     1       1.165   0.969   0.564  0.00  0.00    +0.000 OA
ATOM      2  C   UNL     1       2.236   0.489   0.211  0.00  0.00    +0.000 C 
ATOM      3  N   UNL     1       2.745   0.518  -1.075  0.00  0.00    +0.000 N 
ATOM      4  H   UNL     1       3.569  -0.042  -1.249  0.00  0.00    +0.000 HD
ENDROOT
BRANCH   3   5
ATOM      5  C   UNL     1       2.100   1.076  -2.197  0.00  0.00    +0.000 A 
ATOM      6  C   UNL     1       0.993   1.919  -2.118  0.00  0.00    +0.000 A 
ATOM      7  C   UNL     1       0.373   2.370  -3.283  0.00  0.00    +0.000 A 
ATOM      8  C   UNL     1       0.906   1.989  -4.498  0.00  0.00    +0.000 A 
ATOM      9  N   UNL     1       1.992   1.197  -4.627  0.00  0.00    +0.000 NA
ATOM     10  C   UNL     1       2.564   0.766  -3.477  0.00  0.00    +0.000 A 
BRANCH   8  11
ATOM     11  O   UNL     1       0.231   2.404  -5.624  0.00  0.00    +0.000 OA
BRANCH  11  12
ATOM     12  C   UNL     1       1.081   2.429  -6.774  0.00  0.00    +0.000 C 
BRANCH  12  13
ATOM     13  C   UNL     1       0.267   2.824  -7.984  0.00  0.00    +0.000 A 
ATOM     14  C   UNL     1      -0.754   1.989  -8.440  0.00  0.00    +0.000 A 
ATOM     15  C   UNL     1      -1.463   2.354  -9.580  0.00  0.00    +0.000 A 
ATOM     16  C   UNL     1      -1.141   3.538 -10.230  0.00  0.00    +0.000 A 
ATOM     17  C   UNL     1      -0.118   4.314  -9.711  0.00  0.00    +0.000 A 
ATOM     18  N   UNL     1       0.592   3.983  -8.611  0.00  0.00    +0.000 NA
ENDBRANCH  12  13
ENDBRANCH  11  12
ENDBRANCH   8  11
ENDBRANCH   3   5
BRANCH   2  19
ATOM     19  C   UNL     1       3.056  -0.254   1.151  0.00  0.00    +0.000 A 
ATOM     20  C   UNL     1       4.433  -0.221   1.266  0.00  0.00    +0.000 A 
ATOM     21  N   UNL     1       4.738  -0.997   2.341  0.00  0.00    +0.000 N 
ATOM     22  N   UNL     1       3.672  -1.578   2.904  0.00  0.00    +0.000 NA
ATOM     23  C   UNL     1       2.621  -1.153   2.180  0.00  0.00    +0.000 A 
ATOM     24  H   UNL     1       5.650  -1.180   2.747  0.00  0.00    +0.000 HD
BRANCH  23  25
ATOM     25  C   UNL     1       1.272  -1.665   2.456  0.00  0.00    +0.000 A 
ATOM     26  C   UNL     1       0.893  -1.995   3.763  0.00  0.00    +0.000 A 
ATOM     27  C   UNL     1      -0.367  -2.539   4.005  0.00  0.00    +0.000 A 
ATOM     28  F   UNL     1      -0.715  -2.865   5.258  0.00  0.00    +0.000 F 
ATOM     29  C   UNL     1      -1.268  -2.762   2.971  0.00  0.00    +0.000 A 
ATOM     30  C   UNL     1      -0.908  -2.434   1.669  0.00  0.00    +0.000 A 
ATOM     31  C   UNL     1       0.357  -1.896   1.413  0.00  0.00    +0.000 A 
ENDBRANCH  23  25
ENDBRANCH   2  19
TORSDOF 6
