REMARK  Name = 
REMARK  9 active torsions:
REMARK  status: ('A' for Active; 'I' for Inactive)
REMARK    1  A    between atoms: C_1  and  O_2
REMARK    2  A    between atoms: O_2  and  C_3
REMARK    3  A    between atoms: C_3  and  C_5
REMARK    4  A    between atoms: C_5  and  N_6
REMARK    5  A    between atoms: C_5  and  C_23
REMARK    6  A    between atoms: C_7  and  C_9
REMARK    7  A    between atoms: C_13  and  O_14
REMARK    8  A    between atoms: O_14  and  C_15
REMARK    9  A    between atoms: C_15  and  C_16
REMARK                            x       y       z     vdW  Elec       q    Type
REMARK                         _______ _______ _______ _____ _____    ______ ____
ROOT
ATOM      1  N   UNL     1       5.083  -0.882   0.992  0.00  0.00    +0.000 N 
ATOM      2  C   UNL     1       4.873   0.269   1.717  0.00  0.00    +0.000 C 
ATOM      3  O   UNL     1       4.394   1.289   1.237  0.00  0.00    +0.000 OA
ATOM      4  H   UNL     1       5.499  -1.693   1.429  0.00  0.00    +0.000 HD
ENDROOT
BRANCH   2   5
ATOM      5  C   UNL     1       5.289   0.239   3.145  0.00  0.00    +0.000 A 
ATOM      6  C   UNL     1       5.732   1.419   3.743  0.00  0.00    +0.000 A 
ATOM      7  C   UNL     1       6.077   1.380   5.083  0.00  0.00    +0.000 A 
ATOM      8  N   UNL     1       6.026   0.261   5.833  0.00  0.00    +0.000 NA
ATOM      9  C   UNL     1       5.590  -0.866   5.232  0.00  0.00    +0.000 A 
ATOM     10  C   UNL     1       5.196  -0.927   3.908  0.00  0.00    +0.000 A 
BRANCH   9  11
ATOM     11  O   UNL     1       5.474  -2.026   5.972  0.00  0.00    +0.000 OA
BRANCH  11  12
ATOM     12  C   UNL     1       6.351  -2.025   7.101  0.00  0.00    +0.000 C 
BRANCH  12  13
ATOM     13  C   UNL     1       6.132  -3.274   7.923  0.00  0.00    +0.000 A 
ATOM     14  C   UNL     1       7.151  -4.225   8.071  0.00  0.00    +0.000 A 
ATOM     15  C   UNL     1       6.969  -5.336   8.898  0.00  0.00    +0.000 A 
ATOM     16  C   UNL     1       5.771  -5.503   9.590  0.00  0.00    +0.000 A 
ATOM     17  C   UNL     1       4.745  -4.571   9.441  0.00  0.00    +0.000 A 
ATOM     18  C   UNL     1       4.921  -3.467   8.605  0.00  0.00    +0.000 A 
ENDBRANCH  12  13
ENDBRANCH  11  12
ENDBRANCH   9  11
ENDBRANCH   2   5
BRANCH   1  19
ATOM     19  C   UNL     1       4.627  -1.031  -0.395  0.00  0.00    +0.000 C 
BRANCH  19  20
ATOM     20  C   UNL     1       5.609  -1.908  -1.157  0.00  0.00    +0.000 A 
ATOM     21  C   UNL     1       6.418  -1.378  -2.174  0.00  0.00    +0.000 A 
ATOM     22  C   UNL     1       7.308  -2.203  -2.869  0.00  0.00    +0.000 A 
ATOM     23  C   UNL     1       7.393  -3.554  -2.547  0.00  0.00    +0.000 A 
ATOM     24  F   UNL     1       8.247  -4.339  -3.215  0.00  0.00    +0.000 F 
ATOM     25  C   UNL     1       6.611  -4.099  -1.540  0.00  0.00    +0.000 A 
ATOM     26  C   UNL     1       5.729  -3.272  -0.854  0.00  0.00    +0.000 A 
ATOM     27  F   UNL     1       4.996  -3.797   0.139  0.00  0.00    +0.000 F 
ENDBRANCH  19  20
BRANCH  19  28
ATOM     28  C   UNL     1       3.177  -1.554  -0.573  0.00  0.00    +0.000 C 
ATOM     29  O   UNL     1       2.656  -1.748  -1.676  0.00  0.00    +0.000 OA
BRANCH  28  31
ATOM     30  C   UNL     1       1.194  -2.230   0.487  0.00  0.00    +0.000 C 
ATOM     31  O   UNL     1       2.547  -1.784   0.615  0.00  0.00    +0.000 OA
ENDBRANCH  28  31
ENDBRANCH  19  28
ENDBRANCH   1  19
TORSDOF 8
