REMARK  Name = 
REMARK  7 active torsions:
REMARK  status: ('A' for Active; 'I' for Inactive)
REMARK    1  A    between atoms: C_2  and  O_3
REMARK    2  A    between atoms: C_2  and  C_4
REMARK    3  A    between atoms: C_8  and  C_9
REMARK    4  A    between atoms: C_13  and  C_14
REMARK    5  A    between atoms: C_14  and  N_15
REMARK    6  A    between atoms: C_16  and  C_18
REMARK    7  A    between atoms: C_19  and  C_20
REMARK                            x       y       z     vdW  Elec       q    Type
REMARK                         _______ _______ _______ _____ _____    ______ ____
ROOT
ATOM      1  C   UNL     1       7.992  -0.373  -5.196  0.00  0.00    +0.000 C 
ENDROOT
BRANCH   1   6
ATOM      2  C   UNL     1       6.201   1.778  -2.539  0.00  0.00    +0.000 A 
ATOM      3  C   UNL     1       7.306   2.446  -1.988  0.00  0.00    +0.000 A 
ATOM      4  C   UNL     1       8.593   2.250  -2.495  0.00  0.00    +0.000 A 
ATOM      5  C   UNL     1       8.809   1.344  -3.534  0.00  0.00    +0.000 A 
ATOM      6  C   UNL     1       7.741   0.623  -4.083  0.00  0.00    +0.000 A 
ATOM      7  C   UNL     1       6.447   0.894  -3.608  0.00  0.00    +0.000 A 
BRANCH   2  12
ATOM      8  C   UNL     1       3.073   3.474  -1.186  0.00  0.00    +0.000 A 
ATOM      9  C   UNL     1       2.143   2.439  -1.248  0.00  0.00    +0.000 A 
ATOM     10  C   UNL     1       2.538   1.183  -1.692  0.00  0.00    +0.000 A 
ATOM     11  C   UNL     1       3.861   0.966  -2.082  0.00  0.00    +0.000 A 
ATOM     12  C   UNL     1       4.822   1.996  -2.046  0.00  0.00    +0.000 A 
ATOM     13  C   UNL     1       4.408   3.246  -1.555  0.00  0.00    +0.000 A 
BRANCH   8  15
ATOM     14  O   UNL     1       1.724   4.938   0.105  0.00  0.00    +0.000 OA
ATOM     15  C   UNL     1       2.627   4.806  -0.700  0.00  0.00    +0.000 C 
BRANCH  15  16
ATOM     16  O   UNL     1       3.276   5.840  -1.261  0.00  0.00    +0.000 OA
ATOM     17  H   UNL     1       3.838   5.616  -2.025  0.00  0.00    +0.000 HD
ENDBRANCH  15  16
ENDBRANCH   8  15
ENDBRANCH   2  12
ENDBRANCH   1   6
BRANCH   1  18
ATOM     18  N   UNL     1       7.032  -1.458  -5.226  0.00  0.00    +0.000 N 
ATOM     19  C   UNL     1       7.363  -2.763  -4.943  0.00  0.00    +0.000 C 
ATOM     20  O   UNL     1       8.506  -3.125  -4.686  0.00  0.00    +0.000 OA
ATOM     21  H   UNL     1       6.066  -1.267  -5.464  0.00  0.00    +0.000 HD
BRANCH  19  22
ATOM     22  C   UNL     1       6.217  -3.671  -4.965  0.00  0.00    +0.000 A 
ATOM     23  C   UNL     1       6.039  -4.867  -4.277  0.00  0.00    +0.000 A 
ATOM     24  N   UNL     1       4.801  -5.279  -4.705  0.00  0.00    +0.000 N 
ATOM     25  N   UNL     1       4.232  -4.401  -5.546  0.00  0.00    +0.000 NA
ATOM     26  N   UNL     1       5.085  -3.402  -5.707  0.00  0.00    +0.000 NA
ATOM     27  H   UNL     1       4.276  -6.102  -4.435  0.00  0.00    +0.000 HD
BRANCH  23  28
ATOM     28  C   UNL     1       6.811  -5.575  -3.259  0.00  0.00    +0.000 A 
ATOM     29  C   UNL     1       7.564  -4.858  -2.319  0.00  0.00    +0.000 A 
ATOM     30  C   UNL     1       8.295  -5.514  -1.328  0.00  0.00    +0.000 A 
ATOM     31  C   UNL     1       8.270  -6.903  -1.251  0.00  0.00    +0.000 A 
ATOM     32  C   UNL     1       7.519  -7.633  -2.168  0.00  0.00    +0.000 A 
ATOM     33  C   UNL     1       6.795  -6.975  -3.168  0.00  0.00    +0.000 A 
ENDBRANCH  23  28
ENDBRANCH  19  22
ENDBRANCH   1  18
TORSDOF 7
