REMARK  Name = 
REMARK  6 active torsions:
REMARK  status: ('A' for Active; 'I' for Inactive)
REMARK    1  A    between atoms: C_1  and  O_2
REMARK    2  A    between atoms: O_2  and  C_3
REMARK    3  A    between atoms: C_8  and  C_9
REMARK    4  A    between atoms: N_11  and  C_12
REMARK    5  A    between atoms: C_14  and  C_15
REMARK    6  A    between atoms: C_15  and  C_16
REMARK                            x       y       z     vdW  Elec       q    Type
REMARK                         _______ _______ _______ _____ _____    ______ ____
ROOT
ATOM      1  C   UNL     1       6.244   5.267  -4.565  0.00  0.00    +0.000 C 
ATOM      2  O   UNL     1       7.032   4.534  -5.170  0.00  0.00    +0.000 OA
ATOM      3  N   UNL     1       6.163   6.638  -4.642  0.00  0.00    +0.000 N 
ATOM      4  H   UNL     1       5.641   7.141  -3.945  0.00  0.00    +0.000 HD
ENDROOT
BRANCH   1  10
ATOM      5  C   UNL     1       3.841   1.044  -0.238  0.00  0.00    +0.000 A 
ATOM      6  C   UNL     1       5.058   0.603  -0.774  0.00  0.00    +0.000 A 
ATOM      7  C   UNL     1       5.735   1.359  -1.734  0.00  0.00    +0.000 A 
ATOM      8  C   UNL     1       5.201   2.567  -2.177  0.00  0.00    +0.000 A 
ATOM      9  N   UNL     1       5.905   3.392  -3.052  0.00  0.00    +0.000 N 
ATOM     10  C   UNL     1       5.394   4.595  -3.510  0.00  0.00    +0.000 A 
ATOM     11  C   UNL     1       4.215   5.085  -3.105  0.00  0.00    +0.000 A 
ATOM     12  C   UNL     1       3.433   4.303  -2.111  0.00  0.00    +0.000 A 
ATOM     13  O   UNL     1       2.362   4.735  -1.700  0.00  0.00    +0.000 OA
ATOM     14  C   UNL     1       3.982   3.002  -1.643  0.00  0.00    +0.000 A 
ATOM     15  C   UNL     1       3.294   2.247  -0.687  0.00  0.00    +0.000 A 
ATOM     16  H   UNL     1       6.689   3.028  -3.593  0.00  0.00    +0.000 HD
BRANCH   5  18
ATOM     17  C   UNL     1       2.063   0.641   1.279  0.00  0.00    +0.000 C 
ATOM     18  O   UNL     1       3.302   0.227   0.715  0.00  0.00    +0.000 OA
ENDBRANCH   5  18
ENDBRANCH   1  10
BRANCH   3  19
ATOM     19  C   UNL     1       6.930   7.400  -5.542  0.00  0.00    +0.000 A 
ATOM     20  C   UNL     1       7.045   8.772  -5.324  0.00  0.00    +0.000 A 
ATOM     21  C   UNL     1       7.839   9.543  -6.189  0.00  0.00    +0.000 A 
ATOM     22  C   UNL     1       8.459   8.904  -7.265  0.00  0.00    +0.000 A 
ATOM     23  C   UNL     1       8.272   7.544  -7.418  0.00  0.00    +0.000 A 
ATOM     24  N   UNL     1       7.525   6.796  -6.584  0.00  0.00    +0.000 NA
BRANCH  21  25
ATOM     25  C   UNL     1       8.066  11.019  -5.944  0.00  0.00    +0.000 C 
BRANCH  25  26
ATOM     26  C   UNL     1       9.266  11.309  -5.068  0.00  0.00    +0.000 A 
ATOM     27  C   UNL     1      10.533  11.515  -5.635  0.00  0.00    +0.000 A 
ATOM     28  C   UNL     1      11.648  11.734  -4.824  0.00  0.00    +0.000 A 
ATOM     29  C   UNL     1      11.511  11.756  -3.437  0.00  0.00    +0.000 A 
ATOM     30  C   UNL     1      10.256  11.570  -2.862  0.00  0.00    +0.000 A 
ATOM     31  C   UNL     1       9.140  11.345  -3.671  0.00  0.00    +0.000 A 
ENDBRANCH  25  26
ENDBRANCH  21  25
ENDBRANCH   3  19
TORSDOF 5
