REMARK  Name = 
REMARK  7 active torsions:
REMARK  status: ('A' for Active; 'I' for Inactive)
REMARK    1  A    between atoms: C_2  and  C_3
REMARK    2  A    between atoms: C_6  and  C_7
REMARK    3  A    between atoms: N_9  and  C_10
REMARK    4  A    between atoms: C_10  and  C_11
REMARK    5  A    between atoms: C_16  and  N_17
REMARK    6  A    between atoms: C_19  and  C_20
REMARK    7  A    between atoms: C_24  and  N_25
REMARK                            x       y       z     vdW  Elec       q    Type
REMARK                         _______ _______ _______ _____ _____    ______ ____
ROOT
ATOM      1  C   UNL     1       5.056   2.654  -8.064  0.00  0.00    +0.000 A 
ATOM      2  C   UNL     1       3.954   2.382  -8.900  0.00  0.00    +0.000 A 
ATOM      3  C   UNL     1       3.319   3.395  -9.617  0.00  0.00    +0.000 A 
ATOM      4  C   UNL     1       3.760   4.707  -9.502  0.00  0.00    +0.000 A 
ATOM      5  C   UNL     1       4.863   5.000  -8.701  0.00  0.00    +0.000 A 
ATOM      6  C   UNL     1       5.541   3.976  -8.010  0.00  0.00    +0.000 A 
ENDROOT
BRANCH   6   7
ATOM      7  N   UNL     1       6.720   4.316  -7.299  0.00  0.00    +0.000 N 
ATOM      8  C   UNL     1       7.065   5.545  -6.791  0.00  0.00    +0.000 A 
ATOM      9  C   UNL     1       8.309   5.360  -6.239  0.00  0.00    +0.000 A 
ATOM     10  N   UNL     1       8.712   4.074  -6.451  0.00  0.00    +0.000 NA
ATOM     11  N   UNL     1       7.731   3.438  -7.077  0.00  0.00    +0.000 NA
BRANCH   9  12
ATOM     12  C   UNL     1       9.078   6.358  -5.534  0.00  0.00    +0.000 A 
ATOM     13  C   UNL     1      10.468   6.331  -5.569  0.00  0.00    +0.000 A 
ATOM     14  C   UNL     1      11.151   7.321  -4.886  0.00  0.00    +0.000 A 
ATOM     15  N   UNL     1      10.549   8.303  -4.176  0.00  0.00    +0.000 NA
ATOM     16  C   UNL     1       9.209   8.300  -4.137  0.00  0.00    +0.000 A 
ATOM     17  C   UNL     1       8.440   7.363  -4.804  0.00  0.00    +0.000 A 
BRANCH  16  18
ATOM     18  N   UNL     1       8.595   9.326  -3.424  0.00  0.00    +0.000 N 
ATOM     19  H   UNL     1       9.336   9.859  -2.974  0.00  0.00    +0.000 HD
ATOM     20  H   UNL     1       7.925   8.971  -2.753  0.00  0.00    +0.000 HD
ENDBRANCH  16  18
ENDBRANCH   9  12
ENDBRANCH   6   7
BRANCH   1  21
ATOM     21  C   UNL     1       5.588   1.513  -7.226  0.00  0.00    +0.000 C 
BRANCH  21  24
ATOM     22  C   UNL     1       6.272  -0.374  -8.630  0.00  0.00    +0.000 C 
ATOM     23  O   UNL     1       5.124  -0.802  -8.726  0.00  0.00    +0.000 OA
ATOM     24  N   UNL     1       6.598   0.757  -7.921  0.00  0.00    +0.000 N 
ATOM     25  H   UNL     1       7.558   1.058  -7.802  0.00  0.00    +0.000 HD
BRANCH  22  29
ATOM     26  C   UNL     1       9.417  -2.678 -10.443  0.00  0.00    +0.000 A 
ATOM     27  C   UNL     1       9.567  -1.290 -10.297  0.00  0.00    +0.000 A 
ATOM     28  C   UNL     1       8.561  -0.515  -9.705  0.00  0.00    +0.000 A 
ATOM     29  C   UNL     1       7.385  -1.126  -9.262  0.00  0.00    +0.000 A 
ATOM     30  C   UNL     1       7.214  -2.504  -9.439  0.00  0.00    +0.000 A 
ATOM     31  C   UNL     1       8.222  -3.272 -10.024  0.00  0.00    +0.000 A 
BRANCH  26  33
ATOM     32  C   UNL     1      11.757  -3.287 -11.036  0.00  0.00    +0.000 C 
ATOM     33  C   UNL     1      10.440  -3.526 -11.070  0.00  0.00    +0.000 C 
ENDBRANCH  26  33
ENDBRANCH  22  29
ENDBRANCH  21  24
ENDBRANCH   1  21
TORSDOF 7
