REMARK  Name = 
REMARK  10 active torsions:
REMARK  status: ('A' for Active; 'I' for Inactive)
REMARK    1  A    between atoms: C_1  and  C_2
REMARK    2  A    between atoms: C_2  and  O_3
REMARK    3  A    between atoms: O_3  and  C_4
REMARK    4  A    between atoms: N_6  and  C_7
REMARK    5  A    between atoms: C_14  and  C_15
REMARK    6  A    between atoms: N_17  and  C_18
REMARK    7  A    between atoms: N_17  and  C_22
REMARK    8  A    between atoms: C_18  and  C_19
REMARK    9  A    between atoms: C_22  and  C_23
REMARK   10  A    between atoms: C_26  and  C_27
REMARK                            x       y       z     vdW  Elec       q    Type
REMARK                         _______ _______ _______ _____ _____    ______ ____
ROOT
ATOM      1  C   UNL     1       4.436   2.804   2.082  0.00  0.00    +0.000 C 
ATOM      2  O   UNL     1       5.071   3.267   3.031  0.00  0.00    +0.000 OA
ATOM      3  N   UNL     1       3.132   3.268   1.837  0.00  0.00    +0.000 N 
ENDROOT
BRANCH   1   8
ATOM      4  C   UNL     1       6.453   1.548   1.026  0.00  0.00    +0.000 A 
ATOM      5  C   UNL     1       6.558   0.375   0.333  0.00  0.00    +0.000 A 
ATOM      6  N   UNL     1       5.285  -0.100   0.152  0.00  0.00    +0.000 N 
ATOM      7  N   UNL     1       4.353   0.771   0.643  0.00  0.00    +0.000 NA
ATOM      8  C   UNL     1       5.059   1.763   1.232  0.00  0.00    +0.000 A 
BRANCH   6   9
ATOM      9  C   UNL     1       4.920  -1.351  -0.431  0.00  0.00    +0.000 A 
ATOM     10  C   UNL     1       5.901  -2.278  -0.825  0.00  0.00    +0.000 A 
ATOM     11  C   UNL     1       5.535  -3.508  -1.381  0.00  0.00    +0.000 A 
ATOM     12  C   UNL     1       4.189  -3.821  -1.551  0.00  0.00    +0.000 A 
ATOM     13  C   UNL     1       3.208  -2.909  -1.159  0.00  0.00    +0.000 A 
ATOM     14  C   UNL     1       3.568  -1.677  -0.599  0.00  0.00    +0.000 A 
ENDBRANCH   6   9
BRANCH   4  15
ATOM     15  O   UNL     1       7.575   2.164   1.456  0.00  0.00    +0.000 OA
BRANCH  15  17
ATOM     16  C   UNL     1       9.060   3.990   1.177  0.00  0.00    +0.000 C 
ATOM     17  C   UNL     1       7.599   3.577   1.276  0.00  0.00    +0.000 C 
ENDBRANCH  15  17
ENDBRANCH   4  15
ENDBRANCH   1   8
BRANCH   3  18
ATOM     18  C   UNL     1       2.566   4.250   2.772  0.00  0.00    +0.000 C 
BRANCH  18  19
ATOM     19  C   UNL     1       2.718   5.704   2.367  0.00  0.00    +0.000 A 
ATOM     20  C   UNL     1       1.741   6.632   2.754  0.00  0.00    +0.000 A 
ATOM     21  C   UNL     1       1.857   7.992   2.424  0.00  0.00    +0.000 A 
ATOM     22  C   UNL     1       2.964   8.487   1.714  0.00  0.00    +0.000 A 
ATOM     23  C   UNL     1       3.960   7.552   1.379  0.00  0.00    +0.000 A 
ATOM     24  C   UNL     1       3.843   6.191   1.698  0.00  0.00    +0.000 A 
BRANCH  22  25
ATOM     25  C   UNL     1       3.079   9.920   1.331  0.00  0.00    +0.000 A 
ATOM     26  C   UNL     1       2.545  10.951   2.129  0.00  0.00    +0.000 A 
ATOM     27  C   UNL     1       2.647  12.299   1.757  0.00  0.00    +0.000 A 
ATOM     28  C   UNL     1       3.299  12.649   0.580  0.00  0.00    +0.000 A 
ATOM     29  C   UNL     1       3.840  11.655  -0.229  0.00  0.00    +0.000 A 
ATOM     30  C   UNL     1       3.724  10.309   0.141  0.00  0.00    +0.000 A 
ENDBRANCH  22  25
ENDBRANCH  18  19
ENDBRANCH   3  18
BRANCH   3  31
ATOM     31  C   UNL     1       2.284   2.882   0.696  0.00  0.00    +0.000 C 
BRANCH  31  32
ATOM     32  C   UNL     1       1.242   1.793   1.003  0.00  0.00    +0.000 C 
ATOM     33  N   UNL     1       1.155   1.363   2.297  0.00  0.00    +0.000 N 
ATOM     34  O   UNL     1       0.463   1.359   0.157  0.00  0.00    +0.000 OA
ATOM     35  H   UNL     1       1.944   1.481   2.917  0.00  0.00    +0.000 HD
ATOM     36  H   UNL     1       0.520   0.594   2.478  0.00  0.00    +0.000 HD
ENDBRANCH  31  32
ENDBRANCH   3  31
TORSDOF 9
