REMARK  Name = 
REMARK  8 active torsions:
REMARK  status: ('A' for Active; 'I' for Inactive)
REMARK    1  A    between atoms: C_1  and  O_2
REMARK    2  A    between atoms: O_2  and  C_3
REMARK    3  A    between atoms: C_7  and  C_8
REMARK    4  A    between atoms: C_8  and  C_9
REMARK    5  A    between atoms: C_9  and  N_10
REMARK    6  A    between atoms: C_9  and  C_24
REMARK    7  A    between atoms: C_11  and  C_13
REMARK    8  A    between atoms: C_16  and  N_17
REMARK                            x       y       z     vdW  Elec       q    Type
REMARK                         _______ _______ _______ _____ _____    ______ ____
ROOT
ATOM      1  C   UNL     1       7.149   0.010   3.773  0.00  0.00    +0.000 C 
ENDROOT
BRANCH   1   2
ATOM      2  C   UNL     1       8.537   0.597   3.981  0.00  0.00    +0.000 A 
ATOM      3  C   UNL     1       8.892   1.123   5.235  0.00  0.00    +0.000 A 
ATOM      4  C   UNL     1      10.171   1.634   5.461  0.00  0.00    +0.000 A 
ATOM      5  C   UNL     1      11.117   1.618   4.439  0.00  0.00    +0.000 A 
ATOM      6  C   UNL     1      10.783   1.091   3.194  0.00  0.00    +0.000 A 
ATOM      7  C   UNL     1       9.502   0.582   2.965  0.00  0.00    +0.000 A 
ENDBRANCH   1   2
BRANCH   1   8
ATOM      8  N   UNL     1       7.245  -1.419   3.505  0.00  0.00    +0.000 N 
ATOM      9  C   UNL     1       7.367  -2.331   4.528  0.00  0.00    +0.000 C 
ATOM     10  O   UNL     1       7.369  -2.018   5.715  0.00  0.00    +0.000 OA
ATOM     11  H   UNL     1       7.253  -1.776   2.553  0.00  0.00    +0.000 HD
BRANCH   9  12
ATOM     12  C   UNL     1       7.474  -3.770   4.128  0.00  0.00    +0.000 A 
ATOM     13  C   UNL     1       7.602  -4.719   5.136  0.00  0.00    +0.000 A 
ATOM     14  C   UNL     1       7.656  -6.064   4.787  0.00  0.00    +0.000 A 
ATOM     15  C   UNL     1       7.588  -6.434   3.441  0.00  0.00    +0.000 A 
ATOM     16  C   UNL     1       7.479  -5.411   2.496  0.00  0.00    +0.000 A 
ATOM     17  N   UNL     1       7.418  -4.085   2.805  0.00  0.00    +0.000 NA
BRANCH  15  18
ATOM     18  N   UNL     1       7.628  -7.805   3.068  0.00  0.00    +0.000 N 
ATOM     19  C   UNL     1       7.669  -8.892   3.918  0.00  0.00    +0.000 A 
ATOM     20  C   UNL     1       7.718 -10.008   3.118  0.00  0.00    +0.000 A 
ATOM     21  N   UNL     1       7.694  -9.654   1.801  0.00  0.00    +0.000 NA
ATOM     22  C   UNL     1       7.638  -8.340   1.798  0.00  0.00    +0.000 A 
ENDBRANCH  15  18
ENDBRANCH   9  12
ENDBRANCH   1   8
BRANCH   1  23
ATOM     23  C   UNL     1       6.338   0.768   2.690  0.00  0.00    +0.000 C 
BRANCH  23  28
ATOM     24  C   UNL     1       3.225  -0.980   1.326  0.00  0.00    +0.000 A 
ATOM     25  C   UNL     1       2.437  -1.049   2.475  0.00  0.00    +0.000 A 
ATOM     26  C   UNL     1       2.841  -0.399   3.640  0.00  0.00    +0.000 A 
ATOM     27  C   UNL     1       4.061   0.270   3.679  0.00  0.00    +0.000 A 
ATOM     28  C   UNL     1       4.920   0.244   2.572  0.00  0.00    +0.000 A 
ATOM     29  C   UNL     1       4.471  -0.350   1.383  0.00  0.00    +0.000 A 
BRANCH  24  31
ATOM     30  C   UNL     1       1.494  -1.698  -0.105  0.00  0.00    +0.000 C 
ATOM     31  O   UNL     1       2.893  -1.536   0.119  0.00  0.00    +0.000 OA
ENDBRANCH  24  31
ENDBRANCH  23  28
ENDBRANCH   1  23
TORSDOF 7
