REMARK  Name = 
REMARK  6 active torsions:
REMARK  status: ('A' for Active; 'I' for Inactive)
REMARK    1  A    between atoms: C_2  and  C_3
REMARK    2  A    between atoms: C_8  and  C_9
REMARK    3  A    between atoms: C_9  and  N_10
REMARK    4  A    between atoms: N_13  and  C_14
REMARK    5  A    between atoms: C_17  and  C_18
REMARK    6  A    between atoms: C_18  and  O_20
REMARK                            x       y       z     vdW  Elec       q    Type
REMARK                         _______ _______ _______ _____ _____    ______ ____
ROOT
ATOM      1  N   UNL     1      -0.217   4.126   0.499  0.00  0.00    +0.000 N 
ATOM      2  C   UNL     1      -0.454   5.202  -0.385  0.00  0.00    +0.000 A 
ATOM      3  O   UNL     1       0.291   5.572  -1.281  0.00  0.00    +0.000 OA
ATOM      4  N   UNL     1      -1.745   5.703  -0.062  0.00  0.00    +0.000 N 
ATOM      5  C   UNL     1      -2.299   4.919   0.963  0.00  0.00    +0.000 A 
ATOM      6  C   UNL     1      -3.519   4.987   1.608  0.00  0.00    +0.000 A 
ATOM      7  C   UNL     1      -3.770   4.053   2.621  0.00  0.00    +0.000 A 
ATOM      8  C   UNL     1      -2.797   3.105   2.991  0.00  0.00    +0.000 A 
ATOM      9  C   UNL     1      -1.557   3.059   2.348  0.00  0.00    +0.000 A 
ATOM     10  C   UNL     1      -1.336   3.966   1.331  0.00  0.00    +0.000 A 
ENDROOT
BRANCH   4  11
ATOM     11  C   UNL     1      -2.360   6.783  -0.709  0.00  0.00    +0.000 A 
ATOM     12  C   UNL     1      -3.625   6.668  -1.291  0.00  0.00    +0.000 A 
ATOM     13  C   UNL     1      -4.125   7.707  -2.085  0.00  0.00    +0.000 A 
ATOM     14  C   UNL     1      -3.380   8.878  -2.284  0.00  0.00    +0.000 A 
ATOM     15  C   UNL     1      -2.152   9.030  -1.633  0.00  0.00    +0.000 A 
ATOM     16  C   UNL     1      -1.639   7.974  -0.873  0.00  0.00    +0.000 A 
BRANCH  14  17
ATOM     17  C   UNL     1      -3.943   9.916  -3.187  0.00  0.00    +0.000 C 
ATOM     18  O   UNL     1      -5.142  10.039  -3.377  0.00  0.00    +0.000 OA
BRANCH  17  19
ATOM     19  O   UNL     1      -3.020  10.669  -3.822  0.00  0.00    +0.000 OA
ATOM     20  H   UNL     1      -2.097  10.373  -3.732  0.00  0.00    +0.000 HD
ENDBRANCH  17  19
ENDBRANCH  14  17
ENDBRANCH   4  11
BRANCH   1  21
ATOM     21  C   UNL     1       0.934   3.260   0.422  0.00  0.00    +0.000 C 
BRANCH  21  27
ATOM     22  C   UNL     1       3.316   4.307   3.220  0.00  0.00    +0.000 A 
ATOM     23  C   UNL     1       4.206   5.130   2.537  0.00  0.00    +0.000 A 
ATOM     24  C   UNL     1       4.070   5.284   1.162  0.00  0.00    +0.000 A 
ATOM     25  F   UNL     1       4.925   6.073   0.498  0.00  0.00    +0.000 F 
ATOM     26  C   UNL     1       3.039   4.656   0.465  0.00  0.00    +0.000 A 
ATOM     27  C   UNL     1       2.127   3.837   1.145  0.00  0.00    +0.000 A 
ATOM     28  C   UNL     1       2.296   3.640   2.524  0.00  0.00    +0.000 A 
BRANCH  22  30
ATOM     29  N   UNL     1       3.447   4.090   5.800  0.00  0.00    +0.000 NA
ATOM     30  C   UNL     1       3.402   4.181   4.641  0.00  0.00    +0.000 C 
ENDBRANCH  22  30
ENDBRANCH  21  27
ENDBRANCH   1  21
TORSDOF 6
