REMARK  Name = 
REMARK  6 active torsions:
REMARK  status: ('A' for Active; 'I' for Inactive)
REMARK    1  A    between atoms: C_1  and  O_2
REMARK    2  A    between atoms: O_2  and  C_3
REMARK    3  A    between atoms: C_10  and  C_11
REMARK    4  A    between atoms: C_11  and  N_12
REMARK    5  A    between atoms: C_13  and  C_15
REMARK    6  A    between atoms: C_18  and  C_19
REMARK                            x       y       z     vdW  Elec       q    Type
REMARK                         _______ _______ _______ _____ _____    ______ ____
ROOT
ATOM      1  N   UNL     1       5.968   0.444   2.467  0.00  0.00    +0.000 N 
ATOM      2  C   UNL     1       5.302   1.495   3.061  0.00  0.00    +0.000 C 
ATOM      3  O   UNL     1       4.947   1.504   4.233  0.00  0.00    +0.000 OA
ATOM      4  H   UNL     1       6.240   0.516   1.493  0.00  0.00    +0.000 HD
ENDROOT
BRANCH   2   5
ATOM      5  C   UNL     1       4.987   2.651   2.175  0.00  0.00    +0.000 A 
ATOM      6  C   UNL     1       3.928   3.510   2.490  0.00  0.00    +0.000 A 
ATOM      7  C   UNL     1       3.572   4.550   1.613  0.00  0.00    +0.000 A 
ATOM      8  C   UNL     1       4.266   4.768   0.405  0.00  0.00    +0.000 A 
ATOM      9  C   UNL     1       5.356   3.923   0.139  0.00  0.00    +0.000 A 
ATOM     10  C   UNL     1       5.707   2.893   1.010  0.00  0.00    +0.000 A 
ATOM     11  F   UNL     1       6.756   2.126   0.673  0.00  0.00    +0.000 F 
BRANCH   8  12
ATOM     12  C   UNL     1       3.866   5.806  -0.563  0.00  0.00    +0.000 A 
ATOM     13  C   UNL     1       4.765   6.482  -1.378  0.00  0.00    +0.000 A 
ATOM     14  N   UNL     1       4.432   7.397  -2.315  0.00  0.00    +0.000 NA
ATOM     15  C   UNL     1       3.123   7.654  -2.432  0.00  0.00    +0.000 A 
ATOM     16  N   UNL     1       2.149   7.090  -1.708  0.00  0.00    +0.000 NA
ATOM     17  C   UNL     1       2.549   6.178  -0.792  0.00  0.00    +0.000 A 
ENDBRANCH   8  12
ENDBRANCH   2   5
BRANCH   1  18
ATOM     18  C   UNL     1       6.429  -0.722   3.182  0.00  0.00    +0.000 C 
BRANCH  18  26
ATOM     19  C   UNL     1       7.711  -3.579  -0.049  0.00  0.00    +0.000 A 
ATOM     20  C   UNL     1       7.000  -4.763  -0.181  0.00  0.00    +0.000 A 
ATOM     21  C   UNL     1       5.869  -4.979   0.607  0.00  0.00    +0.000 A 
ATOM     22  C   UNL     1       5.433  -4.056   1.543  0.00  0.00    +0.000 A 
ATOM     23  N   UNL     1       4.329  -4.366   2.236  0.00  0.00    +0.000 NA
ATOM     24  C   UNL     1       3.893  -3.491   3.160  0.00  0.00    +0.000 A 
ATOM     25  C   UNL     1       4.533  -2.304   3.451  0.00  0.00    +0.000 A 
ATOM     26  C   UNL     1       5.707  -1.979   2.758  0.00  0.00    +0.000 A 
ATOM     27  C   UNL     1       6.167  -2.859   1.735  0.00  0.00    +0.000 A 
ATOM     28  C   UNL     1       7.301  -2.641   0.909  0.00  0.00    +0.000 A 
BRANCH  19  30
ATOM     29  C   UNL     1       9.045  -3.978  -1.969  0.00  0.00    +0.000 C 
ATOM     30  O   UNL     1       8.825  -3.242  -0.768  0.00  0.00    +0.000 OA
ENDBRANCH  19  30
ENDBRANCH  18  26
ENDBRANCH   1  18
TORSDOF 5
