REMARK  Name = 
REMARK  8 active torsions:
REMARK  status: ('A' for Active; 'I' for Inactive)
REMARK    1  A    between atoms: C_1  and  O_2
REMARK    2  A    between atoms: O_2  and  C_3
REMARK    3  A    between atoms: C_3  and  C_5
REMARK    4  A    between atoms: C_5  and  N_6
REMARK    5  A    between atoms: C_5  and  C_24
REMARK    6  A    between atoms: C_7  and  C_9
REMARK    7  A    between atoms: N_11  and  C_12
REMARK    8  A    between atoms: C_16  and  C_17
REMARK                            x       y       z     vdW  Elec       q    Type
REMARK                         _______ _______ _______ _____ _____    ______ ____
ROOT
ATOM      1  N   UNL     1       5.172  -0.110   1.250  0.00  0.00    +0.000 N 
ATOM      2  C   UNL     1       5.054   1.197   0.845  0.00  0.00    +0.000 C 
ATOM      3  O   UNL     1       4.615   1.528  -0.250  0.00  0.00    +0.000 OA
ATOM      4  H   UNL     1       5.266  -0.251   2.249  0.00  0.00    +0.000 HD
ENDROOT
BRANCH   2   5
ATOM      5  C   UNL     1       5.490   2.162   1.844  0.00  0.00    +0.000 A 
ATOM      6  C   UNL     1       5.437   3.534   1.751  0.00  0.00    +0.000 A 
ATOM      7  N   UNL     1       5.916   3.995   2.952  0.00  0.00    +0.000 N 
ATOM      8  N   UNL     1       6.320   2.942   3.708  0.00  0.00    +0.000 NA
ATOM      9  N   UNL     1       6.040   1.822   3.053  0.00  0.00    +0.000 NA
BRANCH   7  10
ATOM     10  C   UNL     1       5.972   5.332   3.426  0.00  0.00    +0.000 A 
ATOM     11  C   UNL     1       5.441   6.379   2.661  0.00  0.00    +0.000 A 
ATOM     12  C   UNL     1       5.448   7.683   3.156  0.00  0.00    +0.000 A 
ATOM     13  C   UNL     1       5.988   7.955   4.412  0.00  0.00    +0.000 A 
ATOM     14  C   UNL     1       6.537   6.925   5.191  0.00  0.00    +0.000 A 
ATOM     15  C   UNL     1       6.526   5.610   4.688  0.00  0.00    +0.000 A 
BRANCH  14  16
ATOM     16  C   UNL     1       7.122   7.215   6.553  0.00  0.00    +0.000 C 
ATOM     17  F   UNL     1       7.050   8.530   6.906  0.00  0.00    +0.000 F 
ATOM     18  F   UNL     1       6.494   6.529   7.547  0.00  0.00    +0.000 F 
ATOM     19  F   UNL     1       8.439   6.880   6.638  0.00  0.00    +0.000 F 
ENDBRANCH  14  16
ENDBRANCH   7  10
ENDBRANCH   2   5
BRANCH   1  20
ATOM     20  C   UNL     1       4.705  -1.211   0.414  0.00  0.00    +0.000 C 
BRANCH  20  21
ATOM     21  C   UNL     1       5.510  -2.480   0.635  0.00  0.00    +0.000 A 
ATOM     22  C   UNL     1       6.049  -2.845   1.881  0.00  0.00    +0.000 A 
ATOM     23  C   UNL     1       6.696  -4.073   2.039  0.00  0.00    +0.000 A 
ATOM     24  C   UNL     1       6.797  -4.944   0.961  0.00  0.00    +0.000 A 
ATOM     25  F   UNL     1       7.391  -6.132   1.128  0.00  0.00    +0.000 F 
ATOM     26  C   UNL     1       6.281  -4.610  -0.279  0.00  0.00    +0.000 A 
ATOM     27  C   UNL     1       5.646  -3.382  -0.431  0.00  0.00    +0.000 A 
ATOM     28  F   UNL     1       5.134  -3.072  -1.632  0.00  0.00    +0.000 F 
ENDBRANCH  20  21
BRANCH  20  29
ATOM     29  C   UNL     1       3.210  -1.490   0.673  0.00  0.00    +0.000 C 
ATOM     30  O   UNL     1       2.649  -1.327   1.752  0.00  0.00    +0.000 OA
BRANCH  29  32
ATOM     31  C   UNL     1       1.262  -2.411  -0.281  0.00  0.00    +0.000 C 
ATOM     32  O   UNL     1       2.624  -2.017  -0.441  0.00  0.00    +0.000 OA
ENDBRANCH  29  32
ENDBRANCH  20  29
ENDBRANCH   1  20
TORSDOF 7
