REMARK  Name = 
REMARK  6 active torsions:
REMARK  status: ('A' for Active; 'I' for Inactive)
REMARK    1  A    between atoms: C_1  and  O_2
REMARK    2  A    between atoms: O_2  and  C_3
REMARK    3  A    between atoms: C_8  and  N_9
REMARK    4  A    between atoms: C_11  and  C_12
REMARK    5  A    between atoms: C_14  and  N_15
REMARK    6  A    between atoms: C_16  and  C_18
REMARK                            x       y       z     vdW  Elec       q    Type
REMARK                         _______ _______ _______ _____ _____    ______ ____
ROOT
ATOM      1  C   UNL     1       4.018   1.739   5.028  0.00  0.00    +0.000 A 
ATOM      2  C   UNL     1       3.562   0.869   6.024  0.00  0.00    +0.000 A 
ATOM      3  C   UNL     1       3.291   1.328   7.321  0.00  0.00    +0.000 A 
ATOM      4  C   UNL     1       3.421   2.696   7.602  0.00  0.00    +0.000 A 
ATOM      5  C   UNL     1       3.866   3.575   6.610  0.00  0.00    +0.000 A 
ATOM      6  C   UNL     1       4.168   3.094   5.340  0.00  0.00    +0.000 A 
ATOM      7  F   UNL     1       4.592   3.973   4.419  0.00  0.00    +0.000 F 
ENDROOT
BRANCH   1  10
ATOM      8  N   UNL     1       5.184   0.970   1.722  0.00  0.00    +0.000 N 
ATOM      9  C   UNL     1       5.336   1.666   2.897  0.00  0.00    +0.000 A 
ATOM     10  C   UNL     1       4.324   1.226   3.712  0.00  0.00    +0.000 A 
ATOM     11  N   UNL     1       3.635   0.235   3.073  0.00  0.00    +0.000 NA
ATOM     12  N   UNL     1       4.136   0.110   1.849  0.00  0.00    +0.000 NA
BRANCH   8  18
ATOM     13  C   UNL     1       7.120   1.789   0.420  0.00  0.00    +0.000 A 
ATOM     14  C   UNL     1       7.632   2.142  -0.834  0.00  0.00    +0.000 A 
ATOM     15  C   UNL     1       6.919   1.857  -2.002  0.00  0.00    +0.000 A 
ATOM     16  C   UNL     1       5.704   1.183  -1.935  0.00  0.00    +0.000 A 
ATOM     17  C   UNL     1       5.174   0.829  -0.695  0.00  0.00    +0.000 A 
ATOM     18  C   UNL     1       5.852   1.176   0.487  0.00  0.00    +0.000 A 
BRANCH  13  20
ATOM     19  C   UNL     1       9.149   2.426   1.530  0.00  0.00    +0.000 C 
ATOM     20  O   UNL     1       7.808   1.961   1.590  0.00  0.00    +0.000 OA
ENDBRANCH  13  20
ENDBRANCH   8  18
ENDBRANCH   1  10
BRANCH   3  21
ATOM     21  N   UNL     1       2.895   0.470   8.374  0.00  0.00    +0.000 N 
ATOM     22  C   UNL     1       3.049  -0.908   8.373  0.00  0.00    +0.000 C 
ATOM     23  O   UNL     1       3.626  -1.561   7.510  0.00  0.00    +0.000 OA
ATOM     24  H   UNL     1       2.623   0.914   9.240  0.00  0.00    +0.000 HD
BRANCH  22  25
ATOM     25  C   UNL     1       2.529  -1.649   9.544  0.00  0.00    +0.000 A 
ATOM     26  C   UNL     1       1.457  -1.230  10.333  0.00  0.00    +0.000 A 
ATOM     27  C   UNL     1       1.006  -2.063  11.360  0.00  0.00    +0.000 A 
ATOM     28  C   UNL     1       1.646  -3.277  11.564  0.00  0.00    +0.000 A 
ATOM     29  N   UNL     1       2.692  -3.704  10.828  0.00  0.00    +0.000 NA
ATOM     30  C   UNL     1       3.102  -2.886   9.828  0.00  0.00    +0.000 A 
ENDBRANCH  22  25
ENDBRANCH   3  21
TORSDOF 5
