REMARK  Name = 
REMARK  3 active torsions:
REMARK  status: ('A' for Active; 'I' for Inactive)
REMARK    1  A    between atoms: C_2  and  C_18
REMARK    2  A    between atoms: N_3  and  C_4
REMARK    3  A    between atoms: C_7  and  N_8
REMARK                            x       y       z     vdW  Elec       q    Type
REMARK                         _______ _______ _______ _____ _____    ______ ____
ROOT
ATOM      1  O   UNL     1       5.459  -1.513   2.104  0.00  0.00    +0.000 OA
ATOM      2  C   UNL     1       5.027  -1.325   0.970  0.00  0.00    +0.000 C 
ATOM      3  N   UNL     1       3.699  -1.564   0.639  0.00  0.00    +0.000 N 
ATOM      4  H   UNL     1       3.432  -1.588  -0.343  0.00  0.00    +0.000 HD
ENDROOT
BRANCH   2   5
ATOM      5  C   UNL     1       5.983  -0.804  -0.007  0.00  0.00    +0.000 A 
ATOM      6  C   UNL     1       6.179  -0.864  -1.386  0.00  0.00    +0.000 A 
ATOM      7  C   UNL     1       5.588  -1.513  -2.512  0.00  0.00    +0.000 A 
ATOM      8  F   UNL     1       4.423  -2.163  -2.322  0.00  0.00    +0.000 F 
ATOM      9  C   UNL     1       6.217  -1.537  -3.711  0.00  0.00    +0.000 A 
ATOM     10 CL   UNL     1       5.608  -2.452  -5.040  0.00  0.00    +0.000 Cl
ATOM     11  C   UNL     1       7.464  -0.821  -3.930  0.00  0.00    +0.000 A 
ATOM     12  C   UNL     1       7.996  -0.149  -2.902  0.00  0.00    +0.000 A 
ATOM     13  N   UNL     1       7.394  -0.193  -1.646  0.00  0.00    +0.000 N 
ATOM     14  N   UNL     1       7.946   0.293  -0.521  0.00  0.00    +0.000 NA
ATOM     15  C   UNL     1       7.173  -0.176   0.446  0.00  0.00    +0.000 A 
ENDBRANCH   2   5
BRANCH   3  16
ATOM     16  C   UNL     1       2.720  -2.012   1.601  0.00  0.00    +0.000 A 
ATOM     17  C   UNL     1       2.875  -1.883   2.983  0.00  0.00    +0.000 A 
ATOM     18  C   UNL     1       1.978  -2.478   3.892  0.00  0.00    +0.000 A 
ATOM     19  C   UNL     1       0.865  -3.212   3.458  0.00  0.00    +0.000 A 
ATOM     20  C   UNL     1       0.655  -3.246   2.068  0.00  0.00    +0.000 A 
ATOM     21  C   UNL     1       1.556  -2.641   1.167  0.00  0.00    +0.000 A 
ATOM     22  F   UNL     1       1.300  -2.726  -0.148  0.00  0.00    +0.000 F 
BRANCH  19  23
ATOM     23  N   UNL     1       0.018  -3.951   4.388  0.00  0.00    +0.000 N 
ATOM     24  C   UNL     1      -0.674  -5.090   3.969  0.00  0.00    +0.000 A 
ATOM     25  C   UNL     1      -1.416  -5.843   4.797  0.00  0.00    +0.000 A 
ATOM     26  C   UNL     1      -1.530  -5.496   6.184  0.00  0.00    +0.000 A 
ATOM     27  C   UNL     1      -0.896  -4.419   6.652  0.00  0.00    +0.000 A 
ATOM     28  C   UNL     1      -0.072  -3.551   5.745  0.00  0.00    +0.000 A 
ATOM     29  O   UNL     1       0.422  -2.547   6.261  0.00  0.00    +0.000 OA
ENDBRANCH  19  23
ENDBRANCH   3  16
TORSDOF 3
