REMARK  Name = 
REMARK  7 active torsions:
REMARK  status: ('A' for Active; 'I' for Inactive)
REMARK    1  A    between atoms: C_2  and  C_21
REMARK    2  A    between atoms: N_3  and  C_4
REMARK    3  A    between atoms: C_4  and  C_5
REMARK    4  A    between atoms: C_8  and  N_9
REMARK    5  A    between atoms: C_10  and  C_12
REMARK    6  A    between atoms: C_17  and  O_18
REMARK    7  A    between atoms: N_23  and  C_24
REMARK                            x       y       z     vdW  Elec       q    Type
REMARK                         _______ _______ _______ _____ _____    ______ ____
ROOT
ATOM      1  C   UNL     1       3.229   2.914  -2.254  0.00  0.00    +0.000 A 
ATOM      2  C   UNL     1       2.863   4.263  -2.240  0.00  0.00    +0.000 A 
ATOM      3  C   UNL     1       3.666   5.224  -2.857  0.00  0.00    +0.000 A 
ATOM      4  C   UNL     1       4.845   4.864  -3.508  0.00  0.00    +0.000 A 
ATOM      5  C   UNL     1       5.212   3.514  -3.529  0.00  0.00    +0.000 A 
ATOM      6  C   UNL     1       4.406   2.544  -2.915  0.00  0.00    +0.000 A 
ENDROOT
BRANCH   4   7
ATOM      7  N   UNL     1       5.691   5.800  -4.145  0.00  0.00    +0.000 N 
ATOM      8  C   UNL     1       5.468   7.157  -4.282  0.00  0.00    +0.000 C 
ATOM      9  O   UNL     1       4.481   7.774  -3.882  0.00  0.00    +0.000 OA
ATOM     10  H   UNL     1       6.570   5.456  -4.520  0.00  0.00    +0.000 HD
BRANCH   8  11
ATOM     11  C   UNL     1       6.510   7.946  -4.995  0.00  0.00    +0.000 A 
ATOM     12  C   UNL     1       6.087   9.126  -5.631  0.00  0.00    +0.000 A 
ATOM     13  C   UNL     1       7.008   9.982  -6.234  0.00  0.00    +0.000 A 
ATOM     14  C   UNL     1       8.365   9.675  -6.191  0.00  0.00    +0.000 A 
ATOM     15  C   UNL     1       8.799   8.496  -5.580  0.00  0.00    +0.000 A 
ATOM     16  C   UNL     1       7.872   7.625  -4.999  0.00  0.00    +0.000 A 
BRANCH  16  17
ATOM     17  O   UNL     1       8.316   6.461  -4.431  0.00  0.00    +0.000 OA
ATOM     18  H   UNL     1       9.289   6.471  -4.415  0.00  0.00    +0.000 HD
ENDBRANCH  16  17
ENDBRANCH   8  11
ENDBRANCH   4   7
BRANCH   1  19
ATOM     19  C   UNL     1       2.349   1.901  -1.581  0.00  0.00    +0.000 C 
BRANCH  19  22
ATOM     20  O   UNL     1       0.354   0.111  -0.850  0.00  0.00    +0.000 OA
ATOM     21  C   UNL     1       0.406   0.493  -2.015  0.00  0.00    +0.000 C 
ATOM     22  N   UNL     1       1.355   1.374  -2.475  0.00  0.00    +0.000 N 
ATOM     23  H   UNL     1       1.333   1.661  -3.449  0.00  0.00    +0.000 HD
BRANCH  21  24
ATOM     24  C   UNL     1      -0.548   0.053  -3.018  0.00  0.00    +0.000 A 
ATOM     25  C   UNL     1      -1.616  -0.795  -2.814  0.00  0.00    +0.000 A 
ATOM     26  N   UNL     1      -2.236  -0.888  -4.033  0.00  0.00    +0.000 N 
ATOM     27  N   UNL     1      -1.541  -0.168  -4.949  0.00  0.00    +0.000 NA
ATOM     28  N   UNL     1      -0.523   0.423  -4.336  0.00  0.00    +0.000 NA
BRANCH  26  29
ATOM     29  C   UNL     1      -3.421  -1.580  -4.359  0.00  0.00    +0.000 A 
ATOM     30  C   UNL     1      -4.177  -2.244  -3.388  0.00  0.00    +0.000 A 
ATOM     31  C   UNL     1      -5.356  -2.885  -3.764  0.00  0.00    +0.000 A 
ATOM     32  C   UNL     1      -5.731  -2.847  -5.096  0.00  0.00    +0.000 A 
ATOM     33  N   UNL     1      -5.018  -2.223  -6.058  0.00  0.00    +0.000 NA
ATOM     34  C   UNL     1      -3.879  -1.599  -5.672  0.00  0.00    +0.000 A 
ENDBRANCH  26  29
ENDBRANCH  21  24
ENDBRANCH  19  22
ENDBRANCH   1  19
TORSDOF 7
