REMARK  Name = 
REMARK  6 active torsions:
REMARK  status: ('A' for Active; 'I' for Inactive)
REMARK    1  A    between atoms: C_2  and  C_19
REMARK    2  A    between atoms: N_3  and  C_4
REMARK    3  A    between atoms: C_7  and  O_8
REMARK    4  A    between atoms: O_8  and  C_9
REMARK    5  A    between atoms: C_9  and  C_10
REMARK    6  A    between atoms: C_22  and  C_23
REMARK                            x       y       z     vdW  Elec       q    Type
REMARK                         _______ _______ _______ _____ _____    ______ ____
ROOT
ATOM      1  O   UNL     1       1.251  -0.013   0.746  0.00  0.00    +0.000 OA
ATOM      2  C   UNL     1       2.374   0.034   0.259  0.00  0.00    +0.000 C 
ATOM      3  N   UNL     1       2.947   1.104  -0.399  0.00  0.00    +0.000 N 
ATOM      4  H   UNL     1       3.791   0.934  -0.932  0.00  0.00    +0.000 HD
ENDROOT
BRANCH   3   5
ATOM      5  C   UNL     1       2.345   2.365  -0.587  0.00  0.00    +0.000 A 
ATOM      6  C   UNL     1       1.234   2.805   0.134  0.00  0.00    +0.000 A 
ATOM      7  C   UNL     1       0.667   4.052  -0.130  0.00  0.00    +0.000 A 
ATOM      8  C   UNL     1       1.219   4.881  -1.105  0.00  0.00    +0.000 A 
ATOM      9  C   UNL     1       2.325   4.445  -1.833  0.00  0.00    +0.000 A 
ATOM     10  C   UNL     1       2.901   3.203  -1.558  0.00  0.00    +0.000 A 
BRANCH   8  11
ATOM     11  O   UNL     1       0.599   6.089  -1.270  0.00  0.00    +0.000 OA
BRANCH  11  12
ATOM     12  C   UNL     1       1.413   7.106  -1.855  0.00  0.00    +0.000 C 
BRANCH  12  13
ATOM     13  C   UNL     1       0.885   8.472  -1.518  0.00  0.00    +0.000 A 
ATOM     14  C   UNL     1       0.140   8.723  -0.357  0.00  0.00    +0.000 A 
ATOM     15  C   UNL     1      -0.256  10.022  -0.040  0.00  0.00    +0.000 A 
ATOM     16  C   UNL     1       0.098  11.086  -0.872  0.00  0.00    +0.000 A 
ATOM     17  C   UNL     1       0.846  10.849  -2.022  0.00  0.00    +0.000 A 
ATOM     18  C   UNL     1       1.236   9.552  -2.333  0.00  0.00    +0.000 A 
ATOM     19  F   UNL     1       1.981   9.345  -3.428  0.00  0.00    +0.000 F 
ENDBRANCH  12  13
ENDBRANCH  11  12
ENDBRANCH   8  11
ENDBRANCH   3   5
BRANCH   2  20
ATOM     20  C   UNL     1       3.187  -1.195   0.311  0.00  0.00    +0.000 A 
ATOM     21  C   UNL     1       2.553  -2.432   0.210  0.00  0.00    +0.000 A 
ATOM     22  C   UNL     1       3.310  -3.596   0.310  0.00  0.00    +0.000 A 
ATOM     23  C   UNL     1       4.686  -3.493   0.510  0.00  0.00    +0.000 A 
ATOM     24  N   UNL     1       5.319  -2.288   0.603  0.00  0.00    +0.000 NA
ATOM     25  C   UNL     1       4.558  -1.173   0.515  0.00  0.00    +0.000 A 
BRANCH  23  26
ATOM     26  C   UNL     1       5.498  -4.712   0.643  0.00  0.00    +0.000 A 
ATOM     27  N   UNL     1       6.827  -4.734   0.858  0.00  0.00    +0.000 NA
ATOM     28  N   UNL     1       7.083  -6.046   0.918  0.00  0.00    +0.000 N 
ATOM     29  C   UNL     1       5.958  -6.780   0.739  0.00  0.00    +0.000 A 
ATOM     30  N   UNL     1       4.938  -5.978   0.562  0.00  0.00    +0.000 NA
ATOM     31  H   UNL     1       8.034  -6.356   1.079  0.00  0.00    +0.000 HD
ENDBRANCH  23  26
ENDBRANCH   2  20
TORSDOF 6
