REMARK  Name = 
REMARK  4 active torsions:
REMARK  status: ('A' for Active; 'I' for Inactive)
REMARK    1  A    between atoms: N_3  and  C_4
REMARK    2  A    between atoms: C_4  and  C_5
REMARK    3  A    between atoms: C_7  and  C_8
REMARK    4  A    between atoms: N_22  and  C_23
REMARK                            x       y       z     vdW  Elec       q    Type
REMARK                         _______ _______ _______ _____ _____    ______ ____
ROOT
ATOM      1  O   UNL     1       0.917  -0.145  -0.048  0.00  0.00    +0.000 OA
ATOM      2  C   UNL     1       2.141  -0.156  -0.041  0.00  0.00    +0.000 A 
ATOM      3  N   UNL     1       2.964   0.995  -0.030  0.00  0.00    +0.000 N 
ATOM      4  C   UNL     1       4.306   0.591  -0.076  0.00  0.00    +0.000 A 
ATOM      5  C   UNL     1       5.462   1.353  -0.038  0.00  0.00    +0.000 A 
ATOM      6  C   UNL     1       6.680   0.668  -0.031  0.00  0.00    +0.000 A 
ATOM      7  C   UNL     1       6.719  -0.740  -0.062  0.00  0.00    +0.000 A 
ATOM      8  C   UNL     1       5.543  -1.491  -0.115  0.00  0.00    +0.000 A 
ATOM      9  C   UNL     1       4.341  -0.807  -0.131  0.00  0.00    +0.000 A 
ATOM     10  N   UNL     1       3.013  -1.265  -0.104  0.00  0.00    +0.000 N 
ENDROOT
BRANCH  10  11
ATOM     11  C   UNL     1       2.638  -2.612  -0.152  0.00  0.00    +0.000 A 
ATOM     12  C   UNL     1       1.552  -3.042   0.609  0.00  0.00    +0.000 A 
ATOM     13  C   UNL     1       1.181  -4.384   0.577  0.00  0.00    +0.000 A 
ATOM     14  C   UNL     1       1.859  -5.256  -0.261  0.00  0.00    +0.000 A 
ATOM     15  C   UNL     1       2.914  -4.752  -1.001  0.00  0.00    +0.000 A 
ATOM     16  N   UNL     1       3.340  -3.471  -0.933  0.00  0.00    +0.000 NA
ENDBRANCH  10  11
BRANCH   3  17
ATOM     17  C   UNL     1       2.482   2.353  -0.073  0.00  0.00    +0.000 C 
BRANCH  17  18
ATOM     18  C   UNL     1       2.559   2.938  -1.459  0.00  0.00    +0.000 A 
ATOM     19  C   UNL     1       1.843   2.370  -2.525  0.00  0.00    +0.000 A 
ATOM     20  C   UNL     1       2.008   2.869  -3.822  0.00  0.00    +0.000 A 
ATOM     21  N   UNL     1       2.817   3.942  -4.076  0.00  0.00    +0.000 NA
ATOM     22  C   UNL     1       3.474   4.494  -3.028  0.00  0.00    +0.000 A 
ATOM     23  C   UNL     1       3.381   4.026  -1.730  0.00  0.00    +0.000 A 
ATOM     24  F   UNL     1       4.095   4.606  -0.757  0.00  0.00    +0.000 F 
BRANCH  20  25
ATOM     25  C   UNL     1       1.331   2.163  -4.994  0.00  0.00    +0.000 C 
ATOM     26  F   UNL     1       0.534   1.121  -4.611  0.00  0.00    +0.000 F 
ATOM     27  F   UNL     1       0.525   2.984  -5.727  0.00  0.00    +0.000 F 
ATOM     28  F   UNL     1       2.226   1.627  -5.873  0.00  0.00    +0.000 F 
ENDBRANCH  20  25
ENDBRANCH  17  18
ENDBRANCH   3  17
TORSDOF 4
