REMARK  Name = 
REMARK  5 active torsions:
REMARK  status: ('A' for Active; 'I' for Inactive)
REMARK    1  A    between atoms: C_1  and  C_2
REMARK    2  A    between atoms: N_6  and  C_7
REMARK    3  A    between atoms: C_10  and  N_11
REMARK    4  A    between atoms: C_12  and  C_14
REMARK    5  A    between atoms: N_16  and  C_17
REMARK                            x       y       z     vdW  Elec       q    Type
REMARK                         _______ _______ _______ _____ _____    ______ ____
ROOT
ATOM      1  N   UNL     1       1.372  -6.506  -0.171  0.00  0.00    +0.000 N 
ATOM      2  C   UNL     1       0.288  -6.937  -0.913  0.00  0.00    +0.000 C 
ATOM      3  O   UNL     1      -0.476  -6.261  -1.590  0.00  0.00    +0.000 OA
ATOM      4  H   UNL     1       1.799  -7.195   0.444  0.00  0.00    +0.000 HD
ENDROOT
BRANCH   2   5
ATOM      5  C   UNL     1      -0.005  -8.419  -0.818  0.00  0.00    +0.000 A 
ATOM      6  N   UNL     1       0.097  -8.984   0.360  0.00  0.00    +0.000 NA
ATOM      7  N   UNL     1      -0.254 -10.320   0.454  0.00  0.00    +0.000 N 
ATOM      8  C   UNL     1      -0.826 -11.002  -0.607  0.00  0.00    +0.000 A 
ATOM      9  C   UNL     1      -0.975 -10.529  -1.842  0.00  0.00    +0.000 A 
ATOM     10  C   UNL     1      -0.449  -9.181  -2.049  0.00  0.00    +0.000 A 
ATOM     11  O   UNL     1      -0.357  -8.709  -3.170  0.00  0.00    +0.000 OA
BRANCH   7  12
ATOM     12  C   UNL     1      -0.322 -10.863   1.780  0.00  0.00    +0.000 A 
ATOM     13  C   UNL     1      -0.620 -10.043   2.883  0.00  0.00    +0.000 A 
ATOM     14  C   UNL     1      -0.855 -10.594   4.150  0.00  0.00    +0.000 A 
ATOM     15  C   UNL     1      -0.767 -11.971   4.347  0.00  0.00    +0.000 A 
ATOM     16  C   UNL     1      -0.406 -12.796   3.286  0.00  0.00    +0.000 A 
ATOM     17  C   UNL     1      -0.179 -12.244   2.029  0.00  0.00    +0.000 A 
ATOM     18  F   UNL     1       0.183 -13.080   1.041  0.00  0.00    +0.000 F 
ENDBRANCH   7  12
ENDBRANCH   2   5
BRANCH   1  22
ATOM     19  C   UNL     1       2.879  -2.546   0.102  0.00  0.00    +0.000 A 
ATOM     20  C   UNL     1       1.859  -2.847  -0.806  0.00  0.00    +0.000 A 
ATOM     21  C   UNL     1       1.369  -4.152  -0.920  0.00  0.00    +0.000 A 
ATOM     22  C   UNL     1       1.863  -5.181  -0.116  0.00  0.00    +0.000 A 
ATOM     23  C   UNL     1       2.888  -4.884   0.785  0.00  0.00    +0.000 A 
ATOM     24  C   UNL     1       3.394  -3.576   0.897  0.00  0.00    +0.000 A 
BRANCH  19  30
ATOM     25  C   UNL     1       5.798  -1.519   0.824  0.00  0.00    +0.000 C 
ATOM     26  C   UNL     1       4.570  -0.706   0.623  0.00  0.00    +0.000 A 
ATOM     27  N   UNL     1       4.566   0.615   0.679  0.00  0.00    +0.000 NA
ATOM     28  C   UNL     1       3.337   1.008   0.247  0.00  0.00    +0.000 A 
ATOM     29  C   UNL     1       2.569  -0.083  -0.072  0.00  0.00    +0.000 A 
ATOM     30  N   UNL     1       3.331  -1.199   0.220  0.00  0.00    +0.000 N 
ENDBRANCH  19  30
ENDBRANCH   1  22
TORSDOF 4
