REMARK  Name = 
REMARK  10 active torsions:
REMARK  status: ('A' for Active; 'I' for Inactive)
REMARK    1  A    between atoms: C_2  and  C_4
REMARK    2  A    between atoms: C_4  and  N_5
REMARK    3  A    between atoms: N_5  and  C_6
REMARK    4  A    between atoms: C_6  and  C_7
REMARK    5  A    between atoms: C_10  and  C_11
REMARK    6  A    between atoms: C_19  and  C_21
REMARK    7  A    between atoms: C_21  and  C_22
REMARK    8  A    between atoms: C_22  and  O_23
REMARK    9  A    between atoms: C_22  and  C_24
REMARK   10  A    between atoms: C_22  and  C_30
REMARK                            x       y       z     vdW  Elec       q    Type
REMARK                         _______ _______ _______ _____ _____    ______ ____
ROOT
ATOM      1  N   UNL     1       4.637  -0.713  -0.755  0.00  0.00    +0.000 N 
ATOM      2  C   UNL     1       5.462  -1.721  -1.239  0.00  0.00    +0.000 C 
ATOM      3  O   UNL     1       5.004  -2.635  -1.920  0.00  0.00    +0.000 OA
ENDROOT
BRANCH   2   4
ATOM      4  C   UNL     1       6.947  -1.619  -0.925  0.00  0.00    +0.000 C 
BRANCH   4   5
ATOM      5  C   UNL     1       7.792  -2.789  -1.486  0.00  0.00    +0.000 C 
BRANCH   5   6
ATOM      6  C   UNL     1       9.295  -2.627  -1.167  0.00  0.00    +0.000 A 
ATOM      7  C   UNL     1       9.764  -2.002   0.001  0.00  0.00    +0.000 A 
ATOM      8  C   UNL     1      11.131  -1.952   0.290  0.00  0.00    +0.000 A 
ATOM      9  C   UNL     1      12.056  -2.526  -0.578  0.00  0.00    +0.000 A 
ATOM     10  C   UNL     1      11.617  -3.148  -1.741  0.00  0.00    +0.000 A 
ATOM     11  C   UNL     1      10.252  -3.203  -2.030  0.00  0.00    +0.000 A 
ENDBRANCH   5   6
BRANCH   5  12
ATOM     12  C   UNL     1       7.268  -4.162  -0.922  0.00  0.00    +0.000 C 
ATOM     13  F   UNL     1       6.360  -3.987   0.073  0.00  0.00    +0.000 F 
ATOM     14  F   UNL     1       6.699  -4.939  -1.871  0.00  0.00    +0.000 F 
ATOM     15  F   UNL     1       8.265  -4.906  -0.373  0.00  0.00    +0.000 F 
ENDBRANCH   5  12
BRANCH   5  16
ATOM     16  O   UNL     1       7.689  -2.688  -2.933  0.00  0.00    +0.000 OA
ATOM     17  H   UNL     1       8.196  -1.909  -3.219  0.00  0.00    +0.000 HD
ENDBRANCH   5  16
ENDBRANCH   4   5
ENDBRANCH   2   4
BRANCH   1  18
ATOM     18  C   UNL     1       5.079   0.375   0.122  0.00  0.00    +0.000 C 
BRANCH  18  19
ATOM     19  C   UNL     1       4.621   0.265   1.561  0.00  0.00    +0.000 A 
ATOM     20  C   UNL     1       4.310  -0.948   2.186  0.00  0.00    +0.000 A 
ATOM     21  C   UNL     1       3.766  -0.968   3.481  0.00  0.00    +0.000 A 
ATOM     22  C   UNL     1       3.554   0.213   4.211  0.00  0.00    +0.000 A 
ATOM     23  C   UNL     1       3.983   1.411   3.612  0.00  0.00    +0.000 A 
ATOM     24  C   UNL     1       4.500   1.439   2.312  0.00  0.00    +0.000 A 
BRANCH  22  25
ATOM     25  C   UNL     1       2.878   0.221   5.537  0.00  0.00    +0.000 A 
ATOM     26  C   UNL     1       2.980  -0.853   6.438  0.00  0.00    +0.000 A 
ATOM     27  C   UNL     1       2.327  -0.828   7.678  0.00  0.00    +0.000 A 
ATOM     28  C   UNL     1       1.567   0.273   8.053  0.00  0.00    +0.000 A 
ATOM     29  C   UNL     1       1.442   1.349   7.180  0.00  0.00    +0.000 A 
ATOM     30  C   UNL     1       2.081   1.312   5.937  0.00  0.00    +0.000 A 
ENDBRANCH  22  25
ENDBRANCH  18  19
ENDBRANCH   1  18
BRANCH   1  31
ATOM     31  C   UNL     1       3.181  -0.896  -0.925  0.00  0.00    +0.000 C 
BRANCH  31  33
ATOM     32  N   UNL     1       3.422  -0.147  -3.275  0.00  0.00    +0.000 N 
ATOM     33  C   UNL     1       2.610  -0.724  -2.339  0.00  0.00    +0.000 C 
ATOM     34  O   UNL     1       1.443  -0.987  -2.619  0.00  0.00    +0.000 OA
ATOM     35  H   UNL     1       3.064  -0.200  -4.220  0.00  0.00    +0.000 HD
ATOM     36  H   UNL     1       4.419  -0.253  -3.163  0.00  0.00    +0.000 HD
ENDBRANCH  31  33
ENDBRANCH   1  31
TORSDOF 10
