REMARK  Name = 
REMARK  8 active torsions:
REMARK  status: ('A' for Active; 'I' for Inactive)
REMARK    1  A    between atoms: C_1  and  O_2
REMARK    2  A    between atoms: O_2  and  C_3
REMARK    3  A    between atoms: C_3  and  C_5
REMARK    4  A    between atoms: C_12  and  C_13
REMARK    5  A    between atoms: C_13  and  N_14
REMARK    6  A    between atoms: C_15  and  C_17
REMARK    7  A    between atoms: C_17  and  C_18
REMARK    8  A    between atoms: N_20  and  C_21
REMARK                            x       y       z     vdW  Elec       q    Type
REMARK                         _______ _______ _______ _____ _____    ______ ____
ROOT
ATOM      1  N   UNL     1       5.282  -4.755  -0.040  0.00  0.00    +0.000 N 
ATOM      2  C   UNL     1       4.392  -5.469   0.733  0.00  0.00    +0.000 C 
ATOM      3  O   UNL     1       4.721  -6.104   1.734  0.00  0.00    +0.000 OA
ATOM      4  H   UNL     1       4.949  -4.475  -0.963  0.00  0.00    +0.000 HD
ENDROOT
BRANCH   1   5
ATOM      5  C   UNL     1       6.704  -4.766   0.204  0.00  0.00    +0.000 C 
BRANCH   5  13
ATOM      6  C   UNL     1       8.536  -1.912  -2.695  0.00  0.00    +0.000 A 
ATOM      7  C   UNL     1       9.214  -0.795  -2.210  0.00  0.00    +0.000 A 
ATOM      8  C   UNL     1       9.179  -0.505  -0.844  0.00  0.00    +0.000 A 
ATOM      9  C   UNL     1       8.498  -1.342   0.059  0.00  0.00    +0.000 A 
ATOM     10  C   UNL     1       8.479  -1.022   1.423  0.00  0.00    +0.000 A 
ATOM     11  C   UNL     1       7.836  -1.847   2.341  0.00  0.00    +0.000 A 
ATOM     12  C   UNL     1       7.236  -3.025   1.909  0.00  0.00    +0.000 A 
ATOM     13  C   UNL     1       7.253  -3.395   0.551  0.00  0.00    +0.000 A 
ATOM     14  C   UNL     1       7.846  -2.517  -0.402  0.00  0.00    +0.000 A 
ATOM     15  C   UNL     1       7.849  -2.751  -1.796  0.00  0.00    +0.000 A 
BRANCH   6  16
ATOM     16  C   UNL     1       8.518  -2.284  -4.135  0.00  0.00    +0.000 C 
ATOM     17  O   UNL     1       7.830  -3.196  -4.574  0.00  0.00    +0.000 OA
BRANCH  16  19
ATOM     18  C   UNL     1       9.464  -1.930  -6.230  0.00  0.00    +0.000 C 
ATOM     19  O   UNL     1       9.374  -1.524  -4.862  0.00  0.00    +0.000 OA
ENDBRANCH  16  19
ENDBRANCH   6  16
ENDBRANCH   5  13
ENDBRANCH   1   5
BRANCH   2  20
ATOM     20  C   UNL     1       2.939  -5.323   0.328  0.00  0.00    +0.000 C 
BRANCH  20  21
ATOM     21  C   UNL     1       2.654  -5.764  -1.067  0.00  0.00    +0.000 A 
ATOM     22  N   UNL     1       3.154  -5.079  -2.102  0.00  0.00    +0.000 NA
ATOM     23  N   UNL     1       2.526  -5.587  -3.197  0.00  0.00    +0.000 N 
ATOM     24  C   UNL     1       1.749  -6.674  -2.862  0.00  0.00    +0.000 A 
ATOM     25  C   UNL     1       1.803  -6.804  -1.494  0.00  0.00    +0.000 A 
BRANCH  23  26
ATOM     26  C   UNL     1       2.661  -4.960  -4.466  0.00  0.00    +0.000 A 
ATOM     27  C   UNL     1       3.528  -3.866  -4.605  0.00  0.00    +0.000 A 
ATOM     28  C   UNL     1       3.643  -3.213  -5.833  0.00  0.00    +0.000 A 
ATOM     29  C   UNL     1       2.889  -3.639  -6.923  0.00  0.00    +0.000 A 
ATOM     30  C   UNL     1       2.023  -4.724  -6.791  0.00  0.00    +0.000 A 
ATOM     31  C   UNL     1       1.909  -5.390  -5.568  0.00  0.00    +0.000 A 
ENDBRANCH  23  26
ENDBRANCH  20  21
ENDBRANCH   2  20
TORSDOF 7
