REMARK  Name = 
REMARK  5 active torsions:
REMARK  status: ('A' for Active; 'I' for Inactive)
REMARK    1  A    between atoms: C_1  and  O_2
REMARK    2  A    between atoms: O_2  and  C_3
REMARK    3  A    between atoms: C_3  and  C_5
REMARK    4  A    between atoms: C_9  and  C_10
REMARK    5  A    between atoms: C_15  and  C_16
REMARK                            x       y       z     vdW  Elec       q    Type
REMARK                         _______ _______ _______ _____ _____    ______ ____
ROOT
ATOM      1  C   UNL     1       8.921  -0.649   1.043  0.00  0.00    +0.000 A 
ATOM      2  N   UNL     1       9.576  -1.355   0.180  0.00  0.00    +0.000 NA
ATOM      3  C   UNL     1      10.983  -1.361   0.250  0.00  0.00    +0.000 A 
ATOM      4  C   UNL     1      11.693  -0.611   1.191  0.00  0.00    +0.000 A 
ATOM      5  C   UNL     1      13.087  -0.693   1.297  0.00  0.00    +0.000 A 
ATOM      6  C   UNL     1      13.795  -1.582   0.477  0.00  0.00    +0.000 A 
ATOM      7  C   UNL     1      13.088  -2.300  -0.487  0.00  0.00    +0.000 A 
ATOM      8  F   UNL     1      13.740  -3.152  -1.290  0.00  0.00    +0.000 F 
ATOM      9  C   UNL     1      11.703  -2.184  -0.616  0.00  0.00    +0.000 A 
ATOM     10  C   UNL     1      10.908   0.217   2.120  0.00  0.00    +0.000 A 
ATOM     11  O   UNL     1      11.438   0.912   2.981  0.00  0.00    +0.000 OA
ATOM     12  N   UNL     1       9.550   0.131   1.989  0.00  0.00    +0.000 N 
ATOM     13  H   UNL     1       9.033   0.690   2.652  0.00  0.00    +0.000 HD
ENDROOT
BRANCH   1  18
ATOM     14  C   UNL     1       4.619  -0.613   1.048  0.00  0.00    +0.000 A 
ATOM     15  C   UNL     1       5.330  -0.396   2.228  0.00  0.00    +0.000 A 
ATOM     16  F   UNL     1       4.704  -0.164   3.388  0.00  0.00    +0.000 F 
ATOM     17  C   UNL     1       6.728  -0.398   2.237  0.00  0.00    +0.000 A 
ATOM     18  C   UNL     1       7.434  -0.624   1.053  0.00  0.00    +0.000 A 
ATOM     19  C   UNL     1       6.731  -0.842  -0.134  0.00  0.00    +0.000 A 
ATOM     20  C   UNL     1       5.335  -0.824  -0.131  0.00  0.00    +0.000 A 
ATOM     21  F   UNL     1       4.702  -1.040  -1.291  0.00  0.00    +0.000 F 
BRANCH  14  22
ATOM     22  C   UNL     1       3.144  -0.626   1.022  0.00  0.00    +0.000 C 
ATOM     23  O   UNL     1       2.477  -0.283   0.056  0.00  0.00    +0.000 OA
BRANCH  22  25
ATOM     24  C   UNL     1       1.220  -1.138   2.255  0.00  0.00    +0.000 C 
ATOM     25  O   UNL     1       2.648  -1.096   2.194  0.00  0.00    +0.000 OA
ENDBRANCH  22  25
ENDBRANCH  14  22
ENDBRANCH   1  18
BRANCH   6  26
ATOM     26  C   UNL     1      15.267  -1.823   0.647  0.00  0.00    +0.000 C 
ATOM     27  F   UNL     1      15.801  -1.111   1.681  0.00  0.00    +0.000 F 
ATOM     28  F   UNL     1      15.561  -3.124   0.916  0.00  0.00    +0.000 F 
ATOM     29  F   UNL     1      15.997  -1.482  -0.449  0.00  0.00    +0.000 F 
ENDBRANCH   6  26
TORSDOF 4
