REMARK  Name = 
REMARK  5 active torsions:
REMARK  status: ('A' for Active; 'I' for Inactive)
REMARK    1  A    between atoms: C_2  and  C_16
REMARK    2  A    between atoms: N_3  and  C_4
REMARK    3  A    between atoms: C_4  and  C_5
REMARK    4  A    between atoms: C_8  and  N_9
REMARK    5  A    between atoms: N_18  and  C_19
REMARK                            x       y       z     vdW  Elec       q    Type
REMARK                         _______ _______ _______ _____ _____    ______ ____
ROOT
ATOM      1  O   UNL     1       1.109   0.193   0.124  0.00  0.00    +0.000 OA
ATOM      2  C   UNL     1       2.335   0.165   0.050  0.00  0.00    +0.000 C 
ATOM      3  N   UNL     1       3.019   0.424  -1.111  0.00  0.00    +0.000 N 
ATOM      4  H   UNL     1       4.023   0.351  -1.163  0.00  0.00    +0.000 HD
ENDROOT
BRANCH   2   5
ATOM      5  C   UNL     1       3.163  -0.240   1.235  0.00  0.00    +0.000 A 
ATOM      6  C   UNL     1       4.426   0.185   1.406  0.00  0.00    +0.000 A 
ATOM      7  N   UNL     1       5.224  -0.262   2.459  0.00  0.00    +0.000 N 
ATOM      8  C   UNL     1       4.737  -1.167   3.420  0.00  0.00    +0.000 A 
ATOM      9  O   UNL     1       5.370  -1.637   4.362  0.00  0.00    +0.000 OA
ATOM     10  C   UNL     1       3.299  -1.530   3.289  0.00  0.00    +0.000 A 
ATOM     11  C   UNL     1       2.574  -1.089   2.253  0.00  0.00    +0.000 A 
BRANCH   7  12
ATOM     12  C   UNL     1       6.581   0.167   2.551  0.00  0.00    +0.000 A 
ATOM     13  C   UNL     1       6.883   1.533   2.558  0.00  0.00    +0.000 A 
ATOM     14  C   UNL     1       8.210   1.941   2.623  0.00  0.00    +0.000 A 
ATOM     15  F   UNL     1       8.492   3.249   2.674  0.00  0.00    +0.000 F 
ATOM     16  C   UNL     1       9.249   1.016   2.638  0.00  0.00    +0.000 A 
ATOM     17  C   UNL     1       8.956  -0.346   2.614  0.00  0.00    +0.000 A 
ATOM     18  C   UNL     1       7.624  -0.770   2.591  0.00  0.00    +0.000 A 
ENDBRANCH   7  12
ENDBRANCH   2   5
BRANCH   3  19
ATOM     19  C   UNL     1       2.332   0.796  -2.332  0.00  0.00    +0.000 C 
BRANCH  19  20
ATOM     20  C   UNL     1       2.035   2.276  -2.404  0.00  0.00    +0.000 A 
ATOM     21  C   UNL     1       0.842   2.777  -1.895  0.00  0.00    +0.000 A 
ATOM     22  C   UNL     1       0.579   4.144  -1.989  0.00  0.00    +0.000 A 
ATOM     23  C   UNL     1       1.515   4.987  -2.590  0.00  0.00    +0.000 A 
ATOM     24  C   UNL     1       2.691   4.405  -3.055  0.00  0.00    +0.000 A 
ATOM     25  N   UNL     1       2.972   3.079  -2.972  0.00  0.00    +0.000 NA
BRANCH  23  26
ATOM     26  N   UNL     1       1.275   6.380  -2.724  0.00  0.00    +0.000 N 
ATOM     27  C   UNL     1       0.178   7.086  -2.275  0.00  0.00    +0.000 A 
ATOM     28  C   UNL     1       0.390   8.396  -2.632  0.00  0.00    +0.000 A 
ATOM     29  N   UNL     1       1.577   8.530  -3.291  0.00  0.00    +0.000 NA
ATOM     30  C   UNL     1       2.082   7.317  -3.335  0.00  0.00    +0.000 A 
ENDBRANCH  23  26
ENDBRANCH  19  20
ENDBRANCH   3  19
TORSDOF 5
