REMARK  Name = 
REMARK  7 active torsions:
REMARK  status: ('A' for Active; 'I' for Inactive)
REMARK    1  A    between atoms: C_2  and  C_18
REMARK    2  A    between atoms: N_3  and  C_4
REMARK    3  A    between atoms: C_4  and  C_5
REMARK    4  A    between atoms: C_4  and  C_12
REMARK    5  A    between atoms: C_5  and  C_6
REMARK    6  A    between atoms: C_21  and  N_22
REMARK    7  A    between atoms: C_28  and  O_29
REMARK                            x       y       z     vdW  Elec       q    Type
REMARK                         _______ _______ _______ _____ _____    ______ ____
ROOT
ATOM      1  O   UNL     1       1.088  -0.015   0.139  0.00  0.00    +0.000 OA
ATOM      2  C   UNL     1       2.309  -0.085   0.057  0.00  0.00    +0.000 C 
ATOM      3  N   UNL     1       2.956  -0.624  -1.028  0.00  0.00    +0.000 N 
ATOM      4  H   UNL     1       3.969  -0.749  -0.995  0.00  0.00    +0.000 HD
ENDROOT
BRANCH   2   5
ATOM      5  C   UNL     1       3.157   0.499   1.133  0.00  0.00    +0.000 A 
ATOM      6  C   UNL     1       2.602   1.525   1.916  0.00  0.00    +0.000 A 
ATOM      7  C   UNL     1       3.350   2.143   2.927  0.00  0.00    +0.000 A 
ATOM      8  C   UNL     1       4.679   1.753   3.142  0.00  0.00    +0.000 A 
ATOM      9  C   UNL     1       5.227   0.710   2.388  0.00  0.00    +0.000 A 
ATOM     10  C   UNL     1       4.461   0.077   1.405  0.00  0.00    +0.000 A 
BRANCH   8  11
ATOM     11  N   UNL     1       5.475   2.418   4.115  0.00  0.00    +0.000 N 
ATOM     12  C   UNL     1       5.030   3.112   5.224  0.00  0.00    +0.000 A 
ATOM     13  C   UNL     1       6.118   3.593   5.922  0.00  0.00    +0.000 A 
ATOM     14  C   UNL     1       7.274   3.221   5.207  0.00  0.00    +0.000 A 
ATOM     15  C   UNL     1       6.857   2.497   4.112  0.00  0.00    +0.000 A 
ENDBRANCH   8  11
BRANCH  10  16
ATOM     16  O   UNL     1       5.005  -0.978   0.727  0.00  0.00    +0.000 OA
ATOM     17  H   UNL     1       5.745  -1.345   1.238  0.00  0.00    +0.000 HD
ENDBRANCH  10  16
ENDBRANCH   2   5
BRANCH   3  18
ATOM     18  C   UNL     1       2.280  -1.249  -2.166  0.00  0.00    +0.000 C 
BRANCH  18  19
ATOM     19  C   UNL     1       3.289  -1.921  -3.110  0.00  0.00    +0.000 A 
ATOM     20  C   UNL     1       2.837  -2.637  -4.223  0.00  0.00    +0.000 A 
ATOM     21  C   UNL     1       3.761  -3.202  -5.097  0.00  0.00    +0.000 A 
ATOM     22  C   UNL     1       5.116  -3.056  -4.838  0.00  0.00    +0.000 A 
ATOM     23  C   UNL     1       5.488  -2.356  -3.701  0.00  0.00    +0.000 A 
ATOM     24  N   UNL     1       4.619  -1.797  -2.832  0.00  0.00    +0.000 NA
ENDBRANCH  18  19
BRANCH  18  25
ATOM     25  C   UNL     1       1.317  -0.287  -2.906  0.00  0.00    +0.000 C 
BRANCH  25  26
ATOM     26  C   UNL     1       2.019   0.883  -3.544  0.00  0.00    +0.000 A 
ATOM     27  C   UNL     1       2.186   2.075  -2.844  0.00  0.00    +0.000 A 
ATOM     28  C   UNL     1       2.935   3.094  -3.421  0.00  0.00    +0.000 A 
ATOM     29  C   UNL     1       3.494   2.896  -4.677  0.00  0.00    +0.000 A 
ATOM     30  C   UNL     1       3.254   1.693  -5.319  0.00  0.00    +0.000 A 
ATOM     31  N   UNL     1       2.518   0.695  -4.791  0.00  0.00    +0.000 NA
ENDBRANCH  25  26
ENDBRANCH  18  25
ENDBRANCH   3  18
TORSDOF 7
