REMARK  Name = 
REMARK  8 active torsions:
REMARK  status: ('A' for Active; 'I' for Inactive)
REMARK    1  A    between atoms: C_1  and  C_2
REMARK    2  A    between atoms: C_2  and  N_3
REMARK    3  A    between atoms: C_2  and  C_19
REMARK    4  A    between atoms: C_4  and  C_6
REMARK    5  A    between atoms: N_12  and  C_13
REMARK    6  A    between atoms: C_23  and  O_24
REMARK    7  A    between atoms: O_24  and  C_25
REMARK    8  A    between atoms: C_25  and  C_26
REMARK                            x       y       z     vdW  Elec       q    Type
REMARK                         _______ _______ _______ _____ _____    ______ ____
ROOT
ATOM      1  N   UNL     1       2.929   0.362   1.280  0.00  0.00    +0.000 N 
ATOM      2  C   UNL     1       3.166   1.686   1.575  0.00  0.00    +0.000 C 
ATOM      3  O   UNL     1       3.024   2.607   0.780  0.00  0.00    +0.000 OA
ATOM      4  H   UNL     1       3.209  -0.352   1.934  0.00  0.00    +0.000 HD
ENDROOT
BRANCH   2   5
ATOM      5  C   UNL     1       3.670   1.958   2.947  0.00  0.00    +0.000 A 
ATOM      6  C   UNL     1       3.251   1.188   4.042  0.00  0.00    +0.000 A 
ATOM      7  C   UNL     1       3.768   1.446   5.313  0.00  0.00    +0.000 A 
ATOM      8  C   UNL     1       4.684   2.489   5.490  0.00  0.00    +0.000 A 
ATOM      9  C   UNL     1       5.253   2.777   6.820  0.00  0.00    +0.000 A 
ATOM     10  O   UNL     1       4.975   2.033   7.757  0.00  0.00    +0.000 OA
ATOM     11  N   UNL     1       6.081   3.890   6.915  0.00  0.00    +0.000 N 
ATOM     12  C   UNL     1       6.618   4.247   8.213  0.00  0.00    +0.000 C 
ATOM     13  C   UNL     1       6.443   4.691   5.843  0.00  0.00    +0.000 A 
ATOM     14  O   UNL     1       7.177   5.673   5.937  0.00  0.00    +0.000 OA
ATOM     15  N   UNL     1       5.939   4.346   4.620  0.00  0.00    +0.000 N 
ATOM     16  C   UNL     1       5.066   3.281   4.412  0.00  0.00    +0.000 A 
ATOM     17  C   UNL     1       4.568   3.018   3.135  0.00  0.00    +0.000 A 
ATOM     18  H   UNL     1       6.214   4.946   3.852  0.00  0.00    +0.000 HD
ENDBRANCH   2   5
BRANCH   1  20
ATOM     19  C   UNL     1       0.954  -0.033  -0.130  0.00  0.00    +0.000 C 
ATOM     20  C   UNL     1       2.481  -0.074  -0.035  0.00  0.00    +0.000 C 
BRANCH  20  21
ATOM     21  C   UNL     1       3.040  -1.459  -0.304  0.00  0.00    +0.000 A 
ATOM     22  C   UNL     1       2.622  -2.571   0.445  0.00  0.00    +0.000 A 
ATOM     23  C   UNL     1       3.214  -3.818   0.257  0.00  0.00    +0.000 A 
ATOM     24  C   UNL     1       4.226  -3.974  -0.686  0.00  0.00    +0.000 A 
ATOM     25  C   UNL     1       4.622  -2.894  -1.476  0.00  0.00    +0.000 A 
ATOM     26  C   UNL     1       4.044  -1.639  -1.271  0.00  0.00    +0.000 A 
BRANCH  25  27
ATOM     27  O   UNL     1       5.569  -2.956  -2.461  0.00  0.00    +0.000 OA
BRANCH  27  28
ATOM     28  C   UNL     1       5.861  -4.272  -2.943  0.00  0.00    +0.000 C 
BRANCH  28  29
ATOM     29  C   UNL     1       6.507  -4.193  -4.303  0.00  0.00    +0.000 A 
ATOM     30  C   UNL     1       5.853  -3.530  -5.340  0.00  0.00    +0.000 A 
ATOM     31  C   UNL     1       6.428  -3.530  -6.605  0.00  0.00    +0.000 A 
ATOM     32  C   UNL     1       7.638  -4.187  -6.801  0.00  0.00    +0.000 A 
ATOM     33  C   UNL     1       8.221  -4.821  -5.718  0.00  0.00    +0.000 A 
ATOM     34  N   UNL     1       7.682  -4.848  -4.480  0.00  0.00    +0.000 NA
ENDBRANCH  28  29
ENDBRANCH  27  28
ENDBRANCH  25  27
ENDBRANCH  20  21
ENDBRANCH   1  20
TORSDOF 6
