REMARK  Name = 
REMARK  6 active torsions:
REMARK  status: ('A' for Active; 'I' for Inactive)
REMARK    1  A    between atoms: C_1  and  N_2
REMARK    2  A    between atoms: C_3  and  C_5
REMARK    3  A    between atoms: C_8  and  C_9
REMARK    4  A    between atoms: C_20  and  O_21
REMARK    5  A    between atoms: O_21  and  C_22
REMARK    6  A    between atoms: C_22  and  C_23
REMARK                            x       y       z     vdW  Elec       q    Type
REMARK                         _______ _______ _______ _____ _____    ______ ____
ROOT
ATOM      1  C   UNL     1       1.089   0.011   0.296  0.00  0.00    +0.000 C 
ATOM      2  N   UNL     1       2.519   0.044   0.086  0.00  0.00    +0.000 N 
ATOM      3  C   UNL     1       3.203  -1.001  -0.527  0.00  0.00    +0.000 C 
ATOM      4  O   UNL     1       2.619  -1.998  -0.963  0.00  0.00    +0.000 OA
ATOM      5  C   UNL     1       3.155   1.206   0.515  0.00  0.00    +0.000 A 
ATOM      6  N   UNL     1       3.441   2.156  -0.395  0.00  0.00    +0.000 NA
ATOM      7  C   UNL     1       4.116   3.226   0.070  0.00  0.00    +0.000 A 
ATOM      8  C   UNL     1       4.515   3.379   1.379  0.00  0.00    +0.000 A 
ATOM      9  C   UNL     1       4.185   2.328   2.208  0.00  0.00    +0.000 A 
ATOM     10  N   UNL     1       3.457   1.269   1.823  0.00  0.00    +0.000 NA
ENDROOT
BRANCH   3  11
ATOM     11  C   UNL     1       4.703  -0.946  -0.680  0.00  0.00    +0.000 A 
ATOM     12  C   UNL     1       5.314  -1.709  -1.662  0.00  0.00    +0.000 A 
ATOM     13  C   UNL     1       6.703  -1.623  -1.810  0.00  0.00    +0.000 A 
ATOM     14  C   UNL     1       7.468  -0.783  -0.987  0.00  0.00    +0.000 A 
ATOM     15  C   UNL     1       6.749  -0.078  -0.025  0.00  0.00    +0.000 A 
ATOM     16  N   UNL     1       5.415  -0.159   0.158  0.00  0.00    +0.000 NA
BRANCH  14  17
ATOM     17  C   UNL     1       8.932  -0.650  -1.117  0.00  0.00    +0.000 A 
ATOM     18  C   UNL     1       9.583  -0.763  -2.353  0.00  0.00    +0.000 A 
ATOM     19  C   UNL     1      10.972  -0.640  -2.443  0.00  0.00    +0.000 A 
ATOM     20  C   UNL     1      11.682  -0.395  -1.284  0.00  0.00    +0.000 A 
ATOM     21  N   UNL     1      11.109  -0.264  -0.072  0.00  0.00    +0.000 NA
ATOM     22  C   UNL     1       9.761  -0.398  -0.021  0.00  0.00    +0.000 A 
ENDBRANCH  14  17
ENDBRANCH   3  11
BRANCH   8  23
ATOM     23  O   UNL     1       5.162   4.519   1.739  0.00  0.00    +0.000 OA
BRANCH  23  24
ATOM     24  C   UNL     1       5.104   4.802   3.139  0.00  0.00    +0.000 C 
BRANCH  24  25
ATOM     25  C   UNL     1       5.295   6.276   3.368  0.00  0.00    +0.000 A 
ATOM     26  C   UNL     1       4.245   7.045   3.891  0.00  0.00    +0.000 A 
ATOM     27  C   UNL     1       4.423   8.403   4.139  0.00  0.00    +0.000 A 
ATOM     28  C   UNL     1       5.654   9.005   3.869  0.00  0.00    +0.000 A 
ATOM     29  C   UNL     1       6.697   8.249   3.336  0.00  0.00    +0.000 A 
ATOM     30  C   UNL     1       6.524   6.892   3.088  0.00  0.00    +0.000 A 
ENDBRANCH  24  25
ENDBRANCH  23  24
ENDBRANCH   8  23
TORSDOF 5
