REMARK  Name = 
REMARK  8 active torsions:
REMARK  status: ('A' for Active; 'I' for Inactive)
REMARK    1  A    between atoms: C_2  and  C_27
REMARK    2  A    between atoms: N_3  and  C_4
REMARK    3  A    between atoms: C_4  and  C_5
REMARK    4  A    between atoms: C_4  and  C_12
REMARK    5  A    between atoms: C_5  and  C_6
REMARK    6  A    between atoms: N_14  and  C_15
REMARK    7  A    between atoms: C_15  and  C_16
REMARK    8  A    between atoms: C_17  and  C_18
REMARK                            x       y       z     vdW  Elec       q    Type
REMARK                         _______ _______ _______ _____ _____    ______ ____
ROOT
ATOM      1  C   UNL     1       2.352  -1.673   1.600  0.00  0.00    +0.000 C 
ENDROOT
BRANCH   1   4
ATOM      2  O   UNL     1       1.106   0.265   0.029  0.00  0.00    +0.000 OA
ATOM      3  C   UNL     1       2.312   0.093  -0.154  0.00  0.00    +0.000 C 
ATOM      4  N   UNL     1       3.012  -0.834   0.587  0.00  0.00    +0.000 N 
ATOM      5  H   UNL     1       4.022  -0.896   0.493  0.00  0.00    +0.000 HD
BRANCH   3   6
ATOM      6  C   UNL     1       3.042   0.829  -1.170  0.00  0.00    +0.000 A 
ATOM      7  C   UNL     1       2.562   1.749  -2.084  0.00  0.00    +0.000 A 
ATOM      8  C   UNL     1       3.661   2.165  -2.870  0.00  0.00    +0.000 A 
ATOM      9  C   UNL     1       4.748   1.478  -2.390  0.00  0.00    +0.000 A 
ATOM     10  O   UNL     1       4.389   0.660  -1.359  0.00  0.00    +0.000 OA
ENDBRANCH   3   6
ENDBRANCH   1   4
BRANCH   1  11
ATOM     11  C   UNL     1       3.407  -2.442   2.437  0.00  0.00    +0.000 C 
ATOM     12  O   UNL     1       4.612  -2.379   2.191  0.00  0.00    +0.000 OA
ATOM     13  N   UNL     1       2.899  -3.190   3.483  0.00  0.00    +0.000 N 
ATOM     14  H   UNL     1       1.946  -3.039   3.783  0.00  0.00    +0.000 HD
BRANCH  13  15
ATOM     15  C   UNL     1       3.765  -3.896   4.408  0.00  0.00    +0.000 C 
BRANCH  15  16
ATOM     16  C   UNL     1       4.116  -3.063   5.597  0.00  0.00    +0.000 A 
ATOM     17  C   UNL     1       4.974  -3.376   6.643  0.00  0.00    +0.000 A 
ATOM     18  O   UNL     1       4.944  -2.326   7.526  0.00  0.00    +0.000 OA
ATOM     19  C   UNL     1       4.076  -1.441   6.963  0.00  0.00    +0.000 A 
ATOM     20  N   UNL     1       3.526  -1.828   5.840  0.00  0.00    +0.000 NA
BRANCH  17  21
ATOM     21  C   UNL     1       5.838  -4.495   7.007  0.00  0.00    +0.000 A 
ATOM     22  C   UNL     1       6.492  -5.250   6.024  0.00  0.00    +0.000 A 
ATOM     23  C   UNL     1       7.286  -6.346   6.370  0.00  0.00    +0.000 A 
ATOM     24  C   UNL     1       7.449  -6.696   7.707  0.00  0.00    +0.000 A 
ATOM     25  C   UNL     1       6.824  -5.946   8.700  0.00  0.00    +0.000 A 
ATOM     26  C   UNL     1       6.026  -4.851   8.351  0.00  0.00    +0.000 A 
ENDBRANCH  17  21
ENDBRANCH  15  16
ENDBRANCH  13  15
ENDBRANCH   1  11
BRANCH   1  27
ATOM     27  C   UNL     1       1.260  -2.614   1.022  0.00  0.00    +0.000 C 
BRANCH  27  28
ATOM     28  C   UNL     1       1.762  -3.623   0.015  0.00  0.00    +0.000 A 
ATOM     29  C   UNL     1       2.148  -4.907   0.421  0.00  0.00    +0.000 A 
ATOM     30  C   UNL     1       2.717  -5.796  -0.492  0.00  0.00    +0.000 A 
ATOM     31  C   UNL     1       2.900  -5.413  -1.819  0.00  0.00    +0.000 A 
ATOM     32  C   UNL     1       2.469  -4.159  -2.246  0.00  0.00    +0.000 A 
ATOM     33  C   UNL     1       1.889  -3.274  -1.337  0.00  0.00    +0.000 A 
ENDBRANCH  27  28
ENDBRANCH   1  27
TORSDOF 8
