REMARK  Name = 
REMARK  8 active torsions:
REMARK  status: ('A' for Active; 'I' for Inactive)
REMARK    1  A    between atoms: C_2  and  C_15
REMARK    2  A    between atoms: N_3  and  C_4
REMARK    3  A    between atoms: C_4  and  C_5
REMARK    4  A    between atoms: C_5  and  C_6
REMARK    5  A    between atoms: C_9  and  O_10
REMARK    6  A    between atoms: C_11  and  C_12
REMARK    7  A    between atoms: C_12  and  O_13
REMARK    8  A    between atoms: C_18  and  N_19
REMARK                            x       y       z     vdW  Elec       q    Type
REMARK                         _______ _______ _______ _____ _____    ______ ____
ROOT
ATOM      1  O   UNL     1       0.969  -0.435   0.503  0.00  0.00    +0.000 OA
ATOM      2  C   UNL     1       2.166  -0.294   0.366  0.00  0.00    +0.000 C 
ATOM      3  N   UNL     1       2.941   0.587   1.091  0.00  0.00    +0.000 N 
ATOM      4  H   UNL     1       3.835   0.902   0.710  0.00  0.00    +0.000 HD
ENDROOT
BRANCH   2   5
ATOM      5  C   UNL     1       2.877  -1.030  -0.709  0.00  0.00    +0.000 A 
ATOM      6  C   UNL     1       2.186  -1.197  -1.914  0.00  0.00    +0.000 A 
ATOM      7  C   UNL     1       2.825  -1.786  -2.995  0.00  0.00    +0.000 A 
ATOM      8  C   UNL     1       4.149  -2.250  -2.892  0.00  0.00    +0.000 A 
ATOM      9  C   UNL     1       4.822  -2.138  -1.675  0.00  0.00    +0.000 A 
ATOM     10  C   UNL     1       4.185  -1.520  -0.585  0.00  0.00    +0.000 A 
BRANCH   8  11
ATOM     11  N   UNL     1       4.759  -2.775  -4.070  0.00  0.00    +0.000 N 
ATOM     12  C   UNL     1       4.341  -2.448  -5.351  0.00  0.00    +0.000 A 
ATOM     13  C   UNL     1       5.287  -2.931  -6.215  0.00  0.00    +0.000 A 
ATOM     14  C   UNL     1       5.638  -4.131  -5.583  0.00  0.00    +0.000 A 
ATOM     15  C   UNL     1       5.848  -5.441  -6.030  0.00  0.00    +0.000 A 
ATOM     16  C   UNL     1       6.228  -6.399  -5.098  0.00  0.00    +0.000 A 
ATOM     17  C   UNL     1       6.519  -6.027  -3.786  0.00  0.00    +0.000 A 
ATOM     18  C   UNL     1       6.248  -4.737  -3.309  0.00  0.00    +0.000 A 
ATOM     19  C   UNL     1       5.646  -3.848  -4.208  0.00  0.00    +0.000 A 
ENDBRANCH   8  11
ENDBRANCH   2   5
BRANCH   3  20
ATOM     20  C   UNL     1       2.246   1.545   1.985  0.00  0.00    +0.000 C 
BRANCH  20  21
ATOM     21  C   UNL     1       3.223   2.395   2.768  0.00  0.00    +0.000 C 
BRANCH  21  22
ATOM     22  C   UNL     1       2.504   3.309   3.723  0.00  0.00    +0.000 A 
ATOM     23  C   UNL     1       2.240   2.898   5.033  0.00  0.00    +0.000 A 
ATOM     24  C   UNL     1       1.555   3.735   5.914  0.00  0.00    +0.000 A 
ATOM     25  C   UNL     1       1.126   4.993   5.489  0.00  0.00    +0.000 A 
ATOM     26  C   UNL     1       1.364   5.440   4.185  0.00  0.00    +0.000 A 
ATOM     27  C   UNL     1       2.061   4.577   3.311  0.00  0.00    +0.000 A 
BRANCH  25  28
ATOM     28  O   UNL     1       0.451   5.803   6.362  0.00  0.00    +0.000 OA
ATOM     29  H   UNL     1       0.397   5.354   7.224  0.00  0.00    +0.000 HD
ENDBRANCH  25  28
BRANCH  26  30
ATOM     30  C   UNL     1       0.922   6.781   3.635  0.00  0.00    +0.000 C 
BRANCH  30  31
ATOM     31  O   UNL     1       0.208   7.633   4.520  0.00  0.00    +0.000 OA
ATOM     32  H   UNL     1       0.100   7.141   5.358  0.00  0.00    +0.000 HD
ENDBRANCH  30  31
ENDBRANCH  26  30
ENDBRANCH  21  22
ENDBRANCH  20  21
ENDBRANCH   3  20
TORSDOF 8
