REMARK  Name = 
REMARK  4 active torsions:
REMARK  status: ('A' for Active; 'I' for Inactive)
REMARK    1  A    between atoms: N_13  and  C_14
REMARK    2  A    between atoms: C_14  and  C_15
REMARK    3  A    between atoms: C_19  and  O_20
REMARK    4  A    between atoms: O_20  and  C_21
REMARK                            x       y       z     vdW  Elec       q    Type
REMARK                         _______ _______ _______ _____ _____    ______ ____
ROOT
ATOM      1  C   UNL     1       2.322  -2.407  -0.141  0.00  0.00    +0.000 C 
ENDROOT
BRANCH   1  14
ATOM      2  O   UNL     1       3.136  -2.611  -2.825  0.00  0.00    +0.000 OA
ATOM      3  C   UNL     1       3.191  -3.589  -2.092  0.00  0.00    +0.000 A 
ATOM      4  C   UNL     1       3.724  -4.866  -2.687  0.00  0.00    +0.000 A 
ATOM      5  N   UNL     1       3.923  -5.957  -2.021  0.00  0.00    +0.000 NA
ATOM      6  C   UNL     1       3.637  -5.942  -0.649  0.00  0.00    +0.000 A 
ATOM      7  C   UNL     1       3.093  -4.813   0.013  0.00  0.00    +0.000 A 
ATOM      8  C   UNL     1       2.880  -4.886   1.395  0.00  0.00    +0.000 A 
ATOM      9  C   UNL     1       3.197  -6.047   2.096  0.00  0.00    +0.000 A 
ATOM     10  F   UNL     1       3.008  -6.075   3.422  0.00  0.00    +0.000 F 
ATOM     11  C   UNL     1       3.729  -7.146   1.440  0.00  0.00    +0.000 A 
ATOM     12  F   UNL     1       4.049  -8.251   2.128  0.00  0.00    +0.000 F 
ATOM     13  C   UNL     1       3.943  -7.103   0.072  0.00  0.00    +0.000 A 
ATOM     14  N   UNL     1       2.823  -3.635  -0.749  0.00  0.00    +0.000 N 
ENDBRANCH   1  14
BRANCH   1  15
ATOM     15  C   UNL     1       0.815  -2.261  -0.109  0.00  0.00    +0.000 A 
ATOM     16  C   UNL     1       0.147  -1.645  -1.176  0.00  0.00    +0.000 A 
ATOM     17  C   UNL     1      -1.203  -1.361  -1.049  0.00  0.00    +0.000 A 
ATOM     18  N   UNL     1      -1.934  -1.665   0.040  0.00  0.00    +0.000 NA
ATOM     19  C   UNL     1      -1.301  -2.319   1.037  0.00  0.00    +0.000 A 
ATOM     20  C   UNL     1       0.054  -2.625   1.010  0.00  0.00    +0.000 A 
BRANCH  19  21
ATOM     21  O   UNL     1      -1.986  -2.658   2.207  0.00  0.00    +0.000 OA
BRANCH  21  22
ATOM     22  C   UNL     1      -3.364  -2.640   2.191  0.00  0.00    +0.000 A 
ATOM     23  C   UNL     1      -4.122  -3.166   1.143  0.00  0.00    +0.000 A 
ATOM     24  C   UNL     1      -5.515  -3.112   1.186  0.00  0.00    +0.000 A 
ATOM     25  C   UNL     1      -6.157  -2.576   2.301  0.00  0.00    +0.000 A 
ATOM     26  C   UNL     1      -5.405  -2.102   3.376  0.00  0.00    +0.000 A 
ATOM     27  C   UNL     1      -4.009  -2.138   3.324  0.00  0.00    +0.000 A 
ENDBRANCH  21  22
ENDBRANCH  19  21
ENDBRANCH   1  15
TORSDOF 4
