REMARK  Name = 
REMARK  5 active torsions:
REMARK  status: ('A' for Active; 'I' for Inactive)
REMARK    1  A    between atoms: C_2  and  C_24
REMARK    2  A    between atoms: N_3  and  C_4
REMARK    3  A    between atoms: C_8  and  N_9
REMARK    4  A    between atoms: C_10  and  C_12
REMARK    5  A    between atoms: C_15  and  O_16
REMARK                            x       y       z     vdW  Elec       q    Type
REMARK                         _______ _______ _______ _____ _____    ______ ____
ROOT
ATOM      1  C   UNL     1       2.110   1.173  -2.164  0.00  0.00    +0.000 A 
ATOM      2  C   UNL     1       1.002   1.975  -1.889  0.00  0.00    +0.000 A 
ATOM      3  C   UNL     1       0.333   2.637  -2.909  0.00  0.00    +0.000 A 
ATOM      4  C   UNL     1       0.783   2.530  -4.219  0.00  0.00    +0.000 A 
ATOM      5  C   UNL     1       1.921   1.782  -4.529  0.00  0.00    +0.000 A 
ATOM      6  C   UNL     1       2.584   1.101  -3.489  0.00  0.00    +0.000 A 
ENDROOT
BRANCH   1   9
ATOM      7  O   UNL     1       1.109   0.477   0.509  0.00  0.00    +0.000 OA
ATOM      8  C   UNL     1       2.220   0.156   0.103  0.00  0.00    +0.000 C 
ATOM      9  N   UNL     1       2.759   0.426  -1.150  0.00  0.00    +0.000 N 
ATOM     10  H   UNL     1       3.600  -0.070  -1.415  0.00  0.00    +0.000 HD
BRANCH   8  11
ATOM     11  C   UNL     1       3.049  -0.673   1.013  0.00  0.00    +0.000 A 
ATOM     12  C   UNL     1       2.383  -1.577   1.857  0.00  0.00    +0.000 A 
ATOM     13  C   UNL     1       3.106  -2.368   2.748  0.00  0.00    +0.000 A 
ATOM     14  C   UNL     1       4.488  -2.240   2.800  0.00  0.00    +0.000 A 
ATOM     15  F   UNL     1       5.186  -2.998   3.655  0.00  0.00    +0.000 F 
ATOM     16  C   UNL     1       5.158  -1.329   1.987  0.00  0.00    +0.000 A 
ATOM     17  C   UNL     1       4.440  -0.536   1.089  0.00  0.00    +0.000 A 
ENDBRANCH   8  11
ENDBRANCH   1   9
BRANCH   5  18
ATOM     18  N   UNL     1       2.415   1.663  -5.855  0.00  0.00    +0.000 N 
ATOM     19  C   UNL     1       1.913   2.325  -6.975  0.00  0.00    +0.000 C 
ATOM     20  O   UNL     1       1.016   3.162  -6.976  0.00  0.00    +0.000 OA
ATOM     21  H   UNL     1       3.182   1.014  -5.979  0.00  0.00    +0.000 HD
BRANCH  19  22
ATOM     22  C   UNL     1       2.528   1.994  -8.284  0.00  0.00    +0.000 A 
ATOM     23  C   UNL     1       3.912   1.851  -8.360  0.00  0.00    +0.000 A 
ATOM     24  N   UNL     1       4.585   1.539  -9.491  0.00  0.00    +0.000 NA
ATOM     25  C   UNL     1       3.832   1.398 -10.595  0.00  0.00    +0.000 A 
ATOM     26  C   UNL     1       2.448   1.556 -10.665  0.00  0.00    +0.000 A 
ATOM     27  C   UNL     1       1.715   1.414 -11.850  0.00  0.00    +0.000 A 
ATOM     28  N   UNL     1       0.378   1.584 -11.951  0.00  0.00    +0.000 NA
ATOM     29  C   UNL     1      -0.270   1.911 -10.818  0.00  0.00    +0.000 A 
ATOM     30  C   UNL     1       0.357   2.054  -9.588  0.00  0.00    +0.000 A 
ATOM     31  C   UNL     1       1.759   1.877  -9.479  0.00  0.00    +0.000 A 
BRANCH  25  32
ATOM     32  O   UNL     1       4.566   1.079 -11.692  0.00  0.00    +0.000 OA
ATOM     33  H   UNL     1       5.461   1.064 -11.307  0.00  0.00    +0.000 HD
ENDBRANCH  25  32
ENDBRANCH  19  22
ENDBRANCH   5  18
TORSDOF 5
