REMARK  Name = 
REMARK  7 active torsions:
REMARK  status: ('A' for Active; 'I' for Inactive)
REMARK    1  A    between atoms: C_1  and  O_2
REMARK    2  A    between atoms: O_2  and  C_3
REMARK    3  A    between atoms: C_8  and  C_9
REMARK    4  A    between atoms: C_16  and  C_17
REMARK    5  A    between atoms: N_19  and  C_20
REMARK    6  A    between atoms: C_20  and  C_21
REMARK    7  A    between atoms: C_20  and  C_24
REMARK                            x       y       z     vdW  Elec       q    Type
REMARK                         _______ _______ _______ _____ _____    ______ ____
ROOT
ATOM      1  C   UNL     1       4.224   1.661  -0.836  0.00  0.00    +0.000 A 
ATOM      2  C   UNL     1       3.908   2.475  -1.934  0.00  0.00    +0.000 A 
ATOM      3  C   UNL     1       4.698   2.473  -3.092  0.00  0.00    +0.000 A 
ATOM      4  C   UNL     1       5.866   1.697  -3.171  0.00  0.00    +0.000 A 
ATOM      5  C   UNL     1       6.151   0.800  -2.125  0.00  0.00    +0.000 A 
ATOM      6  C   UNL     1       5.256   0.732  -1.069  0.00  0.00    +0.000 A 
ATOM      7  O   UNL     1       5.608  -0.282  -0.225  0.00  0.00    +0.000 OA
ATOM      8  C   UNL     1       6.868  -0.682  -0.567  0.00  0.00    +0.000 A 
ATOM      9  C   UNL     1       7.244  -0.036  -1.734  0.00  0.00    +0.000 A 
ENDROOT
BRANCH   1  15
ATOM     10  C   UNL     1       4.633   1.894   1.644  0.00  0.00    +0.000 A 
ATOM     11  C   UNL     1       4.165   2.015   2.957  0.00  0.00    +0.000 A 
ATOM     12  C   UNL     1       2.810   2.225   3.186  0.00  0.00    +0.000 A 
ATOM     13  C   UNL     1       1.920   2.315   2.115  0.00  0.00    +0.000 A 
ATOM     14  C   UNL     1       2.373   2.124   0.804  0.00  0.00    +0.000 A 
ATOM     15  C   UNL     1       3.726   1.872   0.540  0.00  0.00    +0.000 A 
BRANCH  10  17
ATOM     16  C   UNL     1       6.952   1.960   2.350  0.00  0.00    +0.000 C 
ATOM     17  O   UNL     1       5.972   1.839   1.333  0.00  0.00    +0.000 OA
ENDBRANCH  10  17
ENDBRANCH   1  15
BRANCH   8  18
ATOM     18  C   UNL     1       7.564  -1.526   0.385  0.00  0.00    +0.000 C 
ATOM     19  O   UNL     1       8.772  -1.462   0.598  0.00  0.00    +0.000 OA
ATOM     20  N   UNL     1       6.736  -2.377   1.095  0.00  0.00    +0.000 N 
ATOM     21  H   UNL     1       5.816  -2.559   0.712  0.00  0.00    +0.000 HD
BRANCH  20  22
ATOM     22  C   UNL     1       7.220  -3.228   2.184  0.00  0.00    +0.000 C 
BRANCH  22  23
ATOM     23  C   UNL     1       7.837  -4.545   1.740  0.00  0.00    +0.000 A 
ATOM     24  C   UNL     1       8.877  -5.084   2.508  0.00  0.00    +0.000 A 
ATOM     25  C   UNL     1       9.326  -6.375   2.242  0.00  0.00    +0.000 A 
ATOM     26  C   UNL     1       8.742  -7.094   1.206  0.00  0.00    +0.000 A 
ATOM     27  C   UNL     1       7.739  -6.479   0.473  0.00  0.00    +0.000 A 
ATOM     28  N   UNL     1       7.276  -5.224   0.710  0.00  0.00    +0.000 NA
ENDBRANCH  22  23
BRANCH  22  29
ATOM     29  C   UNL     1       6.103  -3.553   3.233  0.00  0.00    +0.000 C 
ATOM     30  N   UNL     1       4.889  -2.919   3.072  0.00  0.00    +0.000 N 
ATOM     31  O   UNL     1       6.262  -4.294   4.200  0.00  0.00    +0.000 OA
ATOM     32  H   UNL     1       4.816  -2.066   2.544  0.00  0.00    +0.000 HD
ATOM     33  H   UNL     1       4.205  -3.096   3.797  0.00  0.00    +0.000 HD
ENDBRANCH  22  29
ENDBRANCH  20  22
ENDBRANCH   8  18
TORSDOF 6
