REMARK  Name = 
REMARK  10 active torsions:
REMARK  status: ('A' for Active; 'I' for Inactive)
REMARK    1  A    between atoms: C_1  and  O_2
REMARK    2  A    between atoms: O_2  and  C_3
REMARK    3  A    between atoms: C_6  and  C_7
REMARK    4  A    between atoms: C_7  and  C_8
REMARK    5  A    between atoms: C_8  and  N_9
REMARK    6  A    between atoms: C_8  and  C_23
REMARK    7  A    between atoms: C_10  and  C_12
REMARK    8  A    between atoms: C_21  and  N_22
REMARK    9  A    between atoms: C_30  and  O_31
REMARK   10  A    between atoms: O_31  and  C_32
REMARK                            x       y       z     vdW  Elec       q    Type
REMARK                         _______ _______ _______ _____ _____    ______ ____
ROOT
ATOM      1  C   UNL     1       4.574   1.386   5.769  0.00  0.00    +0.000 C 
ENDROOT
BRANCH   1   2
ATOM      2  C   UNL     1       5.313   2.082   6.916  0.00  0.00    +0.000 A 
ATOM      3  C   UNL     1       4.926   3.385   7.286  0.00  0.00    +0.000 A 
ATOM      4  C   UNL     1       5.563   4.054   8.341  0.00  0.00    +0.000 A 
ATOM      5  C   UNL     1       6.601   3.446   9.026  0.00  0.00    +0.000 A 
ATOM      6  C   UNL     1       7.029   2.180   8.633  0.00  0.00    +0.000 A 
ATOM      7  C   UNL     1       6.396   1.499   7.584  0.00  0.00    +0.000 A 
ENDBRANCH   1   2
BRANCH   1   8
ATOM      8  N   UNL     1       4.167  -0.008   6.102  0.00  0.00    +0.000 N 
ATOM      9  C   UNL     1       4.937  -1.139   6.017  0.00  0.00    +0.000 C 
ATOM     10  O   UNL     1       6.132  -1.084   5.679  0.00  0.00    +0.000 OA
ATOM     11  H   UNL     1       3.247  -0.118   6.533  0.00  0.00    +0.000 HD
BRANCH   9  12
ATOM     12  C   UNL     1       4.332  -2.527   6.186  0.00  0.00    +0.000 A 
ATOM     13  N   UNL     1       3.102  -2.813   6.657  0.00  0.00    +0.000 NA
ATOM     14  N   UNL     1       2.328  -3.848   6.005  0.00  0.00    +0.000 NA
ATOM     15  C   UNL     1       2.594  -4.136   4.698  0.00  0.00    +0.000 A 
ATOM     16  C   UNL     1       1.693  -4.589   3.709  0.00  0.00    +0.000 A 
ATOM     17  C   UNL     1       1.545  -3.815   2.561  0.00  0.00    +0.000 A 
ATOM     18  C   UNL     1       2.234  -2.606   2.513  0.00  0.00    +0.000 A 
ATOM     19  C   UNL     1       3.321  -2.437   3.369  0.00  0.00    +0.000 A 
ATOM     20  C   UNL     1       3.671  -3.451   4.259  0.00  0.00    +0.000 A 
ATOM     21  C   UNL     1       4.727  -3.384   5.191  0.00  0.00    +0.000 A 
BRANCH  21  22
ATOM     22  N   UNL     1       5.271  -4.695   5.595  0.00  0.00    +0.000 N 
ATOM     23  H   UNL     1       4.532  -5.239   6.064  0.00  0.00    +0.000 HD
ATOM     24  H   UNL     1       6.031  -4.554   6.272  0.00  0.00    +0.000 HD
ENDBRANCH  21  22
ENDBRANCH   9  12
ENDBRANCH   1   8
BRANCH   1  25
ATOM     25  C   UNL     1       5.316   1.665   4.414  0.00  0.00    +0.000 C 
BRANCH  25  29
ATOM     26  C   UNL     1       3.309   1.475   0.534  0.00  0.00    +0.000 A 
ATOM     27  C   UNL     1       4.429   0.696   0.815  0.00  0.00    +0.000 A 
ATOM     28  C   UNL     1       5.057   0.745   2.071  0.00  0.00    +0.000 A 
ATOM     29  C   UNL     1       4.551   1.549   3.099  0.00  0.00    +0.000 A 
ATOM     30  C   UNL     1       3.411   2.312   2.822  0.00  0.00    +0.000 A 
ATOM     31  C   UNL     1       2.772   2.283   1.555  0.00  0.00    +0.000 A 
BRANCH  26  33
ATOM     32  C   UNL     1       3.492   1.252  -1.845  0.00  0.00    +0.000 C 
ATOM     33  O   UNL     1       2.688   1.434  -0.689  0.00  0.00    +0.000 OA
ENDBRANCH  26  33
BRANCH  31  34
ATOM     34  O   UNL     1       1.669   3.096   1.501  0.00  0.00    +0.000 OA
ATOM     35  C   UNL     1       0.910   3.147   0.294  0.00  0.00    +0.000 C 
ENDBRANCH  31  34
ENDBRANCH  25  29
ENDBRANCH   1  25
TORSDOF 8
