REMARK  Name = 
REMARK  5 active torsions:
REMARK  status: ('A' for Active; 'I' for Inactive)
REMARK    1  A    between atoms: C_2  and  C_17
REMARK    2  A    between atoms: N_3  and  C_4
REMARK    3  A    between atoms: C_7  and  O_8
REMARK    4  A    between atoms: O_8  and  C_9
REMARK    5  A    between atoms: N_21  and  C_22
REMARK                            x       y       z     vdW  Elec       q    Type
REMARK                         _______ _______ _______ _____ _____    ______ ____
ROOT
ATOM      1  O   UNL     1       0.956  -0.489  -0.077  0.00  0.00    +0.000 OA
ATOM      2  C   UNL     1       2.133  -0.150  -0.043  0.00  0.00    +0.000 C 
ATOM      3  N   UNL     1       2.764   0.389   1.062  0.00  0.00    +0.000 N 
ATOM      4  H   UNL     1       3.699   0.756   0.931  0.00  0.00    +0.000 HD
ENDROOT
BRANCH   3   5
ATOM      5  C   UNL     1       2.140   0.685   2.295  0.00  0.00    +0.000 A 
ATOM      6  C   UNL     1       0.897   0.190   2.689  0.00  0.00    +0.000 A 
ATOM      7  C   UNL     1       0.344   0.577   3.907  0.00  0.00    +0.000 A 
ATOM      8  C   UNL     1       1.068   1.440   4.709  0.00  0.00    +0.000 A 
ATOM      9  N   UNL     1       2.275   1.948   4.361  0.00  0.00    +0.000 NA
ATOM     10  C   UNL     1       2.786   1.543   3.180  0.00  0.00    +0.000 A 
BRANCH   8  11
ATOM     11  O   UNL     1       0.506   1.781   5.931  0.00  0.00    +0.000 OA
BRANCH  11  12
ATOM     12  C   UNL     1       1.376   2.016   6.970  0.00  0.00    +0.000 A 
ATOM     13  C   UNL     1       1.042   3.036   7.861  0.00  0.00    +0.000 A 
ATOM     14  C   UNL     1       1.895   3.333   8.924  0.00  0.00    +0.000 A 
ATOM     15  C   UNL     1       3.074   2.607   9.101  0.00  0.00    +0.000 A 
ATOM     16  C   UNL     1       3.389   1.563   8.233  0.00  0.00    +0.000 A 
ATOM     17  C   UNL     1       2.530   1.253   7.185  0.00  0.00    +0.000 A 
ENDBRANCH  11  12
ENDBRANCH   8  11
ENDBRANCH   3   5
BRANCH   2  18
ATOM     18  C   UNL     1       2.961  -0.239  -1.210  0.00  0.00    +0.000 A 
ATOM     19  C   UNL     1       4.265  -0.661  -1.343  0.00  0.00    +0.000 A 
ATOM     20  N   UNL     1       4.574  -0.805  -2.658  0.00  0.00    +0.000 NA
ATOM     21  N   UNL     1       3.496  -0.497  -3.364  0.00  0.00    +0.000 NA
ATOM     22  N   UNL     1       2.534  -0.051  -2.513  0.00  0.00    +0.000 N 
BRANCH  22  23
ATOM     23  C   UNL     1       1.366   0.578  -3.020  0.00  0.00    +0.000 A 
ATOM     24  C   UNL     1       0.674   1.542  -2.275  0.00  0.00    +0.000 A 
ATOM     25  C   UNL     1      -0.457   2.146  -2.815  0.00  0.00    +0.000 A 
ATOM     26  F   UNL     1      -1.102   3.082  -2.107  0.00  0.00    +0.000 F 
ATOM     27  C   UNL     1      -0.920   1.808  -4.080  0.00  0.00    +0.000 A 
ATOM     28  C   UNL     1      -0.230   0.859  -4.832  0.00  0.00    +0.000 A 
ATOM     29  C   UNL     1       0.921   0.258  -4.313  0.00  0.00    +0.000 A 
ENDBRANCH  22  23
ENDBRANCH   2  18
TORSDOF 5
