REMARK  Name = 
REMARK  3 active torsions:
REMARK  status: ('A' for Active; 'I' for Inactive)
REMARK    1  A    between atoms: C_2  and  C_17
REMARK    2  A    between atoms: N_3  and  C_4
REMARK    3  A    between atoms: C_7  and  N_8
REMARK                            x       y       z     vdW  Elec       q    Type
REMARK                         _______ _______ _______ _____ _____    ______ ____
ROOT
ATOM      1  O   UNL     1       1.136   0.013   0.345  0.00  0.00    +0.000 OA
ATOM      2  C   UNL     1       2.335  -0.087   0.117  0.00  0.00    +0.000 C 
ATOM      3  N   UNL     1       2.915  -0.560  -1.046  0.00  0.00    +0.000 N 
ATOM      4  H   UNL     1       3.889  -0.832  -0.999  0.00  0.00    +0.000 HD
ENDROOT
BRANCH   2   5
ATOM      5  C   UNL     1       3.283   0.206   1.227  0.00  0.00    +0.000 A 
ATOM      6  C   UNL     1       4.555   0.793   1.027  0.00  0.00    +0.000 A 
ATOM      7  C   UNL     1       5.389   0.988   2.131  0.00  0.00    +0.000 A 
ATOM      8  C   UNL     1       5.011   0.456   3.368  0.00  0.00    +0.000 A 
ATOM      9  N   UNL     1       5.937   0.502   4.445  0.00  0.00    +0.000 N 
ATOM     10  C   UNL     1       6.513   1.750   4.586  0.00  0.00    +0.000 A 
ATOM     11  O   UNL     1       6.597   2.355   5.647  0.00  0.00    +0.000 OA
ATOM     12  C   UNL     1       7.086   2.268   3.316  0.00  0.00    +0.000 A 
ATOM     13  C   UNL     1       6.592   1.857   2.136  0.00  0.00    +0.000 A 
ATOM     14  C   UNL     1       3.726  -0.026   3.579  0.00  0.00    +0.000 A 
ATOM     15  F   UNL     1       3.318  -0.367   4.808  0.00  0.00    +0.000 F 
ATOM     16  C   UNL     1       2.845  -0.111   2.519  0.00  0.00    +0.000 A 
ATOM     17  H   UNL     1       6.714  -0.089   4.144  0.00  0.00    +0.000 HD
ENDBRANCH   2   5
BRANCH   3  18
ATOM     18  C   UNL     1       2.218  -0.937  -2.215  0.00  0.00    +0.000 A 
ATOM     19  C   UNL     1       0.890  -0.596  -2.463  0.00  0.00    +0.000 A 
ATOM     20  C   UNL     1       0.231  -1.053  -3.614  0.00  0.00    +0.000 A 
ATOM     21  C   UNL     1       0.870  -1.885  -4.546  0.00  0.00    +0.000 A 
ATOM     22  C   UNL     1       2.222  -2.174  -4.295  0.00  0.00    +0.000 A 
ATOM     23  F   UNL     1       2.916  -2.963  -5.133  0.00  0.00    +0.000 F 
ATOM     24  C   UNL     1       2.896  -1.698  -3.166  0.00  0.00    +0.000 A 
BRANCH  21  25
ATOM     25  N   UNL     1       0.168  -2.404  -5.652  0.00  0.00    +0.000 N 
ATOM     26  C   UNL     1      -1.136  -2.272  -6.044  0.00  0.00    +0.000 A 
ATOM     27  C   UNL     1      -1.406  -2.959  -7.157  0.00  0.00    +0.000 A 
ATOM     28  C   UNL     1      -0.134  -3.650  -7.480  0.00  0.00    +0.000 A 
ATOM     29  O   UNL     1      -0.006  -4.500  -8.340  0.00  0.00    +0.000 OA
ATOM     30  N   UNL     1       0.811  -3.185  -6.588  0.00  0.00    +0.000 N 
ATOM     31  H   UNL     1       1.643  -3.715  -6.363  0.00  0.00    +0.000 HD
ENDBRANCH  21  25
ENDBRANCH   3  18
TORSDOF 3
