REMARK  Name = 
REMARK  4 active torsions:
REMARK  status: ('A' for Active; 'I' for Inactive)
REMARK    1  A    between atoms: C_1  and  N_2
REMARK    2  A    between atoms: C_4  and  C_5
REMARK    3  A    between atoms: N_7  and  C_8
REMARK    4  A    between atoms: N_12  and  C_13
REMARK                            x       y       z     vdW  Elec       q    Type
REMARK                         _______ _______ _______ _____ _____    ______ ____
ROOT
ATOM      1  C   UNL     1       0.187  -3.451   0.135  0.00  0.00    +0.000 C 
ATOM      2  O   UNL     1       1.371  -3.615   0.435  0.00  0.00    +0.000 OA
ATOM      3  N   UNL     1      -0.741  -4.473   0.078  0.00  0.00    +0.000 N 
ATOM      4  H   UNL     1      -1.650  -4.303  -0.344  0.00  0.00    +0.000 HD
ENDROOT
BRANCH   1   8
ATOM      5  C   UNL     1      -3.201   0.085   0.499  0.00  0.00    +0.000 C 
ATOM      6  N   UNL     1      -1.880  -0.319   0.051  0.00  0.00    +0.000 N 
ATOM      7  C   UNL     1      -1.454  -1.627   0.212  0.00  0.00    +0.000 A 
ATOM      8  C   UNL     1      -0.269  -2.071  -0.244  0.00  0.00    +0.000 A 
ATOM      9  C   UNL     1       0.628  -1.102  -0.929  0.00  0.00    +0.000 A 
ATOM     10  C   UNL     1       1.866  -1.467  -1.488  0.00  0.00    +0.000 A 
ATOM     11  C   UNL     1       2.700  -0.520  -2.095  0.00  0.00    +0.000 A 
ATOM     12  C   UNL     1       2.312   0.813  -2.164  0.00  0.00    +0.000 A 
ATOM     13  C   UNL     1       1.081   1.196  -1.639  0.00  0.00    +0.000 A 
ATOM     14  C   UNL     1       0.243   0.243  -1.037  0.00  0.00    +0.000 A 
ATOM     15  C   UNL     1      -1.085   0.670  -0.534  0.00  0.00    +0.000 A 
ATOM     16  O   UNL     1      -1.440   1.842  -0.655  0.00  0.00    +0.000 OA
ENDBRANCH   1   8
BRANCH   3  17
ATOM     17  C   UNL     1      -0.487  -5.814   0.358  0.00  0.00    +0.000 A 
ATOM     18  C   UNL     1       0.613  -6.278   0.980  0.00  0.00    +0.000 A 
ATOM     19  C   UNL     1       0.859  -7.679   1.149  0.00  0.00    +0.000 A 
ATOM     20  C   UNL     1       0.008  -8.573   0.642  0.00  0.00    +0.000 A 
ATOM     21  N   UNL     1      -1.165  -8.191   0.005  0.00  0.00    +0.000 N 
ATOM     22  C   UNL     1      -1.524  -6.828  -0.114  0.00  0.00    +0.000 A 
ATOM     23  O   UNL     1      -2.556  -6.386  -0.626  0.00  0.00    +0.000 OA
BRANCH  21  24
ATOM     24  C   UNL     1      -1.993  -9.191  -0.593  0.00  0.00    +0.000 A 
ATOM     25  C   UNL     1      -1.417 -10.158  -1.433  0.00  0.00    +0.000 A 
ATOM     26  C   UNL     1      -2.210 -11.121  -2.059  0.00  0.00    +0.000 A 
ATOM     27  C   UNL     1      -3.580 -11.156  -1.812  0.00  0.00    +0.000 A 
ATOM     28  C   UNL     1      -4.156 -10.226  -0.948  0.00  0.00    +0.000 A 
ATOM     29  C   UNL     1      -3.370  -9.236  -0.352  0.00  0.00    +0.000 A 
ENDBRANCH  21  24
ENDBRANCH   3  17
TORSDOF 3
