REMARK  Name = 
REMARK  6 active torsions:
REMARK  status: ('A' for Active; 'I' for Inactive)
REMARK    1  A    between atoms: C_2  and  C_4
REMARK    2  A    between atoms: C_4  and  N_5
REMARK    3  A    between atoms: C_4  and  C_21
REMARK    4  A    between atoms: N_5  and  C_6
REMARK    5  A    between atoms: N_10  and  C_11
REMARK    6  A    between atoms: C_11  and  C_12
REMARK                            x       y       z     vdW  Elec       q    Type
REMARK                         _______ _______ _______ _____ _____    ______ ____
ROOT
ATOM      1  N   UNL     1       2.868  -0.708  -2.186  0.00  0.00    +0.000 N 
ATOM      2  H   UNL     1       3.490  -1.308  -2.730  0.00  0.00    +0.000 HD
ENDROOT
BRANCH   1   3
ATOM      3  C   UNL     1       1.567  -0.925  -2.632  0.00  0.00    +0.000 A 
ATOM      4  C   UNL     1       1.226  -2.034  -3.312  0.00  0.00    +0.000 A 
ATOM      5  C   UNL     1      -0.134  -2.197  -3.850  0.00  0.00    +0.000 A 
ATOM      6  O   UNL     1      -0.370  -3.185  -4.544  0.00  0.00    +0.000 OA
ATOM      7  N   UNL     1      -1.033  -1.185  -3.585  0.00  0.00    +0.000 N 
ATOM      8  C   UNL     1      -0.682  -0.011  -2.923  0.00  0.00    +0.000 A 
ATOM      9  O   UNL     1      -1.414   0.960  -2.787  0.00  0.00    +0.000 OA
ATOM     10  N   UNL     1       0.612   0.027  -2.446  0.00  0.00    +0.000 N 
ATOM     11  H   UNL     1       0.873   0.882  -1.972  0.00  0.00    +0.000 HD
BRANCH   7  12
ATOM     12  C   UNL     1      -2.381  -1.297  -4.130  0.00  0.00    +0.000 C 
BRANCH  12  13
ATOM     13  C   UNL     1      -3.421  -1.686  -3.096  0.00  0.00    +0.000 A 
ATOM     14  C   UNL     1      -4.137  -0.694  -2.408  0.00  0.00    +0.000 A 
ATOM     15  C   UNL     1      -5.073  -1.037  -1.432  0.00  0.00    +0.000 A 
ATOM     16  C   UNL     1      -5.311  -2.377  -1.139  0.00  0.00    +0.000 A 
ATOM     17  C   UNL     1      -4.623  -3.375  -1.828  0.00  0.00    +0.000 A 
ATOM     18  C   UNL     1      -3.680  -3.033  -2.801  0.00  0.00    +0.000 A 
ENDBRANCH  12  13
ENDBRANCH   7  12
ENDBRANCH   1   3
BRANCH   1  19
ATOM     19  C   UNL     1       3.224  -0.939  -0.751  0.00  0.00    +0.000 C 
BRANCH  19  20
ATOM     20  C   UNL     1       4.595  -1.613  -0.663  0.00  0.00    +0.000 A 
ATOM     21  C   UNL     1       4.734  -2.731   0.172  0.00  0.00    +0.000 A 
ATOM     22  C   UNL     1       5.923  -3.454   0.195  0.00  0.00    +0.000 A 
ATOM     23  C   UNL     1       7.049  -2.983  -0.490  0.00  0.00    +0.000 A 
ATOM     24  C   UNL     1       8.260  -3.673  -0.436  0.00  0.00    +0.000 A 
ATOM     25  C   UNL     1       9.447  -2.964  -0.512  0.00  0.00    +0.000 A 
ATOM     26  C   UNL     1       9.426  -1.697  -1.076  0.00  0.00    +0.000 A 
ATOM     27  C   UNL     1       8.217  -1.161  -1.538  0.00  0.00    +0.000 A 
ATOM     28  C   UNL     1       6.996  -1.750  -1.157  0.00  0.00    +0.000 A 
ATOM     29  C   UNL     1       5.737  -1.138  -1.344  0.00  0.00    +0.000 A 
ENDBRANCH  19  20
BRANCH  19  31
ATOM     30  N   UNL     1       3.355   1.529  -0.560  0.00  0.00    +0.000 N 
ATOM     31  C   UNL     1       3.173   0.348   0.104  0.00  0.00    +0.000 C 
ATOM     32  O   UNL     1       3.030   0.335   1.328  0.00  0.00    +0.000 OA
ATOM     33  H   UNL     1       3.424   2.373  -0.003  0.00  0.00    +0.000 HD
ATOM     34  H   UNL     1       3.635   1.524  -1.536  0.00  0.00    +0.000 HD
ENDBRANCH  19  31
ENDBRANCH   1  19
TORSDOF 6
