REMARK  Name = 
REMARK  4 active torsions:
REMARK  status: ('A' for Active; 'I' for Inactive)
REMARK    1  A    between atoms: C_2  and  C_19
REMARK    2  A    between atoms: N_3  and  C_4
REMARK    3  A    between atoms: C_7  and  N_8
REMARK    4  A    between atoms: C_12  and  C_13
REMARK                            x       y       z     vdW  Elec       q    Type
REMARK                         _______ _______ _______ _____ _____    ______ ____
ROOT
ATOM      1  O   UNL     1       1.289   0.069  -0.802  0.00  0.00    +0.000 OA
ATOM      2  C   UNL     1       2.337  -0.066  -0.184  0.00  0.00    +0.000 C 
ATOM      3  N   UNL     1       2.895  -1.257   0.252  0.00  0.00    +0.000 N 
ATOM      4  H   UNL     1       3.688  -1.207   0.880  0.00  0.00    +0.000 HD
ENDROOT
BRANCH   2   5
ATOM      5  C   UNL     1       3.098   1.149   0.184  0.00  0.00    +0.000 A 
ATOM      6  C   UNL     1       4.482   1.142   0.006  0.00  0.00    +0.000 A 
ATOM      7  N   UNL     1       5.293   2.184   0.295  0.00  0.00    +0.000 NA
ATOM      8  C   UNL     1       4.690   3.308   0.753  0.00  0.00    +0.000 A 
ATOM      9  C   UNL     1       3.322   3.413   0.946  0.00  0.00    +0.000 A 
ATOM     10  C   UNL     1       2.490   2.318   0.669  0.00  0.00    +0.000 A 
ATOM     11  C   UNL     1       1.045   2.469   0.935  0.00  0.00    +0.000 A 
ATOM     12  C   UNL     1       0.567   3.616   1.424  0.00  0.00    +0.000 A 
ATOM     13  N   UNL     1       1.387   4.677   1.676  0.00  0.00    +0.000 N 
ATOM     14  C   UNL     1       2.750   4.675   1.464  0.00  0.00    +0.000 A 
ATOM     15  O   UNL     1       3.450   5.651   1.697  0.00  0.00    +0.000 OA
ATOM     16  H   UNL     1       1.002   5.540   2.044  0.00  0.00    +0.000 HD
ENDBRANCH   2   5
BRANCH   3  17
ATOM     17  C   UNL     1       2.340  -2.541   0.082  0.00  0.00    +0.000 A 
ATOM     18  C   UNL     1       1.263  -2.812  -0.762  0.00  0.00    +0.000 A 
ATOM     19  C   UNL     1       0.665  -4.073  -0.763  0.00  0.00    +0.000 A 
ATOM     20  C   UNL     1       1.131  -5.067   0.105  0.00  0.00    +0.000 A 
ATOM     21  C   UNL     1       2.295  -4.845   0.845  0.00  0.00    +0.000 A 
ATOM     22  C   UNL     1       2.892  -3.581   0.838  0.00  0.00    +0.000 A 
BRANCH  20  23
ATOM     23  N   UNL     1       0.376  -6.261   0.240  0.00  0.00    +0.000 N 
ATOM     24  N   UNL     1      -0.328  -6.712  -0.836  0.00  0.00    +0.000 NA
ATOM     25  C   UNL     1      -0.831  -7.882  -0.454  0.00  0.00    +0.000 A 
ATOM     26  C   UNL     1      -0.550  -8.161   0.886  0.00  0.00    +0.000 A 
ATOM     27  C   UNL     1       0.165  -7.066   1.341  0.00  0.00    +0.000 A 
BRANCH  27  28
ATOM     28  C   UNL     1       0.527  -6.739   2.731  0.00  0.00    +0.000 C 
ATOM     29  F   UNL     1       0.936  -5.470   2.952  0.00  0.00    +0.000 F 
ATOM     30  F   UNL     1      -0.535  -6.928   3.560  0.00  0.00    +0.000 F 
ATOM     31  F   UNL     1       1.514  -7.554   3.182  0.00  0.00    +0.000 F 
ENDBRANCH  27  28
ENDBRANCH  20  23
ENDBRANCH   3  17
TORSDOF 4
