REMARK  Name = 
REMARK  7 active torsions:
REMARK  status: ('A' for Active; 'I' for Inactive)
REMARK    1  A    between atoms: C_2  and  C_14
REMARK    2  A    between atoms: N_3  and  C_4
REMARK    3  A    between atoms: C_7  and  C_8
REMARK    4  A    between atoms: C_8  and  O_9
REMARK    5  A    between atoms: C_11  and  C_12
REMARK    6  A    between atoms: C_12  and  O_13
REMARK    7  A    between atoms: C_17  and  N_18
REMARK                            x       y       z     vdW  Elec       q    Type
REMARK                         _______ _______ _______ _____ _____    ______ ____
ROOT
ATOM      1  O   UNL     1       1.205   0.759  -0.722  0.00  0.00    +0.000 OA
ATOM      2  C   UNL     1       2.342   0.383  -0.450  0.00  0.00    +0.000 C 
ATOM      3  N   UNL     1       3.004  -0.715  -0.980  0.00  0.00    +0.000 N 
ATOM      4  H   UNL     1       3.937  -0.939  -0.645  0.00  0.00    +0.000 HD
ENDROOT
BRANCH   3   5
ATOM      5  C   UNL     1       2.436  -1.682  -1.849  0.00  0.00    +0.000 A 
ATOM      6  C   UNL     1       1.186  -1.483  -2.437  0.00  0.00    +0.000 A 
ATOM      7  C   UNL     1       0.582  -2.473  -3.220  0.00  0.00    +0.000 A 
ATOM      8  C   UNL     1       1.228  -3.685  -3.427  0.00  0.00    +0.000 A 
ATOM      9  C   UNL     1       2.507  -3.886  -2.872  0.00  0.00    +0.000 A 
ATOM     10  C   UNL     1       3.128  -2.886  -2.082  0.00  0.00    +0.000 A 
BRANCH   8  11
ATOM     11  C   UNL     1       0.559  -4.774  -4.215  0.00  0.00    +0.000 C 
BRANCH  11  12
ATOM     12  O   UNL     1       1.307  -5.069  -5.383  0.00  0.00    +0.000 OA
ATOM     13  H   UNL     1       1.548  -4.215  -5.781  0.00  0.00    +0.000 HD
ENDBRANCH  11  12
ENDBRANCH   8  11
BRANCH  10  14
ATOM     14  C   UNL     1       4.455  -3.238  -1.453  0.00  0.00    +0.000 C 
BRANCH  14  15
ATOM     15  O   UNL     1       5.289  -2.092  -1.287  0.00  0.00    +0.000 OA
ATOM     16  H   UNL     1       6.089  -2.260  -1.818  0.00  0.00    +0.000 HD
ENDBRANCH  14  15
ENDBRANCH  10  14
ENDBRANCH   3   5
BRANCH   2  17
ATOM     17  C   UNL     1       3.030   1.105   0.619  0.00  0.00    +0.000 A 
ATOM     18  C   UNL     1       2.244   1.445   1.747  0.00  0.00    +0.000 A 
ATOM     19  C   UNL     1       2.816   2.108   2.814  0.00  0.00    +0.000 A 
ATOM     20  C   UNL     1       4.169   2.470   2.779  0.00  0.00    +0.000 A 
ATOM     21  C   UNL     1       4.943   2.194   1.653  0.00  0.00    +0.000 A 
ATOM     22  C   UNL     1       4.370   1.495   0.574  0.00  0.00    +0.000 A 
BRANCH  20  23
ATOM     23  N   UNL     1       4.735   3.022   3.969  0.00  0.00    +0.000 N 
ATOM     24  C   UNL     1       4.307   2.653   5.233  0.00  0.00    +0.000 A 
ATOM     25  C   UNL     1       5.215   3.136   6.138  0.00  0.00    +0.000 A 
ATOM     26  C   UNL     1       5.737   4.278   5.503  0.00  0.00    +0.000 A 
ATOM     27  C   UNL     1       6.235   5.502   5.978  0.00  0.00    +0.000 A 
ATOM     28  C   UNL     1       6.773   6.405   5.066  0.00  0.00    +0.000 A 
ATOM     29  C   UNL     1       6.946   6.034   3.734  0.00  0.00    +0.000 A 
ATOM     30  C   UNL     1       6.417   4.834   3.233  0.00  0.00    +0.000 A 
ATOM     31  C   UNL     1       5.692   4.026   4.127  0.00  0.00    +0.000 A 
ENDBRANCH  20  23
ENDBRANCH   2  17
TORSDOF 7
