REMARK  Name = 
REMARK  7 active torsions:
REMARK  status: ('A' for Active; 'I' for Inactive)
REMARK    1  A    between atoms: C_1  and  N_2
REMARK    2  A    between atoms: N_2  and  C_17
REMARK    3  A    between atoms: C_3  and  C_5
REMARK    4  A    between atoms: C_14  and  O_15
REMARK    5  A    between atoms: C_21  and  C_22
REMARK    6  A    between atoms: C_22  and  O_23
REMARK    7  A    between atoms: C_22  and  C_24
REMARK                            x       y       z     vdW  Elec       q    Type
REMARK                         _______ _______ _______ _____ _____    ______ ____
ROOT
ATOM      1  C   UNL     1       2.370   1.367  -0.571  0.00  0.00    +0.000 C 
ATOM      2  N   UNL     1       2.433   0.068   0.092  0.00  0.00    +0.000 N 
ATOM      3  C   UNL     1       1.890  -0.090   1.375  0.00  0.00    +0.000 C 
ATOM      4  O   UNL     1       1.435   0.849   2.025  0.00  0.00    +0.000 OA
ENDROOT
BRANCH   3   5
ATOM      5  C   UNL     1       1.796  -1.498   1.929  0.00  0.00    +0.000 A 
ATOM      6  C   UNL     1       1.667  -1.666   3.249  0.00  0.00    +0.000 A 
ATOM      7  C   UNL     1       1.638  -3.037   3.806  0.00  0.00    +0.000 A 
ATOM      8  O   UNL     1       1.588  -3.178   5.021  0.00  0.00    +0.000 OA
ATOM      9  C   UNL     1       1.701  -4.158   2.837  0.00  0.00    +0.000 A 
ATOM     10  C   UNL     1       1.809  -3.828   1.488  0.00  0.00    +0.000 A 
ATOM     11  C   UNL     1       1.889  -4.815   0.503  0.00  0.00    +0.000 A 
ATOM     12  C   UNL     1       1.829  -6.156   0.859  0.00  0.00    +0.000 A 
ATOM     13  C   UNL     1       1.703  -6.505   2.203  0.00  0.00    +0.000 A 
ATOM     14  C   UNL     1       1.647  -5.511   3.189  0.00  0.00    +0.000 A 
ATOM     15  O   UNL     1       1.815  -2.542   1.028  0.00  0.00    +0.000 OA
BRANCH  14  16
ATOM     16  O   UNL     1       1.523  -5.892   4.495  0.00  0.00    +0.000 OA
ATOM     17  H   UNL     1       1.510  -6.860   4.565  0.00  0.00    +0.000 HD
ENDBRANCH  14  16
ENDBRANCH   3   5
BRANCH   2  18
ATOM     18  C   UNL     1       3.200  -0.917  -0.582  0.00  0.00    +0.000 A 
ATOM     19  C   UNL     1       2.776  -1.388  -1.827  0.00  0.00    +0.000 A 
ATOM     20  C   UNL     1       3.460  -2.433  -2.445  0.00  0.00    +0.000 A 
ATOM     21  C   UNL     1       4.604  -2.971  -1.853  0.00  0.00    +0.000 A 
ATOM     22  C   UNL     1       5.077  -2.475  -0.625  0.00  0.00    +0.000 A 
ATOM     23  C   UNL     1       4.347  -1.459   0.015  0.00  0.00    +0.000 A 
BRANCH  22  24
ATOM     24  C   UNL     1       6.394  -2.940  -0.017  0.00  0.00    +0.000 C 
BRANCH  24  25
ATOM     25  C   UNL     1       7.593  -2.544  -0.868  0.00  0.00    +0.000 A 
ATOM     26  C   UNL     1       7.831  -1.186  -1.149  0.00  0.00    +0.000 A 
ATOM     27  C   UNL     1       8.874  -0.800  -1.992  0.00  0.00    +0.000 A 
ATOM     28  C   UNL     1       9.708  -1.763  -2.552  0.00  0.00    +0.000 A 
ATOM     29  C   UNL     1       9.514  -3.109  -2.251  0.00  0.00    +0.000 A 
ATOM     30  C   UNL     1       8.467  -3.497  -1.413  0.00  0.00    +0.000 A 
ENDBRANCH  24  25
BRANCH  24  31
ATOM     31  O   UNL     1       6.370  -4.347   0.226  0.00  0.00    +0.000 OA
ATOM     32  H   UNL     1       5.865  -4.759  -0.491  0.00  0.00    +0.000 HD
ENDBRANCH  24  31
ENDBRANCH  22  24
ENDBRANCH   2  18
TORSDOF 6
