REMARK  Name = 
REMARK  5 active torsions:
REMARK  status: ('A' for Active; 'I' for Inactive)
REMARK    1  A    between atoms: C_1  and  C_2
REMARK    2  A    between atoms: C_5  and  C_6
REMARK    3  A    between atoms: C_15  and  C_17
REMARK    4  A    between atoms: C_17  and  C_18
REMARK    5  A    between atoms: N_20  and  C_21
REMARK                            x       y       z     vdW  Elec       q    Type
REMARK                         _______ _______ _______ _____ _____    ______ ____
ROOT
ATOM      1  C   UNL     1      -1.907  -1.367   2.602  0.00  0.00    +0.000 C 
ATOM      2  C   UNL     1      -0.926  -0.996   1.535  0.00  0.00    +0.000 A 
ATOM      3  N   UNL     1      -1.051   0.229   1.018  0.00  0.00    +0.000 NA
ATOM      4  C   UNL     1      -0.110   0.582   0.122  0.00  0.00    +0.000 A 
ATOM      5  C   UNL     1       0.988  -0.180  -0.265  0.00  0.00    +0.000 A 
ATOM      6  C   UNL     1       0.985  -1.449   0.321  0.00  0.00    +0.000 A 
ATOM      7  N   UNL     1       1.912  -2.460  -0.042  0.00  0.00    +0.000 N 
ATOM      8  C   UNL     1       3.198  -2.480   0.498  0.00  0.00    +0.000 C 
ATOM      9  O   UNL     1       3.633  -1.627   1.264  0.00  0.00    +0.000 OA
ATOM     10  N   UNL     1       0.023  -1.885   1.175  0.00  0.00    +0.000 NA
ATOM     11  H   UNL     1       1.472  -3.374   0.003  0.00  0.00    +0.000 HD
ENDROOT
BRANCH   5  12
ATOM     12  C   UNL     1       1.920   0.369  -1.275  0.00  0.00    +0.000 A 
ATOM     13  C   UNL     1       2.196   1.756  -1.313  0.00  0.00    +0.000 A 
ATOM     14  C   UNL     1       2.994   2.331  -2.304  0.00  0.00    +0.000 A 
ATOM     15  C   UNL     1       3.569   1.513  -3.263  0.00  0.00    +0.000 A 
ATOM     16  F   UNL     1       4.343   2.050  -4.212  0.00  0.00    +0.000 F 
ATOM     17  C   UNL     1       3.342   0.144  -3.255  0.00  0.00    +0.000 A 
ATOM     18  C   UNL     1       2.509  -0.420  -2.279  0.00  0.00    +0.000 A 
ENDBRANCH   5  12
BRANCH   8  19
ATOM     19  C   UNL     1       4.030  -3.729   0.075  0.00  0.00    +0.000 C 
BRANCH  19  20
ATOM     20  C   UNL     1       5.438  -3.503  -0.459  0.00  0.00    +0.000 A 
ATOM     21  C   UNL     1       5.970  -2.283  -0.629  0.00  0.00    +0.000 A 
ATOM     22  N   UNL     1       7.245  -2.048  -1.114  0.00  0.00    +0.000 N 
ATOM     23  C   UNL     1       7.686  -0.689  -1.365  0.00  0.00    +0.000 C 
ATOM     24  C   UNL     1       8.157  -3.074  -1.333  0.00  0.00    +0.000 A 
ATOM     25  O   UNL     1       9.332  -2.880  -1.652  0.00  0.00    +0.000 OA
ATOM     26  C   UNL     1       7.645  -4.452  -1.204  0.00  0.00    +0.000 A 
ATOM     27  C   UNL     1       8.506  -5.513  -1.532  0.00  0.00    +0.000 A 
ATOM     28  C   UNL     1       8.033  -6.814  -1.536  0.00  0.00    +0.000 A 
ATOM     29  C   UNL     1       6.701  -7.056  -1.213  0.00  0.00    +0.000 A 
ATOM     30  C   UNL     1       5.851  -5.993  -0.845  0.00  0.00    +0.000 A 
ATOM     31  C   UNL     1       6.302  -4.668  -0.828  0.00  0.00    +0.000 A 
ENDBRANCH  19  20
ENDBRANCH   8  19
TORSDOF 3
