REMARK  Name = 
REMARK  6 active torsions:
REMARK  status: ('A' for Active; 'I' for Inactive)
REMARK    1  A    between atoms: C_1  and  C_2
REMARK    2  A    between atoms: C_2  and  C_3
REMARK    3  A    between atoms: C_2  and  C_17
REMARK    4  A    between atoms: N_8  and  C_9
REMARK    5  A    between atoms: C_21  and  C_22
REMARK    6  A    between atoms: C_22  and  C_24
REMARK                            x       y       z     vdW  Elec       q    Type
REMARK                         _______ _______ _______ _____ _____    ______ ____
ROOT
ATOM      1  C   UNL     1       1.036  -0.204   0.007  0.00  0.00    +0.000 C 
ATOM      2  C   UNL     1       2.548   0.034  -0.005  0.00  0.00    +0.000 C 
ENDROOT
BRANCH   2   3
ATOM      3  C   UNL     1       3.185  -0.400  -1.330  0.00  0.00    +0.000 C 
ATOM      4  O   UNL     1       3.977  -1.341  -1.326  0.00  0.00    +0.000 OA
ATOM      5  N   UNL     1       2.784   0.327  -2.441  0.00  0.00    +0.000 N 
ATOM      6  C   UNL     1       3.238   0.071  -3.722  0.00  0.00    +0.000 A 
ATOM      7  N   UNL     1       4.071  -0.911  -4.053  0.00  0.00    +0.000 NA
ATOM      8  N   UNL     1       4.248  -0.752  -5.381  0.00  0.00    +0.000 N 
ATOM      9  N   UNL     1       3.555   0.270  -5.952  0.00  0.00    +0.000 NA
ATOM     10  C   UNL     1       2.908   0.779  -4.897  0.00  0.00    +0.000 A 
ATOM     11  H   UNL     1       2.182   1.129  -2.321  0.00  0.00    +0.000 HD
BRANCH   8  12
ATOM     12  C   UNL     1       5.099  -1.606  -6.112  0.00  0.00    +0.000 A 
ATOM     13  C   UNL     1       5.739  -2.684  -5.489  0.00  0.00    +0.000 A 
ATOM     14  C   UNL     1       6.574  -3.504  -6.242  0.00  0.00    +0.000 A 
ATOM     15  C   UNL     1       6.743  -3.211  -7.588  0.00  0.00    +0.000 A 
ATOM     16  N   UNL     1       6.139  -2.175  -8.213  0.00  0.00    +0.000 NA
ATOM     17  C   UNL     1       5.324  -1.393  -7.462  0.00  0.00    +0.000 A 
ENDBRANCH   8  12
ENDBRANCH   2   3
BRANCH   2  18
ATOM     18  C   UNL     1       2.954   1.440   0.402  0.00  0.00    +0.000 A 
ATOM     19  C   UNL     1       4.186   1.644   1.045  0.00  0.00    +0.000 A 
ATOM     20  C   UNL     1       4.581   2.923   1.442  0.00  0.00    +0.000 A 
ATOM     21  C   UNL     1       3.759   4.021   1.186  0.00  0.00    +0.000 A 
ATOM     22  C   UNL     1       2.529   3.835   0.551  0.00  0.00    +0.000 A 
ATOM     23  C   UNL     1       2.138   2.552   0.154  0.00  0.00    +0.000 A 
BRANCH  22  24
ATOM     24  C   UNL     1       1.614   4.960   0.230  0.00  0.00    +0.000 C 
ATOM     25  O   UNL     1       0.910   4.877  -0.779  0.00  0.00    +0.000 OA
BRANCH  24  26
ATOM     26  C   UNL     1       1.532   6.169   1.083  0.00  0.00    +0.000 A 
ATOM     27  C   UNL     1       1.729   6.114   2.469  0.00  0.00    +0.000 A 
ATOM     28  C   UNL     1       1.661   7.283   3.231  0.00  0.00    +0.000 A 
ATOM     29  C   UNL     1       1.371   8.499   2.615  0.00  0.00    +0.000 A 
ATOM     30  C   UNL     1       1.143   8.555   1.240  0.00  0.00    +0.000 A 
ATOM     31  C   UNL     1       1.218   7.390   0.474  0.00  0.00    +0.000 A 
ENDBRANCH  24  26
ENDBRANCH  22  24
ENDBRANCH   2  18
TORSDOF 5
