REMARK  Name = 
REMARK  6 active torsions:
REMARK  status: ('A' for Active; 'I' for Inactive)
REMARK    1  A    between atoms: C_2  and  C_22
REMARK    2  A    between atoms: N_3  and  C_4
REMARK    3  A    between atoms: C_9  and  C_10
REMARK    4  A    between atoms: N_12  and  C_13
REMARK    5  A    between atoms: C_22  and  O_23
REMARK    6  A    between atoms: C_22  and  C_24
REMARK                            x       y       z     vdW  Elec       q    Type
REMARK                         _______ _______ _______ _____ _____    ______ ____
ROOT
ATOM      1  C   UNL     1       2.013   2.483  -0.599  0.00  0.00    +0.000 A 
ATOM      2  C   UNL     1       0.981   2.892   0.252  0.00  0.00    +0.000 A 
ATOM      3  C   UNL     1       0.409   4.160   0.141  0.00  0.00    +0.000 A 
ATOM      4  C   UNL     1       0.868   5.039  -0.822  0.00  0.00    +0.000 A 
ATOM      5  F   UNL     1       0.269   6.237  -0.916  0.00  0.00    +0.000 F 
ATOM      6  C   UNL     1       1.915   4.680  -1.676  0.00  0.00    +0.000 A 
ATOM      7  C   UNL     1       2.493   3.401  -1.545  0.00  0.00    +0.000 A 
ENDROOT
BRANCH   6   8
ATOM      8  C   UNL     1       2.357   5.557  -2.733  0.00  0.00    +0.000 A 
ATOM      9  C   UNL     1       1.576   6.475  -3.393  0.00  0.00    +0.000 A 
ATOM     10  N   UNL     1       2.366   6.934  -4.414  0.00  0.00    +0.000 N 
ATOM     11  N   UNL     1       3.595   6.367  -4.329  0.00  0.00    +0.000 NA
ATOM     12  N   UNL     1       3.594   5.518  -3.310  0.00  0.00    +0.000 NA
BRANCH  10  13
ATOM     13  C   UNL     1       2.006   7.806  -5.463  0.00  0.00    +0.000 A 
ATOM     14  C   UNL     1       0.734   8.369  -5.517  0.00  0.00    +0.000 A 
ATOM     15  C   UNL     1       0.432   9.193  -6.589  0.00  0.00    +0.000 A 
ATOM     16  N   UNL     1       1.300   9.469  -7.585  0.00  0.00    +0.000 NA
ATOM     17  C   UNL     1       2.525   8.907  -7.507  0.00  0.00    +0.000 A 
ATOM     18  C   UNL     1       2.929   8.085  -6.473  0.00  0.00    +0.000 A 
ENDBRANCH  10  13
ENDBRANCH   6   8
BRANCH   1  21
ATOM     19  O   UNL     1       1.336   0.197   1.143  0.00  0.00    +0.000 OA
ATOM     20  C   UNL     1       2.202   0.135   0.272  0.00  0.00    +0.000 C 
ATOM     21  N   UNL     1       2.577   1.178  -0.575  0.00  0.00    +0.000 N 
ATOM     22  H   UNL     1       3.294   0.983  -1.264  0.00  0.00    +0.000 HD
BRANCH  20  23
ATOM     23  C   UNL     1       2.976  -1.198   0.065  0.00  0.00    +0.000 C 
BRANCH  23  24
ATOM     24  C   UNL     1       2.417  -2.089  -1.030  0.00  0.00    +0.000 A 
ATOM     25  C   UNL     1       3.268  -2.977  -1.714  0.00  0.00    +0.000 A 
ATOM     26  C   UNL     1       2.787  -3.774  -2.757  0.00  0.00    +0.000 A 
ATOM     27  C   UNL     1       1.437  -3.737  -3.099  0.00  0.00    +0.000 A 
ATOM     28  C   UNL     1       0.566  -2.924  -2.378  0.00  0.00    +0.000 A 
ATOM     29  C   UNL     1       1.050  -2.107  -1.353  0.00  0.00    +0.000 A 
ENDBRANCH  23  24
BRANCH  23  30
ATOM     30  O   UNL     1       2.972  -1.961   1.271  0.00  0.00    +0.000 OA
ATOM     31  H   UNL     1       2.041  -1.974   1.568  0.00  0.00    +0.000 HD
ENDBRANCH  23  30
ENDBRANCH  20  23
ENDBRANCH   1  21
TORSDOF 6
