REMARK  Name = 
REMARK  7 active torsions:
REMARK  status: ('A' for Active; 'I' for Inactive)
REMARK    1  A    between atoms: C_2  and  C_3
REMARK    2  A    between atoms: C_5  and  C_6
REMARK    3  A    between atoms: C_6  and  C_7
REMARK    4  A    between atoms: C_12  and  C_14
REMARK    5  A    between atoms: C_14  and  N_15
REMARK    6  A    between atoms: C_16  and  C_18
REMARK    7  A    between atoms: C_19  and  O_20
REMARK                            x       y       z     vdW  Elec       q    Type
REMARK                         _______ _______ _______ _____ _____    ______ ____
ROOT
ATOM      1  C   UNL     1       1.003  -3.602   0.038  0.00  0.00    +0.000 A 
ATOM      2  C   UNL     1       0.508  -3.989  -1.192  0.00  0.00    +0.000 A 
ATOM      3  N   UNL     1      -0.232  -5.149  -1.202  0.00  0.00    +0.000 NA
ATOM      4  C   UNL     1      -0.303  -5.637   0.009  0.00  0.00    +0.000 A 
ATOM      5  N   UNL     1      -1.002  -6.733   0.442  0.00  0.00    +0.000 N 
ATOM      6  C   UNL     1      -1.986  -7.297  -0.343  0.00  0.00    +0.000 C 
ATOM      7  O   UNL     1      -2.433  -6.855  -1.399  0.00  0.00    +0.000 OA
ATOM      8  S   UNL     1       0.585  -4.799   1.207  0.00  0.00    +0.000 S 
ATOM      9  H   UNL     1      -0.914  -7.003   1.414  0.00  0.00    +0.000 HD
ENDROOT
BRANCH   1  10
ATOM     10  C   UNL     1       1.724  -2.342   0.397  0.00  0.00    +0.000 C 
BRANCH  10  13
ATOM     11  C   UNL     1       5.443  -2.771   1.159  0.00  0.00    +0.000 A 
ATOM     12  C   UNL     1       4.050  -2.744   1.305  0.00  0.00    +0.000 A 
ATOM     13  C   UNL     1       3.224  -2.411   0.221  0.00  0.00    +0.000 A 
ATOM     14  C   UNL     1       3.817  -2.122  -1.018  0.00  0.00    +0.000 A 
ATOM     15  C   UNL     1       5.206  -2.150  -1.166  0.00  0.00    +0.000 A 
ATOM     16  C   UNL     1       6.019  -2.470  -0.079  0.00  0.00    +0.000 A 
BRANCH  11  18
ATOM     17  N   UNL     1       6.947  -3.349   3.192  0.00  0.00    +0.000 NA
ATOM     18  C   UNL     1       6.276  -3.092   2.280  0.00  0.00    +0.000 C 
ENDBRANCH  11  18
ENDBRANCH  10  13
ENDBRANCH   1  10
BRANCH   6  19
ATOM     19  C   UNL     1      -2.648  -8.519   0.288  0.00  0.00    +0.000 C 
BRANCH  19  20
ATOM     20  N   UNL     1      -3.803  -8.114   1.076  0.00  0.00    +0.000 N 
ATOM     21  C   UNL     1      -3.641  -7.756   2.393  0.00  0.00    +0.000 C 
ATOM     22  O   UNL     1      -2.535  -7.750   2.936  0.00  0.00    +0.000 OA
ATOM     23  H   UNL     1      -4.609  -7.780   0.556  0.00  0.00    +0.000 HD
BRANCH  21  24
ATOM     24  C   UNL     1      -4.826  -7.308   3.157  0.00  0.00    +0.000 A 
ATOM     25  C   UNL     1      -4.680  -6.503   4.288  0.00  0.00    +0.000 A 
ATOM     26  C   UNL     1      -5.795  -6.111   5.049  0.00  0.00    +0.000 A 
ATOM     27  C   UNL     1      -5.694  -5.297   6.199  0.00  0.00    +0.000 A 
ATOM     28  C   UNL     1      -6.821  -4.982   6.950  0.00  0.00    +0.000 A 
ATOM     29  C   UNL     1      -8.062  -5.464   6.558  0.00  0.00    +0.000 A 
ATOM     30  C   UNL     1      -8.167  -6.253   5.402  0.00  0.00    +0.000 A 
ATOM     31  C   UNL     1      -7.057  -6.585   4.637  0.00  0.00    +0.000 A 
ATOM     32  N   UNL     1      -7.214  -7.360   3.545  0.00  0.00    +0.000 NA
ATOM     33  C   UNL     1      -6.111  -7.708   2.837  0.00  0.00    +0.000 A 
BRANCH  25  34
ATOM     34  O   UNL     1      -3.435  -6.079   4.710  0.00  0.00    +0.000 OA
ATOM     35  H   UNL     1      -2.755  -6.622   4.254  0.00  0.00    +0.000 HD
ENDBRANCH  25  34
ENDBRANCH  21  24
ENDBRANCH  19  20
ENDBRANCH   6  19
TORSDOF 7
