REMARK  Name = 
REMARK  4 active torsions:
REMARK  status: ('A' for Active; 'I' for Inactive)
REMARK    1  A    between atoms: C_2  and  C_4
REMARK    2  A    between atoms: C_4  and  N_5
REMARK    3  A    between atoms: C_4  and  C_20
REMARK    4  A    between atoms: N_8  and  C_9
REMARK                            x       y       z     vdW  Elec       q    Type
REMARK                         _______ _______ _______ _____ _____    ______ ____
ROOT
ATOM      1  N   UNL     1       2.817   0.918   2.146  0.00  0.00    +0.000 N 
ATOM      2  C   UNL     1       1.782   1.735   2.505  0.00  0.00    +0.000 C 
ATOM      3  O   UNL     1       1.219   2.424   1.663  0.00  0.00    +0.000 OA
ATOM      4  N   UNL     1       1.421   1.645   3.831  0.00  0.00    +0.000 N 
ATOM      5  H   UNL     1       3.374   0.431   2.830  0.00  0.00    +0.000 HD
ATOM      6  H   UNL     1       2.103   1.274   4.476  0.00  0.00    +0.000 HD
ENDROOT
BRANCH   4   7
ATOM      7  C   UNL     1       0.293   2.317   4.377  0.00  0.00    +0.000 A 
ATOM      8  C   UNL     1      -0.738   2.835   3.599  0.00  0.00    +0.000 A 
ATOM      9  N   UNL     1      -1.786   3.543   4.075  0.00  0.00    +0.000 NA
ATOM     10  C   UNL     1      -1.843   3.788   5.393  0.00  0.00    +0.000 A 
ATOM     11  C   UNL     1      -2.864   4.587   5.908  0.00  0.00    +0.000 A 
ATOM     12  F   UNL     1      -3.782   5.114   5.083  0.00  0.00    +0.000 F 
ATOM     13  C   UNL     1      -2.960   4.885   7.265  0.00  0.00    +0.000 A 
ATOM     14  C   UNL     1      -2.026   4.363   8.147  0.00  0.00    +0.000 A 
ATOM     15  C   UNL     1      -0.996   3.550   7.664  0.00  0.00    +0.000 A 
ATOM     16  C   UNL     1      -0.883   3.267   6.286  0.00  0.00    +0.000 A 
ATOM     17  C   UNL     1       0.180   2.498   5.756  0.00  0.00    +0.000 A 
ENDBRANCH   4   7
BRANCH   1  18
ATOM     18  C   UNL     1       3.271   0.916   0.746  0.00  0.00    +0.000 C 
BRANCH  18  19
ATOM     19  C   UNL     1       4.776   0.730   0.694  0.00  0.00    +0.000 A 
ATOM     20  C   UNL     1       5.603   1.847   0.891  0.00  0.00    +0.000 A 
ATOM     21  C   UNL     1       6.992   1.713   0.910  0.00  0.00    +0.000 A 
ATOM     22  C   UNL     1       7.590   0.459   0.734  0.00  0.00    +0.000 A 
ATOM     23  C   UNL     1       8.984   0.303   0.778  0.00  0.00    +0.000 A 
ATOM     24  C   UNL     1       9.566  -0.952   0.598  0.00  0.00    +0.000 A 
ATOM     25  C   UNL     1       8.763  -2.063   0.357  0.00  0.00    +0.000 A 
ATOM     26  C   UNL     1       7.375  -1.924   0.312  0.00  0.00    +0.000 A 
ATOM     27  C   UNL     1       6.772  -0.672   0.512  0.00  0.00    +0.000 A 
ATOM     28  C   UNL     1       5.375  -0.524   0.502  0.00  0.00    +0.000 A 
ENDBRANCH  18  19
BRANCH  18  30
ATOM     29  N   UNL     1       1.575  -0.894   0.499  0.00  0.00    +0.000 N 
ATOM     30  C   UNL     1       2.474  -0.081  -0.140  0.00  0.00    +0.000 C 
ATOM     31  O   UNL     1       2.647  -0.210  -1.350  0.00  0.00    +0.000 OA
ATOM     32  H   UNL     1       0.972  -1.438  -0.106  0.00  0.00    +0.000 HD
ATOM     33  H   UNL     1       1.197  -0.599   1.389  0.00  0.00    +0.000 HD
ENDBRANCH  18  30
ENDBRANCH   1  18
TORSDOF 4
