REMARK  Name = 
REMARK  5 active torsions:
REMARK  status: ('A' for Active; 'I' for Inactive)
REMARK    1  A    between atoms: C_2  and  C_20
REMARK    2  A    between atoms: N_3  and  C_4
REMARK    3  A    between atoms: C_4  and  C_5
REMARK    4  A    between atoms: C_7  and  O_8
REMARK    5  A    between atoms: O_8  and  C_9
REMARK                            x       y       z     vdW  Elec       q    Type
REMARK                         _______ _______ _______ _____ _____    ______ ____
ROOT
ATOM      1  O   UNL     1       3.134  -0.239   2.142  0.00  0.00    +0.000 OA
ATOM      2  C   UNL     1       3.352  -0.202   0.932  0.00  0.00    +0.000 C 
ATOM      3  N   UNL     1       2.982  -1.210   0.070  0.00  0.00    +0.000 N 
ATOM      4  H   UNL     1       3.377  -1.250  -0.860  0.00  0.00    +0.000 HD
ENDROOT
BRANCH   2   5
ATOM      5  C   UNL     1       4.097   0.933   0.277  0.00  0.00    +0.000 A 
ATOM      6  C   UNL     1       3.711   1.258  -0.971  0.00  0.00    +0.000 A 
ATOM      7  C   UNL     1       4.424   2.263  -1.778  0.00  0.00    +0.000 A 
ATOM      8  O   UNL     1       4.071   2.500  -2.930  0.00  0.00    +0.000 OA
ATOM      9  N   UNL     1       5.495   2.868  -1.202  0.00  0.00    +0.000 N 
ATOM     10  C   UNL     1       5.916   2.612   0.105  0.00  0.00    +0.000 A 
ATOM     11  C   UNL     1       7.047   3.285   0.580  0.00  0.00    +0.000 A 
ATOM     12  C   UNL     1       7.480   3.058   1.881  0.00  0.00    +0.000 A 
ATOM     13  C   UNL     1       6.752   2.204   2.699  0.00  0.00    +0.000 A 
ATOM     14  F   UNL     1       7.159   2.005   3.959  0.00  0.00    +0.000 F 
ATOM     15  C   UNL     1       5.620   1.531   2.230  0.00  0.00    +0.000 A 
ATOM     16  C   UNL     1       5.204   1.693   0.904  0.00  0.00    +0.000 A 
ATOM     17  H   UNL     1       5.981   3.543  -1.778  0.00  0.00    +0.000 HD
ENDBRANCH   2   5
BRANCH   3  18
ATOM     18  C   UNL     1       2.276  -2.407   0.488  0.00  0.00    +0.000 C 
BRANCH  18  19
ATOM     19  C   UNL     1       3.234  -3.553   0.720  0.00  0.00    +0.000 A 
ATOM     20  C   UNL     1       3.753  -3.757   1.990  0.00  0.00    +0.000 A 
ATOM     21  C   UNL     1       4.731  -4.732   2.164  0.00  0.00    +0.000 A 
ATOM     22  C   UNL     1       5.089  -5.542   1.095  0.00  0.00    +0.000 A 
ATOM     23  C   UNL     1       4.508  -5.289  -0.134  0.00  0.00    +0.000 A 
ATOM     24  N   UNL     1       3.610  -4.299  -0.351  0.00  0.00    +0.000 NA
BRANCH  21  25
ATOM     25  O   UNL     1       5.354  -4.977   3.367  0.00  0.00    +0.000 OA
BRANCH  25  26
ATOM     26  C   UNL     1       5.625  -3.919   4.209  0.00  0.00    +0.000 A 
ATOM     27  C   UNL     1       5.981  -2.637   3.767  0.00  0.00    +0.000 A 
ATOM     28  C   UNL     1       6.220  -1.617   4.691  0.00  0.00    +0.000 A 
ATOM     29  C   UNL     1       6.144  -1.894   6.050  0.00  0.00    +0.000 A 
ATOM     30  F   UNL     1       6.379  -0.914   6.934  0.00  0.00    +0.000 F 
ATOM     31  C   UNL     1       5.840  -3.177   6.490  0.00  0.00    +0.000 A 
ATOM     32  F   UNL     1       5.793  -3.444   7.802  0.00  0.00    +0.000 F 
ATOM     33  C   UNL     1       5.581  -4.195   5.577  0.00  0.00    +0.000 A 
ENDBRANCH  25  26
ENDBRANCH  21  25
ENDBRANCH  18  19
ENDBRANCH   3  18
TORSDOF 5
