REMARK  Name = 
REMARK  5 active torsions:
REMARK  status: ('A' for Active; 'I' for Inactive)
REMARK    1  A    between atoms: C_2  and  C_17
REMARK    2  A    between atoms: N_3  and  C_4
REMARK    3  A    between atoms: C_9  and  C_10
REMARK    4  A    between atoms: N_19  and  C_20
REMARK    5  A    between atoms: C_29  and  O_30
REMARK                            x       y       z     vdW  Elec       q    Type
REMARK                         _______ _______ _______ _____ _____    ______ ____
ROOT
ATOM      1  O   UNL     1       1.019  -0.297   0.067  0.00  0.00    +0.000 OA
ATOM      2  C   UNL     1       2.230  -0.142  -0.039  0.00  0.00    +0.000 C 
ATOM      3  N   UNL     1       2.883   1.049  -0.328  0.00  0.00    +0.000 N 
ATOM      4  H   UNL     1       3.834   0.961  -0.672  0.00  0.00    +0.000 HD
ENDROOT
BRANCH   3   5
ATOM      5  C   UNL     1       2.230   2.304  -0.431  0.00  0.00    +0.000 A 
ATOM      6  C   UNL     1       0.985   2.534   0.160  0.00  0.00    +0.000 A 
ATOM      7  C   UNL     1       0.325   3.745  -0.021  0.00  0.00    +0.000 A 
ATOM      8  C   UNL     1       0.909   4.736  -0.797  0.00  0.00    +0.000 A 
ATOM      9  F   UNL     1       0.192   5.856  -0.989  0.00  0.00    +0.000 F 
ATOM     10  C   UNL     1       2.183   4.585  -1.374  0.00  0.00    +0.000 A 
ATOM     11  C   UNL     1       2.839   3.345  -1.156  0.00  0.00    +0.000 A 
BRANCH  10  12
ATOM     12  C   UNL     1       2.790   5.667  -2.196  0.00  0.00    +0.000 A 
ATOM     13  C   UNL     1       2.553   7.027  -1.913  0.00  0.00    +0.000 A 
ATOM     14  C   UNL     1       3.068   8.052  -2.712  0.00  0.00    +0.000 A 
ATOM     15  C   UNL     1       3.861   7.744  -3.809  0.00  0.00    +0.000 A 
ATOM     16  C   UNL     1       4.133   6.411  -4.106  0.00  0.00    +0.000 A 
ATOM     17  C   UNL     1       3.599   5.387  -3.313  0.00  0.00    +0.000 A 
ENDBRANCH  10  12
ENDBRANCH   3   5
BRANCH   2  18
ATOM     18  C   UNL     1       3.117  -1.383   0.028  0.00  0.00    +0.000 A 
ATOM     19  N   UNL     1       4.145  -1.454  -0.766  0.00  0.00    +0.000 NA
ATOM     20  N   UNL     1       4.815  -2.679  -0.839  0.00  0.00    +0.000 N 
ATOM     21  C   UNL     1       4.415  -3.815  -0.120  0.00  0.00    +0.000 A 
ATOM     22  O   UNL     1       4.918  -4.937  -0.143  0.00  0.00    +0.000 OA
ATOM     23  C   UNL     1       3.301  -3.631   0.829  0.00  0.00    +0.000 A 
ATOM     24  C   UNL     1       2.677  -2.463   0.950  0.00  0.00    +0.000 A 
BRANCH  20  25
ATOM     25  C   UNL     1       5.860  -2.716  -1.825  0.00  0.00    +0.000 A 
ATOM     26  C   UNL     1       6.274  -3.914  -2.430  0.00  0.00    +0.000 A 
ATOM     27  C   UNL     1       7.274  -3.931  -3.408  0.00  0.00    +0.000 A 
ATOM     28  C   UNL     1       7.893  -2.747  -3.792  0.00  0.00    +0.000 A 
ATOM     29  C   UNL     1       7.509  -1.548  -3.201  0.00  0.00    +0.000 A 
ATOM     30  C   UNL     1       6.495  -1.532  -2.235  0.00  0.00    +0.000 A 
ENDBRANCH  20  25
BRANCH  24  31
ATOM     31  O   UNL     1       1.680  -2.244   1.877  0.00  0.00    +0.000 OA
ATOM     32  H   UNL     1       1.414  -3.090   2.277  0.00  0.00    +0.000 HD
ENDBRANCH  24  31
ENDBRANCH   2  18
TORSDOF 5
