REMARK  Name = 
REMARK  8 active torsions:
REMARK  status: ('A' for Active; 'I' for Inactive)
REMARK    1  A    between atoms: C_2  and  C_4
REMARK    2  A    between atoms: C_4  and  N_5
REMARK    3  A    between atoms: N_5  and  C_6
REMARK    4  A    between atoms: C_6  and  C_7
REMARK    5  A    between atoms: C_10  and  C_11
REMARK    6  A    between atoms: C_19  and  C_21
REMARK    7  A    between atoms: N_23  and  C_24
REMARK    8  A    between atoms: C_32  and  O_33
REMARK                            x       y       z     vdW  Elec       q    Type
REMARK                         _______ _______ _______ _____ _____    ______ ____
ROOT
ATOM      1  N   UNL     1       4.778  -0.773  -0.811  0.00  0.00    +0.000 N 
ATOM      2  C   UNL     1       5.657  -1.424  -1.693  0.00  0.00    +0.000 C 
ATOM      3  O   UNL     1       5.189  -2.088  -2.623  0.00  0.00    +0.000 OA
ENDROOT
BRANCH   2   4
ATOM      4  C   UNL     1       7.123  -1.345  -1.494  0.00  0.00    +0.000 A 
ATOM      5  N   UNL     1       7.716  -1.125  -0.303  0.00  0.00    +0.000 NA
ATOM      6  N   UNL     1       9.049  -1.091  -0.545  0.00  0.00    +0.000 N 
ATOM      7  C   UNL     1       9.328  -1.359  -1.868  0.00  0.00    +0.000 A 
ATOM      8  C   UNL     1       8.117  -1.528  -2.481  0.00  0.00    +0.000 A 
BRANCH   6   9
ATOM      9  C   UNL     1       9.971  -0.789   0.496  0.00  0.00    +0.000 A 
ATOM     10  C   UNL     1       9.498  -0.558   1.800  0.00  0.00    +0.000 A 
ATOM     11  C   UNL     1      10.387  -0.258   2.837  0.00  0.00    +0.000 A 
ATOM     12  C   UNL     1      11.754  -0.185   2.580  0.00  0.00    +0.000 A 
ATOM     13  C   UNL     1      12.218  -0.411   1.290  0.00  0.00    +0.000 A 
ATOM     14  F   UNL     1      13.533  -0.342   1.042  0.00  0.00    +0.000 F 
ATOM     15  C   UNL     1      11.346  -0.710   0.246  0.00  0.00    +0.000 A 
ENDBRANCH   6   9
BRANCH   8  16
ATOM     16  O   UNL     1       7.966  -1.784  -3.791  0.00  0.00    +0.000 OA
ATOM     17  H   UNL     1       8.825  -1.900  -4.229  0.00  0.00    +0.000 HD
ENDBRANCH   8  16
ENDBRANCH   2   4
BRANCH   1  18
ATOM     18  C   UNL     1       5.204   0.123   0.269  0.00  0.00    +0.000 C 
BRANCH  18  19
ATOM     19  C   UNL     1       5.259  -0.522   1.636  0.00  0.00    +0.000 A 
ATOM     20  C   UNL     1       4.880  -1.846   1.864  0.00  0.00    +0.000 A 
ATOM     21  C   UNL     1       4.842  -2.377   3.155  0.00  0.00    +0.000 A 
ATOM     22  C   UNL     1       5.220  -1.620   4.273  0.00  0.00    +0.000 A 
ATOM     23  C   UNL     1       5.672  -0.311   4.025  0.00  0.00    +0.000 A 
ATOM     24  C   UNL     1       5.678   0.235   2.735  0.00  0.00    +0.000 A 
BRANCH  22  25
ATOM     25  C   UNL     1       5.133  -2.175   5.646  0.00  0.00    +0.000 A 
ATOM     26  C   UNL     1       5.266  -3.554   5.899  0.00  0.00    +0.000 A 
ATOM     27  C   UNL     1       5.179  -4.075   7.194  0.00  0.00    +0.000 A 
ATOM     28  C   UNL     1       4.970  -3.225   8.274  0.00  0.00    +0.000 A 
ATOM     29  C   UNL     1       4.826  -1.859   8.057  0.00  0.00    +0.000 A 
ATOM     30  C   UNL     1       4.896  -1.345   6.758  0.00  0.00    +0.000 A 
ENDBRANCH  22  25
ENDBRANCH  18  19
ENDBRANCH   1  18
BRANCH   1  31
ATOM     31  C   UNL     1       3.349  -0.749  -1.165  0.00  0.00    +0.000 C 
BRANCH  31  33
ATOM     32  N   UNL     1       3.157  -3.227  -0.928  0.00  0.00    +0.000 N 
ATOM     33  C   UNL     1       2.512  -2.039  -1.099  0.00  0.00    +0.000 C 
ATOM     34  O   UNL     1       1.289  -2.028  -1.232  0.00  0.00    +0.000 OA
ATOM     35  H   UNL     1       2.560  -4.040  -1.014  0.00  0.00    +0.000 HD
ATOM     36  H   UNL     1       4.074  -3.314  -1.355  0.00  0.00    +0.000 HD
ENDBRANCH  31  33
ENDBRANCH   1  31
TORSDOF 8
