REMARK  Name = 
REMARK  5 active torsions:
REMARK  status: ('A' for Active; 'I' for Inactive)
REMARK    1  A    between atoms: C_2  and  C_17
REMARK    2  A    between atoms: N_3  and  C_4
REMARK    3  A    between atoms: C_9  and  O_10
REMARK    4  A    between atoms: O_10  and  C_11
REMARK    5  A    between atoms: N_19  and  C_20
REMARK                            x       y       z     vdW  Elec       q    Type
REMARK                         _______ _______ _______ _____ _____    ______ ____
ROOT
ATOM      1  O   UNL     1       1.304   0.554  -1.267  0.00  0.00    +0.000 OA
ATOM      2  C   UNL     1       2.429   0.458  -0.801  0.00  0.00    +0.000 C 
ATOM      3  N   UNL     1       3.003   1.305   0.147  0.00  0.00    +0.000 N 
ATOM      4  H   UNL     1       4.011   1.281   0.261  0.00  0.00    +0.000 HD
ENDROOT
BRANCH   2   5
ATOM      5  C   UNL     1       3.297  -0.641  -1.362  0.00  0.00    +0.000 A 
ATOM      6  N   UNL     1       4.577  -0.412  -1.452  0.00  0.00    +0.000 NA
ATOM      7  N   UNL     1       5.349  -1.376  -2.073  0.00  0.00    +0.000 N 
ATOM      8  C   UNL     1       4.778  -2.390  -2.828  0.00  0.00    +0.000 A 
ATOM      9  C   UNL     1       3.487  -2.725  -2.804  0.00  0.00    +0.000 A 
ATOM     10  C   UNL     1       2.686  -1.944  -1.855  0.00  0.00    +0.000 A 
ATOM     11  O   UNL     1       1.603  -2.345  -1.457  0.00  0.00    +0.000 OA
BRANCH   7  12
ATOM     12  C   UNL     1       6.758  -1.229  -1.885  0.00  0.00    +0.000 A 
ATOM     13  C   UNL     1       7.297   0.017  -1.499  0.00  0.00    +0.000 A 
ATOM     14  C   UNL     1       8.658   0.182  -1.240  0.00  0.00    +0.000 A 
ATOM     15  C   UNL     1       9.528  -0.895  -1.365  0.00  0.00    +0.000 A 
ATOM     16  C   UNL     1       9.031  -2.136  -1.758  0.00  0.00    +0.000 A 
ATOM     17  C   UNL     1       7.668  -2.295  -2.012  0.00  0.00    +0.000 A 
ATOM     18  F   UNL     1       7.250  -3.529  -2.336  0.00  0.00    +0.000 F 
ENDBRANCH   7  12
ENDBRANCH   2   5
BRANCH   3  19
ATOM     19  C   UNL     1       2.260   2.266   0.895  0.00  0.00    +0.000 A 
ATOM     20  C   UNL     1       0.864   2.203   0.980  0.00  0.00    +0.000 A 
ATOM     21  N   UNL     1       0.074   3.061   1.672  0.00  0.00    +0.000 NA
ATOM     22  C   UNL     1       0.695   4.015   2.378  0.00  0.00    +0.000 A 
ATOM     23  C   UNL     1       2.068   4.143   2.425  0.00  0.00    +0.000 A 
ATOM     24  C   UNL     1       2.865   3.308   1.619  0.00  0.00    +0.000 A 
BRANCH  24  25
ATOM     25  O   UNL     1       4.233   3.543   1.512  0.00  0.00    +0.000 OA
BRANCH  25  26
ATOM     26  C   UNL     1       4.640   4.873   1.549  0.00  0.00    +0.000 A 
ATOM     27  C   UNL     1       5.746   5.214   2.332  0.00  0.00    +0.000 A 
ATOM     28  C   UNL     1       6.120   6.559   2.467  0.00  0.00    +0.000 A 
ATOM     29  C   UNL     1       5.389   7.562   1.828  0.00  0.00    +0.000 A 
ATOM     30  C   UNL     1       4.308   7.222   1.019  0.00  0.00    +0.000 A 
ATOM     31  C   UNL     1       3.957   5.881   0.852  0.00  0.00    +0.000 A 
ENDBRANCH  25  26
ENDBRANCH  24  25
ENDBRANCH   3  19
TORSDOF 5
