REMARK  Name = 
REMARK  6 active torsions:
REMARK  status: ('A' for Active; 'I' for Inactive)
REMARK    1  A    between atoms: C_2  and  C_12
REMARK    2  A    between atoms: N_3  and  C_4
REMARK    3  A    between atoms: C_4  and  C_5
REMARK    4  A    between atoms: C_7  and  O_8
REMARK    5  A    between atoms: C_13  and  C_14
REMARK    6  A    between atoms: C_20  and  C_21
REMARK                            x       y       z     vdW  Elec       q    Type
REMARK                         _______ _______ _______ _____ _____    ______ ____
ROOT
ATOM      1  C   UNL     1       3.094  -1.056  -0.709  0.00  0.00    +0.000 A 
ATOM      2  C   UNL     1       4.166  -1.676  -0.155  0.00  0.00    +0.000 A 
ATOM      3  C   UNL     1       4.879  -2.713  -1.016  0.00  0.00    +0.000 A 
ATOM      4  N   UNL     1       4.519  -2.987  -2.238  0.00  0.00    +0.000 NA
ATOM      5  N   UNL     1       3.460  -2.331  -2.750  0.00  0.00    +0.000 N 
ATOM      6  C   UNL     1       2.712  -1.390  -2.108  0.00  0.00    +0.000 A 
ATOM      7  O   UNL     1       1.774  -0.837  -2.680  0.00  0.00    +0.000 OA
ATOM      8  H   UNL     1       3.198  -2.565  -3.705  0.00  0.00    +0.000 HD
ENDROOT
BRANCH   3   9
ATOM      9  C   UNL     1       6.077  -3.478  -0.501  0.00  0.00    +0.000 A 
ATOM     10  C   UNL     1       6.222  -3.896   0.824  0.00  0.00    +0.000 A 
ATOM     11  C   UNL     1       7.376  -4.550   1.267  0.00  0.00    +0.000 A 
ATOM     12  C   UNL     1       8.362  -4.895   0.361  0.00  0.00    +0.000 A 
ATOM     13  C   UNL     1       8.197  -4.583  -0.984  0.00  0.00    +0.000 A 
ATOM     14  C   UNL     1       7.072  -3.864  -1.412  0.00  0.00    +0.000 A 
ENDBRANCH   3   9
BRANCH   2  15
ATOM     15  C   UNL     1       4.656  -1.338   1.199  0.00  0.00    +0.000 A 
ATOM     16  C   UNL     1       4.107  -1.979   2.323  0.00  0.00    +0.000 A 
ATOM     17  C   UNL     1       4.687  -1.821   3.583  0.00  0.00    +0.000 A 
ATOM     18  C   UNL     1       5.778  -0.972   3.741  0.00  0.00    +0.000 A 
ATOM     19  C   UNL     1       6.278  -0.265   2.647  0.00  0.00    +0.000 A 
ATOM     20  C   UNL     1       5.724  -0.448   1.376  0.00  0.00    +0.000 A 
ENDBRANCH   2  15
BRANCH   1  22
ATOM     21  O   UNL     1       2.205  -0.042   1.277  0.00  0.00    +0.000 OA
ATOM     22  C   UNL     1       2.280  -0.044   0.055  0.00  0.00    +0.000 C 
ATOM     23  N   UNL     1       1.586   0.878  -0.696  0.00  0.00    +0.000 N 
ATOM     24  H   UNL     1       1.519   0.745  -1.705  0.00  0.00    +0.000 HD
BRANCH  23  25
ATOM     25  C   UNL     1       0.790   1.917  -0.082  0.00  0.00    +0.000 C 
BRANCH  25  26
ATOM     26  C   UNL     1      -0.673   1.781  -0.389  0.00  0.00    +0.000 A 
ATOM     27  C   UNL     1      -1.392   0.626  -0.065  0.00  0.00    +0.000 A 
ATOM     28  C   UNL     1      -2.760   0.584  -0.317  0.00  0.00    +0.000 A 
ATOM     29  C   UNL     1      -3.369   1.694  -0.878  0.00  0.00    +0.000 A 
ATOM     30  N   UNL     1      -2.708   2.828  -1.204  0.00  0.00    +0.000 NA
ATOM     31  C   UNL     1      -1.380   2.844  -0.949  0.00  0.00    +0.000 A 
BRANCH  28  32
ATOM     32  O   UNL     1      -3.514  -0.510  -0.017  0.00  0.00    +0.000 OA
ATOM     33  H   UNL     1      -2.932  -1.195   0.353  0.00  0.00    +0.000 HD
ENDBRANCH  28  32
ENDBRANCH  25  26
ENDBRANCH  23  25
ENDBRANCH   1  22
TORSDOF 6
