REMARK  Name = 
REMARK  5 active torsions:
REMARK  status: ('A' for Active; 'I' for Inactive)
REMARK    1  A    between atoms: C_2  and  C_17
REMARK    2  A    between atoms: N_3  and  C_4
REMARK    3  A    between atoms: C_4  and  C_5
REMARK    4  A    between atoms: C_8  and  C_9
REMARK    5  A    between atoms: N_19  and  C_20
REMARK                            x       y       z     vdW  Elec       q    Type
REMARK                         _______ _______ _______ _____ _____    ______ ____
ROOT
ATOM      1  O   UNL     1       0.923  -0.230   0.164  0.00  0.00    +0.000 OA
ATOM      2  C   UNL     1       2.146  -0.134   0.101  0.00  0.00    +0.000 C 
ATOM      3  N   UNL     1       2.848  -0.311  -1.064  0.00  0.00    +0.000 N 
ATOM      4  H   UNL     1       3.857  -0.302  -1.070  0.00  0.00    +0.000 HD
ENDROOT
BRANCH   2   5
ATOM      5  C   UNL     1       2.962   0.186   1.318  0.00  0.00    +0.000 A 
ATOM      6  C   UNL     1       2.383  -0.037   2.511  0.00  0.00    +0.000 A 
ATOM      7  N   UNL     1       2.967   0.366   3.712  0.00  0.00    +0.000 N 
ATOM      8  C   UNL     1       4.202   1.034   3.734  0.00  0.00    +0.000 A 
ATOM      9  O   UNL     1       4.791   1.442   4.733  0.00  0.00    +0.000 OA
ATOM     10  C   UNL     1       4.861   1.220   2.410  0.00  0.00    +0.000 A 
ATOM     11  C   UNL     1       4.260   0.827   1.280  0.00  0.00    +0.000 A 
BRANCH   7  12
ATOM     12  C   UNL     1       2.251   0.206   4.937  0.00  0.00    +0.000 A 
ATOM     13  C   UNL     1       1.975   1.316   5.742  0.00  0.00    +0.000 A 
ATOM     14  C   UNL     1       1.200   1.159   6.886  0.00  0.00    +0.000 A 
ATOM     15  F   UNL     1       0.884   2.234   7.621  0.00  0.00    +0.000 F 
ATOM     16  C   UNL     1       0.728  -0.091   7.270  0.00  0.00    +0.000 A 
ATOM     17  C   UNL     1       1.023  -1.207   6.489  0.00  0.00    +0.000 A 
ATOM     18  C   UNL     1       1.764  -1.056   5.313  0.00  0.00    +0.000 A 
ENDBRANCH   7  12
ENDBRANCH   2   5
BRANCH   3  19
ATOM     19  C   UNL     1       2.183  -0.574  -2.323  0.00  0.00    +0.000 C 
BRANCH  19  20
ATOM     20  C   UNL     1       2.499   0.490  -3.345  0.00  0.00    +0.000 A 
ATOM     21  C   UNL     1       3.144   0.170  -4.543  0.00  0.00    +0.000 A 
ATOM     22  C   UNL     1       3.406   1.160  -5.501  0.00  0.00    +0.000 A 
ATOM     23  C   UNL     1       3.030   2.501  -5.301  0.00  0.00    +0.000 A 
ATOM     24  C   UNL     1       2.371   2.802  -4.095  0.00  0.00    +0.000 A 
ATOM     25  C   UNL     1       2.113   1.818  -3.132  0.00  0.00    +0.000 A 
BRANCH  23  26
ATOM     26  C   UNL     1       3.319   3.545  -6.305  0.00  0.00    +0.000 A 
ATOM     27  C   UNL     1       3.364   3.314  -7.672  0.00  0.00    +0.000 A 
ATOM     28  N   UNL     1       3.643   4.248  -8.612  0.00  0.00    +0.000 NA
ATOM     29  C   UNL     1       3.879   5.482  -8.151  0.00  0.00    +0.000 A 
ATOM     30  N   UNL     1       3.861   5.851  -6.864  0.00  0.00    +0.000 NA
ATOM     31  C   UNL     1       3.583   4.868  -5.977  0.00  0.00    +0.000 A 
ENDBRANCH  23  26
ENDBRANCH  19  20
ENDBRANCH   3  19
TORSDOF 5
