REMARK  Name = 
REMARK  6 active torsions:
REMARK  status: ('A' for Active; 'I' for Inactive)
REMARK    1  A    between atoms: C_2  and  C_4
REMARK    2  A    between atoms: C_4  and  N_5
REMARK    3  A    between atoms: N_5  and  C_6
REMARK    4  A    between atoms: C_6  and  C_7
REMARK    5  A    between atoms: C_10  and  C_11
REMARK    6  A    between atoms: C_19  and  C_21
REMARK                            x       y       z     vdW  Elec       q    Type
REMARK                         _______ _______ _______ _____ _____    ______ ____
ROOT
ATOM      1  N   UNL     1       4.818  -0.526   1.012  0.00  0.00    +0.000 N 
ATOM      2  C   UNL     1       5.738  -0.846   2.016  0.00  0.00    +0.000 C 
ATOM      3  O   UNL     1       6.931  -0.540   1.949  0.00  0.00    +0.000 OA
ENDROOT
BRANCH   2   4
ATOM      4  C   UNL     1       5.256  -1.688   3.169  0.00  0.00    +0.000 A 
ATOM      5  C   UNL     1       6.016  -2.723   3.557  0.00  0.00    +0.000 A 
ATOM      6  C   UNL     1       5.341  -3.818   4.245  0.00  0.00    +0.000 A 
ATOM      7  C   UNL     1       5.955  -5.070   4.354  0.00  0.00    +0.000 A 
ATOM      8  C   UNL     1       5.197  -6.193   4.699  0.00  0.00    +0.000 A 
ATOM      9  C   UNL     1       3.835  -6.068   4.977  0.00  0.00    +0.000 A 
ATOM     10  C   UNL     1       3.235  -4.812   4.950  0.00  0.00    +0.000 A 
ATOM     11  C   UNL     1       3.990  -3.693   4.580  0.00  0.00    +0.000 A 
ATOM     12  C   UNL     1       3.319  -2.385   4.447  0.00  0.00    +0.000 A 
ATOM     13  O   UNL     1       2.212  -2.172   4.923  0.00  0.00    +0.000 OA
ATOM     14  O   UNL     1       3.971  -1.454   3.699  0.00  0.00    +0.000 OA
ENDBRANCH   2   4
BRANCH   1  15
ATOM     15  C   UNL     1       3.381  -0.827   1.050  0.00  0.00    +0.000 C 
BRANCH  15  17
ATOM     16  N   UNL     1       1.702  -2.600   0.974  0.00  0.00    +0.000 N 
ATOM     17  C   UNL     1       3.034  -2.310   0.890  0.00  0.00    +0.000 C 
ATOM     18  O   UNL     1       3.847  -3.210   0.717  0.00  0.00    +0.000 OA
ATOM     19  H   UNL     1       1.437  -3.575   0.910  0.00  0.00    +0.000 HD
ATOM     20  H   UNL     1       0.987  -1.916   1.178  0.00  0.00    +0.000 HD
ENDBRANCH  15  17
ENDBRANCH   1  15
BRANCH   1  21
ATOM     21  C   UNL     1       5.304   0.143  -0.189  0.00  0.00    +0.000 C 
BRANCH  21  22
ATOM     22  C   UNL     1       5.817  -0.773  -1.282  0.00  0.00    +0.000 A 
ATOM     23  C   UNL     1       4.972  -1.379  -2.214  0.00  0.00    +0.000 A 
ATOM     24  C   UNL     1       5.501  -2.115  -3.291  0.00  0.00    +0.000 A 
ATOM     25  C   UNL     1       6.888  -2.261  -3.478  0.00  0.00    +0.000 A 
ATOM     26  C   UNL     1       7.715  -1.680  -2.501  0.00  0.00    +0.000 A 
ATOM     27  C   UNL     1       7.193  -0.966  -1.416  0.00  0.00    +0.000 A 
BRANCH  25  28
ATOM     28  C   UNL     1       7.471  -2.959  -4.655  0.00  0.00    +0.000 A 
ATOM     29  C   UNL     1       6.847  -2.945  -5.917  0.00  0.00    +0.000 A 
ATOM     30  C   UNL     1       7.431  -3.562  -7.034  0.00  0.00    +0.000 A 
ATOM     31  C   UNL     1       8.663  -4.202  -6.922  0.00  0.00    +0.000 A 
ATOM     32  C   UNL     1       9.301  -4.233  -5.690  0.00  0.00    +0.000 A 
ATOM     33  C   UNL     1       8.708  -3.631  -4.573  0.00  0.00    +0.000 A 
ENDBRANCH  25  28
ENDBRANCH  21  22
ENDBRANCH   1  21
TORSDOF 6
