REMARK  Name = 
REMARK  8 active torsions:
REMARK  status: ('A' for Active; 'I' for Inactive)
REMARK    1  A    between atoms: C_2  and  C_4
REMARK    2  A    between atoms: C_7  and  C_8
REMARK    3  A    between atoms: C_8  and  S_9
REMARK    4  A    between atoms: S_9  and  C_10
REMARK    5  A    between atoms: C_15  and  C_16
REMARK    6  A    between atoms: N_18  and  C_19
REMARK    7  A    between atoms: C_19  and  C_20
REMARK    8  A    between atoms: C_21  and  C_22
REMARK                            x       y       z     vdW  Elec       q    Type
REMARK                         _______ _______ _______ _____ _____    ______ ____
ROOT
ATOM      1  C   UNL     1       5.359  -0.958  -7.841  0.00  0.00    +0.000 A 
ATOM      2  N   UNL     1       6.035  -0.052  -8.604  0.00  0.00    +0.000 NA
ATOM      3  C   UNL     1       6.662  -0.485  -9.718  0.00  0.00    +0.000 A 
ATOM      4  C   UNL     1       6.649  -1.798 -10.142  0.00  0.00    +0.000 A 
ATOM      5  C   UNL     1       5.963  -2.721  -9.366  0.00  0.00    +0.000 A 
ATOM      6  C   UNL     1       5.304  -2.310  -8.194  0.00  0.00    +0.000 A 
ENDROOT
BRANCH   6   7
ATOM      7  C   UNL     1       4.642  -3.351  -7.372  0.00  0.00    +0.000 C 
ATOM      8  O   UNL     1       4.754  -3.367  -6.151  0.00  0.00    +0.000 OA
ATOM      9  N   UNL     1       3.973  -4.330  -8.081  0.00  0.00    +0.000 N 
ATOM     10  H   UNL     1       3.702  -4.150  -9.038  0.00  0.00    +0.000 HD
BRANCH   9  11
ATOM     11  C   UNL     1       3.243  -5.365  -7.389  0.00  0.00    +0.000 C 
BRANCH  11  12
ATOM     12  C   UNL     1       1.819  -4.977  -7.186  0.00  0.00    +0.000 A 
ATOM     13  C   UNL     1       0.839  -5.673  -6.497  0.00  0.00    +0.000 A 
ATOM     14  O   UNL     1      -0.324  -4.958  -6.599  0.00  0.00    +0.000 OA
ATOM     15  C   UNL     1       0.020  -3.866  -7.333  0.00  0.00    +0.000 A 
ATOM     16  N   UNL     1       1.266  -3.837  -7.748  0.00  0.00    +0.000 NA
BRANCH  13  17
ATOM     17  C   UNL     1       0.787  -6.925  -5.756  0.00  0.00    +0.000 A 
ATOM     18  C   UNL     1       1.894  -7.367  -5.019  0.00  0.00    +0.000 A 
ATOM     19  C   UNL     1       1.887  -8.608  -4.381  0.00  0.00    +0.000 A 
ATOM     20  C   UNL     1       0.758  -9.419  -4.454  0.00  0.00    +0.000 A 
ATOM     21  C   UNL     1      -0.363  -8.983  -5.155  0.00  0.00    +0.000 A 
ATOM     22  C   UNL     1      -0.350  -7.743  -5.803  0.00  0.00    +0.000 A 
ENDBRANCH  13  17
ENDBRANCH  11  12
ENDBRANCH   9  11
ENDBRANCH   6   7
BRANCH   1  23
ATOM     23  S   UNL     1       4.556  -0.260  -6.403  0.00  0.00    +0.000 S 
BRANCH  23  24
ATOM     24  C   UNL     1       4.239   1.425  -7.010  0.00  0.00    +0.000 C 
BRANCH  24  28
ATOM     25  C   UNL     1       2.183   3.896  -4.117  0.00  0.00    +0.000 A 
ATOM     26  C   UNL     1       3.583   3.895  -4.174  0.00  0.00    +0.000 A 
ATOM     27  C   UNL     1       4.244   3.089  -5.104  0.00  0.00    +0.000 A 
ATOM     28  C   UNL     1       3.520   2.276  -5.990  0.00  0.00    +0.000 A 
ATOM     29  C   UNL     1       2.121   2.261  -5.908  0.00  0.00    +0.000 A 
ATOM     30  C   UNL     1       1.457   3.062  -4.978  0.00  0.00    +0.000 A 
BRANCH  25  32
ATOM     31  N   UNL     1       2.039   5.888  -2.721  0.00  0.00    +0.000 N 
ATOM     32  C   UNL     1       1.431   4.742  -3.155  0.00  0.00    +0.000 C 
ATOM     33  O   UNL     1       0.298   4.458  -2.790  0.00  0.00    +0.000 OA
ATOM     34  H   UNL     1       1.476   6.506  -2.155  0.00  0.00    +0.000 HD
ATOM     35  H   UNL     1       2.849   6.279  -3.181  0.00  0.00    +0.000 HD
ENDBRANCH  25  32
ENDBRANCH  24  28
ENDBRANCH  23  24
ENDBRANCH   1  23
TORSDOF 8
