REMARK  Name = 
REMARK  5 active torsions:
REMARK  status: ('A' for Active; 'I' for Inactive)
REMARK    1  A    between atoms: C_2  and  C_20
REMARK    2  A    between atoms: N_3  and  C_4
REMARK    3  A    between atoms: C_7  and  N_8
REMARK    4  A    between atoms: C_9  and  C_11
REMARK    5  A    between atoms: C_13  and  O_14
REMARK                            x       y       z     vdW  Elec       q    Type
REMARK                         _______ _______ _______ _____ _____    ______ ____
ROOT
ATOM      1  C   UNL     1       2.098  -2.436   0.314  0.00  0.00    +0.000 A 
ATOM      2  C   UNL     1       0.988  -2.725  -0.474  0.00  0.00    +0.000 A 
ATOM      3  C   UNL     1       0.389  -3.990  -0.405  0.00  0.00    +0.000 A 
ATOM      4  C   UNL     1       0.922  -4.945   0.451  0.00  0.00    +0.000 A 
ATOM      5  N   UNL     1       2.020  -4.696   1.182  0.00  0.00    +0.000 NA
ATOM      6  C   UNL     1       2.583  -3.472   1.100  0.00  0.00    +0.000 A 
ENDROOT
BRANCH   1   9
ATOM      7  O   UNL     1       1.103   0.147  -0.614  0.00  0.00    +0.000 OA
ATOM      8  C   UNL     1       2.201   0.013  -0.083  0.00  0.00    +0.000 C 
ATOM      9  N   UNL     1       2.735  -1.174   0.379  0.00  0.00    +0.000 N 
ATOM     10  H   UNL     1       3.565  -1.127   0.957  0.00  0.00    +0.000 HD
BRANCH   8  11
ATOM     11  C   UNL     1       3.009   1.235   0.134  0.00  0.00    +0.000 A 
ATOM     12  C   UNL     1       2.336   2.441   0.249  0.00  0.00    +0.000 A 
ATOM     13  N   UNL     1       2.948   3.644   0.340  0.00  0.00    +0.000 NA
ATOM     14  C   UNL     1       4.296   3.683   0.298  0.00  0.00    +0.000 A 
ATOM     15  C   UNL     1       4.974   4.902   0.287  0.00  0.00    +0.000 A 
ATOM     16  F   UNL     1       4.281   6.053   0.309  0.00  0.00    +0.000 F 
ATOM     17  C   UNL     1       6.364   4.983   0.227  0.00  0.00    +0.000 A 
ATOM     18  C   UNL     1       7.120   3.818   0.210  0.00  0.00    +0.000 A 
ATOM     19  C   UNL     1       6.477   2.581   0.216  0.00  0.00    +0.000 A 
ATOM     20  C   UNL     1       5.071   2.502   0.232  0.00  0.00    +0.000 A 
ATOM     21  C   UNL     1       4.403   1.265   0.146  0.00  0.00    +0.000 A 
ENDBRANCH   8  11
ENDBRANCH   1   9
BRANCH   4  22
ATOM     22  N   UNL     1       0.256  -6.176   0.568  0.00  0.00    +0.000 N 
ATOM     23  C   UNL     1       0.684  -7.210   1.380  0.00  0.00    +0.000 C 
ATOM     24  O   UNL     1       1.740  -7.272   2.001  0.00  0.00    +0.000 OA
ATOM     25  H   UNL     1      -0.573  -6.304   0.012  0.00  0.00    +0.000 HD
BRANCH  23  26
ATOM     26  C   UNL     1      -0.229  -8.383   1.491  0.00  0.00    +0.000 A 
ATOM     27  C   UNL     1       0.351  -9.631   1.767  0.00  0.00    +0.000 A 
ATOM     28  C   UNL     1      -0.461 -10.743   1.956  0.00  0.00    +0.000 A 
ATOM     29  C   UNL     1      -1.843 -10.635   1.872  0.00  0.00    +0.000 A 
ATOM     30  C   UNL     1      -2.427  -9.396   1.603  0.00  0.00    +0.000 A 
ATOM     31  C   UNL     1      -1.623  -8.266   1.416  0.00  0.00    +0.000 A 
BRANCH  28  32
ATOM     32  O   UNL     1       0.067 -11.966   2.245  0.00  0.00    +0.000 OA
ATOM     33  H   UNL     1       1.027 -11.869   2.365  0.00  0.00    +0.000 HD
ENDBRANCH  28  32
ENDBRANCH  23  26
ENDBRANCH   4  22
TORSDOF 5
