REMARK  Name = 
REMARK  4 active torsions:
REMARK  status: ('A' for Active; 'I' for Inactive)
REMARK    1  A    between atoms: C_2  and  C_10
REMARK    2  A    between atoms: N_3  and  C_4
REMARK    3  A    between atoms: C_13  and  N_14
REMARK    4  A    between atoms: C_15  and  C_17
REMARK                            x       y       z     vdW  Elec       q    Type
REMARK                         _______ _______ _______ _____ _____    ______ ____
ROOT
ATOM      1  N   UNL     1       4.595   4.079  -3.328  0.00  0.00    +0.000 N 
ATOM      2  C   UNL     1       4.023   5.334  -3.515  0.00  0.00    +0.000 C 
ATOM      3  O   UNL     1       2.990   5.749  -2.999  0.00  0.00    +0.000 OA
ATOM      4  H   UNL     1       5.416   3.840  -3.867  0.00  0.00    +0.000 HD
ENDROOT
BRANCH   2   5
ATOM      5  C   UNL     1       4.761   6.303  -4.368  0.00  0.00    +0.000 A 
ATOM      6  C   UNL     1       5.484   5.939  -5.513  0.00  0.00    +0.000 A 
ATOM      7  C   UNL     1       6.263   6.902  -6.173  0.00  0.00    +0.000 A 
ATOM      8  C   UNL     1       6.298   8.218  -5.686  0.00  0.00    +0.000 A 
ATOM      9  N   UNL     1       7.215   9.134  -6.223  0.00  0.00    +0.000 N 
ATOM     10  C   UNL     1       8.143   8.795  -7.168  0.00  0.00    +0.000 A 
ATOM     11  O   UNL     1       9.052   9.545  -7.503  0.00  0.00    +0.000 OA
ATOM     12  C   UNL     1       7.987   7.457  -7.792  0.00  0.00    +0.000 A 
ATOM     13  C   UNL     1       7.088   6.571  -7.337  0.00  0.00    +0.000 A 
ATOM     14  C   UNL     1       5.490   8.593  -4.620  0.00  0.00    +0.000 A 
ATOM     15  F   UNL     1       5.494   9.861  -4.184  0.00  0.00    +0.000 F 
ATOM     16  C   UNL     1       4.724   7.647  -3.959  0.00  0.00    +0.000 A 
ATOM     17  H   UNL     1       7.300  10.054  -5.805  0.00  0.00    +0.000 HD
ENDBRANCH   2   5
BRANCH   1  21
ATOM     18  C   UNL     1       3.104   1.003  -0.805  0.00  0.00    +0.000 A 
ATOM     19  C   UNL     1       2.576   2.294  -0.732  0.00  0.00    +0.000 A 
ATOM     20  C   UNL     1       3.085   3.321  -1.526  0.00  0.00    +0.000 A 
ATOM     21  C   UNL     1       4.123   3.085  -2.427  0.00  0.00    +0.000 A 
ATOM     22  C   UNL     1       4.707   1.806  -2.442  0.00  0.00    +0.000 A 
ATOM     23  C   UNL     1       4.200   0.761  -1.638  0.00  0.00    +0.000 A 
BRANCH  18  25
ATOM     24  O   UNL     1       1.108   0.052  -0.149  0.00  0.00    +0.000 OA
ATOM     25  C   UNL     1       2.331  -0.060  -0.113  0.00  0.00    +0.000 C 
ATOM     26  N   UNL     1       3.033  -1.046   0.556  0.00  0.00    +0.000 N 
ATOM     27  H   UNL     1       4.030  -0.931   0.658  0.00  0.00    +0.000 HD
BRANCH  26  28
ATOM     28  C   UNL     1       2.421  -2.098   1.299  0.00  0.00    +0.000 A 
ATOM     29  C   UNL     1       1.071  -2.433   1.206  0.00  0.00    +0.000 A 
ATOM     30  C   UNL     1       0.534  -3.446   2.006  0.00  0.00    +0.000 A 
ATOM     31  C   UNL     1       1.376  -4.110   2.875  0.00  0.00    +0.000 A 
ATOM     32  N   UNL     1       2.696  -3.842   2.981  0.00  0.00    +0.000 NA
ATOM     33  C   UNL     1       3.182  -2.850   2.191  0.00  0.00    +0.000 A 
ENDBRANCH  26  28
ENDBRANCH  18  25
ENDBRANCH   1  21
TORSDOF 4
