REMARK  Name = 
REMARK  4 active torsions:
REMARK  status: ('A' for Active; 'I' for Inactive)
REMARK    1  A    between atoms: C_2  and  C_16
REMARK    2  A    between atoms: N_3  and  C_4
REMARK    3  A    between atoms: C_7  and  C_8
REMARK    4  A    between atoms: N_18  and  C_19
REMARK                            x       y       z     vdW  Elec       q    Type
REMARK                         _______ _______ _______ _____ _____    ______ ____
ROOT
ATOM      1  O   UNL     1       0.853   0.245  -0.088  0.00  0.00    +0.000 OA
ATOM      2  C   UNL     1       2.077   0.149  -0.018  0.00  0.00    +0.000 C 
ATOM      3  N   UNL     1       2.770  -0.436   1.024  0.00  0.00    +0.000 N 
ATOM      4  H   UNL     1       3.758  -0.245   1.112  0.00  0.00    +0.000 HD
ENDROOT
BRANCH   2   5
ATOM      5  C   UNL     1       2.908   0.750  -1.113  0.00  0.00    +0.000 A 
ATOM      6  C   UNL     1       2.288   1.687  -1.853  0.00  0.00    +0.000 A 
ATOM      7  N   UNL     1       2.863   2.254  -2.986  0.00  0.00    +0.000 N 
ATOM      8  C   UNL     1       4.140   1.857  -3.419  0.00  0.00    +0.000 A 
ATOM      9  O   UNL     1       4.727   2.252  -4.424  0.00  0.00    +0.000 OA
ATOM     10  C   UNL     1       4.803   0.799  -2.598  0.00  0.00    +0.000 A 
ATOM     11  C   UNL     1       4.210   0.284  -1.513  0.00  0.00    +0.000 A 
BRANCH   7  12
ATOM     12  C   UNL     1       2.099   3.138  -3.819  0.00  0.00    +0.000 A 
ATOM     13  C   UNL     1       2.666   4.312  -4.332  0.00  0.00    +0.000 A 
ATOM     14  C   UNL     1       1.924   5.153  -5.170  0.00  0.00    +0.000 A 
ATOM     15  C   UNL     1       0.618   4.817  -5.528  0.00  0.00    +0.000 A 
ATOM     16  C   UNL     1       0.041   3.654  -5.025  0.00  0.00    +0.000 A 
ATOM     17  C   UNL     1       0.772   2.836  -4.166  0.00  0.00    +0.000 A 
ATOM     18  F   UNL     1       0.193   1.704  -3.737  0.00  0.00    +0.000 F 
ENDBRANCH   7  12
ENDBRANCH   2   5
BRANCH   3  19
ATOM     19  C   UNL     1       2.156  -1.145   2.087  0.00  0.00    +0.000 A 
ATOM     20  C   UNL     1       0.841  -1.610   2.020  0.00  0.00    +0.000 A 
ATOM     21  C   UNL     1       0.241  -2.252   3.106  0.00  0.00    +0.000 A 
ATOM     22  C   UNL     1       0.949  -2.463   4.292  0.00  0.00    +0.000 A 
ATOM     23  C   UNL     1       2.283  -2.042   4.349  0.00  0.00    +0.000 A 
ATOM     24  C   UNL     1       2.889  -1.399   3.253  0.00  0.00    +0.000 A 
BRANCH  22  25
ATOM     25  C   UNL     1       0.262  -3.066   5.437  0.00  0.00    +0.000 A 
ATOM     26  C   UNL     1      -0.742  -3.959   5.437  0.00  0.00    +0.000 A 
ATOM     27  N   UNL     1      -1.132  -4.190   6.732  0.00  0.00    +0.000 N 
ATOM     28  C   UNL     1      -0.350  -3.410   7.592  0.00  0.00    +0.000 A 
ATOM     29  O   UNL     1      -0.428  -3.332   8.802  0.00  0.00    +0.000 OA
ATOM     30  N   UNL     1       0.532  -2.730   6.744  0.00  0.00    +0.000 N 
ATOM     31  H   UNL     1      -1.882  -4.785   7.048  0.00  0.00    +0.000 HD
ATOM     32  H   UNL     1       1.190  -2.042   7.068  0.00  0.00    +0.000 HD
ENDBRANCH  22  25
ENDBRANCH   3  19
TORSDOF 4
