REMARK  Name = 
REMARK  6 active torsions:
REMARK  status: ('A' for Active; 'I' for Inactive)
REMARK    1  A    between atoms: C_1  and  N_2
REMARK    2  A    between atoms: C_8  and  C_9
REMARK    3  A    between atoms: N_11  and  C_12
REMARK    4  A    between atoms: C_15  and  O_16
REMARK    5  A    between atoms: O_16  and  C_17
REMARK    6  A    between atoms: C_23  and  C_24
REMARK                            x       y       z     vdW  Elec       q    Type
REMARK                         _______ _______ _______ _____ _____    ______ ____
ROOT
ATOM      1  C   UNL     1       7.358   3.681  -0.114  0.00  0.00    +0.000 C 
ATOM      2  O   UNL     1       6.678   4.601   0.326  0.00  0.00    +0.000 OA
ATOM      3  N   UNL     1       8.680   3.760  -0.530  0.00  0.00    +0.000 N 
ATOM      4  H   UNL     1       9.037   3.003  -1.101  0.00  0.00    +0.000 HD
ENDROOT
BRANCH   1  12
ATOM      5  C   UNL     1       7.257  -3.748   0.012  0.00  0.00    +0.000 C 
ATOM      6  N   UNL     1       6.630  -2.465  -0.228  0.00  0.00    +0.000 N 
ATOM      7  C   UNL     1       5.302  -2.388  -0.566  0.00  0.00    +0.000 A 
ATOM      8  N   UNL     1       4.652  -1.289  -0.755  0.00  0.00    +0.000 NA
ATOM      9  C   UNL     1       5.349  -0.085  -0.595  0.00  0.00    +0.000 A 
ATOM     10  C   UNL     1       4.658   1.118  -0.735  0.00  0.00    +0.000 A 
ATOM     11  C   UNL     1       5.324   2.337  -0.579  0.00  0.00    +0.000 A 
ATOM     12  C   UNL     1       6.698   2.364  -0.297  0.00  0.00    +0.000 A 
ATOM     13  C   UNL     1       7.397   1.168  -0.139  0.00  0.00    +0.000 A 
ATOM     14  C   UNL     1       6.711  -0.044  -0.287  0.00  0.00    +0.000 A 
ATOM     15  C   UNL     1       7.408  -1.327  -0.092  0.00  0.00    +0.000 A 
ATOM     16  O   UNL     1       8.608  -1.335   0.173  0.00  0.00    +0.000 OA
ENDBRANCH   1  12
BRANCH   3  17
ATOM     17  C   UNL     1       9.479   4.920  -0.443  0.00  0.00    +0.000 A 
ATOM     18  C   UNL     1       9.183   5.966   0.430  0.00  0.00    +0.000 A 
ATOM     19  C   UNL     1       9.933   7.140   0.415  0.00  0.00    +0.000 A 
ATOM     20  C   UNL     1      10.953   7.312  -0.524  0.00  0.00    +0.000 A 
ATOM     21  C   UNL     1      11.329   6.231  -1.331  0.00  0.00    +0.000 A 
ATOM     22  C   UNL     1      10.601   5.029  -1.274  0.00  0.00    +0.000 A 
BRANCH  21  23
ATOM     23  C   UNL     1      12.429   6.338  -2.248  0.00  0.00    +0.000 C 
ATOM     24  N   UNL     1      13.312   6.383  -3.000  0.00  0.00    +0.000 NA
ENDBRANCH  21  23
BRANCH  20  25
ATOM     25  O   UNL     1      11.616   8.514  -0.670  0.00  0.00    +0.000 OA
BRANCH  25  26
ATOM     26  C   UNL     1      10.890   9.683  -0.546  0.00  0.00    +0.000 A 
ATOM     27  C   UNL     1      11.562  10.778   0.000  0.00  0.00    +0.000 A 
ATOM     28  C   UNL     1      10.879  11.976   0.222  0.00  0.00    +0.000 A 
ATOM     29  C   UNL     1       9.527  12.083  -0.104  0.00  0.00    +0.000 A 
ATOM     30  C   UNL     1       8.867  11.008  -0.695  0.00  0.00    +0.000 A 
ATOM     31  C   UNL     1       9.555   9.821  -0.946  0.00  0.00    +0.000 A 
ENDBRANCH  25  26
ENDBRANCH  20  25
ENDBRANCH   3  17
TORSDOF 5
