REMARK  Name = 
REMARK  5 active torsions:
REMARK  status: ('A' for Active; 'I' for Inactive)
REMARK    1  A    between atoms: C_2  and  C_16
REMARK    2  A    between atoms: N_3  and  C_4
REMARK    3  A    between atoms: C_7  and  C_8
REMARK    4  A    between atoms: C_19  and  O_20
REMARK    5  A    between atoms: O_20  and  C_21
REMARK                            x       y       z     vdW  Elec       q    Type
REMARK                         _______ _______ _______ _____ _____    ______ ____
ROOT
ATOM      1  O   UNL     1       0.995  -0.003  -0.237  0.00  0.00    +0.000 OA
ATOM      2  C   UNL     1       2.218   0.031  -0.099  0.00  0.00    +0.000 C 
ATOM      3  N   UNL     1       2.902  -0.077   1.101  0.00  0.00    +0.000 N 
ATOM      4  H   UNL     1       3.899   0.120   1.062  0.00  0.00    +0.000 HD
ENDROOT
BRANCH   3   5
ATOM      5  C   UNL     1       2.294  -0.291   2.357  0.00  0.00    +0.000 A 
ATOM      6  C   UNL     1       0.986  -0.765   2.481  0.00  0.00    +0.000 A 
ATOM      7  C   UNL     1       0.380  -0.903   3.731  0.00  0.00    +0.000 A 
ATOM      8  C   UNL     1       1.070  -0.580   4.901  0.00  0.00    +0.000 A 
ATOM      9  C   UNL     1       2.397  -0.140   4.783  0.00  0.00    +0.000 A 
ATOM     10  C   UNL     1       3.010  -0.011   3.523  0.00  0.00    +0.000 A 
BRANCH   8  11
ATOM     11  C   UNL     1       0.387  -0.676   6.191  0.00  0.00    +0.000 A 
ATOM     12  C   UNL     1      -0.593  -1.523   6.560  0.00  0.00    +0.000 A 
ATOM     13  N   UNL     1      -0.973  -1.227   7.843  0.00  0.00    +0.000 N 
ATOM     14  C   UNL     1      -0.215  -0.148   8.311  0.00  0.00    +0.000 A 
ATOM     15  O   UNL     1      -0.290   0.400   9.393  0.00  0.00    +0.000 OA
ATOM     16  N   UNL     1       0.640   0.165   7.248  0.00  0.00    +0.000 N 
ATOM     17  H   UNL     1      -1.698  -1.675   8.383  0.00  0.00    +0.000 HD
ATOM     18  H   UNL     1       1.283   0.939   7.264  0.00  0.00    +0.000 HD
ENDBRANCH   8  11
ENDBRANCH   3   5
BRANCH   2  19
ATOM     19  C   UNL     1       3.046   0.250  -1.320  0.00  0.00    +0.000 A 
ATOM     20  C   UNL     1       2.381   0.542  -2.510  0.00  0.00    +0.000 A 
ATOM     21  C   UNL     1       3.120   0.685  -3.674  0.00  0.00    +0.000 A 
ATOM     22  C   UNL     1       4.493   0.468  -3.636  0.00  0.00    +0.000 A 
ATOM     23  C   UNL     1       5.081   0.233  -2.393  0.00  0.00    +0.000 A 
ATOM     24  N   UNL     1       4.396   0.122  -1.222  0.00  0.00    +0.000 NA
BRANCH  22  25
ATOM     25  O   UNL     1       5.306   0.513  -4.743  0.00  0.00    +0.000 OA
BRANCH  25  26
ATOM     26  C   UNL     1       4.822   0.054  -5.952  0.00  0.00    +0.000 A 
ATOM     27  C   UNL     1       3.945  -1.027  -6.084  0.00  0.00    +0.000 A 
ATOM     28  C   UNL     1       3.500  -1.396  -7.349  0.00  0.00    +0.000 A 
ATOM     29  F   UNL     1       2.617  -2.396  -7.468  0.00  0.00    +0.000 F 
ATOM     30  C   UNL     1       3.951  -0.744  -8.490  0.00  0.00    +0.000 A 
ATOM     31  C   UNL     1       4.866   0.300  -8.366  0.00  0.00    +0.000 A 
ATOM     32  C   UNL     1       5.301   0.699  -7.096  0.00  0.00    +0.000 A 
ENDBRANCH  25  26
ENDBRANCH  22  25
ENDBRANCH   2  19
TORSDOF 5
