REMARK  Name = 
REMARK  6 active torsions:
REMARK  status: ('A' for Active; 'I' for Inactive)
REMARK    1  A    between atoms: C_2  and  C_16
REMARK    2  A    between atoms: N_3  and  C_4
REMARK    3  A    between atoms: C_7  and  C_8
REMARK    4  A    between atoms: C_18  and  C_19
REMARK    5  A    between atoms: C_19  and  C_20
REMARK    6  A    between atoms: C_28  and  O_29
REMARK                            x       y       z     vdW  Elec       q    Type
REMARK                         _______ _______ _______ _____ _____    ______ ____
ROOT
ATOM      1  O   UNL     1       1.117  -0.310  -0.338  0.00  0.00    +0.000 OA
ATOM      2  C   UNL     1       2.209   0.123   0.019  0.00  0.00    +0.000 C 
ATOM      3  N   UNL     1       2.734   1.358  -0.318  0.00  0.00    +0.000 N 
ATOM      4  H   UNL     1       3.690   1.530  -0.015  0.00  0.00    +0.000 HD
ENDROOT
BRANCH   2   5
ATOM      5  C   UNL     1       3.101  -0.778   0.816  0.00  0.00    +0.000 A 
ATOM      6  C   UNL     1       2.694  -2.118   0.958  0.00  0.00    +0.000 A 
ATOM      7  C   UNL     1       3.521  -3.071   1.571  0.00  0.00    +0.000 A 
ATOM      8  C   UNL     1       4.746  -2.652   2.103  0.00  0.00    +0.000 A 
ATOM      9  C   UNL     1       5.144  -1.316   2.012  0.00  0.00    +0.000 A 
ATOM     10  C   UNL     1       4.326  -0.385   1.371  0.00  0.00    +0.000 A 
BRANCH  10  11
ATOM     11  O   UNL     1       4.757   0.914   1.283  0.00  0.00    +0.000 OA
ATOM     12  H   UNL     1       5.426   1.061   1.977  0.00  0.00    +0.000 HD
ENDBRANCH  10  11
BRANCH   7  13
ATOM     13  C   UNL     1       3.115  -4.528   1.613  0.00  0.00    +0.000 C 
BRANCH  13  14
ATOM     14  C   UNL     1       2.346  -4.927   2.849  0.00  0.00    +0.000 A 
ATOM     15  C   UNL     1       0.945  -4.876   2.861  0.00  0.00    +0.000 A 
ATOM     16  C   UNL     1       0.233  -5.211   4.014  0.00  0.00    +0.000 A 
ATOM     17  C   UNL     1       0.912  -5.608   5.164  0.00  0.00    +0.000 A 
ATOM     18  C   UNL     1       2.303  -5.683   5.158  0.00  0.00    +0.000 A 
ATOM     19  C   UNL     1       3.018  -5.342   4.008  0.00  0.00    +0.000 A 
ENDBRANCH  13  14
ENDBRANCH   7  13
ENDBRANCH   2   5
BRANCH   3  20
ATOM     20  C   UNL     1       2.139   2.328  -1.142  0.00  0.00    +0.000 A 
ATOM     21  C   UNL     1       0.790   2.306  -1.486  0.00  0.00    +0.000 A 
ATOM     22  C   UNL     1       0.262   3.262  -2.356  0.00  0.00    +0.000 A 
ATOM     23  C   UNL     1       1.073   4.263  -2.902  0.00  0.00    +0.000 A 
ATOM     24  C   UNL     1       2.425   4.298  -2.531  0.00  0.00    +0.000 A 
ATOM     25  C   UNL     1       2.950   3.348  -1.646  0.00  0.00    +0.000 A 
BRANCH  23  26
ATOM     26  C   UNL     1       0.518   5.222  -3.851  0.00  0.00    +0.000 A 
ATOM     27  C   UNL     1      -0.736   5.704  -3.924  0.00  0.00    +0.000 A 
ATOM     28  N   UNL     1      -0.809   6.574  -4.982  0.00  0.00    +0.000 N 
ATOM     29  C   UNL     1       0.435   6.644  -5.612  0.00  0.00    +0.000 A 
ATOM     30  O   UNL     1       0.736   7.299  -6.588  0.00  0.00    +0.000 OA
ATOM     31  N   UNL     1       1.251   5.786  -4.868  0.00  0.00    +0.000 N 
ATOM     32  H   UNL     1      -1.623   7.086  -5.291  0.00  0.00    +0.000 HD
ATOM     33  H   UNL     1       2.212   5.593  -5.100  0.00  0.00    +0.000 HD
ENDBRANCH  23  26
ENDBRANCH   3  20
TORSDOF 6
