REMARK  Name = 
REMARK  10 active torsions:
REMARK  status: ('A' for Active; 'I' for Inactive)
REMARK    1  A    between atoms: C_1  and  O_2
REMARK    2  A    between atoms: O_2  and  C_3
REMARK    3  A    between atoms: C_6  and  C_7
REMARK    4  A    between atoms: C_7  and  C_8
REMARK    5  A    between atoms: C_8  and  N_9
REMARK    6  A    between atoms: C_8  and  C_25
REMARK    7  A    between atoms: C_10  and  C_12
REMARK    8  A    between atoms: N_18  and  C_19
REMARK    9  A    between atoms: C_32  and  O_33
REMARK   10  A    between atoms: O_33  and  C_34
REMARK                            x       y       z     vdW  Elec       q    Type
REMARK                         _______ _______ _______ _____ _____    ______ ____
ROOT
ATOM      1  C   UNL     1       4.809   2.579   5.247  0.00  0.00    +0.000 C 
ENDROOT
BRANCH   1   2
ATOM      2  C   UNL     1       5.517   3.335   6.363  0.00  0.00    +0.000 A 
ATOM      3  C   UNL     1       4.779   3.637   7.525  0.00  0.00    +0.000 A 
ATOM      4  C   UNL     1       5.365   4.308   8.599  0.00  0.00    +0.000 A 
ATOM      5  C   UNL     1       6.694   4.694   8.530  0.00  0.00    +0.000 A 
ATOM      6  C   UNL     1       7.448   4.397   7.396  0.00  0.00    +0.000 A 
ATOM      7  C   UNL     1       6.866   3.713   6.320  0.00  0.00    +0.000 A 
ENDBRANCH   1   2
BRANCH   1   8
ATOM      8  N   UNL     1       4.878   1.146   5.527  0.00  0.00    +0.000 N 
ATOM      9  C   UNL     1       4.017   0.486   6.385  0.00  0.00    +0.000 C 
ATOM     10  O   UNL     1       3.049   0.995   6.932  0.00  0.00    +0.000 OA
ATOM     11  H   UNL     1       5.547   0.624   4.989  0.00  0.00    +0.000 HD
BRANCH   9  12
ATOM     12  C   UNL     1       4.319  -0.958   6.590  0.00  0.00    +0.000 A 
ATOM     13  C   UNL     1       5.599  -1.435   6.254  0.00  0.00    +0.000 A 
ATOM     14  C   UNL     1       5.819  -2.796   6.135  0.00  0.00    +0.000 A 
ATOM     15  C   UNL     1       4.792  -3.642   6.491  0.00  0.00    +0.000 A 
ATOM     16  C   UNL     1       4.993  -5.082   6.485  0.00  0.00    +0.000 A 
ATOM     17  O   UNL     1       5.240  -5.695   5.468  0.00  0.00    +0.000 OA
ATOM     18  N   UNL     1       4.933  -5.553   7.767  0.00  0.00    +0.000 N 
ATOM     19  C   UNL     1       6.184  -6.095   8.248  0.00  0.00    +0.000 C 
ATOM     20  C   UNL     1       3.918  -5.135   8.622  0.00  0.00    +0.000 A 
ATOM     21  O   UNL     1       3.746  -5.576   9.753  0.00  0.00    +0.000 OA
ATOM     22  N   UNL     1       3.127  -4.086   8.136  0.00  0.00    +0.000 N 
ATOM     23  C   UNL     1       3.690  -3.186   7.196  0.00  0.00    +0.000 A 
ATOM     24  C   UNL     1       3.364  -1.835   7.129  0.00  0.00    +0.000 A 
ATOM     25  H   UNL     1       2.431  -3.746   8.792  0.00  0.00    +0.000 HD
ENDBRANCH   9  12
ENDBRANCH   1   8
BRANCH   1  26
ATOM     26  C   UNL     1       5.390   2.880   3.820  0.00  0.00    +0.000 C 
BRANCH  26  30
ATOM     27  C   UNL     1       3.061   0.680   0.923  0.00  0.00    +0.000 A 
ATOM     28  C   UNL     1       2.467   1.662   1.714  0.00  0.00    +0.000 A 
ATOM     29  C   UNL     1       3.237   2.445   2.579  0.00  0.00    +0.000 A 
ATOM     30  C   UNL     1       4.606   2.208   2.718  0.00  0.00    +0.000 A 
ATOM     31  C   UNL     1       5.221   1.302   1.836  0.00  0.00    +0.000 A 
ATOM     32  C   UNL     1       4.463   0.557   0.918  0.00  0.00    +0.000 A 
BRANCH  27  34
ATOM     33  C   UNL     1       0.990   0.023  -0.071  0.00  0.00    +0.000 C 
ATOM     34  O   UNL     1       2.352  -0.252   0.208  0.00  0.00    +0.000 OA
ENDBRANCH  27  34
BRANCH  32  35
ATOM     35  O   UNL     1       5.198  -0.266   0.102  0.00  0.00    +0.000 OA
ATOM     36  C   UNL     1       4.639  -0.518  -1.181  0.00  0.00    +0.000 C 
ENDBRANCH  32  35
ENDBRANCH  26  30
ENDBRANCH   1  26
TORSDOF 7
