REMARK  Name = 
REMARK  5 active torsions:
REMARK  status: ('A' for Active; 'I' for Inactive)
REMARK    1  A    between atoms: C_2  and  C_19
REMARK    2  A    between atoms: N_3  and  C_4
REMARK    3  A    between atoms: C_4  and  C_5
REMARK    4  A    between atoms: C_8  and  O_9
REMARK    5  A    between atoms: O_9  and  C_10
REMARK                            x       y       z     vdW  Elec       q    Type
REMARK                         _______ _______ _______ _____ _____    ______ ____
ROOT
ATOM      1  O   UNL     1       1.109  -0.107  -0.092  0.00  0.00    +0.000 OA
ATOM      2  C   UNL     1       2.330  -0.079   0.010  0.00  0.00    +0.000 C 
ATOM      3  N   UNL     1       2.998  -0.617   1.086  0.00  0.00    +0.000 N 
ATOM      4  H   UNL     1       4.009  -0.564   1.147  0.00  0.00    +0.000 HD
ENDROOT
BRANCH   2   5
ATOM      5  C   UNL     1       3.150   0.567  -1.054  0.00  0.00    +0.000 A 
ATOM      6  C   UNL     1       4.546   0.575  -1.018  0.00  0.00    +0.000 A 
ATOM      7  F   UNL     1       5.241  -0.004  -0.028  0.00  0.00    +0.000 F 
ATOM      8  C   UNL     1       5.215   1.209  -2.037  0.00  0.00    +0.000 A 
ATOM      9  C   UNL     1       4.543   1.830  -3.085  0.00  0.00    +0.000 A 
ATOM     10  C   UNL     1       3.171   1.842  -3.167  0.00  0.00    +0.000 A 
ATOM     11  C   UNL     1       2.470   1.200  -2.134  0.00  0.00    +0.000 A 
ATOM     12  N   UNL     1       5.495   2.382  -3.935  0.00  0.00    +0.000 N 
ATOM     13  C   UNL     1       6.773   2.113  -3.420  0.00  0.00    +0.000 A 
ATOM     14  O   UNL     1       7.838   2.453  -3.901  0.00  0.00    +0.000 OA
ATOM     15  N   UNL     1       6.583   1.378  -2.242  0.00  0.00    +0.000 N 
ATOM     16  H   UNL     1       5.335   2.905  -4.781  0.00  0.00    +0.000 HD
ATOM     17  H   UNL     1       7.329   1.046  -1.651  0.00  0.00    +0.000 HD
ENDBRANCH   2   5
BRANCH   3  18
ATOM     18  C   UNL     1       2.285  -1.244   2.172  0.00  0.00    +0.000 C 
BRANCH  18  19
ATOM     19  C   UNL     1       3.232  -1.776   3.216  0.00  0.00    +0.000 A 
ATOM     20  C   UNL     1       3.706  -0.940   4.237  0.00  0.00    +0.000 A 
ATOM     21  C   UNL     1       4.573  -1.434   5.216  0.00  0.00    +0.000 A 
ATOM     22  C   UNL     1       4.939  -2.781   5.215  0.00  0.00    +0.000 A 
ATOM     23  C   UNL     1       4.522  -3.602   4.166  0.00  0.00    +0.000 A 
ATOM     24  C   UNL     1       3.679  -3.103   3.168  0.00  0.00    +0.000 A 
BRANCH  22  25
ATOM     25  O   UNL     1       5.760  -3.369   6.149  0.00  0.00    +0.000 OA
BRANCH  25  26
ATOM     26  C   UNL     1       5.720  -2.978   7.469  0.00  0.00    +0.000 A 
ATOM     27  C   UNL     1       4.596  -2.468   8.120  0.00  0.00    +0.000 A 
ATOM     28  C   UNL     1       4.693  -2.086   9.454  0.00  0.00    +0.000 A 
ATOM     29  F   UNL     1       3.630  -1.539  10.059  0.00  0.00    +0.000 F 
ATOM     30  C   UNL     1       5.872  -2.256  10.171  0.00  0.00    +0.000 A 
ATOM     31  C   UNL     1       6.977  -2.826   9.543  0.00  0.00    +0.000 A 
ATOM     32  C   UNL     1       6.900  -3.185   8.195  0.00  0.00    +0.000 A 
ENDBRANCH  25  26
ENDBRANCH  22  25
ENDBRANCH  18  19
ENDBRANCH   3  18
TORSDOF 5
