REMARK  Name = 
REMARK  5 active torsions:
REMARK  status: ('A' for Active; 'I' for Inactive)
REMARK    1  A    between atoms: C_2  and  C_20
REMARK    2  A    between atoms: N_3  and  C_4
REMARK    3  A    between atoms: C_4  and  C_5
REMARK    4  A    between atoms: C_4  and  C_15
REMARK    5  A    between atoms: C_9  and  C_10
REMARK                            x       y       z     vdW  Elec       q    Type
REMARK                         _______ _______ _______ _____ _____    ______ ____
ROOT
ATOM      1  O   UNL     1       1.255  -1.204   0.527  0.00  0.00    +0.000 OA
ATOM      2  C   UNL     1       2.449  -1.201   0.253  0.00  0.00    +0.000 C 
ATOM      3  N   UNL     1       2.940  -1.640  -0.930  0.00  0.00    +0.000 N 
ATOM      4  H   UNL     1       3.900  -1.481  -1.190  0.00  0.00    +0.000 HD
ENDROOT
BRANCH   2   5
ATOM      5  C   UNL     1       3.467  -0.651   1.161  0.00  0.00    +0.000 A 
ATOM      6  C   UNL     1       3.065   0.485   1.776  0.00  0.00    +0.000 A 
ATOM      7  C   UNL     1       3.061   0.105   3.233  0.00  0.00    +0.000 A 
ATOM      8  O   UNL     1       2.079   0.234   3.946  0.00  0.00    +0.000 OA
ATOM      9  N   UNL     1       4.258  -0.391   3.686  0.00  0.00    +0.000 N 
ATOM     10  C   UNL     1       5.263  -0.709   2.765  0.00  0.00    +0.000 A 
ATOM     11  C   UNL     1       6.579  -0.364   3.016  0.00  0.00    +0.000 A 
ATOM     12  C   UNL     1       7.479  -0.492   1.968  0.00  0.00    +0.000 A 
ATOM     13  F   UNL     1       8.675   0.104   2.053  0.00  0.00    +0.000 F 
ATOM     14  C   UNL     1       7.132  -1.157   0.793  0.00  0.00    +0.000 A 
ATOM     15  C   UNL     1       5.806  -1.517   0.559  0.00  0.00    +0.000 A 
ATOM     16  C   UNL     1       4.851  -1.078   1.466  0.00  0.00    +0.000 A 
ATOM     17  H   UNL     1       4.238  -0.841   4.596  0.00  0.00    +0.000 HD
ENDBRANCH   2   5
BRANCH   3  18
ATOM     18  C   UNL     1       2.127  -2.293  -1.921  0.00  0.00    +0.000 C 
BRANCH  18  19
ATOM     19  C   UNL     1       1.399  -1.292  -2.803  0.00  0.00    +0.000 A 
ATOM     20  C   UNL     1       2.108  -0.305  -3.510  0.00  0.00    +0.000 A 
ATOM     21  C   UNL     1       1.450   0.553  -4.389  0.00  0.00    +0.000 A 
ATOM     22  C   UNL     1       0.074   0.438  -4.580  0.00  0.00    +0.000 A 
ATOM     23  C   UNL     1      -0.662  -0.525  -3.876  0.00  0.00    +0.000 A 
ATOM     24  C   UNL     1       0.007  -1.376  -2.978  0.00  0.00    +0.000 A 
BRANCH  23  25
ATOM     25  C   UNL     1      -2.148  -0.678  -4.099  0.00  0.00    +0.000 C 
ATOM     26  F   UNL     1      -2.648   0.164  -5.047  0.00  0.00    +0.000 F 
ATOM     27  F   UNL     1      -2.473  -1.936  -4.514  0.00  0.00    +0.000 F 
ATOM     28  F   UNL     1      -2.880  -0.456  -2.974  0.00  0.00    +0.000 F 
ENDBRANCH  23  25
ENDBRANCH  18  19
BRANCH  18  29
ATOM     29  C   UNL     1       3.076  -3.132  -2.722  0.00  0.00    +0.000 A 
ATOM     30  N   UNL     1       4.389  -3.031  -2.766  0.00  0.00    +0.000 NA
ATOM     31  N   UNL     1       4.854  -3.947  -3.670  0.00  0.00    +0.000 NA
ATOM     32  C   UNL     1       3.816  -4.590  -4.156  0.00  0.00    +0.000 A 
ATOM     33  N   UNL     1       2.670  -4.112  -3.577  0.00  0.00    +0.000 N 
ATOM     34  H   UNL     1       1.717  -4.428  -3.791  0.00  0.00    +0.000 HD
ENDBRANCH  18  29
ENDBRANCH   3  18
TORSDOF 5
