REMARK  Name = 
REMARK  7 active torsions:
REMARK  status: ('A' for Active; 'I' for Inactive)
REMARK    1  A    between atoms: C_6  and  C_7
REMARK    2  A    between atoms: C_11  and  C_12
REMARK    3  A    between atoms: N_14  and  C_15
REMARK    4  A    between atoms: C_15  and  C_16
REMARK    5  A    between atoms: C_15  and  C_24
REMARK    6  A    between atoms: C_16  and  C_17
REMARK    7  A    between atoms: C_20  and  O_21
REMARK                            x       y       z     vdW  Elec       q    Type
REMARK                         _______ _______ _______ _____ _____    ______ ____
ROOT
ATOM      1  C   UNL     1       2.865  -4.034   0.289  0.00  0.00    +0.000 C 
ENDROOT
BRANCH   1   2
ATOM      2  C   UNL     1       4.361  -3.813   0.400  0.00  0.00    +0.000 A 
ATOM      3  N   UNL     1       4.964  -2.776   0.959  0.00  0.00    +0.000 NA
ATOM      4  C   UNL     1       6.311  -2.969   0.763  0.00  0.00    +0.000 A 
ATOM      5  C   UNL     1       7.403  -2.174   1.139  0.00  0.00    +0.000 A 
ATOM      6  C   UNL     1       8.693  -2.588   0.778  0.00  0.00    +0.000 A 
ATOM      7  C   UNL     1       8.891  -3.766   0.053  0.00  0.00    +0.000 A 
ATOM      8  C   UNL     1       7.815  -4.579  -0.319  0.00  0.00    +0.000 A 
ATOM      9  C   UNL     1       6.544  -4.149   0.068  0.00  0.00    +0.000 A 
ATOM     10  N   UNL     1       5.298  -4.692  -0.095  0.00  0.00    +0.000 N 
ATOM     11  H   UNL     1       5.103  -5.561  -0.566  0.00  0.00    +0.000 HD
ENDBRANCH   1   2
BRANCH   1  14
ATOM     12  C   UNL     1       0.897  -2.525   0.667  0.00  0.00    +0.000 C 
ATOM     13  O   UNL     1       0.152  -3.469   0.894  0.00  0.00    +0.000 OA
ATOM     14  N   UNL     1       2.228  -2.721   0.388  0.00  0.00    +0.000 N 
ATOM     15  H   UNL     1       2.858  -1.916   0.398  0.00  0.00    +0.000 HD
BRANCH  12  22
ATOM     16  N   UNL     1       2.414  -0.162  -0.383  0.00  0.00    +0.000 N 
ATOM     17  C   UNL     1       1.137  -0.037   0.164  0.00  0.00    +0.000 A 
ATOM     18  N   UNL     1       0.708   1.243   0.146  0.00  0.00    +0.000 NA
ATOM     19  C   UNL     1      -0.525   1.508   0.605  0.00  0.00    +0.000 A 
ATOM     20  C   UNL     1      -1.366   0.530   1.088  0.00  0.00    +0.000 A 
ATOM     21  C   UNL     1      -0.927  -0.809   1.122  0.00  0.00    +0.000 A 
ATOM     22  C   UNL     1       0.375  -1.112   0.659  0.00  0.00    +0.000 A 
ATOM     23  H   UNL     1       2.705   0.780  -0.643  0.00  0.00    +0.000 HD
ATOM     24  H   UNL     1       2.412  -0.755  -1.207  0.00  0.00    +0.000 HD
BRANCH  21  25
ATOM     25  C   UNL     1      -1.896  -1.842   1.646  0.00  0.00    +0.000 C 
ATOM     26  F   UNL     1      -3.072  -1.266   2.058  0.00  0.00    +0.000 F 
ATOM     27  F   UNL     1      -2.284  -2.752   0.713  0.00  0.00    +0.000 F 
ATOM     28  F   UNL     1      -1.451  -2.514   2.739  0.00  0.00    +0.000 F 
ENDBRANCH  21  25
ENDBRANCH  12  22
ENDBRANCH   1  14
BRANCH   1  29
ATOM     29  C   UNL     1       2.444  -4.827  -0.988  0.00  0.00    +0.000 C 
BRANCH  29  30
ATOM     30  C   UNL     1       2.948  -4.264  -2.307  0.00  0.00    +0.000 A 
ATOM     31  C   UNL     1       3.921  -4.937  -3.064  0.00  0.00    +0.000 A 
ATOM     32  C   UNL     1       4.493  -4.332  -4.187  0.00  0.00    +0.000 A 
ATOM     33  C   UNL     1       4.075  -3.061  -4.565  0.00  0.00    +0.000 A 
ATOM     34  C   UNL     1       3.049  -2.420  -3.885  0.00  0.00    +0.000 A 
ATOM     35  C   UNL     1       2.475  -3.030  -2.771  0.00  0.00    +0.000 A 
BRANCH  33  36
ATOM     36  O   UNL     1       4.658  -2.401  -5.604  0.00  0.00    +0.000 OA
ATOM     37  H   UNL     1       5.506  -2.831  -5.803  0.00  0.00    +0.000 HD
ENDBRANCH  33  36
ENDBRANCH  29  30
ENDBRANCH   1  29
TORSDOF 7
