REMARK  Name = 
REMARK  7 active torsions:
REMARK  status: ('A' for Active; 'I' for Inactive)
REMARK    1  A    between atoms: C_2  and  C_4
REMARK    2  A    between atoms: C_4  and  N_5
REMARK    3  A    between atoms: N_5  and  C_6
REMARK    4  A    between atoms: C_6  and  C_7
REMARK    5  A    between atoms: C_10  and  C_11
REMARK    6  A    between atoms: C_19  and  C_21
REMARK    7  A    between atoms: C_21  and  N_22
REMARK                            x       y       z     vdW  Elec       q    Type
REMARK                         _______ _______ _______ _____ _____    ______ ____
ROOT
ATOM      1  N   UNL     1       4.581  -0.761   0.786  0.00  0.00    +0.000 N 
ATOM      2  C   UNL     1       5.410  -1.783   1.293  0.00  0.00    +0.000 C 
ATOM      3  O   UNL     1       4.981  -2.601   2.111  0.00  0.00    +0.000 OA
ENDROOT
BRANCH   1   4
ATOM      4  C   UNL     1       4.928   0.171  -0.310  0.00  0.00    +0.000 C 
BRANCH   4   5
ATOM      5  C   UNL     1       6.197   0.989  -0.161  0.00  0.00    +0.000 A 
ATOM      6  C   UNL     1       6.927   1.368  -1.302  0.00  0.00    +0.000 A 
ATOM      7  C   UNL     1       8.115   2.115  -1.187  0.00  0.00    +0.000 A 
ATOM      8  C   UNL     1       8.603   2.509   0.072  0.00  0.00    +0.000 A 
ATOM      9  C   UNL     1       7.857   2.122   1.196  0.00  0.00    +0.000 A 
ATOM     10  C   UNL     1       6.671   1.401   1.079  0.00  0.00    +0.000 A 
BRANCH   8  11
ATOM     11  C   UNL     1       9.802   3.359   0.237  0.00  0.00    +0.000 A 
ATOM     12  C   UNL     1      10.100   4.388  -0.676  0.00  0.00    +0.000 A 
ATOM     13  C   UNL     1      11.163   5.268  -0.453  0.00  0.00    +0.000 A 
ATOM     14  C   UNL     1      11.948   5.146   0.690  0.00  0.00    +0.000 A 
ATOM     15  C   UNL     1      11.689   4.127   1.598  0.00  0.00    +0.000 A 
ATOM     16  C   UNL     1      10.638   3.236   1.364  0.00  0.00    +0.000 A 
ENDBRANCH   8  11
ENDBRANCH   4   5
ENDBRANCH   1   4
BRANCH   1  17
ATOM     17  C   UNL     1       3.135  -0.945   1.019  0.00  0.00    +0.000 C 
BRANCH  17  19
ATOM     18  N   UNL     1       3.308   0.846   2.713  0.00  0.00    +0.000 N 
ATOM     19  C   UNL     1       2.533  -0.137   2.174  0.00  0.00    +0.000 C 
ATOM     20  O   UNL     1       1.373  -0.279   2.551  0.00  0.00    +0.000 OA
ATOM     21  H   UNL     1       2.948   1.294   3.546  0.00  0.00    +0.000 HD
ATOM     22  H   UNL     1       4.306   0.793   2.601  0.00  0.00    +0.000 HD
ENDBRANCH  17  19
ENDBRANCH   1  17
BRANCH   2  23
ATOM     23  C   UNL     1       6.884  -1.740   0.913  0.00  0.00    +0.000 C 
BRANCH  23  24
ATOM     24  N   UNL     1       7.702  -2.960   1.008  0.00  0.00    +0.000 N 
ATOM     25  N   UNL     1       8.824  -2.761   1.840  0.00  0.00    +0.000 NA
ATOM     26  C   UNL     1       9.906  -2.348   1.258  0.00  0.00    +0.000 A 
ATOM     27  C   UNL     1       9.983  -2.132  -0.183  0.00  0.00    +0.000 A 
ATOM     28  C   UNL     1      10.838  -1.187  -0.743  0.00  0.00    +0.000 A 
ATOM     29  C   UNL     1      10.780  -0.968  -2.121  0.00  0.00    +0.000 A 
ATOM     30  C   UNL     1       9.923  -1.728  -2.926  0.00  0.00    +0.000 A 
ATOM     31  C   UNL     1       9.071  -2.674  -2.353  0.00  0.00    +0.000 A 
ATOM     32  C   UNL     1       9.077  -2.837  -0.969  0.00  0.00    +0.000 A 
ATOM     33  C   UNL     1       7.939  -3.493  -0.279  0.00  0.00    +0.000 A 
ATOM     34  O   UNL     1       7.145  -4.182  -0.908  0.00  0.00    +0.000 OA
ENDBRANCH  23  24
ENDBRANCH   2  23
TORSDOF 7
