REMARK  Name = 
REMARK  6 active torsions:
REMARK  status: ('A' for Active; 'I' for Inactive)
REMARK    1  A    between atoms: C_1  and  C_2
REMARK    2  A    between atoms: C_5  and  C_6
REMARK    3  A    between atoms: N_8  and  C_9
REMARK    4  A    between atoms: C_9  and  C_10
REMARK    5  A    between atoms: C_13  and  C_14
REMARK    6  A    between atoms: C_29  and  C_30
REMARK                            x       y       z     vdW  Elec       q    Type
REMARK                         _______ _______ _______ _____ _____    ______ ____
ROOT
ATOM      1  C   UNL     1      -3.140  -1.452  -0.015  0.00  0.00    +0.000 A 
ATOM      2  N   UNL     1      -3.968  -1.197  -0.986  0.00  0.00    +0.000 NA
ATOM      3  N   UNL     1      -5.159  -1.875  -1.081  0.00  0.00    +0.000 N 
ATOM      4  C   UNL     1      -5.535  -2.903  -0.225  0.00  0.00    +0.000 A 
ATOM      5  O   UNL     1      -6.566  -3.562  -0.348  0.00  0.00    +0.000 OA
ATOM      6  C   UNL     1      -4.614  -3.203   0.884  0.00  0.00    +0.000 A 
ATOM      7  C   UNL     1      -4.917  -4.249   1.772  0.00  0.00    +0.000 A 
ATOM      8  C   UNL     1      -4.064  -4.536   2.835  0.00  0.00    +0.000 A 
ATOM      9  C   UNL     1      -2.946  -3.739   3.050  0.00  0.00    +0.000 A 
ATOM     10  C   UNL     1      -2.667  -2.676   2.186  0.00  0.00    +0.000 A 
ATOM     11  C   UNL     1      -3.458  -2.447   1.049  0.00  0.00    +0.000 A 
ENDROOT
BRANCH   1  16
ATOM     12  C   UNL     1       1.846   1.571  -0.049  0.00  0.00    +0.000 C 
ATOM     13  C   UNL     1       0.582   0.755  -0.055  0.00  0.00    +0.000 A 
ATOM     14  C   UNL     1      -0.605   1.321  -0.544  0.00  0.00    +0.000 A 
ATOM     15  C   UNL     1      -1.804   0.600  -0.527  0.00  0.00    +0.000 A 
ATOM     16  C   UNL     1      -1.831  -0.713  -0.048  0.00  0.00    +0.000 A 
ATOM     17  C   UNL     1      -0.626  -1.309   0.341  0.00  0.00    +0.000 A 
ATOM     18  C   UNL     1       0.566  -0.571   0.414  0.00  0.00    +0.000 A 
ATOM     19  C   UNL     1       1.787  -1.211   1.015  0.00  0.00    +0.000 C 
ENDBRANCH   1  16
BRANCH   3  20
ATOM     20  C   UNL     1      -5.920  -1.661  -2.307  0.00  0.00    +0.000 C 
BRANCH  20  21
ATOM     21  C   UNL     1      -6.992  -0.604  -2.229  0.00  0.00    +0.000 A 
ATOM     22  C   UNL     1      -8.282  -0.913  -1.772  0.00  0.00    +0.000 A 
ATOM     23  C   UNL     1      -9.319   0.018  -1.893  0.00  0.00    +0.000 A 
ATOM     24  C   UNL     1      -9.070   1.273  -2.463  0.00  0.00    +0.000 A 
ATOM     25  C   UNL     1      -7.767   1.624  -2.828  0.00  0.00    +0.000 A 
ATOM     26  C   UNL     1      -6.747   0.684  -2.712  0.00  0.00    +0.000 A 
ATOM     27  F   UNL     1      -5.522   1.018  -3.143  0.00  0.00    +0.000 F 
BRANCH  24  28
ATOM     28  C   UNL     1     -10.160   2.243  -2.738  0.00  0.00    +0.000 C 
ATOM     29  N   UNL     1     -11.393   1.721  -3.023  0.00  0.00    +0.000 N 
ATOM     30  O   UNL     1      -9.957   3.448  -2.783  0.00  0.00    +0.000 OA
ATOM     31  H   UNL     1     -11.524   0.746  -3.252  0.00  0.00    +0.000 HD
ATOM     32  H   UNL     1     -12.085   2.377  -3.364  0.00  0.00    +0.000 HD
ENDBRANCH  24  28
ENDBRANCH  20  21
ENDBRANCH   3  20
TORSDOF 4
