REMARK  Name = 
REMARK  6 active torsions:
REMARK  status: ('A' for Active; 'I' for Inactive)
REMARK    1  A    between atoms: C_2  and  C_21
REMARK    2  A    between atoms: N_3  and  C_4
REMARK    3  A    between atoms: C_4  and  C_5
REMARK    4  A    between atoms: C_8  and  N_9
REMARK    5  A    between atoms: C_10  and  C_12
REMARK    6  A    between atoms: C_17  and  O_18
REMARK                            x       y       z     vdW  Elec       q    Type
REMARK                         _______ _______ _______ _____ _____    ______ ____
ROOT
ATOM      1  C   UNL     1       3.389  -1.775  -3.011  0.00  0.00    +0.000 A 
ATOM      2  C   UNL     1       4.225  -0.907  -3.720  0.00  0.00    +0.000 A 
ATOM      3  C   UNL     1       5.103  -1.394  -4.690  0.00  0.00    +0.000 A 
ATOM      4  C   UNL     1       5.168  -2.756  -4.984  0.00  0.00    +0.000 A 
ATOM      5  C   UNL     1       4.307  -3.626  -4.303  0.00  0.00    +0.000 A 
ATOM      6  C   UNL     1       3.420  -3.139  -3.329  0.00  0.00    +0.000 A 
ENDROOT
BRANCH   4   7
ATOM      7  N   UNL     1       6.074  -3.304  -5.919  0.00  0.00    +0.000 N 
ATOM      8  C   UNL     1       7.017  -2.620  -6.663  0.00  0.00    +0.000 C 
ATOM      9  O   UNL     1       7.159  -1.399  -6.682  0.00  0.00    +0.000 OA
ATOM     10  H   UNL     1       6.072  -4.316  -6.031  0.00  0.00    +0.000 HD
BRANCH   8  11
ATOM     11  C   UNL     1       7.960  -3.432  -7.496  0.00  0.00    +0.000 A 
ATOM     12  C   UNL     1       8.921  -2.718  -8.238  0.00  0.00    +0.000 A 
ATOM     13  C   UNL     1       9.885  -3.379  -8.999  0.00  0.00    +0.000 A 
ATOM     14  C   UNL     1       9.902  -4.769  -9.031  0.00  0.00    +0.000 A 
ATOM     15  C   UNL     1       8.946  -5.496  -8.319  0.00  0.00    +0.000 A 
ATOM     16  C   UNL     1       7.976  -4.832  -7.559  0.00  0.00    +0.000 A 
BRANCH  16  17
ATOM     17  O   UNL     1       7.048  -5.579  -6.879  0.00  0.00    +0.000 OA
ATOM     18  H   UNL     1       7.202  -6.520  -7.079  0.00  0.00    +0.000 HD
ENDBRANCH  16  17
ENDBRANCH   8  11
ENDBRANCH   4   7
BRANCH   1  19
ATOM     19  C   UNL     1       2.443  -1.217  -1.981  0.00  0.00    +0.000 C 
BRANCH  19  22
ATOM     20  O   UNL     1      -0.099  -0.657  -0.756  0.00  0.00    +0.000 OA
ATOM     21  C   UNL     1       0.066  -0.485  -1.958  0.00  0.00    +0.000 C 
ATOM     22  N   UNL     1       1.254  -0.717  -2.618  0.00  0.00    +0.000 N 
ATOM     23  H   UNL     1       1.291  -0.484  -3.607  0.00  0.00    +0.000 HD
BRANCH  21  24
ATOM     24  C   UNL     1      -1.041  -0.036  -2.850  0.00  0.00    +0.000 A 
ATOM     25  C   UNL     1      -2.309   0.233  -2.370  0.00  0.00    +0.000 A 
ATOM     26  C   UNL     1      -3.321   0.492  -3.303  0.00  0.00    +0.000 A 
ATOM     27  C   UNL     1      -4.653   0.724  -2.915  0.00  0.00    +0.000 A 
ATOM     28  C   UNL     1      -5.647   0.899  -3.879  0.00  0.00    +0.000 A 
ATOM     29  C   UNL     1      -5.317   0.860  -5.229  0.00  0.00    +0.000 A 
ATOM     30  C   UNL     1      -3.990   0.665  -5.611  0.00  0.00    +0.000 A 
ATOM     31  C   UNL     1      -2.985   0.481  -4.672  0.00  0.00    +0.000 A 
ATOM     32  N   UNL     1      -1.724   0.271  -5.078  0.00  0.00    +0.000 NA
ATOM     33  N   UNL     1      -0.741   0.006  -4.170  0.00  0.00    +0.000 NA
ENDBRANCH  21  24
ENDBRANCH  19  22
ENDBRANCH   1  19
TORSDOF 6
