REMARK  Name = 
REMARK  8 active torsions:
REMARK  status: ('A' for Active; 'I' for Inactive)
REMARK    1  A    between atoms: C_1  and  O_2
REMARK    2  A    between atoms: O_2  and  C_3
REMARK    3  A    between atoms: C_6  and  C_7
REMARK    4  A    between atoms: C_11  and  C_12
REMARK    5  A    between atoms: C_12  and  O_13
REMARK    6  A    between atoms: O_13  and  C_14
REMARK    7  A    between atoms: C_14  and  C_16
REMARK    8  A    between atoms: N_22  and  C_23
REMARK                            x       y       z     vdW  Elec       q    Type
REMARK                         _______ _______ _______ _____ _____    ______ ____
ROOT
ATOM      1  C   UNL     1       6.436  -7.796  -1.338  0.00  0.00    +0.000 C 
ENDROOT
BRANCH   1   6
ATOM      2  C   UNL     1       5.347  -4.284  -2.437  0.00  0.00    +0.000 A 
ATOM      3  C   UNL     1       5.995  -4.194  -3.681  0.00  0.00    +0.000 A 
ATOM      4  C   UNL     1       6.751  -5.257  -4.184  0.00  0.00    +0.000 A 
ATOM      5  C   UNL     1       6.899  -6.427  -3.437  0.00  0.00    +0.000 A 
ATOM      6  C   UNL     1       6.283  -6.550  -2.185  0.00  0.00    +0.000 A 
ATOM      7  C   UNL     1       5.492  -5.491  -1.722  0.00  0.00    +0.000 A 
BRANCH   2  11
ATOM      8  C   UNL     1       3.018  -1.050  -0.758  0.00  0.00    +0.000 A 
ATOM      9  C   UNL     1       3.120  -1.194  -2.139  0.00  0.00    +0.000 A 
ATOM     10  C   UNL     1       3.874  -2.243  -2.687  0.00  0.00    +0.000 A 
ATOM     11  C   UNL     1       4.557  -3.163  -1.874  0.00  0.00    +0.000 A 
ATOM     12  C   UNL     1       4.455  -2.979  -0.483  0.00  0.00    +0.000 A 
ATOM     13  C   UNL     1       3.689  -1.948   0.066  0.00  0.00    +0.000 A 
BRANCH   8  15
ATOM     14  C   UNL     1       1.643   0.879  -0.889  0.00  0.00    +0.000 C 
ATOM     15  O   UNL     1       2.308  -0.091  -0.093  0.00  0.00    +0.000 OA
ENDBRANCH   8  15
ENDBRANCH   2  11
ENDBRANCH   1   6
BRANCH   1  16
ATOM     16  O   UNL     1       6.868  -7.540   0.027  0.00  0.00    +0.000 OA
BRANCH  16  17
ATOM     17  C   UNL     1       8.200  -7.312   0.111  0.00  0.00    +0.000 C 
ATOM     18  O   UNL     1       8.930  -7.167  -0.864  0.00  0.00    +0.000 OA
BRANCH  17  19
ATOM     19  C   UNL     1       8.789  -7.430   1.486  0.00  0.00    +0.000 A 
ATOM     20  C   UNL     1      10.187  -7.571   1.450  0.00  0.00    +0.000 A 
ATOM     21  C   UNL     1      10.917  -7.857   2.589  0.00  0.00    +0.000 A 
ATOM     22  C   UNL     1      10.285  -7.938   3.818  0.00  0.00    +0.000 A 
ATOM     23  N   UNL     1      11.111  -8.256   4.892  0.00  0.00    +0.000 NA
ATOM     24  C   UNL     1      10.624  -8.131   6.071  0.00  0.00    +0.000 A 
ATOM     25  N   UNL     1       9.337  -7.753   6.347  0.00  0.00    +0.000 N 
ATOM     26  C   UNL     1       9.060  -7.472   7.744  0.00  0.00    +0.000 C 
ATOM     27  C   UNL     1       8.391  -7.554   5.327  0.00  0.00    +0.000 A 
ATOM     28  O   UNL     1       7.218  -7.266   5.522  0.00  0.00    +0.000 OA
ATOM     29  C   UNL     1       8.912  -7.673   3.920  0.00  0.00    +0.000 A 
ATOM     30  C   UNL     1       8.139  -7.456   2.741  0.00  0.00    +0.000 A 
ENDBRANCH  17  19
ENDBRANCH  16  17
ENDBRANCH   1  16
TORSDOF 6
