REMARK  Name = 
REMARK  6 active torsions:
REMARK  status: ('A' for Active; 'I' for Inactive)
REMARK    1  A    between atoms: C_1  and  N_2
REMARK    2  A    between atoms: N_2  and  C_3
REMARK    3  A    between atoms: C_3  and  C_4
REMARK    4  A    between atoms: C_11  and  C_13
REMARK    5  A    between atoms: C_16  and  N_17
REMARK    6  A    between atoms: C_21  and  C_22
REMARK                            x       y       z     vdW  Elec       q    Type
REMARK                         _______ _______ _______ _____ _____    ______ ____
ROOT
ATOM      1  C   UNL     1       4.761  -0.707   1.211  0.00  0.00    +0.000 A 
ATOM      2  C   UNL     1       5.506   0.467   1.358  0.00  0.00    +0.000 A 
ATOM      3  C   UNL     1       6.901   0.421   1.408  0.00  0.00    +0.000 A 
ATOM      4  C   UNL     1       7.559  -0.811   1.335  0.00  0.00    +0.000 A 
ATOM      5  C   UNL     1       6.817  -1.998   1.346  0.00  0.00    +0.000 A 
ATOM      6  C   UNL     1       5.419  -1.942   1.263  0.00  0.00    +0.000 A 
ENDROOT
BRANCH   4   7
ATOM      7  N   UNL     1       8.973  -0.827   1.177  0.00  0.00    +0.000 N 
ATOM      8  N   UNL     1       9.712   0.171   1.737  0.00  0.00    +0.000 NA
ATOM      9  C   UNL     1      10.974  -0.202   1.546  0.00  0.00    +0.000 A 
ATOM     10  C   UNL     1      11.074  -1.358   0.765  0.00  0.00    +0.000 A 
ATOM     11  C   UNL     1       9.773  -1.713   0.441  0.00  0.00    +0.000 A 
BRANCH  11  12
ATOM     12  C   UNL     1       9.318  -2.719  -0.538  0.00  0.00    +0.000 A 
ATOM     13  C   UNL     1      10.057  -3.896  -0.740  0.00  0.00    +0.000 A 
ATOM     14  C   UNL     1       9.620  -4.870  -1.644  0.00  0.00    +0.000 A 
ATOM     15  C   UNL     1       8.428  -4.683  -2.334  0.00  0.00    +0.000 A 
ATOM     16  F   UNL     1       7.991  -5.634  -3.170  0.00  0.00    +0.000 F 
ATOM     17  C   UNL     1       7.694  -3.520  -2.178  0.00  0.00    +0.000 A 
ATOM     18  C   UNL     1       8.164  -2.526  -1.318  0.00  0.00    +0.000 A 
ENDBRANCH  11  12
ENDBRANCH   4   7
BRANCH   1  21
ATOM     19  C   UNL     1       1.139   0.176   0.398  0.00  0.00    +0.000 C 
ATOM     20  N   UNL     1       2.590   0.291   0.399  0.00  0.00    +0.000 N 
ATOM     21  C   UNL     1       3.277  -0.717   1.086  0.00  0.00    +0.000 C 
ATOM     22  O   UNL     1       2.682  -1.658   1.615  0.00  0.00    +0.000 OA
BRANCH  20  23
ATOM     23  C   UNL     1       3.171   1.139  -0.652  0.00  0.00    +0.000 C 
BRANCH  23  24
ATOM     24  C   UNL     1       3.261   2.590  -0.245  0.00  0.00    +0.000 A 
ATOM     25  C   UNL     1       2.849   3.148   0.911  0.00  0.00    +0.000 A 
ATOM     26  C   UNL     1       3.046   4.550   1.192  0.00  0.00    +0.000 A 
ATOM     27  C   UNL     1       3.653   5.331   0.294  0.00  0.00    +0.000 A 
ATOM     28  N   UNL     1       4.082   4.795  -0.894  0.00  0.00    +0.000 N 
ATOM     29  C   UNL     1       3.931   3.476  -1.246  0.00  0.00    +0.000 A 
ATOM     30  O   UNL     1       4.337   3.043  -2.324  0.00  0.00    +0.000 OA
ATOM     31  H   UNL     1       4.545   5.384  -1.580  0.00  0.00    +0.000 HD
ENDBRANCH  23  24
ENDBRANCH  20  23
ENDBRANCH   1  21
TORSDOF 5
