REMARK  Name = 
REMARK  5 active torsions:
REMARK  status: ('A' for Active; 'I' for Inactive)
REMARK    1  A    between atoms: C_1  and  C_2
REMARK    2  A    between atoms: C_5  and  N_6
REMARK    3  A    between atoms: C_7  and  C_9
REMARK    4  A    between atoms: C_21  and  C_22
REMARK    5  A    between atoms: C_22  and  C_24
REMARK                            x       y       z     vdW  Elec       q    Type
REMARK                         _______ _______ _______ _____ _____    ______ ____
ROOT
ATOM      1  N   UNL     1      -3.252   0.380   0.151  0.00  0.00    +0.000 N 
ATOM      2  C   UNL     1      -3.986   1.550   0.167  0.00  0.00    +0.000 C 
ATOM      3  O   UNL     1      -3.510   2.691   0.124  0.00  0.00    +0.000 OA
ATOM      4  H   UNL     1      -3.751  -0.500   0.155  0.00  0.00    +0.000 HD
ENDROOT
BRANCH   2   5
ATOM      5  C   UNL     1      -5.464   1.476   0.275  0.00  0.00    +0.000 A 
ATOM      6  C   UNL     1      -6.107   2.608   0.827  0.00  0.00    +0.000 A 
ATOM      7  C   UNL     1      -7.495   2.708   0.873  0.00  0.00    +0.000 A 
ATOM      8  C   UNL     1      -8.251   1.640   0.411  0.00  0.00    +0.000 A 
ATOM      9  C   UNL     1      -9.707   1.696   0.420  0.00  0.00    +0.000 A 
ATOM     10  N   UNL     1     -10.467   0.661   0.258  0.00  0.00    +0.000 NA
ATOM     11  N   UNL     1      -9.844  -0.526  -0.003  0.00  0.00    +0.000 N 
ATOM     12  C   UNL     1      -8.511  -0.678  -0.324  0.00  0.00    +0.000 A 
ATOM     13  O   UNL     1      -8.041  -1.728  -0.749  0.00  0.00    +0.000 OA
ATOM     14  C   UNL     1      -7.641   0.479  -0.054  0.00  0.00    +0.000 A 
ATOM     15  C   UNL     1      -6.245   0.398  -0.171  0.00  0.00    +0.000 A 
ATOM     16  H   UNL     1     -10.451  -1.336  -0.107  0.00  0.00    +0.000 HD
ENDBRANCH   2   5
BRANCH   1  21
ATOM     17  C   UNL     1       2.492  -0.048  -0.091  0.00  0.00    +0.000 C 
ATOM     18  C   UNL     1       0.996   0.010   0.043  0.00  0.00    +0.000 A 
ATOM     19  C   UNL     1       0.396   1.269   0.156  0.00  0.00    +0.000 A 
ATOM     20  C   UNL     1      -0.992   1.405   0.219  0.00  0.00    +0.000 A 
ATOM     21  C   UNL     1      -1.834   0.293   0.138  0.00  0.00    +0.000 A 
ATOM     22  C   UNL     1      -1.238  -0.973   0.058  0.00  0.00    +0.000 A 
ATOM     23  C   UNL     1       0.170  -1.129   0.063  0.00  0.00    +0.000 A 
BRANCH  23  24
ATOM     24  C   UNL     1       0.752  -2.510   0.069  0.00  0.00    +0.000 C 
ATOM     25  O   UNL     1       1.787  -2.745  -0.546  0.00  0.00    +0.000 OA
BRANCH  24  26
ATOM     26  C   UNL     1       0.090  -3.636   0.794  0.00  0.00    +0.000 A 
ATOM     27  C   UNL     1      -0.686  -3.438   1.943  0.00  0.00    +0.000 A 
ATOM     28  C   UNL     1      -1.317  -4.522   2.558  0.00  0.00    +0.000 A 
ATOM     29  C   UNL     1      -1.148  -5.810   2.050  0.00  0.00    +0.000 A 
ATOM     30  C   UNL     1      -0.338  -6.019   0.935  0.00  0.00    +0.000 A 
ATOM     31  C   UNL     1       0.283  -4.935   0.311  0.00  0.00    +0.000 A 
ENDBRANCH  24  26
ENDBRANCH  23  24
ENDBRANCH   1  21
TORSDOF 4
