REMARK  Name = 
REMARK  6 active torsions:
REMARK  status: ('A' for Active; 'I' for Inactive)
REMARK    1  A    between atoms: C_2  and  O_3
REMARK    2  A    between atoms: C_2  and  C_18
REMARK    3  A    between atoms: O_3  and  C_4
REMARK    4  A    between atoms: C_4  and  C_5
REMARK    5  A    between atoms: N_7  and  C_8
REMARK    6  A    between atoms: C_23  and  C_24
REMARK                            x       y       z     vdW  Elec       q    Type
REMARK                         _______ _______ _______ _____ _____    ______ ____
ROOT
ATOM      1  O   UNL     1       2.858  -0.559  -1.060  0.00  0.00    +0.000 OA
ENDROOT
BRANCH   1   3
ATOM      2  O   UNL     1       3.208   0.461   0.965  0.00  0.00    +0.000 OA
ATOM      3  C   UNL     1       2.471   0.093   0.064  0.00  0.00    +0.000 C 
BRANCH   3   4
ATOM      4  C   UNL     1       1.015   0.373   0.003  0.00  0.00    +0.000 A 
ATOM      5  C   UNL     1       0.155  -0.601  -0.533  0.00  0.00    +0.000 A 
ATOM      6  C   UNL     1      -1.222  -0.393  -0.538  0.00  0.00    +0.000 A 
ATOM      7  C   UNL     1      -1.702   0.776   0.014  0.00  0.00    +0.000 A 
ATOM      8  N   UNL     1      -0.905   1.738   0.523  0.00  0.00    +0.000 NA
ATOM      9  C   UNL     1       0.452   1.557   0.502  0.00  0.00    +0.000 A 
BRANCH   9  10
ATOM     10  C   UNL     1       1.181   2.768   0.952  0.00  0.00    +0.000 A 
ATOM     11  C   UNL     1       0.672   3.561   1.994  0.00  0.00    +0.000 A 
ATOM     12  C   UNL     1       1.312   4.744   2.334  0.00  0.00    +0.000 A 
ATOM     13  N   UNL     1       2.427   5.194   1.726  0.00  0.00    +0.000 NA
ATOM     14  C   UNL     1       2.912   4.429   0.729  0.00  0.00    +0.000 A 
ATOM     15  C   UNL     1       2.330   3.244   0.305  0.00  0.00    +0.000 A 
ENDBRANCH   9  10
ENDBRANCH   3   4
ENDBRANCH   1   3
BRANCH   1  16
ATOM     16  C   UNL     1       4.285  -0.740  -1.197  0.00  0.00    +0.000 C 
BRANCH  16  17
ATOM     17  C   UNL     1       4.848  -1.879  -0.404  0.00  0.00    +0.000 A 
ATOM     18  N   UNL     1       4.374  -3.127  -0.532  0.00  0.00    +0.000 NA
ATOM     19  N   UNL     1       5.108  -3.881   0.337  0.00  0.00    +0.000 N 
ATOM     20  C   UNL     1       6.084  -3.121   0.941  0.00  0.00    +0.000 A 
ATOM     21  C   UNL     1       5.931  -1.831   0.497  0.00  0.00    +0.000 A 
BRANCH  19  22
ATOM     22  C   UNL     1       4.802  -5.258   0.525  0.00  0.00    +0.000 A 
ATOM     23  C   UNL     1       3.769  -5.840  -0.233  0.00  0.00    +0.000 A 
ATOM     24  C   UNL     1       3.419  -7.179  -0.041  0.00  0.00    +0.000 A 
ATOM     25  C   UNL     1       4.099  -7.937   0.904  0.00  0.00    +0.000 A 
ATOM     26  F   UNL     1       3.754  -9.216   1.097  0.00  0.00    +0.000 F 
ATOM     27  C   UNL     1       5.128  -7.386   1.653  0.00  0.00    +0.000 A 
ATOM     28  C   UNL     1       5.478  -6.051   1.459  0.00  0.00    +0.000 A 
ATOM     29  F   UNL     1       6.474  -5.571   2.216  0.00  0.00    +0.000 F 
ENDBRANCH  19  22
ENDBRANCH  16  17
ENDBRANCH   1  16
TORSDOF 6
