REMARK  Name = 
REMARK  4 active torsions:
REMARK  status: ('A' for Active; 'I' for Inactive)
REMARK    1  A    between atoms: C_2  and  N_3
REMARK    2  A    between atoms: C_2  and  C_18
REMARK    3  A    between atoms: S_4  and  C_6
REMARK    4  A    between atoms: S_4  and  C_12
REMARK                            x       y       z     vdW  Elec       q    Type
REMARK                         _______ _______ _______ _____ _____    ______ ____
ROOT
ATOM      1  N   UNL     1       3.018  -0.272  -1.281  0.00  0.00    +0.000 NA
ATOM      2  S   UNL     1       2.186  -0.708  -2.498  0.00  0.00    +0.000 S 
ATOM      3  O   UNL     1       1.306  -1.867  -2.487  0.00  0.00    +0.000 OA
ENDROOT
BRANCH   2   4
ATOM      4  C   UNL     1       1.199   0.692  -3.005  0.00  0.00    +0.000 A 
ATOM      5  C   UNL     1       1.819   1.892  -3.368  0.00  0.00    +0.000 A 
ATOM      6  C   UNL     1       1.040   2.965  -3.805  0.00  0.00    +0.000 A 
ATOM      7  C   UNL     1      -0.349   2.840  -3.870  0.00  0.00    +0.000 A 
ATOM      8  C   UNL     1      -0.964   1.646  -3.493  0.00  0.00    +0.000 A 
ATOM      9  C   UNL     1      -0.192   0.568  -3.059  0.00  0.00    +0.000 A 
ENDBRANCH   2   4
BRANCH   2  10
ATOM     10  C   UNL     1       3.332  -1.016  -3.832  0.00  0.00    +0.000 A 
ATOM     11  C   UNL     1       3.012  -1.975  -4.792  0.00  0.00    +0.000 A 
ATOM     12  C   UNL     1       3.924  -2.194  -5.806  0.00  0.00    +0.000 A 
ATOM     13  N   UNL     1       5.094  -1.530  -5.916  0.00  0.00    +0.000 NA
ATOM     14  C   UNL     1       5.380  -0.619  -4.960  0.00  0.00    +0.000 A 
ATOM     15  C   UNL     1       4.543  -0.330  -3.898  0.00  0.00    +0.000 A 
ENDBRANCH   2  10
BRANCH   1  17
ATOM     16  O   UNL     1       1.218  -0.161   0.157  0.00  0.00    +0.000 OA
ATOM     17  C   UNL     1       2.428  -0.298  -0.007  0.00  0.00    +0.000 C 
BRANCH  17  18
ATOM     18  C   UNL     1       3.323  -0.367   1.210  0.00  0.00    +0.000 A 
ATOM     19  C   UNL     1       2.746  -0.286   2.418  0.00  0.00    +0.000 A 
ATOM     20  C   UNL     1       3.597  -0.217   3.614  0.00  0.00    +0.000 A 
ATOM     21  O   UNL     1       3.109  -0.190   4.735  0.00  0.00    +0.000 OA
ATOM     22  C   UNL     1       5.046  -0.144   3.382  0.00  0.00    +0.000 A 
ATOM     23  C   UNL     1       5.928   0.108   4.437  0.00  0.00    +0.000 A 
ATOM     24  C   UNL     1       7.298   0.168   4.186  0.00  0.00    +0.000 A 
ATOM     25  C   UNL     1       7.782  -0.048   2.893  0.00  0.00    +0.000 A 
ATOM     26  C   UNL     1       6.895  -0.291   1.841  0.00  0.00    +0.000 A 
ATOM     27  C   UNL     1       5.522  -0.314   2.084  0.00  0.00    +0.000 A 
ATOM     28  O   UNL     1       4.693  -0.476   1.003  0.00  0.00    +0.000 OA
ENDBRANCH  17  18
ENDBRANCH   1  17
TORSDOF 4
