REMARK  Name = 
REMARK  5 active torsions:
REMARK  status: ('A' for Active; 'I' for Inactive)
REMARK    1  A    between atoms: N_3  and  C_4
REMARK    2  A    between atoms: C_4  and  C_5
REMARK    3  A    between atoms: C_8  and  C_9
REMARK    4  A    between atoms: N_18  and  C_19
REMARK    5  A    between atoms: C_24  and  C_25
REMARK                            x       y       z     vdW  Elec       q    Type
REMARK                         _______ _______ _______ _____ _____    ______ ____
ROOT
ATOM      1  O   UNL     1       1.047  -0.009  -0.113  0.00  0.00    +0.000 OA
ATOM      2  C   UNL     1       2.272   0.022  -0.105  0.00  0.00    +0.000 C 
ATOM      3  N   UNL     1       2.991   0.509  -1.167  0.00  0.00    +0.000 N 
ATOM      4  N   UNL     1       3.079  -0.382   0.928  0.00  0.00    +0.000 N 
ATOM      5  H   UNL     1       3.983   0.332  -1.200  0.00  0.00    +0.000 HD
ATOM      6  H   UNL     1       4.038  -0.035   0.929  0.00  0.00    +0.000 HD
ENDROOT
BRANCH   4   7
ATOM      7  C   UNL     1       2.669  -0.953   2.161  0.00  0.00    +0.000 A 
ATOM      8  C   UNL     1       1.392  -1.502   2.317  0.00  0.00    +0.000 A 
ATOM      9  C   UNL     1       0.992  -2.020   3.545  0.00  0.00    +0.000 A 
ATOM     10  C   UNL     1       1.895  -1.999   4.585  0.00  0.00    +0.000 A 
ATOM     11  N   UNL     1       3.147  -1.508   4.475  0.00  0.00    +0.000 NA
ATOM     12  C   UNL     1       3.541  -0.980   3.273  0.00  0.00    +0.000 A 
BRANCH  12  13
ATOM     13  C   UNL     1       4.919  -0.397   3.279  0.00  0.00    +0.000 A 
ATOM     14  C   UNL     1       5.689  -0.351   4.447  0.00  0.00    +0.000 A 
ATOM     15  C   UNL     1       6.943   0.258   4.431  0.00  0.00    +0.000 A 
ATOM     16  C   UNL     1       7.415   0.807   3.249  0.00  0.00    +0.000 A 
ATOM     17  C   UNL     1       6.615   0.712   2.125  0.00  0.00    +0.000 A 
ATOM     18  N   UNL     1       5.393   0.128   2.108  0.00  0.00    +0.000 NA
ENDBRANCH  12  13
ENDBRANCH   4   7
BRANCH   3  19
ATOM     19  C   UNL     1       2.332   0.963  -2.372  0.00  0.00    +0.000 C 
BRANCH  19  20
ATOM     20  C   UNL     1       2.698   2.388  -2.706  0.00  0.00    +0.000 A 
ATOM     21  C   UNL     1       3.311   2.705  -3.925  0.00  0.00    +0.000 A 
ATOM     22  C   UNL     1       3.615   4.034  -4.242  0.00  0.00    +0.000 A 
ATOM     23  C   UNL     1       3.304   5.063  -3.347  0.00  0.00    +0.000 A 
ATOM     24  C   UNL     1       2.684   4.752  -2.132  0.00  0.00    +0.000 A 
ATOM     25  C   UNL     1       2.380   3.425  -1.816  0.00  0.00    +0.000 A 
BRANCH  23  26
ATOM     26  C   UNL     1       3.651   6.457  -3.663  0.00  0.00    +0.000 A 
ATOM     27  C   UNL     1       2.772   7.210  -4.351  0.00  0.00    +0.000 A 
ATOM     28  N   UNL     1       3.053   8.522  -4.651  0.00  0.00    +0.000 N 
ATOM     29  C   UNL     1       4.209   9.165  -4.284  0.00  0.00    +0.000 A 
ATOM     30  O   UNL     1       4.436  10.338  -4.554  0.00  0.00    +0.000 OA
ATOM     31  C   UNL     1       5.191   8.344  -3.531  0.00  0.00    +0.000 A 
ATOM     32  C   UNL     1       4.906   7.065  -3.248  0.00  0.00    +0.000 A 
ATOM     33  H   UNL     1       2.381   9.080  -5.164  0.00  0.00    +0.000 HD
ENDBRANCH  23  26
ENDBRANCH  19  20
ENDBRANCH   3  19
TORSDOF 5
