REMARK  Name = 
REMARK  5 active torsions:
REMARK  status: ('A' for Active; 'I' for Inactive)
REMARK    1  A    between atoms: C_2  and  C_18
REMARK    2  A    between atoms: N_3  and  C_4
REMARK    3  A    between atoms: C_4  and  C_5
REMARK    4  A    between atoms: C_8  and  C_9
REMARK    5  A    between atoms: C_23  and  C_24
REMARK                            x       y       z     vdW  Elec       q    Type
REMARK                         _______ _______ _______ _____ _____    ______ ____
ROOT
ATOM      1  O   UNL     1       1.098  -0.168  -0.228  0.00  0.00    +0.000 OA
ATOM      2  C   UNL     1       2.306  -0.076  -0.052  0.00  0.00    +0.000 C 
ATOM      3  N   UNL     1       3.022  -1.011   0.668  0.00  0.00    +0.000 N 
ATOM      4  H   UNL     1       4.032  -0.995   0.694  0.00  0.00    +0.000 HD
ENDROOT
BRANCH   2   5
ATOM      5  C   UNL     1       3.076   1.075  -0.590  0.00  0.00    +0.000 A 
ATOM      6  C   UNL     1       4.344   0.832  -1.146  0.00  0.00    +0.000 A 
ATOM      7  C   UNL     1       5.079   1.877  -1.692  0.00  0.00    +0.000 A 
ATOM      8  C   UNL     1       4.512   3.134  -1.693  0.00  0.00    +0.000 A 
ATOM      9  N   UNL     1       3.298   3.404  -1.169  0.00  0.00    +0.000 NA
ATOM     10  C   UNL     1       2.575   2.388  -0.601  0.00  0.00    +0.000 A 
BRANCH  10  11
ATOM     11  C   UNL     1       1.310   2.868   0.017  0.00  0.00    +0.000 A 
ATOM     12  C   UNL     1       0.601   3.942  -0.548  0.00  0.00    +0.000 A 
ATOM     13  C   UNL     1      -0.562   4.397   0.058  0.00  0.00    +0.000 A 
ATOM     14  N   UNL     1      -1.086   3.859   1.177  0.00  0.00    +0.000 NA
ATOM     15  C   UNL     1      -0.401   2.835   1.719  0.00  0.00    +0.000 A 
ATOM     16  C   UNL     1       0.788   2.338   1.204  0.00  0.00    +0.000 A 
ENDBRANCH  10  11
ENDBRANCH   2   5
BRANCH   3  17
ATOM     17  C   UNL     1       2.365  -2.125   1.324  0.00  0.00    +0.000 C 
BRANCH  17  18
ATOM     18  C   UNL     1       2.171  -3.239   0.361  0.00  0.00    +0.000 A 
ATOM     19  N   UNL     1       3.094  -4.199   0.217  0.00  0.00    +0.000 NA
ATOM     20  O   UNL     1       2.594  -5.048  -0.756  0.00  0.00    +0.000 OA
ATOM     21  C   UNL     1       1.383  -4.593  -1.196  0.00  0.00    +0.000 A 
ATOM     22  C   UNL     1       1.073  -3.450  -0.501  0.00  0.00    +0.000 A 
BRANCH  21  23
ATOM     23  C   UNL     1       0.744  -5.358  -2.260  0.00  0.00    +0.000 A 
ATOM     24  C   UNL     1       1.324  -6.534  -2.765  0.00  0.00    +0.000 A 
ATOM     25  C   UNL     1       0.724  -7.235  -3.814  0.00  0.00    +0.000 A 
ATOM     26  C   UNL     1      -0.465  -6.769  -4.361  0.00  0.00    +0.000 A 
ATOM     27  F   UNL     1      -1.031  -7.439  -5.376  0.00  0.00    +0.000 F 
ATOM     28  C   UNL     1      -1.072  -5.622  -3.878  0.00  0.00    +0.000 A 
ATOM     29  C   UNL     1      -0.468  -4.927  -2.830  0.00  0.00    +0.000 A 
ATOM     30  F   UNL     1      -1.081  -3.819  -2.388  0.00  0.00    +0.000 F 
ENDBRANCH  21  23
ENDBRANCH  17  18
ENDBRANCH   3  17
TORSDOF 5
