REMARK  Name = 
REMARK  3 active torsions:
REMARK  status: ('A' for Active; 'I' for Inactive)
REMARK    1  A    between atoms: C_2  and  C_15
REMARK    2  A    between atoms: N_3  and  C_4
REMARK    3  A    between atoms: N_21  and  C_22
REMARK                            x       y       z     vdW  Elec       q    Type
REMARK                         _______ _______ _______ _____ _____    ______ ____
ROOT
ATOM      1  O   UNL     1       1.501  -0.995  -1.207  0.00  0.00    +0.000 OA
ATOM      2  C   UNL     1       2.070  -0.357  -0.323  0.00  0.00    +0.000 C 
ATOM      3  N   UNL     1       1.890   0.995  -0.073  0.00  0.00    +0.000 N 
ATOM      4  H   UNL     1       2.322   1.379   0.764  0.00  0.00    +0.000 HD
ENDROOT
BRANCH   3   5
ATOM      5  C   UNL     1       1.164   1.894  -0.895  0.00  0.00    +0.000 A 
ATOM      6  C   UNL     1       0.659   1.536  -2.152  0.00  0.00    +0.000 A 
ATOM      7  C   UNL     1       0.024   2.470  -2.978  0.00  0.00    +0.000 A 
ATOM      8  C   UNL     1      -0.106   3.790  -2.574  0.00  0.00    +0.000 A 
ATOM      9  N   UNL     1      -0.678   4.711  -3.466  0.00  0.00    +0.000 NA
ATOM     10  C   UNL     1      -0.711   5.945  -3.101  0.00  0.00    +0.000 A 
ATOM     11  N   UNL     1      -0.252   6.400  -1.900  0.00  0.00    +0.000 N 
ATOM     12  C   UNL     1       0.267   5.569  -0.939  0.00  0.00    +0.000 A 
ATOM     13  O   UNL     1       0.635   5.987   0.154  0.00  0.00    +0.000 OA
ATOM     14  C   UNL     1       0.379   4.148  -1.312  0.00  0.00    +0.000 A 
ATOM     15  C   UNL     1       0.997   3.213  -0.464  0.00  0.00    +0.000 A 
ATOM     16  H   UNL     1      -0.304   7.381  -1.668  0.00  0.00    +0.000 HD
ENDBRANCH   3   5
BRANCH   2  17
ATOM     17  C   UNL     1       2.984  -1.126   0.556  0.00  0.00    +0.000 A 
ATOM     18  C   UNL     1       2.722  -2.506   0.661  0.00  0.00    +0.000 A 
ATOM     19  C   UNL     1       3.538  -3.328   1.425  0.00  0.00    +0.000 A 
ATOM     20  C   UNL     1       4.610  -2.744   2.059  0.00  0.00    +0.000 A 
ATOM     21  N   UNL     1       4.883  -1.425   1.988  0.00  0.00    +0.000 NA
ATOM     22  C   UNL     1       4.076  -0.609   1.256  0.00  0.00    +0.000 A 
ATOM     23  N   UNL     1       4.404   0.771   1.237  0.00  0.00    +0.000 N 
ATOM     24  H   UNL     1       4.739   1.025   0.305  0.00  0.00    +0.000 HD
BRANCH  23  25
ATOM     25  C   UNL     1       5.200   1.387   2.245  0.00  0.00    +0.000 A 
ATOM     26  C   UNL     1       6.095   2.417   1.938  0.00  0.00    +0.000 A 
ATOM     27  F   UNL     1       6.225   2.825   0.665  0.00  0.00    +0.000 F 
ATOM     28  C   UNL     1       6.872   3.003   2.937  0.00  0.00    +0.000 A 
ATOM     29  F   UNL     1       7.748   3.970   2.629  0.00  0.00    +0.000 F 
ATOM     30  C   UNL     1       6.760   2.592   4.262  0.00  0.00    +0.000 A 
ATOM     31  C   UNL     1       5.839   1.605   4.595  0.00  0.00    +0.000 A 
ATOM     32  C   UNL     1       5.053   1.026   3.596  0.00  0.00    +0.000 A 
ENDBRANCH  23  25
ENDBRANCH   2  17
TORSDOF 3
