REMARK  Name = 
REMARK  6 active torsions:
REMARK  status: ('A' for Active; 'I' for Inactive)
REMARK    1  A    between atoms: C_4  and  C_5
REMARK    2  A    between atoms: C_8  and  C_9
REMARK    3  A    between atoms: C_11  and  C_12
REMARK    4  A    between atoms: C_12  and  O_13
REMARK    5  A    between atoms: C_22  and  O_23
REMARK    6  A    between atoms: O_23  and  C_24
REMARK                            x       y       z     vdW  Elec       q    Type
REMARK                         _______ _______ _______ _____ _____    ______ ____
ROOT
ATOM      1  O   UNL     1      -0.930   0.776   2.207  0.00  0.00    +0.000 OA
ATOM      2  C   UNL     1      -0.180   0.732   1.239  0.00  0.00    +0.000 A 
ATOM      3  N   UNL     1       0.832   1.634   1.039  0.00  0.00    +0.000 N 
ATOM      4  C   UNL     1       1.689   1.596  -0.037  0.00  0.00    +0.000 A 
ATOM      5  N   UNL     1       1.603   0.700  -0.970  0.00  0.00    +0.000 NA
ATOM      6  C   UNL     1       0.597  -0.267  -0.864  0.00  0.00    +0.000 A 
ATOM      7  C   UNL     1       0.498  -1.233  -1.865  0.00  0.00    +0.000 A 
ATOM      8  C   UNL     1      -0.467  -2.242  -1.798  0.00  0.00    +0.000 A 
ATOM      9  C   UNL     1      -1.373  -2.266  -0.735  0.00  0.00    +0.000 A 
ATOM     10  C   UNL     1      -1.291  -1.299   0.273  0.00  0.00    +0.000 A 
ATOM     11  C   UNL     1      -0.305  -0.309   0.202  0.00  0.00    +0.000 A 
ATOM     12  H   UNL     1       0.958   2.371   1.725  0.00  0.00    +0.000 HD
ENDROOT
BRANCH   4  13
ATOM     13  C   UNL     1       2.728   2.657  -0.060  0.00  0.00    +0.000 A 
ATOM     14  C   UNL     1       3.627   2.726  -1.113  0.00  0.00    +0.000 A 
ATOM     15  C   UNL     1       4.567   3.753  -1.108  0.00  0.00    +0.000 A 
ATOM     16  C   UNL     1       4.609   4.685  -0.059  0.00  0.00    +0.000 A 
ATOM     17  C   UNL     1       3.663   4.497   0.956  0.00  0.00    +0.000 A 
ATOM     18  N   UNL     1       2.721   3.519   0.987  0.00  0.00    +0.000 NA
BRANCH  16  19
ATOM     19  C   UNL     1       5.576   5.805  -0.047  0.00  0.00    +0.000 A 
ATOM     20  C   UNL     1       6.854   5.682  -0.632  0.00  0.00    +0.000 A 
ATOM     21  C   UNL     1       7.768   6.750  -0.664  0.00  0.00    +0.000 A 
ATOM     22  C   UNL     1       7.392   7.974  -0.103  0.00  0.00    +0.000 A 
ATOM     23  C   UNL     1       6.143   8.121   0.492  0.00  0.00    +0.000 A 
ATOM     24  C   UNL     1       5.246   7.050   0.516  0.00  0.00    +0.000 A 
BRANCH  21  25
ATOM     25  C   UNL     1       9.094   6.626  -1.372  0.00  0.00    +0.000 C 
BRANCH  25  26
ATOM     26  O   UNL     1       9.617   5.306  -1.293  0.00  0.00    +0.000 OA
ATOM     27  H   UNL     1       9.643   5.073  -0.349  0.00  0.00    +0.000 HD
ENDBRANCH  25  26
ENDBRANCH  21  25
ENDBRANCH  16  19
ENDBRANCH   4  13
BRANCH   8  28
ATOM     28  O   UNL     1      -0.444  -3.121  -2.844  0.00  0.00    +0.000 OA
BRANCH  28  29
ATOM     29  C   UNL     1      -0.921  -4.423  -2.559  0.00  0.00    +0.000 C 
ATOM     30  F   UNL     1      -2.267  -4.437  -2.710  0.00  0.00    +0.000 F 
ATOM     31  F   UNL     1      -0.412  -5.253  -3.506  0.00  0.00    +0.000 F 
ENDBRANCH  28  29
ENDBRANCH   8  28
TORSDOF 6
