REMARK  Name = 
REMARK  6 active torsions:
REMARK  status: ('A' for Active; 'I' for Inactive)
REMARK    1  A    between atoms: C_2  and  C_3
REMARK    2  A    between atoms: C_2  and  N_15
REMARK    3  A    between atoms: C_3  and  C_4
REMARK    4  A    between atoms: N_6  and  C_7
REMARK    5  A    between atoms: S_16  and  C_18
REMARK    6  A    between atoms: S_16  and  C_24
REMARK                            x       y       z     vdW  Elec       q    Type
REMARK                         _______ _______ _______ _____ _____    ______ ____
ROOT
ATOM      1  N   UNL     1       2.964   1.093   0.568  0.00  0.00    +0.000 NA
ATOM      2  S   UNL     1       4.478   0.921   0.768  0.00  0.00    +0.000 S 
ATOM      3  O   UNL     1       5.089  -0.297   1.276  0.00  0.00    +0.000 OA
ENDROOT
BRANCH   2   4
ATOM      4  C   UNL     1       5.233   1.274  -0.812  0.00  0.00    +0.000 A 
ATOM      5  C   UNL     1       5.069   2.534  -1.397  0.00  0.00    +0.000 A 
ATOM      6  C   UNL     1       5.598   2.779  -2.664  0.00  0.00    +0.000 A 
ATOM      7  C   UNL     1       6.284   1.771  -3.342  0.00  0.00    +0.000 A 
ATOM      8  C   UNL     1       6.449   0.516  -2.753  0.00  0.00    +0.000 A 
ATOM      9  C   UNL     1       5.926   0.264  -1.485  0.00  0.00    +0.000 A 
ENDBRANCH   2   4
BRANCH   2  10
ATOM     10  C   UNL     1       4.990   2.203   1.904  0.00  0.00    +0.000 A 
ATOM     11  C   UNL     1       6.063   1.972   2.764  0.00  0.00    +0.000 A 
ATOM     12  C   UNL     1       6.394   2.971   3.658  0.00  0.00    +0.000 A 
ATOM     13  N   UNL     1       5.736   4.150   3.742  0.00  0.00    +0.000 NA
ATOM     14  C   UNL     1       4.689   4.333   2.909  0.00  0.00    +0.000 A 
ATOM     15  C   UNL     1       4.272   3.395   1.984  0.00  0.00    +0.000 A 
ENDBRANCH   2  10
BRANCH   1  17
ATOM     16  O   UNL     1       2.650  -0.688  -0.872  0.00  0.00    +0.000 OA
ATOM     17  C   UNL     1       2.213   0.040   0.018  0.00  0.00    +0.000 C 
BRANCH  17  18
ATOM     18  C   UNL     1       0.797  -0.151   0.556  0.00  0.00    +0.000 C 
BRANCH  18  19
ATOM     19  C   UNL     1      -0.275  -0.168  -0.486  0.00  0.00    +0.000 A 
ATOM     20  C   UNL     1      -1.551   0.345  -0.365  0.00  0.00    +0.000 A 
ATOM     21  N   UNL     1      -2.233   0.073  -1.535  0.00  0.00    +0.000 N 
ATOM     22  N   UNL     1      -1.440  -0.600  -2.407  0.00  0.00    +0.000 NA
ATOM     23  C   UNL     1      -0.272  -0.734  -1.778  0.00  0.00    +0.000 A 
BRANCH  21  24
ATOM     24  C   UNL     1      -3.576   0.414  -1.863  0.00  0.00    +0.000 A 
ATOM     25  C   UNL     1      -4.357   1.192  -0.996  0.00  0.00    +0.000 A 
ATOM     26  C   UNL     1      -5.667   1.533  -1.344  0.00  0.00    +0.000 A 
ATOM     27  C   UNL     1      -6.208   1.095  -2.551  0.00  0.00    +0.000 A 
ATOM     28  C   UNL     1      -5.442   0.313  -3.414  0.00  0.00    +0.000 A 
ATOM     29  C   UNL     1      -4.129  -0.026  -3.075  0.00  0.00    +0.000 A 
ENDBRANCH  21  24
ENDBRANCH  18  19
ENDBRANCH  17  18
ENDBRANCH   1  17
TORSDOF 6
