REMARK  Name = 
REMARK  5 active torsions:
REMARK  status: ('A' for Active; 'I' for Inactive)
REMARK    1  A    between atoms: C_2  and  C_3
REMARK    2  A    between atoms: C_8  and  C_9
REMARK    3  A    between atoms: C_12  and  C_13
REMARK    4  A    between atoms: C_13  and  N_14
REMARK    5  A    between atoms: C_15  and  C_17
REMARK                            x       y       z     vdW  Elec       q    Type
REMARK                         _______ _______ _______ _____ _____    ______ ____
ROOT
ATOM      1  N   UNL     1      -1.856   7.347   0.838  0.00  0.00    +0.000 N 
ATOM      2  C   UNL     1      -2.391   8.607   0.966  0.00  0.00    +0.000 C 
ATOM      3  O   UNL     1      -3.462   8.930   0.461  0.00  0.00    +0.000 OA
ATOM      4  H   UNL     1      -0.980   7.103   1.286  0.00  0.00    +0.000 HD
ENDROOT
BRANCH   2   5
ATOM      5  C   UNL     1      -1.629   9.614   1.756  0.00  0.00    +0.000 A 
ATOM      6  C   UNL     1      -0.424   9.309   2.399  0.00  0.00    +0.000 A 
ATOM      7  F   UNL     1       0.117   8.082   2.354  0.00  0.00    +0.000 F 
ATOM      8  C   UNL     1       0.212  10.313   3.089  0.00  0.00    +0.000 A 
ATOM      9  C   UNL     1      -0.310  11.600   3.163  0.00  0.00    +0.000 A 
ATOM     10  C   UNL     1      -1.492  11.948   2.555  0.00  0.00    +0.000 A 
ATOM     11  C   UNL     1      -2.154  10.936   1.845  0.00  0.00    +0.000 A 
ATOM     12  N   UNL     1       0.562  12.375   3.918  0.00  0.00    +0.000 N 
ATOM     13  C   UNL     1       1.641  11.577   4.323  0.00  0.00    +0.000 A 
ATOM     14  O   UNL     1       2.592  11.927   4.993  0.00  0.00    +0.000 OA
ATOM     15  N   UNL     1       1.410  10.295   3.803  0.00  0.00    +0.000 N 
ATOM     16  H   UNL     1       0.473  13.350   4.155  0.00  0.00    +0.000 HD
ATOM     17  H   UNL     1       2.026   9.508   3.935  0.00  0.00    +0.000 HD
ENDBRANCH   2   5
BRANCH   1  18
ATOM     18  C   UNL     1      -2.563   6.328   0.104  0.00  0.00    +0.000 C 
BRANCH  18  22
ATOM     19  C   UNL     1      -0.460   2.509  -0.025  0.00  0.00    +0.000 A 
ATOM     20  C   UNL     1      -1.403   2.809   0.975  0.00  0.00    +0.000 A 
ATOM     21  C   UNL     1      -2.042   4.052   1.046  0.00  0.00    +0.000 A 
ATOM     22  C   UNL     1      -1.818   5.023   0.070  0.00  0.00    +0.000 A 
ATOM     23  C   UNL     1      -0.901   4.744  -0.947  0.00  0.00    +0.000 A 
ATOM     24  C   UNL     1      -0.233   3.511  -0.988  0.00  0.00    +0.000 A 
BRANCH  19  30
ATOM     25  C   UNL     1       0.705   0.494   1.071  0.00  0.00    +0.000 A 
ATOM     26  C   UNL     1       1.393  -0.729   0.945  0.00  0.00    +0.000 A 
ATOM     27  C   UNL     1       1.687  -1.257  -0.308  0.00  0.00    +0.000 A 
ATOM     28  C   UNL     1       1.278  -0.578  -1.446  0.00  0.00    +0.000 A 
ATOM     29  C   UNL     1       0.568   0.624  -1.330  0.00  0.00    +0.000 A 
ATOM     30  C   UNL     1       0.266   1.204  -0.074  0.00  0.00    +0.000 A 
BRANCH  25  32
ATOM     31  N   UNL     1       0.327   1.318   3.506  0.00  0.00    +0.000 NA
ATOM     32  C   UNL     1       0.505   0.969   2.413  0.00  0.00    +0.000 C 
ENDBRANCH  25  32
ENDBRANCH  19  30
ENDBRANCH  18  22
ENDBRANCH   1  18
TORSDOF 5
