REMARK  Name = 
REMARK  3 active torsions:
REMARK  status: ('A' for Active; 'I' for Inactive)
REMARK    1  A    between atoms: C_2  and  C_4
REMARK    2  A    between atoms: C_8  and  C_10
REMARK    3  A    between atoms: C_11  and  C_12
REMARK                            x       y       z     vdW  Elec       q    Type
REMARK                         _______ _______ _______ _____ _____    ______ ____
ROOT
ATOM      1  C   UNL     1       3.257  -1.320   0.419  0.00  0.00    +0.000 A 
ATOM      2  C   UNL     1       4.332  -1.343   1.321  0.00  0.00    +0.000 A 
ATOM      3  C   UNL     1       4.990  -2.537   1.535  0.00  0.00    +0.000 A 
ATOM      4  N   UNL     1       6.067  -2.559   2.430  0.00  0.00    +0.000 N 
ATOM      5  C   UNL     1       6.796  -3.692   2.748  0.00  0.00    +0.000 C 
ATOM      6  O   UNL     1       6.544  -4.831   2.369  0.00  0.00    +0.000 OA
ATOM      7  N   UNL     1       4.633  -3.658   0.900  0.00  0.00    +0.000 NA
ATOM      8  C   UNL     1       3.605  -3.659   0.049  0.00  0.00    +0.000 A 
ATOM      9  C   UNL     1       3.280  -4.870  -0.548  0.00  0.00    +0.000 A 
ATOM     10  C   UNL     1       2.231  -4.984  -1.459  0.00  0.00    +0.000 A 
ATOM     11  C   UNL     1       1.494  -3.860  -1.792  0.00  0.00    +0.000 A 
ATOM     12  C   UNL     1       1.802  -2.633  -1.200  0.00  0.00    +0.000 A 
ATOM     13  C   UNL     1       2.857  -2.506  -0.255  0.00  0.00    +0.000 A 
ATOM     14  H   UNL     1       6.359  -1.697   2.868  0.00  0.00    +0.000 HD
ENDROOT
BRANCH   1  16
ATOM     15  N   UNL     1       3.238   1.123   0.352  0.00  0.00    +0.000 N 
ATOM     16  C   UNL     1       2.517  -0.036   0.245  0.00  0.00    +0.000 C 
ATOM     17  O   UNL     1       1.316   0.015   0.024  0.00  0.00    +0.000 OA
ATOM     18  H   UNL     1       2.731   1.982   0.173  0.00  0.00    +0.000 HD
ATOM     19  H   UNL     1       4.247   1.164   0.352  0.00  0.00    +0.000 HD
ENDBRANCH   1  16
BRANCH   5  20
ATOM     20  C   UNL     1       7.952  -3.403   3.583  0.00  0.00    +0.000 A 
ATOM     21  C   UNL     1       9.188  -4.030   3.732  0.00  0.00    +0.000 A 
ATOM     22  C   UNL     1       9.847  -3.331   4.787  0.00  0.00    +0.000 A 
ATOM     23  C   UNL     1       9.012  -2.311   5.170  0.00  0.00    +0.000 A 
ATOM     24  O   UNL     1       7.877  -2.323   4.430  0.00  0.00    +0.000 OA
BRANCH  21  25
ATOM     25  C   UNL     1       9.676  -5.159   2.942  0.00  0.00    +0.000 A 
ATOM     26  C   UNL     1       9.353  -5.292   1.579  0.00  0.00    +0.000 A 
ATOM     27  C   UNL     1       9.799  -6.386   0.832  0.00  0.00    +0.000 A 
ATOM     28  C   UNL     1      10.610  -7.335   1.434  0.00  0.00    +0.000 A 
ATOM     29  F   UNL     1      11.044  -8.380   0.715  0.00  0.00    +0.000 F 
ATOM     30  C   UNL     1      10.974  -7.197   2.767  0.00  0.00    +0.000 A 
ATOM     31  F   UNL     1      11.779  -8.104   3.339  0.00  0.00    +0.000 F 
ATOM     32  C   UNL     1      10.513  -6.121   3.525  0.00  0.00    +0.000 A 
ENDBRANCH  21  25
ENDBRANCH   5  20
TORSDOF 3
