REMARK  Name = 
REMARK  6 active torsions:
REMARK  status: ('A' for Active; 'I' for Inactive)
REMARK    1  A    between atoms: C_1  and  C_2
REMARK    2  A    between atoms: C_5  and  C_6
REMARK    3  A    between atoms: C_6  and  O_7
REMARK    4  A    between atoms: O_7  and  C_8
REMARK    5  A    between atoms: C_8  and  C_10
REMARK    6  A    between atoms: N_12  and  C_13
REMARK                            x       y       z     vdW  Elec       q    Type
REMARK                         _______ _______ _______ _____ _____    ______ ____
ROOT
ATOM      1  C   UNL     1       8.489  -1.692  -0.232  0.00  0.00    +0.000 C 
ATOM      2  O   UNL     1       9.188  -0.942  -0.886  0.00  0.00    +0.000 OA
ENDROOT
BRANCH   1   3
ATOM      3  C   UNL     1       9.002  -2.960   0.420  0.00  0.00    +0.000 A 
ATOM      4  N   UNL     1       8.178  -3.970   0.509  0.00  0.00    +0.000 NA
ATOM      5  N   UNL     1       8.593  -5.096   1.177  0.00  0.00    +0.000 N 
ATOM      6  C   UNL     1       9.855  -5.212   1.721  0.00  0.00    +0.000 A 
ATOM      7  C   UNL     1      10.803  -4.279   1.641  0.00  0.00    +0.000 A 
ATOM      8  C   UNL     1      10.412  -3.045   0.952  0.00  0.00    +0.000 A 
ATOM      9  O   UNL     1      11.214  -2.132   0.810  0.00  0.00    +0.000 OA
BRANCH   5  10
ATOM     10  C   UNL     1       7.608  -6.128   1.242  0.00  0.00    +0.000 A 
ATOM     11  C   UNL     1       6.692  -6.277   0.182  0.00  0.00    +0.000 A 
ATOM     12  C   UNL     1       5.695  -7.258   0.210  0.00  0.00    +0.000 A 
ATOM     13  C   UNL     1       5.589  -8.105   1.307  0.00  0.00    +0.000 A 
ATOM     14  C   UNL     1       6.486  -7.986   2.366  0.00  0.00    +0.000 A 
ATOM     15  C   UNL     1       7.486  -7.013   2.325  0.00  0.00    +0.000 A 
ATOM     16  F   UNL     1       8.306  -6.926   3.385  0.00  0.00    +0.000 F 
ENDBRANCH   5  10
ENDBRANCH   1   3
BRANCH   1  17
ATOM     17  O   UNL     1       7.179  -1.532   0.057  0.00  0.00    +0.000 OA
BRANCH  17  18
ATOM     18  C   UNL     1       6.741  -0.169   0.038  0.00  0.00    +0.000 C 
BRANCH  18  23
ATOM     19  C   UNL     1       7.846   2.059   5.254  0.00  0.00    +0.000 C 
ATOM     20  C   UNL     1       7.536   1.571   3.869  0.00  0.00    +0.000 A 
ATOM     21  C   UNL     1       7.858   0.265   3.525  0.00  0.00    +0.000 A 
ATOM     22  N   UNL     1       7.620  -0.282   2.320  0.00  0.00    +0.000 NA
ATOM     23  C   UNL     1       7.003   0.492   1.382  0.00  0.00    +0.000 A 
ATOM     24  C   UNL     1       6.615   1.829   1.621  0.00  0.00    +0.000 A 
ATOM     25  C   UNL     1       5.946   2.635   0.668  0.00  0.00    +0.000 A 
ATOM     26  C   UNL     1       5.568   3.946   0.957  0.00  0.00    +0.000 A 
ATOM     27  C   UNL     1       5.878   4.492   2.192  0.00  0.00    +0.000 A 
ATOM     28  C   UNL     1       6.547   3.722   3.143  0.00  0.00    +0.000 A 
ATOM     29  C   UNL     1       6.909   2.380   2.893  0.00  0.00    +0.000 A 
ENDBRANCH  18  23
ENDBRANCH  17  18
ENDBRANCH   1  17
TORSDOF 5
