REMARK  Name = 
REMARK  9 active torsions:
REMARK  status: ('A' for Active; 'I' for Inactive)
REMARK    1  A    between atoms: C_2  and  C_3
REMARK    2  A    between atoms: C_3  and  C_4
REMARK    3  A    between atoms: C_4  and  C_5
REMARK    4  A    between atoms: N_7  and  C_8
REMARK    5  A    between atoms: C_8  and  C_9
REMARK    6  A    between atoms: C_13  and  C_14
REMARK    7  A    between atoms: N_21  and  C_22
REMARK    8  A    between atoms: C_22  and  C_23
REMARK    9  A    between atoms: C_23  and  C_25
REMARK                            x       y       z     vdW  Elec       q    Type
REMARK                         _______ _______ _______ _____ _____    ______ ____
ROOT
ATOM      1  C   UNL     1       2.052  -2.267  -0.857  0.00  0.00    +0.000 C 
ENDROOT
BRANCH   1   2
ATOM      2  C   UNL     1       2.858  -3.448  -1.358  0.00  0.00    +0.000 C 
ATOM      3  O   UNL     1       4.083  -3.451  -1.395  0.00  0.00    +0.000 OA
ATOM      4  N   UNL     1       2.094  -4.511  -1.779  0.00  0.00    +0.000 N 
ATOM      5  H   UNL     1       1.112  -4.543  -1.535  0.00  0.00    +0.000 HD
BRANCH   4   6
ATOM      6  C   UNL     1       2.723  -5.733  -2.235  0.00  0.00    +0.000 C 
BRANCH   6   7
ATOM      7  C   UNL     1       1.890  -6.465  -3.257  0.00  0.00    +0.000 A 
ATOM      8  C   UNL     1       1.511  -5.832  -4.446  0.00  0.00    +0.000 A 
ATOM      9  C   UNL     1       0.814  -6.535  -5.425  0.00  0.00    +0.000 A 
ATOM     10  C   UNL     1       0.505  -7.884  -5.233  0.00  0.00    +0.000 A 
ATOM     11  C   UNL     1       0.892  -8.568  -4.066  0.00  0.00    +0.000 A 
ATOM     12  C   UNL     1       1.571  -7.824  -3.080  0.00  0.00    +0.000 A 
BRANCH  11  13
ATOM     13  C   UNL     1       0.637 -10.017  -3.902  0.00  0.00    +0.000 A 
ATOM     14  C   UNL     1       0.372 -10.601  -2.655  0.00  0.00    +0.000 A 
ATOM     15  C   UNL     1       0.163 -11.977  -2.540  0.00  0.00    +0.000 A 
ATOM     16  C   UNL     1       0.213 -12.749  -3.686  0.00  0.00    +0.000 A 
ATOM     17  N   UNL     1       0.463 -12.245  -4.909  0.00  0.00    +0.000 NA
ATOM     18  C   UNL     1       0.673 -10.905  -4.982  0.00  0.00    +0.000 A 
ENDBRANCH  11  13
ENDBRANCH   6   7
ENDBRANCH   4   6
ENDBRANCH   1   2
BRANCH   1  19
ATOM     19  C   UNL     1       2.976  -1.119  -0.458  0.00  0.00    +0.000 C 
BRANCH  19  21
ATOM     20  O   UNL     1       0.998   0.152   0.115  0.00  0.00    +0.000 OA
ATOM     21  C   UNL     1       2.223   0.093   0.040  0.00  0.00    +0.000 C 
ATOM     22  N   UNL     1       3.050   1.129   0.402  0.00  0.00    +0.000 N 
ATOM     23  H   UNL     1       4.061   1.041   0.328  0.00  0.00    +0.000 HD
BRANCH  22  24
ATOM     24  C   UNL     1       2.523   2.384   0.903  0.00  0.00    +0.000 C 
BRANCH  24  25
ATOM     25  C   UNL     1       3.665   3.346   1.231  0.00  0.00    +0.000 C 
ATOM     26  O   UNL     1       4.846   3.022   1.089  0.00  0.00    +0.000 OA
BRANCH  25  27
ATOM     27  C   UNL     1       3.339   4.714   1.733  0.00  0.00    +0.000 A 
ATOM     28  C   UNL     1       4.391   5.601   2.022  0.00  0.00    +0.000 A 
ATOM     29  C   UNL     1       4.119   6.894   2.477  0.00  0.00    +0.000 A 
ATOM     30  C   UNL     1       2.798   7.302   2.643  0.00  0.00    +0.000 A 
ATOM     31  F   UNL     1       2.537   8.543   3.072  0.00  0.00    +0.000 F 
ATOM     32  C   UNL     1       1.748   6.439   2.372  0.00  0.00    +0.000 A 
ATOM     33  C   UNL     1       2.024   5.151   1.921  0.00  0.00    +0.000 A 
ATOM     34  F   UNL     1       0.981   4.348   1.676  0.00  0.00    +0.000 F 
ENDBRANCH  25  27
ENDBRANCH  24  25
ENDBRANCH  22  24
ENDBRANCH  19  21
ENDBRANCH   1  19
TORSDOF 9
