REMARK  Name = 
REMARK  4 active torsions:
REMARK  status: ('A' for Active; 'I' for Inactive)
REMARK    1  A    between atoms: C_2  and  C_16
REMARK    2  A    between atoms: N_3  and  C_4
REMARK    3  A    between atoms: C_7  and  C_8
REMARK    4  A    between atoms: N_18  and  C_19
REMARK                            x       y       z     vdW  Elec       q    Type
REMARK                         _______ _______ _______ _____ _____    ______ ____
ROOT
ATOM      1  O   UNL     1       0.955  -0.204   0.026  0.00  0.00    +0.000 OA
ATOM      2  C   UNL     1       2.177  -0.025   0.048  0.00  0.00    +0.000 C 
ATOM      3  N   UNL     1       2.849   0.784   0.950  0.00  0.00    +0.000 N 
ATOM      4  H   UNL     1       3.818   0.986   0.714  0.00  0.00    +0.000 HD
ENDROOT
BRANCH   3   5
ATOM      5  C   UNL     1       2.257   1.444   2.049  0.00  0.00    +0.000 A 
ATOM      6  C   UNL     1       1.000   1.110   2.535  0.00  0.00    +0.000 A 
ATOM      7  C   UNL     1       0.462   1.805   3.613  0.00  0.00    +0.000 A 
ATOM      8  C   UNL     1       1.188   2.832   4.203  0.00  0.00    +0.000 A 
ATOM      9  N   UNL     1       2.427   3.168   3.761  0.00  0.00    +0.000 NA
ATOM     10  C   UNL     1       2.927   2.468   2.706  0.00  0.00    +0.000 A 
BRANCH   8  11
ATOM     11  C   UNL     1       0.665   3.566   5.369  0.00  0.00    +0.000 A 
ATOM     12  C   UNL     1       1.523   4.122   6.320  0.00  0.00    +0.000 A 
ATOM     13  C   UNL     1       0.985   4.728   7.444  0.00  0.00    +0.000 A 
ATOM     14  N   UNL     1      -0.339   4.827   7.682  0.00  0.00    +0.000 NA
ATOM     15  C   UNL     1      -1.162   4.313   6.749  0.00  0.00    +0.000 A 
ATOM     16  C   UNL     1      -0.715   3.692   5.593  0.00  0.00    +0.000 A 
ENDBRANCH   8  11
ENDBRANCH   3   5
BRANCH   2  17
ATOM     17  C   UNL     1       3.014  -0.614  -1.005  0.00  0.00    +0.000 A 
ATOM     18  N   UNL     1       4.347  -0.428  -1.062  0.00  0.00    +0.000 NA
ATOM     19  N   UNL     1       4.703  -0.919  -2.280  0.00  0.00    +0.000 N 
ATOM     20  C   UNL     1       3.646  -1.519  -2.921  0.00  0.00    +0.000 A 
ATOM     21  C   UNL     1       2.556  -1.376  -2.108  0.00  0.00    +0.000 A 
BRANCH  19  22
ATOM     22  C   UNL     1       6.014  -0.746  -2.789  0.00  0.00    +0.000 A 
ATOM     23  C   UNL     1       7.004  -0.147  -2.001  0.00  0.00    +0.000 A 
ATOM     24  C   UNL     1       8.278   0.036  -2.531  0.00  0.00    +0.000 A 
ATOM     25  F   UNL     1       9.235   0.580  -1.768  0.00  0.00    +0.000 F 
ATOM     26  C   UNL     1       8.578  -0.338  -3.835  0.00  0.00    +0.000 A 
ATOM     27  C   UNL     1       7.589  -0.925  -4.607  0.00  0.00    +0.000 A 
ATOM     28  F   UNL     1       7.851  -1.264  -5.875  0.00  0.00    +0.000 F 
ATOM     29  C   UNL     1       6.318  -1.153  -4.096  0.00  0.00    +0.000 A 
ENDBRANCH  19  22
ENDBRANCH   2  17
TORSDOF 4
