REMARK  Name = 
REMARK  5 active torsions:
REMARK  status: ('A' for Active; 'I' for Inactive)
REMARK    1  A    between atoms: N_1  and  C_2
REMARK    2  A    between atoms: C_3  and  C_4
REMARK    3  A    between atoms: N_6  and  C_7
REMARK    4  A    between atoms: N_9  and  C_10
REMARK    5  A    between atoms: N_22  and  C_23
REMARK                            x       y       z     vdW  Elec       q    Type
REMARK                         _______ _______ _______ _____ _____    ______ ____
ROOT
ATOM      1  C   UNL     1       2.678   2.622   0.161  0.00  0.00    +0.000 C 
ATOM      2  O   UNL     1       1.495   2.817   0.436  0.00  0.00    +0.000 OA
ATOM      3  N   UNL     1       3.595   3.630  -0.095  0.00  0.00    +0.000 N 
ATOM      4  H   UNL     1       4.497   3.397  -0.483  0.00  0.00    +0.000 HD
ENDROOT
BRANCH   1   6
ATOM      5  C   UNL     1       2.386   0.126   0.129  0.00  0.00    +0.000 A 
ATOM      6  C   UNL     1       3.186   1.259   0.076  0.00  0.00    +0.000 A 
ATOM      7  C   UNL     1       4.495   0.744   0.017  0.00  0.00    +0.000 A 
ATOM      8  N   UNL     1       4.545  -0.584   0.122  0.00  0.00    +0.000 NA
ATOM      9  N   UNL     1       3.240  -0.974   0.134  0.00  0.00    +0.000 N 
BRANCH   9  10
ATOM     10  C   UNL     1       2.902  -2.354   0.179  0.00  0.00    +0.000 A 
ATOM     11  C   UNL     1       3.769  -3.252   0.820  0.00  0.00    +0.000 A 
ATOM     12  C   UNL     1       3.423  -4.602   0.915  0.00  0.00    +0.000 A 
ATOM     13  C   UNL     1       2.239  -5.052   0.342  0.00  0.00    +0.000 A 
ATOM     14  F   UNL     1       1.919  -6.350   0.421  0.00  0.00    +0.000 F 
ATOM     15  C   UNL     1       1.388  -4.179  -0.327  0.00  0.00    +0.000 A 
ATOM     16  C   UNL     1       1.714  -2.824  -0.404  0.00  0.00    +0.000 A 
ENDBRANCH   9  10
BRANCH   5  17
ATOM     17  N   UNL     1       1.028   0.061   0.259  0.00  0.00    +0.000 N 
ATOM     18  H   UNL     1       0.550   0.951   0.449  0.00  0.00    +0.000 HD
ATOM     19  H   UNL     1       0.606  -0.699   0.789  0.00  0.00    +0.000 HD
ENDBRANCH   5  17
ENDBRANCH   1   6
BRANCH   3  20
ATOM     20  C   UNL     1       3.268   4.977  -0.024  0.00  0.00    +0.000 A 
ATOM     21  C   UNL     1       2.160   5.548   0.553  0.00  0.00    +0.000 A 
ATOM     22  N   UNL     1       2.193   6.896   0.281  0.00  0.00    +0.000 N 
ATOM     23  N   UNL     1       3.327   7.229  -0.388  0.00  0.00    +0.000 NA
ATOM     24  C   UNL     1       3.987   6.077  -0.526  0.00  0.00    +0.000 A 
BRANCH  22  25
ATOM     25  C   UNL     1       1.217   7.855   0.620  0.00  0.00    +0.000 A 
ATOM     26  C   UNL     1       0.421   7.696   1.756  0.00  0.00    +0.000 A 
ATOM     27  F   UNL     1       0.596   6.667   2.597  0.00  0.00    +0.000 F 
ATOM     28  C   UNL     1      -0.544   8.646   2.095  0.00  0.00    +0.000 A 
ATOM     29  C   UNL     1      -0.744   9.757   1.280  0.00  0.00    +0.000 A 
ATOM     30  C   UNL     1       0.031   9.915   0.133  0.00  0.00    +0.000 A 
ATOM     31  C   UNL     1       1.014   8.975  -0.187  0.00  0.00    +0.000 A 
ATOM     32  F   UNL     1       1.681   9.147  -1.337  0.00  0.00    +0.000 F 
ENDBRANCH  22  25
ENDBRANCH   3  20
TORSDOF 5
