REMARK  Name = 
REMARK  7 active torsions:
REMARK  status: ('A' for Active; 'I' for Inactive)
REMARK    1  A    between atoms: C_1  and  N_2
REMARK    2  A    between atoms: C_10  and  C_11
REMARK    3  A    between atoms: C_11  and  O_13
REMARK    4  A    between atoms: O_13  and  C_14
REMARK    5  A    between atoms: C_14  and  C_15
REMARK    6  A    between atoms: C_18  and  C_19
REMARK    7  A    between atoms: C_23  and  C_24
REMARK                            x       y       z     vdW  Elec       q    Type
REMARK                         _______ _______ _______ _____ _____    ______ ____
ROOT
ATOM      1  O   UNL     1       6.715   4.700   0.053  0.00  0.00    +0.000 OA
ENDROOT
BRANCH   1   2
ATOM      2  C   UNL     1       6.587   4.095   1.258  0.00  0.00    +0.000 C 
ATOM      3  O   UNL     1       7.052   4.488   2.314  0.00  0.00    +0.000 OA
BRANCH   2  13
ATOM      4  C   UNL     1       3.347  -1.401   2.352  0.00  0.00    +0.000 C 
ATOM      5  N   UNL     1       3.537  -0.685   1.102  0.00  0.00    +0.000 N 
ATOM      6  C   UNL     1       2.980  -1.178  -0.058  0.00  0.00    +0.000 A 
ATOM      7  O   UNL     1       2.310  -2.208  -0.124  0.00  0.00    +0.000 OA
ATOM      8  N   UNL     1       3.202  -0.455  -1.197  0.00  0.00    +0.000 N 
ATOM      9  C   UNL     1       3.914   0.706  -1.300  0.00  0.00    +0.000 A 
ATOM     10  O   UNL     1       4.060   1.297  -2.362  0.00  0.00    +0.000 OA
ATOM     11  C   UNL     1       4.497   1.213  -0.061  0.00  0.00    +0.000 A 
ATOM     12  C   UNL     1       5.248   2.397  -0.057  0.00  0.00    +0.000 A 
ATOM     13  C   UNL     1       5.786   2.855   1.143  0.00  0.00    +0.000 A 
ATOM     14  C   UNL     1       5.546   2.096   2.282  0.00  0.00    +0.000 A 
ATOM     15  N   UNL     1       4.818   0.942   2.295  0.00  0.00    +0.000 NA
ATOM     16  C   UNL     1       4.297   0.508   1.121  0.00  0.00    +0.000 A 
ATOM     17  H   UNL     1       2.791  -0.820  -2.044  0.00  0.00    +0.000 HD
ENDBRANCH   2  13
ENDBRANCH   1   2
BRANCH   1  18
ATOM     18  C   UNL     1       7.490   5.913   0.054  0.00  0.00    +0.000 C 
BRANCH  18  19
ATOM     19  C   UNL     1       8.954   5.652   0.024  0.00  0.00    +0.000 A 
ATOM     20  C   UNL     1       9.821   5.502   1.080  0.00  0.00    +0.000 A 
ATOM     21  O   UNL     1      11.055   5.231   0.583  0.00  0.00    +0.000 OA
ATOM     22  C   UNL     1      10.884   5.250  -0.778  0.00  0.00    +0.000 A 
ATOM     23  N   UNL     1       9.646   5.503  -1.160  0.00  0.00    +0.000 NA
BRANCH  22  24
ATOM     24  C   UNL     1      12.062   4.965  -1.590  0.00  0.00    +0.000 A 
ATOM     25  C   UNL     1      13.307   4.696  -1.002  0.00  0.00    +0.000 A 
ATOM     26  C   UNL     1      14.403   4.339  -1.786  0.00  0.00    +0.000 A 
ATOM     27  C   UNL     1      14.283   4.301  -3.173  0.00  0.00    +0.000 A 
ATOM     28  C   UNL     1      13.073   4.638  -3.795  0.00  0.00    +0.000 A 
ATOM     29  C   UNL     1      11.959   4.941  -2.992  0.00  0.00    +0.000 A 
BRANCH  28  30
ATOM     30  C   UNL     1      12.981   4.701  -5.300  0.00  0.00    +0.000 C 
ATOM     31  F   UNL     1      14.160   4.410  -5.920  0.00  0.00    +0.000 F 
ATOM     32  F   UNL     1      12.067   3.834  -5.814  0.00  0.00    +0.000 F 
ATOM     33  F   UNL     1      12.626   5.936  -5.750  0.00  0.00    +0.000 F 
ENDBRANCH  28  30
ENDBRANCH  22  24
ENDBRANCH  18  19
ENDBRANCH   1  18
TORSDOF 6
