REMARK  Name = 
REMARK  6 active torsions:
REMARK  status: ('A' for Active; 'I' for Inactive)
REMARK    1  A    between atoms: N_3  and  C_4
REMARK    2  A    between atoms: C_4  and  C_5
REMARK    3  A    between atoms: C_7  and  O_8
REMARK    4  A    between atoms: O_8  and  C_9
REMARK    5  A    between atoms: N_20  and  C_21
REMARK    6  A    between atoms: C_21  and  C_22
REMARK                            x       y       z     vdW  Elec       q    Type
REMARK                         _______ _______ _______ _____ _____    ______ ____
ROOT
ATOM      1  O   UNL     1       2.795   0.590   0.780  0.00  0.00    +0.000 OA
ATOM      2  C   UNL     1       2.205  -0.093  -0.053  0.00  0.00    +0.000 C 
ATOM      3  N   UNL     1       2.900  -0.726  -1.029  0.00  0.00    +0.000 N 
ATOM      4  N   UNL     1       0.855  -0.234  -0.100  0.00  0.00    +0.000 N 
ATOM      5  H   UNL     1       3.894  -0.754  -0.846  0.00  0.00    +0.000 HD
ATOM      6  H   UNL     1       0.477  -1.026  -0.588  0.00  0.00    +0.000 HD
ENDROOT
BRANCH   3   7
ATOM      7  C   UNL     1       2.380  -1.627  -2.038  0.00  0.00    +0.000 C 
BRANCH   7   8
ATOM      8  C   UNL     1       2.128  -3.029  -1.521  0.00  0.00    +0.000 A 
ATOM      9  C   UNL     1       1.425  -3.925  -2.316  0.00  0.00    +0.000 A 
ATOM     10  C   UNL     1       1.334  -5.254  -1.906  0.00  0.00    +0.000 A 
ATOM     11  C   UNL     1       1.826  -5.622  -0.659  0.00  0.00    +0.000 A 
ATOM     12  C   UNL     1       2.463  -4.658   0.095  0.00  0.00    +0.000 A 
ATOM     13  N   UNL     1       2.651  -3.389  -0.321  0.00  0.00    +0.000 NA
BRANCH  10  14
ATOM     14  O   UNL     1       0.745  -6.253  -2.647  0.00  0.00    +0.000 OA
BRANCH  14  15
ATOM     15  C   UNL     1       0.821  -6.216  -4.023  0.00  0.00    +0.000 A 
ATOM     16  C   UNL     1       1.906  -5.694  -4.742  0.00  0.00    +0.000 A 
ATOM     17  C   UNL     1       1.864  -5.642  -6.137  0.00  0.00    +0.000 A 
ATOM     18  C   UNL     1       0.770  -6.175  -6.808  0.00  0.00    +0.000 A 
ATOM     19  F   UNL     1       0.732  -6.122  -8.146  0.00  0.00    +0.000 F 
ATOM     20  C   UNL     1      -0.270  -6.765  -6.098  0.00  0.00    +0.000 A 
ATOM     21  F   UNL     1      -1.306  -7.310  -6.752  0.00  0.00    +0.000 F 
ATOM     22  C   UNL     1      -0.253  -6.788  -4.707  0.00  0.00    +0.000 A 
ENDBRANCH  14  15
ENDBRANCH  10  14
ENDBRANCH   7   8
ENDBRANCH   3   7
BRANCH   4  23
ATOM     23  C   UNL     1      -0.037   0.385   0.849  0.00  0.00    +0.000 C 
BRANCH  23  24
ATOM     24  C   UNL     1      -1.060   1.201   0.106  0.00  0.00    +0.000 A 
ATOM     25  C   UNL     1      -2.236   0.635  -0.420  0.00  0.00    +0.000 A 
ATOM     26  O   UNL     1      -2.473  -0.695  -0.177  0.00  0.00    +0.000 OA
ATOM     27  C   UNL     1      -3.813  -1.082  -0.482  0.00  0.00    +0.000 C 
ATOM     28  O   UNL     1      -4.245  -0.646  -1.764  0.00  0.00    +0.000 OA
ATOM     29  C   UNL     1      -4.346   0.774  -1.775  0.00  0.00    +0.000 C 
ATOM     30  C   UNL     1      -3.113   1.401  -1.197  0.00  0.00    +0.000 A 
ATOM     31  C   UNL     1      -2.840   2.756  -1.417  0.00  0.00    +0.000 A 
ATOM     32  C   UNL     1      -1.681   3.317  -0.889  0.00  0.00    +0.000 A 
ATOM     33  F   UNL     1      -1.416   4.610  -1.115  0.00  0.00    +0.000 F 
ATOM     34  C   UNL     1      -0.791   2.553  -0.146  0.00  0.00    +0.000 A 
ENDBRANCH  23  24
ENDBRANCH   4  23
TORSDOF 6
