REMARK  Name = 
REMARK  8 active torsions:
REMARK  status: ('A' for Active; 'I' for Inactive)
REMARK    1  A    between atoms: C_1  and  O_2
REMARK    2  A    between atoms: O_2  and  C_3
REMARK    3  A    between atoms: C_3  and  C_5
REMARK    4  A    between atoms: C_10  and  C_11
REMARK    5  A    between atoms: C_11  and  N_12
REMARK    6  A    between atoms: C_13  and  C_15
REMARK    7  A    between atoms: C_18  and  C_19
REMARK    8  A    between atoms: C_24  and  O_25
REMARK                            x       y       z     vdW  Elec       q    Type
REMARK                         _______ _______ _______ _____ _____    ______ ____
ROOT
ATOM      1  N   UNL     1       9.772  -2.204   0.215  0.00  0.00    +0.000 N 
ATOM      2  C   UNL     1      10.689  -1.316  -0.308  0.00  0.00    +0.000 C 
ATOM      3  O   UNL     1      11.024  -1.300  -1.494  0.00  0.00    +0.000 OA
ATOM      4  H   UNL     1       9.627  -2.157   1.216  0.00  0.00    +0.000 HD
ENDROOT
BRANCH   2   5
ATOM      5  C   UNL     1      11.254  -0.388   0.683  0.00  0.00    +0.000 A 
ATOM      6  N   UNL     1      10.857  -0.414   1.974  0.00  0.00    +0.000 NA
ATOM      7  O   UNL     1      11.557   0.605   2.604  0.00  0.00    +0.000 OA
ATOM      8  C   UNL     1      12.374   1.231   1.710  0.00  0.00    +0.000 A 
ATOM      9  C   UNL     1      12.224   0.622   0.485  0.00  0.00    +0.000 A 
BRANCH   8  10
ATOM     10  C   UNL     1      13.179   2.339   2.215  0.00  0.00    +0.000 A 
ATOM     11  C   UNL     1      12.700   3.160   3.251  0.00  0.00    +0.000 A 
ATOM     12  C   UNL     1      13.446   4.253   3.708  0.00  0.00    +0.000 A 
ATOM     13  C   UNL     1      14.684   4.541   3.138  0.00  0.00    +0.000 A 
ATOM     14  C   UNL     1      15.182   3.737   2.115  0.00  0.00    +0.000 A 
ATOM     15  C   UNL     1      14.433   2.647   1.661  0.00  0.00    +0.000 A 
BRANCH  15  16
ATOM     16  O   UNL     1      14.944   1.861   0.661  0.00  0.00    +0.000 OA
ATOM     17  H   UNL     1      15.789   2.234   0.362  0.00  0.00    +0.000 HD
ENDBRANCH  15  16
ENDBRANCH   8  10
ENDBRANCH   2   5
BRANCH   1  18
ATOM     18  C   UNL     1       9.120  -3.245  -0.545  0.00  0.00    +0.000 C 
BRANCH  18  24
ATOM     19  C   UNL     1       4.390  -4.401   0.899  0.00  0.00    +0.000 A 
ATOM     20  C   UNL     1       4.879  -5.196   1.947  0.00  0.00    +0.000 A 
ATOM     21  C   UNL     1       6.234  -5.210   2.236  0.00  0.00    +0.000 A 
ATOM     22  C   UNL     1       7.122  -4.476   1.444  0.00  0.00    +0.000 A 
ATOM     23  C   UNL     1       6.698  -3.743   0.309  0.00  0.00    +0.000 A 
ATOM     24  C   UNL     1       7.608  -3.092  -0.591  0.00  0.00    +0.000 A 
ATOM     25  C   UNL     1       7.104  -2.319  -1.651  0.00  0.00    +0.000 A 
ATOM     26  C   UNL     1       5.739  -2.202  -1.858  0.00  0.00    +0.000 A 
ATOM     27  C   UNL     1       4.854  -2.873  -1.020  0.00  0.00    +0.000 A 
ATOM     28  C   UNL     1       5.290  -3.673   0.060  0.00  0.00    +0.000 A 
BRANCH  19  29
ATOM     29  C   UNL     1       2.905  -4.375   0.703  0.00  0.00    +0.000 C 
ATOM     30  O   UNL     1       2.324  -4.232  -0.358  0.00  0.00    +0.000 OA
BRANCH  29  32
ATOM     31  C   UNL     1       0.870  -4.480   1.858  0.00  0.00    +0.000 C 
ATOM     32  O   UNL     1       2.296  -4.513   1.913  0.00  0.00    +0.000 OA
ENDBRANCH  29  32
ENDBRANCH  19  29
ENDBRANCH  18  24
ENDBRANCH   1  18
TORSDOF 7
