REMARK  Name = 
REMARK  6 active torsions:
REMARK  status: ('A' for Active; 'I' for Inactive)
REMARK    1  A    between atoms: C_1  and  C_2
REMARK    2  A    between atoms: C_7  and  C_8
REMARK    3  A    between atoms: C_8  and  N_9
REMARK    4  A    between atoms: C_8  and  C_25
REMARK    5  A    between atoms: C_10  and  C_12
REMARK    6  A    between atoms: N_18  and  C_19
REMARK                            x       y       z     vdW  Elec       q    Type
REMARK                         _______ _______ _______ _____ _____    ______ ____
ROOT
ATOM      1  N   UNL     1       0.079  -3.695   0.077  0.00  0.00    +0.000 N 
ATOM      2  C   UNL     1      -0.109  -4.526  -1.005  0.00  0.00    +0.000 C 
ATOM      3  O   UNL     1       0.461  -4.384  -2.079  0.00  0.00    +0.000 OA
ATOM      4  H   UNL     1      -0.621  -3.683   0.801  0.00  0.00    +0.000 HD
ENDROOT
BRANCH   2   5
ATOM      5  C   UNL     1      -1.116  -5.619  -0.859  0.00  0.00    +0.000 A 
ATOM      6  C   UNL     1      -1.846  -5.957  -2.020  0.00  0.00    +0.000 A 
ATOM      7  C   UNL     1      -2.831  -6.931  -1.980  0.00  0.00    +0.000 A 
ATOM      8  C   UNL     1      -3.110  -7.521  -0.755  0.00  0.00    +0.000 A 
ATOM      9  C   UNL     1      -4.322  -8.304  -0.599  0.00  0.00    +0.000 A 
ATOM     10  O   UNL     1      -4.671  -9.158  -1.407  0.00  0.00    +0.000 OA
ATOM     11  N   UNL     1      -5.048  -7.880   0.506  0.00  0.00    +0.000 N 
ATOM     12  C   UNL     1      -6.322  -7.274   0.184  0.00  0.00    +0.000 C 
ATOM     13  C   UNL     1      -4.427  -7.687   1.712  0.00  0.00    +0.000 A 
ATOM     14  O   UNL     1      -5.002  -7.542   2.782  0.00  0.00    +0.000 OA
ATOM     15  N   UNL     1      -3.031  -7.574   1.637  0.00  0.00    +0.000 N 
ATOM     16  C   UNL     1      -2.452  -7.168   0.417  0.00  0.00    +0.000 A 
ATOM     17  C   UNL     1      -1.381  -6.272   0.364  0.00  0.00    +0.000 A 
ATOM     18  H   UNL     1      -2.574  -7.384   2.520  0.00  0.00    +0.000 HD
ENDBRANCH   2   5
BRANCH   1  19
ATOM     19  C   UNL     1       1.008  -2.564   0.010  0.00  0.00    +0.000 C 
BRANCH  19  26
ATOM     20  C   UNL     1       1.696  -0.654  -2.281  0.00  0.00    +0.000 C 
ATOM     21  C   UNL     1       0.670  -0.317  -1.231  0.00  0.00    +0.000 A 
ATOM     22  C   UNL     1       0.107   0.973  -1.257  0.00  0.00    +0.000 A 
ATOM     23  C   UNL     1      -0.841   1.366  -0.315  0.00  0.00    +0.000 A 
ATOM     24  C   UNL     1      -1.255   0.469   0.660  0.00  0.00    +0.000 A 
ATOM     25  C   UNL     1      -0.700  -0.810   0.709  0.00  0.00    +0.000 A 
ATOM     26  C   UNL     1       0.287  -1.224  -0.212  0.00  0.00    +0.000 A 
ENDBRANCH  19  26
BRANCH  19  27
ATOM     27  C   UNL     1       1.904  -2.469   1.254  0.00  0.00    +0.000 A 
ATOM     28  C   UNL     1       1.439  -2.767   2.546  0.00  0.00    +0.000 A 
ATOM     29  C   UNL     1       2.228  -2.503   3.670  0.00  0.00    +0.000 A 
ATOM     30  C   UNL     1       3.496  -1.949   3.516  0.00  0.00    +0.000 A 
ATOM     31 CL   UNL     1       4.441  -1.577   4.904  0.00  0.00    +0.000 Cl
ATOM     32  C   UNL     1       3.992  -1.675   2.246  0.00  0.00    +0.000 A 
ATOM     33  C   UNL     1       3.201  -1.934   1.123  0.00  0.00    +0.000 A 
ENDBRANCH  19  27
ENDBRANCH   1  19
TORSDOF 4
