REMARK  Name = 
REMARK  7 active torsions:
REMARK  status: ('A' for Active; 'I' for Inactive)
REMARK    1  A    between atoms: C_2  and  C_3
REMARK    2  A    between atoms: C_6  and  C_7
REMARK    3  A    between atoms: N_9  and  C_10
REMARK    4  A    between atoms: C_10  and  C_11
REMARK    5  A    between atoms: C_11  and  C_12
REMARK    6  A    between atoms: N_20  and  C_21
REMARK    7  A    between atoms: C_21  and  C_22
REMARK                            x       y       z     vdW  Elec       q    Type
REMARK                         _______ _______ _______ _____ _____    ______ ____
ROOT
ATOM      1  C   UNL     1       6.435   5.190   0.322  0.00  0.00    +0.000 A 
ATOM      2  N   UNL     1       6.776   6.461   0.398  0.00  0.00    +0.000 NA
ATOM      3  C   UNL     1       8.141   6.496   0.330  0.00  0.00    +0.000 A 
ATOM      4  C   UNL     1       8.998   7.607   0.393  0.00  0.00    +0.000 A 
ATOM      5  C   UNL     1      10.381   7.407   0.345  0.00  0.00    +0.000 A 
ATOM      6  C   UNL     1      10.898   6.126   0.176  0.00  0.00    +0.000 A 
ATOM      7  C   UNL     1      10.055   5.009   0.071  0.00  0.00    +0.000 A 
ATOM      8  C   UNL     1       8.670   5.215   0.192  0.00  0.00    +0.000 A 
ATOM      9  N   UNL     1       7.562   4.379   0.241  0.00  0.00    +0.000 N 
ENDROOT
BRANCH   9  10
ATOM     10  C   UNL     1       7.600   2.924   0.420  0.00  0.00    +0.000 C 
BRANCH  10  11
ATOM     11  C   UNL     1       7.564   2.148  -0.872  0.00  0.00    +0.000 A 
ATOM     12  C   UNL     1       8.586   2.266  -1.823  0.00  0.00    +0.000 A 
ATOM     13  C   UNL     1       8.454   1.691  -3.084  0.00  0.00    +0.000 A 
ATOM     14  C   UNL     1       7.327   0.933  -3.388  0.00  0.00    +0.000 A 
ATOM     15  C   UNL     1       6.363   0.700  -2.410  0.00  0.00    +0.000 A 
ATOM     16  C   UNL     1       6.484   1.298  -1.155  0.00  0.00    +0.000 A 
ENDBRANCH  10  11
ENDBRANCH   9  10
BRANCH   1  17
ATOM     17  C   UNL     1       5.010   4.730   0.272  0.00  0.00    +0.000 C 
BRANCH  17  18
ATOM     18  C   UNL     1       4.391   4.507   1.655  0.00  0.00    +0.000 C 
BRANCH  18  21
ATOM     19  C   UNL     1       2.630   2.897   1.004  0.00  0.00    +0.000 C 
ATOM     20  O   UNL     1       3.436   2.148   0.455  0.00  0.00    +0.000 OA
ATOM     21  N   UNL     1       2.998   4.087   1.592  0.00  0.00    +0.000 N 
ATOM     22  H   UNL     1       2.306   4.644   2.086  0.00  0.00    +0.000 HD
BRANCH  19  26
ATOM     23  C   UNL     1      -1.496   1.712   1.102  0.00  0.00    +0.000 A 
ATOM     24  C   UNL     1      -0.553   0.943   0.427  0.00  0.00    +0.000 A 
ATOM     25  C   UNL     1       0.787   1.336   0.392  0.00  0.00    +0.000 A 
ATOM     26  C   UNL     1       1.198   2.515   1.042  0.00  0.00    +0.000 A 
ATOM     27  C   UNL     1       0.243   3.274   1.721  0.00  0.00    +0.000 A 
ATOM     28  F   UNL     1       0.571   4.408   2.355  0.00  0.00    +0.000 F 
ATOM     29  C   UNL     1      -1.091   2.889   1.746  0.00  0.00    +0.000 A 
BRANCH  23  31
ATOM     30  N   UNL     1      -3.971   0.990   1.197  0.00  0.00    +0.000 NA
ATOM     31  C   UNL     1      -2.855   1.311   1.166  0.00  0.00    +0.000 C 
ENDBRANCH  23  31
ENDBRANCH  19  26
ENDBRANCH  18  21
ENDBRANCH  17  18
ENDBRANCH   1  17
TORSDOF 7
