REMARK  Name = 
REMARK  4 active torsions:
REMARK  status: ('A' for Active; 'I' for Inactive)
REMARK    1  A    between atoms: C_1  and  O_2
REMARK    2  A    between atoms: O_2  and  C_3
REMARK    3  A    between atoms: C_12  and  C_13
REMARK    4  A    between atoms: C_20  and  C_21
REMARK                            x       y       z     vdW  Elec       q    Type
REMARK                         _______ _______ _______ _____ _____    ______ ____
ROOT
ATOM      1  C   UNL     1       5.159  -0.553   4.070  0.00  0.00    +0.000 A 
ATOM      2  C   UNL     1       3.980  -0.432   3.328  0.00  0.00    +0.000 A 
ATOM      3  C   UNL     1       3.790   0.665   2.482  0.00  0.00    +0.000 A 
ATOM      4  C   UNL     1       4.796   1.624   2.373  0.00  0.00    +0.000 A 
ATOM      5  C   UNL     1       4.623   2.801   1.538  0.00  0.00    +0.000 A 
ATOM      6  N   UNL     1       5.535   3.700   1.351  0.00  0.00    +0.000 NA
ATOM      7  N   UNL     1       6.766   3.538   1.976  0.00  0.00    +0.000 N 
ATOM      8  C   UNL     1       7.757   4.507   1.614  0.00  0.00    +0.000 A 
ATOM      9  N   UNL     1       9.017   4.351   2.048  0.00  0.00    +0.000 NA
ATOM     10  C   UNL     1       9.951   5.232   1.672  0.00  0.00    +0.000 A 
ATOM     11  N   UNL     1       9.705   6.287   0.881  0.00  0.00    +0.000 NA
ATOM     12  C   UNL     1       8.433   6.451   0.447  0.00  0.00    +0.000 A 
ATOM     13  C   UNL     1       7.427   5.570   0.795  0.00  0.00    +0.000 A 
ATOM     14  C   UNL     1       7.056   2.489   2.862  0.00  0.00    +0.000 A 
ATOM     15  O   UNL     1       8.101   2.301   3.482  0.00  0.00    +0.000 OA
ATOM     16  C   UNL     1       5.985   1.494   3.065  0.00  0.00    +0.000 A 
ATOM     17  C   UNL     1       6.163   0.407   3.927  0.00  0.00    +0.000 A 
ENDROOT
BRANCH  10  18
ATOM     18  C   UNL     1      11.334   5.011   2.138  0.00  0.00    +0.000 A 
ATOM     19  C   UNL     1      11.667   3.918   2.962  0.00  0.00    +0.000 A 
ATOM     20  C   UNL     1      12.979   3.706   3.401  0.00  0.00    +0.000 A 
ATOM     21  C   UNL     1      13.989   4.586   3.024  0.00  0.00    +0.000 A 
ATOM     22  C   UNL     1      13.691   5.674   2.208  0.00  0.00    +0.000 A 
ATOM     23  C   UNL     1      12.379   5.880   1.771  0.00  0.00    +0.000 A 
ENDBRANCH  10  18
BRANCH  12  24
ATOM     24  C   UNL     1       8.101   7.623  -0.459  0.00  0.00    +0.000 C 
ATOM     25  F   UNL     1       9.150   8.452  -0.712  0.00  0.00    +0.000 F 
ATOM     26  F   UNL     1       7.640   7.220  -1.680  0.00  0.00    +0.000 F 
ATOM     27  F   UNL     1       7.116   8.416   0.057  0.00  0.00    +0.000 F 
ENDBRANCH  12  24
BRANCH   1  29
ATOM     28  C   UNL     1       4.439  -2.519   5.198  0.00  0.00    +0.000 C 
ATOM     29  O   UNL     1       5.451  -1.550   4.958  0.00  0.00    +0.000 OA
ENDBRANCH   1  29
TORSDOF 3
