
     RDKit          3D

 31 35  0  0  0  0  0  0  0  0999 V2000
  174.2481  161.8463  114.1985 C   0  0  1  0  0  0  0  0  0  0  0  0
  173.3375  160.8355  114.8253 C   0  0  1  0  0  0  0  0  0  0  0  0
  174.2931  159.7499  115.2402 C   0  0  0  0  0  0  0  0  0  0  0  0
  175.6387  160.4786  115.4448 C   0  0  0  0  0  0  0  0  0  0  0  0
  175.6358  161.2080  114.1178 C   0  0  1  0  0  0  0  0  0  0  0  0
  175.8023  160.2097  113.0363 C   0  0  0  0  0  0  0  0  0  0  0  0
  176.5937  162.3588  114.0417 C   0  0  0  0  0  0  0  0  0  0  0  0
  176.3314  163.1980  112.8212 C   0  0  0  0  0  0  0  0  0  0  0  0
  174.8951  163.5384  112.6079 C   0  0  2  0  0  0  0  0  0  0  0  0
  174.5532  164.5881  113.6376 C   0  0  0  0  0  0  0  0  0  0  0  0
  173.9460  162.3581  112.8593 C   0  0  2  0  0  0  0  0  0  0  0  0
  172.5278  162.7448  112.5921 C   0  0  0  0  0  0  0  0  0  0  0  0
  172.3724  163.2927  111.1750 C   0  0  0  0  0  0  0  0  0  0  0  0
  173.2741  164.4677  111.0714 C   0  0  2  0  0  0  0  0  0  0  0  0
  172.9723  165.4164  109.9245 C   0  0  1  0  0  0  0  0  0  0  0  0
  173.1415  164.8105  108.5804 C   0  0  0  0  0  0  0  0  0  0  0  0
  171.5128  165.8272  110.0541 C   0  0  0  0  0  0  0  0  0  0  0  0
  171.1528  166.9855  109.1687 C   0  0  0  0  0  0  0  0  0  0  0  0
  172.0715  168.1299  109.1654 C   0  0  2  0  0  0  0  0  0  0  0  0
  172.0300  168.7136  107.8737 O   0  0  0  0  0  0  0  0  0  0  0  0
  173.5031  167.8529  109.4629 C   0  0  0  0  0  0  0  0  0  0  0  0
  174.3845  167.9884  108.2109 C   0  0  0  0  0  0  0  0  0  0  0  0
  173.9844  169.0326  110.3373 C   0  0  0  0  0  0  0  0  0  0  0  0
  173.8050  166.6225  110.1969 C   0  0  2  0  0  0  0  0  0  0  0  0
  175.2524  166.2393  110.0148 C   0  0  0  0  0  0  0  0  0  0  0  0
  175.6960  165.1763  110.9767 C   0  0  0  0  0  0  0  0  0  0  0  0
  174.7096  164.0643  111.1761 C   0  0  1  0  0  0  0  0  0  0  0  0
  175.0910  162.9616  110.2239 C   0  0  0  0  0  0  0  0  0  0  0  0
  172.6938  161.4054  116.0340 C   0  0  0  0  0  0  0  0  0  0  0  0
  171.6163  160.6310  116.7610 C   0  0  0  0  0  0  0  0  0  0  0  0
  172.9848  162.5626  116.5776 C   0  0  0  0  0  0  0  0  0  0  0  0
  1  2  1  6
  2  3  1  0
  3  4  1  0
  4  5  1  0
  5  6  1  6
  5  7  1  0
  7  8  1  0
  8  9  1  0
  9 10  1  1
  9 11  1  0
 11 12  1  1
 12 13  1  0
 14 13  1  6
 14 15  1  0
 15 16  1  6
 15 17  1  0
 17 18  1  0
 18 19  1  0
 19 20  1  6
 19 21  1  0
 21 22  1  0
 21 23  1  0
 21 24  1  0
 24 25  1  6
 25 26  1  0
 26 27  1  0
 27 28  1  6
  2 29  1  1
 29 30  1  0
 29 31  2  0
  5  1  1  0
 27  9  1  0
 11  1  1  0
 27 14  1  0
 24 15  1  0
M  END
$$$$
