
     RDKit          3D

 31 35  0  0  0  0  0  0  0  0999 V2000
  147.5417  166.1431  129.5838 C   0  0  1  0  0  0  0  0  0  0  0  0
  146.3448  167.0079  129.8352 C   0  0  1  0  0  0  0  0  0  0  0  0
  146.0087  166.6900  131.2669 C   0  0  0  0  0  0  0  0  0  0  0  0
  147.3507  166.2464  131.8883 C   0  0  0  0  0  0  0  0  0  0  0  0
  147.7095  165.2451  130.8106 C   0  0  1  0  0  0  0  0  0  0  0  0
  146.7581  164.1126  130.8905 C   0  0  0  0  0  0  0  0  0  0  0  0
  149.1513  164.8342  130.8025 C   0  0  0  0  0  0  0  0  0  0  0  0
  149.4881  164.0756  129.5480 C   0  0  0  0  0  0  0  0  0  0  0  0
  148.9910  164.7121  128.2941 C   0  0  2  0  0  0  0  0  0  0  0  0
  149.8852  165.9022  128.0425 C   0  0  0  0  0  0  0  0  0  0  0  0
  147.5621  165.2602  128.4148 C   0  0  2  0  0  0  0  0  0  0  0  0
  147.1031  165.8487  127.1205 C   0  0  0  0  0  0  0  0  0  0  0  0
  147.2146  164.8277  125.9901 C   0  0  0  0  0  0  0  0  0  0  0  0
  148.6425  164.4274  125.9172 C   0  0  2  0  0  0  0  0  0  0  0  0
  149.0641  163.7668  124.6164 C   0  0  1  0  0  0  0  0  0  0  0  0
  148.3928  162.4697  124.3537 C   0  0  0  0  0  0  0  0  0  0  0  0
  148.6784  164.7116  123.4876 C   0  0  0  0  0  0  0  0  0  0  0  0
  149.2943  164.3298  122.1722 C   0  0  0  0  0  0  0  0  0  0  0  0
  150.7243  163.9996  122.1791 C   0  0  2  0  0  0  0  0  0  0  0  0
  150.9481  163.0276  121.1712 O   0  0  0  0  0  0  0  0  0  0  0  0
  151.2875  163.4449  123.4398 C   0  0  0  0  0  0  0  0  0  0  0  0
  151.6207  161.9500  123.3088 C   0  0  0  0  0  0  0  0  0  0  0  0
  152.6859  164.0850  123.5903 C   0  0  0  0  0  0  0  0  0  0  0  0
  150.5530  163.7211  124.6760 C   0  0  2  0  0  0  0  0  0  0  0  0
  150.9457  162.7429  125.7548 C   0  0  0  0  0  0  0  0  0  0  0  0
  150.4669  163.1574  127.1152 C   0  0  0  0  0  0  0  0  0  0  0  0
  149.0660  163.6918  127.1476 C   0  0  1  0  0  0  0  0  0  0  0  0
  148.1626  162.5377  127.4941 C   0  0  0  0  0  0  0  0  0  0  0  0
  146.7157  168.4401  129.7287 C   0  0  0  0  0  0  0  0  0  0  0  0
  145.6842  169.5162  129.9882 C   0  0  0  0  0  0  0  0  0  0  0  0
  147.9085  168.8977  129.4336 C   0  0  0  0  0  0  0  0  0  0  0  0
  1  2  1  1
  2  3  1  0
  3  4  1  0
  4  5  1  0
  5  6  1  6
  5  7  1  0
  7  8  1  0
  8  9  1  0
  9 10  1  6
  9 11  1  0
 11 12  1  6
 12 13  1  0
 14 13  1  6
 14 15  1  0
 15 16  1  6
 15 17  1  0
 17 18  1  0
 18 19  1  0
 19 20  1  6
 19 21  1  0
 21 22  1  0
 21 23  1  0
 21 24  1  0
 24 25  1  1
 25 26  1  0
 26 27  1  0
 27 28  1  1
  2 29  1  1
 29 30  1  0
 29 31  2  0
  5  1  1  0
 27  9  1  0
 11  1  1  0
 27 14  1  0
 24 15  1  0
M  END
$$$$
