
     RDKit          3D

 31 35  0  0  0  0  0  0  0  0999 V2000
  174.2008  166.1208  111.1368 C   0  0  1  0  0  0  0  0  0  0  0  0
  174.3441  167.5551  110.7295 C   0  0  1  0  0  0  0  0  0  0  0  0
  175.4338  168.0455  111.6437 C   0  0  0  0  0  0  0  0  0  0  0  0
  176.2529  166.7808  111.9799 C   0  0  0  0  0  0  0  0  0  0  0  0
  175.0726  165.9196  112.3773 C   0  0  1  0  0  0  0  0  0  0  0  0
  174.5041  166.4585  113.6345 C   0  0  0  0  0  0  0  0  0  0  0  0
  175.3647  164.4496  112.4181 C   0  0  0  0  0  0  0  0  0  0  0  0
  174.0951  163.6514  112.5350 C   0  0  0  0  0  0  0  0  0  0  0  0
  173.0183  164.0698  111.5916 C   0  0  2  0  0  0  0  0  0  0  0  0
  173.4333  163.5688  110.2293 C   0  0  0  0  0  0  0  0  0  0  0  0
  172.8749  165.5933  111.4689 C   0  0  2  0  0  0  0  0  0  0  0  0
  171.7578  165.9534  110.5443 C   0  0  0  0  0  0  0  0  0  0  0  0
  170.4503  165.3051  110.9944 C   0  0  0  0  0  0  0  0  0  0  0  0
  170.6832  163.8388  111.0038 C   0  0  2  0  0  0  0  0  0  0  0  0
  169.4280  162.9838  110.9960 C   0  0  1  0  0  0  0  0  0  0  0  0
  168.5821  163.1438  112.2048 C   0  0  0  0  0  0  0  0  0  0  0  0
  168.5944  163.4213  109.8004 C   0  0  0  0  0  0  0  0  0  0  0  0
  167.4719  162.4718  109.4942 C   0  0  0  0  0  0  0  0  0  0  0  0
  167.7994  161.0414  109.4712 C   0  0  2  0  0  0  0  0  0  0  0  0
  166.6510  160.3283  109.8997 O   0  0  0  0  0  0  0  0  0  0  0  0
  168.9278  160.5887  110.3292 C   0  0  0  0  0  0  0  0  0  0  0  0
  168.4371  159.7795  111.5404 C   0  0  0  0  0  0  0  0  0  0  0  0
  169.6815  159.5236  109.5013 C   0  0  0  0  0  0  0  0  0  0  0  0
  169.9103  161.5994  110.7258 C   0  0  2  0  0  0  0  0  0  0  0  0
  170.6904  161.1351  111.9303 C   0  0  0  0  0  0  0  0  0  0  0  0
  171.9046  161.9765  112.1941 C   0  0  0  0  0  0  0  0  0  0  0  0
  171.6856  163.4526  112.0431 C   0  0  1  0  0  0  0  0  0  0  0  0
  171.3647  163.9921  113.4120 C   0  0  0  0  0  0  0  0  0  0  0  0
  174.8106  167.6447  109.3243 C   0  0  0  0  0  0  0  0  0  0  0  0
  176.2909  167.6711  109.0126 C   0  0  0  0  0  0  0  0  0  0  0  0
  174.0368  167.6904  108.2667 C   0  0  0  0  0  0  0  0  0  0  0  0
  1  2  1  1
  2  3  1  0
  3  4  1  0
  4  5  1  0
  5  6  1  1
  5  7  1  0
  7  8  1  0
  8  9  1  0
  9 10  1  6
  9 11  1  0
 11 12  1  6
 12 13  1  0
 14 13  1  1
 14 15  1  0
 15 16  1  1
 15 17  1  0
 17 18  1  0
 18 19  1  0
 19 20  1  1
 19 21  1  0
 21 22  1  0
 21 23  1  0
 21 24  1  0
 24 25  1  1
 25 26  1  0
 26 27  1  0
 27 28  1  1
  2 29  1  6
 29 30  1  0
 29 31  2  0
  5  1  1  0
 27  9  1  0
 11  1  1  0
 27 14  1  0
 24 15  1  0
M  END
$$$$
