
     RDKit          3D

 31 35  0  0  0  0  0  0  0  0999 V2000
  201.1803  131.6875  137.3873 C   0  0  1  0  0  0  0  0  0  0  0  0
  200.8226  130.8305  138.5625 C   0  0  1  0  0  0  0  0  0  0  0  0
  199.3514  131.1001  138.7259 C   0  0  0  0  0  0  0  0  0  0  0  0
  198.8743  131.5023  137.3137 C   0  0  0  0  0  0  0  0  0  0  0  0
  199.9506  132.5375  137.0636 C   0  0  1  0  0  0  0  0  0  0  0  0
  199.7217  133.6792  137.9792 C   0  0  0  0  0  0  0  0  0  0  0  0
  200.1110  132.9289  135.6252 C   0  0  0  0  0  0  0  0  0  0  0  0
  201.3687  133.7284  135.4217 C   0  0  0  0  0  0  0  0  0  0  0  0
  202.5782  133.1452  136.0709 C   0  0  2  0  0  0  0  0  0  0  0  0
  202.9729  131.9531  135.2329 C   0  0  0  0  0  0  0  0  0  0  0  0
  202.3123  132.6125  137.4859 C   0  0  2  0  0  0  0  0  0  0  0  0
  203.5646  132.0782  138.1012 C   0  0  0  0  0  0  0  0  0  0  0  0
  204.6639  133.1384  138.1024 C   0  0  0  0  0  0  0  0  0  0  0  0
  204.8874  133.5218  136.6855 C   0  0  2  0  0  0  0  0  0  0  0  0
  206.2044  134.2240  136.4047 C   0  0  1  0  0  0  0  0  0  0  0  0
  206.3423  135.5388  137.0787 C   0  0  0  0  0  0  0  0  0  0  0  0
  207.3134  133.3265  136.9344 C   0  0  0  0  0  0  0  0  0  0  0  0
  208.6770  133.7480  136.4674 C   0  0  0  0  0  0  0  0  0  0  0  0
  208.8240  134.0583  135.0405 C   0  0  2  0  0  0  0  0  0  0  0  0
  209.8165  135.0635  134.9169 O   0  0  0  0  0  0  0  0  0  0  0  0
  207.6183  134.5586  134.3261 C   0  0  0  0  0  0  0  0  0  0  0  0
  207.7346  136.0526  133.9838 C   0  0  0  0  0  0  0  0  0  0  0  0
  207.6530  133.8945  132.9312 C   0  0  0  0  0  0  0  0  0  0  0  0
  206.3159  134.2471  134.9183 C   0  0  2  0  0  0  0  0  0  0  0  0
  205.2562  135.1796  134.3869 C   0  0  0  0  0  0  0  0  0  0  0  0
  203.8648  134.7220  134.7131 C   0  0  0  0  0  0  0  0  0  0  0  0
  203.6893  134.2058  136.1103 C   0  0  1  0  0  0  0  0  0  0  0  0
  203.2007  135.3586  136.9472 C   0  0  0  0  0  0  0  0  0  0  0  0
  201.0212  129.3983  138.2317 C   0  0  0  0  0  0  0  0  0  0  0  0
  202.3080  128.6992  138.6120 C   0  0  0  0  0  0  0  0  0  0  0  0
  200.1488  128.6285  137.6270 C   0  0  0  0  0  0  0  0  0  0  0  0
  1  2  1  1
  2  3  1  0
  3  4  1  0
  4  5  1  0
  5  6  1  1
  5  7  1  0
  7  8  1  0
  8  9  1  0
  9 10  1  6
  9 11  1  0
 11 12  1  6
 12 13  1  0
 14 13  1  1
 14 15  1  0
 15 16  1  1
 15 17  1  0
 17 18  1  0
 18 19  1  0
 19 20  1  1
 19 21  1  0
 21 22  1  0
 21 23  1  0
 21 24  1  0
 24 25  1  6
 25 26  1  0
 26 27  1  0
 27 28  1  1
  2 29  1  6
 29 30  1  0
 29 31  2  0
  5  1  1  0
 27  9  1  0
 11  1  1  0
 27 14  1  0
 24 15  1  0
M  END
$$$$
