
     RDKit          3D

 31 35  0  0  0  0  0  0  0  0999 V2000
  108.2218  167.0645  154.7375 C   0  0  1  0  0  0  0  0  0  0  0  0
  108.7357  168.2180  153.9319 C   0  0  1  0  0  0  0  0  0  0  0  0
  109.6454  167.5434  152.9415 C   0  0  0  0  0  0  0  0  0  0  0  0
  109.0778  166.1137  152.8085 C   0  0  0  0  0  0  0  0  0  0  0  0
  109.0025  165.8265  154.2933 C   0  0  1  0  0  0  0  0  0  0  0  0
  110.3834  165.7359  154.8216 C   0  0  0  0  0  0  0  0  0  0  0  0
  108.1309  164.6615  154.6552 C   0  0  0  0  0  0  0  0  0  0  0  0
  107.8785  164.6177  156.1373 C   0  0  0  0  0  0  0  0  0  0  0  0
  107.4848  165.9278  156.7316 C   0  0  2  0  0  0  0  0  0  0  0  0
  106.0583  166.1734  156.3029 C   0  0  0  0  0  0  0  0  0  0  0  0
  108.3078  167.1094  156.1994 C   0  0  2  0  0  0  0  0  0  0  0  0
  107.8985  168.3868  156.8574 C   0  0  0  0  0  0  0  0  0  0  0  0
  108.0048  168.2731  158.3767 C   0  0  0  0  0  0  0  0  0  0  0  0
  107.1163  167.1552  158.7833 C   0  0  2  0  0  0  0  0  0  0  0  0
  106.7293  167.1370  160.2518 C   0  0  1  0  0  0  0  0  0  0  0  0
  107.8744  166.9384  161.1746 C   0  0  0  0  0  0  0  0  0  0  0  0
  106.1211  168.4945  160.5725 C   0  0  0  0  0  0  0  0  0  0  0  0
  105.4263  168.5218  161.9036 C   0  0  0  0  0  0  0  0  0  0  0  0
  104.5237  167.4044  162.2049 C   0  0  2  0  0  0  0  0  0  0  0  0
  104.5582  167.1869  163.6057 O   0  0  0  0  0  0  0  0  0  0  0  0
  104.8238  166.0962  161.5622 C   0  0  0  0  0  0  0  0  0  0  0  0
  105.3581  165.0703  162.5745 C   0  0  0  0  0  0  0  0  0  0  0  0
  103.4533  165.4970  161.1738 C   0  0  0  0  0  0  0  0  0  0  0  0
  105.6412  166.1225  160.3477 C   0  0  2  0  0  0  0  0  0  0  0  0
  106.2461  164.7656  160.0874 C   0  0  0  0  0  0  0  0  0  0  0  0
  106.8333  164.6469  158.7115 C   0  0  0  0  0  0  0  0  0  0  0  0
  107.6133  165.8460  158.2606 C   0  0  1  0  0  0  0  0  0  0  0  0
  109.0584  165.5808  158.5911 C   0  0  0  0  0  0  0  0  0  0  0  0
  107.6210  168.8708  153.2027 C   0  0  0  0  0  0  0  0  0  0  0  0
  107.7687  170.2886  152.6953 C   0  0  0  0  0  0  0  0  0  0  0  0
  106.4664  168.3162  152.9224 C   0  0  0  0  0  0  0  0  0  0  0  0
  1  2  1  6
  2  3  1  0
  3  4  1  0
  4  5  1  0
  5  6  1  1
  5  7  1  0
  7  8  1  0
  8  9  1  0
  9 10  1  1
  9 11  1  0
 11 12  1  1
 12 13  1  0
 14 13  1  1
 14 15  1  0
 15 16  1  1
 15 17  1  0
 17 18  1  0
 18 19  1  0
 19 20  1  1
 19 21  1  0
 21 22  1  0
 21 23  1  0
 21 24  1  0
 24 25  1  1
 25 26  1  0
 26 27  1  0
 27 28  1  6
  2 29  1  6
 29 30  1  0
 29 31  2  0
  5  1  1  0
 27  9  1  0
 11  1  1  0
 27 14  1  0
 24 15  1  0
M  END
$$$$
