
     RDKit          3D

 31 35  0  0  0  0  0  0  0  0999 V2000
  147.5384  168.1115  133.1555 C   0  0  1  0  0  0  0  0  0  0  0  0
  147.0289  169.4601  133.5624 C   0  0  1  0  0  0  0  0  0  0  0  0
  146.4346  169.1879  134.9176 C   0  0  0  0  0  0  0  0  0  0  0  0
  147.2173  167.9653  135.4431 C   0  0  0  0  0  0  0  0  0  0  0  0
  147.0450  167.1128  134.2037 C   0  0  1  0  0  0  0  0  0  0  0  0
  145.6158  166.7409  134.0882 C   0  0  0  0  0  0  0  0  0  0  0  0
  147.9890  165.9514  134.1148 C   0  0  0  0  0  0  0  0  0  0  0  0
  147.9540  165.3326  132.7443 C   0  0  0  0  0  0  0  0  0  0  0  0
  148.0323  166.3155  131.6252 C   0  0  2  0  0  0  0  0  0  0  0  0
  149.4642  166.7920  131.5822 C   0  0  0  0  0  0  0  0  0  0  0  0
  147.1660  167.5629  131.8490 C   0  0  2  0  0  0  0  0  0  0  0  0
  147.2520  168.4913  130.6815 C   0  0  0  0  0  0  0  0  0  0  0  0
  146.8717  167.7735  129.3881 C   0  0  0  0  0  0  0  0  0  0  0  0
  147.8166  166.6382  129.2375 C   0  0  2  0  0  0  0  0  0  0  0  0
  147.9112  166.0558  127.8380 C   0  0  1  0  0  0  0  0  0  0  0  0
  146.6503  165.4406  127.3546 C   0  0  0  0  0  0  0  0  0  0  0  0
  148.2438  167.2036  126.8958 C   0  0  0  0  0  0  0  0  0  0  0  0
  148.6570  166.7352  125.5302 C   0  0  0  0  0  0  0  0  0  0  0  0
  149.6359  165.6433  125.4704 C   0  0  2  0  0  0  0  0  0  0  0  0
  149.3633  164.8820  124.3055 O   0  0  0  0  0  0  0  0  0  0  0  0
  149.6575  164.6869  126.6102 C   0  0  0  0  0  0  0  0  0  0  0  0
  149.0913  163.3134  126.2157 C   0  0  0  0  0  0  0  0  0  0  0  0
  151.1489  164.3712  126.8630 C   0  0  0  0  0  0  0  0  0  0  0  0
  149.0950  165.1507  127.8799 C   0  0  2  0  0  0  0  0  0  0  0  0
  148.7539  163.9796  128.7670 C   0  0  0  0  0  0  0  0  0  0  0  0
  148.4669  164.3884  130.1820 C   0  0  0  0  0  0  0  0  0  0  0  0
  147.6241  165.6217  130.3163 C   0  0  1  0  0  0  0  0  0  0  0  0
  146.1960  165.1655  130.4591 C   0  0  0  0  0  0  0  0  0  0  0  0
  148.1574  170.4117  133.7081 C   0  0  0  0  0  0  0  0  0  0  0  0
  147.9440  171.7504  134.3801 C   0  0  0  0  0  0  0  0  0  0  0  0
  149.3885  170.1995  133.3097 C   0  0  0  0  0  0  0  0  0  0  0  0
  1  2  1  1
  2  3  1  0
  3  4  1  0
  4  5  1  0
  5  6  1  6
  5  7  1  0
  7  8  1  0
  8  9  1  0
  9 10  1  6
  9 11  1  0
 11 12  1  6
 12 13  1  0
 14 13  1  6
 14 15  1  0
 15 16  1  6
 15 17  1  0
 17 18  1  0
 18 19  1  0
 19 20  1  6
 19 21  1  0
 21 22  1  0
 21 23  1  0
 21 24  1  0
 24 25  1  1
 25 26  1  0
 26 27  1  0
 27 28  1  1
  2 29  1  1
 29 30  1  0
 29 31  2  0
  5  1  1  0
 27  9  1  0
 11  1  1  0
 27 14  1  0
 24 15  1  0
M  END
$$$$
