
     RDKit          3D

 31 35  0  0  0  0  0  0  0  0999 V2000
  199.2648  141.5258  144.3153 C   0  0  1  0  0  0  0  0  0  0  0  0
  198.5911  140.3458  144.9457 C   0  0  1  0  0  0  0  0  0  0  0  0
  197.1329  140.6617  144.7517 C   0  0  0  0  0  0  0  0  0  0  0  0
  197.0981  141.5682  143.5023 C   0  0  0  0  0  0  0  0  0  0  0  0
  198.1678  142.5334  143.9678 C   0  0  1  0  0  0  0  0  0  0  0  0
  197.6361  143.2996  145.1186 C   0  0  0  0  0  0  0  0  0  0  0  0
  198.7481  143.3863  142.8799 C   0  0  0  0  0  0  0  0  0  0  0  0
  199.9833  144.1003  143.3563 C   0  0  0  0  0  0  0  0  0  0  0  0
  200.9537  143.2301  144.0814 C   0  0  2  0  0  0  0  0  0  0  0  0
  201.6210  142.3761  143.0305 C   0  0  0  0  0  0  0  0  0  0  0  0
  200.2844  142.2619  145.0671 C   0  0  2  0  0  0  0  0  0  0  0  0
  201.3043  141.4458  145.7922 C   0  0  0  0  0  0  0  0  0  0  0  0
  202.3185  142.3449  146.4962 C   0  0  0  0  0  0  0  0  0  0  0  0
  202.9525  143.1777  145.4431 C   0  0  2  0  0  0  0  0  0  0  0  0
  204.2707  143.8228  145.8339 C   0  0  1  0  0  0  0  0  0  0  0  0
  204.1566  144.8047  146.9407 C   0  0  0  0  0  0  0  0  0  0  0  0
  205.1912  142.7091  146.3114 C   0  0  0  0  0  0  0  0  0  0  0  0
  206.6190  143.1530  146.4508 C   0  0  0  0  0  0  0  0  0  0  0  0
  207.1855  143.9273  145.3401 C   0  0  2  0  0  0  0  0  0  0  0  0
  208.1376  144.8274  145.8824 O   0  0  0  0  0  0  0  0  0  0  0  0
  206.2410  144.7425  144.5289 C   0  0  0  0  0  0  0  0  0  0  0  0
  206.4116  146.2472  144.7924 C   0  0  0  0  0  0  0  0  0  0  0  0
  206.7200  144.6050  143.0661 C   0  0  0  0  0  0  0  0  0  0  0  0
  204.8300  144.3527  144.5577 C   0  0  2  0  0  0  0  0  0  0  0  0
  203.9558  145.4957  144.1057 C   0  0  0  0  0  0  0  0  0  0  0  0
  202.5457  145.0693  143.8204 C   0  0  0  0  0  0  0  0  0  0  0  0
  201.9673  144.1154  144.8229 C   0  0  1  0  0  0  0  0  0  0  0  0
  201.2121  144.9408  145.8311 C   0  0  0  0  0  0  0  0  0  0  0  0
  198.9241  139.1071  144.2007 C   0  0  0  0  0  0  0  0  0  0  0  0
  197.8879  138.0176  144.0309 C   0  0  0  0  0  0  0  0  0  0  0  0
  200.0759  138.8481  143.6302 C   0  0  0  0  0  0  0  0  0  0  0  0
  1  2  1  1
  2  3  1  0
  3  4  1  0
  4  5  1  0
  5  6  1  1
  5  7  1  0
  7  8  1  0
  8  9  1  0
  9 10  1  6
  9 11  1  0
 11 12  1  6
 12 13  1  0
 14 13  1  1
 14 15  1  0
 15 16  1  1
 15 17  1  0
 17 18  1  0
 18 19  1  0
 19 20  1  1
 19 21  1  0
 21 22  1  0
 21 23  1  0
 21 24  1  0
 24 25  1  1
 25 26  1  0
 26 27  1  0
 27 28  1  1
  2 29  1  6
 29 30  1  0
 29 31  2  0
  5  1  1  0
 27  9  1  0
 11  1  1  0
 27 14  1  0
 24 15  1  0
M  END
$$$$
