
     RDKit          3D

 31 35  0  0  0  0  0  0  0  0999 V2000
  188.5107  162.5052  136.3961 C   0  0  1  0  0  0  0  0  0  0  0  0
  188.2344  162.3105  134.9369 C   0  0  1  0  0  0  0  0  0  0  0  0
  189.4929  162.8287  134.2956 C   0  0  0  0  0  0  0  0  0  0  0  0
  190.5824  162.6335  135.3719 C   0  0  0  0  0  0  0  0  0  0  0  0
  189.8187  163.2909  136.5021 C   0  0  1  0  0  0  0  0  0  0  0  0
  189.7038  164.7380  136.2077 C   0  0  0  0  0  0  0  0  0  0  0  0
  190.3514  162.9846  137.8697 C   0  0  0  0  0  0  0  0  0  0  0  0
  189.3864  163.4277  138.9350 C   0  0  0  0  0  0  0  0  0  0  0  0
  187.9720  163.0244  138.6878 C   0  0  2  0  0  0  0  0  0  0  0  0
  187.9005  161.5432  138.9706 C   0  0  0  0  0  0  0  0  0  0  0  0
  187.5324  163.2098  137.2287 C   0  0  2  0  0  0  0  0  0  0  0  0
  186.0989  162.8291  137.0486 C   0  0  0  0  0  0  0  0  0  0  0  0
  185.2042  163.6156  138.0042 C   0  0  0  0  0  0  0  0  0  0  0  0
  185.6704  163.3028  139.3787 C   0  0  2  0  0  0  0  0  0  0  0  0
  184.6795  163.6173  140.4858 C   0  0  1  0  0  0  0  0  0  0  0  0
  184.3600  165.0605  140.6169 C   0  0  0  0  0  0  0  0  0  0  0  0
  183.3829  162.8969  140.1456 C   0  0  0  0  0  0  0  0  0  0  0  0
  182.4115  162.8739  141.2906 C   0  0  0  0  0  0  0  0  0  0  0  0
  182.9445  162.5026  142.6067 C   0  0  2  0  0  0  0  0  0  0  0  0
  182.1964  163.2008  143.5884 O   0  0  0  0  0  0  0  0  0  0  0  0
  184.3781  162.8033  142.8687 C   0  0  0  0  0  0  0  0  0  0  0  0
  184.5473  163.9628  143.8636 C   0  0  0  0  0  0  0  0  0  0  0  0
  184.9189  161.5971  143.6691 C   0  0  0  0  0  0  0  0  0  0  0  0
  185.2478  162.9701  141.7026 C   0  0  2  0  0  0  0  0  0  0  0  0
  186.5040  163.7140  142.0814 C   0  0  0  0  0  0  0  0  0  0  0  0
  187.5604  163.6470  141.0177 C   0  0  0  0  0  0  0  0  0  0  0  0
  187.0497  163.8265  139.6190 C   0  0  1  0  0  0  0  0  0  0  0  0
  187.2021  165.2856  139.2786 C   0  0  0  0  0  0  0  0  0  0  0  0
  188.0912  160.8662  134.6306 C   0  0  0  0  0  0  0  0  0  0  0  0
  187.4302  160.4214  133.3444 C   0  0  0  0  0  0  0  0  0  0  0  0
  188.5121  159.8820  135.3879 C   0  0  0  0  0  0  0  0  0  0  0  0
  1  2  1  6
  2  3  1  0
  3  4  1  0
  4  5  1  0
  5  6  1  6
  5  7  1  0
  7  8  1  0
  8  9  1  0
  9 10  1  1
  9 11  1  0
 11 12  1  1
 12 13  1  0
 14 13  1  6
 14 15  1  0
 15 16  1  1
 15 17  1  0
 17 18  1  0
 18 19  1  0
 19 20  1  1
 19 21  1  0
 21 22  1  0
 21 23  1  0
 21 24  1  0
 24 25  1  1
 25 26  1  0
 26 27  1  0
 27 28  1  6
  2 29  1  1
 29 30  1  0
 29 31  2  0
  5  1  1  0
 27  9  1  0
 11  1  1  0
 27 14  1  0
 24 15  1  0
M  END
$$$$
