
     RDKit          3D

 31 35  0  0  0  0  0  0  0  0999 V2000
  201.3893  140.0226  130.6252 C   0  0  1  0  0  0  0  0  0  0  0  0
  200.8359  140.7812  129.4581 C   0  0  1  0  0  0  0  0  0  0  0  0
  200.7312  142.1808  130.0001 C   0  0  0  0  0  0  0  0  0  0  0  0
  201.8082  142.2480  131.1043 C   0  0  0  0  0  0  0  0  0  0  0  0
  201.3927  140.9792  131.8186 C   0  0  1  0  0  0  0  0  0  0  0  0
  200.0678  141.2065  132.4408 C   0  0  0  0  0  0  0  0  0  0  0  0
  202.4245  140.4313  132.7583 C   0  0  0  0  0  0  0  0  0  0  0  0
  202.0636  139.0404  133.2029 C   0  0  0  0  0  0  0  0  0  0  0  0
  201.6505  138.1304  132.0958 C   0  0  2  0  0  0  0  0  0  0  0  0
  202.9140  137.7705  131.3522 C   0  0  0  0  0  0  0  0  0  0  0  0
  200.7203  138.7986  131.0736 C   0  0  2  0  0  0  0  0  0  0  0  0
  200.3075  137.8313  130.0124 C   0  0  0  0  0  0  0  0  0  0  0  0
  199.6600  136.5930  130.6288 C   0  0  0  0  0  0  0  0  0  0  0  0
  200.6700  135.9910  131.5355 C   0  0  2  0  0  0  0  0  0  0  0  0
  200.4168  134.5428  131.9162 C   0  0  1  0  0  0  0  0  0  0  0  0
  199.1734  134.3337  132.6989 C   0  0  0  0  0  0  0  0  0  0  0  0
  200.2726  133.7569  130.6211 C   0  0  0  0  0  0  0  0  0  0  0  0
  200.3127  132.2709  130.8339 C   0  0  0  0  0  0  0  0  0  0  0  0
  201.3759  131.7526  131.7027 C   0  0  2  0  0  0  0  0  0  0  0  0
  200.8754  130.5981  132.3564 O   0  0  0  0  0  0  0  0  0  0  0  0
  201.8856  132.6588  132.7674 C   0  0  0  0  0  0  0  0  0  0  0  0
  201.4346  132.2089  134.1663 C   0  0  0  0  0  0  0  0  0  0  0  0
  203.4123  132.4256  132.8196 C   0  0  0  0  0  0  0  0  0  0  0  0
  201.6764  134.0953  132.5761 C   0  0  2  0  0  0  0  0  0  0  0  0
  201.7992  134.8275  133.8890 C   0  0  0  0  0  0  0  0  0  0  0  0
  201.9016  136.3146  133.7161 C   0  0  0  0  0  0  0  0  0  0  0  0
  200.9684  136.8893  132.6923 C   0  0  1  0  0  0  0  0  0  0  0  0
  199.7358  137.3458  133.4274 C   0  0  0  0  0  0  0  0  0  0  0  0
  201.8019  140.7661  128.3325 C   0  0  0  0  0  0  0  0  0  0  0  0
  203.2803  140.9531  128.5939 C   0  0  0  0  0  0  0  0  0  0  0  0
  201.4973  140.5830  127.0703 C   0  0  0  0  0  0  0  0  0  0  0  0
  1  2  1  6
  2  3  1  0
  3  4  1  0
  4  5  1  0
  5  6  1  1
  5  7  1  0
  7  8  1  0
  8  9  1  0
  9 10  1  6
  9 11  1  0
 11 12  1  6
 12 13  1  0
 14 13  1  1
 14 15  1  0
 15 16  1  1
 15 17  1  0
 17 18  1  0
 18 19  1  0
 19 20  1  1
 19 21  1  0
 21 22  1  0
 21 23  1  0
 21 24  1  0
 24 25  1  1
 25 26  1  0
 26 27  1  0
 27 28  1  1
  2 29  1  6
 29 30  1  0
 29 31  2  0
  5  1  1  0
 27  9  1  0
 11  1  1  0
 27 14  1  0
 24 15  1  0
M  END
$$$$
