
     RDKit          3D

 31 35  0  0  0  0  0  0  0  0999 V2000
  136.7707  164.8148  154.3595 C   0  0  1  0  0  0  0  0  0  0  0  0
  138.0068  164.1358  154.8641 C   0  0  1  0  0  0  0  0  0  0  0  0
  139.0408  164.5488  153.8521 C   0  0  0  0  0  0  0  0  0  0  0  0
  138.5222  165.8932  153.2979 C   0  0  0  0  0  0  0  0  0  0  0  0
  137.1166  165.4173  152.9968 C   0  0  1  0  0  0  0  0  0  0  0  0
  137.1823  164.4440  151.8820 C   0  0  0  0  0  0  0  0  0  0  0  0
  136.1208  166.5188  152.7900 C   0  0  0  0  0  0  0  0  0  0  0  0
  134.7162  165.9809  152.7835 C   0  0  0  0  0  0  0  0  0  0  0  0
  134.4147  165.0393  153.9002 C   0  0  2  0  0  0  0  0  0  0  0  0
  134.2882  165.8865  155.1433 C   0  0  0  0  0  0  0  0  0  0  0  0
  135.5442  164.0356  154.1718 C   0  0  2  0  0  0  0  0  0  0  0  0
  135.1716  163.0943  155.2705 C   0  0  0  0  0  0  0  0  0  0  0  0
  133.8580  162.3826  154.9535 C   0  0  0  0  0  0  0  0  0  0  0  0
  132.8300  163.4407  154.7862 C   0  0  2  0  0  0  0  0  0  0  0  0
  131.3908  162.9682  154.8958 C   0  0  1  0  0  0  0  0  0  0  0  0
  130.9878  162.0119  153.8351 C   0  0  0  0  0  0  0  0  0  0  0  0
  131.2554  162.2472  156.2291 C   0  0  0  0  0  0  0  0  0  0  0  0
  129.8260  161.9841  156.6065 C   0  0  0  0  0  0  0  0  0  0  0  0
  128.8842  163.1002  156.4611 C   0  0  2  0  0  0  0  0  0  0  0  0
  127.6155  162.5556  156.1375 O   0  0  0  0  0  0  0  0  0  0  0  0
  129.1910  164.1167  155.4184 C   0  0  0  0  0  0  0  0  0  0  0  0
  128.2300  164.0182  154.2227 C   0  0  0  0  0  0  0  0  0  0  0  0
  128.8108  165.4800  156.0388 C   0  0  0  0  0  0  0  0  0  0  0  0
  130.5832  164.2187  154.9766 C   0  0  2  0  0  0  0  0  0  0  0  0
  130.6647  164.9123  153.6398 C   0  0  0  0  0  0  0  0  0  0  0  0
  132.0642  165.3190  153.2821 C   0  0  0  0  0  0  0  0  0  0  0  0
  133.1106  164.2890  153.5880 C   0  0  1  0  0  0  0  0  0  0  0  0
  133.3245  163.4915  152.3285 C   0  0  0  0  0  0  0  0  0  0  0  0
  138.3828  164.6773  156.1929 C   0  0  0  0  0  0  0  0  0  0  0  0
  139.3328  163.9112  157.0873 C   0  0  0  0  0  0  0  0  0  0  0  0
  137.9706  165.8161  156.6954 C   0  0  0  0  0  0  0  0  0  0  0  0
  1  2  1  6
  2  3  1  0
  3  4  1  0
  4  5  1  0
  5  6  1  6
  5  7  1  0
  7  8  1  0
  8  9  1  0
  9 10  1  1
  9 11  1  0
 11 12  1  1
 12 13  1  0
 14 13  1  6
 14 15  1  0
 15 16  1  6
 15 17  1  0
 17 18  1  0
 18 19  1  0
 19 20  1  6
 19 21  1  0
 21 22  1  0
 21 23  1  0
 21 24  1  0
 24 25  1  6
 25 26  1  0
 26 27  1  0
 27 28  1  6
  2 29  1  1
 29 30  1  0
 29 31  2  0
  5  1  1  0
 27  9  1  0
 11  1  1  0
 27 14  1  0
 24 15  1  0
M  END
$$$$
