
     RDKit          3D

 31 35  0  0  0  0  0  0  0  0999 V2000
  201.9193  139.3385  131.4882 C   0  0  1  0  0  0  0  0  0  0  0  0
  201.1231  140.4348  130.8497 C   0  0  1  0  0  0  0  0  0  0  0  0
  201.5287  141.6411  131.6522 C   0  0  0  0  0  0  0  0  0  0  0  0
  202.9400  141.2988  132.1761 C   0  0  0  0  0  0  0  0  0  0  0  0
  202.5851  139.9347  132.7295 C   0  0  1  0  0  0  0  0  0  0  0  0
  201.6859  140.1223  133.8915 C   0  0  0  0  0  0  0  0  0  0  0  0
  203.7653  139.0520  133.0047 C   0  0  0  0  0  0  0  0  0  0  0  0
  203.3290  137.6376  133.2726 C   0  0  0  0  0  0  0  0  0  0  0  0
  202.3388  137.1050  132.2927 C   0  0  2  0  0  0  0  0  0  0  0  0
  203.1083  136.8294  131.0234 C   0  0  0  0  0  0  0  0  0  0  0  0
  201.2424  138.1148  131.9253 C   0  0  2  0  0  0  0  0  0  0  0  0
  200.2587  137.5150  130.9741 C   0  0  0  0  0  0  0  0  0  0  0  0
  199.6637  136.2303  131.5470 C   0  0  0  0  0  0  0  0  0  0  0  0
  200.8002  135.3067  131.7916 C   0  0  2  0  0  0  0  0  0  0  0  0
  200.4238  133.8435  131.9457 C   0  0  1  0  0  0  0  0  0  0  0  0
  199.5707  133.5615  133.1268 C   0  0  0  0  0  0  0  0  0  0  0  0
  199.6271  133.4525  130.7095 C   0  0  0  0  0  0  0  0  0  0  0  0
  199.4406  131.9678  130.5823 C   0  0  0  0  0  0  0  0  0  0  0  0
  200.6273  131.1292  130.7874 C   0  0  2  0  0  0  0  0  0  0  0  0
  200.1960  129.8996  131.3468 O   0  0  0  0  0  0  0  0  0  0  0  0
  201.6867  131.6595  131.6879 C   0  0  0  0  0  0  0  0  0  0  0  0
  201.7357  130.9002  133.0235 C   0  0  0  0  0  0  0  0  0  0  0  0
  203.0291  131.2649  131.0320 C   0  0  0  0  0  0  0  0  0  0  0  0
  201.7198  133.1084  131.8968 C   0  0  2  0  0  0  0  0  0  0  0  0
  202.4932  133.4453  133.1470 C   0  0  0  0  0  0  0  0  0  0  0  0
  202.8234  134.9057  133.2484 C   0  0  0  0  0  0  0  0  0  0  0  0
  201.7044  135.8266  132.8623 C   0  0  1  0  0  0  0  0  0  0  0  0
  200.9793  136.1938  134.1301 C   0  0  0  0  0  0  0  0  0  0  0  0
  201.5473  140.6225  129.4407 C   0  0  0  0  0  0  0  0  0  0  0  0
  201.3116  141.9442  128.7431 C   0  0  0  0  0  0  0  0  0  0  0  0
  202.1504  139.7234  128.7010 C   0  0  0  0  0  0  0  0  0  0  0  0
  1  2  1  1
  2  3  1  0
  3  4  1  0
  4  5  1  0
  5  6  1  1
  5  7  1  0
  7  8  1  0
  8  9  1  0
  9 10  1  6
  9 11  1  0
 11 12  1  6
 12 13  1  0
 14 13  1  1
 14 15  1  0
 15 16  1  1
 15 17  1  0
 17 18  1  0
 18 19  1  0
 19 20  1  1
 19 21  1  0
 21 22  1  0
 21 23  1  0
 21 24  1  0
 24 25  1  1
 25 26  1  0
 26 27  1  0
 27 28  1  1
  2 29  1  6
 29 30  1  0
 29 31  2  0
  5  1  1  0
 27  9  1  0
 11  1  1  0
 27 14  1  0
 24 15  1  0
M  END
$$$$
