
     RDKit          3D

 31 35  0  0  0  0  0  0  0  0999 V2000
  187.4173  162.6638  141.4589 C   0  0  1  0  0  0  0  0  0  0  0  0
  187.3322  161.8019  142.6810 C   0  0  1  0  0  0  0  0  0  0  0  0
  188.4458  162.3408  143.5373 C   0  0  0  0  0  0  0  0  0  0  0  0
  188.6064  163.8074  143.0825 C   0  0  0  0  0  0  0  0  0  0  0  0
  188.6812  163.5137  141.5989 C   0  0  1  0  0  0  0  0  0  0  0  0
  189.9491  162.7970  141.3287 C   0  0  0  0  0  0  0  0  0  0  0  0
  188.4524  164.7060  140.7193 C   0  0  0  0  0  0  0  0  0  0  0  0
  188.2574  164.2893  139.2873 C   0  0  0  0  0  0  0  0  0  0  0  0
  187.3036  163.1577  139.1021 C   0  0  2  0  0  0  0  0  0  0  0  0
  185.9238  163.7290  139.3235 C   0  0  0  0  0  0  0  0  0  0  0  0
  187.4807  162.0370  140.1361 C   0  0  2  0  0  0  0  0  0  0  0  0
  186.5285  160.9148  139.8783 C   0  0  0  0  0  0  0  0  0  0  0  0
  186.6839  160.3878  138.4532 C   0  0  0  0  0  0  0  0  0  0  0  0
  186.4185  161.5318  137.5448 C   0  0  2  0  0  0  0  0  0  0  0  0
  186.0924  161.1569  136.1097 C   0  0  1  0  0  0  0  0  0  0  0  0
  187.2037  160.4806  135.3958 C   0  0  0  0  0  0  0  0  0  0  0  0
  184.9250  160.1818  136.1548 C   0  0  0  0  0  0  0  0  0  0  0  0
  184.3044  159.9532  134.8066 C   0  0  0  0  0  0  0  0  0  0  0  0
  184.0257  161.1426  133.9932 C   0  0  2  0  0  0  0  0  0  0  0  0
  184.1649  160.7765  132.6304 O   0  0  0  0  0  0  0  0  0  0  0  0
  184.8954  162.3311  134.2071 C   0  0  0  0  0  0  0  0  0  0  0  0
  185.8507  162.5613  133.0250 C   0  0  0  0  0  0  0  0  0  0  0  0
  183.9579  163.5564  134.1201 C   0  0  0  0  0  0  0  0  0  0  0  0
  185.6004  162.4191  135.4873 C   0  0  2  0  0  0  0  0  0  0  0  0
  186.7649  163.3723  135.3858 C   0  0  0  0  0  0  0  0  0  0  0  0
  187.3324  163.7388  136.7258 C   0  0  0  0  0  0  0  0  0  0  0  0
  187.4638  162.5914  137.6827 C   0  0  1  0  0  0  0  0  0  0  0  0
  188.8686  162.0654  137.5490 C   0  0  0  0  0  0  0  0  0  0  0  0
  186.0379  162.0191  143.3723 C   0  0  0  0  0  0  0  0  0  0  0  0
  184.9546  162.8492  142.7192 C   0  0  0  0  0  0  0  0  0  0  0  0
  185.7089  161.5301  144.5436 C   0  0  0  0  0  0  0  0  0  0  0  0
  1  2  1  1
  2  3  1  0
  3  4  1  0
  4  5  1  0
  5  6  1  1
  5  7  1  0
  7  8  1  0
  8  9  1  0
  9 10  1  6
  9 11  1  0
 11 12  1  1
 12 13  1  0
 14 13  1  1
 14 15  1  0
 15 16  1  6
 15 17  1  0
 17 18  1  0
 18 19  1  0
 19 20  1  6
 19 21  1  0
 21 22  1  0
 21 23  1  0
 21 24  1  0
 24 25  1  6
 25 26  1  0
 26 27  1  0
 27 28  1  1
  2 29  1  1
 29 30  1  0
 29 31  2  0
  5  1  1  0
 27  9  1  0
 11  1  1  0
 27 14  1  0
 24 15  1  0
M  END
$$$$
