
     RDKit          3D

 31 35  0  0  0  0  0  0  0  0999 V2000
  135.7031  164.5467  152.9519 C   0  0  1  0  0  0  0  0  0  0  0  0
  137.0015  163.9024  152.5742 C   0  0  1  0  0  0  0  0  0  0  0  0
  137.3266  164.5688  151.2651 C   0  0  0  0  0  0  0  0  0  0  0  0
  136.6159  165.9373  151.3424 C   0  0  0  0  0  0  0  0  0  0  0  0
  135.2638  165.3986  151.7600 C   0  0  1  0  0  0  0  0  0  0  0  0
  134.6939  164.6373  150.6243 C   0  0  0  0  0  0  0  0  0  0  0  0
  134.3372  166.4284  152.3333 C   0  0  0  0  0  0  0  0  0  0  0  0
  133.1448  165.7790  152.9807 C   0  0  0  0  0  0  0  0  0  0  0  0
  133.4811  164.6396  153.8824 C   0  0  2  0  0  0  0  0  0  0  0  0
  134.0673  165.2502  155.1325 C   0  0  0  0  0  0  0  0  0  0  0  0
  134.5570  163.7066  153.3091 C   0  0  2  0  0  0  0  0  0  0  0  0
  134.8239  162.5643  154.2343 C   0  0  0  0  0  0  0  0  0  0  0  0
  133.5357  161.8048  154.5446 C   0  0  0  0  0  0  0  0  0  0  0  0
  132.6026  162.7824  155.1596 C   0  0  2  0  0  0  0  0  0  0  0  0
  131.4456  162.1747  155.9334 C   0  0  1  0  0  0  0  0  0  0  0  0
  130.5122  161.3801  155.0971 C   0  0  0  0  0  0  0  0  0  0  0  0
  132.0433  161.2297  156.9656 C   0  0  0  0  0  0  0  0  0  0  0  0
  131.0442  160.7831  157.9940 C   0  0  0  0  0  0  0  0  0  0  0  0
  130.1965  161.8215  158.5915 C   0  0  2  0  0  0  0  0  0  0  0  0
  128.9456  161.2311  158.9040 O   0  0  0  0  0  0  0  0  0  0  0  0
  129.9064  163.0224  157.7619 C   0  0  0  0  0  0  0  0  0  0  0  0
  128.4480  163.0442  157.2767 C   0  0  0  0  0  0  0  0  0  0  0  0
  129.9511  164.2228  158.7340 C   0  0  0  0  0  0  0  0  0  0  0  0
  130.8361  163.3184  156.6702 C   0  0  2  0  0  0  0  0  0  0  0  0
  130.1908  164.2325  155.6587 C   0  0  0  0  0  0  0  0  0  0  0  0
  131.1783  164.8140  154.6899 C   0  0  0  0  0  0  0  0  0  0  0  0
  132.2027  163.8423  154.1844 C   0  0  1  0  0  0  0  0  0  0  0  0
  131.6819  163.2908  152.8833 C   0  0  0  0  0  0  0  0  0  0  0  0
  138.0500  164.2420  153.5669 C   0  0  0  0  0  0  0  0  0  0  0  0
  139.4275  163.6247  153.4625 C   0  0  0  0  0  0  0  0  0  0  0  0
  137.9083  165.0757  154.5690 C   0  0  0  0  0  0  0  0  0  0  0  0
  1  2  1  6
  2  3  1  0
  3  4  1  0
  4  5  1  0
  5  6  1  6
  5  7  1  0
  7  8  1  0
  8  9  1  0
  9 10  1  1
  9 11  1  0
 11 12  1  1
 12 13  1  0
 14 13  1  6
 14 15  1  0
 15 16  1  6
 15 17  1  0
 17 18  1  0
 18 19  1  0
 19 20  1  6
 19 21  1  0
 21 22  1  0
 21 23  1  0
 21 24  1  0
 24 25  1  6
 25 26  1  0
 26 27  1  0
 27 28  1  6
  2 29  1  1
 29 30  1  0
 29 31  2  0
  5  1  1  0
 27  9  1  0
 11  1  1  0
 27 14  1  0
 24 15  1  0
M  END
$$$$
