
     RDKit          3D

 31 35  0  0  0  0  0  0  0  0999 V2000
  146.4636  168.7923  133.0538 C   0  0  1  0  0  0  0  0  0  0  0  0
  145.8907  170.1659  133.2233 C   0  0  1  0  0  0  0  0  0  0  0  0
  144.5600  169.8861  133.8674 C   0  0  0  0  0  0  0  0  0  0  0  0
  144.7632  168.5450  134.6047 C   0  0  0  0  0  0  0  0  0  0  0  0
  145.3628  167.7996  133.4309 C   0  0  1  0  0  0  0  0  0  0  0  0
  144.3085  167.6170  132.4065 C   0  0  0  0  0  0  0  0  0  0  0  0
  146.0820  166.5373  133.8011 C   0  0  0  0  0  0  0  0  0  0  0  0
  146.8839  166.0144  132.6410 C   0  0  0  0  0  0  0  0  0  0  0  0
  147.7075  167.0476  131.9492 C   0  0  2  0  0  0  0  0  0  0  0  0
  148.8699  167.3433  132.8660 C   0  0  0  0  0  0  0  0  0  0  0  0
  146.9682  168.3771  131.7425 C   0  0  2  0  0  0  0  0  0  0  0  0
  147.8251  169.3584  131.0110 C   0  0  0  0  0  0  0  0  0  0  0  0
  148.3055  168.7758  129.6835 C   0  0  0  0  0  0  0  0  0  0  0  0
  149.0660  167.5430  130.0098 C   0  0  2  0  0  0  0  0  0  0  0  0
  149.9885  167.0418  128.9124 C   0  0  1  0  0  0  0  0  0  0  0  0
  149.2825  166.6202  127.6771 C   0  0  0  0  0  0  0  0  0  0  0  0
  150.9067  168.1956  128.5363 C   0  0  0  0  0  0  0  0  0  0  0  0
  152.0610  167.7653  127.6774 C   0  0  0  0  0  0  0  0  0  0  0  0
  152.7930  166.5657  128.1006 C   0  0  2  0  0  0  0  0  0  0  0  0
  153.2730  165.9185  126.9337 O   0  0  0  0  0  0  0  0  0  0  0  0
  152.0351  165.5448  128.8739 C   0  0  0  0  0  0  0  0  0  0  0  0
  151.7666  164.2800  128.0426 C   0  0  0  0  0  0  0  0  0  0  0  0
  153.0112  165.0302  129.9558 C   0  0  0  0  0  0  0  0  0  0  0  0
  150.8255  165.9952  129.5652 C   0  0  2  0  0  0  0  0  0  0  0  0
  149.9342  164.8227  129.8905 C   0  0  0  0  0  0  0  0  0  0  0  0
  148.8429  165.1751  130.8583 C   0  0  0  0  0  0  0  0  0  0  0  0
  148.1775  166.4933  130.5953 C   0  0  1  0  0  0  0  0  0  0  0  0
  146.9562  166.2110  129.7605 C   0  0  0  0  0  0  0  0  0  0  0  0
  146.7268  170.9582  134.1578 C   0  0  0  0  0  0  0  0  0  0  0  0
  146.3314  172.3723  134.5229 C   0  0  0  0  0  0  0  0  0  0  0  0
  147.8211  170.5368  134.7445 C   0  0  0  0  0  0  0  0  0  0  0  0
  1  2  1  6
  2  3  1  0
  3  4  1  0
  4  5  1  0
  5  6  1  6
  5  7  1  0
  7  8  1  0
  8  9  1  0
  9 10  1  1
  9 11  1  0
 11 12  1  1
 12 13  1  0
 14 13  1  6
 14 15  1  0
 15 16  1  6
 15 17  1  0
 17 18  1  0
 18 19  1  0
 19 20  1  6
 19 21  1  0
 21 22  1  0
 21 23  1  0
 21 24  1  0
 24 25  1  6
 25 26  1  0
 26 27  1  0
 27 28  1  6
  2 29  1  1
 29 30  1  0
 29 31  2  0
  5  1  1  0
 27  9  1  0
 11  1  1  0
 27 14  1  0
 24 15  1  0
M  END
$$$$
