
     RDKit          3D

 31 35  0  0  0  0  0  0  0  0999 V2000
  174.1210  162.2204  114.4060 C   0  0  1  0  0  0  0  0  0  0  0  0
  173.5229  160.9687  114.9711 C   0  0  1  0  0  0  0  0  0  0  0  0
  174.6257  160.4511  115.8540 C   0  0  0  0  0  0  0  0  0  0  0  0
  175.4277  161.7104  116.2473 C   0  0  0  0  0  0  0  0  0  0  0  0
  175.5868  162.2512  114.8419 C   0  0  1  0  0  0  0  0  0  0  0  0
  176.4814  161.3409  114.0902 C   0  0  0  0  0  0  0  0  0  0  0  0
  175.9861  163.6948  114.7756 C   0  0  0  0  0  0  0  0  0  0  0  0
  175.8444  164.2290  113.3766 C   0  0  0  0  0  0  0  0  0  0  0  0
  174.5515  163.8857  112.7170 C   0  0  2  0  0  0  0  0  0  0  0  0
  173.5039  164.7609  113.3618 C   0  0  0  0  0  0  0  0  0  0  0  0
  174.1124  162.4344  112.9566 C   0  0  2  0  0  0  0  0  0  0  0  0
  172.8351  162.1360  112.2411 C   0  0  0  0  0  0  0  0  0  0  0  0
  172.9644  162.4401  110.7500 C   0  0  0  0  0  0  0  0  0  0  0  0
  173.3153  163.8784  110.6376 C   0  0  2  0  0  0  0  0  0  0  0  0
  173.0723  164.4993  109.2731 C   0  0  1  0  0  0  0  0  0  0  0  0
  173.9046  163.9194  108.1899 C   0  0  0  0  0  0  0  0  0  0  0  0
  171.6170  164.2375  108.9136 C   0  0  0  0  0  0  0  0  0  0  0  0
  171.1548  165.0423  107.7330 C   0  0  0  0  0  0  0  0  0  0  0  0
  171.4985  166.4691  107.7259 C   0  0  2  0  0  0  0  0  0  0  0  0
  171.6694  166.8656  106.3752 O   0  0  0  0  0  0  0  0  0  0  0  0
  172.7343  166.8739  108.4493 C   0  0  0  0  0  0  0  0  0  0  0  0
  173.8580  167.2775  107.4813 C   0  0  0  0  0  0  0  0  0  0  0  0
  172.3943  168.2134  109.1407 C   0  0  0  0  0  0  0  0  0  0  0  0
  173.2257  165.9665  109.4881 C   0  0  2  0  0  0  0  0  0  0  0  0
  174.6775  166.2433  109.7891 C   0  0  0  0  0  0  0  0  0  0  0  0
  175.1487  165.5668  111.0429 C   0  0  0  0  0  0  0  0  0  0  0  0
  174.6685  164.1557  111.2088 C   0  0  1  0  0  0  0  0  0  0  0  0
  175.7446  163.2571  110.6589 C   0  0  0  0  0  0  0  0  0  0  0  0
  172.3430  161.2970  115.8080 C   0  0  0  0  0  0  0  0  0  0  0  0
  171.3820  160.2079  116.2317 C   0  0  0  0  0  0  0  0  0  0  0  0
  172.0360  162.4903  116.2564 C   0  0  0  0  0  0  0  0  0  0  0  0
  1  2  1  6
  2  3  1  0
  3  4  1  0
  4  5  1  0
  5  6  1  6
  5  7  1  0
  7  8  1  0
  8  9  1  0
  9 10  1  1
  9 11  1  0
 11 12  1  1
 12 13  1  0
 14 13  1  6
 14 15  1  0
 15 16  1  6
 15 17  1  0
 17 18  1  0
 18 19  1  0
 19 20  1  6
 19 21  1  0
 21 22  1  0
 21 23  1  0
 21 24  1  0
 24 25  1  6
 25 26  1  0
 26 27  1  0
 27 28  1  6
  2 29  1  1
 29 30  1  0
 29 31  2  0
  5  1  1  0
 27  9  1  0
 11  1  1  0
 27 14  1  0
 24 15  1  0
M  END
$$$$
