
     RDKit          3D

 31 35  0  0  0  0  0  0  0  0999 V2000
  165.5233  153.3051  126.6217 C   0  0  1  0  0  0  0  0  0  0  0  0
  165.7913  154.5804  125.8830 C   0  0  1  0  0  0  0  0  0  0  0  0
  164.4057  155.1181  125.6493 C   0  0  0  0  0  0  0  0  0  0  0  0
  163.5624  154.5223  126.7972 C   0  0  0  0  0  0  0  0  0  0  0  0
  164.0093  153.0885  126.6042 C   0  0  1  0  0  0  0  0  0  0  0  0
  163.4632  152.5987  125.3174 C   0  0  0  0  0  0  0  0  0  0  0  0
  163.7275  152.1898  127.7707 C   0  0  0  0  0  0  0  0  0  0  0  0
  164.4463  150.8766  127.6248 C   0  0  0  0  0  0  0  0  0  0  0  0
  165.8814  151.0023  127.2385 C   0  0  2  0  0  0  0  0  0  0  0  0
  166.6093  151.4815  128.4712 C   0  0  0  0  0  0  0  0  0  0  0  0
  166.1287  152.0568  126.1506 C   0  0  2  0  0  0  0  0  0  0  0  0
  167.5739  152.1108  125.7755 C   0  0  0  0  0  0  0  0  0  0  0  0
  168.0738  150.7345  125.3414 C   0  0  0  0  0  0  0  0  0  0  0  0
  167.8548  149.8200  126.4903 C   0  0  2  0  0  0  0  0  0  0  0  0
  168.6553  148.5299  126.4527 C   0  0  1  0  0  0  0  0  0  0  0  0
  168.3135  147.6412  125.3144 C   0  0  0  0  0  0  0  0  0  0  0  0
  170.1198  148.9147  126.3012 C   0  0  0  0  0  0  0  0  0  0  0  0
  171.0527  147.7634  126.5444 C   0  0  0  0  0  0  0  0  0  0  0  0
  170.7970  146.9405  127.7324 C   0  0  2  0  0  0  0  0  0  0  0  0
  171.2053  145.6152  127.4361 O   0  0  0  0  0  0  0  0  0  0  0  0
  169.3904  146.8569  128.2110 C   0  0  0  0  0  0  0  0  0  0  0  0
  168.7738  145.4757  127.9373 C   0  0  0  0  0  0  0  0  0  0  0  0
  169.4715  146.8846  129.7540 C   0  0  0  0  0  0  0  0  0  0  0  0
  168.4845  147.9345  127.8087 C   0  0  2  0  0  0  0  0  0  0  0  0
  167.0477  147.4974  127.9473 C   0  0  0  0  0  0  0  0  0  0  0  0
  166.0816  148.6415  127.8481 C   0  0  0  0  0  0  0  0  0  0  0  0
  166.3981  149.6335  126.7688 C   0  0  1  0  0  0  0  0  0  0  0  0
  165.6047  149.2302  125.5539 C   0  0  0  0  0  0  0  0  0  0  0  0
  166.5408  155.5252  126.7467 C   0  0  0  0  0  0  0  0  0  0  0  0
  168.0438  155.6447  126.6211 C   0  0  0  0  0  0  0  0  0  0  0  0
  166.0105  156.3210  127.6438 C   0  0  0  0  0  0  0  0  0  0  0  0
  1  2  1  6
  2  3  1  0
  3  4  1  0
  4  5  1  0
  5  6  1  6
  5  7  1  0
  7  8  1  0
  8  9  1  0
  9 10  1  1
  9 11  1  0
 11 12  1  1
 12 13  1  0
 14 13  1  6
 14 15  1  0
 15 16  1  6
 15 17  1  0
 17 18  1  0
 18 19  1  0
 19 20  1  6
 19 21  1  0
 21 22  1  0
 21 23  1  0
 21 24  1  0
 24 25  1  6
 25 26  1  0
 26 27  1  0
 27 28  1  6
  2 29  1  1
 29 30  1  0
 29 31  2  0
  5  1  1  0
 27  9  1  0
 11  1  1  0
 27 14  1  0
 24 15  1  0
M  END
$$$$
