
     RDKit          3D

 31 35  0  0  0  0  0  0  0  0999 V2000
  201.8309  128.8006  130.2068 C   0  0  1  0  0  0  0  0  0  0  0  0
  200.9731  128.4657  129.0255 C   0  0  1  0  0  0  0  0  0  0  0  0
  201.9906  128.1226  127.9716 C   0  0  0  0  0  0  0  0  0  0  0  0
  203.2213  127.6374  128.7676 C   0  0  0  0  0  0  0  0  0  0  0  0
  203.2798  128.8156  129.7168 C   0  0  1  0  0  0  0  0  0  0  0  0
  203.6653  130.0189  128.9438 C   0  0  0  0  0  0  0  0  0  0  0  0
  204.1115  128.5828  130.9424 C   0  0  0  0  0  0  0  0  0  0  0  0
  203.8906  129.6703  131.9577 C   0  0  0  0  0  0  0  0  0  0  0  0
  202.4565  129.9982  132.2034 C   0  0  2  0  0  0  0  0  0  0  0  0
  201.8976  128.8586  133.0207 C   0  0  0  0  0  0  0  0  0  0  0  0
  201.6184  130.0634  130.9189 C   0  0  2  0  0  0  0  0  0  0  0  0
  200.2029  130.4341  131.2210 C   0  0  0  0  0  0  0  0  0  0  0  0
  200.1397  131.7493  131.9949 C   0  0  0  0  0  0  0  0  0  0  0  0
  200.9160  131.5461  133.2441 C   0  0  2  0  0  0  0  0  0  0  0  0
  200.6366  132.5484  134.3504 C   0  0  1  0  0  0  0  0  0  0  0  0
  201.0104  133.9433  134.0086 C   0  0  0  0  0  0  0  0  0  0  0  0
  199.1360  132.5318  134.6024 C   0  0  0  0  0  0  0  0  0  0  0  0
  198.7491  133.2507  135.8629 C   0  0  0  0  0  0  0  0  0  0  0  0
  199.5350  132.9522  137.0659 C   0  0  2  0  0  0  0  0  0  0  0  0
  199.5674  134.1248  137.8627 O   0  0  0  0  0  0  0  0  0  0  0  0
  200.9487  132.5321  136.8670 C   0  0  0  0  0  0  0  0  0  0  0  0
  201.9373  133.6272  137.2983 C   0  0  0  0  0  0  0  0  0  0  0  0
  201.2059  131.4224  137.9112 C   0  0  0  0  0  0  0  0  0  0  0  0
  201.3019  131.9804  135.5575 C   0  0  2  0  0  0  0  0  0  0  0  0
  202.7931  132.0453  135.3407 C   0  0  0  0  0  0  0  0  0  0  0  0
  203.2444  131.2257  134.1675 C   0  0  0  0  0  0  0  0  0  0  0  0
  202.3674  131.3350  132.9557 C   0  0  1  0  0  0  0  0  0  0  0  0
  202.9630  132.4027  132.0763 C   0  0  0  0  0  0  0  0  0  0  0  0
  200.1483  127.2672  129.3143 C   0  0  0  0  0  0  0  0  0  0  0  0
  200.7834  126.0303  129.9110 C   0  0  0  0  0  0  0  0  0  0  0  0
  198.8569  127.1648  129.1117 C   0  0  0  0  0  0  0  0  0  0  0  0
  1  2  1  6
  2  3  1  0
  3  4  1  0
  4  5  1  0
  5  6  1  6
  5  7  1  0
  7  8  1  0
  8  9  1  0
  9 10  1  1
  9 11  1  0
 11 12  1  1
 12 13  1  0
 14 13  1  6
 14 15  1  0
 15 16  1  6
 15 17  1  0
 17 18  1  0
 18 19  1  0
 19 20  1  1
 19 21  1  0
 21 22  1  0
 21 23  1  0
 21 24  1  0
 24 25  1  6
 25 26  1  0
 26 27  1  0
 27 28  1  6
  2 29  1  1
 29 30  1  0
 29 31  2  0
  5  1  1  0
 27  9  1  0
 11  1  1  0
 27 14  1  0
 24 15  1  0
M  END
$$$$
