
     RDKit          3D

 31 35  0  0  0  0  0  0  0  0999 V2000
  163.1329  148.6771  126.6438 C   0  0  1  0  0  0  0  0  0  0  0  0
  161.7437  148.5786  127.1952 C   0  0  1  0  0  0  0  0  0  0  0  0
  160.8942  148.9012  125.9961 C   0  0  0  0  0  0  0  0  0  0  0  0
  161.7632  148.4927  124.7871 C   0  0  0  0  0  0  0  0  0  0  0  0
  163.0114  149.2307  125.2232 C   0  0  1  0  0  0  0  0  0  0  0  0
  162.7461  150.6857  125.1403 C   0  0  0  0  0  0  0  0  0  0  0  0
  164.2641  148.7959  124.5236 C   0  0  0  0  0  0  0  0  0  0  0  0
  165.4829  149.3582  125.2024 C   0  0  0  0  0  0  0  0  0  0  0  0
  165.4850  149.2037  126.6858 C   0  0  2  0  0  0  0  0  0  0  0  0
  165.7713  147.7465  126.9574 C   0  0  0  0  0  0  0  0  0  0  0  0
  164.1256  149.5069  127.3313 C   0  0  2  0  0  0  0  0  0  0  0  0
  164.1973  149.3756  128.8179 C   0  0  0  0  0  0  0  0  0  0  0  0
  165.2968  150.2684  129.3892 C   0  0  0  0  0  0  0  0  0  0  0  0
  166.5679  149.8379  128.7540 C   0  0  2  0  0  0  0  0  0  0  0  0
  167.8319  150.2764  129.4726 C   0  0  1  0  0  0  0  0  0  0  0  0
  168.0213  151.7476  129.5160 C   0  0  0  0  0  0  0  0  0  0  0  0
  167.7210  149.7928  130.9112 C   0  0  0  0  0  0  0  0  0  0  0  0
  169.0178  149.8943  131.6616 C   0  0  0  0  0  0  0  0  0  0  0  0
  170.2195  149.3970  130.9815 C   0  0  2  0  0  0  0  0  0  0  0  0
  171.3189  150.1774  131.4210 O   0  0  0  0  0  0  0  0  0  0  0  0
  170.2282  149.4467  129.4942 C   0  0  0  0  0  0  0  0  0  0  0  0
  171.1819  150.5289  128.9632 C   0  0  0  0  0  0  0  0  0  0  0  0
  170.9183  148.1420  129.0363 C   0  0  0  0  0  0  0  0  0  0  0  0
  168.9288  149.5046  128.8219 C   0  0  2  0  0  0  0  0  0  0  0  0
  169.0849  150.0167  127.4118 C   0  0  0  0  0  0  0  0  0  0  0  0
  167.8529  149.8099  126.5804 C   0  0  0  0  0  0  0  0  0  0  0  0
  166.5654  150.1171  127.2855 C   0  0  1  0  0  0  0  0  0  0  0  0
  166.2082  151.5409  126.9490 C   0  0  0  0  0  0  0  0  0  0  0  0
  161.4627  147.1889  127.6311 C   0  0  0  0  0  0  0  0  0  0  0  0
  160.0549  146.7757  128.0009 C   0  0  0  0  0  0  0  0  0  0  0  0
  162.3474  146.2252  127.7202 C   0  0  0  0  0  0  0  0  0  0  0  0
  1  2  1  1
  2  3  1  0
  3  4  1  0
  4  5  1  0
  5  6  1  1
  5  7  1  0
  7  8  1  0
  8  9  1  0
  9 10  1  6
  9 11  1  0
 11 12  1  1
 12 13  1  0
 14 13  1  1
 14 15  1  0
 15 16  1  1
 15 17  1  0
 17 18  1  0
 18 19  1  0
 19 20  1  1
 19 21  1  0
 21 22  1  0
 21 23  1  0
 21 24  1  0
 24 25  1  6
 25 26  1  0
 26 27  1  0
 27 28  1  1
  2 29  1  6
 29 30  1  0
 29 31  2  0
  5  1  1  0
 27  9  1  0
 11  1  1  0
 27 14  1  0
 24 15  1  0
M  END
$$$$
