
     RDKit          3D

 31 35  0  0  0  0  0  0  0  0999 V2000
  127.9182  146.2855  135.9774 C   0  0  1  0  0  0  0  0  0  0  0  0
  128.4928  146.9085  137.2124 C   0  0  1  0  0  0  0  0  0  0  0  0
  128.3817  148.3795  136.9165 C   0  0  0  0  0  0  0  0  0  0  0  0
  127.2006  148.4855  135.9279 C   0  0  0  0  0  0  0  0  0  0  0  0
  127.6871  147.4157  134.9731 C   0  0  1  0  0  0  0  0  0  0  0  0
  128.9092  147.9123  134.2993 C   0  0  0  0  0  0  0  0  0  0  0  0
  126.6376  146.8993  134.0351 C   0  0  0  0  0  0  0  0  0  0  0  0
  127.1107  145.6588  133.3280 C   0  0  0  0  0  0  0  0  0  0  0  0
  127.7330  144.6416  134.2239 C   0  0  2  0  0  0  0  0  0  0  0  0
  126.5987  144.0036  134.9890 C   0  0  0  0  0  0  0  0  0  0  0  0
  128.6762  145.2491  135.2718 C   0  0  2  0  0  0  0  0  0  0  0  0
  129.3002  144.1833  136.1126 C   0  0  0  0  0  0  0  0  0  0  0  0
  130.0221  143.1576  135.2413 C   0  0  0  0  0  0  0  0  0  0  0  0
  129.0038  142.5856  134.3246 C   0  0  2  0  0  0  0  0  0  0  0  0
  129.3833  141.2646  133.6785 C   0  0  1  0  0  0  0  0  0  0  0  0
  130.5591  141.3501  132.7773 C   0  0  0  0  0  0  0  0  0  0  0  0
  129.7439  140.3031  134.8014 C   0  0  0  0  0  0  0  0  0  0  0  0
  129.8544  138.8795  134.3363 C   0  0  0  0  0  0  0  0  0  0  0  0
  128.7775  138.3763  133.4755 C   0  0  2  0  0  0  0  0  0  0  0  0
  129.3408  137.4193  132.5936 O   0  0  0  0  0  0  0  0  0  0  0  0
  128.0645  139.3702  132.6281 C   0  0  0  0  0  0  0  0  0  0  0  0
  128.4242  139.2177  131.1414 C   0  0  0  0  0  0  0  0  0  0  0  0
  126.5771  138.9519  132.6546 C   0  0  0  0  0  0  0  0  0  0  0  0
  128.1247  140.7709  133.0503 C   0  0  2  0  0  0  0  0  0  0  0  0
  127.7896  141.6856  131.8988 C   0  0  0  0  0  0  0  0  0  0  0  0
  127.5341  143.0982  132.3361 C   0  0  0  0  0  0  0  0  0  0  0  0
  128.4913  143.6144  133.3689 C   0  0  1  0  0  0  0  0  0  0  0  0
  129.5846  144.3415  132.6314 C   0  0  0  0  0  0  0  0  0  0  0  0
  127.6508  146.5839  138.3896 C   0  0  0  0  0  0  0  0  0  0  0  0
  126.2973  147.2378  138.5625 C   0  0  0  0  0  0  0  0  0  0  0  0
  127.9634  145.7345  139.3384 C   0  0  0  0  0  0  0  0  0  0  0  0
  1  2  1  1
  2  3  1  0
  3  4  1  0
  4  5  1  0
  5  6  1  6
  5  7  1  0
  7  8  1  0
  8  9  1  0
  9 10  1  1
  9 11  1  0
 11 12  1  1
 12 13  1  0
 14 13  1  6
 14 15  1  0
 15 16  1  6
 15 17  1  0
 17 18  1  0
 18 19  1  0
 19 20  1  6
 19 21  1  0
 21 22  1  0
 21 23  1  0
 21 24  1  0
 24 25  1  6
 25 26  1  0
 26 27  1  0
 27 28  1  6
  2 29  1  1
 29 30  1  0
 29 31  2  0
  5  1  1  0
 27  9  1  0
 11  1  1  0
 27 14  1  0
 24 15  1  0
M  END
$$$$
