
     RDKit          3D

 65 74  0  0  0  0  0  0  0  0999 V2000
  123.5138  150.2699  134.7070 C   0  0  0  0  0  0  0  0  0  0  0  0
  124.4597  151.1674  135.4467 C   0  0  0  0  0  0  0  0  0  0  0  0
  125.7614  151.3246  134.7901 C   0  0  0  0  0  0  0  0  0  0  0  0
  126.0154  152.3715  133.9014 C   0  0  0  0  0  0  0  0  0  0  0  0
  125.1429  153.4715  133.4428 C   0  0  0  0  0  0  0  0  0  0  0  0
  125.9816  154.2427  132.5446 N   0  0  0  0  0  0  0  0  0  0  0  0
  127.1992  153.7006  132.4335 C   0  0  0  0  0  0  0  0  0  0  0  0
  128.1600  154.2980  131.6086 C   0  0  0  0  0  0  0  0  0  0  0  0
  127.8720  155.4378  130.9083 C   0  0  0  0  0  0  0  0  0  0  0  0
  126.6135  155.9844  131.0329 C   0  0  0  0  0  0  0  0  0  0  0  0
  126.2615  157.2374  130.2785 C   0  0  0  0  0  0  0  0  0  0  0  0
  126.9045  157.2104  129.0344 O   0  0  0  0  0  0  0  0  0  0  0  0
  128.0875  156.5266  128.8065 C   0  0  0  0  0  0  0  0  0  0  0  0
  128.5434  156.2433  127.6776 O   0  0  0  0  0  0  0  0  0  0  0  0
  128.8508  156.1110  130.0265 C   0  0  1  0  0  0  0  0  0  0  0  0
  129.2915  157.2925  130.6290 O   0  0  0  0  0  0  0  0  0  0  0  0
  129.9828  155.1917  129.6894 C   0  0  0  0  0  0  0  0  0  0  0  0
  130.4911  155.4664  128.2888 C   0  0  0  0  0  0  0  0  0  0  0  0
  125.7021  155.3667  131.8516 C   0  0  0  0  0  0  0  0  0  0  0  0
  124.5499  155.8885  131.9504 O   0  0  0  0  0  0  0  0  0  0  0  0
  127.2401  152.5100  133.2887 C   0  0  0  0  0  0  0  0  0  0  0  0
  128.2319  151.6468  133.5210 N   0  0  0  0  0  0  0  0  0  0  0  0
  128.0271  150.6159  134.3769 C   0  0  0  0  0  0  0  0  0  0  0  0
  129.0683  149.7322  134.6061 C   0  0  0  0  0  0  0  0  0  0  0  0
  128.8997  148.6606  135.4788 C   0  0  0  0  0  0  0  0  0  0  0  0
  127.6994  148.4650  136.1240 C   0  0  0  0  0  0  0  0  0  0  0  0
  127.5727  147.3890  136.9841 O   0  0  0  0  0  0  0  0  0  0  0  0
  128.6727  146.5884  137.2556 C   0  0  0  0  0  0  0  0  0  0  0  0
  129.4758  147.0116  138.1240 O   0  0  0  0  0  0  0  0  0  0  0  0
  128.8803  145.3438  136.5804 N   0  0  0  0  0  0  0  0  0  0  0  0
  130.1860  144.8065  136.3815 C   0  0  0  0  0  0  0  0  0  0  0  0
  130.1107  143.3028  136.3308 C   0  0  0  0  0  0  0  0  0  0  0  0
  129.0119  142.7165  137.1792 C   0  0  0  0  0  0  0  0  0  0  0  0
  128.8647  141.2561  136.8268 C   0  0  0  0  0  0  0  0  0  0  0  0
  130.1453  140.4988  136.9424 C   0  0  0  0  0  0  0  0  0  0  0  0
  129.8732  139.0616  136.7609 N   0  0  0  0  0  0  0  0  0  0  0  0
  129.3972  138.2445  137.7003 C   0  0  0  0  0  0  0  0  0  0  0  0
  129.2506  136.9945  137.1459 C   0  0  0  0  0  0  0  0  0  0  0  0
  129.6486  137.0598  135.8400 C   0  0  0  0  0  0  0  0  0  0  0  0
  129.7309  136.1513  134.8075 C   0  0  0  0  0  0  0  0  0  0  0  0
  130.2029  136.5266  133.5364 C   0  0  0  0  0  0  0  0  0  0  0  0
  130.5750  137.8423  133.3802 C   0  0  0  0  0  0  0  0  0  0  0  0
  130.5090  138.7793  134.3761 C   0  0  0  0  0  0  0  0  0  0  0  0
  130.0413  138.3859  135.6183 C   0  0  0  0  0  0  0  0  0  0  0  0
  130.2107  135.5326  132.5526 N   0  0  0  0  0  0  0  0  0  0  0  0
  129.0678  134.8434  132.2495 C   0  0  0  0  0  0  0  0  0  0  0  0
  127.9145  135.0186  132.7259 O   0  0  0  0  0  0  0  0  0  0  0  0
  129.3801  133.9271  131.3400 N   0  0  0  0  0  0  0  0  0  0  0  0
  130.6536  134.0213  131.0710 N   0  0  0  0  0  0  0  0  0  0  0  0
  131.2004  135.0461  131.8379 C   0  0  0  0  0  0  0  0  0  0  0  0
  132.6264  135.3494  131.7987 C   0  0  0  0  0  0  0  0  0  0  0  0
  133.3496  135.3069  133.0073 C   0  0  0  0  0  0  0  0  0  0  0  0
  134.7000  135.5342  133.0790 C   0  0  0  0  0  0  0  0  0  0  0  0
  135.4166  135.4933  134.3705 C   0  0  0  0  0  0  0  0  0  0  0  0
  135.1600  134.1455  135.0340 C   0  0  0  0  0  0  0  0  0  0  0  0
  135.0096  136.5724  135.3336 C   0  0  0  0  0  0  0  0  0  0  0  0
  135.3963  135.8165  131.9338 C   0  0  0  0  0  0  0  0  0  0  0  0
  136.7719  136.0580  131.9405 O   0  0  0  0  0  0  0  0  0  0  0  0
  134.7401  135.8676  130.7350 C   0  0  0  0  0  0  0  0  0  0  0  0
  133.3514  135.6294  130.6900 C   0  0  0  0  0  0  0  0  0  0  0  0
  132.7378  135.6867  129.4372 O   0  0  0  0  0  0  0  0  0  0  0  0
  127.6531  143.3417  136.9211 C   0  0  0  0  0  0  0  0  0  0  0  0
  127.7425  144.6000  136.0831 C   0  0  0  0  0  0  0  0  0  0  0  0
  126.6833  149.3736  135.8657 C   0  0  0  0  0  0  0  0  0  0  0  0
  126.8006  150.4476  135.0133 C   0  0  0  0  0  0  0  0  0  0  0  0
  1  2  1  0
  2  3  1  0
  3  4  2  0
  4  5  1  0
  5  6  1  0
  6  7  1  0
  7  8  2  0
  8  9  1  0
  9 10  2  0
 10 11  1  0
 11 12  1  0
 12 13  1  0
 13 14  2  0
 13 15  1  0
 15 16  1  1
 15 17  1  0
 17 18  1  0
 10 19  1  0
 19 20  2  0
  7 21  1  0
 21 22  2  0
 22 23  1  0
 23 24  2  0
 24 25  1  0
 25 26  2  0
 26 27  1  0
 27 28  1  0
 28 29  2  0
 28 30  1  0
 30 31  1  0
 31 32  1  0
 32 33  1  0
 33 34  1  0
 34 35  1  0
 35 36  1  0
 36 37  1  0
 37 38  2  0
 38 39  1  0
 39 40  2  0
 40 41  1  0
 41 42  2  0
 42 43  1  0
 43 44  2  0
 41 45  1  0
 45 46  1  0
 46 47  2  0
 46 48  1  0
 48 49  1  0
 49 50  2  0
 50 51  1  0
 51 52  2  0
 52 53  1  0
 53 54  1  0
 54 55  1  0
 54 56  1  0
 53 57  2  0
 57 58  1  0
 57 59  1  0
 59 60  2  0
 60 61  1  0
 33 62  1  0
 62 63  1  0
 26 64  1  0
 64 65  2  0
 65  3  1  0
 21  4  1  0
 65 23  1  0
 19  6  1  0
 63 30  1  0
 15  9  1  0
 44 36  1  0
 50 45  1  0
 60 51  1  0
 44 39  1  0
M  END
$$$$
