
     RDKit          3D

 65 74  0  0  0  0  0  0  0  0999 V2000
  128.9703  143.3432  128.2557 C   0  0  0  0  0  0  0  0  0  0  0  0
  129.7485  144.5621  128.6509 C   0  0  0  0  0  0  0  0  0  0  0  0
  129.9930  144.6661  130.0930 C   0  0  0  0  0  0  0  0  0  0  0  0
  129.2370  145.5113  130.9082 C   0  0  0  0  0  0  0  0  0  0  0  0
  128.1191  146.4168  130.5735 C   0  0  0  0  0  0  0  0  0  0  0  0
  127.7410  147.0036  131.8454 N   0  0  0  0  0  0  0  0  0  0  0  0
  128.5176  146.5532  132.8368 C   0  0  0  0  0  0  0  0  0  0  0  0
  128.3128  147.0024  134.1470 C   0  0  0  0  0  0  0  0  0  0  0  0
  127.3225  147.9023  134.4331 C   0  0  0  0  0  0  0  0  0  0  0  0
  126.5308  148.3571  133.4014 C   0  0  0  0  0  0  0  0  0  0  0  0
  125.4318  149.3462  133.6787 C   0  0  0  0  0  0  0  0  0  0  0  0
  125.8559  150.2205  134.6877 O   0  0  0  0  0  0  0  0  0  0  0  0
  126.7870  149.8714  135.6520 C   0  0  0  0  0  0  0  0  0  0  0  0
  127.3949  150.6810  136.3851 O   0  0  0  0  0  0  0  0  0  0  0  0
  127.0613  148.4061  135.7995 C   0  0  1  0  0  0  0  0  0  0  0  0
  125.8830  147.8390  136.2924 O   0  0  0  0  0  0  0  0  0  0  0  0
  128.2321  148.1456  136.6948 C   0  0  0  0  0  0  0  0  0  0  0  0
  129.3914  149.0504  136.3300 C   0  0  0  0  0  0  0  0  0  0  0  0
  126.7657  147.8914  132.1324 C   0  0  0  0  0  0  0  0  0  0  0  0
  126.0239  148.3246  131.1988 O   0  0  0  0  0  0  0  0  0  0  0  0
  129.4749  145.6033  132.2607 C   0  0  0  0  0  0  0  0  0  0  0  0
  130.4393  144.8876  132.8442 N   0  0  0  0  0  0  0  0  0  0  0  0
  131.1967  144.0551  132.0889 C   0  0  0  0  0  0  0  0  0  0  0  0
  132.1908  143.3199  132.7126 C   0  0  0  0  0  0  0  0  0  0  0  0
  132.9904  142.4525  131.9733 C   0  0  0  0  0  0  0  0  0  0  0  0
  132.8046  142.3137  130.6163 C   0  0  0  0  0  0  0  0  0  0  0  0
  133.6191  141.4406  129.9178 O   0  0  0  0  0  0  0  0  0  0  0  0
  133.6375  140.0947  130.2537 C   0  0  0  0  0  0  0  0  0  0  0  0
  134.4385  139.3667  129.6161 O   0  0  0  0  0  0  0  0  0  0  0  0
  132.7870  139.5642  131.2751 N   0  0  0  0  0  0  0  0  0  0  0  0
  131.4942  140.1075  131.5325 C   0  0  0  0  0  0  0  0  0  0  0  0
  130.5911  139.0284  132.0707 C   0  0  0  0  0  0  0  0  0  0  0  0
  130.9043  137.6509  131.5462 C   0  0  0  0  0  0  0  0  0  0  0  0
  130.1305  136.6429  132.3608 C   0  0  0  0  0  0  0  0  0  0  0  0
  128.6770  136.6164  132.0234 C   0  0  0  0  0  0  0  0  0  0  0  0
  128.0079  135.5995  132.8546 N   0  0  0  0  0  0  0  0  0  0  0  0
  128.3790  134.3232  132.9555 C   0  0  0  0  0  0  0  0  0  0  0  0
  127.5330  133.7007  133.8431 C   0  0  0  0  0  0  0  0  0  0  0  0
  126.6293  134.6246  134.2879 C   0  0  0  0  0  0  0  0  0  0  0  0
  125.5642  134.5929  135.1612 C   0  0  0  0  0  0  0  0  0  0  0  0
  124.7922  135.7408  135.4180 C   0  0  0  0  0  0  0  0  0  0  0  0
  125.1564  136.8903  134.7549 C   0  0  0  0  0  0  0  0  0  0  0  0
  126.2068  136.9688  133.8805 C   0  0  0  0  0  0  0  0  0  0  0  0
  126.9515  135.8260  133.6439 C   0  0  0  0  0  0  0  0  0  0  0  0
  123.7572  135.6040  136.3486 N   0  0  0  0  0  0  0  0  0  0  0  0
  122.8698  134.5663  136.2562 C   0  0  0  0  0  0  0  0  0  0  0  0
  122.8773  133.6192  135.4249 O   0  0  0  0  0  0  0  0  0  0  0  0
  121.9666  134.7227  137.2175 N   0  0  0  0  0  0  0  0  0  0  0  0
  122.2564  135.8011  137.8928 N   0  0  0  0  0  0  0  0  0  0  0  0
  123.4018  136.3767  137.3505 C   0  0  0  0  0  0  0  0  0  0  0  0
  123.9366  137.6345  137.8596 C   0  0  0  0  0  0  0  0  0  0  0  0
  123.2293  138.8206  137.5794 C   0  0  0  0  0  0  0  0  0  0  0  0
  123.6195  140.0509  138.0428 C   0  0  0  0  0  0  0  0  0  0  0  0
  122.8553  141.2717  137.7129 C   0  0  0  0  0  0  0  0  0  0  0  0
  122.3634  141.9097  139.0067 C   0  0  0  0  0  0  0  0  0  0  0  0
  121.6642  141.0311  136.8291 C   0  0  0  0  0  0  0  0  0  0  0  0
  124.7455  140.1524  138.8159 C   0  0  0  0  0  0  0  0  0  0  0  0
  125.1953  141.3758  139.3174 O   0  0  0  0  0  0  0  0  0  0  0  0
  125.4659  139.0297  139.1175 C   0  0  0  0  0  0  0  0  0  0  0  0
  125.0420  137.7774  138.6283 C   0  0  0  0  0  0  0  0  0  0  0  0
  125.8125  136.6662  138.9759 O   0  0  0  0  0  0  0  0  0  0  0  0
  132.3653  137.2673  131.6959 C   0  0  0  0  0  0  0  0  0  0  0  0
  133.2392  138.4449  132.0741 C   0  0  0  0  0  0  0  0  0  0  0  0
  131.7978  143.0686  130.0320 C   0  0  0  0  0  0  0  0  0  0  0  0
  130.9817  143.9382  130.7187 C   0  0  0  0  0  0  0  0  0  0  0  0
  1  2  1  0
  2  3  1  0
  3  4  2  0
  4  5  1  0
  5  6  1  0
  6  7  1  0
  7  8  2  0
  8  9  1  0
  9 10  2  0
 10 11  1  0
 11 12  1  0
 12 13  1  0
 13 14  2  0
 13 15  1  0
 15 16  1  1
 15 17  1  0
 17 18  1  0
 10 19  1  0
 19 20  2  0
  7 21  1  0
 21 22  2  0
 22 23  1  0
 23 24  2  0
 24 25  1  0
 25 26  2  0
 26 27  1  0
 27 28  1  0
 28 29  2  0
 28 30  1  0
 30 31  1  0
 31 32  1  0
 32 33  1  0
 33 34  1  0
 34 35  1  0
 35 36  1  0
 36 37  1  0
 37 38  2  0
 38 39  1  0
 39 40  2  0
 40 41  1  0
 41 42  2  0
 42 43  1  0
 43 44  2  0
 41 45  1  0
 45 46  1  0
 46 47  2  0
 46 48  1  0
 48 49  1  0
 49 50  2  0
 50 51  1  0
 51 52  2  0
 52 53  1  0
 53 54  1  0
 54 55  1  0
 54 56  1  0
 53 57  2  0
 57 58  1  0
 57 59  1  0
 59 60  2  0
 60 61  1  0
 33 62  1  0
 62 63  1  0
 26 64  1  0
 64 65  2  0
 65  3  1  0
 21  4  1  0
 65 23  1  0
 19  6  1  0
 63 30  1  0
 15  9  1  0
 44 36  1  0
 50 45  1  0
 60 51  1  0
 44 39  1  0
M  END
$$$$
