
     RDKit          3D

 65 74  0  0  0  0  0  0  0  0999 V2000
  208.9472  131.3807  138.1039 C   0  0  0  0  0  0  0  0  0  0  0  0
  207.9014  130.4865  137.5087 C   0  0  0  0  0  0  0  0  0  0  0  0
  207.9942  130.3565  136.0511 C   0  0  0  0  0  0  0  0  0  0  0  0
  208.9281  129.5127  135.4458 C   0  0  0  0  0  0  0  0  0  0  0  0
  209.9490  128.6286  136.0438 C   0  0  0  0  0  0  0  0  0  0  0  0
  210.5894  127.9995  134.9039 N   0  0  0  0  0  0  0  0  0  0  0  0
  210.0665  128.4356  133.7527 C   0  0  0  0  0  0  0  0  0  0  0  0
  210.5511  127.9475  132.5332 C   0  0  0  0  0  0  0  0  0  0  0  0
  211.5594  127.0231  132.4987 C   0  0  0  0  0  0  0  0  0  0  0  0
  212.0879  126.5835  133.6927 C   0  0  0  0  0  0  0  0  0  0  0  0
  213.1970  125.5671  133.6935 C   0  0  0  0  0  0  0  0  0  0  0  0
  214.0300  125.8078  132.5933 O   0  0  0  0  0  0  0  0  0  0  0  0
  213.5902  126.4105  131.4262 C   0  0  0  0  0  0  0  0  0  0  0  0
  214.3352  126.8921  130.5456 O   0  0  0  0  0  0  0  0  0  0  0  0
  212.1053  126.4723  131.2387 C   0  0  1  0  0  0  0  0  0  0  0  0
  211.6794  125.1507  131.0800 O   0  0  0  0  0  0  0  0  0  0  0  0
  211.7258  127.3326  130.0742 C   0  0  0  0  0  0  0  0  0  0  0  0
  212.3798  126.8265  128.8046 C   0  0  0  0  0  0  0  0  0  0  0  0
  211.5840  127.0880  134.8649 C   0  0  0  0  0  0  0  0  0  0  0  0
  212.0865  126.6682  135.9515 O   0  0  0  0  0  0  0  0  0  0  0  0
  209.0088  129.3984  134.0766 C   0  0  0  0  0  0  0  0  0  0  0  0
  208.1965  130.0916  133.2750 N   0  0  0  0  0  0  0  0  0  0  0  0
  207.2756  130.9223  133.8218 C   0  0  0  0  0  0  0  0  0  0  0  0
  206.4412  131.6314  132.9741 C   0  0  0  0  0  0  0  0  0  0  0  0
  205.4811  132.4946  133.4951 C   0  0  0  0  0  0  0  0  0  0  0  0
  205.3481  132.6549  134.8559 C   0  0  0  0  0  0  0  0  0  0  0  0
  204.3812  133.5212  135.3337 O   0  0  0  0  0  0  0  0  0  0  0  0
  203.3452  133.9253  134.5042 C   0  0  0  0  0  0  0  0  0  0  0  0
  202.2701  133.2813  134.5925 O   0  0  0  0  0  0  0  0  0  0  0  0
  203.4948  135.0204  133.5953 N   0  0  0  0  0  0  0  0  0  0  0  0
  202.5148  135.3096  132.6008 C   0  0  0  0  0  0  0  0  0  0  0  0
  202.5203  136.7860  132.3010 C   0  0  0  0  0  0  0  0  0  0  0  0
  202.8936  137.6479  133.4793 C   0  0  0  0  0  0  0  0  0  0  0  0
  203.1342  139.0537  132.9850 C   0  0  0  0  0  0  0  0  0  0  0  0
  202.1235  139.4970  131.9804 C   0  0  0  0  0  0  0  0  0  0  0  0
  202.5155  140.8161  131.4524 N   0  0  0  0  0  0  0  0  0  0  0  0
  203.3963  141.6405  132.0193 C   0  0  0  0  0  0  0  0  0  0  0  0
  203.5168  142.7531  131.2200 C   0  0  0  0  0  0  0  0  0  0  0  0
  202.6877  142.5955  130.1449 C   0  0  0  0  0  0  0  0  0  0  0  0
  202.3829  143.3584  129.0389 C   0  0  0  0  0  0  0  0  0  0  0  0
  201.4534  142.9186  128.0785 C   0  0  0  0  0  0  0  0  0  0  0  0
  200.8693  141.6927  128.3012 C   0  0  0  0  0  0  0  0  0  0  0  0
  201.1423  140.9007  129.3839 C   0  0  0  0  0  0  0  0  0  0  0  0
  202.0603  141.3549  130.3154 C   0  0  0  0  0  0  0  0  0  0  0  0
  201.2465  143.7563  126.9778 N   0  0  0  0  0  0  0  0  0  0  0  0
  201.9809  143.5977  125.8338 C   0  0  0  0  0  0  0  0  0  0  0  0
  202.8444  142.7129  125.5904 O   0  0  0  0  0  0  0  0  0  0  0  0
  201.6248  144.5605  124.9908 N   0  0  0  0  0  0  0  0  0  0  0  0
  200.7109  145.2982  125.5596 N   0  0  0  0  0  0  0  0  0  0  0  0
  200.4555  144.7956  126.8322 C   0  0  0  0  0  0  0  0  0  0  0  0
  199.5183  145.4519  127.7366 C   0  0  0  0  0  0  0  0  0  0  0  0
  198.6990  144.6425  128.5485 C   0  0  0  0  0  0  0  0  0  0  0  0
  197.8134  145.1537  129.4622 C   0  0  0  0  0  0  0  0  0  0  0  0
  196.9628  144.2679  130.2837 C   0  0  0  0  0  0  0  0  0  0  0  0
  197.7138  142.9677  130.5457 C   0  0  0  0  0  0  0  0  0  0  0  0
  195.6428  143.9252  129.6529 C   0  0  0  0  0  0  0  0  0  0  0  0
  197.7061  146.5113  129.6080 C   0  0  0  0  0  0  0  0  0  0  0  0
  196.8231  147.0936  130.5201 O   0  0  0  0  0  0  0  0  0  0  0  0
  198.4810  147.3400  128.8443 C   0  0  0  0  0  0  0  0  0  0  0  0
  199.3835  146.7876  127.9128 C   0  0  0  0  0  0  0  0  0  0  0  0
  200.1539  147.6824  127.1679 O   0  0  0  0  0  0  0  0  0  0  0  0
  204.1854  137.2211  134.1524 C   0  0  0  0  0  0  0  0  0  0  0  0
  204.6669  135.8657  133.6786 C   0  0  0  0  0  0  0  0  0  0  0  0
  206.2041  131.9257  135.6686 C   0  0  0  0  0  0  0  0  0  0  0  0
  207.1676  131.0606  135.2026 C   0  0  0  0  0  0  0  0  0  0  0  0
  1  2  1  0
  2  3  1  0
  3  4  2  0
  4  5  1  0
  5  6  1  0
  6  7  1  0
  7  8  2  0
  8  9  1  0
  9 10  2  0
 10 11  1  0
 11 12  1  0
 12 13  1  0
 13 14  2  0
 13 15  1  0
 15 16  1  6
 15 17  1  0
 17 18  1  0
 10 19  1  0
 19 20  2  0
  7 21  1  0
 21 22  2  0
 22 23  1  0
 23 24  2  0
 24 25  1  0
 25 26  2  0
 26 27  1  0
 27 28  1  0
 28 29  2  0
 28 30  1  0
 30 31  1  0
 31 32  1  0
 32 33  1  0
 33 34  1  0
 34 35  1  0
 35 36  1  0
 36 37  1  0
 37 38  2  0
 38 39  1  0
 39 40  2  0
 40 41  1  0
 41 42  2  0
 42 43  1  0
 43 44  2  0
 41 45  1  0
 45 46  1  0
 46 47  2  0
 46 48  1  0
 48 49  1  0
 49 50  2  0
 50 51  1  0
 51 52  2  0
 52 53  1  0
 53 54  1  0
 54 55  1  0
 54 56  1  0
 53 57  2  0
 57 58  1  0
 57 59  1  0
 59 60  2  0
 60 61  1  0
 33 62  1  0
 62 63  1  0
 26 64  1  0
 64 65  2  0
 65  3  1  0
 21  4  1  0
 65 23  1  0
 19  6  1  0
 63 30  1  0
 15  9  1  0
 44 36  1  0
 50 45  1  0
 60 51  1  0
 44 39  1  0
M  END
$$$$
