
     RDKit          3D

 65 74  0  0  0  0  0  0  0  0999 V2000
  185.3276  178.9516  131.4720 C   0  0  0  0  0  0  0  0  0  0  0  0
  184.6681  178.9916  132.8177 C   0  0  0  0  0  0  0  0  0  0  0  0
  183.2119  178.8264  132.7679 C   0  0  0  0  0  0  0  0  0  0  0  0
  182.5291  178.6797  131.5585 C   0  0  0  0  0  0  0  0  0  0  0  0
  183.0341  178.6522  130.1708 C   0  0  0  0  0  0  0  0  0  0  0  0
  181.8465  178.4524  129.3617 N   0  0  0  0  0  0  0  0  0  0  0  0
  180.7482  178.3843  130.1220 C   0  0  0  0  0  0  0  0  0  0  0  0
  179.4948  178.1946  129.5275 C   0  0  0  0  0  0  0  0  0  0  0  0
  179.3733  178.0760  128.1697 C   0  0  0  0  0  0  0  0  0  0  0  0
  180.5136  178.1482  127.3999 C   0  0  0  0  0  0  0  0  0  0  0  0
  180.4184  178.0213  125.9040 C   0  0  0  0  0  0  0  0  0  0  0  0
  179.2314  178.6284  125.4744 O   0  0  0  0  0  0  0  0  0  0  0  0
  178.1049  178.7411  126.2727 C   0  0  0  0  0  0  0  0  0  0  0  0
  177.1404  179.5028  126.0448 O   0  0  0  0  0  0  0  0  0  0  0  0
  178.0745  177.8707  127.4915 C   0  0  1  0  0  0  0  0  0  0  0  0
  177.9897  176.5556  127.0265 O   0  0  0  0  0  0  0  0  0  0  0  0
  176.9388  178.2236  128.4002 C   0  0  0  0  0  0  0  0  0  0  0  0
  175.6132  177.8812  127.7513 C   0  0  0  0  0  0  0  0  0  0  0  0
  181.7216  178.3353  128.0230 C   0  0  0  0  0  0  0  0  0  0  0  0
  182.7575  178.3986  127.2933 O   0  0  0  0  0  0  0  0  0  0  0  0
  181.1618  178.5268  131.5217 C   0  0  0  0  0  0  0  0  0  0  0  0
  180.4362  178.5139  132.6425 N   0  0  0  0  0  0  0  0  0  0  0  0
  181.0598  178.6537  133.8378 C   0  0  0  0  0  0  0  0  0  0  0  0
  180.2904  178.6361  134.9891 C   0  0  0  0  0  0  0  0  0  0  0  0
  180.8917  178.7755  136.2370 C   0  0  0  0  0  0  0  0  0  0  0  0
  182.2553  178.9322  136.3438 C   0  0  0  0  0  0  0  0  0  0  0  0
  182.8143  179.0663  137.6020 O   0  0  0  0  0  0  0  0  0  0  0  0
  182.5780  178.1004  138.5693 C   0  0  0  0  0  0  0  0  0  0  0  0
  182.1108  177.0052  138.1684 O   0  0  0  0  0  0  0  0  0  0  0  0
  182.8537  178.3404  139.9529 N   0  0  0  0  0  0  0  0  0  0  0  0
  182.4095  177.4480  140.9725 C   0  0  0  0  0  0  0  0  0  0  0  0
  183.3603  177.5021  142.1398 C   0  0  0  0  0  0  0  0  0  0  0  0
  184.7872  177.7941  141.7534 C   0  0  0  0  0  0  0  0  0  0  0  0
  185.5690  178.0968  143.0087 C   0  0  0  0  0  0  0  0  0  0  0  0
  185.8525  176.8795  143.8240 C   0  0  0  0  0  0  0  0  0  0  0  0
  186.6465  177.2646  145.0046 N   0  0  0  0  0  0  0  0  0  0  0  0
  186.7182  178.4936  145.5156 C   0  0  0  0  0  0  0  0  0  0  0  0
  187.5299  178.4490  146.6248 C   0  0  0  0  0  0  0  0  0  0  0  0
  187.9583  177.1612  146.7862 C   0  0  0  0  0  0  0  0  0  0  0  0
  188.7738  176.5198  147.6927 C   0  0  0  0  0  0  0  0  0  0  0  0
  189.0427  175.1425  147.5906 C   0  0  0  0  0  0  0  0  0  0  0  0
  188.4504  174.4742  146.5436 C   0  0  0  0  0  0  0  0  0  0  0  0
  187.6328  175.0693  145.6208 C   0  0  0  0  0  0  0  0  0  0  0  0
  187.3832  176.4256  145.7422 C   0  0  0  0  0  0  0  0  0  0  0  0
  189.8547  174.5876  148.5850 N   0  0  0  0  0  0  0  0  0  0  0  0
  189.3080  174.1123  149.7461 C   0  0  0  0  0  0  0  0  0  0  0  0
  188.0874  174.0515  150.0533 O   0  0  0  0  0  0  0  0  0  0  0  0
  190.3058  173.7109  150.5256 N   0  0  0  0  0  0  0  0  0  0  0  0
  191.4333  173.9153  149.9009 N   0  0  0  0  0  0  0  0  0  0  0  0
  191.1621  174.4747  148.6557 C   0  0  0  0  0  0  0  0  0  0  0  0
  192.2335  174.8727  147.7495 C   0  0  0  0  0  0  0  0  0  0  0  0
  192.2283  174.3486  146.4416 C   0  0  0  0  0  0  0  0  0  0  0  0
  193.1628  174.6870  145.4967 C   0  0  0  0  0  0  0  0  0  0  0  0
  193.1278  174.1023  144.1403 C   0  0  0  0  0  0  0  0  0  0  0  0
  192.1210  172.9582  144.1227 C   0  0  0  0  0  0  0  0  0  0  0  0
  194.4499  173.5675  143.6673 C   0  0  0  0  0  0  0  0  0  0  0  0
  194.1546  175.5747  145.8195 C   0  0  0  0  0  0  0  0  0  0  0  0
  195.1356  175.9591  144.9027 O   0  0  0  0  0  0  0  0  0  0  0  0
  194.2021  176.1129  147.0758 C   0  0  0  0  0  0  0  0  0  0  0  0
  193.2286  175.7478  148.0277 C   0  0  0  0  0  0  0  0  0  0  0  0
  193.3232  176.3360  149.2903 O   0  0  0  0  0  0  0  0  0  0  0  0
  184.9332  179.0206  140.8712 C   0  0  0  0  0  0  0  0  0  0  0  0
  183.6041  179.5159  140.3405 C   0  0  0  0  0  0  0  0  0  0  0  0
  182.9880  178.9441  135.1657 C   0  0  0  0  0  0  0  0  0  0  0  0
  182.4410  178.8097  133.9101 C   0  0  0  0  0  0  0  0  0  0  0  0
  1  2  1  0
  2  3  1  0
  3  4  2  0
  4  5  1  0
  5  6  1  0
  6  7  1  0
  7  8  2  0
  8  9  1  0
  9 10  2  0
 10 11  1  0
 11 12  1  0
 12 13  1  0
 13 14  2  0
 13 15  1  0
 15 16  1  6
 15 17  1  0
 17 18  1  0
 10 19  1  0
 19 20  2  0
  7 21  1  0
 21 22  2  0
 22 23  1  0
 23 24  2  0
 24 25  1  0
 25 26  2  0
 26 27  1  0
 27 28  1  0
 28 29  2  0
 28 30  1  0
 30 31  1  0
 31 32  1  0
 32 33  1  0
 33 34  1  0
 34 35  1  0
 35 36  1  0
 36 37  1  0
 37 38  2  0
 38 39  1  0
 39 40  2  0
 40 41  1  0
 41 42  2  0
 42 43  1  0
 43 44  2  0
 41 45  1  0
 45 46  1  0
 46 47  2  0
 46 48  1  0
 48 49  1  0
 49 50  2  0
 50 51  1  0
 51 52  2  0
 52 53  1  0
 53 54  1  0
 54 55  1  0
 54 56  1  0
 53 57  2  0
 57 58  1  0
 57 59  1  0
 59 60  2  0
 60 61  1  0
 33 62  1  0
 62 63  1  0
 26 64  1  0
 64 65  2  0
 65  3  1  0
 21  4  1  0
 65 23  1  0
 19  6  1  0
 63 30  1  0
 15  9  1  0
 44 36  1  0
 50 45  1  0
 60 51  1  0
 44 39  1  0
M  END
$$$$
