
     RDKit          3D

 65 74  0  0  0  0  0  0  0  0999 V2000
  187.3531  159.5955  132.5543 C   0  0  0  0  0  0  0  0  0  0  0  0
  187.9610  158.7679  131.4621 C   0  0  0  0  0  0  0  0  0  0  0  0
  189.2511  159.2749  130.9839 C   0  0  0  0  0  0  0  0  0  0  0  0
  189.6388  160.6020  131.1814 C   0  0  0  0  0  0  0  0  0  0  0  0
  188.9353  161.7160  131.8488 C   0  0  0  0  0  0  0  0  0  0  0  0
  189.8570  162.8322  131.7490 N   0  0  0  0  0  0  0  0  0  0  0  0
  190.9712  162.4835  131.0965 C   0  0  0  0  0  0  0  0  0  0  0  0
  191.9884  163.4241  130.8940 C   0  0  0  0  0  0  0  0  0  0  0  0
  191.8611  164.7054  131.3570 C   0  0  0  0  0  0  0  0  0  0  0  0
  190.7076  165.0496  132.0273 C   0  0  0  0  0  0  0  0  0  0  0  0
  190.5331  166.4489  132.5511 C   0  0  0  0  0  0  0  0  0  0  0  0
  191.1266  167.3443  131.6521 O   0  0  0  0  0  0  0  0  0  0  0  0
  192.1810  166.9993  130.8226 C   0  0  0  0  0  0  0  0  0  0  0  0
  192.5532  167.6582  129.8277 O   0  0  0  0  0  0  0  0  0  0  0  0
  192.9062  165.7364  131.1735 C   0  0  1  0  0  0  0  0  0  0  0  0
  193.5436  165.9817  132.3928 O   0  0  0  0  0  0  0  0  0  0  0  0
  193.8702  165.3312  130.1027 C   0  0  0  0  0  0  0  0  0  0  0  0
  195.0761  166.2484  130.0990 C   0  0  0  0  0  0  0  0  0  0  0  0
  189.7357  164.0972  132.2036 C   0  0  0  0  0  0  0  0  0  0  0  0
  188.6826  164.4376  132.8237 O   0  0  0  0  0  0  0  0  0  0  0  0
  190.8512  161.0693  130.7275 C   0  0  0  0  0  0  0  0  0  0  0  0
  191.7026  160.2702  130.0799 N   0  0  0  0  0  0  0  0  0  0  0  0
  191.3650  158.9749  129.8670 C   0  0  0  0  0  0  0  0  0  0  0  0
  192.2619  158.1615  129.1950 C   0  0  0  0  0  0  0  0  0  0  0  0
  191.9543  156.8247  128.9567 C   0  0  0  0  0  0  0  0  0  0  0  0
  190.7580  156.2944  129.3843 C   0  0  0  0  0  0  0  0  0  0  0  0
  190.4905  154.9614  129.1289 O   0  0  0  0  0  0  0  0  0  0  0  0
  190.6553  154.4572  127.8470 C   0  0  0  0  0  0  0  0  0  0  0  0
  191.3925  153.4466  127.7305 O   0  0  0  0  0  0  0  0  0  0  0  0
  190.0170  155.0583  126.7160 N   0  0  0  0  0  0  0  0  0  0  0  0
  189.5490  156.4048  126.7461 C   0  0  0  0  0  0  0  0  0  0  0  0
  189.5965  156.9869  125.3574 C   0  0  0  0  0  0  0  0  0  0  0  0
  190.7064  156.4350  124.5006 C   0  0  0  0  0  0  0  0  0  0  0  0
  190.4753  156.8785  123.0764 C   0  0  0  0  0  0  0  0  0  0  0  0
  191.3047  156.1242  122.0914 C   0  0  0  0  0  0  0  0  0  0  0  0
  190.9023  156.5103  120.7270 N   0  0  0  0  0  0  0  0  0  0  0  0
  190.3575  155.6932  119.8258 C   0  0  0  0  0  0  0  0  0  0  0  0
  190.0957  156.4228  118.6898 C   0  0  0  0  0  0  0  0  0  0  0  0
  190.4931  157.7115  118.9117 C   0  0  0  0  0  0  0  0  0  0  0  0
  190.4885  158.8676  118.1623 C   0  0  0  0  0  0  0  0  0  0  0  0
  190.9880  160.0776  118.6778 C   0  0  0  0  0  0  0  0  0  0  0  0
  191.4776  160.0451  119.9635 C   0  0  0  0  0  0  0  0  0  0  0  0
  191.5009  158.9213  120.7450 C   0  0  0  0  0  0  0  0  0  0  0  0
  191.0039  157.7426  120.2156 C   0  0  0  0  0  0  0  0  0  0  0  0
  190.9016  161.1968  117.8436 N   0  0  0  0  0  0  0  0  0  0  0  0
  189.8306  162.0450  117.9244 C   0  0  0  0  0  0  0  0  0  0  0  0
  188.8646  161.9898  118.7317 O   0  0  0  0  0  0  0  0  0  0  0  0
  189.9775  162.9691  116.9816 N   0  0  0  0  0  0  0  0  0  0  0  0
  191.0826  162.7302  116.3298 N   0  0  0  0  0  0  0  0  0  0  0  0
  191.6878  161.5995  116.8706 C   0  0  0  0  0  0  0  0  0  0  0  0
  192.9152  161.0490  116.3069 C   0  0  0  0  0  0  0  0  0  0  0  0
  193.0539  159.6477  116.2550 C   0  0  0  0  0  0  0  0  0  0  0  0
  194.1465  159.0243  115.7091 C   0  0  0  0  0  0  0  0  0  0  0  0
  194.2573  157.5510  115.6881 C   0  0  0  0  0  0  0  0  0  0  0  0
  192.8787  156.9569  115.4244 C   0  0  0  0  0  0  0  0  0  0  0  0
  194.7856  156.9562  116.9627 C   0  0  0  0  0  0  0  0  0  0  0  0
  195.1602  159.7810  115.1840 C   0  0  0  0  0  0  0  0  0  0  0  0
  196.2988  159.2065  114.6148 O   0  0  0  0  0  0  0  0  0  0  0  0
  195.0721  161.1456  115.2087 C   0  0  0  0  0  0  0  0  0  0  0  0
  193.9374  161.7605  115.7758 C   0  0  0  0  0  0  0  0  0  0  0  0
  193.8995  163.1561  115.7648 O   0  0  0  0  0  0  0  0  0  0  0  0
  190.7383  154.9180  124.4598 C   0  0  0  0  0  0  0  0  0  0  0  0
  189.8373  154.2899  125.5025 C   0  0  0  0  0  0  0  0  0  0  0  0
  189.8889  157.1441  130.0533 C   0  0  0  0  0  0  0  0  0  0  0  0
  190.1469  158.4706  130.3134 C   0  0  0  0  0  0  0  0  0  0  0  0
  1  2  1  0
  2  3  1  0
  3  4  2  0
  4  5  1  0
  5  6  1  0
  6  7  1  0
  7  8  2  0
  8  9  1  0
  9 10  2  0
 10 11  1  0
 11 12  1  0
 12 13  1  0
 13 14  2  0
 13 15  1  0
 15 16  1  1
 15 17  1  0
 17 18  1  0
 10 19  1  0
 19 20  2  0
  7 21  1  0
 21 22  2  0
 22 23  1  0
 23 24  2  0
 24 25  1  0
 25 26  2  0
 26 27  1  0
 27 28  1  0
 28 29  2  0
 28 30  1  0
 30 31  1  0
 31 32  1  0
 32 33  1  0
 33 34  1  0
 34 35  1  0
 35 36  1  0
 36 37  1  0
 37 38  2  0
 38 39  1  0
 39 40  2  0
 40 41  1  0
 41 42  2  0
 42 43  1  0
 43 44  2  0
 41 45  1  0
 45 46  1  0
 46 47  2  0
 46 48  1  0
 48 49  1  0
 49 50  2  0
 50 51  1  0
 51 52  2  0
 52 53  1  0
 53 54  1  0
 54 55  1  0
 54 56  1  0
 53 57  2  0
 57 58  1  0
 57 59  1  0
 59 60  2  0
 60 61  1  0
 33 62  1  0
 62 63  1  0
 26 64  1  0
 64 65  2  0
 65  3  1  0
 21  4  1  0
 65 23  1  0
 19  6  1  0
 63 30  1  0
 15  9  1  0
 44 36  1  0
 50 45  1  0
 60 51  1  0
 44 39  1  0
M  END
$$$$
