
     RDKit          3D

 65 74  0  0  0  0  0  0  0  0999 V2000
  210.4902  139.3351  136.0462 C   0  0  0  0  0  0  0  0  0  0  0  0
  209.8861  138.0360  136.4878 C   0  0  0  0  0  0  0  0  0  0  0  0
  210.6714  136.8582  136.1053 C   0  0  0  0  0  0  0  0  0  0  0  0
  212.0183  136.9559  135.7498 C   0  0  0  0  0  0  0  0  0  0  0  0
  212.9064  138.1338  135.6762 C   0  0  0  0  0  0  0  0  0  0  0  0
  214.1884  137.5903  135.2684 N   0  0  0  0  0  0  0  0  0  0  0  0
  214.1187  136.2667  135.0895 C   0  0  0  0  0  0  0  0  0  0  0  0
  215.2554  135.5522  134.6923 C   0  0  0  0  0  0  0  0  0  0  0  0
  216.4474  136.1907  134.4827 C   0  0  0  0  0  0  0  0  0  0  0  0
  216.5035  137.5544  134.6710 C   0  0  0  0  0  0  0  0  0  0  0  0
  217.7972  138.2897  134.4506 C   0  0  0  0  0  0  0  0  0  0  0  0
  218.4804  137.6910  133.3844 O   0  0  0  0  0  0  0  0  0  0  0  0
  218.3277  136.3584  133.0383 C   0  0  0  0  0  0  0  0  0  0  0  0
  218.6879  135.8560  131.9519 O   0  0  0  0  0  0  0  0  0  0  0  0
  217.6785  135.4835  134.0665 C   0  0  1  0  0  0  0  0  0  0  0  0
  218.5703  135.4205  135.1406 O   0  0  0  0  0  0  0  0  0  0  0  0
  217.3539  134.1282  133.5205 C   0  0  0  0  0  0  0  0  0  0  0  0
  216.7439  134.2445  132.1385 C   0  0  0  0  0  0  0  0  0  0  0  0
  215.3661  138.2158  135.0602 C   0  0  0  0  0  0  0  0  0  0  0  0
  215.4423  139.4711  135.2272 O   0  0  0  0  0  0  0  0  0  0  0  0
  212.7469  135.8448  135.3907 C   0  0  0  0  0  0  0  0  0  0  0  0
  212.1918  134.6306  135.3680 N   0  0  0  0  0  0  0  0  0  0  0  0
  210.8866  134.4917  135.7059 C   0  0  0  0  0  0  0  0  0  0  0  0
  210.3294  133.2243  135.6779 C   0  0  0  0  0  0  0  0  0  0  0  0
  208.9924  133.0380  136.0187 C   0  0  0  0  0  0  0  0  0  0  0  0
  208.2080  134.1077  136.3871 C   0  0  0  0  0  0  0  0  0  0  0  0
  206.8846  133.8805  136.7196 O   0  0  0  0  0  0  0  0  0  0  0  0
  206.5693  132.9639  137.7121 C   0  0  0  0  0  0  0  0  0  0  0  0
  207.0091  133.2078  138.8634 O   0  0  0  0  0  0  0  0  0  0  0  0
  205.7824  131.8007  137.4372 N   0  0  0  0  0  0  0  0  0  0  0  0
  205.6125  130.7644  138.4017 C   0  0  0  0  0  0  0  0  0  0  0  0
  204.2826  130.0895  138.1884 C   0  0  0  0  0  0  0  0  0  0  0  0
  203.2138  131.0021  137.6449 C   0  0  0  0  0  0  0  0  0  0  0  0
  202.0376  130.1580  137.2175 C   0  0  0  0  0  0  0  0  0  0  0  0
  201.1050  130.8814  136.3042 C   0  0  0  0  0  0  0  0  0  0  0  0
  200.3778  129.8985  135.4810 N   0  0  0  0  0  0  0  0  0  0  0  0
  200.2643  128.5992  135.7559 C   0  0  0  0  0  0  0  0  0  0  0  0
  199.4921  128.0205  134.7760 C   0  0  0  0  0  0  0  0  0  0  0  0
  199.1316  128.9953  133.8883 C   0  0  0  0  0  0  0  0  0  0  0  0
  198.3851  129.0208  132.7306 C   0  0  0  0  0  0  0  0  0  0  0  0
  198.1914  130.2132  132.0093 C   0  0  0  0  0  0  0  0  0  0  0  0
  198.7832  131.3460  132.5195 C   0  0  0  0  0  0  0  0  0  0  0  0
  199.5313  131.3681  133.6657 C   0  0  0  0  0  0  0  0  0  0  0  0
  199.7079  130.1823  134.3580 C   0  0  0  0  0  0  0  0  0  0  0  0
  197.3869  130.1311  130.8682 N   0  0  0  0  0  0  0  0  0  0  0  0
  196.0388  129.9232  130.9796 C   0  0  0  0  0  0  0  0  0  0  0  0
  195.3583  129.8376  132.0368 O   0  0  0  0  0  0  0  0  0  0  0  0
  195.5446  129.8224  129.7508 N   0  0  0  0  0  0  0  0  0  0  0  0
  196.5201  129.9588  128.8948 N   0  0  0  0  0  0  0  0  0  0  0  0
  197.7069  130.1592  129.5939 C   0  0  0  0  0  0  0  0  0  0  0  0
  198.9858  130.2841  128.9040 C   0  0  0  0  0  0  0  0  0  0  0  0
  199.8229  131.3653  129.2441 C   0  0  0  0  0  0  0  0  0  0  0  0
  201.0621  131.5551  128.6883 C   0  0  0  0  0  0  0  0  0  0  0  0
  201.9016  132.7114  129.0641 C   0  0  0  0  0  0  0  0  0  0  0  0
  201.3703  133.3046  130.3636 C   0  0  0  0  0  0  0  0  0  0  0  0
  201.9393  133.8043  128.0336 C   0  0  0  0  0  0  0  0  0  0  0  0
  201.5259  130.6630  127.7584 C   0  0  0  0  0  0  0  0  0  0  0  0
  202.7782  130.8011  127.1555 O   0  0  0  0  0  0  0  0  0  0  0  0
  200.7517  129.5956  127.3956 C   0  0  0  0  0  0  0  0  0  0  0  0
  199.4818  129.4243  127.9831 C   0  0  0  0  0  0  0  0  0  0  0  0
  198.7406  128.3120  127.5799 O   0  0  0  0  0  0  0  0  0  0  0  0
  203.6459  131.7644  136.4054 C   0  0  0  0  0  0  0  0  0  0  0  0
  205.1351  131.6613  136.1500 C   0  0  0  0  0  0  0  0  0  0  0  0
  208.8061  135.3594  136.4017 C   0  0  0  0  0  0  0  0  0  0  0  0
  210.1218  135.5949  136.0743 C   0  0  0  0  0  0  0  0  0  0  0  0
  1  2  1  0
  2  3  1  0
  3  4  2  0
  4  5  1  0
  5  6  1  0
  6  7  1  0
  7  8  2  0
  8  9  1  0
  9 10  2  0
 10 11  1  0
 11 12  1  0
 12 13  1  0
 13 14  2  0
 13 15  1  0
 15 16  1  1
 15 17  1  0
 17 18  1  0
 10 19  1  0
 19 20  2  0
  7 21  1  0
 21 22  2  0
 22 23  1  0
 23 24  2  0
 24 25  1  0
 25 26  2  0
 26 27  1  0
 27 28  1  0
 28 29  2  0
 28 30  1  0
 30 31  1  0
 31 32  1  0
 32 33  1  0
 33 34  1  0
 34 35  1  0
 35 36  1  0
 36 37  1  0
 37 38  2  0
 38 39  1  0
 39 40  2  0
 40 41  1  0
 41 42  2  0
 42 43  1  0
 43 44  2  0
 41 45  1  0
 45 46  1  0
 46 47  2  0
 46 48  1  0
 48 49  1  0
 49 50  2  0
 50 51  1  0
 51 52  2  0
 52 53  1  0
 53 54  1  0
 54 55  1  0
 54 56  1  0
 53 57  2  0
 57 58  1  0
 57 59  1  0
 59 60  2  0
 60 61  1  0
 33 62  1  0
 62 63  1  0
 26 64  1  0
 64 65  2  0
 65  3  1  0
 21  4  1  0
 65 23  1  0
 19  6  1  0
 63 30  1  0
 15  9  1  0
 44 36  1  0
 50 45  1  0
 60 51  1  0
 44 39  1  0
M  END
$$$$
