
     RDKit          3D

 65 74  0  0  0  0  0  0  0  0999 V2000
  177.3297  159.0157  113.3246 C   0  0  0  0  0  0  0  0  0  0  0  0
  176.2838  159.9745  112.8407 C   0  0  0  0  0  0  0  0  0  0  0  0
  175.6619  159.5810  111.5724 C   0  0  0  0  0  0  0  0  0  0  0  0
  176.4178  159.1042  110.4993 C   0  0  0  0  0  0  0  0  0  0  0  0
  177.8740  158.8918  110.3730 C   0  0  0  0  0  0  0  0  0  0  0  0
  178.0434  158.3619  109.0330 N   0  0  0  0  0  0  0  0  0  0  0  0
  176.8708  158.2713  108.3960 C   0  0  0  0  0  0  0  0  0  0  0  0
  176.8212  157.7817  107.0852 C   0  0  0  0  0  0  0  0  0  0  0  0
  177.9621  157.3903  106.4390 C   0  0  0  0  0  0  0  0  0  0  0  0
  179.1623  157.4896  107.1081 C   0  0  0  0  0  0  0  0  0  0  0  0
  180.4369  157.0679  106.4295 C   0  0  0  0  0  0  0  0  0  0  0  0
  180.3526  157.3926  105.0695 O   0  0  0  0  0  0  0  0  0  0  0  0
  179.1523  157.4802  104.3836 C   0  0  0  0  0  0  0  0  0  0  0  0
  179.0038  158.0272  103.2695 O   0  0  0  0  0  0  0  0  0  0  0  0
  177.9651  156.8628  105.0567 C   0  0  1  0  0  0  0  0  0  0  0  0
  178.2049  155.4862  105.0795 O   0  0  0  0  0  0  0  0  0  0  0  0
  176.6873  157.2029  104.3554 C   0  0  0  0  0  0  0  0  0  0  0  0
  176.6741  156.6129  102.9599 C   0  0  0  0  0  0  0  0  0  0  0  0
  179.1661  157.9750  108.3915 C   0  0  0  0  0  0  0  0  0  0  0  0
  180.2831  158.0572  108.9872 O   0  0  0  0  0  0  0  0  0  0  0  0
  175.8253  158.7386  109.3120 C   0  0  0  0  0  0  0  0  0  0  0  0
  174.5039  158.8273  109.1416 N   0  0  0  0  0  0  0  0  0  0  0  0
  173.7334  159.2856  110.1581 C   0  0  0  0  0  0  0  0  0  0  0  0
  172.3650  159.3688  109.9628 C   0  0  0  0  0  0  0  0  0  0  0  0
  171.5378  159.8333  110.9818 C   0  0  0  0  0  0  0  0  0  0  0  0
  172.0668  160.2151  112.1941 C   0  0  0  0  0  0  0  0  0  0  0  0
  171.2111  160.6700  113.1812 O   0  0  0  0  0  0  0  0  0  0  0  0
  171.2150  162.0116  113.5343 C   0  0  0  0  0  0  0  0  0  0  0  0
  170.2227  162.6915  113.1719 O   0  0  0  0  0  0  0  0  0  0  0  0
  172.2947  162.5900  114.2744 N   0  0  0  0  0  0  0  0  0  0  0  0
  173.6307  162.1065  114.1544 C   0  0  0  0  0  0  0  0  0  0  0  0
  174.5995  163.2299  114.4172 C   0  0  0  0  0  0  0  0  0  0  0  0
  174.0890  164.5865  114.0052 C   0  0  0  0  0  0  0  0  0  0  0  0
  175.0154  165.6364  114.5694 C   0  0  0  0  0  0  0  0  0  0  0  0
  176.2360  165.8422  113.7359 C   0  0  0  0  0  0  0  0  0  0  0  0
  175.9752  166.9115  112.7554 N   0  0  0  0  0  0  0  0  0  0  0  0
  176.5522  168.1131  112.7563 C   0  0  0  0  0  0  0  0  0  0  0  0
  176.0770  168.8166  111.6745 C   0  0  0  0  0  0  0  0  0  0  0  0
  175.1912  168.0194  111.0052 C   0  0  0  0  0  0  0  0  0  0  0  0
  174.4123  168.1723  109.8791 C   0  0  0  0  0  0  0  0  0  0  0  0
  173.5679  167.1421  109.4262 C   0  0  0  0  0  0  0  0  0  0  0  0
  173.5622  165.9801  110.1635 C   0  0  0  0  0  0  0  0  0  0  0  0
  174.3195  165.7832  111.2867 C   0  0  0  0  0  0  0  0  0  0  0  0
  175.1427  166.8116  111.7127 C   0  0  0  0  0  0  0  0  0  0  0  0
  172.8490  167.3919  108.2529 N   0  0  0  0  0  0  0  0  0  0  0  0
  171.5264  167.7394  108.3068 C   0  0  0  0  0  0  0  0  0  0  0  0
  170.8220  167.9293  109.3344 O   0  0  0  0  0  0  0  0  0  0  0  0
  171.0879  167.8484  107.0577 N   0  0  0  0  0  0  0  0  0  0  0  0
  172.0738  167.5866  106.2437 N   0  0  0  0  0  0  0  0  0  0  0  0
  173.2097  167.2941  106.9930 C   0  0  0  0  0  0  0  0  0  0  0  0
  174.4615  166.9001  106.3567 C   0  0  0  0  0  0  0  0  0  0  0  0
  174.3975  166.0818  105.2113 C   0  0  0  0  0  0  0  0  0  0  0  0
  175.5087  165.6866  104.5117 C   0  0  0  0  0  0  0  0  0  0  0  0
  175.3965  164.8161  103.3231 C   0  0  0  0  0  0  0  0  0  0  0  0
  176.1977  163.5428  103.5675 C   0  0  0  0  0  0  0  0  0  0  0  0
  175.8947  165.4440  102.0522 C   0  0  0  0  0  0  0  0  0  0  0  0
  176.7472  166.0963  104.9290 C   0  0  0  0  0  0  0  0  0  0  0  0
  177.9167  165.7276  104.2604 O   0  0  0  0  0  0  0  0  0  0  0  0
  176.8623  166.8931  106.0346 C   0  0  0  0  0  0  0  0  0  0  0  0
  175.7034  167.2849  106.7350 C   0  0  0  0  0  0  0  0  0  0  0  0
  175.8826  168.1052  107.8504 O   0  0  0  0  0  0  0  0  0  0  0  0
  172.7143  164.9075  114.5628 C   0  0  0  0  0  0  0  0  0  0  0  0
  172.0369  163.6971  115.1706 C   0  0  0  0  0  0  0  0  0  0  0  0
  173.4422  160.1157  112.3471 C   0  0  0  0  0  0  0  0  0  0  0  0
  174.3010  159.6631  111.3718 C   0  0  0  0  0  0  0  0  0  0  0  0
  1  2  1  0
  2  3  1  0
  3  4  2  0
  4  5  1  0
  5  6  1  0
  6  7  1  0
  7  8  2  0
  8  9  1  0
  9 10  2  0
 10 11  1  0
 11 12  1  0
 12 13  1  0
 13 14  2  0
 13 15  1  0
 15 16  1  1
 15 17  1  0
 17 18  1  0
 10 19  1  0
 19 20  2  0
  7 21  1  0
 21 22  2  0
 22 23  1  0
 23 24  2  0
 24 25  1  0
 25 26  2  0
 26 27  1  0
 27 28  1  0
 28 29  2  0
 28 30  1  0
 30 31  1  0
 31 32  1  0
 32 33  1  0
 33 34  1  0
 34 35  1  0
 35 36  1  0
 36 37  1  0
 37 38  2  0
 38 39  1  0
 39 40  2  0
 40 41  1  0
 41 42  2  0
 42 43  1  0
 43 44  2  0
 41 45  1  0
 45 46  1  0
 46 47  2  0
 46 48  1  0
 48 49  1  0
 49 50  2  0
 50 51  1  0
 51 52  2  0
 52 53  1  0
 53 54  1  0
 54 55  1  0
 54 56  1  0
 53 57  2  0
 57 58  1  0
 57 59  1  0
 59 60  2  0
 60 61  1  0
 33 62  1  0
 62 63  1  0
 26 64  1  0
 64 65  2  0
 65  3  1  0
 21  4  1  0
 65 23  1  0
 19  6  1  0
 63 30  1  0
 15  9  1  0
 44 36  1  0
 50 45  1  0
 60 51  1  0
 44 39  1  0
M  END
$$$$
