
     RDKit          3D

 65 74  0  0  0  0  0  0  0  0999 V2000
  123.0857  134.8465  126.8584 C   0  0  0  0  0  0  0  0  0  0  0  0
  123.6565  134.4076  128.1733 C   0  0  0  0  0  0  0  0  0  0  0  0
  123.4651  132.9813  128.4547 C   0  0  0  0  0  0  0  0  0  0  0  0
  122.4230  132.2513  127.8790 C   0  0  0  0  0  0  0  0  0  0  0  0
  121.3627  132.6726  126.9410 C   0  0  0  0  0  0  0  0  0  0  0  0
  120.6000  131.4627  126.6963 N   0  0  0  0  0  0  0  0  0  0  0  0
  121.0910  130.4315  127.3923 C   0  0  0  0  0  0  0  0  0  0  0  0
  120.4914  129.1701  127.2934 C   0  0  0  0  0  0  0  0  0  0  0  0
  119.4021  128.9725  126.4892 C   0  0  0  0  0  0  0  0  0  0  0  0
  118.9078  130.0443  125.7786 C   0  0  0  0  0  0  0  0  0  0  0  0
  117.7119  129.8643  124.8839 C   0  0  0  0  0  0  0  0  0  0  0  0
  116.8402  128.9417  125.4763 O   0  0  0  0  0  0  0  0  0  0  0  0
  117.2630  127.9466  126.3424 C   0  0  0  0  0  0  0  0  0  0  0  0
  116.5141  127.2921  127.0995 O   0  0  0  0  0  0  0  0  0  0  0  0
  118.7334  127.6606  126.3458 C   0  0  1  0  0  0  0  0  0  0  0  0
  119.0256  127.1187  125.0911 O   0  0  0  0  0  0  0  0  0  0  0  0
  119.1200  126.7421  127.4625 C   0  0  0  0  0  0  0  0  0  0  0  0
  117.8968  126.0500  128.0285 C   0  0  0  0  0  0  0  0  0  0  0  0
  119.5253  131.2631  125.9047 C   0  0  0  0  0  0  0  0  0  0  0  0
  119.0522  132.2350  125.2407 O   0  0  0  0  0  0  0  0  0  0  0  0
  122.2503  130.9131  128.1504 C   0  0  0  0  0  0  0  0  0  0  0  0
  123.0735  130.2623  128.9761 N   0  0  0  0  0  0  0  0  0  0  0  0
  124.0979  130.9338  129.5564 C   0  0  0  0  0  0  0  0  0  0  0  0
  124.9418  130.2413  130.4084 C   0  0  0  0  0  0  0  0  0  0  0  0
  126.0067  130.8934  131.0241 C   0  0  0  0  0  0  0  0  0  0  0  0
  126.2351  132.2316  130.7953 C   0  0  0  0  0  0  0  0  0  0  0  0
  127.3044  132.8426  131.4252 O   0  0  0  0  0  0  0  0  0  0  0  0
  128.5886  132.6696  130.9298 C   0  0  0  0  0  0  0  0  0  0  0  0
  129.0123  131.4886  130.8652 O   0  0  0  0  0  0  0  0  0  0  0  0
  129.3886  133.7806  130.5132 N   0  0  0  0  0  0  0  0  0  0  0  0
  129.0355  135.1233  130.8379 C   0  0  0  0  0  0  0  0  0  0  0  0
  130.2821  135.9636  130.9355 C   0  0  0  0  0  0  0  0  0  0  0  0
  131.4937  135.2068  131.4150 C   0  0  0  0  0  0  0  0  0  0  0  0
  132.7120  136.0721  131.2017 C   0  0  0  0  0  0  0  0  0  0  0  0
  132.4464  137.5198  131.4482 C   0  0  0  0  0  0  0  0  0  0  0  0
  133.6076  138.3066  130.9951 N   0  0  0  0  0  0  0  0  0  0  0  0
  134.6445  137.8231  130.3112 C   0  0  0  0  0  0  0  0  0  0  0  0
  135.5055  138.8626  130.0478 C   0  0  0  0  0  0  0  0  0  0  0  0
  134.9744  140.0009  130.5867 C   0  0  0  0  0  0  0  0  0  0  0  0
  135.3719  141.3186  130.6475 C   0  0  0  0  0  0  0  0  0  0  0  0
  134.5911  142.2906  131.2997 C   0  0  0  0  0  0  0  0  0  0  0  0
  133.4158  141.8573  131.8695 C   0  0  0  0  0  0  0  0  0  0  0  0
  132.9807  140.5598  131.8327 C   0  0  0  0  0  0  0  0  0  0  0  0
  133.7662  139.6216  131.1851 C   0  0  0  0  0  0  0  0  0  0  0  0
  135.0722  143.6035  131.2699 N   0  0  0  0  0  0  0  0  0  0  0  0
  134.5051  144.5347  130.4427 C   0  0  0  0  0  0  0  0  0  0  0  0
  133.5095  144.3858  129.6847 O   0  0  0  0  0  0  0  0  0  0  0  0
  135.1971  145.6612  130.5711 N   0  0  0  0  0  0  0  0  0  0  0  0
  136.1565  145.4670  131.4342 N   0  0  0  0  0  0  0  0  0  0  0  0
  136.0896  144.1547  131.8929 C   0  0  0  0  0  0  0  0  0  0  0  0
  137.0757  143.6227  132.8266 C   0  0  0  0  0  0  0  0  0  0  0  0
  136.7017  143.4748  134.1772 C   0  0  0  0  0  0  0  0  0  0  0  0
  137.5348  142.9474  135.1302 C   0  0  0  0  0  0  0  0  0  0  0  0
  137.1064  142.8234  136.5388 C   0  0  0  0  0  0  0  0  0  0  0  0
  136.4634  141.4563  136.7397 C   0  0  0  0  0  0  0  0  0  0  0  0
  136.1219  143.8708  136.9763 C   0  0  0  0  0  0  0  0  0  0  0  0
  138.7922  142.5388  134.7727 C   0  0  0  0  0  0  0  0  0  0  0  0
  139.6877  141.9945  135.6960 O   0  0  0  0  0  0  0  0  0  0  0  0
  139.2022  142.6598  133.4736 C   0  0  0  0  0  0  0  0  0  0  0  0
  138.3252  143.2052  132.5141 C   0  0  0  0  0  0  0  0  0  0  0  0
  138.7958  143.2958  131.2028 O   0  0  0  0  0  0  0  0  0  0  0  0
  131.7535  133.9302  130.6360 C   0  0  0  0  0  0  0  0  0  0  0  0
  130.5918  133.5482  129.7427 C   0  0  0  0  0  0  0  0  0  0  0  0
  125.3658  132.8869  129.9351 C   0  0  0  0  0  0  0  0  0  0  0  0
  124.3008  132.2874  129.3027 C   0  0  0  0  0  0  0  0  0  0  0  0
  1  2  1  0
  2  3  1  0
  3  4  2  0
  4  5  1  0
  5  6  1  0
  6  7  1  0
  7  8  2  0
  8  9  1  0
  9 10  2  0
 10 11  1  0
 11 12  1  0
 12 13  1  0
 13 14  2  0
 13 15  1  0
 15 16  1  6
 15 17  1  0
 17 18  1  0
 10 19  1  0
 19 20  2  0
  7 21  1  0
 21 22  2  0
 22 23  1  0
 23 24  2  0
 24 25  1  0
 25 26  2  0
 26 27  1  0
 27 28  1  0
 28 29  2  0
 28 30  1  0
 30 31  1  0
 31 32  1  0
 32 33  1  0
 33 34  1  0
 34 35  1  0
 35 36  1  0
 36 37  1  0
 37 38  2  0
 38 39  1  0
 39 40  2  0
 40 41  1  0
 41 42  2  0
 42 43  1  0
 43 44  2  0
 41 45  1  0
 45 46  1  0
 46 47  2  0
 46 48  1  0
 48 49  1  0
 49 50  2  0
 50 51  1  0
 51 52  2  0
 52 53  1  0
 53 54  1  0
 54 55  1  0
 54 56  1  0
 53 57  2  0
 57 58  1  0
 57 59  1  0
 59 60  2  0
 60 61  1  0
 33 62  1  0
 62 63  1  0
 26 64  1  0
 64 65  2  0
 65  3  1  0
 21  4  1  0
 65 23  1  0
 19  6  1  0
 63 30  1  0
 15  9  1  0
 44 36  1  0
 50 45  1  0
 60 51  1  0
 44 39  1  0
M  END
$$$$
