
     RDKit          3D

 65 74  0  0  0  0  0  0  0  0999 V2000
  151.9722  163.8902  151.4237 C   0  0  0  0  0  0  0  0  0  0  0  0
  153.2054  164.1062  150.5991 C   0  0  0  0  0  0  0  0  0  0  0  0
  154.1356  165.0849  151.1711 C   0  0  0  0  0  0  0  0  0  0  0  0
  154.5022  165.0511  152.5183 C   0  0  0  0  0  0  0  0  0  0  0  0
  154.0994  164.1268  153.5976 C   0  0  0  0  0  0  0  0  0  0  0  0
  154.8298  164.5949  154.7607 N   0  0  0  0  0  0  0  0  0  0  0  0
  155.5699  165.6696  154.4677 C   0  0  0  0  0  0  0  0  0  0  0  0
  156.3510  166.2746  155.4598 C   0  0  0  0  0  0  0  0  0  0  0  0
  156.3706  165.7801  156.7356 C   0  0  0  0  0  0  0  0  0  0  0  0
  155.6028  164.6725  157.0221 C   0  0  0  0  0  0  0  0  0  0  0  0
  155.6001  164.1009  158.4136 C   0  0  0  0  0  0  0  0  0  0  0  0
  155.7015  165.1525  159.3333 O   0  0  0  0  0  0  0  0  0  0  0  0
  156.3113  166.3611  159.0396 C   0  0  0  0  0  0  0  0  0  0  0  0
  156.1842  167.4078  159.7109 O   0  0  0  0  0  0  0  0  0  0  0  0
  157.1804  166.3783  157.8197 C   0  0  1  0  0  0  0  0  0  0  0  0
  158.2677  165.5487  158.1067 O   0  0  0  0  0  0  0  0  0  0  0  0
  157.6079  167.7667  157.4594 C   0  0  0  0  0  0  0  0  0  0  0  0
  158.6615  168.2659  158.4271 C   0  0  0  0  0  0  0  0  0  0  0  0
  154.8520  164.1110  156.0204 C   0  0  0  0  0  0  0  0  0  0  0  0
  154.1532  163.0920  156.3082 O   0  0  0  0  0  0  0  0  0  0  0  0
  155.3750  165.9750  153.0466 C   0  0  0  0  0  0  0  0  0  0  0  0
  155.9036  166.9397  152.2898 N   0  0  0  0  0  0  0  0  0  0  0  0
  155.5737  167.0085  150.9770 C   0  0  0  0  0  0  0  0  0  0  0  0
  156.1335  168.0150  150.2082 C   0  0  0  0  0  0  0  0  0  0  0  0
  155.8218  168.1203  148.8553 C   0  0  0  0  0  0  0  0  0  0  0  0
  154.9555  167.2281  148.2648 C   0  0  0  0  0  0  0  0  0  0  0  0
  154.6725  167.3660  146.9178 O   0  0  0  0  0  0  0  0  0  0  0  0
  155.4866  166.7554  145.9749 C   0  0  0  0  0  0  0  0  0  0  0  0
  155.5028  165.4992  145.9747 O   0  0  0  0  0  0  0  0  0  0  0  0
  156.2670  167.5188  145.0497 N   0  0  0  0  0  0  0  0  0  0  0  0
  157.0491  168.6347  145.4693 C   0  0  0  0  0  0  0  0  0  0  0  0
  158.2379  168.7897  144.5569 C   0  0  0  0  0  0  0  0  0  0  0  0
  158.7487  167.4894  143.9920 C   0  0  0  0  0  0  0  0  0  0  0  0
  159.7385  167.8016  142.8958 C   0  0  0  0  0  0  0  0  0  0  0  0
  159.3987  167.1414  141.6013 C   0  0  0  0  0  0  0  0  0  0  0  0
  160.4518  167.4437  140.6153 N   0  0  0  0  0  0  0  0  0  0  0  0
  161.0630  168.6205  140.4794 C   0  0  0  0  0  0  0  0  0  0  0  0
  161.9999  168.5029  139.4795 C   0  0  0  0  0  0  0  0  0  0  0  0
  161.9518  167.2237  139.0007 C   0  0  0  0  0  0  0  0  0  0  0  0
  162.6295  166.5319  138.0207 C   0  0  0  0  0  0  0  0  0  0  0  0
  162.3430  165.1824  137.7444 C   0  0  0  0  0  0  0  0  0  0  0  0
  161.3562  164.5936  138.5016 C   0  0  0  0  0  0  0  0  0  0  0  0
  160.6584  165.2408  139.4857 C   0  0  0  0  0  0  0  0  0  0  0  0
  160.9582  166.5685  139.7390 C   0  0  0  0  0  0  0  0  0  0  0  0
  163.1159  164.5682  136.7538 N   0  0  0  0  0  0  0  0  0  0  0  0
  164.4340  164.2770  136.9792 C   0  0  0  0  0  0  0  0  0  0  0  0
  165.0889  164.4483  138.0420 O   0  0  0  0  0  0  0  0  0  0  0  0
  164.9305  163.7665  135.8579 N   0  0  0  0  0  0  0  0  0  0  0  0
  163.9844  163.7299  134.9598 N   0  0  0  0  0  0  0  0  0  0  0  0
  162.8150  164.2380  135.5179 C   0  0  0  0  0  0  0  0  0  0  0  0
  161.5950  164.3812  134.7315 C   0  0  0  0  0  0  0  0  0  0  0  0
  160.8416  165.5626  134.8806 C   0  0  0  0  0  0  0  0  0  0  0  0
  159.7024  165.8187  134.1615 C   0  0  0  0  0  0  0  0  0  0  0  0
  158.9350  167.0656  134.3599 C   0  0  0  0  0  0  0  0  0  0  0  0
  159.2417  167.6176  135.7470 C   0  0  0  0  0  0  0  0  0  0  0  0
  157.4464  166.8961  134.2439 C   0  0  0  0  0  0  0  0  0  0  0  0
  159.2604  164.8963  133.2506 C   0  0  0  0  0  0  0  0  0  0  0  0
  158.1077  165.0976  132.4882 O   0  0  0  0  0  0  0  0  0  0  0  0
  159.9577  163.7341  133.0677 C   0  0  0  0  0  0  0  0  0  0  0  0
  161.1259  163.4965  133.8201 C   0  0  0  0  0  0  0  0  0  0  0  0
  161.8000  162.2969  133.5841 O   0  0  0  0  0  0  0  0  0  0  0  0
  157.6654  166.6483  143.3417 C   0  0  0  0  0  0  0  0  0  0  0  0
  156.2725  167.1576  143.6479 C   0  0  0  0  0  0  0  0  0  0  0  0
  154.4177  166.2355  149.0712 C   0  0  0  0  0  0  0  0  0  0  0  0
  154.6946  166.0894  150.4113 C   0  0  0  0  0  0  0  0  0  0  0  0
  1  2  1  0
  2  3  1  0
  3  4  2  0
  4  5  1  0
  5  6  1  0
  6  7  1  0
  7  8  2  0
  8  9  1  0
  9 10  2  0
 10 11  1  0
 11 12  1  0
 12 13  1  0
 13 14  2  0
 13 15  1  0
 15 16  1  1
 15 17  1  0
 17 18  1  0
 10 19  1  0
 19 20  2  0
  7 21  1  0
 21 22  2  0
 22 23  1  0
 23 24  2  0
 24 25  1  0
 25 26  2  0
 26 27  1  0
 27 28  1  0
 28 29  2  0
 28 30  1  0
 30 31  1  0
 31 32  1  0
 32 33  1  0
 33 34  1  0
 34 35  1  0
 35 36  1  0
 36 37  1  0
 37 38  2  0
 38 39  1  0
 39 40  2  0
 40 41  1  0
 41 42  2  0
 42 43  1  0
 43 44  2  0
 41 45  1  0
 45 46  1  0
 46 47  2  0
 46 48  1  0
 48 49  1  0
 49 50  2  0
 50 51  1  0
 51 52  2  0
 52 53  1  0
 53 54  1  0
 54 55  1  0
 54 56  1  0
 53 57  2  0
 57 58  1  0
 57 59  1  0
 59 60  2  0
 60 61  1  0
 33 62  1  0
 62 63  1  0
 26 64  1  0
 64 65  2  0
 65  3  1  0
 21  4  1  0
 65 23  1  0
 19  6  1  0
 63 30  1  0
 15  9  1  0
 44 36  1  0
 50 45  1  0
 60 51  1  0
 44 39  1  0
M  END
$$$$
