
     RDKit          3D

 65 74  0  0  0  0  0  0  0  0999 V2000
  147.3052  163.1817  139.6282 C   0  0  0  0  0  0  0  0  0  0  0  0
  148.0074  162.0141  139.0028 C   0  0  0  0  0  0  0  0  0  0  0  0
  148.6271  162.3199  137.7095 C   0  0  0  0  0  0  0  0  0  0  0  0
  147.8677  162.4684  136.5469 C   0  0  0  0  0  0  0  0  0  0  0  0
  146.4090  162.3711  136.3367 C   0  0  0  0  0  0  0  0  0  0  0  0
  146.2323  162.6440  134.9227 N   0  0  0  0  0  0  0  0  0  0  0  0
  147.4067  162.8613  134.3207 C   0  0  0  0  0  0  0  0  0  0  0  0
  147.4503  163.1422  132.9498 C   0  0  0  0  0  0  0  0  0  0  0  0
  146.3014  163.1992  132.2086 C   0  0  0  0  0  0  0  0  0  0  0  0
  145.0994  162.9730  132.8427 C   0  0  0  0  0  0  0  0  0  0  0  0
  143.8159  163.0282  132.0600 C   0  0  0  0  0  0  0  0  0  0  0  0
  144.0486  162.5195  130.7758 O   0  0  0  0  0  0  0  0  0  0  0  0
  145.2866  162.5622  130.1558 C   0  0  0  0  0  0  0  0  0  0  0  0
  145.6075  161.8887  129.1528 O   0  0  0  0  0  0  0  0  0  0  0  0
  146.2910  163.4955  130.7591 C   0  0  1  0  0  0  0  0  0  0  0  0
  145.7978  164.7856  130.5466 O   0  0  0  0  0  0  0  0  0  0  0  0
  147.6531  163.3062  130.1682 C   0  0  0  0  0  0  0  0  0  0  0  0
  147.8267  161.8829  129.6789 C   0  0  0  0  0  0  0  0  0  0  0  0
  145.1018  162.7008  134.1875 C   0  0  0  0  0  0  0  0  0  0  0  0
  143.9830  162.4960  134.7494 O   0  0  0  0  0  0  0  0  0  0  0  0
  148.4585  162.7540  135.3370 C   0  0  0  0  0  0  0  0  0  0  0  0
  149.7815  162.8989  135.2296 N   0  0  0  0  0  0  0  0  0  0  0  0
  150.5554  162.7624  136.3340 C   0  0  0  0  0  0  0  0  0  0  0  0
  151.9251  162.9179  136.2028 C   0  0  0  0  0  0  0  0  0  0  0  0
  152.7556  162.7869  137.3125 C   0  0  0  0  0  0  0  0  0  0  0  0
  152.2285  162.5017  138.5519 C   0  0  0  0  0  0  0  0  0  0  0  0
  153.0872  162.3806  139.6296 O   0  0  0  0  0  0  0  0  0  0  0  0
  153.6884  161.1599  139.9000 C   0  0  0  0  0  0  0  0  0  0  0  0
  153.0550  160.3744  140.6484 O   0  0  0  0  0  0  0  0  0  0  0  0
  154.9648  160.8142  139.3530 N   0  0  0  0  0  0  0  0  0  0  0  0
  156.1454  161.5418  139.6843 C   0  0  0  0  0  0  0  0  0  0  0  0
  157.3415  160.6302  139.5961 C   0  0  0  0  0  0  0  0  0  0  0  0
  157.0412  159.1928  139.9342 C   0  0  0  0  0  0  0  0  0  0  0  0
  158.2312  158.3515  139.5409 C   0  0  0  0  0  0  0  0  0  0  0  0
  157.8960  156.9049  139.3922 C   0  0  0  0  0  0  0  0  0  0  0  0
  159.1055  156.1699  138.9803 N   0  0  0  0  0  0  0  0  0  0  0  0
  160.3327  156.6857  138.9118 C   0  0  0  0  0  0  0  0  0  0  0  0
  161.1945  155.6886  138.5188 C   0  0  0  0  0  0  0  0  0  0  0  0
  160.4685  154.5436  138.3458 C   0  0  0  0  0  0  0  0  0  0  0  0
  160.7716  153.2548  137.9647 C   0  0  0  0  0  0  0  0  0  0  0  0
  159.7759  152.2655  137.8676 C   0  0  0  0  0  0  0  0  0  0  0  0
  158.4907  152.6517  138.1727 C   0  0  0  0  0  0  0  0  0  0  0  0
  158.1436  153.9190  138.5568 C   0  0  0  0  0  0  0  0  0  0  0  0
  159.1410  154.8751  138.6450 C   0  0  0  0  0  0  0  0  0  0  0  0
  160.2006  150.9828  137.5066 N   0  0  0  0  0  0  0  0  0  0  0  0
  160.3571  150.6458  136.1895 C   0  0  0  0  0  0  0  0  0  0  0  0
  160.2117  151.3893  135.1825 O   0  0  0  0  0  0  0  0  0  0  0  0
  160.6990  149.3631  136.1404 N   0  0  0  0  0  0  0  0  0  0  0  0
  160.7604  148.8995  137.3588 N   0  0  0  0  0  0  0  0  0  0  0  0
  160.4458  149.9246  138.2462 C   0  0  0  0  0  0  0  0  0  0  0  0
  160.3717  149.6917  139.6840 C   0  0  0  0  0  0  0  0  0  0  0  0
  161.5335  149.9016  140.4533 C   0  0  0  0  0  0  0  0  0  0  0  0
  161.5650  149.7522  141.8160 C   0  0  0  0  0  0  0  0  0  0  0  0
  162.8096  149.9691  142.5822 C   0  0  0  0  0  0  0  0  0  0  0  0
  163.8952  149.0542  142.0280 C   0  0  0  0  0  0  0  0  0  0  0  0
  162.6796  149.7000  144.0548 C   0  0  0  0  0  0  0  0  0  0  0  0
  160.4246  149.3833  142.4788 C   0  0  0  0  0  0  0  0  0  0  0  0
  160.3918  149.2141  143.8648 O   0  0  0  0  0  0  0  0  0  0  0  0
  159.2702  149.1693  141.7773 C   0  0  0  0  0  0  0  0  0  0  0  0
  159.2659  149.3304  140.3768 C   0  0  0  0  0  0  0  0  0  0  0  0
  158.0566  149.1066  139.7158 O   0  0  0  0  0  0  0  0  0  0  0  0
  155.8630  158.6262  139.1630 C   0  0  0  0  0  0  0  0  0  0  0  0
  155.0737  159.6969  138.4391 C   0  0  0  0  0  0  0  0  0  0  0  0
  150.8517  162.3540  138.6385 C   0  0  0  0  0  0  0  0  0  0  0  0
  149.9896  162.4743  137.5727 C   0  0  0  0  0  0  0  0  0  0  0  0
  1  2  1  0
  2  3  1  0
  3  4  2  0
  4  5  1  0
  5  6  1  0
  6  7  1  0
  7  8  2  0
  8  9  1  0
  9 10  2  0
 10 11  1  0
 11 12  1  0
 12 13  1  0
 13 14  2  0
 13 15  1  0
 15 16  1  1
 15 17  1  0
 17 18  1  0
 10 19  1  0
 19 20  2  0
  7 21  1  0
 21 22  2  0
 22 23  1  0
 23 24  2  0
 24 25  1  0
 25 26  2  0
 26 27  1  0
 27 28  1  0
 28 29  2  0
 28 30  1  0
 30 31  1  0
 31 32  1  0
 32 33  1  0
 33 34  1  0
 34 35  1  0
 35 36  1  0
 36 37  1  0
 37 38  2  0
 38 39  1  0
 39 40  2  0
 40 41  1  0
 41 42  2  0
 42 43  1  0
 43 44  2  0
 41 45  1  0
 45 46  1  0
 46 47  2  0
 46 48  1  0
 48 49  1  0
 49 50  2  0
 50 51  1  0
 51 52  2  0
 52 53  1  0
 53 54  1  0
 54 55  1  0
 54 56  1  0
 53 57  2  0
 57 58  1  0
 57 59  1  0
 59 60  2  0
 60 61  1  0
 33 62  1  0
 62 63  1  0
 26 64  1  0
 64 65  2  0
 65  3  1  0
 21  4  1  0
 65 23  1  0
 19  6  1  0
 63 30  1  0
 15  9  1  0
 44 36  1  0
 50 45  1  0
 60 51  1  0
 44 39  1  0
M  END
$$$$
