
     RDKit          3D

 65 74  0  0  0  0  0  0  0  0999 V2000
  195.2030  155.8432  119.6104 C   0  0  0  0  0  0  0  0  0  0  0  0
  193.9084  155.2976  120.1336 C   0  0  0  0  0  0  0  0  0  0  0  0
  192.7637  156.1906  119.9275 C   0  0  0  0  0  0  0  0  0  0  0  0
  192.6432  156.9793  118.7813 C   0  0  0  0  0  0  0  0  0  0  0  0
  193.5316  157.1062  117.6082 C   0  0  0  0  0  0  0  0  0  0  0  0
  192.8563  158.0612  116.7496 N   0  0  0  0  0  0  0  0  0  0  0  0
  191.7186  158.4924  117.3052 C   0  0  0  0  0  0  0  0  0  0  0  0
  190.9183  159.4231  116.6318 C   0  0  0  0  0  0  0  0  0  0  0  0
  191.2834  159.9032  115.4035 C   0  0  0  0  0  0  0  0  0  0  0  0
  192.4579  159.4498  114.8441 C   0  0  0  0  0  0  0  0  0  0  0  0
  192.8906  159.9550  113.4948 C   0  0  0  0  0  0  0  0  0  0  0  0
  192.5208  161.3009  113.3774 O   0  0  0  0  0  0  0  0  0  0  0  0
  191.4487  161.8551  114.0573 C   0  0  0  0  0  0  0  0  0  0  0  0
  191.2514  163.0807  114.2039 O   0  0  0  0  0  0  0  0  0  0  0  0
  190.4731  160.8839  114.6480 C   0  0  1  0  0  0  0  0  0  0  0  0
  189.8551  160.2495  113.5669 O   0  0  0  0  0  0  0  0  0  0  0  0
  189.4859  161.5617  115.5458 C   0  0  0  0  0  0  0  0  0  0  0  0
  190.1899  162.5313  116.4731 C   0  0  0  0  0  0  0  0  0  0  0  0
  193.2124  158.5378  115.5382 C   0  0  0  0  0  0  0  0  0  0  0  0
  194.2898  158.1350  115.0029 O   0  0  0  0  0  0  0  0  0  0  0  0
  191.5658  157.8159  118.5974 C   0  0  0  0  0  0  0  0  0  0  0  0
  190.5949  157.9051  119.5097 N   0  0  0  0  0  0  0  0  0  0  0  0
  190.6734  157.1567  120.6370 C   0  0  0  0  0  0  0  0  0  0  0  0
  189.6561  157.2618  121.5706 C   0  0  0  0  0  0  0  0  0  0  0  0
  189.6979  156.5098  122.7415 C   0  0  0  0  0  0  0  0  0  0  0  0
  190.7478  155.6538  122.9870 C   0  0  0  0  0  0  0  0  0  0  0  0
  190.7516  154.9233  124.1617 O   0  0  0  0  0  0  0  0  0  0  0  0
  189.5630  154.4091  124.6591 C   0  0  0  0  0  0  0  0  0  0  0  0
  189.2669  153.2389  124.3108 O   0  0  0  0  0  0  0  0  0  0  0  0
  188.7185  155.1736  125.5253 N   0  0  0  0  0  0  0  0  0  0  0  0
  187.3586  154.8132  125.7575 C   0  0  0  0  0  0  0  0  0  0  0  0
  186.9431  155.2696  127.1318 C   0  0  0  0  0  0  0  0  0  0  0  0
  188.0627  155.2702  128.1404 C   0  0  0  0  0  0  0  0  0  0  0  0
  187.5926  156.0013  129.3746 C   0  0  0  0  0  0  0  0  0  0  0  0
  188.6707  156.1773  130.3913 C   0  0  0  0  0  0  0  0  0  0  0  0
  188.0932  156.7792  131.6066 N   0  0  0  0  0  0  0  0  0  0  0  0
  187.4891  156.1059  132.5856 C   0  0  0  0  0  0  0  0  0  0  0  0
  187.1131  157.0060  133.5550 C   0  0  0  0  0  0  0  0  0  0  0  0
  187.5001  158.2527  133.1500 C   0  0  0  0  0  0  0  0  0  0  0  0
  187.3968  159.5185  133.6843 C   0  0  0  0  0  0  0  0  0  0  0  0
  187.9002  160.6438  133.0063 C   0  0  0  0  0  0  0  0  0  0  0  0
  188.4984  160.4139  131.7885 C   0  0  0  0  0  0  0  0  0  0  0  0
  188.6246  159.1750  131.2200 C   0  0  0  0  0  0  0  0  0  0  0  0
  188.1214  158.0829  131.9063 C   0  0  0  0  0  0  0  0  0  0  0  0
  187.7733  161.8754  133.6567 N   0  0  0  0  0  0  0  0  0  0  0  0
  186.5370  162.3915  133.9363 C   0  0  0  0  0  0  0  0  0  0  0  0
  185.4149  161.8594  133.7227 O   0  0  0  0  0  0  0  0  0  0  0  0
  186.7155  163.5863  134.4887 N   0  0  0  0  0  0  0  0  0  0  0  0
  187.9962  163.8264  134.5620 N   0  0  0  0  0  0  0  0  0  0  0  0
  188.6881  162.7398  134.0351 C   0  0  0  0  0  0  0  0  0  0  0  0
  190.1424  162.7433  133.9249 C   0  0  0  0  0  0  0  0  0  0  0  0
  190.7148  163.0673  132.6787 C   0  0  0  0  0  0  0  0  0  0  0  0
  192.0689  163.1404  132.4743 C   0  0  0  0  0  0  0  0  0  0  0  0
  192.6268  163.4702  131.1465 C   0  0  0  0  0  0  0  0  0  0  0  0
  193.0458  164.9355  131.1382 C   0  0  0  0  0  0  0  0  0  0  0  0
  191.6719  163.2516  130.0071 C   0  0  0  0  0  0  0  0  0  0  0  0
  192.9210  162.8915  133.5173 C   0  0  0  0  0  0  0  0  0  0  0  0
  194.3090  162.9493  133.3734 O   0  0  0  0  0  0  0  0  0  0  0  0
  192.4146  162.5745  134.7475 C   0  0  0  0  0  0  0  0  0  0  0  0
  191.0184  162.5065  134.9299 C   0  0  0  0  0  0  0  0  0  0  0  0
  190.5601  162.1868  136.2093 O   0  0  0  0  0  0  0  0  0  0  0  0
  189.2990  156.0129  127.6675 C   0  0  0  0  0  0  0  0  0  0  0  0
  189.2476  156.3451  126.1908 C   0  0  0  0  0  0  0  0  0  0  0  0
  191.7453  155.5791  122.0256 C   0  0  0  0  0  0  0  0  0  0  0  0
  191.7493  156.3004  120.8536 C   0  0  0  0  0  0  0  0  0  0  0  0
  1  2  1  0
  2  3  1  0
  3  4  2  0
  4  5  1  0
  5  6  1  0
  6  7  1  0
  7  8  2  0
  8  9  1  0
  9 10  2  0
 10 11  1  0
 11 12  1  0
 12 13  1  0
 13 14  2  0
 13 15  1  0
 15 16  1  6
 15 17  1  0
 17 18  1  0
 10 19  1  0
 19 20  2  0
  7 21  1  0
 21 22  2  0
 22 23  1  0
 23 24  2  0
 24 25  1  0
 25 26  2  0
 26 27  1  0
 27 28  1  0
 28 29  2  0
 28 30  1  0
 30 31  1  0
 31 32  1  0
 32 33  1  0
 33 34  1  0
 34 35  1  0
 35 36  1  0
 36 37  1  0
 37 38  2  0
 38 39  1  0
 39 40  2  0
 40 41  1  0
 41 42  2  0
 42 43  1  0
 43 44  2  0
 41 45  1  0
 45 46  1  0
 46 47  2  0
 46 48  1  0
 48 49  1  0
 49 50  2  0
 50 51  1  0
 51 52  2  0
 52 53  1  0
 53 54  1  0
 54 55  1  0
 54 56  1  0
 53 57  2  0
 57 58  1  0
 57 59  1  0
 59 60  2  0
 60 61  1  0
 33 62  1  0
 62 63  1  0
 26 64  1  0
 64 65  2  0
 65  3  1  0
 21  4  1  0
 65 23  1  0
 19  6  1  0
 63 30  1  0
 15  9  1  0
 44 36  1  0
 50 45  1  0
 60 51  1  0
 44 39  1  0
M  END
$$$$
