
     RDKit          3D

 65 74  0  0  0  0  0  0  0  0999 V2000
  126.3348  143.0014  126.5475 C   0  0  0  0  0  0  0  0  0  0  0  0
  125.6627  143.2349  127.8670 C   0  0  0  0  0  0  0  0  0  0  0  0
  126.5560  143.0867  129.0204 C   0  0  0  0  0  0  0  0  0  0  0  0
  126.9054  144.1737  129.8246 C   0  0  0  0  0  0  0  0  0  0  0  0
  126.5114  145.5946  129.7385 C   0  0  0  0  0  0  0  0  0  0  0  0
  127.1805  146.2202  130.8636 N   0  0  0  0  0  0  0  0  0  0  0  0
  127.9081  145.3320  131.5496 C   0  0  0  0  0  0  0  0  0  0  0  0
  128.6336  145.7401  132.6754 C   0  0  0  0  0  0  0  0  0  0  0  0
  128.6105  147.0440  133.0898 C   0  0  0  0  0  0  0  0  0  0  0  0
  127.8566  147.9473  132.3730 C   0  0  0  0  0  0  0  0  0  0  0  0
  127.8068  149.3889  132.7996 C   0  0  0  0  0  0  0  0  0  0  0  0
  129.0614  149.7533  133.3050 O   0  0  0  0  0  0  0  0  0  0  0  0
  129.9390  148.8493  133.8807 C   0  0  0  0  0  0  0  0  0  0  0  0
  131.1532  149.0635  134.0863 O   0  0  0  0  0  0  0  0  0  0  0  0
  129.3551  147.5270  134.2736 C   0  0  1  0  0  0  0  0  0  0  0  0
  128.4616  147.7918  135.3150 O   0  0  0  0  0  0  0  0  0  0  0  0
  130.4135  146.5466  134.6720 C   0  0  0  0  0  0  0  0  0  0  0  0
  131.6386  146.7016  133.7941 C   0  0  0  0  0  0  0  0  0  0  0  0
  127.1610  147.5052  131.2760 C   0  0  0  0  0  0  0  0  0  0  0  0
  126.4740  148.3552  130.6319 O   0  0  0  0  0  0  0  0  0  0  0  0
  127.7459  144.0251  130.9043 C   0  0  0  0  0  0  0  0  0  0  0  0
  128.2599  142.8346  131.2228 N   0  0  0  0  0  0  0  0  0  0  0  0
  127.9464  141.7534  130.4679 C   0  0  0  0  0  0  0  0  0  0  0  0
  128.4879  140.5271  130.8151 C   0  0  0  0  0  0  0  0  0  0  0  0
  128.1905  139.3916  130.0665 C   0  0  0  0  0  0  0  0  0  0  0  0
  127.3564  139.4715  128.9742 C   0  0  0  0  0  0  0  0  0  0  0  0
  127.0848  138.3200  128.2573 O   0  0  0  0  0  0  0  0  0  0  0  0
  126.1463  137.4156  128.7328 C   0  0  0  0  0  0  0  0  0  0  0  0
  125.2320  137.0836  127.9378 O   0  0  0  0  0  0  0  0  0  0  0  0
  126.2178  136.8882  130.0612 N   0  0  0  0  0  0  0  0  0  0  0  0
  125.4295  135.7724  130.4691 C   0  0  0  0  0  0  0  0  0  0  0  0
  126.1514  135.0132  131.5517 C   0  0  0  0  0  0  0  0  0  0  0  0
  127.6530  135.0653  131.4379 C   0  0  0  0  0  0  0  0  0  0  0  0
  128.2474  134.5178  132.7129 C   0  0  0  0  0  0  0  0  0  0  0  0
  129.2869  135.4131  133.3003 C   0  0  0  0  0  0  0  0  0  0  0  0
  130.6215  134.9162  132.9200 N   0  0  0  0  0  0  0  0  0  0  0  0
  130.9473  134.4253  131.7243 C   0  0  0  0  0  0  0  0  0  0  0  0
  132.2823  134.0959  131.7465 C   0  0  0  0  0  0  0  0  0  0  0  0
  132.7731  134.3953  132.9864 C   0  0  0  0  0  0  0  0  0  0  0  0
  134.0064  134.2854  133.5906 C   0  0  0  0  0  0  0  0  0  0  0  0
  134.2070  134.6827  134.9253 C   0  0  0  0  0  0  0  0  0  0  0  0
  133.1121  135.1847  135.5908 C   0  0  0  0  0  0  0  0  0  0  0  0
  131.8695  135.3135  135.0310 C   0  0  0  0  0  0  0  0  0  0  0  0
  131.6969  134.9157  133.7162 C   0  0  0  0  0  0  0  0  0  0  0  0
  135.5070  134.5605  135.4265 N   0  0  0  0  0  0  0  0  0  0  0  0
  136.2249  135.6709  135.7792 C   0  0  0  0  0  0  0  0  0  0  0  0
  135.8421  136.8714  135.7643 O   0  0  0  0  0  0  0  0  0  0  0  0
  137.4335  135.2664  136.1533 N   0  0  0  0  0  0  0  0  0  0  0  0
  137.4910  133.9668  136.0484 N   0  0  0  0  0  0  0  0  0  0  0  0
  136.2646  133.4986  135.5859 C   0  0  0  0  0  0  0  0  0  0  0  0
  136.0443  132.0835  135.3099 C   0  0  0  0  0  0  0  0  0  0  0  0
  136.7878  131.1383  136.0443 C   0  0  0  0  0  0  0  0  0  0  0  0
  136.6310  129.7842  135.8948 C   0  0  0  0  0  0  0  0  0  0  0  0
  137.4423  128.8279  136.6761 C   0  0  0  0  0  0  0  0  0  0  0  0
  137.1417  129.0217  138.1576 C   0  0  0  0  0  0  0  0  0  0  0  0
  138.9246  128.9740  136.4779 C   0  0  0  0  0  0  0  0  0  0  0  0
  135.7136  129.3085  134.9960 C   0  0  0  0  0  0  0  0  0  0  0  0
  135.5073  127.9416  134.7972 O   0  0  0  0  0  0  0  0  0  0  0  0
  134.9656  130.1856  134.2600 C   0  0  0  0  0  0  0  0  0  0  0  0
  135.1470  131.5727  134.4339 C   0  0  0  0  0  0  0  0  0  0  0  0
  134.3493  132.4190  133.6614 O   0  0  0  0  0  0  0  0  0  0  0  0
  128.1981  136.4753  131.3015 C   0  0  0  0  0  0  0  0  0  0  0  0
  127.1118  137.4937  131.0253 C   0  0  0  0  0  0  0  0  0  0  0  0
  126.8358  140.7190  128.6617 C   0  0  0  0  0  0  0  0  0  0  0  0
  127.0990  141.8693  129.3697 C   0  0  0  0  0  0  0  0  0  0  0  0
  1  2  1  0
  2  3  1  0
  3  4  2  0
  4  5  1  0
  5  6  1  0
  6  7  1  0
  7  8  2  0
  8  9  1  0
  9 10  2  0
 10 11  1  0
 11 12  1  0
 12 13  1  0
 13 14  2  0
 13 15  1  0
 15 16  1  1
 15 17  1  0
 17 18  1  0
 10 19  1  0
 19 20  2  0
  7 21  1  0
 21 22  2  0
 22 23  1  0
 23 24  2  0
 24 25  1  0
 25 26  2  0
 26 27  1  0
 27 28  1  0
 28 29  2  0
 28 30  1  0
 30 31  1  0
 31 32  1  0
 32 33  1  0
 33 34  1  0
 34 35  1  0
 35 36  1  0
 36 37  1  0
 37 38  2  0
 38 39  1  0
 39 40  2  0
 40 41  1  0
 41 42  2  0
 42 43  1  0
 43 44  2  0
 41 45  1  0
 45 46  1  0
 46 47  2  0
 46 48  1  0
 48 49  1  0
 49 50  2  0
 50 51  1  0
 51 52  2  0
 52 53  1  0
 53 54  1  0
 54 55  1  0
 54 56  1  0
 53 57  2  0
 57 58  1  0
 57 59  1  0
 59 60  2  0
 60 61  1  0
 33 62  1  0
 62 63  1  0
 26 64  1  0
 64 65  2  0
 65  3  1  0
 21  4  1  0
 65 23  1  0
 19  6  1  0
 63 30  1  0
 15  9  1  0
 44 36  1  0
 50 45  1  0
 60 51  1  0
 44 39  1  0
M  END
$$$$
