
     RDKit          3D

 65 74  0  0  0  0  0  0  0  0999 V2000
  205.9921  130.3276  131.5648 C   0  0  0  0  0  0  0  0  0  0  0  0
  206.1541  130.2281  133.0518 C   0  0  0  0  0  0  0  0  0  0  0  0
  207.5122  130.5229  133.5199 C   0  0  0  0  0  0  0  0  0  0  0  0
  208.5449  129.5886  133.4163 C   0  0  0  0  0  0  0  0  0  0  0  0
  208.5441  128.2167  132.8690 C   0  0  0  0  0  0  0  0  0  0  0  0
  209.9154  127.7688  133.0238 N   0  0  0  0  0  0  0  0  0  0  0  0
  210.6698  128.7094  133.6028 C   0  0  0  0  0  0  0  0  0  0  0  0
  212.0283  128.4693  133.8420 C   0  0  0  0  0  0  0  0  0  0  0  0
  212.6027  127.2784  133.4899 C   0  0  0  0  0  0  0  0  0  0  0  0
  211.8128  126.3194  132.8944 C   0  0  0  0  0  0  0  0  0  0  0  0
  212.4102  124.9984  132.4931 C   0  0  0  0  0  0  0  0  0  0  0  0
  213.3778  124.6352  133.4386 O   0  0  0  0  0  0  0  0  0  0  0  0
  214.0815  125.5568  134.1964 C   0  0  0  0  0  0  0  0  0  0  0  0
  214.7353  125.2852  135.2265 O   0  0  0  0  0  0  0  0  0  0  0  0
  214.0329  126.9749  133.7164 C   0  0  1  0  0  0  0  0  0  0  0  0
  214.7165  126.9952  132.4976 O   0  0  0  0  0  0  0  0  0  0  0  0
  214.6255  127.9214  134.7131 C   0  0  0  0  0  0  0  0  0  0  0  0
  216.0891  127.6036  134.9422 C   0  0  0  0  0  0  0  0  0  0  0  0
  210.4863  126.5956  132.6786 C   0  0  0  0  0  0  0  0  0  0  0  0
  209.7790  125.6972  132.1289 O   0  0  0  0  0  0  0  0  0  0  0  0
  209.8162  129.8738  133.8600 C   0  0  0  0  0  0  0  0  0  0  0  0
  210.1095  131.0558  134.4074 N   0  0  0  0  0  0  0  0  0  0  0  0
  209.1357  131.9911  134.5271 C   0  0  0  0  0  0  0  0  0  0  0  0
  209.4597  133.2114  135.0959 C   0  0  0  0  0  0  0  0  0  0  0  0
  208.4892  134.1997  135.2364 C   0  0  0  0  0  0  0  0  0  0  0  0
  207.1981  133.9786  134.8131 C   0  0  0  0  0  0  0  0  0  0  0  0
  206.2635  134.9864  134.9694 O   0  0  0  0  0  0  0  0  0  0  0  0
  205.9395  135.8008  133.8940 C   0  0  0  0  0  0  0  0  0  0  0  0
  206.8136  136.6266  133.5303 O   0  0  0  0  0  0  0  0  0  0  0  0
  204.6739  135.7035  133.2332 N   0  0  0  0  0  0  0  0  0  0  0  0
  203.5804  134.9908  133.8071 C   0  0  0  0  0  0  0  0  0  0  0  0
  202.2825  135.5988  133.3431 C   0  0  0  0  0  0  0  0  0  0  0  0
  202.3592  137.0815  133.0857 C   0  0  0  0  0  0  0  0  0  0  0  0
  201.1002  137.5073  132.3699 C   0  0  0  0  0  0  0  0  0  0  0  0
  201.0446  138.9771  132.1173 C   0  0  0  0  0  0  0  0  0  0  0  0
  199.7598  139.3072  131.4748 N   0  0  0  0  0  0  0  0  0  0  0  0
  198.9370  138.4274  130.9042 C   0  0  0  0  0  0  0  0  0  0  0  0
  197.8340  139.1086  130.4450 C   0  0  0  0  0  0  0  0  0  0  0  0
  197.9964  140.4318  130.7461 C   0  0  0  0  0  0  0  0  0  0  0  0
  197.2471  141.5695  130.5398 C   0  0  0  0  0  0  0  0  0  0  0  0
  197.6960  142.8312  130.9710 C   0  0  0  0  0  0  0  0  0  0  0  0
  198.9159  142.8679  131.6068 C   0  0  0  0  0  0  0  0  0  0  0  0
  199.6932  141.7643  131.8347 C   0  0  0  0  0  0  0  0  0  0  0  0
  199.2303  140.5338  131.4011 C   0  0  0  0  0  0  0  0  0  0  0  0
  196.8394  143.9127  130.7415 N   0  0  0  0  0  0  0  0  0  0  0  0
  196.0376  144.3909  131.7422 C   0  0  0  0  0  0  0  0  0  0  0  0
  195.9893  144.0042  132.9405 O   0  0  0  0  0  0  0  0  0  0  0  0
  195.2913  145.3630  131.2297 N   0  0  0  0  0  0  0  0  0  0  0  0
  195.5961  145.5041  129.9686 N   0  0  0  0  0  0  0  0  0  0  0  0
  196.5875  144.5840  129.6402 C   0  0  0  0  0  0  0  0  0  0  0  0
  197.0916  144.4612  128.2771 C   0  0  0  0  0  0  0  0  0  0  0  0
  196.4848  143.5166  127.4255 C   0  0  0  0  0  0  0  0  0  0  0  0
  196.8518  143.3469  126.1151 C   0  0  0  0  0  0  0  0  0  0  0  0
  196.1977  142.3340  125.2611 C   0  0  0  0  0  0  0  0  0  0  0  0
  194.7649  142.7737  124.9843 C   0  0  0  0  0  0  0  0  0  0  0  0
  196.1553  140.9576  125.8626 C   0  0  0  0  0  0  0  0  0  0  0  0
  197.8516  144.1223  125.5908 C   0  0  0  0  0  0  0  0  0  0  0  0
  198.2714  143.9975  124.2645 O   0  0  0  0  0  0  0  0  0  0  0  0
  198.4708  145.0550  126.3763 C   0  0  0  0  0  0  0  0  0  0  0  0
  198.0735  145.2088  127.7201 C   0  0  0  0  0  0  0  0  0  0  0  0
  198.7357  146.1823  128.4704 O   0  0  0  0  0  0  0  0  0  0  0  0
  203.5058  137.4757  132.1725 C   0  0  0  0  0  0  0  0  0  0  0  0
  204.4855  136.3428  131.9483 C   0  0  0  0  0  0  0  0  0  0  0  0
  206.9168  132.7426  134.2491 C   0  0  0  0  0  0  0  0  0  0  0  0
  207.8399  131.7348  134.0880 C   0  0  0  0  0  0  0  0  0  0  0  0
  1  2  1  0
  2  3  1  0
  3  4  2  0
  4  5  1  0
  5  6  1  0
  6  7  1  0
  7  8  2  0
  8  9  1  0
  9 10  2  0
 10 11  1  0
 11 12  1  0
 12 13  1  0
 13 14  2  0
 13 15  1  0
 15 16  1  6
 15 17  1  0
 17 18  1  0
 10 19  1  0
 19 20  2  0
  7 21  1  0
 21 22  2  0
 22 23  1  0
 23 24  2  0
 24 25  1  0
 25 26  2  0
 26 27  1  0
 27 28  1  0
 28 29  2  0
 28 30  1  0
 30 31  1  0
 31 32  1  0
 32 33  1  0
 33 34  1  0
 34 35  1  0
 35 36  1  0
 36 37  1  0
 37 38  2  0
 38 39  1  0
 39 40  2  0
 40 41  1  0
 41 42  2  0
 42 43  1  0
 43 44  2  0
 41 45  1  0
 45 46  1  0
 46 47  2  0
 46 48  1  0
 48 49  1  0
 49 50  2  0
 50 51  1  0
 51 52  2  0
 52 53  1  0
 53 54  1  0
 54 55  1  0
 54 56  1  0
 53 57  2  0
 57 58  1  0
 57 59  1  0
 59 60  2  0
 60 61  1  0
 33 62  1  0
 62 63  1  0
 26 64  1  0
 64 65  2  0
 65  3  1  0
 21  4  1  0
 65 23  1  0
 19  6  1  0
 63 30  1  0
 15  9  1  0
 44 36  1  0
 50 45  1  0
 60 51  1  0
 44 39  1  0
M  END
$$$$
