
     RDKit          3D

 65 74  0  0  0  0  0  0  0  0999 V2000
  178.5452  157.1615  135.5985 C   0  0  0  0  0  0  0  0  0  0  0  0
  179.3893  158.0657  136.4454 C   0  0  0  0  0  0  0  0  0  0  0  0
  180.8106  158.0576  136.0847 C   0  0  0  0  0  0  0  0  0  0  0  0
  181.3321  157.1402  135.1700 C   0  0  0  0  0  0  0  0  0  0  0  0
  180.6673  156.0624  134.4097 C   0  0  0  0  0  0  0  0  0  0  0  0
  181.7310  155.4757  133.6162 N   0  0  0  0  0  0  0  0  0  0  0  0
  182.9012  156.0782  133.8536 C   0  0  0  0  0  0  0  0  0  0  0  0
  184.0559  155.6554  133.1841 C   0  0  0  0  0  0  0  0  0  0  0  0
  184.0070  154.6273  132.2824 C   0  0  0  0  0  0  0  0  0  0  0  0
  182.7944  154.0166  132.0485 C   0  0  0  0  0  0  0  0  0  0  0  0
  182.7025  152.8834  131.0633 C   0  0  0  0  0  0  0  0  0  0  0  0
  183.8776  152.1247  131.1377 O   0  0  0  0  0  0  0  0  0  0  0  0
  185.0954  152.6495  131.5384 C   0  0  0  0  0  0  0  0  0  0  0  0
  186.0870  151.9717  131.8844 O   0  0  0  0  0  0  0  0  0  0  0  0
  185.1955  154.1441  131.5455 C   0  0  1  0  0  0  0  0  0  0  0  0
  185.1145  154.5443  130.2089 O   0  0  0  0  0  0  0  0  0  0  0  0
  186.4555  154.6153  132.2017 C   0  0  0  0  0  0  0  0  0  0  0  0
  187.3360  153.4379  132.5676 C   0  0  0  0  0  0  0  0  0  0  0  0
  181.6877  154.4619  132.7263 C   0  0  0  0  0  0  0  0  0  0  0  0
  180.5824  153.8841  132.4943 O   0  0  0  0  0  0  0  0  0  0  0  0
  182.6680  157.1392  134.8388 C   0  0  0  0  0  0  0  0  0  0  0  0
  183.5164  158.0160  135.3813 N   0  0  0  0  0  0  0  0  0  0  0  0
  183.0512  158.9235  136.2742 C   0  0  0  0  0  0  0  0  0  0  0  0
  183.9461  159.8257  136.8246 C   0  0  0  0  0  0  0  0  0  0  0  0
  183.5090  160.7747  137.7447 C   0  0  0  0  0  0  0  0  0  0  0  0
  182.1854  160.8296  138.1190 C   0  0  0  0  0  0  0  0  0  0  0  0
  181.7910  161.7882  139.0351 O   0  0  0  0  0  0  0  0  0  0  0  0
  181.5745  163.0938  138.6188 C   0  0  0  0  0  0  0  0  0  0  0  0
  180.5394  163.3029  137.9384 O   0  0  0  0  0  0  0  0  0  0  0  0
  182.4846  164.1476  138.9490 N   0  0  0  0  0  0  0  0  0  0  0  0
  182.5735  165.3355  138.1654 C   0  0  0  0  0  0  0  0  0  0  0  0
  183.0016  166.4857  139.0392 C   0  0  0  0  0  0  0  0  0  0  0  0
  182.5303  166.3779  140.4664 C   0  0  0  0  0  0  0  0  0  0  0  0
  183.2482  167.4225  141.2861 C   0  0  0  0  0  0  0  0  0  0  0  0
  183.3238  167.0729  142.7349 C   0  0  0  0  0  0  0  0  0  0  0  0
  183.5271  168.3050  143.5179 N   0  0  0  0  0  0  0  0  0  0  0  0
  184.3305  169.3113  143.1734 C   0  0  0  0  0  0  0  0  0  0  0  0
  184.2301  170.2879  144.1364 C   0  0  0  0  0  0  0  0  0  0  0  0
  183.3445  169.8593  145.0851 C   0  0  0  0  0  0  0  0  0  0  0  0
  182.8537  170.3881  146.2589 C   0  0  0  0  0  0  0  0  0  0  0  0
  181.9280  169.6832  147.0500 C   0  0  0  0  0  0  0  0  0  0  0  0
  181.5407  168.4451  146.5909 C   0  0  0  0  0  0  0  0  0  0  0  0
  182.0003  167.8811  145.4312 C   0  0  0  0  0  0  0  0  0  0  0  0
  182.9106  168.5940  144.6698 C   0  0  0  0  0  0  0  0  0  0  0  0
  181.4693  170.3292  148.2025 N   0  0  0  0  0  0  0  0  0  0  0  0
  180.4881  171.2801  148.1245 C   0  0  0  0  0  0  0  0  0  0  0  0
  179.8565  171.6515  147.0992 O   0  0  0  0  0  0  0  0  0  0  0  0
  180.3013  171.7664  149.3463 N   0  0  0  0  0  0  0  0  0  0  0  0
  181.1163  171.1617  150.1667 N   0  0  0  0  0  0  0  0  0  0  0  0
  181.8703  170.2365  149.4505 C   0  0  0  0  0  0  0  0  0  0  0  0
  182.9160  169.4467  150.0909 C   0  0  0  0  0  0  0  0  0  0  0  0
  184.2520  169.6724  149.7040 C   0  0  0  0  0  0  0  0  0  0  0  0
  185.3151  169.0162  150.2695 C   0  0  0  0  0  0  0  0  0  0  0  0
  186.6999  169.2737  149.8233 C   0  0  0  0  0  0  0  0  0  0  0  0
  187.3318  170.3068  150.7487 C   0  0  0  0  0  0  0  0  0  0  0  0
  186.8068  169.7829  148.4137 C   0  0  0  0  0  0  0  0  0  0  0  0
  185.0888  168.0958  151.2582 C   0  0  0  0  0  0  0  0  0  0  0  0
  186.1282  167.3942  151.8729 O   0  0  0  0  0  0  0  0  0  0  0  0
  183.8096  167.8423  151.6703 C   0  0  0  0  0  0  0  0  0  0  0  0
  182.7352  168.5314  151.0722 C   0  0  0  0  0  0  0  0  0  0  0  0
  181.4531  168.2372  151.5399 O   0  0  0  0  0  0  0  0  0  0  0  0
  182.8652  165.0456  141.1121 C   0  0  0  0  0  0  0  0  0  0  0  0
  183.3419  164.0170  140.1080 C   0  0  0  0  0  0  0  0  0  0  0  0
  181.3232  159.9076  137.5434 C   0  0  0  0  0  0  0  0  0  0  0  0
  181.7059  158.9518  136.6303 C   0  0  0  0  0  0  0  0  0  0  0  0
  1  2  1  0
  2  3  1  0
  3  4  2  0
  4  5  1  0
  5  6  1  0
  6  7  1  0
  7  8  2  0
  8  9  1  0
  9 10  2  0
 10 11  1  0
 11 12  1  0
 12 13  1  0
 13 14  2  0
 13 15  1  0
 15 16  1  6
 15 17  1  0
 17 18  1  0
 10 19  1  0
 19 20  2  0
  7 21  1  0
 21 22  2  0
 22 23  1  0
 23 24  2  0
 24 25  1  0
 25 26  2  0
 26 27  1  0
 27 28  1  0
 28 29  2  0
 28 30  1  0
 30 31  1  0
 31 32  1  0
 32 33  1  0
 33 34  1  0
 34 35  1  0
 35 36  1  0
 36 37  1  0
 37 38  2  0
 38 39  1  0
 39 40  2  0
 40 41  1  0
 41 42  2  0
 42 43  1  0
 43 44  2  0
 41 45  1  0
 45 46  1  0
 46 47  2  0
 46 48  1  0
 48 49  1  0
 49 50  2  0
 50 51  1  0
 51 52  2  0
 52 53  1  0
 53 54  1  0
 54 55  1  0
 54 56  1  0
 53 57  2  0
 57 58  1  0
 57 59  1  0
 59 60  2  0
 60 61  1  0
 33 62  1  0
 62 63  1  0
 26 64  1  0
 64 65  2  0
 65  3  1  0
 21  4  1  0
 65 23  1  0
 19  6  1  0
 63 30  1  0
 15  9  1  0
 44 36  1  0
 50 45  1  0
 60 51  1  0
 44 39  1  0
M  END
$$$$
