
     RDKit          3D

 65 74  0  0  0  0  0  0  0  0999 V2000
  191.9791  155.2935  114.7890 C   0  0  0  0  0  0  0  0  0  0  0  0
  192.7473  156.5296  115.1487 C   0  0  0  0  0  0  0  0  0  0  0  0
  192.1086  157.7729  114.7054 C   0  0  0  0  0  0  0  0  0  0  0  0
  191.8082  158.0071  113.3618 C   0  0  0  0  0  0  0  0  0  0  0  0
  192.0260  157.1619  112.1703 C   0  0  0  0  0  0  0  0  0  0  0  0
  191.4855  157.9432  111.0737 N   0  0  0  0  0  0  0  0  0  0  0  0
  191.0138  159.1189  111.5029 C   0  0  0  0  0  0  0  0  0  0  0  0
  190.4491  160.0217  110.5938 C   0  0  0  0  0  0  0  0  0  0  0  0
  190.3706  159.7188  109.2617 C   0  0  0  0  0  0  0  0  0  0  0  0
  190.8607  158.5040  108.8348 C   0  0  0  0  0  0  0  0  0  0  0  0
  190.7906  158.1367  107.3777 C   0  0  0  0  0  0  0  0  0  0  0  0
  190.9891  159.2922  106.6112 O   0  0  0  0  0  0  0  0  0  0  0  0
  190.6761  160.5642  107.0613 C   0  0  0  0  0  0  0  0  0  0  0  0
  191.0834  161.6264  106.5434 O   0  0  0  0  0  0  0  0  0  0  0  0
  189.7807  160.6343  108.2603 C   0  0  1  0  0  0  0  0  0  0  0  0
  188.5399  160.1421  107.8466 O   0  0  0  0  0  0  0  0  0  0  0  0
  189.6847  162.0256  108.8037 C   0  0  0  0  0  0  0  0  0  0  0  0
  188.2773  162.5629  108.6421 C   0  0  0  0  0  0  0  0  0  0  0  0
  191.4061  157.6490  109.7589 C   0  0  0  0  0  0  0  0  0  0  0  0
  191.8509  156.5364  109.3421 O   0  0  0  0  0  0  0  0  0  0  0  0
  191.2100  159.1780  112.9550 C   0  0  0  0  0  0  0  0  0  0  0  0
  190.8951  160.1353  113.8311 N   0  0  0  0  0  0  0  0  0  0  0  0
  191.1699  159.9482  115.1451 C   0  0  0  0  0  0  0  0  0  0  0  0
  190.8343  160.9517  116.0384 C   0  0  0  0  0  0  0  0  0  0  0  0
  191.0986  160.7990  117.3968 C   0  0  0  0  0  0  0  0  0  0  0  0
  191.6952  159.6519  117.8695 C   0  0  0  0  0  0  0  0  0  0  0  0
  191.9398  159.5384  119.2263 O   0  0  0  0  0  0  0  0  0  0  0  0
  193.1265  160.0229  119.7571 C   0  0  0  0  0  0  0  0  0  0  0  0
  194.1368  159.9755  119.0120 O   0  0  0  0  0  0  0  0  0  0  0  0
  193.1946  160.5500  121.0858 N   0  0  0  0  0  0  0  0  0  0  0  0
  192.0808  161.2013  121.6928 C   0  0  0  0  0  0  0  0  0  0  0  0
  192.1395  161.0144  123.1866 C   0  0  0  0  0  0  0  0  0  0  0  0
  192.7707  159.7153  123.6160 C   0  0  0  0  0  0  0  0  0  0  0  0
  193.0217  159.7755  125.1033 C   0  0  0  0  0  0  0  0  0  0  0  0
  193.2842  158.4343  125.7027 C   0  0  0  0  0  0  0  0  0  0  0  0
  192.3234  158.1985  126.7954 N   0  0  0  0  0  0  0  0  0  0  0  0
  191.2770  158.9737  127.0798 C   0  0  0  0  0  0  0  0  0  0  0  0
  190.6057  158.4137  128.1414 C   0  0  0  0  0  0  0  0  0  0  0  0
  191.2642  157.2728  128.5061 C   0  0  0  0  0  0  0  0  0  0  0  0
  191.0740  156.3154  129.4784 C   0  0  0  0  0  0  0  0  0  0  0  0
  191.9531  155.2256  129.6161 C   0  0  0  0  0  0  0  0  0  0  0  0
  193.0064  155.1670  128.7323 C   0  0  0  0  0  0  0  0  0  0  0  0
  193.2336  156.0937  127.7507 C   0  0  0  0  0  0  0  0  0  0  0  0
  192.3548  157.1572  127.6349 C   0  0  0  0  0  0  0  0  0  0  0  0
  191.6451  154.2947  130.6134 N   0  0  0  0  0  0  0  0  0  0  0  0
  191.9098  154.5686  131.9279 C   0  0  0  0  0  0  0  0  0  0  0  0
  192.3790  155.6330  132.4126 O   0  0  0  0  0  0  0  0  0  0  0  0
  191.5812  153.4943  132.6366 N   0  0  0  0  0  0  0  0  0  0  0  0
  191.1288  152.5790  131.8239 N   0  0  0  0  0  0  0  0  0  0  0  0
  191.1612  153.0761  130.5243 C   0  0  0  0  0  0  0  0  0  0  0  0
  190.7713  152.2543  129.3842 C   0  0  0  0  0  0  0  0  0  0  0  0
  189.8469  152.7877  128.4641 C   0  0  0  0  0  0  0  0  0  0  0  0
  189.4429  152.1189  127.3372 C   0  0  0  0  0  0  0  0  0  0  0  0
  188.4600  152.7103  126.4060 C   0  0  0  0  0  0  0  0  0  0  0  0
  189.0843  153.9312  125.7407 C   0  0  0  0  0  0  0  0  0  0  0  0
  187.1763  153.1398  127.0583 C   0  0  0  0  0  0  0  0  0  0  0  0
  189.9506  150.8740  127.0755 C   0  0  0  0  0  0  0  0  0  0  0  0
  189.5788  150.1418  125.9458 O   0  0  0  0  0  0  0  0  0  0  0  0
  190.8525  150.3133  127.9372 C   0  0  0  0  0  0  0  0  0  0  0  0
  191.2508  151.0231  129.0882 C   0  0  0  0  0  0  0  0  0  0  0  0
  192.1802  150.4038  129.9261 O   0  0  0  0  0  0  0  0  0  0  0  0
  194.1255  159.4645  122.9793 C   0  0  0  0  0  0  0  0  0  0  0  0
  194.4206  160.4234  121.8449 C   0  0  0  0  0  0  0  0  0  0  0  0
  192.0147  158.6722  116.9406 C   0  0  0  0  0  0  0  0  0  0  0  0
  191.7738  158.7755  115.5896 C   0  0  0  0  0  0  0  0  0  0  0  0
  1  2  1  0
  2  3  1  0
  3  4  2  0
  4  5  1  0
  5  6  1  0
  6  7  1  0
  7  8  2  0
  8  9  1  0
  9 10  2  0
 10 11  1  0
 11 12  1  0
 12 13  1  0
 13 14  2  0
 13 15  1  0
 15 16  1  6
 15 17  1  0
 17 18  1  0
 10 19  1  0
 19 20  2  0
  7 21  1  0
 21 22  2  0
 22 23  1  0
 23 24  2  0
 24 25  1  0
 25 26  2  0
 26 27  1  0
 27 28  1  0
 28 29  2  0
 28 30  1  0
 30 31  1  0
 31 32  1  0
 32 33  1  0
 33 34  1  0
 34 35  1  0
 35 36  1  0
 36 37  1  0
 37 38  2  0
 38 39  1  0
 39 40  2  0
 40 41  1  0
 41 42  2  0
 42 43  1  0
 43 44  2  0
 41 45  1  0
 45 46  1  0
 46 47  2  0
 46 48  1  0
 48 49  1  0
 49 50  2  0
 50 51  1  0
 51 52  2  0
 52 53  1  0
 53 54  1  0
 54 55  1  0
 54 56  1  0
 53 57  2  0
 57 58  1  0
 57 59  1  0
 59 60  2  0
 60 61  1  0
 33 62  1  0
 62 63  1  0
 26 64  1  0
 64 65  2  0
 65  3  1  0
 21  4  1  0
 65 23  1  0
 19  6  1  0
 63 30  1  0
 15  9  1  0
 44 36  1  0
 50 45  1  0
 60 51  1  0
 44 39  1  0
M  END
$$$$
