
     RDKit          3D

 65 74  0  0  0  0  0  0  0  0999 V2000
  148.8202  170.4126  127.6669 C   0  0  0  0  0  0  0  0  0  0  0  0
  147.6708  169.7026  128.3167 C   0  0  0  0  0  0  0  0  0  0  0  0
  146.5395  169.4603  127.4158 C   0  0  0  0  0  0  0  0  0  0  0  0
  146.7131  168.8835  126.1558 C   0  0  0  0  0  0  0  0  0  0  0  0
  147.9389  168.4165  125.4769 C   0  0  0  0  0  0  0  0  0  0  0  0
  147.4688  167.8998  124.2052 N   0  0  0  0  0  0  0  0  0  0  0  0
  146.1438  168.0378  124.0862 C   0  0  0  0  0  0  0  0  0  0  0  0
  145.4947  167.5994  122.9256 C   0  0  0  0  0  0  0  0  0  0  0  0
  146.1992  167.0264  121.9020 C   0  0  0  0  0  0  0  0  0  0  0  0
  147.5634  166.8911  122.0392 C   0  0  0  0  0  0  0  0  0  0  0  0
  148.3703  166.2652  120.9347 C   0  0  0  0  0  0  0  0  0  0  0  0
  147.8132  166.6351  119.7039 O   0  0  0  0  0  0  0  0  0  0  0  0
  146.4750  166.9546  119.5422 C   0  0  0  0  0  0  0  0  0  0  0  0
  145.9962  167.5482  118.5519 O   0  0  0  0  0  0  0  0  0  0  0  0
  145.5628  166.5431  120.6569 C   0  0  1  0  0  0  0  0  0  0  0  0
  145.5469  165.1457  120.6489 O   0  0  0  0  0  0  0  0  0  0  0  0
  144.1929  167.1252  120.4997 C   0  0  0  0  0  0  0  0  0  0  0  0
  144.1394  168.0390  119.2924 C   0  0  0  0  0  0  0  0  0  0  0  0
  148.1595  167.3344  123.1928 C   0  0  0  0  0  0  0  0  0  0  0  0
  149.4166  167.1992  123.2963 O   0  0  0  0  0  0  0  0  0  0  0  0
  145.6452  168.6614  125.3163 C   0  0  0  0  0  0  0  0  0  0  0  0
  144.4020  168.9903  125.6757 N   0  0  0  0  0  0  0  0  0  0  0  0
  144.1897  169.5529  126.8904 C   0  0  0  0  0  0  0  0  0  0  0  0
  142.8933  169.8855  127.2457 C   0  0  0  0  0  0  0  0  0  0  0  0
  142.6319  170.4643  128.4846 C   0  0  0  0  0  0  0  0  0  0  0  0
  143.6552  170.7133  129.3712 C   0  0  0  0  0  0  0  0  0  0  0  0
  143.3538  171.2886  130.5926 O   0  0  0  0  0  0  0  0  0  0  0  0
  143.0931  172.6490  130.6698 C   0  0  0  0  0  0  0  0  0  0  0  0
  141.8849  172.9876  130.7315 O   0  0  0  0  0  0  0  0  0  0  0  0
  144.1478  173.6161  130.6792 N   0  0  0  0  0  0  0  0  0  0  0  0
  144.5100  174.3431  129.5073 C   0  0  0  0  0  0  0  0  0  0  0  0
  145.0659  175.6874  129.8989 C   0  0  0  0  0  0  0  0  0  0  0  0
  144.4707  176.2504  131.1636 C   0  0  0  0  0  0  0  0  0  0  0  0
  145.2963  177.4396  131.5912 C   0  0  0  0  0  0  0  0  0  0  0  0
  145.5389  178.4074  130.4815 C   0  0  0  0  0  0  0  0  0  0  0  0
  145.7883  179.7431  131.0529 N   0  0  0  0  0  0  0  0  0  0  0  0
  146.8059  180.0590  131.8537 C   0  0  0  0  0  0  0  0  0  0  0  0
  146.7153  181.3984  132.1525 C   0  0  0  0  0  0  0  0  0  0  0  0
  145.6155  181.9020  131.5162 C   0  0  0  0  0  0  0  0  0  0  0  0
  145.0250  183.1446  131.4432 C   0  0  0  0  0  0  0  0  0  0  0  0
  143.8566  183.3581  130.6891 C   0  0  0  0  0  0  0  0  0  0  0  0
  143.3386  182.2658  130.0315 C   0  0  0  0  0  0  0  0  0  0  0  0
  143.8915  181.0142  130.0741 C   0  0  0  0  0  0  0  0  0  0  0  0
  145.0412  180.8290  130.8229 C   0  0  0  0  0  0  0  0  0  0  0  0
  143.3628  184.6662  130.6561 N   0  0  0  0  0  0  0  0  0  0  0  0
  143.7439  185.5299  129.6652 C   0  0  0  0  0  0  0  0  0  0  0  0
  144.4899  185.2882  128.6788 O   0  0  0  0  0  0  0  0  0  0  0  0
  143.1814  186.7062  129.9187 N   0  0  0  0  0  0  0  0  0  0  0  0
  142.4760  186.6058  131.0121 N   0  0  0  0  0  0  0  0  0  0  0  0
  142.5798  185.3050  131.4962 C   0  0  0  0  0  0  0  0  0  0  0  0
  141.9448  184.9044  132.7466 C   0  0  0  0  0  0  0  0  0  0  0  0
  141.6685  183.5369  132.9447 C   0  0  0  0  0  0  0  0  0  0  0  0
  141.1122  183.0461  134.0980 C   0  0  0  0  0  0  0  0  0  0  0  0
  140.8262  181.6053  134.2580 C   0  0  0  0  0  0  0  0  0  0  0  0
  139.7392  181.4329  135.3123 C   0  0  0  0  0  0  0  0  0  0  0  0
  142.0144  180.7854  134.6746 C   0  0  0  0  0  0  0  0  0  0  0  0
  140.8046  183.9085  135.1165 C   0  0  0  0  0  0  0  0  0  0  0  0
  140.2361  183.4712  136.3149 O   0  0  0  0  0  0  0  0  0  0  0  0
  141.0552  185.2454  134.9737 C   0  0  0  0  0  0  0  0  0  0  0  0
  141.6281  185.7231  133.7775 C   0  0  0  0  0  0  0  0  0  0  0  0
  141.8688  187.0957  133.6928 O   0  0  0  0  0  0  0  0  0  0  0  0
  144.5092  175.2809  132.3309 C   0  0  0  0  0  0  0  0  0  0  0  0
  144.8727  173.8737  131.9054 C   0  0  0  0  0  0  0  0  0  0  0  0
  144.9384  170.3646  128.9752 C   0  0  0  0  0  0  0  0  0  0  0  0
  145.2476  169.7905  127.7633 C   0  0  0  0  0  0  0  0  0  0  0  0
  1  2  1  0
  2  3  1  0
  3  4  2  0
  4  5  1  0
  5  6  1  0
  6  7  1  0
  7  8  2  0
  8  9  1  0
  9 10  2  0
 10 11  1  0
 11 12  1  0
 12 13  1  0
 13 14  2  0
 13 15  1  0
 15 16  1  1
 15 17  1  0
 17 18  1  0
 10 19  1  0
 19 20  2  0
  7 21  1  0
 21 22  2  0
 22 23  1  0
 23 24  2  0
 24 25  1  0
 25 26  2  0
 26 27  1  0
 27 28  1  0
 28 29  2  0
 28 30  1  0
 30 31  1  0
 31 32  1  0
 32 33  1  0
 33 34  1  0
 34 35  1  0
 35 36  1  0
 36 37  1  0
 37 38  2  0
 38 39  1  0
 39 40  2  0
 40 41  1  0
 41 42  2  0
 42 43  1  0
 43 44  2  0
 41 45  1  0
 45 46  1  0
 46 47  2  0
 46 48  1  0
 48 49  1  0
 49 50  2  0
 50 51  1  0
 51 52  2  0
 52 53  1  0
 53 54  1  0
 54 55  1  0
 54 56  1  0
 53 57  2  0
 57 58  1  0
 57 59  1  0
 59 60  2  0
 60 61  1  0
 33 62  1  0
 62 63  1  0
 26 64  1  0
 64 65  2  0
 65  3  1  0
 21  4  1  0
 65 23  1  0
 19  6  1  0
 63 30  1  0
 15  9  1  0
 44 36  1  0
 50 45  1  0
 60 51  1  0
 44 39  1  0
M  END
$$$$
