
     RDKit          3D

 65 74  0  0  0  0  0  0  0  0999 V2000
  166.4746  161.4453  109.8255 C   0  0  0  0  0  0  0  0  0  0  0  0
  166.0798  162.2540  108.6264 C   0  0  0  0  0  0  0  0  0  0  0  0
  166.0246  163.6975  108.8785 C   0  0  0  0  0  0  0  0  0  0  0  0
  164.8693  164.3163  109.3609 C   0  0  0  0  0  0  0  0  0  0  0  0
  163.5513  163.7469  109.7074 C   0  0  0  0  0  0  0  0  0  0  0  0
  162.7796  164.8858  110.1685 N   0  0  0  0  0  0  0  0  0  0  0  0
  163.4951  166.0139  110.1041 C   0  0  0  0  0  0  0  0  0  0  0  0
  162.9263  167.2288  110.5054 C   0  0  0  0  0  0  0  0  0  0  0  0
  161.6392  167.2819  110.9669 C   0  0  0  0  0  0  0  0  0  0  0  0
  160.9147  166.1116  111.0273 C   0  0  0  0  0  0  0  0  0  0  0  0
  159.4971  166.1318  111.5301 C   0  0  0  0  0  0  0  0  0  0  0  0
  158.8886  167.3236  111.1160 O   0  0  0  0  0  0  0  0  0  0  0  0
  159.5943  168.4897  110.8690 C   0  0  0  0  0  0  0  0  0  0  0  0
  159.1492  169.4757  110.2429 O   0  0  0  0  0  0  0  0  0  0  0  0
  160.9917  168.5375  111.4065 C   0  0  1  0  0  0  0  0  0  0  0  0
  160.8714  168.5417  112.7989 O   0  0  0  0  0  0  0  0  0  0  0  0
  161.7433  169.7287  110.9001 C   0  0  0  0  0  0  0  0  0  0  0  0
  160.8115  170.9110  110.7288 C   0  0  0  0  0  0  0  0  0  0  0  0
  161.5104  164.9433  110.6241 C   0  0  0  0  0  0  0  0  0  0  0  0
  160.8235  163.8786  110.6888 O   0  0  0  0  0  0  0  0  0  0  0  0
  164.8266  165.6723  109.5930 C   0  0  0  0  0  0  0  0  0  0  0  0
  165.8894  166.4476  109.3645 N   0  0  0  0  0  0  0  0  0  0  0  0
  167.0308  165.8869  108.8956 C   0  0  0  0  0  0  0  0  0  0  0  0
  168.1227  166.7071  108.6664 C   0  0  0  0  0  0  0  0  0  0  0  0
  169.3144  166.1709  108.1860 C   0  0  0  0  0  0  0  0  0  0  0  0
  169.4237  164.8221  107.9329 C   0  0  0  0  0  0  0  0  0  0  0  0
  170.6252  164.3285  107.4573 O   0  0  0  0  0  0  0  0  0  0  0  0
  171.3971  163.4998  108.2586 C   0  0  0  0  0  0  0  0  0  0  0  0
  170.9990  163.3272  109.4376 O   0  0  0  0  0  0  0  0  0  0  0  0
  172.5857  162.8736  107.7657 N   0  0  0  0  0  0  0  0  0  0  0  0
  173.1977  161.7821  108.4492 C   0  0  0  0  0  0  0  0  0  0  0  0
  173.9132  160.9026  107.4571 C   0  0  0  0  0  0  0  0  0  0  0  0
  173.2708  160.8695  106.0945 C   0  0  0  0  0  0  0  0  0  0  0  0
  174.2211  160.1947  105.1352 C   0  0  0  0  0  0  0  0  0  0  0  0
  174.9348  159.0344  105.7446 C   0  0  0  0  0  0  0  0  0  0  0  0
  175.6210  158.2785  104.6814 N   0  0  0  0  0  0  0  0  0  0  0  0
  175.0608  157.8735  103.5417 C   0  0  0  0  0  0  0  0  0  0  0  0
  176.0218  157.2294  102.7980 C   0  0  0  0  0  0  0  0  0  0  0  0
  177.1899  157.2464  103.5073 C   0  0  0  0  0  0  0  0  0  0  0  0
  178.4625  156.7670  103.2862 C   0  0  0  0  0  0  0  0  0  0  0  0
  179.4856  156.9371  104.2369 C   0  0  0  0  0  0  0  0  0  0  0  0
  179.1494  157.6047  105.3924 C   0  0  0  0  0  0  0  0  0  0  0  0
  177.8999  158.0991  105.6541 C   0  0  0  0  0  0  0  0  0  0  0  0
  176.9097  157.9193  104.7033 C   0  0  0  0  0  0  0  0  0  0  0  0
  180.7479  156.4422  103.8939 N   0  0  0  0  0  0  0  0  0  0  0  0
  181.8319  157.2760  103.8395 C   0  0  0  0  0  0  0  0  0  0  0  0
  181.8732  158.5035  104.1211 O   0  0  0  0  0  0  0  0  0  0  0  0
  182.8709  156.5583  103.4275 N   0  0  0  0  0  0  0  0  0  0  0  0
  182.4785  155.3298  103.2282 N   0  0  0  0  0  0  0  0  0  0  0  0
  181.1216  155.2378  103.5242 C   0  0  0  0  0  0  0  0  0  0  0  0
  180.3836  153.9938  103.3372 C   0  0  0  0  0  0  0  0  0  0  0  0
  180.2066  153.5157  102.0235 C   0  0  0  0  0  0  0  0  0  0  0  0
  179.5656  152.3379  101.7365 C   0  0  0  0  0  0  0  0  0  0  0  0
  179.3899  151.8809  100.3425 C   0  0  0  0  0  0  0  0  0  0  0  0
  179.7068  150.3920  100.2682 C   0  0  0  0  0  0  0  0  0  0  0  0
  180.2617  152.5936   99.3475 C   0  0  0  0  0  0  0  0  0  0  0  0
  179.0679  151.5762  102.7602 C   0  0  0  0  0  0  0  0  0  0  0  0
  178.4049  150.3680  102.5336 O   0  0  0  0  0  0  0  0  0  0  0  0
  179.2157  151.9961  104.0533 C   0  0  0  0  0  0  0  0  0  0  0  0
  179.8793  153.2109  104.3200 C   0  0  0  0  0  0  0  0  0  0  0  0
  180.0073  153.5836  105.6594 O   0  0  0  0  0  0  0  0  0  0  0  0
  173.0126  162.2492  105.5167 C   0  0  0  0  0  0  0  0  0  0  0  0
  173.1916  163.3505  106.5406 C   0  0  0  0  0  0  0  0  0  0  0  0
  168.3060  164.0370  108.1763 C   0  0  0  0  0  0  0  0  0  0  0  0
  167.1075  164.5188  108.6508 C   0  0  0  0  0  0  0  0  0  0  0  0
  1  2  1  0
  2  3  1  0
  3  4  2  0
  4  5  1  0
  5  6  1  0
  6  7  1  0
  7  8  2  0
  8  9  1  0
  9 10  2  0
 10 11  1  0
 11 12  1  0
 12 13  1  0
 13 14  2  0
 13 15  1  0
 15 16  1  1
 15 17  1  0
 17 18  1  0
 10 19  1  0
 19 20  2  0
  7 21  1  0
 21 22  2  0
 22 23  1  0
 23 24  2  0
 24 25  1  0
 25 26  2  0
 26 27  1  0
 27 28  1  0
 28 29  2  0
 28 30  1  0
 30 31  1  0
 31 32  1  0
 32 33  1  0
 33 34  1  0
 34 35  1  0
 35 36  1  0
 36 37  1  0
 37 38  2  0
 38 39  1  0
 39 40  2  0
 40 41  1  0
 41 42  2  0
 42 43  1  0
 43 44  2  0
 41 45  1  0
 45 46  1  0
 46 47  2  0
 46 48  1  0
 48 49  1  0
 49 50  2  0
 50 51  1  0
 51 52  2  0
 52 53  1  0
 53 54  1  0
 54 55  1  0
 54 56  1  0
 53 57  2  0
 57 58  1  0
 57 59  1  0
 59 60  2  0
 60 61  1  0
 33 62  1  0
 62 63  1  0
 26 64  1  0
 64 65  2  0
 65  3  1  0
 21  4  1  0
 65 23  1  0
 19  6  1  0
 63 30  1  0
 15  9  1  0
 44 36  1  0
 50 45  1  0
 60 51  1  0
 44 39  1  0
M  END
$$$$
