
     RDKit          3D

 65 74  0  0  0  0  0  0  0  0999 V2000
  190.6961  154.6747  129.3286 C   0  0  0  0  0  0  0  0  0  0  0  0
  189.5294  153.8993  128.7948 C   0  0  0  0  0  0  0  0  0  0  0  0
  189.5823  153.6725  127.3470 C   0  0  0  0  0  0  0  0  0  0  0  0
  189.1905  154.6539  126.4340 C   0  0  0  0  0  0  0  0  0  0  0  0
  188.6811  156.0220  126.6582 C   0  0  0  0  0  0  0  0  0  0  0  0
  188.4727  156.5496  125.3227 N   0  0  0  0  0  0  0  0  0  0  0  0
  188.7839  155.6431  124.3898 C   0  0  0  0  0  0  0  0  0  0  0  0
  188.6498  155.9597  123.0325 C   0  0  0  0  0  0  0  0  0  0  0  0
  188.2022  157.1920  122.6407 C   0  0  0  0  0  0  0  0  0  0  0  0
  187.8856  158.1151  123.6133 C   0  0  0  0  0  0  0  0  0  0  0  0
  187.3911  159.4802  123.2198 C   0  0  0  0  0  0  0  0  0  0  0  0
  186.5997  159.3592  122.0704 O   0  0  0  0  0  0  0  0  0  0  0  0
  186.7598  158.3431  121.1427 C   0  0  0  0  0  0  0  0  0  0  0  0
  185.9207  158.0336  120.2694 O   0  0  0  0  0  0  0  0  0  0  0  0
  188.0458  157.5791  121.2213 C   0  0  1  0  0  0  0  0  0  0  0  0
  189.0538  158.4795  120.8659 O   0  0  0  0  0  0  0  0  0  0  0  0
  188.0307  156.3699  120.3393 C   0  0  0  0  0  0  0  0  0  0  0  0
  187.9459  156.7765  118.8823 C   0  0  0  0  0  0  0  0  0  0  0  0
  188.0314  157.7635  124.9315 C   0  0  0  0  0  0  0  0  0  0  0  0
  187.7336  158.6301  125.8090 O   0  0  0  0  0  0  0  0  0  0  0  0
  189.2423  154.4313  125.0767 C   0  0  0  0  0  0  0  0  0  0  0  0
  189.6688  153.2667  124.5820 N   0  0  0  0  0  0  0  0  0  0  0  0
  190.0581  152.2870  125.4338 C   0  0  0  0  0  0  0  0  0  0  0  0
  190.4989  151.0870  124.9017 C   0  0  0  0  0  0  0  0  0  0  0  0
  190.9087  150.0553  125.7419 C   0  0  0  0  0  0  0  0  0  0  0  0
  190.8816  150.2130  127.1092 C   0  0  0  0  0  0  0  0  0  0  0  0
  191.2980  149.1644  127.9095 O   0  0  0  0  0  0  0  0  0  0  0  0
  190.6762  147.9284  127.8075 C   0  0  0  0  0  0  0  0  0  0  0  0
  191.2465  146.9633  128.3746 O   0  0  0  0  0  0  0  0  0  0  0  0
  189.4475  147.7629  127.0929 N   0  0  0  0  0  0  0  0  0  0  0  0
  188.4347  146.8640  127.5395 C   0  0  0  0  0  0  0  0  0  0  0  0
  187.0842  147.3668  127.1002 C   0  0  0  0  0  0  0  0  0  0  0  0
  186.9876  148.8683  127.0183 C   0  0  0  0  0  0  0  0  0  0  0  0
  185.7036  149.2259  126.3097 C   0  0  0  0  0  0  0  0  0  0  0  0
  184.5915  148.2768  126.6086 C   0  0  0  0  0  0  0  0  0  0  0  0
  183.3178  149.0182  126.6292 N   0  0  0  0  0  0  0  0  0  0  0  0
  183.2008  150.3460  126.6256 C   0  0  0  0  0  0  0  0  0  0  0  0
  181.8613  150.6574  126.6193 C   0  0  0  0  0  0  0  0  0  0  0  0
  181.1534  149.4882  126.6194 C   0  0  0  0  0  0  0  0  0  0  0  0
  179.8131  149.1693  126.6192 C   0  0  0  0  0  0  0  0  0  0  0  0
  179.3778  147.8314  126.6280 C   0  0  0  0  0  0  0  0  0  0  0  0
  180.3566  146.8641  126.6360 C   0  0  0  0  0  0  0  0  0  0  0  0
  181.6987  147.1340  126.6351 C   0  0  0  0  0  0  0  0  0  0  0  0
  182.1026  148.4582  126.6264 C   0  0  0  0  0  0  0  0  0  0  0  0
  177.9954  147.6224  126.5907 N   0  0  0  0  0  0  0  0  0  0  0  0
  177.3562  147.0023  127.6299 C   0  0  0  0  0  0  0  0  0  0  0  0
  177.8583  146.6071  128.7161 O   0  0  0  0  0  0  0  0  0  0  0  0
  176.0758  146.8792  127.2986 N   0  0  0  0  0  0  0  0  0  0  0  0
  175.8994  147.3925  126.1118 N   0  0  0  0  0  0  0  0  0  0  0  0
  177.1186  147.8748  125.6449 C   0  0  0  0  0  0  0  0  0  0  0  0
  177.2493  148.4534  124.3124 C   0  0  0  0  0  0  0  0  0  0  0  0
  178.5153  148.4222  123.6944 C   0  0  0  0  0  0  0  0  0  0  0  0
  178.7414  148.8999  122.4290 C   0  0  0  0  0  0  0  0  0  0  0  0
  180.0890  148.8602  121.8243 C   0  0  0  0  0  0  0  0  0  0  0  0
  181.0034  148.0255  122.7130 C   0  0  0  0  0  0  0  0  0  0  0  0
  180.7212  150.2112  121.6426 C   0  0  0  0  0  0  0  0  0  0  0  0
  177.7015  149.4352  121.7162 C   0  0  0  0  0  0  0  0  0  0  0  0
  177.8671  149.9386  120.4241 O   0  0  0  0  0  0  0  0  0  0  0  0
  176.4527  149.4866  122.2715 C   0  0  0  0  0  0  0  0  0  0  0  0
  176.2482  148.9881  123.5741 C   0  0  0  0  0  0  0  0  0  0  0  0
  174.9508  149.0597  124.0848 O   0  0  0  0  0  0  0  0  0  0  0  0
  188.0994  149.4996  126.2003 C   0  0  0  0  0  0  0  0  0  0  0  0
  189.2136  148.5240  125.8840 C   0  0  0  0  0  0  0  0  0  0  0  0
  190.4332  151.4308  127.5999 C   0  0  0  0  0  0  0  0  0  0  0  0
  190.0186  152.4800  126.8118 C   0  0  0  0  0  0  0  0  0  0  0  0
  1  2  1  0
  2  3  1  0
  3  4  2  0
  4  5  1  0
  5  6  1  0
  6  7  1  0
  7  8  2  0
  8  9  1  0
  9 10  2  0
 10 11  1  0
 11 12  1  0
 12 13  1  0
 13 14  2  0
 13 15  1  0
 15 16  1  6
 15 17  1  0
 17 18  1  0
 10 19  1  0
 19 20  2  0
  7 21  1  0
 21 22  2  0
 22 23  1  0
 23 24  2  0
 24 25  1  0
 25 26  2  0
 26 27  1  0
 27 28  1  0
 28 29  2  0
 28 30  1  0
 30 31  1  0
 31 32  1  0
 32 33  1  0
 33 34  1  0
 34 35  1  0
 35 36  1  0
 36 37  1  0
 37 38  2  0
 38 39  1  0
 39 40  2  0
 40 41  1  0
 41 42  2  0
 42 43  1  0
 43 44  2  0
 41 45  1  0
 45 46  1  0
 46 47  2  0
 46 48  1  0
 48 49  1  0
 49 50  2  0
 50 51  1  0
 51 52  2  0
 52 53  1  0
 53 54  1  0
 54 55  1  0
 54 56  1  0
 53 57  2  0
 57 58  1  0
 57 59  1  0
 59 60  2  0
 60 61  1  0
 33 62  1  0
 62 63  1  0
 26 64  1  0
 64 65  2  0
 65  3  1  0
 21  4  1  0
 65 23  1  0
 19  6  1  0
 63 30  1  0
 15  9  1  0
 44 36  1  0
 50 45  1  0
 60 51  1  0
 44 39  1  0
M  END
$$$$
