
     RDKit          3D

 65 74  0  0  0  0  0  0  0  0999 V2000
  217.0435  139.8748  132.5952 C   0  0  0  0  0  0  0  0  0  0  0  0
  216.1784  138.6506  132.5757 C   0  0  0  0  0  0  0  0  0  0  0  0
  216.8389  137.4511  133.1003 C   0  0  0  0  0  0  0  0  0  0  0  0
  218.2117  137.4189  133.3541 C   0  0  0  0  0  0  0  0  0  0  0  0
  219.2420  138.4635  133.1840 C   0  0  0  0  0  0  0  0  0  0  0  0
  220.4683  137.8336  133.6365 N   0  0  0  0  0  0  0  0  0  0  0  0
  220.2519  136.5699  134.0173 C   0  0  0  0  0  0  0  0  0  0  0  0
  221.3139  135.7878  134.4874 C   0  0  0  0  0  0  0  0  0  0  0  0
  222.5807  136.2991  134.5650 C   0  0  0  0  0  0  0  0  0  0  0  0
  222.7879  137.6024  134.1690 C   0  0  0  0  0  0  0  0  0  0  0  0
  224.1673  138.1983  134.2411 C   0  0  0  0  0  0  0  0  0  0  0  0
  225.1047  137.2043  133.9325 O   0  0  0  0  0  0  0  0  0  0  0  0
  224.8781  135.8548  134.1477 C   0  0  0  0  0  0  0  0  0  0  0  0
  225.5485  134.9280  133.6437 O   0  0  0  0  0  0  0  0  0  0  0  0
  223.7366  135.5178  135.0573 C   0  0  1  0  0  0  0  0  0  0  0  0
  224.1050  135.9725  136.3263 O   0  0  0  0  0  0  0  0  0  0  0  0
  223.4304  134.0527  135.0482 C   0  0  0  0  0  0  0  0  0  0  0  0
  223.4739  133.5099  133.6343 C   0  0  0  0  0  0  0  0  0  0  0  0
  221.7195  138.3335  133.7144 C   0  0  0  0  0  0  0  0  0  0  0  0
  221.9349  139.5311  133.3554 O   0  0  0  0  0  0  0  0  0  0  0  0
  218.8231  136.2877  133.8451 C   0  0  0  0  0  0  0  0  0  0  0  0
  218.1254  135.1774  134.0965 N   0  0  0  0  0  0  0  0  0  0  0  0
  216.7902  135.1662  133.8637 C   0  0  0  0  0  0  0  0  0  0  0  0
  216.0836  134.0059  134.1322 C   0  0  0  0  0  0  0  0  0  0  0  0
  214.7106  133.9528  133.9080 C   0  0  0  0  0  0  0  0  0  0  0  0
  214.0381  135.0495  133.4178 C   0  0  0  0  0  0  0  0  0  0  0  0
  212.6737  134.9566  133.2098 O   0  0  0  0  0  0  0  0  0  0  0  0
  211.8689  134.3531  134.1652 C   0  0  0  0  0  0  0  0  0  0  0  0
  212.1622  133.1739  134.4843 O   0  0  0  0  0  0  0  0  0  0  0  0
  210.7616  135.0402  134.7567 N   0  0  0  0  0  0  0  0  0  0  0  0
  210.4001  136.3614  134.3610 C   0  0  0  0  0  0  0  0  0  0  0  0
  208.9193  136.5591  134.5550 C   0  0  0  0  0  0  0  0  0  0  0  0
  208.1052  135.3050  134.3673 C   0  0  0  0  0  0  0  0  0  0  0  0
  206.7021  135.5692  134.8573 C   0  0  0  0  0  0  0  0  0  0  0  0
  205.7984  134.3931  134.6928 C   0  0  0  0  0  0  0  0  0  0  0  0
  204.4157  134.8698  134.5095 N   0  0  0  0  0  0  0  0  0  0  0  0
  203.9886  136.1064  134.7646 C   0  0  0  0  0  0  0  0  0  0  0  0
  202.6531  136.1726  134.4427 C   0  0  0  0  0  0  0  0  0  0  0  0
  202.2658  134.9453  133.9826 C   0  0  0  0  0  0  0  0  0  0  0  0
  201.0790  134.4135  133.5276 C   0  0  0  0  0  0  0  0  0  0  0  0
  200.9869  133.0711  133.1167 C   0  0  0  0  0  0  0  0  0  0  0  0
  202.1390  132.3222  133.1923 C   0  0  0  0  0  0  0  0  0  0  0  0
  203.3394  132.8082  133.6360 C   0  0  0  0  0  0  0  0  0  0  0  0
  203.4051  134.1323  134.0349 C   0  0  0  0  0  0  0  0  0  0  0  0
  199.7429  132.6463  132.6393 N   0  0  0  0  0  0  0  0  0  0  0  0
  199.6295  132.0777  131.3995 C   0  0  0  0  0  0  0  0  0  0  0  0
  200.5551  131.8167  130.5853 O   0  0  0  0  0  0  0  0  0  0  0  0
  198.3412  131.8365  131.1840 N   0  0  0  0  0  0  0  0  0  0  0  0
  197.6619  132.2271  132.2276 N   0  0  0  0  0  0  0  0  0  0  0  0
  198.5448  132.7465  133.1699 C   0  0  0  0  0  0  0  0  0  0  0  0
  198.0699  133.3215  134.4233 C   0  0  0  0  0  0  0  0  0  0  0  0
  196.9814  134.2151  134.3757 C   0  0  0  0  0  0  0  0  0  0  0  0
  196.4292  134.7811  135.4960 C   0  0  0  0  0  0  0  0  0  0  0  0
  195.2964  135.7248  135.3989 C   0  0  0  0  0  0  0  0  0  0  0  0
  195.7569  137.0980  135.8734 C   0  0  0  0  0  0  0  0  0  0  0  0
  194.0956  135.3292  136.2108 C   0  0  0  0  0  0  0  0  0  0  0  0
  196.9445  134.4757  136.7277 C   0  0  0  0  0  0  0  0  0  0  0  0
  196.4273  135.0193  137.9056 O   0  0  0  0  0  0  0  0  0  0  0  0
  198.0002  133.6120  136.8272 C   0  0  0  0  0  0  0  0  0  0  0  0
  198.5485  133.0442  135.6592 C   0  0  0  0  0  0  0  0  0  0  0  0
  199.6190  132.1632  135.8238 O   0  0  0  0  0  0  0  0  0  0  0  0
  208.6123  134.1300  135.1835 C   0  0  0  0  0  0  0  0  0  0  0  0
  209.9787  134.3865  135.7839 C   0  0  0  0  0  0  0  0  0  0  0  0
  214.7842  136.1910  133.1627 C   0  0  0  0  0  0  0  0  0  0  0  0
  216.1411  136.2933  133.3679 C   0  0  0  0  0  0  0  0  0  0  0  0
  1  2  1  0
  2  3  1  0
  3  4  2  0
  4  5  1  0
  5  6  1  0
  6  7  1  0
  7  8  2  0
  8  9  1  0
  9 10  2  0
 10 11  1  0
 11 12  1  0
 12 13  1  0
 13 14  2  0
 13 15  1  0
 15 16  1  1
 15 17  1  0
 17 18  1  0
 10 19  1  0
 19 20  2  0
  7 21  1  0
 21 22  2  0
 22 23  1  0
 23 24  2  0
 24 25  1  0
 25 26  2  0
 26 27  1  0
 27 28  1  0
 28 29  2  0
 28 30  1  0
 30 31  1  0
 31 32  1  0
 32 33  1  0
 33 34  1  0
 34 35  1  0
 35 36  1  0
 36 37  1  0
 37 38  2  0
 38 39  1  0
 39 40  2  0
 40 41  1  0
 41 42  2  0
 42 43  1  0
 43 44  2  0
 41 45  1  0
 45 46  1  0
 46 47  2  0
 46 48  1  0
 48 49  1  0
 49 50  2  0
 50 51  1  0
 51 52  2  0
 52 53  1  0
 53 54  1  0
 54 55  1  0
 54 56  1  0
 53 57  2  0
 57 58  1  0
 57 59  1  0
 59 60  2  0
 60 61  1  0
 33 62  1  0
 62 63  1  0
 26 64  1  0
 64 65  2  0
 65  3  1  0
 21  4  1  0
 65 23  1  0
 19  6  1  0
 63 30  1  0
 15  9  1  0
 44 36  1  0
 50 45  1  0
 60 51  1  0
 44 39  1  0
M  END
$$$$
