
     RDKit          3D

 65 74  0  0  0  0  0  0  0  0999 V2000
  115.7770  166.2786  146.6702 C   0  0  0  0  0  0  0  0  0  0  0  0
  116.8787  165.5110  146.0036 C   0  0  0  0  0  0  0  0  0  0  0  0
  116.8443  165.5779  144.5391 C   0  0  0  0  0  0  0  0  0  0  0  0
  115.7036  165.2277  143.8135 C   0  0  0  0  0  0  0  0  0  0  0  0
  114.3826  164.7549  144.2749 C   0  0  0  0  0  0  0  0  0  0  0  0
  113.6184  164.5809  143.0539 N   0  0  0  0  0  0  0  0  0  0  0  0
  114.3524  164.8789  141.9763 C   0  0  0  0  0  0  0  0  0  0  0  0
  113.7940  164.7733  140.6967 C   0  0  0  0  0  0  0  0  0  0  0  0
  112.4982  164.3671  140.5283 C   0  0  0  0  0  0  0  0  0  0  0  0
  111.7547  164.0636  141.6478 C   0  0  0  0  0  0  0  0  0  0  0  0
  110.3265  163.6145  141.5011 C   0  0  0  0  0  0  0  0  0  0  0  0
  110.2153  162.8363  140.3417 O   0  0  0  0  0  0  0  0  0  0  0  0
  111.0535  162.9801  139.2483 C   0  0  0  0  0  0  0  0  0  0  0  0
  111.1755  162.1449  138.3263 O   0  0  0  0  0  0  0  0  0  0  0  0
  111.8587  164.2422  139.2000 C   0  0  1  0  0  0  0  0  0  0  0  0
  110.9409  165.2808  139.0206 O   0  0  0  0  0  0  0  0  0  0  0  0
  112.8894  164.2047  138.1153 C   0  0  0  0  0  0  0  0  0  0  0  0
  113.4700  162.8116  137.9824 C   0  0  0  0  0  0  0  0  0  0  0  0
  112.3409  164.1804  142.8828 C   0  0  0  0  0  0  0  0  0  0  0  0
  111.6366  163.8954  143.8988 O   0  0  0  0  0  0  0  0  0  0  0  0
  115.6813  165.2923  142.4388 C   0  0  0  0  0  0  0  0  0  0  0  0
  116.7511  165.6919  141.7470 N   0  0  0  0  0  0  0  0  0  0  0  0
  117.8791  166.0405  142.4128 C   0  0  0  0  0  0  0  0  0  0  0  0
  118.9776  166.4539  141.6779 C   0  0  0  0  0  0  0  0  0  0  0  0
  120.1552  166.8217  142.3231 C   0  0  0  0  0  0  0  0  0  0  0  0
  120.2440  166.7798  143.6963 C   0  0  0  0  0  0  0  0  0  0  0  0
  121.4313  167.1543  144.2992 O   0  0  0  0  0  0  0  0  0  0  0  0
  122.3898  166.1951  144.5922 C   0  0  0  0  0  0  0  0  0  0  0  0
  123.4001  166.1632  143.8462 O   0  0  0  0  0  0  0  0  0  0  0  0
  122.2346  165.2892  145.6891 N   0  0  0  0  0  0  0  0  0  0  0  0
  122.9264  164.0433  145.7372 C   0  0  0  0  0  0  0  0  0  0  0  0
  123.1656  163.6540  147.1727 C   0  0  0  0  0  0  0  0  0  0  0  0
  123.3494  164.8260  148.1018 C   0  0  0  0  0  0  0  0  0  0  0  0
  123.2980  164.3207  149.5233 C   0  0  0  0  0  0  0  0  0  0  0  0
  124.0619  165.1813  150.4735 C   0  0  0  0  0  0  0  0  0  0  0  0
  125.1977  164.4125  151.0134 N   0  0  0  0  0  0  0  0  0  0  0  0
  125.1348  163.1573  151.4577 C   0  0  0  0  0  0  0  0  0  0  0  0
  126.3971  162.7790  151.8510 C   0  0  0  0  0  0  0  0  0  0  0  0
  127.2417  163.8324  151.6388 C   0  0  0  0  0  0  0  0  0  0  0  0
  128.5879  164.0479  151.8378 C   0  0  0  0  0  0  0  0  0  0  0  0
  129.1883  165.2796  151.5189 C   0  0  0  0  0  0  0  0  0  0  0  0
  128.3640  166.2517  150.9998 C   0  0  0  0  0  0  0  0  0  0  0  0
  127.0229  166.0821  150.7837 C   0  0  0  0  0  0  0  0  0  0  0  0
  126.4549  164.8612  151.1055 C   0  0  0  0  0  0  0  0  0  0  0  0
  130.5677  165.3767  151.7281 N   0  0  0  0  0  0  0  0  0  0  0  0
  131.0609  165.8585  152.9103 C   0  0  0  0  0  0  0  0  0  0  0  0
  130.4090  166.2069  153.9309 O   0  0  0  0  0  0  0  0  0  0  0  0
  132.3844  165.9017  152.8062 N   0  0  0  0  0  0  0  0  0  0  0  0
  132.7254  165.4707  151.6225 N   0  0  0  0  0  0  0  0  0  0  0  0
  131.5737  165.1284  150.9198 C   0  0  0  0  0  0  0  0  0  0  0  0
  131.6333  164.6692  149.5368 C   0  0  0  0  0  0  0  0  0  0  0  0
  130.7366  165.2346  148.6084 C   0  0  0  0  0  0  0  0  0  0  0  0
  130.7333  164.9065  147.2770 C   0  0  0  0  0  0  0  0  0  0  0  0
  129.7655  165.5140  146.3403 C   0  0  0  0  0  0  0  0  0  0  0  0
  130.5178  166.4214  145.3741 C   0  0  0  0  0  0  0  0  0  0  0  0
  128.6936  166.3291  147.0070 C   0  0  0  0  0  0  0  0  0  0  0  0
  131.6361  163.9895  146.8079 C   0  0  0  0  0  0  0  0  0  0  0  0
  131.6831  163.6127  145.4639 O   0  0  0  0  0  0  0  0  0  0  0  0
  132.5287  163.4132  147.6691 C   0  0  0  0  0  0  0  0  0  0  0  0
  132.5103  163.7691  149.0330 C   0  0  0  0  0  0  0  0  0  0  0  0
  133.4505  163.1545  149.8621 O   0  0  0  0  0  0  0  0  0  0  0  0
  122.2441  165.8606  147.9921 C   0  0  0  0  0  0  0  0  0  0  0  0
  121.3561  165.6361  146.7860 C   0  0  0  0  0  0  0  0  0  0  0  0
  119.1204  166.3599  144.3935 C   0  0  0  0  0  0  0  0  0  0  0  0
  117.9347  165.9870  143.8026 C   0  0  0  0  0  0  0  0  0  0  0  0
  1  2  1  0
  2  3  1  0
  3  4  2  0
  4  5  1  0
  5  6  1  0
  6  7  1  0
  7  8  2  0
  8  9  1  0
  9 10  2  0
 10 11  1  0
 11 12  1  0
 12 13  1  0
 13 14  2  0
 13 15  1  0
 15 16  1  6
 15 17  1  0
 17 18  1  0
 10 19  1  0
 19 20  2  0
  7 21  1  0
 21 22  2  0
 22 23  1  0
 23 24  2  0
 24 25  1  0
 25 26  2  0
 26 27  1  0
 27 28  1  0
 28 29  2  0
 28 30  1  0
 30 31  1  0
 31 32  1  0
 32 33  1  0
 33 34  1  0
 34 35  1  0
 35 36  1  0
 36 37  1  0
 37 38  2  0
 38 39  1  0
 39 40  2  0
 40 41  1  0
 41 42  2  0
 42 43  1  0
 43 44  2  0
 41 45  1  0
 45 46  1  0
 46 47  2  0
 46 48  1  0
 48 49  1  0
 49 50  2  0
 50 51  1  0
 51 52  2  0
 52 53  1  0
 53 54  1  0
 54 55  1  0
 54 56  1  0
 53 57  2  0
 57 58  1  0
 57 59  1  0
 59 60  2  0
 60 61  1  0
 33 62  1  0
 62 63  1  0
 26 64  1  0
 64 65  2  0
 65  3  1  0
 21  4  1  0
 65 23  1  0
 19  6  1  0
 63 30  1  0
 15  9  1  0
 44 36  1  0
 50 45  1  0
 60 51  1  0
 44 39  1  0
M  END
$$$$
