
     RDKit          3D

 65 74  0  0  0  0  0  0  0  0999 V2000
  113.5854  149.0944  160.1272 C   0  0  0  0  0  0  0  0  0  0  0  0
  115.0576  148.9290  159.8978 C   0  0  0  0  0  0  0  0  0  0  0  0
  115.7284  148.1196  160.9200 C   0  0  0  0  0  0  0  0  0  0  0  0
  115.8081  148.5343  162.2512 C   0  0  0  0  0  0  0  0  0  0  0  0
  115.2952  149.7546  162.9065 C   0  0  0  0  0  0  0  0  0  0  0  0
  115.6738  149.5992  164.2985 N   0  0  0  0  0  0  0  0  0  0  0  0
  116.3457  148.4593  164.4935 C   0  0  0  0  0  0  0  0  0  0  0  0
  116.8013  148.1245  165.7744 C   0  0  0  0  0  0  0  0  0  0  0  0
  116.5684  148.9509  166.8399 C   0  0  0  0  0  0  0  0  0  0  0  0
  115.8750  150.1215  166.6233 C   0  0  0  0  0  0  0  0  0  0  0  0
  115.5998  151.0541  167.7711 C   0  0  0  0  0  0  0  0  0  0  0  0
  116.6934  151.0274  168.6461 O   0  0  0  0  0  0  0  0  0  0  0  0
  117.5342  149.9343  168.7763 C   0  0  0  0  0  0  0  0  0  0  0  0
  118.6600  149.9589  169.3190 O   0  0  0  0  0  0  0  0  0  0  0  0
  117.0242  148.6432  168.2134 C   0  0  1  0  0  0  0  0  0  0  0  0
  115.9286  148.2824  169.0024 O   0  0  0  0  0  0  0  0  0  0  0  0
  118.0828  147.5852  168.1976 C   0  0  0  0  0  0  0  0  0  0  0  0
  118.5121  147.2423  169.6095 C   0  0  0  0  0  0  0  0  0  0  0  0
  115.4467  150.4113  165.3524 C   0  0  0  0  0  0  0  0  0  0  0  0
  114.8104  151.4948  165.1775 O   0  0  0  0  0  0  0  0  0  0  0  0
  116.4413  147.7684  163.2035 C   0  0  0  0  0  0  0  0  0  0  0  0
  117.0043  146.5992  162.8893 N   0  0  0  0  0  0  0  0  0  0  0  0
  116.9498  146.1599  161.6082 C   0  0  0  0  0  0  0  0  0  0  0  0
  117.5380  144.9441  161.3024 C   0  0  0  0  0  0  0  0  0  0  0  0
  117.5036  144.4562  159.9989 C   0  0  0  0  0  0  0  0  0  0  0  0
  116.8860  145.1731  158.9989 C   0  0  0  0  0  0  0  0  0  0  0  0
  116.8724  144.6533  157.7170 O   0  0  0  0  0  0  0  0  0  0  0  0
  117.8849  144.9822  156.8275 C   0  0  0  0  0  0  0  0  0  0  0  0
  118.5674  144.0295  156.3747 O   0  0  0  0  0  0  0  0  0  0  0  0
  118.1376  146.3380  156.4455 N   0  0  0  0  0  0  0  0  0  0  0  0
  119.3937  146.7444  155.9069 C   0  0  0  0  0  0  0  0  0  0  0  0
  119.1909  147.9155  154.9813 C   0  0  0  0  0  0  0  0  0  0  0  0
  117.8621  147.9103  154.2706 C   0  0  0  0  0  0  0  0  0  0  0  0
  117.6707  149.2526  153.6070 C   0  0  0  0  0  0  0  0  0  0  0  0
  118.2897  149.3236  152.2510 C   0  0  0  0  0  0  0  0  0  0  0  0
  119.6672  149.8329  152.3762 N   0  0  0  0  0  0  0  0  0  0  0  0
  120.2495  150.2030  153.5166 C   0  0  0  0  0  0  0  0  0  0  0  0
  121.5383  150.5902  153.2330 C   0  0  0  0  0  0  0  0  0  0  0  0
  121.7374  150.4503  151.8881 C   0  0  0  0  0  0  0  0  0  0  0  0
  122.7978  150.6790  151.0387 C   0  0  0  0  0  0  0  0  0  0  0  0
  122.6945  150.4397  149.6560 C   0  0  0  0  0  0  0  0  0  0  0  0
  121.4851  149.9670  149.2003 C   0  0  0  0  0  0  0  0  0  0  0  0
  120.4058  149.7240  150.0068 C   0  0  0  0  0  0  0  0  0  0  0  0
  120.5318  149.9672  151.3639 C   0  0  0  0  0  0  0  0  0  0  0  0
  123.8431  150.6722  148.8927 N   0  0  0  0  0  0  0  0  0  0  0  0
  124.1072  151.9187  148.3932 C   0  0  0  0  0  0  0  0  0  0  0  0
  123.4456  152.9759  148.5737 O   0  0  0  0  0  0  0  0  0  0  0  0
  125.2123  151.8328  147.6612 N   0  0  0  0  0  0  0  0  0  0  0  0
  125.6375  150.5993  147.6883 N   0  0  0  0  0  0  0  0  0  0  0  0
  124.7729  149.8430  148.4743 C   0  0  0  0  0  0  0  0  0  0  0  0
  124.9564  148.4060  148.6427 C   0  0  0  0  0  0  0  0  0  0  0  0
  125.3889  147.9325  149.8975 C   0  0  0  0  0  0  0  0  0  0  0  0
  125.5542  146.6004  150.1776 C   0  0  0  0  0  0  0  0  0  0  0  0
  126.0234  146.1485  151.5038 C   0  0  0  0  0  0  0  0  0  0  0  0
  125.7536  144.6546  151.6392 C   0  0  0  0  0  0  0  0  0  0  0  0
  125.3656  146.8480  152.6595 C   0  0  0  0  0  0  0  0  0  0  0  0
  125.2913  145.6712  149.2062 C   0  0  0  0  0  0  0  0  0  0  0  0
  125.4408  144.3005  149.4287 O   0  0  0  0  0  0  0  0  0  0  0  0
  124.8673  146.0800  147.9720 C   0  0  0  0  0  0  0  0  0  0  0  0
  124.7054  147.4559  147.7112 C   0  0  0  0  0  0  0  0  0  0  0  0
  124.2619  147.8126  146.4363 O   0  0  0  0  0  0  0  0  0  0  0  0
  116.6792  147.7410  155.2065 C   0  0  0  0  0  0  0  0  0  0  0  0
  117.0977  147.3325  156.6035 C   0  0  0  0  0  0  0  0  0  0  0  0
  116.3096  146.3856  159.3488 C   0  0  0  0  0  0  0  0  0  0  0  0
  116.3167  146.9099  160.6212 C   0  0  0  0  0  0  0  0  0  0  0  0
  1  2  1  0
  2  3  1  0
  3  4  2  0
  4  5  1  0
  5  6  1  0
  6  7  1  0
  7  8  2  0
  8  9  1  0
  9 10  2  0
 10 11  1  0
 11 12  1  0
 12 13  1  0
 13 14  2  0
 13 15  1  0
 15 16  1  1
 15 17  1  0
 17 18  1  0
 10 19  1  0
 19 20  2  0
  7 21  1  0
 21 22  2  0
 22 23  1  0
 23 24  2  0
 24 25  1  0
 25 26  2  0
 26 27  1  0
 27 28  1  0
 28 29  2  0
 28 30  1  0
 30 31  1  0
 31 32  1  0
 32 33  1  0
 33 34  1  0
 34 35  1  0
 35 36  1  0
 36 37  1  0
 37 38  2  0
 38 39  1  0
 39 40  2  0
 40 41  1  0
 41 42  2  0
 42 43  1  0
 43 44  2  0
 41 45  1  0
 45 46  1  0
 46 47  2  0
 46 48  1  0
 48 49  1  0
 49 50  2  0
 50 51  1  0
 51 52  2  0
 52 53  1  0
 53 54  1  0
 54 55  1  0
 54 56  1  0
 53 57  2  0
 57 58  1  0
 57 59  1  0
 59 60  2  0
 60 61  1  0
 33 62  1  0
 62 63  1  0
 26 64  1  0
 64 65  2  0
 65  3  1  0
 21  4  1  0
 65 23  1  0
 19  6  1  0
 63 30  1  0
 15  9  1  0
 44 36  1  0
 50 45  1  0
 60 51  1  0
 44 39  1  0
M  END
$$$$
