
     RDKit          3D

 42 48  0  0  0  0  0  0  0  0999 V2000
  183.0929  164.0449  124.8803 O   0  0  0  0  0  0  0  0  0  0  0  0
  184.1371  164.9012  124.5660 C   0  0  0  0  0  0  0  0  0  0  0  0
  183.9849  166.1222  124.8235 O   0  0  0  0  0  0  0  0  0  0  0  0
  185.3631  164.4161  123.9623 C   0  0  0  0  0  0  0  0  0  0  0  0
  186.4144  165.2108  123.6026 C   0  0  0  0  0  0  0  0  0  0  0  0
  187.5708  164.7812  123.0367 C   0  0  0  0  0  0  0  0  0  0  0  0
  188.5194  165.6885  122.7367 F   0  0  0  0  0  0  0  0  0  0  0  0
  187.7530  163.4038  122.7767 C   0  0  0  0  0  0  0  0  0  0  0  0
  188.8008  162.8468  122.2410 N   0  0  0  0  0  0  0  0  0  0  0  0
  188.8479  161.5432  122.0493 C   0  0  0  0  0  0  0  0  0  0  0  0
  187.3139  161.0515  122.6621 S   0  0  0  0  0  0  0  0  0  0  0  0
  186.7112  162.5892  123.1298 C   0  0  0  0  0  0  0  0  0  0  0  0
  185.5256  163.0607  123.7140 C   0  0  0  0  0  0  0  0  0  0  0  0
  189.8618  160.7384  121.4938 N   0  0  0  0  0  0  0  0  0  0  0  0
  191.2070  161.1137  121.1711 C   0  0  1  0  0  0  0  0  0  0  0  0
  191.9763  159.9575  121.8349 C   0  0  0  0  0  0  0  0  0  0  0  0
  191.0215  158.8009  121.7170 C   0  0  0  0  0  0  0  0  0  0  0  0
  189.7399  159.3511  121.1323 C   0  0  2  0  0  0  0  0  0  0  0  0
  189.7515  159.3153  119.6164 C   0  0  0  0  0  0  0  0  0  0  0  0
  191.0805  159.7559  119.0431 C   0  0  1  0  0  0  0  0  0  0  0  0
  191.4842  161.0371  119.6838 C   0  0  0  0  0  0  0  0  0  0  0  0
  192.0259  158.7649  119.0485 O   0  0  0  0  0  0  0  0  0  0  0  0
  193.1731  159.1818  118.3686 C   0  0  0  0  0  0  0  0  0  0  0  0
  193.4325  158.3485  117.1697 C   0  0  0  0  0  0  0  0  0  0  0  0
  194.0472  157.1191  117.0952 C   0  0  0  0  0  0  0  0  0  0  0  0
  194.0672  156.8070  115.7940 O   0  0  0  0  0  0  0  0  0  0  0  0
  193.5223  157.7322  115.0886 N   0  0  0  0  0  0  0  0  0  0  0  0
  193.0921  158.7438  115.8699 C   0  0  0  0  0  0  0  0  0  0  0  0
  192.4341  159.9538  115.4025 C   0  0  0  0  0  0  0  0  0  0  0  0
  191.3152  159.8568  114.5714 C   0  0  0  0  0  0  0  0  0  0  0  0
  190.8833  158.6008  114.2165 O   0  0  0  0  0  0  0  0  0  0  0  0
  190.9960  158.0630  112.9260 C   0  0  0  0  0  0  0  0  0  0  0  0
  191.6280  158.9925  112.1200 F   0  0  0  0  0  0  0  0  0  0  0  0
  189.7899  157.7585  112.3480 F   0  0  0  0  0  0  0  0  0  0  0  0
  191.7464  156.8939  112.9239 F   0  0  0  0  0  0  0  0  0  0  0  0
  190.6566  160.9805  114.1154 C   0  0  0  0  0  0  0  0  0  0  0  0
  191.0788  162.2461  114.4636 C   0  0  0  0  0  0  0  0  0  0  0  0
  192.1801  162.3560  115.2822 C   0  0  0  0  0  0  0  0  0  0  0  0
  192.8233  161.2313  115.7270 C   0  0  0  0  0  0  0  0  0  0  0  0
  194.5931  156.2607  118.1715 C   0  0  0  0  0  0  0  0  0  0  0  0
  195.8258  155.3971  117.7602 C   0  0  0  0  0  0  0  0  0  0  0  0
  194.5315  154.7479  118.0517 C   0  0  0  0  0  0  0  0  0  0  0  0
  1  2  1  0
  2  3  2  0
  2  4  1  0
  4  5  2  0
  5  6  1  0
  6  7  1  0
  6  8  2  0
  8  9  1  0
  9 10  2  0
 10 11  1  0
 11 12  1  0
 12 13  2  0
 10 14  1  0
 14 15  1  0
 15 16  1  1
 16 17  1  0
 18 17  1  1
 18 19  1  0
 19 20  1  0
 20 21  1  0
 20 22  1  1
 22 23  1  0
 23 24  1  0
 24 25  2  0
 25 26  1  0
 26 27  1  0
 27 28  2  0
 28 29  1  0
 29 30  2  0
 30 31  1  0
 31 32  1  0
 32 33  1  0
 32 34  1  0
 32 35  1  0
 30 36  1  0
 36 37  2  0
 37 38  1  0
 38 39  2  0
 25 40  1  0
 40 41  1  0
 41 42  1  0
 13  4  1  0
 18 14  1  0
 28 24  1  0
 39 29  1  0
 42 40  1  0
 12  8  1  0
 21 15  1  0
M  END
$$$$
