
     RDKit          3D

 42 48  0  0  0  0  0  0  0  0999 V2000
  126.1585  158.4742  142.7864 O   0  0  0  0  0  0  0  0  0  0  0  0
  125.2524  158.9618  143.7157 C   0  0  0  0  0  0  0  0  0  0  0  0
  125.3701  158.5686  144.9039 O   0  0  0  0  0  0  0  0  0  0  0  0
  124.2042  159.8909  143.3407 C   0  0  0  0  0  0  0  0  0  0  0  0
  123.9258  160.2647  142.0566 C   0  0  0  0  0  0  0  0  0  0  0  0
  122.9512  161.1315  141.6808 C   0  0  0  0  0  0  0  0  0  0  0  0
  122.7977  161.4025  140.3708 F   0  0  0  0  0  0  0  0  0  0  0  0
  122.1264  161.7256  142.6629 C   0  0  0  0  0  0  0  0  0  0  0  0
  121.1579  162.5705  142.4557 N   0  0  0  0  0  0  0  0  0  0  0  0
  120.4592  163.0559  143.4630 C   0  0  0  0  0  0  0  0  0  0  0  0
  121.2075  162.2764  144.8057 S   0  0  0  0  0  0  0  0  0  0  0  0
  122.3884  161.3644  143.9571 C   0  0  0  0  0  0  0  0  0  0  0  0
  123.4033  160.4650  144.3176 C   0  0  0  0  0  0  0  0  0  0  0  0
  119.3863  163.9688  143.4736 N   0  0  0  0  0  0  0  0  0  0  0  0
  119.3523  165.2948  142.9304 C   0  0  1  0  0  0  0  0  0  0  0  0
  118.0359  165.2270  142.1356 C   0  0  0  0  0  0  0  0  0  0  0  0
  117.2014  164.2677  142.9397 C   0  0  0  0  0  0  0  0  0  0  0  0
  118.0866  163.7422  144.0476 C   0  0  2  0  0  0  0  0  0  0  0  0
  118.0211  164.6177  145.2840 C   0  0  0  0  0  0  0  0  0  0  0  0
  118.0497  166.0917  144.9444 C   0  0  1  0  0  0  0  0  0  0  0  0
  119.1719  166.3505  144.0016 C   0  0  0  0  0  0  0  0  0  0  0  0
  116.8287  166.5818  144.5637 O   0  0  0  0  0  0  0  0  0  0  0  0
  116.4395  167.6277  145.4044 C   0  0  0  0  0  0  0  0  0  0  0  0
  114.9636  167.7503  145.4789 C   0  0  0  0  0  0  0  0  0  0  0  0
  114.1458  167.6229  146.5789 C   0  0  0  0  0  0  0  0  0  0  0  0
  112.8996  167.7870  146.1195 O   0  0  0  0  0  0  0  0  0  0  0  0
  112.8986  168.0009  144.8528 N   0  0  0  0  0  0  0  0  0  0  0  0
  114.1548  167.9961  144.3622 C   0  0  0  0  0  0  0  0  0  0  0  0
  114.5207  168.2002  142.9693 C   0  0  0  0  0  0  0  0  0  0  0  0
  114.1714  167.2425  142.0141 C   0  0  0  0  0  0  0  0  0  0  0  0
  113.4946  166.1243  142.4404 O   0  0  0  0  0  0  0  0  0  0  0  0
  112.1079  165.9490  142.3240 C   0  0  0  0  0  0  0  0  0  0  0  0
  111.6983  165.0553  143.2967 F   0  0  0  0  0  0  0  0  0  0  0  0
  111.7148  165.4530  141.1070 F   0  0  0  0  0  0  0  0  0  0  0  0
  111.4250  167.1448  142.5073 F   0  0  0  0  0  0  0  0  0  0  0  0
  114.4906  167.4040  140.6812 C   0  0  0  0  0  0  0  0  0  0  0  0
  115.1689  168.5205  140.2398 C   0  0  0  0  0  0  0  0  0  0  0  0
  115.5191  169.4722  141.1708 C   0  0  0  0  0  0  0  0  0  0  0  0
  115.1949  169.2978  142.4902 C   0  0  0  0  0  0  0  0  0  0  0  0
  114.4895  167.3639  147.9960 C   0  0  0  0  0  0  0  0  0  0  0  0
  115.2768  168.5122  148.7004 C   0  0  0  0  0  0  0  0  0  0  0  0
  115.9412  167.2232  148.4198 C   0  0  0  0  0  0  0  0  0  0  0  0
  1  2  1  0
  2  3  2  0
  2  4  1  0
  4  5  2  0
  5  6  1  0
  6  7  1  0
  6  8  2  0
  8  9  1  0
  9 10  2  0
 10 11  1  0
 11 12  1  0
 12 13  2  0
 10 14  1  0
 14 15  1  0
 15 16  1  6
 16 17  1  0
 18 17  1  6
 18 19  1  0
 19 20  1  0
 20 21  1  0
 20 22  1  6
 22 23  1  0
 23 24  1  0
 24 25  2  0
 25 26  1  0
 26 27  1  0
 27 28  2  0
 28 29  1  0
 29 30  2  0
 30 31  1  0
 31 32  1  0
 32 33  1  0
 32 34  1  0
 32 35  1  0
 30 36  1  0
 36 37  2  0
 37 38  1  0
 38 39  2  0
 25 40  1  0
 40 41  1  0
 41 42  1  0
 13  4  1  0
 18 14  1  0
 28 24  1  0
 39 29  1  0
 42 40  1  0
 12  8  1  0
 21 15  1  0
M  END
$$$$
