
     RDKit          3D

 42 48  0  0  0  0  0  0  0  0999 V2000
  203.2013  144.5342  128.9575 O   0  0  0  0  0  0  0  0  0  0  0  0
  202.1994  143.6673  128.5487 C   0  0  0  0  0  0  0  0  0  0  0  0
  201.4076  144.0720  127.6600 O   0  0  0  0  0  0  0  0  0  0  0  0
  202.0615  142.3413  129.1190 C   0  0  0  0  0  0  0  0  0  0  0  0
  201.1117  141.4338  128.7442 C   0  0  0  0  0  0  0  0  0  0  0  0
  200.9624  140.1882  129.2624 C   0  0  0  0  0  0  0  0  0  0  0  0
  199.9745  139.4056  128.7885 F   0  0  0  0  0  0  0  0  0  0  0  0
  201.8384  139.7436  130.2786 C   0  0  0  0  0  0  0  0  0  0  0  0
  201.8177  138.5833  130.8685 N   0  0  0  0  0  0  0  0  0  0  0  0
  202.6945  138.2885  131.8081 C   0  0  0  0  0  0  0  0  0  0  0  0
  203.6222  139.7393  131.8778 S   0  0  0  0  0  0  0  0  0  0  0  0
  202.7985  140.6378  130.6693 C   0  0  0  0  0  0  0  0  0  0  0  0
  202.9301  141.9207  130.1159 C   0  0  0  0  0  0  0  0  0  0  0  0
  202.8555  137.1150  132.5706 N   0  0  0  0  0  0  0  0  0  0  0  0
  201.9343  136.0267  132.7180 C   0  0  1  0  0  0  0  0  0  0  0  0
  202.8754  134.8385  132.4505 C   0  0  0  0  0  0  0  0  0  0  0  0
  204.2005  135.3307  132.9653 C   0  0  0  0  0  0  0  0  0  0  0  0
  204.0023  136.7744  133.3699 C   0  0  2  0  0  0  0  0  0  0  0  0
  203.5534  136.8983  134.8130 C   0  0  0  0  0  0  0  0  0  0  0  0
  202.5022  135.8726  135.1760 C   0  0  1  0  0  0  0  0  0  0  0  0
  201.4332  135.8864  134.1407 C   0  0  0  0  0  0  0  0  0  0  0  0
  203.0275  134.6427  135.4716 O   0  0  0  0  0  0  0  0  0  0  0  0
  203.9857  134.7520  136.4826 C   0  0  0  0  0  0  0  0  0  0  0  0
  204.1006  133.4983  137.2661 C   0  0  0  0  0  0  0  0  0  0  0  0
  203.6017  133.2195  138.5184 C   0  0  0  0  0  0  0  0  0  0  0  0
  204.0023  131.9727  138.7941 O   0  0  0  0  0  0  0  0  0  0  0  0
  204.6901  131.4837  137.8255 N   0  0  0  0  0  0  0  0  0  0  0  0
  204.8042  132.3731  136.8182 C   0  0  0  0  0  0  0  0  0  0  0  0
  205.5201  132.1530  135.5713 C   0  0  0  0  0  0  0  0  0  0  0  0
  206.9060  132.3239  135.5289 C   0  0  0  0  0  0  0  0  0  0  0  0
  207.5432  132.7095  136.6846 O   0  0  0  0  0  0  0  0  0  0  0  0
  208.4326  133.7905  136.7722 C   0  0  0  0  0  0  0  0  0  0  0  0
  207.8191  134.9050  136.2296 F   0  0  0  0  0  0  0  0  0  0  0  0
  209.6109  133.5914  136.0988 F   0  0  0  0  0  0  0  0  0  0  0  0
  208.7686  134.0696  138.0910 F   0  0  0  0  0  0  0  0  0  0  0  0
  207.6230  132.1146  134.3685 C   0  0  0  0  0  0  0  0  0  0  0  0
  206.9969  131.7275  133.2025 C   0  0  0  0  0  0  0  0  0  0  0  0
  205.6314  131.5554  133.2304 C   0  0  0  0  0  0  0  0  0  0  0  0
  204.9334  131.7667  134.3899 C   0  0  0  0  0  0  0  0  0  0  0  0
  202.7876  134.0587  139.4275 C   0  0  0  0  0  0  0  0  0  0  0  0
  203.0490  133.8233  140.9476 C   0  0  0  0  0  0  0  0  0  0  0  0
  201.7612  133.4205  140.3470 C   0  0  0  0  0  0  0  0  0  0  0  0
  1  2  1  0
  2  3  2  0
  2  4  1  0
  4  5  2  0
  5  6  1  0
  6  7  1  0
  6  8  2  0
  8  9  1  0
  9 10  2  0
 10 11  1  0
 11 12  1  0
 12 13  2  0
 10 14  1  0
 14 15  1  0
 15 16  1  1
 16 17  1  0
 18 17  1  6
 18 19  1  0
 19 20  1  0
 20 21  1  0
 20 22  1  6
 22 23  1  0
 23 24  1  0
 24 25  2  0
 25 26  1  0
 26 27  1  0
 27 28  2  0
 28 29  1  0
 29 30  2  0
 30 31  1  0
 31 32  1  0
 32 33  1  0
 32 34  1  0
 32 35  1  0
 30 36  1  0
 36 37  2  0
 37 38  1  0
 38 39  2  0
 25 40  1  0
 40 41  1  0
 41 42  1  0
 13  4  1  0
 18 14  1  0
 28 24  1  0
 39 29  1  0
 42 40  1  0
 12  8  1  0
 21 15  1  0
M  END
$$$$
