
     RDKit          3D

 42 48  0  0  0  0  0  0  0  0999 V2000
  214.4008  140.3979  135.0585 O   0  0  0  0  0  0  0  0  0  0  0  0
  213.5414  139.7342  134.1963 C   0  0  0  0  0  0  0  0  0  0  0  0
  213.7609  139.8382  132.9628 O   0  0  0  0  0  0  0  0  0  0  0  0
  212.4278  138.9470  134.6892 C   0  0  0  0  0  0  0  0  0  0  0  0
  212.0207  138.9156  135.9928 C   0  0  0  0  0  0  0  0  0  0  0  0
  210.9829  138.1878  136.4780 C   0  0  0  0  0  0  0  0  0  0  0  0
  210.7018  138.2605  137.7929 F   0  0  0  0  0  0  0  0  0  0  0  0
  210.2268  137.3768  135.6014 C   0  0  0  0  0  0  0  0  0  0  0  0
  209.2109  136.6272  135.9194 N   0  0  0  0  0  0  0  0  0  0  0  0
  208.5869  135.9129  135.0035 C   0  0  0  0  0  0  0  0  0  0  0  0
  209.4830  136.3145  133.5871 S   0  0  0  0  0  0  0  0  0  0  0  0
  210.6180  137.3936  134.2897 C   0  0  0  0  0  0  0  0  0  0  0  0
  211.6960  138.1562  133.8149 C   0  0  0  0  0  0  0  0  0  0  0  0
  207.4841  135.0440  135.1185 N   0  0  0  0  0  0  0  0  0  0  0  0
  207.2361  133.8342  134.3910 C   0  0  1  0  0  0  0  0  0  0  0  0
  206.8865  132.8874  135.5531 C   0  0  0  0  0  0  0  0  0  0  0  0
  206.2433  133.8041  136.5578 C   0  0  0  0  0  0  0  0  0  0  0  0
  206.3654  135.2077  136.0083 C   0  0  2  0  0  0  0  0  0  0  0  0
  205.1857  135.5727  135.1282 C   0  0  0  0  0  0  0  0  0  0  0  0
  204.7903  134.4429  134.2028 C   0  0  1  0  0  0  0  0  0  0  0  0
  206.0062  133.9336  133.5122 C   0  0  0  0  0  0  0  0  0  0  0  0
  204.0110  133.4948  134.8108 O   0  0  0  0  0  0  0  0  0  0  0  0
  202.8943  134.0889  135.4042 C   0  0  0  0  0  0  0  0  0  0  0  0
  201.9483  133.0748  135.9291 C   0  0  0  0  0  0  0  0  0  0  0  0
  200.9298  133.2407  136.8402 C   0  0  0  0  0  0  0  0  0  0  0  0
  200.3962  132.0247  137.0061 O   0  0  0  0  0  0  0  0  0  0  0  0
  200.9988  131.1528  136.2802 N   0  0  0  0  0  0  0  0  0  0  0  0
  201.9911  131.7226  135.5665 C   0  0  0  0  0  0  0  0  0  0  0  0
  202.8786  131.0287  134.6465 C   0  0  0  0  0  0  0  0  0  0  0  0
  202.7510  131.2375  133.2710 C   0  0  0  0  0  0  0  0  0  0  0  0
  201.7686  132.0964  132.8382 O   0  0  0  0  0  0  0  0  0  0  0  0
  201.9696  133.1131  131.8932 C   0  0  0  0  0  0  0  0  0  0  0  0
  202.5016  134.2126  132.5421 F   0  0  0  0  0  0  0  0  0  0  0  0
  200.8199  133.5149  131.2621 F   0  0  0  0  0  0  0  0  0  0  0  0
  202.8540  132.7173  130.8977 F   0  0  0  0  0  0  0  0  0  0  0  0
  203.5803  130.6066  132.3662 C   0  0  0  0  0  0  0  0  0  0  0  0
  204.5697  129.7430  132.7863 C   0  0  0  0  0  0  0  0  0  0  0  0
  204.7064  129.5282  134.1392 C   0  0  0  0  0  0  0  0  0  0  0  0
  203.8759  130.1620  135.0251 C   0  0  0  0  0  0  0  0  0  0  0  0
  200.4601  134.4637  137.5309 C   0  0  0  0  0  0  0  0  0  0  0  0
  200.1225  134.2747  139.0424 C   0  0  0  0  0  0  0  0  0  0  0  0
  199.0428  134.5432  138.0709 C   0  0  0  0  0  0  0  0  0  0  0  0
  1  2  1  0
  2  3  2  0
  2  4  1  0
  4  5  2  0
  5  6  1  0
  6  7  1  0
  6  8  2  0
  8  9  1  0
  9 10  2  0
 10 11  1  0
 11 12  1  0
 12 13  2  0
 10 14  1  0
 14 15  1  0
 15 16  1  1
 16 17  1  0
 18 17  1  6
 18 19  1  0
 19 20  1  0
 20 21  1  0
 20 22  1  1
 22 23  1  0
 23 24  1  0
 24 25  2  0
 25 26  1  0
 26 27  1  0
 27 28  2  0
 28 29  1  0
 29 30  2  0
 30 31  1  0
 31 32  1  0
 32 33  1  0
 32 34  1  0
 32 35  1  0
 30 36  1  0
 36 37  2  0
 37 38  1  0
 38 39  2  0
 25 40  1  0
 40 41  1  0
 41 42  1  0
 13  4  1  0
 18 14  1  0
 28 24  1  0
 39 29  1  0
 42 40  1  0
 12  8  1  0
 21 15  1  0
M  END
$$$$
