
     RDKit          3D

 42 48  0  0  0  0  0  0  0  0999 V2000
  143.1615  167.0799  167.6498 O   0  0  0  0  0  0  0  0  0  0  0  0
  144.4793  167.3759  167.3368 C   0  0  0  0  0  0  0  0  0  0  0  0
  145.3714  166.9442  168.1104 O   0  0  0  0  0  0  0  0  0  0  0  0
  144.8261  168.1537  166.1633 C   0  0  0  0  0  0  0  0  0  0  0  0
  146.0989  168.5170  165.8253 C   0  0  0  0  0  0  0  0  0  0  0  0
  146.4485  169.2439  164.7336 C   0  0  0  0  0  0  0  0  0  0  0  0
  147.7502  169.5242  164.5338 F   0  0  0  0  0  0  0  0  0  0  0  0
  145.4483  169.6872  163.8386 C   0  0  0  0  0  0  0  0  0  0  0  0
  145.6299  170.3889  162.7572 N   0  0  0  0  0  0  0  0  0  0  0  0
  144.6079  170.7422  162.0028 C   0  0  0  0  0  0  0  0  0  0  0  0
  143.2888  170.0438  162.8645 S   0  0  0  0  0  0  0  0  0  0  0  0
  144.1651  169.3339  164.1586 C   0  0  0  0  0  0  0  0  0  0  0  0
  143.8318  168.5808  165.2948 C   0  0  0  0  0  0  0  0  0  0  0  0
  144.5696  171.4904  160.8098 N   0  0  0  0  0  0  0  0  0  0  0  0
  145.5272  172.4475  160.3390 C   0  0  1  0  0  0  0  0  0  0  0  0
  145.7192  171.9491  158.8954 C   0  0  0  0  0  0  0  0  0  0  0  0
  144.3731  171.3713  158.5525 C   0  0  0  0  0  0  0  0  0  0  0  0
  143.5361  171.4393  159.8102 C   0  0  2  0  0  0  0  0  0  0  0  0
  142.7886  172.7541  159.9190 C   0  0  0  0  0  0  0  0  0  0  0  0
  143.6503  173.9365  159.5338 C   0  0  1  0  0  0  0  0  0  0  0  0
  144.9492  173.8452  160.2544 C   0  0  0  0  0  0  0  0  0  0  0  0
  143.7338  174.1251  158.1797 O   0  0  0  0  0  0  0  0  0  0  0  0
  144.0878  175.4459  157.8924 C   0  0  0  0  0  0  0  0  0  0  0  0
  142.9568  176.3777  158.1192 C   0  0  0  0  0  0  0  0  0  0  0  0
  142.8437  177.3784  159.0577 C   0  0  0  0  0  0  0  0  0  0  0  0
  141.6268  177.9045  158.8752 O   0  0  0  0  0  0  0  0  0  0  0  0
  141.0068  177.3134  157.9179 N   0  0  0  0  0  0  0  0  0  0  0  0
  141.7671  176.3375  157.3812 C   0  0  0  0  0  0  0  0  0  0  0  0
  141.3762  175.4660  156.2842 C   0  0  0  0  0  0  0  0  0  0  0  0
  140.0889  174.9239  156.2554 C   0  0  0  0  0  0  0  0  0  0  0  0
  139.2360  175.2342  157.2880 O   0  0  0  0  0  0  0  0  0  0  0  0
  138.7614  174.3053  158.2258 C   0  0  0  0  0  0  0  0  0  0  0  0
  139.7337  174.1269  159.1930 F   0  0  0  0  0  0  0  0  0  0  0  0
  138.4745  173.0763  157.6884 F   0  0  0  0  0  0  0  0  0  0  0  0
  137.6002  174.7518  158.8440 F   0  0  0  0  0  0  0  0  0  0  0  0
  139.6760  174.1015  155.2270 C   0  0  0  0  0  0  0  0  0  0  0  0
  140.5208  173.7822  154.1851 C   0  0  0  0  0  0  0  0  0  0  0  0
  141.7922  174.3098  154.2010 C   0  0  0  0  0  0  0  0  0  0  0  0
  142.1875  175.1248  155.2287 C   0  0  0  0  0  0  0  0  0  0  0  0
  143.8112  177.8386  160.0802 C   0  0  0  0  0  0  0  0  0  0  0  0
  143.7572  179.3661  160.3940 C   0  0  0  0  0  0  0  0  0  0  0  0
  144.9302  178.7935  159.7027 C   0  0  0  0  0  0  0  0  0  0  0  0
  1  2  1  0
  2  3  2  0
  2  4  1  0
  4  5  2  0
  5  6  1  0
  6  7  1  0
  6  8  2  0
  8  9  1  0
  9 10  2  0
 10 11  1  0
 11 12  1  0
 12 13  2  0
 10 14  1  0
 14 15  1  0
 15 16  1  6
 16 17  1  0
 18 17  1  6
 18 19  1  0
 19 20  1  0
 20 21  1  0
 20 22  1  6
 22 23  1  0
 23 24  1  0
 24 25  2  0
 25 26  1  0
 26 27  1  0
 27 28  2  0
 28 29  1  0
 29 30  2  0
 30 31  1  0
 31 32  1  0
 32 33  1  0
 32 34  1  0
 32 35  1  0
 30 36  1  0
 36 37  2  0
 37 38  1  0
 38 39  2  0
 25 40  1  0
 40 41  1  0
 41 42  1  0
 13  4  1  0
 18 14  1  0
 28 24  1  0
 39 29  1  0
 42 40  1  0
 12  8  1  0
 21 15  1  0
M  END
$$$$
