
     RDKit          3D

 42 48  0  0  0  0  0  0  0  0999 V2000
  163.0178  159.8407  128.5082 O   0  0  0  0  0  0  0  0  0  0  0  0
  163.5559  158.7495  129.1731 C   0  0  0  0  0  0  0  0  0  0  0  0
  163.7573  158.8634  130.4088 O   0  0  0  0  0  0  0  0  0  0  0  0
  163.8780  157.5184  128.4781 C   0  0  0  0  0  0  0  0  0  0  0  0
  163.7209  157.3255  127.1348 C   0  0  0  0  0  0  0  0  0  0  0  0
  164.0147  156.1839  126.4619 C   0  0  0  0  0  0  0  0  0  0  0  0
  163.8047  156.1454  125.1324 F   0  0  0  0  0  0  0  0  0  0  0  0
  164.5297  155.0706  127.1642 C   0  0  0  0  0  0  0  0  0  0  0  0
  164.8551  153.9162  126.6580 N   0  0  0  0  0  0  0  0  0  0  0  0
  165.3266  152.9524  127.4243 C   0  0  0  0  0  0  0  0  0  0  0  0
  165.3173  153.7104  128.9722 S   0  0  0  0  0  0  0  0  0  0  0  0
  164.6951  155.2426  128.5121 C   0  0  0  0  0  0  0  0  0  0  0  0
  164.3828  156.4350  129.1828 C   0  0  0  0  0  0  0  0  0  0  0  0
  165.7348  151.6441  127.0983 N   0  0  0  0  0  0  0  0  0  0  0  0
  165.3991  150.4233  127.7702 C   0  0  1  0  0  0  0  0  0  0  0  0
  164.9696  149.5632  126.5681 C   0  0  0  0  0  0  0  0  0  0  0  0
  165.8279  150.0881  125.4496 C   0  0  0  0  0  0  0  0  0  0  0  0
  166.5899  151.2714  126.0029 C   0  0  2  0  0  0  0  0  0  0  0  0
  167.9057  150.8514  126.6285 C   0  0  0  0  0  0  0  0  0  0  0  0
  167.7682  149.5979  127.4645 C   0  0  1  0  0  0  0  0  0  0  0  0
  166.6104  149.7543  128.3864 C   0  0  0  0  0  0  0  0  0  0  0  0
  167.7843  148.4482  126.7202 O   0  0  0  0  0  0  0  0  0  0  0  0
  168.4872  147.4435  127.3900 C   0  0  0  0  0  0  0  0  0  0  0  0
  169.9520  147.5856  127.2086 C   0  0  0  0  0  0  0  0  0  0  0  0
  170.9179  147.8092  128.1636 C   0  0  0  0  0  0  0  0  0  0  0  0
  172.0726  147.8929  127.4923 O   0  0  0  0  0  0  0  0  0  0  0  0
  171.8857  147.7393  126.2307 N   0  0  0  0  0  0  0  0  0  0  0  0
  170.5802  147.5395  125.9577 C   0  0  0  0  0  0  0  0  0  0  0  0
  170.0136  147.3351  124.6337 C   0  0  0  0  0  0  0  0  0  0  0  0
  170.4716  148.1009  123.5587 C   0  0  0  0  0  0  0  0  0  0  0  0
  171.4470  149.0379  123.8045 O   0  0  0  0  0  0  0  0  0  0  0  0
  171.8745  149.9952  122.8727 C   0  0  0  0  0  0  0  0  0  0  0  0
  170.9271  151.0012  122.8154 F   0  0  0  0  0  0  0  0  0  0  0  0
  172.0344  149.4976  121.6044 F   0  0  0  0  0  0  0  0  0  0  0  0
  173.0919  150.5555  123.2383 F   0  0  0  0  0  0  0  0  0  0  0  0
  169.9674  147.9299  122.2855 C   0  0  0  0  0  0  0  0  0  0  0  0
  168.9891  146.9939  122.0246 C   0  0  0  0  0  0  0  0  0  0  0  0
  168.5290  146.2323  123.0751 C   0  0  0  0  0  0  0  0  0  0  0  0
  169.0393  146.4134  124.3333 C   0  0  0  0  0  0  0  0  0  0  0  0
  170.7915  147.9386  129.6335 C   0  0  0  0  0  0  0  0  0  0  0  0
  169.3327  148.1333  130.1519 C   0  0  0  0  0  0  0  0  0  0  0  0
  170.3069  149.2392  130.2502 C   0  0  0  0  0  0  0  0  0  0  0  0
  1  2  1  0
  2  3  2  0
  2  4  1  0
  4  5  2  0
  5  6  1  0
  6  7  1  0
  6  8  2  0
  8  9  1  0
  9 10  2  0
 10 11  1  0
 11 12  1  0
 12 13  2  0
 10 14  1  0
 14 15  1  0
 15 16  1  6
 16 17  1  0
 18 17  1  1
 18 19  1  0
 19 20  1  0
 20 21  1  0
 20 22  1  6
 22 23  1  0
 23 24  1  0
 24 25  2  0
 25 26  1  0
 26 27  1  0
 27 28  2  0
 28 29  1  0
 29 30  2  0
 30 31  1  0
 31 32  1  0
 32 33  1  0
 32 34  1  0
 32 35  1  0
 30 36  1  0
 36 37  2  0
 37 38  1  0
 38 39  2  0
 25 40  1  0
 40 41  1  0
 41 42  1  0
 13  4  1  0
 18 14  1  0
 28 24  1  0
 39 29  1  0
 42 40  1  0
 12  8  1  0
 21 15  1  0
M  END
$$$$
