
     RDKit          3D

 42 48  0  0  0  0  0  0  0  0999 V2000
  115.4502  178.8355  147.0863 O   0  0  0  0  0  0  0  0  0  0  0  0
  116.6312  178.2923  147.5683 C   0  0  0  0  0  0  0  0  0  0  0  0
  117.3890  179.0448  148.2316 O   0  0  0  0  0  0  0  0  0  0  0  0
  116.9884  176.9088  147.3215 C   0  0  0  0  0  0  0  0  0  0  0  0
  118.0490  176.2696  147.8986 C   0  0  0  0  0  0  0  0  0  0  0  0
  118.4033  174.9771  147.6839 C   0  0  0  0  0  0  0  0  0  0  0  0
  119.4789  174.4865  148.3283 F   0  0  0  0  0  0  0  0  0  0  0  0
  117.6431  174.1814  146.7970 C   0  0  0  0  0  0  0  0  0  0  0  0
  117.8602  172.9344  146.4925 N   0  0  0  0  0  0  0  0  0  0  0  0
  117.0738  172.3000  145.6453 C   0  0  0  0  0  0  0  0  0  0  0  0
  115.9419  173.5346  145.2389 S   0  0  0  0  0  0  0  0  0  0  0  0
  116.5750  174.8025  146.2076 C   0  0  0  0  0  0  0  0  0  0  0  0
  116.2312  176.1416  146.4479 C   0  0  0  0  0  0  0  0  0  0  0  0
  117.1200  170.9727  145.1756 N   0  0  0  0  0  0  0  0  0  0  0  0
  116.5707  170.4488  143.9598 C   0  0  1  0  0  0  0  0  0  0  0  0
  117.7863  169.6679  143.4291 C   0  0  0  0  0  0  0  0  0  0  0  0
  118.4828  169.2257  144.6871 C   0  0  0  0  0  0  0  0  0  0  0  0
  117.7404  169.8589  145.8424 C   0  0  2  0  0  0  0  0  0  0  0  0
  116.6035  168.9819  146.3298 C   0  0  0  0  0  0  0  0  0  0  0  0
  115.8213  168.3709  145.1880 C   0  0  1  0  0  0  0  0  0  0  0  0
  115.4697  169.4399  144.2141 C   0  0  0  0  0  0  0  0  0  0  0  0
  116.4192  167.2580  144.6588 O   0  0  0  0  0  0  0  0  0  0  0  0
  117.2001  166.6182  145.6247 C   0  0  0  0  0  0  0  0  0  0  0  0
  118.3516  165.9091  145.0163 C   0  0  0  0  0  0  0  0  0  0  0  0
  119.6856  165.9986  145.3439 C   0  0  0  0  0  0  0  0  0  0  0  0
  120.3202  165.1924  144.4846 O   0  0  0  0  0  0  0  0  0  0  0  0
  119.4913  164.6317  143.6790 N   0  0  0  0  0  0  0  0  0  0  0  0
  118.2271  165.0229  143.9389 C   0  0  0  0  0  0  0  0  0  0  0  0
  117.0411  164.5888  143.2173 C   0  0  0  0  0  0  0  0  0  0  0  0
  117.0941  164.4290  141.8304 C   0  0  0  0  0  0  0  0  0  0  0  0
  118.2819  164.7038  141.1952 O   0  0  0  0  0  0  0  0  0  0  0  0
  118.7646  165.9977  140.9496 C   0  0  0  0  0  0  0  0  0  0  0  0
  119.2036  166.5337  142.1466 F   0  0  0  0  0  0  0  0  0  0  0  0
  117.8225  166.8486  140.4300 F   0  0  0  0  0  0  0  0  0  0  0  0
  119.8276  165.9848  140.0553 F   0  0  0  0  0  0  0  0  0  0  0  0
  115.9941  164.0088  141.1108 C   0  0  0  0  0  0  0  0  0  0  0  0
  114.7967  163.7296  141.7350 C   0  0  0  0  0  0  0  0  0  0  0  0
  114.7308  163.8828  143.1014 C   0  0  0  0  0  0  0  0  0  0  0  0
  115.8312  164.3005  143.8021 C   0  0  0  0  0  0  0  0  0  0  0  0
  120.3551  166.7880  146.4031 C   0  0  0  0  0  0  0  0  0  0  0  0
  121.9110  166.8391  146.2988 C   0  0  0  0  0  0  0  0  0  0  0  0
  121.2673  166.1057  147.4075 C   0  0  0  0  0  0  0  0  0  0  0  0
  1  2  1  0
  2  3  2  0
  2  4  1  0
  4  5  2  0
  5  6  1  0
  6  7  1  0
  6  8  2  0
  8  9  1  0
  9 10  2  0
 10 11  1  0
 11 12  1  0
 12 13  2  0
 10 14  1  0
 14 15  1  0
 15 16  1  1
 16 17  1  0
 18 17  1  6
 18 19  1  0
 19 20  1  0
 20 21  1  0
 20 22  1  6
 22 23  1  0
 23 24  1  0
 24 25  2  0
 25 26  1  0
 26 27  1  0
 27 28  2  0
 28 29  1  0
 29 30  2  0
 30 31  1  0
 31 32  1  0
 32 33  1  0
 32 34  1  0
 32 35  1  0
 30 36  1  0
 36 37  2  0
 37 38  1  0
 38 39  2  0
 25 40  1  0
 40 41  1  0
 41 42  1  0
 13  4  1  0
 18 14  1  0
 28 24  1  0
 39 29  1  0
 42 40  1  0
 12  8  1  0
 21 15  1  0
M  END
$$$$
