
     RDKit          3D

 42 48  0  0  0  0  0  0  0  0999 V2000
  200.6553  126.7657  139.5125 O   0  0  0  0  0  0  0  0  0  0  0  0
  199.6699  127.7387  139.5801 C   0  0  0  0  0  0  0  0  0  0  0  0
  198.7264  127.5549  140.3903 O   0  0  0  0  0  0  0  0  0  0  0  0
  199.7167  128.9275  138.7511 C   0  0  0  0  0  0  0  0  0  0  0  0
  198.7823  129.9238  138.7753 C   0  0  0  0  0  0  0  0  0  0  0  0
  198.8040  131.0446  138.0102 C   0  0  0  0  0  0  0  0  0  0  0  0
  197.8076  131.9399  138.1474 F   0  0  0  0  0  0  0  0  0  0  0  0
  199.8616  131.2462  137.0944 C   0  0  0  0  0  0  0  0  0  0  0  0
  200.0157  132.2648  136.2984 N   0  0  0  0  0  0  0  0  0  0  0  0
  201.0514  132.3351  135.4855 C   0  0  0  0  0  0  0  0  0  0  0  0
  201.8775  130.8686  135.8564 S   0  0  0  0  0  0  0  0  0  0  0  0
  200.8094  130.2594  137.0540 C   0  0  0  0  0  0  0  0  0  0  0  0
  200.7622  129.1097  137.8573 C   0  0  0  0  0  0  0  0  0  0  0  0
  201.4133  133.3257  134.5517 N   0  0  0  0  0  0  0  0  0  0  0  0
  202.3731  133.2285  133.4915 C   0  0  1  0  0  0  0  0  0  0  0  0
  201.5409  133.7850  132.3224 C   0  0  0  0  0  0  0  0  0  0  0  0
  200.6320  134.7784  132.9936 C   0  0  0  0  0  0  0  0  0  0  0  0
  200.8785  134.6595  134.4809 C   0  0  2  0  0  0  0  0  0  0  0  0
  201.9932  135.5781  134.9423 C   0  0  0  0  0  0  0  0  0  0  0  0
  203.1692  135.5748  133.9904 C   0  0  1  0  0  0  0  0  0  0  0  0
  203.5457  134.1667  133.6897 C   0  0  0  0  0  0  0  0  0  0  0  0
  202.9852  136.3862  132.9025 O   0  0  0  0  0  0  0  0  0  0  0  0
  203.2389  137.7183  133.2392 C   0  0  0  0  0  0  0  0  0  0  0  0
  203.5701  138.5318  132.0444 C   0  0  0  0  0  0  0  0  0  0  0  0
  202.7484  139.3627  131.3168 C   0  0  0  0  0  0  0  0  0  0  0  0
  203.5082  139.8358  130.3218 O   0  0  0  0  0  0  0  0  0  0  0  0
  204.7022  139.3668  130.3893 N   0  0  0  0  0  0  0  0  0  0  0  0
  204.8351  138.5363  131.4434 C   0  0  0  0  0  0  0  0  0  0  0  0
  206.0494  137.8270  131.8149 C   0  0  0  0  0  0  0  0  0  0  0  0
  207.0666  137.6548  130.8728 C   0  0  0  0  0  0  0  0  0  0  0  0
  206.8683  138.1625  129.6106 O   0  0  0  0  0  0  0  0  0  0  0  0
  207.6112  139.2161  129.0582 C   0  0  0  0  0  0  0  0  0  0  0  0
  208.8188  138.7109  128.6117 F   0  0  0  0  0  0  0  0  0  0  0  0
  207.8822  140.2254  129.9468 F   0  0  0  0  0  0  0  0  0  0  0  0
  206.9512  139.7975  127.9829 F   0  0  0  0  0  0  0  0  0  0  0  0
  208.2380  136.9973  131.1888 C   0  0  0  0  0  0  0  0  0  0  0  0
  208.4502  136.4834  132.4506 C   0  0  0  0  0  0  0  0  0  0  0  0
  207.4560  136.6462  133.3887 C   0  0  0  0  0  0  0  0  0  0  0  0
  206.2987  137.3014  133.0601 C   0  0  0  0  0  0  0  0  0  0  0  0
  201.3246  139.7135  131.5238 C   0  0  0  0  0  0  0  0  0  0  0  0
  201.0562  141.2232  131.8124 C   0  0  0  0  0  0  0  0  0  0  0  0
  200.8476  140.2182  132.8745 C   0  0  0  0  0  0  0  0  0  0  0  0
  1  2  1  0
  2  3  2  0
  2  4  1  0
  4  5  2  0
  5  6  1  0
  6  7  1  0
  6  8  2  0
  8  9  1  0
  9 10  2  0
 10 11  1  0
 11 12  1  0
 12 13  2  0
 10 14  1  0
 14 15  1  0
 15 16  1  6
 16 17  1  0
 18 17  1  6
 18 19  1  0
 19 20  1  0
 20 21  1  0
 20 22  1  6
 22 23  1  0
 23 24  1  0
 24 25  2  0
 25 26  1  0
 26 27  1  0
 27 28  2  0
 28 29  1  0
 29 30  2  0
 30 31  1  0
 31 32  1  0
 32 33  1  0
 32 34  1  0
 32 35  1  0
 30 36  1  0
 36 37  2  0
 37 38  1  0
 38 39  2  0
 25 40  1  0
 40 41  1  0
 41 42  1  0
 13  4  1  0
 18 14  1  0
 28 24  1  0
 39 29  1  0
 42 40  1  0
 12  8  1  0
 21 15  1  0
M  END
$$$$
