
     RDKit          3D

 42 48  0  0  0  0  0  0  0  0999 V2000
  207.0130  139.9368  127.3599 O   0  0  0  0  0  0  0  0  0  0  0  0
  207.2953  138.7664  128.0474 C   0  0  0  0  0  0  0  0  0  0  0  0
  208.3828  138.1899  127.7914 O   0  0  0  0  0  0  0  0  0  0  0  0
  206.3768  138.2193  129.0270 C   0  0  0  0  0  0  0  0  0  0  0  0
  205.1568  138.7559  129.3267 C   0  0  0  0  0  0  0  0  0  0  0  0
  204.2804  138.2630  130.2384 C   0  0  0  0  0  0  0  0  0  0  0  0
  203.1117  138.9054  130.4241 F   0  0  0  0  0  0  0  0  0  0  0  0
  204.6101  137.0973  130.9667 C   0  0  0  0  0  0  0  0  0  0  0  0
  203.8761  136.5118  131.8685 N   0  0  0  0  0  0  0  0  0  0  0  0
  204.2997  135.4235  132.4805 C   0  0  0  0  0  0  0  0  0  0  0  0
  205.8413  135.1951  131.7444 S   0  0  0  0  0  0  0  0  0  0  0  0
  205.8288  136.5429  130.6816 C   0  0  0  0  0  0  0  0  0  0  0  0
  206.7161  137.0741  129.7330 C   0  0  0  0  0  0  0  0  0  0  0  0
  203.6846  134.6370  133.4742 N   0  0  0  0  0  0  0  0  0  0  0  0
  203.0311  133.3710  133.3165 C   0  0  1  0  0  0  0  0  0  0  0  0
  203.7001  132.5786  134.4540 C   0  0  0  0  0  0  0  0  0  0  0  0
  203.9754  133.6351  135.4891 C   0  0  0  0  0  0  0  0  0  0  0  0
  203.5889  134.9608  134.8728 C   0  0  2  0  0  0  0  0  0  0  0  0
  202.1308  135.2943  135.1222 C   0  0  0  0  0  0  0  0  0  0  0  0
  201.2285  134.0946  134.9336 C   0  0  1  0  0  0  0  0  0  0  0  0
  201.5519  133.4440  133.6348 C   0  0  0  0  0  0  0  0  0  0  0  0
  201.1989  133.2648  136.0229 O   0  0  0  0  0  0  0  0  0  0  0  0
  202.2721  132.3711  135.9843 C   0  0  0  0  0  0  0  0  0  0  0  0
  202.1132  131.2812  136.9772 C   0  0  0  0  0  0  0  0  0  0  0  0
  202.3169  129.9302  136.8093 C   0  0  0  0  0  0  0  0  0  0  0  0
  202.0076  129.3725  137.9858 O   0  0  0  0  0  0  0  0  0  0  0  0
  201.6410  130.2623  138.8367 N   0  0  0  0  0  0  0  0  0  0  0  0
  201.6766  131.4949  138.2907 C   0  0  0  0  0  0  0  0  0  0  0  0
  201.3205  132.7318  138.9682 C   0  0  0  0  0  0  0  0  0  0  0  0
  202.3233  133.5320  139.5213 C   0  0  0  0  0  0  0  0  0  0  0  0
  203.6248  133.1035  139.4086 O   0  0  0  0  0  0  0  0  0  0  0  0
  204.3039  132.3747  140.3961 C   0  0  0  0  0  0  0  0  0  0  0  0
  203.6955  132.6189  141.6139 F   0  0  0  0  0  0  0  0  0  0  0  0
  205.6289  132.7090  140.5152 F   0  0  0  0  0  0  0  0  0  0  0  0
  204.2575  131.0091  140.1453 F   0  0  0  0  0  0  0  0  0  0  0  0
  202.0278  134.7176  140.1626 C   0  0  0  0  0  0  0  0  0  0  0  0
  200.7271  135.1595  140.2826 C   0  0  0  0  0  0  0  0  0  0  0  0
  199.7291  134.3805  139.7420 C   0  0  0  0  0  0  0  0  0  0  0  0
  200.0382  133.2061  139.1082 C   0  0  0  0  0  0  0  0  0  0  0  0
  202.7792  129.1775  135.6205 C   0  0  0  0  0  0  0  0  0  0  0  0
  204.3172  129.2362  135.3643 C   0  0  0  0  0  0  0  0  0  0  0  0
  203.3862  129.9104  134.4369 C   0  0  0  0  0  0  0  0  0  0  0  0
  1  2  1  0
  2  3  2  0
  2  4  1  0
  4  5  2  0
  5  6  1  0
  6  7  1  0
  6  8  2  0
  8  9  1  0
  9 10  2  0
 10 11  1  0
 11 12  1  0
 12 13  2  0
 10 14  1  0
 14 15  1  0
 15 16  1  1
 16 17  1  0
 18 17  1  1
 18 19  1  0
 19 20  1  0
 20 21  1  0
 20 22  1  1
 22 23  1  0
 23 24  1  0
 24 25  2  0
 25 26  1  0
 26 27  1  0
 27 28  2  0
 28 29  1  0
 29 30  2  0
 30 31  1  0
 31 32  1  0
 32 33  1  0
 32 34  1  0
 32 35  1  0
 30 36  1  0
 36 37  2  0
 37 38  1  0
 38 39  2  0
 25 40  1  0
 40 41  1  0
 41 42  1  0
 13  4  1  0
 18 14  1  0
 28 24  1  0
 39 29  1  0
 42 40  1  0
 12  8  1  0
 21 15  1  0
M  END
$$$$
