
     RDKit          3D

 42 48  0  0  0  0  0  0  0  0999 V2000
  161.9534  159.6091  132.2195 O   0  0  0  0  0  0  0  0  0  0  0  0
  163.3335  159.5562  132.3404 C   0  0  0  0  0  0  0  0  0  0  0  0
  163.8740  160.3283  133.1724 O   0  0  0  0  0  0  0  0  0  0  0  0
  164.1328  158.6477  131.5415 C   0  0  0  0  0  0  0  0  0  0  0  0
  165.4961  158.5735  131.5870 C   0  0  0  0  0  0  0  0  0  0  0  0
  166.2657  157.7327  130.8501 C   0  0  0  0  0  0  0  0  0  0  0  0
  167.6024  157.7767  131.0059 F   0  0  0  0  0  0  0  0  0  0  0  0
  165.6535  156.8376  129.9435 C   0  0  0  0  0  0  0  0  0  0  0  0
  166.2571  155.9785  129.1737 N   0  0  0  0  0  0  0  0  0  0  0  0
  165.5685  155.1956  128.3667 C   0  0  0  0  0  0  0  0  0  0  0  0
  163.9530  155.6924  128.7040 S   0  0  0  0  0  0  0  0  0  0  0  0
  164.2872  156.8952  129.8821 C   0  0  0  0  0  0  0  0  0  0  0  0
  163.5157  157.7753  130.6564 C   0  0  0  0  0  0  0  0  0  0  0  0
  166.0046  154.2104  127.4591 N   0  0  0  0  0  0  0  0  0  0  0  0
  165.4987  153.9361  126.1463 C   0  0  1  0  0  0  0  0  0  0  0  0
  166.8174  153.8877  125.3538 C   0  0  0  0  0  0  0  0  0  0  0  0
  167.8027  153.3652  126.3634 C   0  0  0  0  0  0  0  0  0  0  0  0
  167.0661  153.2647  127.6804 C   0  0  2  0  0  0  0  0  0  0  0  0
  166.3922  151.9167  127.8475 C   0  0  0  0  0  0  0  0  0  0  0  0
  165.7122  151.4548  126.5773 C   0  0  1  0  0  0  0  0  0  0  0  0
  164.8696  152.5616  126.0483 C   0  0  0  0  0  0  0  0  0  0  0  0
  166.5752  150.8838  125.6800 O   0  0  0  0  0  0  0  0  0  0  0  0
  165.9412  149.8524  124.9824 C   0  0  0  0  0  0  0  0  0  0  0  0
  166.4973  148.5256  125.3417 C   0  0  0  0  0  0  0  0  0  0  0  0
  165.8557  147.4534  125.9193 C   0  0  0  0  0  0  0  0  0  0  0  0
  166.7952  146.5122  126.0692 O   0  0  0  0  0  0  0  0  0  0  0  0
  167.9327  146.9217  125.6351 N   0  0  0  0  0  0  0  0  0  0  0  0
  167.8419  148.1795  125.1573 C   0  0  0  0  0  0  0  0  0  0  0  0
  168.9379  148.9528  124.5946 C   0  0  0  0  0  0  0  0  0  0  0  0
  170.2566  148.6150  124.9086 C   0  0  0  0  0  0  0  0  0  0  0  0
  170.4650  147.5547  125.7586 O   0  0  0  0  0  0  0  0  0  0  0  0
  170.6924  146.2369  125.3354 C   0  0  0  0  0  0  0  0  0  0  0  0
  170.6839  145.4144  126.4473 F   0  0  0  0  0  0  0  0  0  0  0  0
  171.8925  146.0626  124.6946 F   0  0  0  0  0  0  0  0  0  0  0  0
  169.7051  145.8047  124.4589 F   0  0  0  0  0  0  0  0  0  0  0  0
  171.3242  149.3168  124.3871 C   0  0  0  0  0  0  0  0  0  0  0  0
  171.1297  150.3821  123.5334 C   0  0  0  0  0  0  0  0  0  0  0  0
  169.8351  150.7256  123.2156 C   0  0  0  0  0  0  0  0  0  0  0  0
  168.7856  150.0192  123.7411 C   0  0  0  0  0  0  0  0  0  0  0  0
  164.4379  147.2934  126.3166 C   0  0  0  0  0  0  0  0  0  0  0  0
  164.2166  146.8724  127.8026 C   0  0  0  0  0  0  0  0  0  0  0  0
  163.9012  145.9285  126.7112 C   0  0  0  0  0  0  0  0  0  0  0  0
  1  2  1  0
  2  3  2  0
  2  4  1  0
  4  5  2  0
  5  6  1  0
  6  7  1  0
  6  8  2  0
  8  9  1  0
  9 10  2  0
 10 11  1  0
 11 12  1  0
 12 13  2  0
 10 14  1  0
 14 15  1  0
 15 16  1  6
 16 17  1  0
 18 17  1  6
 18 19  1  0
 19 20  1  0
 20 21  1  0
 20 22  1  6
 22 23  1  0
 23 24  1  0
 24 25  2  0
 25 26  1  0
 26 27  1  0
 27 28  2  0
 28 29  1  0
 29 30  2  0
 30 31  1  0
 31 32  1  0
 32 33  1  0
 32 34  1  0
 32 35  1  0
 30 36  1  0
 36 37  2  0
 37 38  1  0
 38 39  2  0
 25 40  1  0
 40 41  1  0
 41 42  1  0
 13  4  1  0
 18 14  1  0
 28 24  1  0
 39 29  1  0
 42 40  1  0
 12  8  1  0
 21 15  1  0
M  END
$$$$
