
     RDKit          3D

 42 48  0  0  0  0  0  0  0  0999 V2000
  199.7926  142.3953  128.5186 O   0  0  0  0  0  0  0  0  0  0  0  0
  200.8785  141.7337  127.9658 C   0  0  0  0  0  0  0  0  0  0  0  0
  201.1909  142.0181  126.7817 O   0  0  0  0  0  0  0  0  0  0  0  0
  201.6321  140.7487  128.7170 C   0  0  0  0  0  0  0  0  0  0  0  0
  202.8310  140.2268  128.3217 C   0  0  0  0  0  0  0  0  0  0  0  0
  203.5546  139.3050  129.0064 C   0  0  0  0  0  0  0  0  0  0  0  0
  204.7232  138.8845  128.4861 F   0  0  0  0  0  0  0  0  0  0  0  0
  203.0706  138.8105  130.2390 C   0  0  0  0  0  0  0  0  0  0  0  0
  203.6494  137.9296  131.0031 N   0  0  0  0  0  0  0  0  0  0  0  0
  203.0916  137.5483  132.1353 C   0  0  0  0  0  0  0  0  0  0  0  0
  201.6472  138.4886  132.1388 S   0  0  0  0  0  0  0  0  0  0  0  0
  201.8701  139.3206  130.6541 C   0  0  0  0  0  0  0  0  0  0  0  0
  201.1425  140.2740  129.9254 C   0  0  0  0  0  0  0  0  0  0  0  0
  203.5298  136.6226  133.1025 N   0  0  0  0  0  0  0  0  0  0  0  0
  204.6409  136.7453  133.9997 C   0  0  1  0  0  0  0  0  0  0  0  0
  203.9609  136.3590  135.3255 C   0  0  0  0  0  0  0  0  0  0  0  0
  202.9055  135.3777  134.8938 C   0  0  0  0  0  0  0  0  0  0  0  0
  202.9341  135.3431  133.3821 C   0  0  2  0  0  0  0  0  0  0  0  0
  203.9118  134.3079  132.8608 C   0  0  0  0  0  0  0  0  0  0  0  0
  205.2146  134.3118  133.6300 C   0  0  1  0  0  0  0  0  0  0  0  0
  205.7137  135.7102  133.7313 C   0  0  0  0  0  0  0  0  0  0  0  0
  205.1475  133.6178  134.8089 O   0  0  0  0  0  0  0  0  0  0  0  0
  206.1581  134.0354  135.6786 C   0  0  0  0  0  0  0  0  0  0  0  0
  206.9868  132.8965  136.1424 C   0  0  0  0  0  0  0  0  0  0  0  0
  208.3478  132.8507  136.3439 C   0  0  0  0  0  0  0  0  0  0  0  0
  208.6109  131.5961  136.7283 O   0  0  0  0  0  0  0  0  0  0  0  0
  207.5370  130.8927  136.7758 N   0  0  0  0  0  0  0  0  0  0  0  0
  206.4630  131.6283  136.4235 C   0  0  0  0  0  0  0  0  0  0  0  0
  205.0912  131.1485  136.3622 C   0  0  0  0  0  0  0  0  0  0  0  0
  204.4388  130.7642  137.5363 C   0  0  0  0  0  0  0  0  0  0  0  0
  205.1367  130.8476  138.7178 O   0  0  0  0  0  0  0  0  0  0  0  0
  205.1769  131.9892  139.5317 C   0  0  0  0  0  0  0  0  0  0  0  0
  204.8647  131.6134  140.8255 F   0  0  0  0  0  0  0  0  0  0  0  0
  204.2922  132.9672  139.1544 F   0  0  0  0  0  0  0  0  0  0  0  0
  206.4385  132.5709  139.5331 F   0  0  0  0  0  0  0  0  0  0  0  0
  203.1345  130.3138  137.5217 C   0  0  0  0  0  0  0  0  0  0  0  0
  202.4228  130.2253  136.3440 C   0  0  0  0  0  0  0  0  0  0  0  0
  203.0538  130.6009  135.1796 C   0  0  0  0  0  0  0  0  0  0  0  0
  204.3488  131.0463  135.2101 C   0  0  0  0  0  0  0  0  0  0  0  0
  209.3687  133.9130  136.1937 C   0  0  0  0  0  0  0  0  0  0  0  0
  210.7008  133.4527  135.5242 C   0  0  0  0  0  0  0  0  0  0  0  0
  210.6816  133.8279  136.9526 C   0  0  0  0  0  0  0  0  0  0  0  0
  1  2  1  0
  2  3  2  0
  2  4  1  0
  4  5  2  0
  5  6  1  0
  6  7  1  0
  6  8  2  0
  8  9  1  0
  9 10  2  0
 10 11  1  0
 11 12  1  0
 12 13  2  0
 10 14  1  0
 14 15  1  0
 15 16  1  1
 16 17  1  0
 18 17  1  1
 18 19  1  0
 19 20  1  0
 20 21  1  0
 20 22  1  1
 22 23  1  0
 23 24  1  0
 24 25  2  0
 25 26  1  0
 26 27  1  0
 27 28  2  0
 28 29  1  0
 29 30  2  0
 30 31  1  0
 31 32  1  0
 32 33  1  0
 32 34  1  0
 32 35  1  0
 30 36  1  0
 36 37  2  0
 37 38  1  0
 38 39  2  0
 25 40  1  0
 40 41  1  0
 41 42  1  0
 13  4  1  0
 18 14  1  0
 28 24  1  0
 39 29  1  0
 42 40  1  0
 12  8  1  0
 21 15  1  0
M  END
$$$$
