
     RDKit          3D

 42 48  0  0  0  0  0  0  0  0999 V2000
  192.8834  159.2183  120.8753 O   0  0  0  0  0  0  0  0  0  0  0  0
  191.5356  159.5307  120.7864 C   0  0  0  0  0  0  0  0  0  0  0  0
  191.2156  160.5344  120.1004 O   0  0  0  0  0  0  0  0  0  0  0  0
  190.5248  158.7355  121.4563 C   0  0  0  0  0  0  0  0  0  0  0  0
  189.1792  158.9439  121.3461 C   0  0  0  0  0  0  0  0  0  0  0  0
  188.2147  158.2144  121.9623 C   0  0  0  0  0  0  0  0  0  0  0  0
  186.9252  158.5425  121.7555 F   0  0  0  0  0  0  0  0  0  0  0  0
  188.5807  157.1364  122.8001 C   0  0  0  0  0  0  0  0  0  0  0  0
  187.7729  156.3525  123.4542 N   0  0  0  0  0  0  0  0  0  0  0  0
  188.2421  155.3773  124.2074 C   0  0  0  0  0  0  0  0  0  0  0  0
  189.9415  155.5640  123.9898 S   0  0  0  0  0  0  0  0  0  0  0  0
  189.9250  156.9099  122.9245 C   0  0  0  0  0  0  0  0  0  0  0  0
  190.9015  157.6807  122.2751 C   0  0  0  0  0  0  0  0  0  0  0  0
  187.5647  154.4240  124.9929 N   0  0  0  0  0  0  0  0  0  0  0  0
  186.1911  154.4353  125.4021 C   0  0  1  0  0  0  0  0  0  0  0  0
  185.7837  153.0013  125.0189 C   0  0  0  0  0  0  0  0  0  0  0  0
  187.0572  152.2231  125.2086 C   0  0  0  0  0  0  0  0  0  0  0  0
  188.1349  153.2270  125.5517 C   0  0  2  0  0  0  0  0  0  0  0  0
  188.2243  153.4689  127.0460 C   0  0  0  0  0  0  0  0  0  0  0  0
  186.8603  153.5923  127.6889 C   0  0  1  0  0  0  0  0  0  0  0  0
  186.0397  154.5548  126.9046 C   0  0  0  0  0  0  0  0  0  0  0  0
  186.2731  152.3818  127.9456 O   0  0  0  0  0  0  0  0  0  0  0  0
  186.9753  151.7012  128.9436 C   0  0  0  0  0  0  0  0  0  0  0  0
  187.0474  152.4898  130.1974 C   0  0  0  0  0  0  0  0  0  0  0  0
  186.0598  152.7119  131.1301 C   0  0  0  0  0  0  0  0  0  0  0  0
  186.6113  153.5094  132.0526 O   0  0  0  0  0  0  0  0  0  0  0  0
  187.8318  153.7812  131.7581 N   0  0  0  0  0  0  0  0  0  0  0  0
  188.1946  153.1818  130.6058 C   0  0  0  0  0  0  0  0  0  0  0  0
  189.5021  153.2789  129.9759 C   0  0  0  0  0  0  0  0  0  0  0  0
  190.1237  154.5246  129.8590 C   0  0  0  0  0  0  0  0  0  0  0  0
  189.4570  155.6252  130.3431 O   0  0  0  0  0  0  0  0  0  0  0  0
  189.5980  156.1228  131.6469 C   0  0  0  0  0  0  0  0  0  0  0  0
  189.5383  155.0589  132.5285 F   0  0  0  0  0  0  0  0  0  0  0  0
  188.6222  157.0182  132.0042 F   0  0  0  0  0  0  0  0  0  0  0  0
  190.8155  156.7698  131.8175 F   0  0  0  0  0  0  0  0  0  0  0  0
  191.3682  154.6574  129.2777 C   0  0  0  0  0  0  0  0  0  0  0  0
  192.0481  153.5622  128.7882 C   0  0  0  0  0  0  0  0  0  0  0  0
  191.4469  152.3286  128.8971 C   0  0  0  0  0  0  0  0  0  0  0  0
  190.2113  152.2127  129.4769 C   0  0  0  0  0  0  0  0  0  0  0  0
  184.6663  152.2127  131.1787 C   0  0  0  0  0  0  0  0  0  0  0  0
  183.5931  153.2947  131.5132 C   0  0  0  0  0  0  0  0  0  0  0  0
  183.8925  152.2240  132.4855 C   0  0  0  0  0  0  0  0  0  0  0  0
  1  2  1  0
  2  3  2  0
  2  4  1  0
  4  5  2  0
  5  6  1  0
  6  7  1  0
  6  8  2  0
  8  9  1  0
  9 10  2  0
 10 11  1  0
 11 12  1  0
 12 13  2  0
 10 14  1  0
 14 15  1  0
 15 16  1  1
 16 17  1  0
 18 17  1  1
 18 19  1  0
 19 20  1  0
 20 21  1  0
 20 22  1  6
 22 23  1  0
 23 24  1  0
 24 25  2  0
 25 26  1  0
 26 27  1  0
 27 28  2  0
 28 29  1  0
 29 30  2  0
 30 31  1  0
 31 32  1  0
 32 33  1  0
 32 34  1  0
 32 35  1  0
 30 36  1  0
 36 37  2  0
 37 38  1  0
 38 39  2  0
 25 40  1  0
 40 41  1  0
 41 42  1  0
 13  4  1  0
 18 14  1  0
 28 24  1  0
 39 29  1  0
 42 40  1  0
 12  8  1  0
 21 15  1  0
M  END
$$$$
