
     RDKit          3D

 42 48  0  0  0  0  0  0  0  0999 V2000
  129.2716  146.0438  139.8529 O   0  0  0  0  0  0  0  0  0  0  0  0
  128.4870  145.4725  138.8627 C   0  0  0  0  0  0  0  0  0  0  0  0
  127.2692  145.7833  138.8345 O   0  0  0  0  0  0  0  0  0  0  0  0
  129.0412  144.5497  137.8912 C   0  0  0  0  0  0  0  0  0  0  0  0
  130.3120  144.0505  137.9367 C   0  0  0  0  0  0  0  0  0  0  0  0
  130.8530  143.1867  137.0404 C   0  0  0  0  0  0  0  0  0  0  0  0
  132.1248  142.7823  137.2195 F   0  0  0  0  0  0  0  0  0  0  0  0
  130.0775  142.7345  135.9486 C   0  0  0  0  0  0  0  0  0  0  0  0
  130.4579  141.9119  135.0140 N   0  0  0  0  0  0  0  0  0  0  0  0
  129.6352  141.5667  134.0433 C   0  0  0  0  0  0  0  0  0  0  0  0
  128.2194  142.4559  134.4622 S   0  0  0  0  0  0  0  0  0  0  0  0
  128.8002  143.2226  135.8839 C   0  0  0  0  0  0  0  0  0  0  0  0
  128.2660  144.1157  136.8253 C   0  0  0  0  0  0  0  0  0  0  0  0
  129.8298  140.7075  132.9441 N   0  0  0  0  0  0  0  0  0  0  0  0
  131.0406  140.0564  132.5383 C   0  0  1  0  0  0  0  0  0  0  0  0
  130.5237  138.6189  132.3496 C   0  0  0  0  0  0  0  0  0  0  0  0
  129.0991  138.8238  131.9115 C   0  0  0  0  0  0  0  0  0  0  0  0
  128.8274  140.3094  131.9917 C   0  0  2  0  0  0  0  0  0  0  0  0
  129.1804  141.0173  130.6980 C   0  0  0  0  0  0  0  0  0  0  0  0
  130.4900  140.5305  130.1175 C   0  0  1  0  0  0  0  0  0  0  0  0
  131.5260  140.5362  131.1860 C   0  0  0  0  0  0  0  0  0  0  0  0
  130.3674  139.3613  129.4147 O   0  0  0  0  0  0  0  0  0  0  0  0
  130.0459  139.6256  128.0809 C   0  0  0  0  0  0  0  0  0  0  0  0
  131.1943  140.2088  127.3460 C   0  0  0  0  0  0  0  0  0  0  0  0
  131.4655  141.5335  127.0884 C   0  0  0  0  0  0  0  0  0  0  0  0
  132.5925  141.5345  126.3666 O   0  0  0  0  0  0  0  0  0  0  0  0
  133.0173  140.3379  126.1718 N   0  0  0  0  0  0  0  0  0  0  0  0
  132.2004  139.4358  126.7528 C   0  0  0  0  0  0  0  0  0  0  0  0
  132.3775  137.9923  126.7261 C   0  0  0  0  0  0  0  0  0  0  0  0
  133.6585  137.4493  126.8527 C   0  0  0  0  0  0  0  0  0  0  0  0
  134.7157  138.3176  126.9888 O   0  0  0  0  0  0  0  0  0  0  0  0
  135.3941  138.9097  125.9133 C   0  0  0  0  0  0  0  0  0  0  0  0
  136.2083  139.9113  126.4099 F   0  0  0  0  0  0  0  0  0  0  0  0
  134.5623  139.4710  124.9782 F   0  0  0  0  0  0  0  0  0  0  0  0
  136.1873  137.9886  125.2407 F   0  0  0  0  0  0  0  0  0  0  0  0
  133.8673  136.0852  126.8428 C   0  0  0  0  0  0  0  0  0  0  0  0
  132.8163  135.2030  126.7072 C   0  0  0  0  0  0  0  0  0  0  0  0
  131.5486  135.7248  126.5817 C   0  0  0  0  0  0  0  0  0  0  0  0
  131.3572  137.0811  126.5934 C   0  0  0  0  0  0  0  0  0  0  0  0
  130.7253  142.7523  127.4886 C   0  0  0  0  0  0  0  0  0  0  0  0
  130.4513  143.7628  126.3318 C   0  0  0  0  0  0  0  0  0  0  0  0
  131.3930  144.1143  127.4141 C   0  0  0  0  0  0  0  0  0  0  0  0
  1  2  1  0
  2  3  2  0
  2  4  1  0
  4  5  2  0
  5  6  1  0
  6  7  1  0
  6  8  2  0
  8  9  1  0
  9 10  2  0
 10 11  1  0
 11 12  1  0
 12 13  2  0
 10 14  1  0
 14 15  1  0
 15 16  1  6
 16 17  1  0
 18 17  1  6
 18 19  1  0
 19 20  1  0
 20 21  1  0
 20 22  1  1
 22 23  1  0
 23 24  1  0
 24 25  2  0
 25 26  1  0
 26 27  1  0
 27 28  2  0
 28 29  1  0
 29 30  2  0
 30 31  1  0
 31 32  1  0
 32 33  1  0
 32 34  1  0
 32 35  1  0
 30 36  1  0
 36 37  2  0
 37 38  1  0
 38 39  2  0
 25 40  1  0
 40 41  1  0
 41 42  1  0
 13  4  1  0
 18 14  1  0
 28 24  1  0
 39 29  1  0
 42 40  1  0
 12  8  1  0
 21 15  1  0
M  END
$$$$
