
     RDKit          3D

 42 48  0  0  0  0  0  0  0  0999 V2000
  205.0989  142.5929  130.2865 O   0  0  0  0  0  0  0  0  0  0  0  0
  204.3154  141.4491  130.3021 C   0  0  0  0  0  0  0  0  0  0  0  0
  203.3289  141.4098  129.5238 O   0  0  0  0  0  0  0  0  0  0  0  0
  204.6144  140.3344  131.1799 C   0  0  0  0  0  0  0  0  0  0  0  0
  205.6488  140.3089  132.0718 C   0  0  0  0  0  0  0  0  0  0  0  0
  205.9488  139.2787  132.9031 C   0  0  0  0  0  0  0  0  0  0  0  0
  207.0046  139.4019  133.7296 F   0  0  0  0  0  0  0  0  0  0  0  0
  205.1544  138.1098  132.8834 C   0  0  0  0  0  0  0  0  0  0  0  0
  205.3190  137.0468  133.6168 N   0  0  0  0  0  0  0  0  0  0  0  0
  204.5052  136.0157  133.5025 C   0  0  0  0  0  0  0  0  0  0  0  0
  203.4247  136.5667  132.2781 S   0  0  0  0  0  0  0  0  0  0  0  0
  204.1117  138.1143  131.9964 C   0  0  0  0  0  0  0  0  0  0  0  0
  203.8242  139.1943  131.1478 C   0  0  0  0  0  0  0  0  0  0  0  0
  204.4954  134.7811  134.1808 N   0  0  0  0  0  0  0  0  0  0  0  0
  205.0314  133.5279  133.7372 C   0  0  1  0  0  0  0  0  0  0  0  0
  205.8338  133.1206  134.9860 C   0  0  0  0  0  0  0  0  0  0  0  0
  205.0397  133.7231  136.1128 C   0  0  0  0  0  0  0  0  0  0  0  0
  203.9299  134.5326  135.4802 C   0  0  2  0  0  0  0  0  0  0  0  0
  202.6890  133.6951  135.2390 C   0  0  0  0  0  0  0  0  0  0  0  0
  203.0202  132.3265  134.6858 C   0  0  1  0  0  0  0  0  0  0  0  0
  203.9553  132.4805  133.5382 C   0  0  0  0  0  0  0  0  0  0  0  0
  203.4048  131.4331  135.6501 O   0  0  0  0  0  0  0  0  0  0  0  0
  202.2881  130.9326  136.3242 C   0  0  0  0  0  0  0  0  0  0  0  0
  202.6240  129.7285  137.1220 C   0  0  0  0  0  0  0  0  0  0  0  0
  202.8961  129.6390  138.4684 C   0  0  0  0  0  0  0  0  0  0  0  0
  203.1712  128.3487  138.6931 O   0  0  0  0  0  0  0  0  0  0  0  0
  203.0873  127.6631  137.6099 N   0  0  0  0  0  0  0  0  0  0  0  0
  202.7471  128.4483  136.5676 C   0  0  0  0  0  0  0  0  0  0  0  0
  202.5703  128.0029  135.1942 C   0  0  0  0  0  0  0  0  0  0  0  0
  203.5608  127.2293  134.5841 C   0  0  0  0  0  0  0  0  0  0  0  0
  204.6838  126.9258  135.3168 O   0  0  0  0  0  0  0  0  0  0  0  0
  205.6888  127.8495  135.6395 C   0  0  0  0  0  0  0  0  0  0  0  0
  205.9864  128.5837  134.5058 F   0  0  0  0  0  0  0  0  0  0  0  0
  206.8510  127.2689  136.0797 F   0  0  0  0  0  0  0  0  0  0  0  0
  205.2769  128.7246  136.6367 F   0  0  0  0  0  0  0  0  0  0  0  0
  203.4260  126.7783  133.2868 C   0  0  0  0  0  0  0  0  0  0  0  0
  202.3052  127.0750  132.5406 C   0  0  0  0  0  0  0  0  0  0  0  0
  201.3213  127.8365  133.1298 C   0  0  0  0  0  0  0  0  0  0  0  0
  201.4693  128.2767  134.4185 C   0  0  0  0  0  0  0  0  0  0  0  0
  202.9019  130.6911  139.5107 C   0  0  0  0  0  0  0  0  0  0  0  0
  204.2080  130.7648  140.3611 C   0  0  0  0  0  0  0  0  0  0  0  0
  202.9456  130.3139  140.9812 C   0  0  0  0  0  0  0  0  0  0  0  0
  1  2  1  0
  2  3  2  0
  2  4  1  0
  4  5  2  0
  5  6  1  0
  6  7  1  0
  6  8  2  0
  8  9  1  0
  9 10  2  0
 10 11  1  0
 11 12  1  0
 12 13  2  0
 10 14  1  0
 14 15  1  0
 15 16  1  1
 16 17  1  0
 18 17  1  1
 18 19  1  0
 19 20  1  0
 20 21  1  0
 20 22  1  1
 22 23  1  0
 23 24  1  0
 24 25  2  0
 25 26  1  0
 26 27  1  0
 27 28  2  0
 28 29  1  0
 29 30  2  0
 30 31  1  0
 31 32  1  0
 32 33  1  0
 32 34  1  0
 32 35  1  0
 30 36  1  0
 36 37  2  0
 37 38  1  0
 38 39  2  0
 25 40  1  0
 40 41  1  0
 41 42  1  0
 13  4  1  0
 18 14  1  0
 28 24  1  0
 39 29  1  0
 42 40  1  0
 12  8  1  0
 21 15  1  0
M  END
$$$$
