
     RDKit          3D

 42 48  0  0  0  0  0  0  0  0999 V2000
  113.7010  142.1337  146.3545 O   0  0  0  0  0  0  0  0  0  0  0  0
  114.7012  142.2127  147.3114 C   0  0  0  0  0  0  0  0  0  0  0  0
  115.6760  141.4267  147.1994 O   0  0  0  0  0  0  0  0  0  0  0  0
  114.6346  143.1630  148.4045 C   0  0  0  0  0  0  0  0  0  0  0  0
  113.5739  143.9892  148.6469 C   0  0  0  0  0  0  0  0  0  0  0  0
  113.4880  144.8859  149.6620 C   0  0  0  0  0  0  0  0  0  0  0  0
  112.3733  145.6333  149.7713 F   0  0  0  0  0  0  0  0  0  0  0  0
  114.5602  145.0152  150.5740 C   0  0  0  0  0  0  0  0  0  0  0  0
  114.6217  145.8271  151.5898 N   0  0  0  0  0  0  0  0  0  0  0  0
  115.6847  145.8527  152.3694 C   0  0  0  0  0  0  0  0  0  0  0  0
  116.6785  144.6527  151.6326 S   0  0  0  0  0  0  0  0  0  0  0  0
  115.6338  144.1962  150.3495 C   0  0  0  0  0  0  0  0  0  0  0  0
  115.6960  143.2770  149.2908 C   0  0  0  0  0  0  0  0  0  0  0  0
  115.9654  146.6382  153.5046 N   0  0  0  0  0  0  0  0  0  0  0  0
  116.5531  147.9449  153.5484 C   0  0  1  0  0  0  0  0  0  0  0  0
  115.5592  148.6564  154.4839 C   0  0  0  0  0  0  0  0  0  0  0  0
  115.0923  147.5499  155.3900 C   0  0  0  0  0  0  0  0  0  0  0  0
  115.7126  146.2714  154.8727 C   0  0  2  0  0  0  0  0  0  0  0  0
  117.0731  146.0148  155.4912 C   0  0  0  0  0  0  0  0  0  0  0  0
  117.9128  147.2709  155.5695 C   0  0  1  0  0  0  0  0  0  0  0  0
  117.8989  147.9470  154.2437 C   0  0  0  0  0  0  0  0  0  0  0  0
  117.6019  148.0621  156.6434 O   0  0  0  0  0  0  0  0  0  0  0  0
  118.6768  148.1194  157.5341 C   0  0  0  0  0  0  0  0  0  0  0  0
  118.8285  149.4718  158.1232 C   0  0  0  0  0  0  0  0  0  0  0  0
  118.1250  150.0403  159.1609 C   0  0  0  0  0  0  0  0  0  0  0  0
  118.6130  151.2799  159.2877 O   0  0  0  0  0  0  0  0  0  0  0  0
  119.5394  151.5020  158.4259 N   0  0  0  0  0  0  0  0  0  0  0  0
  119.7447  150.4191  157.6489 C   0  0  0  0  0  0  0  0  0  0  0  0
  120.7141  150.3233  156.5688 C   0  0  0  0  0  0  0  0  0  0  0  0
  122.0435  150.6874  156.7970 C   0  0  0  0  0  0  0  0  0  0  0  0
  122.3817  151.1382  158.0509 O   0  0  0  0  0  0  0  0  0  0  0  0
  121.9932  152.3801  158.5744 C   0  0  0  0  0  0  0  0  0  0  0  0
  122.2675  153.3552  157.6327 F   0  0  0  0  0  0  0  0  0  0  0  0
  122.6464  152.7198  159.7317 F   0  0  0  0  0  0  0  0  0  0  0  0
  120.6338  152.4114  158.8591 F   0  0  0  0  0  0  0  0  0  0  0  0
  122.9955  150.6009  155.8017 C   0  0  0  0  0  0  0  0  0  0  0  0
  122.6703  150.1504  154.5398 C   0  0  0  0  0  0  0  0  0  0  0  0
  121.3638  149.7882  154.3013 C   0  0  0  0  0  0  0  0  0  0  0  0
  120.4300  149.8794  155.2994 C   0  0  0  0  0  0  0  0  0  0  0  0
  117.0502  149.4720  160.0066 C   0  0  0  0  0  0  0  0  0  0  0  0
  117.4251  149.2909  161.5103 C   0  0  0  0  0  0  0  0  0  0  0  0
  117.2215  148.1073  160.6506 C   0  0  0  0  0  0  0  0  0  0  0  0
  1  2  1  0
  2  3  2  0
  2  4  1  0
  4  5  2  0
  5  6  1  0
  6  7  1  0
  6  8  2  0
  8  9  1  0
  9 10  2  0
 10 11  1  0
 11 12  1  0
 12 13  2  0
 10 14  1  0
 14 15  1  0
 15 16  1  1
 16 17  1  0
 18 17  1  1
 18 19  1  0
 19 20  1  0
 20 21  1  0
 20 22  1  1
 22 23  1  0
 23 24  1  0
 24 25  2  0
 25 26  1  0
 26 27  1  0
 27 28  2  0
 28 29  1  0
 29 30  2  0
 30 31  1  0
 31 32  1  0
 32 33  1  0
 32 34  1  0
 32 35  1  0
 30 36  1  0
 36 37  2  0
 37 38  1  0
 38 39  2  0
 25 40  1  0
 40 41  1  0
 41 42  1  0
 13  4  1  0
 18 14  1  0
 28 24  1  0
 39 29  1  0
 42 40  1  0
 12  8  1  0
 21 15  1  0
M  END
$$$$
