
     RDKit          3D

 42 48  0  0  0  0  0  0  0  0999 V2000
  202.4573  142.9527  126.5502 O   0  0  0  0  0  0  0  0  0  0  0  0
  201.4759  142.8317  127.5222 C   0  0  0  0  0  0  0  0  0  0  0  0
  200.4367  143.5263  127.3882 O   0  0  0  0  0  0  0  0  0  0  0  0
  201.6331  141.9402  128.6548 C   0  0  0  0  0  0  0  0  0  0  0  0
  200.6941  141.7567  129.6300 C   0  0  0  0  0  0  0  0  0  0  0  0
  200.8176  140.9290  130.6986 C   0  0  0  0  0  0  0  0  0  0  0  0
  199.8018  140.8550  131.5793 F   0  0  0  0  0  0  0  0  0  0  0  0
  201.9987  140.1700  130.8629 C   0  0  0  0  0  0  0  0  0  0  0  0
  202.2598  139.3401  131.8313 N   0  0  0  0  0  0  0  0  0  0  0  0
  203.4058  138.6894  131.8716 C   0  0  0  0  0  0  0  0  0  0  0  0
  204.1832  139.2773  130.4502 S   0  0  0  0  0  0  0  0  0  0  0  0
  202.9532  140.3388  129.8962 C   0  0  0  0  0  0  0  0  0  0  0  0
  202.7989  141.2022  128.8008 C   0  0  0  0  0  0  0  0  0  0  0  0
  203.8951  137.7597  132.8100 N   0  0  0  0  0  0  0  0  0  0  0  0
  205.0858  136.9662  132.7255 C   0  0  1  0  0  0  0  0  0  0  0  0
  205.6932  137.2426  134.1125 C   0  0  0  0  0  0  0  0  0  0  0  0
  204.4816  137.4500  134.9799 C   0  0  0  0  0  0  0  0  0  0  0  0
  203.2787  137.4169  134.0640 C   0  0  2  0  0  0  0  0  0  0  0  0
  202.7411  136.0096  133.8906 C   0  0  0  0  0  0  0  0  0  0  0  0
  203.8463  134.9932  133.7047 C   0  0  1  0  0  0  0  0  0  0  0  0
  204.7848  135.4831  132.6587 C   0  0  0  0  0  0  0  0  0  0  0  0
  204.4226  134.6007  134.8836 O   0  0  0  0  0  0  0  0  0  0  0  0
  203.4401  134.3098  135.8334 C   0  0  0  0  0  0  0  0  0  0  0  0
  202.9099  132.9347  135.6694 C   0  0  0  0  0  0  0  0  0  0  0  0
  201.5984  132.5237  135.5909 C   0  0  0  0  0  0  0  0  0  0  0  0
  201.6468  131.1908  135.4815 O   0  0  0  0  0  0  0  0  0  0  0  0
  202.8608  130.7706  135.4863 N   0  0  0  0  0  0  0  0  0  0  0  0
  203.7261  131.7986  135.6005 C   0  0  0  0  0  0  0  0  0  0  0  0
  205.1755  131.6845  135.6439 C   0  0  0  0  0  0  0  0  0  0  0  0
  205.8558  131.0912  134.5776 C   0  0  0  0  0  0  0  0  0  0  0  0
  205.1126  130.6233  133.5199 O   0  0  0  0  0  0  0  0  0  0  0  0
  204.9218  131.3225  132.3190 C   0  0  0  0  0  0  0  0  0  0  0  0
  205.1274  132.6686  132.5609 F   0  0  0  0  0  0  0  0  0  0  0  0
  203.6640  131.1790  131.7909 F   0  0  0  0  0  0  0  0  0  0  0  0
  205.8158  130.9084  131.3395 F   0  0  0  0  0  0  0  0  0  0  0  0
  207.2308  130.9736  134.5758 C   0  0  0  0  0  0  0  0  0  0  0  0
  207.9885  131.4386  135.6299 C   0  0  0  0  0  0  0  0  0  0  0  0
  207.3308  132.0256  136.6872 C   0  0  0  0  0  0  0  0  0  0  0  0
  205.9654  132.1353  136.6744 C   0  0  0  0  0  0  0  0  0  0  0  0
  200.3488  133.3183  135.6120 C   0  0  0  0  0  0  0  0  0  0  0  0
  199.3490  132.9381  136.7480 C   0  0  0  0  0  0  0  0  0  0  0  0
  199.0115  132.6521  135.3388 C   0  0  0  0  0  0  0  0  0  0  0  0
  1  2  1  0
  2  3  2  0
  2  4  1  0
  4  5  2  0
  5  6  1  0
  6  7  1  0
  6  8  2  0
  8  9  1  0
  9 10  2  0
 10 11  1  0
 11 12  1  0
 12 13  2  0
 10 14  1  0
 14 15  1  0
 15 16  1  1
 16 17  1  0
 18 17  1  1
 18 19  1  0
 19 20  1  0
 20 21  1  0
 20 22  1  1
 22 23  1  0
 23 24  1  0
 24 25  2  0
 25 26  1  0
 26 27  1  0
 27 28  2  0
 28 29  1  0
 29 30  2  0
 30 31  1  0
 31 32  1  0
 32 33  1  0
 32 34  1  0
 32 35  1  0
 30 36  1  0
 36 37  2  0
 37 38  1  0
 38 39  2  0
 25 40  1  0
 40 41  1  0
 41 42  1  0
 13  4  1  0
 18 14  1  0
 28 24  1  0
 39 29  1  0
 42 40  1  0
 12  8  1  0
 21 15  1  0
M  END
$$$$
