
     RDKit          3D

 42 48  0  0  0  0  0  0  0  0999 V2000
  208.0511  121.9826  130.4202 O   0  0  0  0  0  0  0  0  0  0  0  0
  207.7962  122.0577  131.7810 C   0  0  0  0  0  0  0  0  0  0  0  0
  208.0815  121.0538  132.4820 O   0  0  0  0  0  0  0  0  0  0  0  0
  207.2219  123.2453  132.3828 C   0  0  0  0  0  0  0  0  0  0  0  0
  206.9559  123.3850  133.7155 C   0  0  0  0  0  0  0  0  0  0  0  0
  206.4193  124.4851  134.3020 C   0  0  0  0  0  0  0  0  0  0  0  0
  206.2147  124.4729  135.6328 F   0  0  0  0  0  0  0  0  0  0  0  0
  206.0897  125.6092  133.5110 C   0  0  0  0  0  0  0  0  0  0  0  0
  205.5711  126.7277  133.9293 N   0  0  0  0  0  0  0  0  0  0  0  0
  205.3077  127.7062  133.0858 C   0  0  0  0  0  0  0  0  0  0  0  0
  205.8215  127.0176  131.5916 S   0  0  0  0  0  0  0  0  0  0  0  0
  206.3483  125.4905  132.1720 C   0  0  0  0  0  0  0  0  0  0  0  0
  206.9043  124.3401  131.5917 C   0  0  0  0  0  0  0  0  0  0  0  0
  204.7536  128.9815  133.3115 N   0  0  0  0  0  0  0  0  0  0  0  0
  204.5511  130.0350  132.3607 C   0  0  1  0  0  0  0  0  0  0  0  0
  203.0867  130.3967  132.6669 C   0  0  0  0  0  0  0  0  0  0  0  0
  202.9640  130.1053  134.1377 C   0  0  0  0  0  0  0  0  0  0  0  0
  204.2743  129.4865  134.5705 C   0  0  2  0  0  0  0  0  0  0  0  0
  205.2774  130.5376  135.0046 C   0  0  0  0  0  0  0  0  0  0  0  0
  205.2894  131.7346  134.0794 C   0  0  1  0  0  0  0  0  0  0  0  0
  205.3869  131.2593  132.6725 C   0  0  0  0  0  0  0  0  0  0  0  0
  204.2820  132.6261  134.3371 O   0  0  0  0  0  0  0  0  0  0  0  0
  204.2013  133.5786  133.3181 C   0  0  0  0  0  0  0  0  0  0  0  0
  203.8704  134.9228  133.8498 C   0  0  0  0  0  0  0  0  0  0  0  0
  202.8177  135.7437  133.5140 C   0  0  0  0  0  0  0  0  0  0  0  0
  202.9821  136.8534  134.2438 O   0  0  0  0  0  0  0  0  0  0  0  0
  204.0304  136.7700  134.9816 N   0  0  0  0  0  0  0  0  0  0  0  0
  204.6543  135.5881  134.8009 C   0  0  0  0  0  0  0  0  0  0  0  0
  205.8729  135.1626  135.4713 C   0  0  0  0  0  0  0  0  0  0  0  0
  207.0511  135.8925  135.2953 C   0  0  0  0  0  0  0  0  0  0  0  0
  207.0099  136.9941  134.4739 O   0  0  0  0  0  0  0  0  0  0  0  0
  207.9177  137.2362  133.4324 C   0  0  0  0  0  0  0  0  0  0  0  0
  207.6709  138.4984  132.9236 F   0  0  0  0  0  0  0  0  0  0  0  0
  207.8215  136.3412  132.3975 F   0  0  0  0  0  0  0  0  0  0  0  0
  209.2321  137.1897  133.8798 F   0  0  0  0  0  0  0  0  0  0  0  0
  208.2253  135.5279  135.9222 C   0  0  0  0  0  0  0  0  0  0  0  0
  208.2809  134.4257  136.7487 C   0  0  0  0  0  0  0  0  0  0  0  0
  207.1269  133.6975  136.9309 C   0  0  0  0  0  0  0  0  0  0  0  0
  205.9690  134.0720  136.3021 C   0  0  0  0  0  0  0  0  0  0  0  0
  201.7025  135.5220  132.5650 C   0  0  0  0  0  0  0  0  0  0  0  0
  201.2357  134.0388  132.4364 C   0  0  0  0  0  0  0  0  0  0  0  0
  201.9185  134.7004  131.3061 C   0  0  0  0  0  0  0  0  0  0  0  0
  1  2  1  0
  2  3  2  0
  2  4  1  0
  4  5  2  0
  5  6  1  0
  6  7  1  0
  6  8  2  0
  8  9  1  0
  9 10  2  0
 10 11  1  0
 11 12  1  0
 12 13  2  0
 10 14  1  0
 14 15  1  0
 15 16  1  1
 16 17  1  0
 18 17  1  6
 18 19  1  0
 19 20  1  0
 20 21  1  0
 20 22  1  6
 22 23  1  0
 23 24  1  0
 24 25  2  0
 25 26  1  0
 26 27  1  0
 27 28  2  0
 28 29  1  0
 29 30  2  0
 30 31  1  0
 31 32  1  0
 32 33  1  0
 32 34  1  0
 32 35  1  0
 30 36  1  0
 36 37  2  0
 37 38  1  0
 38 39  2  0
 25 40  1  0
 40 41  1  0
 41 42  1  0
 13  4  1  0
 18 14  1  0
 28 24  1  0
 39 29  1  0
 42 40  1  0
 12  8  1  0
 21 15  1  0
M  END
$$$$
