
     RDKit          3D

 42 48  0  0  0  0  0  0  0  0999 V2000
  193.6577  153.9393  124.5155 O   0  0  0  0  0  0  0  0  0  0  0  0
  194.2936  154.4922  123.4146 C   0  0  0  0  0  0  0  0  0  0  0  0
  195.4564  154.0921  123.1533 O   0  0  0  0  0  0  0  0  0  0  0  0
  193.6500  155.4955  122.5889 C   0  0  0  0  0  0  0  0  0  0  0  0
  194.1712  155.9911  121.4275 C   0  0  0  0  0  0  0  0  0  0  0  0
  193.5888  156.9292  120.6382 C   0  0  0  0  0  0  0  0  0  0  0  0
  194.2280  157.3192  119.5191 F   0  0  0  0  0  0  0  0  0  0  0  0
  192.3359  157.4716  121.0043 C   0  0  0  0  0  0  0  0  0  0  0  0
  191.6598  158.3730  120.3523 N   0  0  0  0  0  0  0  0  0  0  0  0
  190.4960  158.7996  120.8019 C   0  0  0  0  0  0  0  0  0  0  0  0
  190.3273  157.8745  122.2463 S   0  0  0  0  0  0  0  0  0  0  0  0
  191.7952  156.9885  122.1654 C   0  0  0  0  0  0  0  0  0  0  0  0
  192.4199  156.0174  122.9629 C   0  0  0  0  0  0  0  0  0  0  0  0
  189.6067  159.7543  120.2710 N   0  0  0  0  0  0  0  0  0  0  0  0
  189.8241  160.6434  119.1678 C   0  0  1  0  0  0  0  0  0  0  0  0
  188.5325  160.4001  118.3667 C   0  0  0  0  0  0  0  0  0  0  0  0
  187.5228  160.0839  119.4361 C   0  0  0  0  0  0  0  0  0  0  0  0
  188.2769  160.0301  120.7459 C   0  0  2  0  0  0  0  0  0  0  0  0
  188.3481  161.3909  121.4111 C   0  0  0  0  0  0  0  0  0  0  0  0
  188.6502  162.4963  120.4233 C   0  0  1  0  0  0  0  0  0  0  0  0
  189.8182  162.0976  119.5916 C   0  0  0  0  0  0  0  0  0  0  0  0
  187.5457  162.9198  119.7328 O   0  0  0  0  0  0  0  0  0  0  0  0
  186.6271  163.5157  120.6007 C   0  0  0  0  0  0  0  0  0  0  0  0
  186.9120  164.9581  120.7937 C   0  0  0  0  0  0  0  0  0  0  0  0
  187.3039  165.6099  121.9411 C   0  0  0  0  0  0  0  0  0  0  0  0
  187.3963  166.9020  121.6051 O   0  0  0  0  0  0  0  0  0  0  0  0
  187.0982  167.0802  120.3683 N   0  0  0  0  0  0  0  0  0  0  0  0
  186.7803  165.9111  119.7759 C   0  0  0  0  0  0  0  0  0  0  0  0
  186.3883  165.7457  118.3849 C   0  0  0  0  0  0  0  0  0  0  0  0
  185.1203  166.1591  117.9689 C   0  0  0  0  0  0  0  0  0  0  0  0
  184.2794  166.7042  118.9101 O   0  0  0  0  0  0  0  0  0  0  0  0
  184.3629  168.0259  119.3719 C   0  0  0  0  0  0  0  0  0  0  0  0
  183.2736  168.2723  120.1877 F   0  0  0  0  0  0  0  0  0  0  0  0
  184.3558  168.9621  118.3694 F   0  0  0  0  0  0  0  0  0  0  0  0
  185.5222  168.2374  120.1076 F   0  0  0  0  0  0  0  0  0  0  0  0
  184.7146  166.0293  116.6563 C   0  0  0  0  0  0  0  0  0  0  0  0
  185.5476  165.4847  115.7020 C   0  0  0  0  0  0  0  0  0  0  0  0
  186.8000  165.0732  116.0985 C   0  0  0  0  0  0  0  0  0  0  0  0
  187.1886  165.2088  117.4050 C   0  0  0  0  0  0  0  0  0  0  0  0
  187.5860  165.0729  123.2921 C   0  0  0  0  0  0  0  0  0  0  0  0
  186.4516  164.1883  123.8965 C   0  0  0  0  0  0  0  0  0  0  0  0
  186.7498  165.5112  124.4818 C   0  0  0  0  0  0  0  0  0  0  0  0
  1  2  1  0
  2  3  2  0
  2  4  1  0
  4  5  2  0
  5  6  1  0
  6  7  1  0
  6  8  2  0
  8  9  1  0
  9 10  2  0
 10 11  1  0
 11 12  1  0
 12 13  2  0
 10 14  1  0
 14 15  1  0
 15 16  1  6
 16 17  1  0
 18 17  1  6
 18 19  1  0
 19 20  1  0
 20 21  1  0
 20 22  1  6
 22 23  1  0
 23 24  1  0
 24 25  2  0
 25 26  1  0
 26 27  1  0
 27 28  2  0
 28 29  1  0
 29 30  2  0
 30 31  1  0
 31 32  1  0
 32 33  1  0
 32 34  1  0
 32 35  1  0
 30 36  1  0
 36 37  2  0
 37 38  1  0
 38 39  2  0
 25 40  1  0
 40 41  1  0
 41 42  1  0
 13  4  1  0
 18 14  1  0
 28 24  1  0
 39 29  1  0
 42 40  1  0
 12  8  1  0
 21 15  1  0
M  END
$$$$
