
     RDKit          3D

 42 48  0  0  0  0  0  0  0  0999 V2000
  118.5881  159.0694  141.6688 O   0  0  0  0  0  0  0  0  0  0  0  0
  117.3668  159.4657  142.1918 C   0  0  0  0  0  0  0  0  0  0  0  0
  116.4722  158.5900  142.3071 O   0  0  0  0  0  0  0  0  0  0  0  0
  117.1205  160.8370  142.5937 C   0  0  0  0  0  0  0  0  0  0  0  0
  115.9410  161.2901  143.1131 C   0  0  0  0  0  0  0  0  0  0  0  0
  115.6863  162.5671  143.4961 C   0  0  0  0  0  0  0  0  0  0  0  0
  114.4698  162.8624  143.9921 F   0  0  0  0  0  0  0  0  0  0  0  0
  116.6936  163.5502  143.3673 C   0  0  0  0  0  0  0  0  0  0  0  0
  116.5966  164.8079  143.6894 N   0  0  0  0  0  0  0  0  0  0  0  0
  117.6145  165.6284  143.5187 C   0  0  0  0  0  0  0  0  0  0  0  0
  118.8016  164.5681  142.8577 S   0  0  0  0  0  0  0  0  0  0  0  0
  117.8842  163.1174  142.8488 C   0  0  0  0  0  0  0  0  0  0  0  0
  118.1205  161.7896  142.4606 C   0  0  0  0  0  0  0  0  0  0  0  0
  117.7322  167.0057  143.7902 N   0  0  0  0  0  0  0  0  0  0  0  0
  118.8167  167.8805  143.4537 C   0  0  1  0  0  0  0  0  0  0  0  0
  118.0363  169.0463  142.8205 C   0  0  0  0  0  0  0  0  0  0  0  0
  116.7321  169.0305  143.5704 C   0  0  0  0  0  0  0  0  0  0  0  0
  116.7645  167.8200  144.4762 C   0  0  2  0  0  0  0  0  0  0  0  0
  117.3762  168.1424  145.8257 C   0  0  0  0  0  0  0  0  0  0  0  0
  118.6073  169.0134  145.7032 C   0  0  1  0  0  0  0  0  0  0  0  0
  119.5163  168.4273  144.6809 C   0  0  0  0  0  0  0  0  0  0  0  0
  118.3148  170.3423  145.5466 O   0  0  0  0  0  0  0  0  0  0  0  0
  119.4782  171.0696  145.2824 C   0  0  0  0  0  0  0  0  0  0  0  0
  119.2874  172.0189  144.1593 C   0  0  0  0  0  0  0  0  0  0  0  0
  119.9641  172.0799  142.9621 C   0  0  0  0  0  0  0  0  0  0  0  0
  119.4456  173.1277  142.3107 O   0  0  0  0  0  0  0  0  0  0  0  0
  118.5252  173.6940  143.0052 N   0  0  0  0  0  0  0  0  0  0  0  0
  118.3552  173.0639  144.1853 C   0  0  0  0  0  0  0  0  0  0  0  0
  117.4020  173.4412  145.2172 C   0  0  0  0  0  0  0  0  0  0  0  0
  116.0366  173.2311  145.0088 C   0  0  0  0  0  0  0  0  0  0  0  0
  115.6451  172.6771  143.8130 O   0  0  0  0  0  0  0  0  0  0  0  0
  116.2821  172.9163  142.5865 C   0  0  0  0  0  0  0  0  0  0  0  0
  117.5057  172.2717  142.5977 F   0  0  0  0  0  0  0  0  0  0  0  0
  116.5107  174.2449  142.3334 F   0  0  0  0  0  0  0  0  0  0  0  0
  115.5363  172.4293  141.5204 F   0  0  0  0  0  0  0  0  0  0  0  0
  115.1014  173.5654  145.9670 C   0  0  0  0  0  0  0  0  0  0  0  0
  115.4799  174.1215  147.1707 C   0  0  0  0  0  0  0  0  0  0  0  0
  116.8224  174.3339  147.3890 C   0  0  0  0  0  0  0  0  0  0  0  0
  117.7389  173.9966  146.4283 C   0  0  0  0  0  0  0  0  0  0  0  0
  121.0414  171.2127  142.4321 C   0  0  0  0  0  0  0  0  0  0  0  0
  120.8769  170.8029  140.9356 C   0  0  0  0  0  0  0  0  0  0  0  0
  120.7371  169.7888  142.0002 C   0  0  0  0  0  0  0  0  0  0  0  0
  1  2  1  0
  2  3  2  0
  2  4  1  0
  4  5  2  0
  5  6  1  0
  6  7  1  0
  6  8  2  0
  8  9  1  0
  9 10  2  0
 10 11  1  0
 11 12  1  0
 12 13  2  0
 10 14  1  0
 14 15  1  0
 15 16  1  1
 16 17  1  0
 18 17  1  6
 18 19  1  0
 19 20  1  0
 20 21  1  0
 20 22  1  6
 22 23  1  0
 23 24  1  0
 24 25  2  0
 25 26  1  0
 26 27  1  0
 27 28  2  0
 28 29  1  0
 29 30  2  0
 30 31  1  0
 31 32  1  0
 32 33  1  0
 32 34  1  0
 32 35  1  0
 30 36  1  0
 36 37  2  0
 37 38  1  0
 38 39  2  0
 25 40  1  0
 40 41  1  0
 41 42  1  0
 13  4  1  0
 18 14  1  0
 28 24  1  0
 39 29  1  0
 42 40  1  0
 12  8  1  0
 21 15  1  0
M  END
$$$$
