
     RDKit          3D

 42 48  0  0  0  0  0  0  0  0999 V2000
  183.1777  172.5158  150.8596 O   0  0  0  0  0  0  0  0  0  0  0  0
  183.8785  171.3205  150.9090 C   0  0  0  0  0  0  0  0  0  0  0  0
  183.2310  170.2781  151.1822 O   0  0  0  0  0  0  0  0  0  0  0  0
  185.3053  171.2644  150.6567 C   0  0  0  0  0  0  0  0  0  0  0  0
  186.0890  170.1700  150.8900 C   0  0  0  0  0  0  0  0  0  0  0  0
  187.4248  170.0930  150.6624 C   0  0  0  0  0  0  0  0  0  0  0  0
  188.0628  168.9412  150.9438 F   0  0  0  0  0  0  0  0  0  0  0  0
  188.1112  171.2128  150.1401 C   0  0  0  0  0  0  0  0  0  0  0  0
  189.3830  171.2883  149.8723 N   0  0  0  0  0  0  0  0  0  0  0  0
  189.9053  172.3970  149.3860 C   0  0  0  0  0  0  0  0  0  0  0  0
  188.5188  173.4164  149.2930 S   0  0  0  0  0  0  0  0  0  0  0  0
  187.3443  172.3208  149.8986 C   0  0  0  0  0  0  0  0  0  0  0  0
  185.9636  172.3728  150.1435 C   0  0  0  0  0  0  0  0  0  0  0  0
  191.2341  172.7004  149.0301 N   0  0  0  0  0  0  0  0  0  0  0  0
  192.3739  172.8105  149.8923 C   0  0  1  0  0  0  0  0  0  0  0  0
  193.3785  171.9326  149.1246 C   0  0  0  0  0  0  0  0  0  0  0  0
  192.9715  172.1247  147.6891 C   0  0  0  0  0  0  0  0  0  0  0  0
  191.7156  172.9670  147.7007 C   0  0  2  0  0  0  0  0  0  0  0  0
  192.0314  174.4497  147.6639 C   0  0  0  0  0  0  0  0  0  0  0  0
  193.1801  174.8136  148.5788 C   0  0  1  0  0  0  0  0  0  0  0  0
  192.9402  174.2151  149.9201 C   0  0  0  0  0  0  0  0  0  0  0  0
  194.4090  174.5640  148.0278 O   0  0  0  0  0  0  0  0  0  0  0  0
  194.9317  175.7264  147.4553 C   0  0  0  0  0  0  0  0  0  0  0  0
  196.3585  175.9182  147.8109 C   0  0  0  0  0  0  0  0  0  0  0  0
  196.9415  176.9655  148.4877 C   0  0  0  0  0  0  0  0  0  0  0  0
  198.2496  176.6851  148.5231 O   0  0  0  0  0  0  0  0  0  0  0  0
  198.4995  175.5714  147.9336 N   0  0  0  0  0  0  0  0  0  0  0  0
  197.3683  175.0157  147.4536 C   0  0  0  0  0  0  0  0  0  0  0  0
  197.2846  173.7582  146.7275 C   0  0  0  0  0  0  0  0  0  0  0  0
  197.8358  172.6004  147.2819 C   0  0  0  0  0  0  0  0  0  0  0  0
  198.4533  172.7031  148.5060 O   0  0  0  0  0  0  0  0  0  0  0  0
  197.8398  172.3910  149.7280 C   0  0  0  0  0  0  0  0  0  0  0  0
  196.9113  173.3755  150.0137 F   0  0  0  0  0  0  0  0  0  0  0  0
  198.7142  172.3212  150.7824 F   0  0  0  0  0  0  0  0  0  0  0  0
  197.1833  171.1680  149.6720 F   0  0  0  0  0  0  0  0  0  0  0  0
  197.7679  171.3860  146.6298 C   0  0  0  0  0  0  0  0  0  0  0  0
  197.1516  171.2685  145.4020 C   0  0  0  0  0  0  0  0  0  0  0  0
  196.6041  172.4017  144.8443 C   0  0  0  0  0  0  0  0  0  0  0  0
  196.6792  173.6000  145.5038 C   0  0  0  0  0  0  0  0  0  0  0  0
  196.3271  178.1749  149.0820 C   0  0  0  0  0  0  0  0  0  0  0  0
  196.2134  179.3950  148.1162 C   0  0  0  0  0  0  0  0  0  0  0  0
  197.1452  179.4418  149.2613 C   0  0  0  0  0  0  0  0  0  0  0  0
  1  2  1  0
  2  3  2  0
  2  4  1  0
  4  5  2  0
  5  6  1  0
  6  7  1  0
  6  8  2  0
  8  9  1  0
  9 10  2  0
 10 11  1  0
 11 12  1  0
 12 13  2  0
 10 14  1  0
 14 15  1  0
 15 16  1  6
 16 17  1  0
 18 17  1  1
 18 19  1  0
 19 20  1  0
 20 21  1  0
 20 22  1  6
 22 23  1  0
 23 24  1  0
 24 25  2  0
 25 26  1  0
 26 27  1  0
 27 28  2  0
 28 29  1  0
 29 30  2  0
 30 31  1  0
 31 32  1  0
 32 33  1  0
 32 34  1  0
 32 35  1  0
 30 36  1  0
 36 37  2  0
 37 38  1  0
 38 39  2  0
 25 40  1  0
 40 41  1  0
 41 42  1  0
 13  4  1  0
 18 14  1  0
 28 24  1  0
 39 29  1  0
 42 40  1  0
 12  8  1  0
 21 15  1  0
M  END
$$$$
