
     RDKit          3D

 42 48  0  0  0  0  0  0  0  0999 V2000
  184.6408  159.7149  135.7922 O   0  0  0  0  0  0  0  0  0  0  0  0
  185.7729  159.1320  136.3409 C   0  0  0  0  0  0  0  0  0  0  0  0
  185.6089  158.1340  137.0877 O   0  0  0  0  0  0  0  0  0  0  0  0
  187.1010  159.6469  136.0697 C   0  0  0  0  0  0  0  0  0  0  0  0
  188.2374  159.2233  136.6984 C   0  0  0  0  0  0  0  0  0  0  0  0
  189.4902  159.6892  136.4624 C   0  0  0  0  0  0  0  0  0  0  0  0
  190.5152  159.1711  137.1653 F   0  0  0  0  0  0  0  0  0  0  0  0
  189.6902  160.6987  135.4935 C   0  0  0  0  0  0  0  0  0  0  0  0
  190.8259  161.2415  135.1610 N   0  0  0  0  0  0  0  0  0  0  0  0
  190.8799  162.1803  134.2369 C   0  0  0  0  0  0  0  0  0  0  0  0
  189.2201  162.3206  133.7942 S   0  0  0  0  0  0  0  0  0  0  0  0
  188.5641  161.1378  134.8511 C   0  0  0  0  0  0  0  0  0  0  0  0
  187.2796  160.6379  135.1151 C   0  0  0  0  0  0  0  0  0  0  0  0
  191.9801  162.8975  133.7274 N   0  0  0  0  0  0  0  0  0  0  0  0
  191.9663  163.9911  132.8009 C   0  0  1  0  0  0  0  0  0  0  0  0
  192.8820  164.9829  133.5407 C   0  0  0  0  0  0  0  0  0  0  0  0
  193.8358  164.0820  134.2768 C   0  0  0  0  0  0  0  0  0  0  0  0
  193.3640  162.6641  134.0443 C   0  0  2  0  0  0  0  0  0  0  0  0
  193.9796  162.0633  132.7955 C   0  0  0  0  0  0  0  0  0  0  0  0
  193.9998  163.0398  131.6401 C   0  0  1  0  0  0  0  0  0  0  0  0
  192.6483  163.6455  131.4933 C   0  0  0  0  0  0  0  0  0  0  0  0
  195.0443  163.9240  131.6989 O   0  0  0  0  0  0  0  0  0  0  0  0
  195.4130  164.3290  130.4135 C   0  0  0  0  0  0  0  0  0  0  0  0
  196.8207  163.9746  130.1104 C   0  0  0  0  0  0  0  0  0  0  0  0
  197.3062  162.8557  129.4723 C   0  0  0  0  0  0  0  0  0  0  0  0
  198.6376  162.9903  129.4768 O   0  0  0  0  0  0  0  0  0  0  0  0
  198.9896  164.0821  130.0550 N   0  0  0  0  0  0  0  0  0  0  0  0
  197.9117  164.7684  130.4862 C   0  0  0  0  0  0  0  0  0  0  0  0
  197.9438  166.0426  131.1869 C   0  0  0  0  0  0  0  0  0  0  0  0
  198.9421  166.9728  130.8872 C   0  0  0  0  0  0  0  0  0  0  0  0
  199.8733  166.6339  129.9343 O   0  0  0  0  0  0  0  0  0  0  0  0
  199.7685  166.9656  128.5755 C   0  0  0  0  0  0  0  0  0  0  0  0
  200.8908  166.4891  127.9226 F   0  0  0  0  0  0  0  0  0  0  0  0
  199.6890  168.3148  128.3415 F   0  0  0  0  0  0  0  0  0  0  0  0
  198.6437  166.3927  127.9954 F   0  0  0  0  0  0  0  0  0  0  0  0
  199.0009  168.1968  131.5219 C   0  0  0  0  0  0  0  0  0  0  0  0
  198.0735  168.5498  132.4794 C   0  0  0  0  0  0  0  0  0  0  0  0
  197.0842  167.6424  132.7843 C   0  0  0  0  0  0  0  0  0  0  0  0
  197.0389  166.4314  132.1455 C   0  0  0  0  0  0  0  0  0  0  0  0
  196.5816  161.7086  128.8785 C   0  0  0  0  0  0  0  0  0  0  0  0
  196.9114  160.3233  129.5163 C   0  0  0  0  0  0  0  0  0  0  0  0
  197.3409  160.6233  128.1353 C   0  0  0  0  0  0  0  0  0  0  0  0
  1  2  1  0
  2  3  2  0
  2  4  1  0
  4  5  2  0
  5  6  1  0
  6  7  1  0
  6  8  2  0
  8  9  1  0
  9 10  2  0
 10 11  1  0
 11 12  1  0
 12 13  2  0
 10 14  1  0
 14 15  1  0
 15 16  1  1
 16 17  1  0
 18 17  1  6
 18 19  1  0
 19 20  1  0
 20 21  1  0
 20 22  1  1
 22 23  1  0
 23 24  1  0
 24 25  2  0
 25 26  1  0
 26 27  1  0
 27 28  2  0
 28 29  1  0
 29 30  2  0
 30 31  1  0
 31 32  1  0
 32 33  1  0
 32 34  1  0
 32 35  1  0
 30 36  1  0
 36 37  2  0
 37 38  1  0
 38 39  2  0
 25 40  1  0
 40 41  1  0
 41 42  1  0
 13  4  1  0
 18 14  1  0
 28 24  1  0
 39 29  1  0
 42 40  1  0
 12  8  1  0
 21 15  1  0
M  END
$$$$
