
     RDKit          3D

 42 48  0  0  0  0  0  0  0  0999 V2000
  176.6349  174.7177  111.7439 O   0  0  0  0  0  0  0  0  0  0  0  0
  177.3312  173.7940  112.5083 C   0  0  0  0  0  0  0  0  0  0  0  0
  178.2198  174.2319  113.2823 O   0  0  0  0  0  0  0  0  0  0  0  0
  177.0523  172.3735  112.4253 C   0  0  0  0  0  0  0  0  0  0  0  0
  177.6723  171.4187  113.1804 C   0  0  0  0  0  0  0  0  0  0  0  0
  177.4290  170.0847  113.1211 C   0  0  0  0  0  0  0  0  0  0  0  0
  178.1237  169.2646  113.9322 F   0  0  0  0  0  0  0  0  0  0  0  0
  176.4612  169.5895  112.2177 C   0  0  0  0  0  0  0  0  0  0  0  0
  176.1224  168.3439  112.0487 N   0  0  0  0  0  0  0  0  0  0  0  0
  175.2002  168.0093  111.1678 C   0  0  0  0  0  0  0  0  0  0  0  0
  174.7690  169.5481  110.5223 S   0  0  0  0  0  0  0  0  0  0  0  0
  175.8274  170.5299  111.4509 C   0  0  0  0  0  0  0  0  0  0  0  0
  176.0989  171.9042  111.5330 C   0  0  0  0  0  0  0  0  0  0  0  0
  174.6851  166.7448  110.8213 N   0  0  0  0  0  0  0  0  0  0  0  0
  173.3393  166.4110  110.4579 C   0  0  1  0  0  0  0  0  0  0  0  0
  173.5997  165.5941  109.1796 C   0  0  0  0  0  0  0  0  0  0  0  0
  174.9340  164.9541  109.4502 C   0  0  0  0  0  0  0  0  0  0  0  0
  175.4274  165.5135  110.7658 C   0  0  2  0  0  0  0  0  0  0  0  0
  174.9489  164.6875  111.9440 C   0  0  0  0  0  0  0  0  0  0  0  0
  173.4987  164.2791  111.8060 C   0  0  1  0  0  0  0  0  0  0  0  0
  172.6883  165.4779  111.4579 C   0  0  0  0  0  0  0  0  0  0  0  0
  173.3200  163.1863  110.9999 O   0  0  0  0  0  0  0  0  0  0  0  0
  173.8587  162.0450  111.5993 C   0  0  0  0  0  0  0  0  0  0  0  0
  172.8003  161.0931  112.0147 C   0  0  0  0  0  0  0  0  0  0  0  0
  172.7104  160.3632  113.1784 C   0  0  0  0  0  0  0  0  0  0  0  0
  171.5947  159.6340  113.0584 O   0  0  0  0  0  0  0  0  0  0  0  0
  171.0126  159.8615  111.9360 N   0  0  0  0  0  0  0  0  0  0  0  0
  171.6998  160.7681  111.2117 C   0  0  0  0  0  0  0  0  0  0  0  0
  171.3297  161.2534  109.8914 C   0  0  0  0  0  0  0  0  0  0  0  0
  170.1207  161.9312  109.7164 C   0  0  0  0  0  0  0  0  0  0  0  0
  169.3141  162.1042  110.8163 O   0  0  0  0  0  0  0  0  0  0  0  0
  168.7320  161.0538  111.5409 C   0  0  0  0  0  0  0  0  0  0  0  0
  169.2626  161.0587  112.8181 F   0  0  0  0  0  0  0  0  0  0  0  0
  168.9604  159.8154  110.9971 F   0  0  0  0  0  0  0  0  0  0  0  0
  167.3537  161.2006  111.6348 F   0  0  0  0  0  0  0  0  0  0  0  0
  169.7384  162.4164  108.4824 C   0  0  0  0  0  0  0  0  0  0  0  0
  170.5376  162.2502  107.3711 C   0  0  0  0  0  0  0  0  0  0  0  0
  171.7318  161.5841  107.5295 C   0  0  0  0  0  0  0  0  0  0  0  0
  172.0978  161.1084  108.7609 C   0  0  0  0  0  0  0  0  0  0  0  0
  173.6078  160.3349  114.3562 C   0  0  0  0  0  0  0  0  0  0  0  0
  173.7530  161.6971  115.1032 C   0  0  0  0  0  0  0  0  0  0  0  0
  174.8978  161.1364  114.3572 C   0  0  0  0  0  0  0  0  0  0  0  0
  1  2  1  0
  2  3  2  0
  2  4  1  0
  4  5  2  0
  5  6  1  0
  6  7  1  0
  6  8  2  0
  8  9  1  0
  9 10  2  0
 10 11  1  0
 11 12  1  0
 12 13  2  0
 10 14  1  0
 14 15  1  0
 15 16  1  6
 16 17  1  0
 18 17  1  6
 18 19  1  0
 19 20  1  0
 20 21  1  0
 20 22  1  6
 22 23  1  0
 23 24  1  0
 24 25  2  0
 25 26  1  0
 26 27  1  0
 27 28  2  0
 28 29  1  0
 29 30  2  0
 30 31  1  0
 31 32  1  0
 32 33  1  0
 32 34  1  0
 32 35  1  0
 30 36  1  0
 36 37  2  0
 37 38  1  0
 38 39  2  0
 25 40  1  0
 40 41  1  0
 41 42  1  0
 13  4  1  0
 18 14  1  0
 28 24  1  0
 39 29  1  0
 42 40  1  0
 12  8  1  0
 21 15  1  0
M  END
$$$$
