
     RDKit          3D

 42 48  0  0  0  0  0  0  0  0999 V2000
  199.9273  145.5210  128.1118 O   0  0  0  0  0  0  0  0  0  0  0  0
  200.9243  145.1004  128.9786 C   0  0  0  0  0  0  0  0  0  0  0  0
  201.6858  145.9782  129.4583 O   0  0  0  0  0  0  0  0  0  0  0  0
  201.0909  143.7023  129.3252 C   0  0  0  0  0  0  0  0  0  0  0  0
  200.3005  142.6908  128.8578 C   0  0  0  0  0  0  0  0  0  0  0  0
  200.4361  141.3762  129.1671 C   0  0  0  0  0  0  0  0  0  0  0  0
  199.5761  140.4930  128.6253 F   0  0  0  0  0  0  0  0  0  0  0  0
  201.4669  140.9662  130.0431 C   0  0  0  0  0  0  0  0  0  0  0  0
  201.7184  139.7490  130.4301 N   0  0  0  0  0  0  0  0  0  0  0  0
  202.7148  139.4959  131.2557 C   0  0  0  0  0  0  0  0  0  0  0  0
  203.3536  141.0755  131.5154 S   0  0  0  0  0  0  0  0  0  0  0  0
  202.2711  141.9645  130.5233 C   0  0  0  0  0  0  0  0  0  0  0  0
  202.1081  143.3170  130.1865 C   0  0  0  0  0  0  0  0  0  0  0  0
  203.1618  138.2760  131.8001 N   0  0  0  0  0  0  0  0  0  0  0  0
  202.5137  137.4607  132.7850 C   0  0  1  0  0  0  0  0  0  0  0  0
  202.6018  136.0863  132.0976 C   0  0  0  0  0  0  0  0  0  0  0  0
  203.8803  136.1803  131.3104 C   0  0  0  0  0  0  0  0  0  0  0  0
  204.3857  137.5970  131.4666 C   0  0  2  0  0  0  0  0  0  0  0  0
  205.2848  137.7439  132.6788 C   0  0  0  0  0  0  0  0  0  0  0  0
  204.7437  137.0094  133.8857 C   0  0  1  0  0  0  0  0  0  0  0  0
  203.3110  137.3680  134.0696 C   0  0  0  0  0  0  0  0  0  0  0  0
  205.0237  135.6687  133.8720 O   0  0  0  0  0  0  0  0  0  0  0  0
  206.3913  135.4544  134.0619 C   0  0  0  0  0  0  0  0  0  0  0  0
  206.6524  134.5967  135.2430 C   0  0  0  0  0  0  0  0  0  0  0  0
  206.8813  134.9764  136.5462 C   0  0  0  0  0  0  0  0  0  0  0  0
  207.0946  133.8391  137.2184 O   0  0  0  0  0  0  0  0  0  0  0  0
  207.0131  132.8203  136.4401 N   0  0  0  0  0  0  0  0  0  0  0  0
  206.7370  133.2003  135.1760 C   0  0  0  0  0  0  0  0  0  0  0  0
  206.5813  132.3075  134.0383 C   0  0  0  0  0  0  0  0  0  0  0  0
  207.6575  132.0934  133.1736 C   0  0  0  0  0  0  0  0  0  0  0  0
  208.8343  132.7551  133.4335 O   0  0  0  0  0  0  0  0  0  0  0  0
  210.1073  132.1795  133.3094 C   0  0  0  0  0  0  0  0  0  0  0  0
  211.0540  133.1644  133.5253 F   0  0  0  0  0  0  0  0  0  0  0  0
  210.3470  131.6314  132.0751 F   0  0  0  0  0  0  0  0  0  0  0  0
  210.3029  131.1673  134.2406 F   0  0  0  0  0  0  0  0  0  0  0  0
  207.5535  131.2460  132.0894 C   0  0  0  0  0  0  0  0  0  0  0  0
  206.3796  130.5760  131.8170 C   0  0  0  0  0  0  0  0  0  0  0  0
  205.3112  130.7778  132.6612 C   0  0  0  0  0  0  0  0  0  0  0  0
  205.4298  131.6219  133.7335 C   0  0  0  0  0  0  0  0  0  0  0  0
  206.9017  136.3264  137.1550 C   0  0  0  0  0  0  0  0  0  0  0  0
  208.0093  136.5435  138.2323 C   0  0  0  0  0  0  0  0  0  0  0  0
  206.5872  136.5075  138.6298 C   0  0  0  0  0  0  0  0  0  0  0  0
  1  2  1  0
  2  3  2  0
  2  4  1  0
  4  5  2  0
  5  6  1  0
  6  7  1  0
  6  8  2  0
  8  9  1  0
  9 10  2  0
 10 11  1  0
 11 12  1  0
 12 13  2  0
 10 14  1  0
 14 15  1  0
 15 16  1  6
 16 17  1  0
 18 17  1  1
 18 19  1  0
 19 20  1  0
 20 21  1  0
 20 22  1  6
 22 23  1  0
 23 24  1  0
 24 25  2  0
 25 26  1  0
 26 27  1  0
 27 28  2  0
 28 29  1  0
 29 30  2  0
 30 31  1  0
 31 32  1  0
 32 33  1  0
 32 34  1  0
 32 35  1  0
 30 36  1  0
 36 37  2  0
 37 38  1  0
 38 39  2  0
 25 40  1  0
 40 41  1  0
 41 42  1  0
 13  4  1  0
 18 14  1  0
 28 24  1  0
 39 29  1  0
 42 40  1  0
 12  8  1  0
 21 15  1  0
M  END
$$$$
