
     RDKit          3D

 42 48  0  0  0  0  0  0  0  0999 V2000
  154.6262  151.7309  123.4696 O   0  0  0  0  0  0  0  0  0  0  0  0
  155.4476  151.0764  124.3746 C   0  0  0  0  0  0  0  0  0  0  0  0
  155.0284  150.9486  125.5530 O   0  0  0  0  0  0  0  0  0  0  0  0
  156.7438  150.5551  123.9865 C   0  0  0  0  0  0  0  0  0  0  0  0
  157.2351  150.5763  122.7119 C   0  0  0  0  0  0  0  0  0  0  0  0
  158.4436  150.0953  122.3240 C   0  0  0  0  0  0  0  0  0  0  0  0
  158.7893  150.1877  121.0259 F   0  0  0  0  0  0  0  0  0  0  0  0
  159.3050  149.5130  123.2815 C   0  0  0  0  0  0  0  0  0  0  0  0
  160.4858  149.0114  123.0602 N   0  0  0  0  0  0  0  0  0  0  0  0
  161.1940  148.4936  124.0445 C   0  0  0  0  0  0  0  0  0  0  0  0
  160.1350  148.7217  125.3849 S   0  0  0  0  0  0  0  0  0  0  0  0
  158.8320  149.4817  124.5657 C   0  0  0  0  0  0  0  0  0  0  0  0
  157.5772  149.9868  124.9392 C   0  0  0  0  0  0  0  0  0  0  0  0
  162.4729  147.9030  124.0363 N   0  0  0  0  0  0  0  0  0  0  0  0
  162.8367  146.5835  124.4621 C   0  0  1  0  0  0  0  0  0  0  0  0
  163.6680  146.1284  123.2492 C   0  0  0  0  0  0  0  0  0  0  0  0
  164.2793  147.4109  122.7545 C   0  0  0  0  0  0  0  0  0  0  0  0
  163.6910  148.5254  123.5904 C   0  0  2  0  0  0  0  0  0  0  0  0
  164.5076  148.7821  124.8421 C   0  0  0  0  0  0  0  0  0  0  0  0
  164.9446  147.4989  125.5140 C   0  0  1  0  0  0  0  0  0  0  0  0
  163.7664  146.6012  125.6579 C   0  0  0  0  0  0  0  0  0  0  0  0
  166.0526  146.9376  124.9368 O   0  0  0  0  0  0  0  0  0  0  0  0
  167.1145  146.9107  125.8445 C   0  0  0  0  0  0  0  0  0  0  0  0
  168.1272  147.9483  125.5335 C   0  0  0  0  0  0  0  0  0  0  0  0
  169.0526  147.9670  124.5146 C   0  0  0  0  0  0  0  0  0  0  0  0
  169.7511  149.0956  124.6859 O   0  0  0  0  0  0  0  0  0  0  0  0
  169.3287  149.7497  125.7077 N   0  0  0  0  0  0  0  0  0  0  0  0
  168.3064  149.1038  126.3046 C   0  0  0  0  0  0  0  0  0  0  0  0
  167.5947  149.5570  127.4894 C   0  0  0  0  0  0  0  0  0  0  0  0
  167.2065  150.8949  127.5946 C   0  0  0  0  0  0  0  0  0  0  0  0
  167.5284  151.7423  126.5609 O   0  0  0  0  0  0  0  0  0  0  0  0
  166.5867  152.4373  125.7879 C   0  0  0  0  0  0  0  0  0  0  0  0
  167.2620  153.3355  124.9818 F   0  0  0  0  0  0  0  0  0  0  0  0
  165.6762  153.1442  126.5315 F   0  0  0  0  0  0  0  0  0  0  0  0
  165.8577  151.5771  124.9763 F   0  0  0  0  0  0  0  0  0  0  0  0
  166.5206  151.3618  128.6973 C   0  0  0  0  0  0  0  0  0  0  0  0
  166.1911  150.5232  129.7410 C   0  0  0  0  0  0  0  0  0  0  0  0
  166.5677  149.2022  129.6502 C   0  0  0  0  0  0  0  0  0  0  0  0
  167.2479  148.7534  128.5491 C   0  0  0  0  0  0  0  0  0  0  0  0
  169.2883  146.9927  123.4245 C   0  0  0  0  0  0  0  0  0  0  0  0
  169.5901  145.5373  123.8992 C   0  0  0  0  0  0  0  0  0  0  0  0
  170.6504  146.3416  123.2587 C   0  0  0  0  0  0  0  0  0  0  0  0
  1  2  1  0
  2  3  2  0
  2  4  1  0
  4  5  2  0
  5  6  1  0
  6  7  1  0
  6  8  2  0
  8  9  1  0
  9 10  2  0
 10 11  1  0
 11 12  1  0
 12 13  2  0
 10 14  1  0
 14 15  1  0
 15 16  1  6
 16 17  1  0
 18 17  1  6
 18 19  1  0
 19 20  1  0
 20 21  1  0
 20 22  1  6
 22 23  1  0
 23 24  1  0
 24 25  2  0
 25 26  1  0
 26 27  1  0
 27 28  2  0
 28 29  1  0
 29 30  2  0
 30 31  1  0
 31 32  1  0
 32 33  1  0
 32 34  1  0
 32 35  1  0
 30 36  1  0
 36 37  2  0
 37 38  1  0
 38 39  2  0
 25 40  1  0
 40 41  1  0
 41 42  1  0
 13  4  1  0
 18 14  1  0
 28 24  1  0
 39 29  1  0
 42 40  1  0
 12  8  1  0
 21 15  1  0
M  END
$$$$
