644241
  -OEChem-12062314433D

 61 65  0     0  0  0  0  0  0999 V2000
    5.9013   -2.8453   -0.5272 F   0  0  0  0  0  0  0  0  0  0  0  0
    4.5230   -4.2964    0.3091 F   0  0  0  0  0  0  0  0  0  0  0  0
    4.3828   -3.7530   -1.7919 F   0  0  0  0  0  0  0  0  0  0  0  0
   -0.1064   -3.8749    0.7522 O   0  0  0  0  0  0  0  0  0  0  0  0
    3.6988    1.4314    0.6778 N   0  0  0  0  0  0  0  0  0  0  0  0
    0.0003   -1.6146    0.1319 N   0  0  0  0  0  0  0  0  0  0  0  0
   -4.8597   -0.3091    0.6335 N   0  0  0  0  0  0  0  0  0  0  0  0
    5.1431    3.0957    1.0122 N   0  0  0  0  0  0  0  0  0  0  0  0
   -3.2634    1.2327   -0.1284 N   0  0  0  0  0  0  0  0  0  0  0  0
   -5.4017    1.9730    0.7005 N   0  0  0  0  0  0  0  0  0  0  0  0
    0.1915    1.9437   -2.2793 N   0  0  0  0  0  0  0  0  0  0  0  0
    3.2236    0.1657    0.3874 C   0  0  0  0  0  0  0  0  0  0  0  0
    1.3935   -1.3590    0.1135 C   0  0  0  0  0  0  0  0  0  0  0  0
    3.6376   -2.1371   -0.2148 C   0  0  0  0  0  0  0  0  0  0  0  0
    1.8516   -0.0856    0.4057 C   0  0  0  0  0  0  0  0  0  0  0  0
    4.1166   -0.8601    0.0771 C   0  0  0  0  0  0  0  0  0  0  0  0
    2.2657   -2.3884   -0.1967 C   0  0  0  0  0  0  0  0  0  0  0  0
   -2.1143   -2.7737    0.3441 C   0  0  0  0  0  0  0  0  0  0  0  0
   -4.1867   -1.5356    0.4415 C   0  0  0  0  0  0  0  0  0  0  0  0
   -4.8973   -2.7036    0.1646 C   0  0  0  0  0  0  0  0  0  0  0  0
   -2.7951   -1.5706    0.5313 C   0  0  0  0  0  0  0  0  0  0  0  0
   -0.6635   -2.8109    0.4375 C   0  0  0  0  0  0  0  0  0  0  0  0
    2.9475    2.5331    0.9989 C   0  0  0  0  0  0  0  0  0  0  0  0
   -2.8250   -3.9416    0.0673 C   0  0  0  0  0  0  0  0  0  0  0  0
   -4.2165   -3.9066   -0.0225 C   0  0  0  0  0  0  0  0  0  0  0  0
    4.5919   -3.2341   -0.5468 C   0  0  0  0  0  0  0  0  0  0  0  0
    5.0131    1.8254    0.7001 C   0  0  0  0  0  0  0  0  0  0  0  0
    3.8591    3.5429    1.1997 C   0  0  0  0  0  0  0  0  0  0  0  0
   -6.3880   -2.6953    0.0626 C   0  0  0  0  0  0  0  0  0  0  0  0
   -4.4912    1.0272    0.3908 C   0  0  0  0  0  0  0  0  0  0  0  0
    3.5999    4.9433    1.5669 C   0  0  0  0  0  0  0  0  0  0  0  0
   -2.9429    2.5247   -0.3484 C   0  0  0  0  0  0  0  0  0  0  0  0
   -1.6290    2.7440   -0.9038 C   0  0  0  0  0  0  0  0  0  0  0  0
   -3.7867    3.5815   -0.0735 C   0  0  0  0  0  0  0  0  0  0  0  0
   -5.0156    3.2423    0.4550 C   0  0  0  0  0  0  0  0  0  0  0  0
   -0.9191    3.9083   -0.6301 C   0  0  0  0  0  0  0  0  0  0  0  0
   -1.0342    1.8012   -1.7272 C   0  0  0  0  0  0  0  0  0  0  0  0
    0.3449    4.0913   -1.1798 C   0  0  0  0  0  0  0  0  0  0  0  0
    0.8509    3.0880   -1.9905 C   0  0  0  0  0  0  0  0  0  0  0  0
    1.1185    0.6775    0.6445 H   0  0  0  0  0  0  0  0  0  0  0  0
    5.1894   -0.7049    0.0525 H   0  0  0  0  0  0  0  0  0  0  0  0
    1.9162   -3.3821   -0.4582 H   0  0  0  0  0  0  0  0  0  0  0  0
   -0.5519   -0.7700    0.0236 H   0  0  0  0  0  0  0  0  0  0  0  0
   -2.2615   -0.6838    0.8515 H   0  0  0  0  0  0  0  0  0  0  0  0
    1.8702    2.5430    1.0749 H   0  0  0  0  0  0  0  0  0  0  0  0
   -2.3143   -4.8886   -0.0871 H   0  0  0  0  0  0  0  0  0  0  0  0
   -4.7545   -4.8257   -0.2393 H   0  0  0  0  0  0  0  0  0  0  0  0
    5.8542    1.1805    0.4887 H   0  0  0  0  0  0  0  0  0  0  0  0
   -5.8284   -0.3924    0.9240 H   0  0  0  0  0  0  0  0  0  0  0  0
   -6.8366   -2.4674    1.0351 H   0  0  0  0  0  0  0  0  0  0  0  0
   -6.7218   -1.9580   -0.6752 H   0  0  0  0  0  0  0  0  0  0  0  0
   -6.7783   -3.6673   -0.2586 H   0  0  0  0  0  0  0  0  0  0  0  0
    2.5343    5.1222    1.7425 H   0  0  0  0  0  0  0  0  0  0  0  0
    3.9290    5.6138    0.7670 H   0  0  0  0  0  0  0  0  0  0  0  0
    4.1424    5.2060    2.4804 H   0  0  0  0  0  0  0  0  0  0  0  0
   -3.5481    4.6197   -0.2654 H   0  0  0  0  0  0  0  0  0  0  0  0
   -5.7482    4.0045    0.6984 H   0  0  0  0  0  0  0  0  0  0  0  0
   -1.3054    4.6849    0.0244 H   0  0  0  0  0  0  0  0  0  0  0  0
   -1.5265    0.8706   -1.9948 H   0  0  0  0  0  0  0  0  0  0  0  0
    0.9197    4.9871   -0.9743 H   0  0  0  0  0  0  0  0  0  0  0  0
    1.8339    3.1804   -2.4404 H   0  0  0  0  0  0  0  0  0  0  0  0
  1 26  1  0  0  0  0
  2 26  1  0  0  0  0
  3 26  1  0  0  0  0
  4 22  2  0  0  0  0
  5 12  1  0  0  0  0
  5 23  1  0  0  0  0
  5 27  1  0  0  0  0
  6 13  1  0  0  0  0
  6 22  1  0  0  0  0
  6 43  1  0  0  0  0
  7 19  1  0  0  0  0
  7 30  1  0  0  0  0
  7 49  1  0  0  0  0
  8 27  2  0  0  0  0
  8 28  1  0  0  0  0
  9 30  1  0  0  0  0
  9 32  2  0  0  0  0
 10 30  2  0  0  0  0
 10 35  1  0  0  0  0
 11 37  1  0  0  0  0
 11 39  2  0  0  0  0
 12 15  1  0  0  0  0
 12 16  2  0  0  0  0
 13 15  2  0  0  0  0
 13 17  1  0  0  0  0
 14 16  1  0  0  0  0
 14 17  2  0  0  0  0
 14 26  1  0  0  0  0
 15 40  1  0  0  0  0
 16 41  1  0  0  0  0
 17 42  1  0  0  0  0
 18 21  2  0  0  0  0
 18 22  1  0  0  0  0
 18 24  1  0  0  0  0
 19 20  2  0  0  0  0
 19 21  1  0  0  0  0
 20 25  1  0  0  0  0
 20 29  1  0  0  0  0
 21 44  1  0  0  0  0
 23 28  2  0  0  0  0
 23 45  1  0  0  0  0
 24 25  2  0  0  0  0
 24 46  1  0  0  0  0
 25 47  1  0  0  0  0
 27 48  1  0  0  0  0
 28 31  1  0  0  0  0
 29 50  1  0  0  0  0
 29 51  1  0  0  0  0
 29 52  1  0  0  0  0
 31 53  1  0  0  0  0
 31 54  1  0  0  0  0
 31 55  1  0  0  0  0
 32 33  1  0  0  0  0
 32 34  1  0  0  0  0
 33 36  1  0  0  0  0
 33 37  2  0  0  0  0
 34 35  2  0  0  0  0
 34 56  1  0  0  0  0
 35 57  1  0  0  0  0
 36 38  2  0  0  0  0
 36 58  1  0  0  0  0
 37 59  1  0  0  0  0
 38 39  1  0  0  0  0
 38 60  1  0  0  0  0
 39 61  1  0  0  0  0
M  END
> <PUBCHEM_COMPOUND_CID>
644241

> <PUBCHEM_CONFORMER_RMSD>
1.2

> <PUBCHEM_CONFORMER_DIVERSEORDER>
8
142
18
424
361
597
381
236
450
101
15
470
323
281
284
359
529
434
21
382
82
16
577
271
175
421
4
538
196
349
267
177
114
160
283
274
20
316
601
44
67
256
80
5
173
96
150
384
46
37
131
573
312
3
580
87
532
12
43
565
69
208
598
70
347
7
228
136
525
440
430
443
490
383
200
94
246
317
426
36
325
2
58
524
308
45
282
248
257
408
32
210
102
165
333
72
213
121
416
112
291
71
512
100
272
575
23
119
59
547
299
249
578
1
225
25
128
218
40
176
28
546
378
194
224
9
158
17
103
6
203
550
116
10
91
106
76
145
140
53
89
156
522
29
30
161
188
275
51
260
31
14
62
97
126
191
74
11
244
65
113

> <PUBCHEM_MMFF94_PARTIAL_CHARGES>
54
1 -0.34
10 -0.62
11 -0.62
12 -0.02
13 0.12
14 -0.14
15 -0.15
16 -0.15
17 -0.15
18 0.09
19 0.1
2 -0.34
20 -0.14
21 -0.15
22 0.54
23 -0.3
24 -0.15
25 -0.15
26 1.16
27 0.04
28 0.05
29 0.14
3 -0.34
30 0.72
31 0.18
32 0.31
34 -0.15
35 0.16
36 -0.15
37 0.16
38 -0.15
39 0.16
4 -0.57
40 0.15
41 0.15
42 0.15
43 0.37
44 0.15
45 0.15
46 0.15
47 0.15
48 0.15
49 0.4
5 0.33
56 0.15
57 0.15
58 0.15
59 0.15
6 -0.55
60 0.15
61 0.15
7 -0.6
8 -0.57
9 -0.62

> <PUBCHEM_EFFECTIVE_ROTOR_COUNT>
8

> <PUBCHEM_PHARMACOPHORE_FEATURES>
12
1 11 acceptor
1 4 acceptor
1 6 donor
1 7 donor
1 9 acceptor
3 5 8 27 cation
4 7 9 10 30 cation
5 5 8 23 27 28 rings
6 11 33 36 37 38 39 rings
6 12 13 14 15 16 17 rings
6 18 19 20 21 24 25 rings
6 9 10 30 32 34 35 rings

> <PUBCHEM_HEAVY_ATOM_COUNT>
39

> <PUBCHEM_ATOM_DEF_STEREO_COUNT>
0

> <PUBCHEM_ATOM_UDEF_STEREO_COUNT>
0

> <PUBCHEM_BOND_DEF_STEREO_COUNT>
0

> <PUBCHEM_BOND_UDEF_STEREO_COUNT>
0

> <PUBCHEM_ISOTOPIC_ATOM_COUNT>
0

> <PUBCHEM_COMPONENT_COUNT>
1

> <PUBCHEM_CACTVS_TAUTO_COUNT>
6

> <PUBCHEM_CONFORMER_ID>
0009D49100000008

> <PUBCHEM_MMFF94_ENERGY>
124.5895

> <PUBCHEM_FEATURE_SELFOVERLAP>
60.898

> <PUBCHEM_SHAPE_FINGERPRINT>
10864689 126 17904199235192378197
11513181 2 18272653492884413015
12677640 9 18269839710519195305
13561361 72 18335692828295331504
13757389 114 17330846133031678564
140371 6 18046066231084542075
14068700 686 18197218272398694754
15276724 80 18342738559590062483
15320467 1 18194682802853519801
15419008 145 18264751325129200176
15721738 15 16747307286871715053
15975801 100 17170961336609232454
16112460 7 18198635340722969569
19311894 1 17837494046694912034
21133410 38 18343587369818427859
22121540 332 18199754811754522108
25223398 141 17462006462296092060
3493558 16 18341900739512010659
373842 8 17975132351157663313
3886686 26 18340494348820240905
42626532 9 17896623784787275298
469060 322 16660910171315650757
5171179 24 18412546505112723234
552612 73 18410856564889669052
653340 110 18338231686670176337
9961470 85 18411132529207619657

> <PUBCHEM_SHAPE_MULTIPOLES>
740.04
13.28
8.15
1.3
2.42
0.06
0.54
-3.72
-3.44
-2.41
0.52
-0.98
1.15
2.72

> <PUBCHEM_SHAPE_SELFOVERLAP>
1643.23

> <PUBCHEM_SHAPE_VOLUME>
398

> <PUBCHEM_COORDINATE_TYPE>
2
5
10

$$$$
