
     RDKit          3D

 42 47  0  0  0  0  0  0  0  0999 V2000
  180.7782  160.9146  141.5603 C   0  0  0  0  0  0  0  0  0  0  0  0
  182.1121  160.6229  141.0632 N   0  0  0  0  0  0  0  0  0  0  0  0
  182.3527  159.6035  140.2159 C   0  0  0  0  0  0  0  0  0  0  0  0
  181.3731  158.8917  139.8556 O   0  0  0  0  0  0  0  0  0  0  0  0
  183.5500  159.2793  139.7205 N   0  0  0  0  0  0  0  0  0  0  0  0
  184.6093  160.0278  140.0932 C   0  0  0  0  0  0  0  0  0  0  0  0
  185.7665  159.7583  139.6486 O   0  0  0  0  0  0  0  0  0  0  0  0
  184.4665  161.0994  140.9618 C   0  0  0  0  0  0  0  0  0  0  0  0
  183.1749  161.3593  141.4259 C   0  0  0  0  0  0  0  0  0  0  0  0
  183.0229  162.4187  142.2865 C   0  0  0  0  0  0  0  0  0  0  0  0
  181.8084  162.7278  142.7737 F   0  0  0  0  0  0  0  0  0  0  0  0
  184.0782  163.2193  142.7009 C   0  0  0  0  0  0  0  0  0  0  0  0
  185.3638  162.9435  142.2256 C   0  0  0  0  0  0  0  0  0  0  0  0
  185.5201  161.8834  141.3634 C   0  0  0  0  0  0  0  0  0  0  0  0
  183.7613  158.1898  138.8244 C   0  0  0  0  0  0  0  0  0  0  0  0
  183.4997  158.2583  137.4847 C   0  0  0  0  0  0  0  0  0  0  0  0
  182.9720  159.5230  136.9323 C   0  0  0  0  0  0  0  0  0  0  0  0
  183.7144  157.1836  136.6342 C   0  0  0  0  0  0  0  0  0  0  0  0
  184.2081  156.0222  137.1866 C   0  0  0  0  0  0  0  0  0  0  0  0
  184.4803  155.9282  138.5368 C   0  0  0  0  0  0  0  0  0  0  0  0
  184.2553  157.0181  139.3592 C   0  0  0  0  0  0  0  0  0  0  0  0
  183.4216  157.3062  135.2258 C   0  0  0  0  0  0  0  0  0  0  0  0
  184.3546  157.8104  134.3553 C   0  0  0  0  0  0  0  0  0  0  0  0
  185.6536  158.2637  134.4693 C   0  0  0  0  0  0  0  0  0  0  0  0
  186.1413  158.6675  133.2335 C   0  0  0  0  0  0  0  0  0  0  0  0
  187.5286  159.1954  133.1149 C   0  0  0  0  0  0  0  0  0  0  0  0
  187.8786  160.0708  134.2643 C   0  0  2  0  0  0  0  0  0  0  0  0
  187.1332  159.8102  135.5329 C   0  0  0  0  0  0  0  0  0  0  0  0
  186.5929  158.3903  135.6007 C   0  0  0  0  0  0  0  0  0  0  0  0
  187.8407  161.5467  133.9363 C   0  0  0  0  0  0  0  0  0  0  0  0
  188.3593  161.8558  132.5717 C   0  0  0  0  0  0  0  0  0  0  0  0
  188.5622  162.4067  134.9449 C   0  0  0  0  0  0  0  0  0  0  0  0
  186.4767  161.9461  133.9794 O   0  0  0  0  0  0  0  0  0  0  0  0
  185.1358  158.4593  132.3601 N   0  0  0  0  0  0  0  0  0  0  0  0
  184.0614  157.9519  132.9886 C   0  0  0  0  0  0  0  0  0  0  0  0
  182.8193  157.5755  132.5289 C   0  0  0  0  0  0  0  0  0  0  0  0
  181.8806  157.0671  133.4063 C   0  0  0  0  0  0  0  0  0  0  0  0
  182.1810  156.9297  134.7686 C   0  0  0  0  0  0  0  0  0  0  0  0
  181.2235  156.4232  135.5976 F   0  0  0  0  0  0  0  0  0  0  0  0
  182.4390  157.6905  131.1320 C   0  0  0  0  0  0  0  0  0  0  0  0
  181.3238  157.0029  130.5914 N   0  0  0  0  0  0  0  0  0  0  0  0
  183.1127  158.4200  130.3685 O   0  0  0  0  0  0  0  0  0  0  0  0
  1  2  1  0
  2  3  1  0
  3  4  2  0
  3  5  1  0
  5  6  1  0
  6  7  2  0
  6  8  1  0
  8  9  2  0
  9 10  1  0
 10 11  1  0
 10 12  2  0
 12 13  1  0
 13 14  2  0
  5 15  1  0
 15 16  2  0
 16 17  1  0
 16 18  1  0
 18 19  2  0
 19 20  1  0
 20 21  2  0
 18 22  1  0
 22 23  2  0
 23 24  1  0
 24 25  2  0
 25 26  1  0
 26 27  1  0
 27 28  1  0
 28 29  1  0
 27 30  1  6
 30 31  1  0
 30 32  1  0
 30 33  1  0
 25 34  1  0
 34 35  1  0
 35 36  2  0
 36 37  1  0
 37 38  2  0
 38 39  1  0
 36 40  1  0
 40 41  1  0
 40 42  2  0
  9  2  1  0
 21 15  1  0
 38 22  1  0
 14  8  1  0
 35 23  1  0
 29 24  1  0
M  END
$$$$
