
     RDKit          3D

 42 47  0  0  0  0  0  0  0  0999 V2000
  125.9673  148.2283  139.7093 C   0  0  0  0  0  0  0  0  0  0  0  0
  127.1043  148.4223  138.8256 N   0  0  0  0  0  0  0  0  0  0  0  0
  127.6474  147.4077  138.1253 C   0  0  0  0  0  0  0  0  0  0  0  0
  127.1363  146.2598  138.2565 O   0  0  0  0  0  0  0  0  0  0  0  0
  128.6897  147.5141  137.2968 N   0  0  0  0  0  0  0  0  0  0  0  0
  129.2499  148.7322  137.1428 C   0  0  0  0  0  0  0  0  0  0  0  0
  130.2419  148.8826  136.3665 O   0  0  0  0  0  0  0  0  0  0  0  0
  128.7643  149.8411  137.8195 C   0  0  0  0  0  0  0  0  0  0  0  0
  127.6713  149.6288  138.6630 C   0  0  0  0  0  0  0  0  0  0  0  0
  127.1829  150.7208  139.3376 C   0  0  0  0  0  0  0  0  0  0  0  0
  126.1326  150.5914  140.1671 F   0  0  0  0  0  0  0  0  0  0  0  0
  127.7216  151.9939  139.2150 C   0  0  0  0  0  0  0  0  0  0  0  0
  128.8156  152.1867  138.3658 C   0  0  0  0  0  0  0  0  0  0  0  0
  129.3076  151.0955  137.6884 C   0  0  0  0  0  0  0  0  0  0  0  0
  129.2348  146.4121  136.5735 C   0  0  0  0  0  0  0  0  0  0  0  0
  128.8114  146.0506  135.3253 C   0  0  0  0  0  0  0  0  0  0  0  0
  127.7356  146.8386  134.6891 C   0  0  0  0  0  0  0  0  0  0  0  0
  129.3586  144.9741  134.6425 C   0  0  0  0  0  0  0  0  0  0  0  0
  130.3601  144.2649  135.2683 C   0  0  0  0  0  0  0  0  0  0  0  0
  130.8051  144.6103  136.5287 C   0  0  0  0  0  0  0  0  0  0  0  0
  130.2388  145.6896  137.1839 C   0  0  0  0  0  0  0  0  0  0  0  0
  128.8760  144.6321  133.3255 C   0  0  0  0  0  0  0  0  0  0  0  0
  128.4103  143.3706  133.0532 C   0  0  0  0  0  0  0  0  0  0  0  0
  128.2374  142.2131  133.7857 C   0  0  0  0  0  0  0  0  0  0  0  0
  127.7094  141.2049  132.9902 C   0  0  0  0  0  0  0  0  0  0  0  0
  127.4375  139.8611  133.5713 C   0  0  0  0  0  0  0  0  0  0  0  0
  128.5123  139.4460  134.5107 C   0  0  2  0  0  0  0  0  0  0  0  0
  129.2766  140.5551  135.1578 C   0  0  0  0  0  0  0  0  0  0  0  0
  128.4850  141.8530  135.1955 C   0  0  0  0  0  0  0  0  0  0  0  0
  129.4691  138.4305  133.9272 C   0  0  0  0  0  0  0  0  0  0  0  0
  130.3866  139.0123  132.9041 C   0  0  0  0  0  0  0  0  0  0  0  0
  128.7815  137.2212  133.3425 C   0  0  0  0  0  0  0  0  0  0  0  0
  130.2694  137.9506  135.0001 O   0  0  0  0  0  0  0  0  0  0  0  0
  127.5583  141.7489  131.7662 N   0  0  0  0  0  0  0  0  0  0  0  0
  127.9629  143.0308  131.7656 C   0  0  0  0  0  0  0  0  0  0  0  0
  127.9961  143.9846  130.7731 C   0  0  0  0  0  0  0  0  0  0  0  0
  128.4645  145.2550  131.0484 C   0  0  0  0  0  0  0  0  0  0  0  0
  128.9096  145.5857  132.3359 C   0  0  0  0  0  0  0  0  0  0  0  0
  129.3637  146.8520  132.5616 F   0  0  0  0  0  0  0  0  0  0  0  0
  127.5518  143.7125  129.4174 C   0  0  0  0  0  0  0  0  0  0  0  0
  127.3384  144.7436  128.4688 N   0  0  0  0  0  0  0  0  0  0  0  0
  127.3468  142.5289  129.0625 O   0  0  0  0  0  0  0  0  0  0  0  0
  1  2  1  0
  2  3  1  0
  3  4  2  0
  3  5  1  0
  5  6  1  0
  6  7  2  0
  6  8  1  0
  8  9  2  0
  9 10  1  0
 10 11  1  0
 10 12  2  0
 12 13  1  0
 13 14  2  0
  5 15  1  0
 15 16  2  0
 16 17  1  0
 16 18  1  0
 18 19  2  0
 19 20  1  0
 20 21  2  0
 18 22  1  0
 22 23  2  0
 23 24  1  0
 24 25  2  0
 25 26  1  0
 26 27  1  0
 27 28  1  0
 28 29  1  0
 27 30  1  6
 30 31  1  0
 30 32  1  0
 30 33  1  0
 25 34  1  0
 34 35  1  0
 35 36  2  0
 36 37  1  0
 37 38  2  0
 38 39  1  0
 36 40  1  0
 40 41  1  0
 40 42  2  0
  9  2  1  0
 21 15  1  0
 38 22  1  0
 14  8  1  0
 35 23  1  0
 29 24  1  0
M  END
$$$$
