
     RDKit          3D

 42 47  0  0  0  0  0  0  0  0999 V2000
  184.3690  163.8419  122.6681 C   0  0  0  0  0  0  0  0  0  0  0  0
  185.7418  164.0616  122.2456 N   0  0  0  0  0  0  0  0  0  0  0  0
  186.7704  163.3636  122.7648 C   0  0  0  0  0  0  0  0  0  0  0  0
  186.5103  162.4960  123.6456 O   0  0  0  0  0  0  0  0  0  0  0  0
  188.0533  163.5129  122.4239 N   0  0  0  0  0  0  0  0  0  0  0  0
  188.3519  164.4346  121.4845 C   0  0  0  0  0  0  0  0  0  0  0  0
  189.5564  164.6123  121.1279 O   0  0  0  0  0  0  0  0  0  0  0  0
  187.3644  165.2049  120.8889 C   0  0  0  0  0  0  0  0  0  0  0  0
  186.0531  164.9754  121.3121 C   0  0  0  0  0  0  0  0  0  0  0  0
  185.0677  165.7331  120.7281 C   0  0  0  0  0  0  0  0  0  0  0  0
  183.7824  165.5667  121.0862 F   0  0  0  0  0  0  0  0  0  0  0  0
  185.3208  166.6932  119.7585 C   0  0  0  0  0  0  0  0  0  0  0  0
  186.6398  166.9088  119.3478 C   0  0  0  0  0  0  0  0  0  0  0  0
  187.6295  166.1519  119.9303 C   0  0  0  0  0  0  0  0  0  0  0  0
  189.1135  162.7520  122.9996 C   0  0  0  0  0  0  0  0  0  0  0  0
  189.5775  161.5844  122.4616 C   0  0  0  0  0  0  0  0  0  0  0  0
  188.9527  161.0818  121.2206 C   0  0  0  0  0  0  0  0  0  0  0  0
  190.6109  160.8631  123.0414 C   0  0  0  0  0  0  0  0  0  0  0  0
  191.1683  161.3647  124.1970 C   0  0  0  0  0  0  0  0  0  0  0  0
  190.7173  162.5418  124.7599 C   0  0  0  0  0  0  0  0  0  0  0  0
  189.6844  163.2383  124.1574 C   0  0  0  0  0  0  0  0  0  0  0  0
  191.0648  159.6344  122.4342 C   0  0  0  0  0  0  0  0  0  0  0  0
  190.5419  158.4255  122.8184 C   0  0  0  0  0  0  0  0  0  0  0  0
  189.5732  158.0198  123.7146 C   0  0  0  0  0  0  0  0  0  0  0  0
  189.4388  156.6379  123.6976 C   0  0  0  0  0  0  0  0  0  0  0  0
  188.4473  155.9736  124.5881 C   0  0  0  0  0  0  0  0  0  0  0  0
  188.4094  156.6092  125.9314 C   0  0  2  0  0  0  0  0  0  0  0  0
  188.8337  158.0410  125.9872 C   0  0  0  0  0  0  0  0  0  0  0  0
  188.6805  158.7386  124.6446 C   0  0  0  0  0  0  0  0  0  0  0  0
  189.1284  155.8150  126.9989 C   0  0  0  0  0  0  0  0  0  0  0  0
  190.6082  155.7859  126.8087 C   0  0  0  0  0  0  0  0  0  0  0  0
  188.6213  154.4009  127.1418 C   0  0  0  0  0  0  0  0  0  0  0  0
  188.8662  156.4568  128.2404 O   0  0  0  0  0  0  0  0  0  0  0  0
  190.3289  156.1971  122.7863 N   0  0  0  0  0  0  0  0  0  0  0  0
  191.0003  157.2279  122.2445 C   0  0  0  0  0  0  0  0  0  0  0  0
  191.9863  157.2810  121.2849 C   0  0  0  0  0  0  0  0  0  0  0  0
  192.5117  158.4990  120.8981 C   0  0  0  0  0  0  0  0  0  0  0  0
  192.0491  159.6893  121.4761 C   0  0  0  0  0  0  0  0  0  0  0  0
  192.5969  160.8684  121.0634 F   0  0  0  0  0  0  0  0  0  0  0  0
  192.5136  156.0889  120.6444 C   0  0  0  0  0  0  0  0  0  0  0  0
  193.3970  156.1513  119.5380 N   0  0  0  0  0  0  0  0  0  0  0  0
  192.1833  154.9606  121.0764 O   0  0  0  0  0  0  0  0  0  0  0  0
  1  2  1  0
  2  3  1  0
  3  4  2  0
  3  5  1  0
  5  6  1  0
  6  7  2  0
  6  8  1  0
  8  9  2  0
  9 10  1  0
 10 11  1  0
 10 12  2  0
 12 13  1  0
 13 14  2  0
  5 15  1  0
 15 16  2  0
 16 17  1  0
 16 18  1  0
 18 19  2  0
 19 20  1  0
 20 21  2  0
 18 22  1  0
 22 23  2  0
 23 24  1  0
 24 25  2  0
 25 26  1  0
 26 27  1  0
 27 28  1  0
 28 29  1  0
 27 30  1  1
 30 31  1  0
 30 32  1  0
 30 33  1  0
 25 34  1  0
 34 35  1  0
 35 36  2  0
 36 37  1  0
 37 38  2  0
 38 39  1  0
 36 40  1  0
 40 41  1  0
 40 42  2  0
  9  2  1  0
 21 15  1  0
 38 22  1  0
 14  8  1  0
 35 23  1  0
 29 24  1  0
M  END
$$$$
