
     RDKit          3D

 42 47  0  0  0  0  0  0  0  0999 V2000
  189.3718  156.1783  124.1529 C   0  0  0  0  0  0  0  0  0  0  0  0
  190.2311  157.2129  123.6026 N   0  0  0  0  0  0  0  0  0  0  0  0
  189.8806  157.9323  122.5189 C   0  0  0  0  0  0  0  0  0  0  0  0
  188.7656  157.6827  121.9800 O   0  0  0  0  0  0  0  0  0  0  0  0
  190.6191  158.8956  121.9614 N   0  0  0  0  0  0  0  0  0  0  0  0
  191.8137  159.1775  122.5225 C   0  0  0  0  0  0  0  0  0  0  0  0
  192.5504  160.0845  122.0283 O   0  0  0  0  0  0  0  0  0  0  0  0
  192.2657  158.4933  123.6409 C   0  0  0  0  0  0  0  0  0  0  0  0
  191.4221  157.5035  124.1507 C   0  0  0  0  0  0  0  0  0  0  0  0
  191.8607  156.8202  125.2583 C   0  0  0  0  0  0  0  0  0  0  0  0
  191.1013  155.8539  125.8036 F   0  0  0  0  0  0  0  0  0  0  0  0
  193.0794  157.0707  125.8733 C   0  0  0  0  0  0  0  0  0  0  0  0
  193.9102  158.0652  125.3483 C   0  0  0  0  0  0  0  0  0  0  0  0
  193.4746  158.7518  124.2391 C   0  0  0  0  0  0  0  0  0  0  0  0
  190.2099  159.6343  120.8119 C   0  0  0  0  0  0  0  0  0  0  0  0
  190.7412  159.4413  119.5675 C   0  0  0  0  0  0  0  0  0  0  0  0
  191.7922  158.4163  119.4000 C   0  0  0  0  0  0  0  0  0  0  0  0
  190.3252  160.1732  118.4649 C   0  0  0  0  0  0  0  0  0  0  0  0
  189.3428  161.1186  118.6612 C   0  0  0  0  0  0  0  0  0  0  0  0
  188.7904  161.3323  119.9083 C   0  0  0  0  0  0  0  0  0  0  0  0
  189.2270  160.5858  120.9886 C   0  0  0  0  0  0  0  0  0  0  0  0
  190.9184  159.9318  117.1710 C   0  0  0  0  0  0  0  0  0  0  0  0
  192.0241  160.6342  116.7626 C   0  0  0  0  0  0  0  0  0  0  0  0
  192.8290  161.6043  117.3258 C   0  0  0  0  0  0  0  0  0  0  0  0
  193.8410  161.9704  116.4484 C   0  0  0  0  0  0  0  0  0  0  0  0
  194.8341  163.0066  116.8453 C   0  0  0  0  0  0  0  0  0  0  0  0
  194.1909  164.1210  117.5898 C   0  0  2  0  0  0  0  0  0  0  0  0
  192.9276  163.7793  118.3113 C   0  0  0  0  0  0  0  0  0  0  0  0
  192.8310  162.2955  118.6300 C   0  0  0  0  0  0  0  0  0  0  0  0
  193.9907  165.3693  116.7599 C   0  0  0  0  0  0  0  0  0  0  0  0
  193.0066  165.1841  115.6535 C   0  0  0  0  0  0  0  0  0  0  0  0
  195.2727  165.9270  116.1918 C   0  0  0  0  0  0  0  0  0  0  0  0
  193.4762  166.3684  117.6311 O   0  0  0  0  0  0  0  0  0  0  0  0
  193.6542  161.2201  115.3443 N   0  0  0  0  0  0  0  0  0  0  0  0
  192.5873  160.4163  115.4942 C   0  0  0  0  0  0  0  0  0  0  0  0
  192.0140  159.4830  114.6597 C   0  0  0  0  0  0  0  0  0  0  0  0
  190.9010  158.7757  115.0721 C   0  0  0  0  0  0  0  0  0  0  0  0
  190.3450  158.9995  116.3393 C   0  0  0  0  0  0  0  0  0  0  0  0
  189.2462  158.2782  116.7038 F   0  0  0  0  0  0  0  0  0  0  0  0
  192.5358  159.1998  113.3342 C   0  0  0  0  0  0  0  0  0  0  0  0
  192.0219  158.1561  112.5248 N   0  0  0  0  0  0  0  0  0  0  0  0
  193.4728  159.8958  112.8797 O   0  0  0  0  0  0  0  0  0  0  0  0
  1  2  1  0
  2  3  1  0
  3  4  2  0
  3  5  1  0
  5  6  1  0
  6  7  2  0
  6  8  1  0
  8  9  2  0
  9 10  1  0
 10 11  1  0
 10 12  2  0
 12 13  1  0
 13 14  2  0
  5 15  1  0
 15 16  2  0
 16 17  1  0
 16 18  1  0
 18 19  2  0
 19 20  1  0
 20 21  2  0
 18 22  1  0
 22 23  2  0
 23 24  1  0
 24 25  2  0
 25 26  1  0
 26 27  1  0
 27 28  1  0
 28 29  1  0
 27 30  1  6
 30 31  1  0
 30 32  1  0
 30 33  1  0
 25 34  1  0
 34 35  1  0
 35 36  2  0
 36 37  1  0
 37 38  2  0
 38 39  1  0
 36 40  1  0
 40 41  1  0
 40 42  2  0
  9  2  1  0
 21 15  1  0
 38 22  1  0
 14  8  1  0
 35 23  1  0
 29 24  1  0
M  END
$$$$
