
     RDKit          3D

 42 47  0  0  0  0  0  0  0  0999 V2000
  124.9110  168.4228  147.2509 C   0  0  0  0  0  0  0  0  0  0  0  0
  124.0254  167.2853  147.4335 N   0  0  0  0  0  0  0  0  0  0  0  0
  122.7075  167.3541  147.1630 C   0  0  0  0  0  0  0  0  0  0  0  0
  122.2485  168.4519  146.7385 O   0  0  0  0  0  0  0  0  0  0  0  0
  121.8377  166.3506  147.3069 N   0  0  0  0  0  0  0  0  0  0  0  0
  122.3084  165.1694  147.7592 C   0  0  0  0  0  0  0  0  0  0  0  0
  121.5202  164.1871  147.9120 O   0  0  0  0  0  0  0  0  0  0  0  0
  123.6496  164.9964  148.0662 C   0  0  0  0  0  0  0  0  0  0  0  0
  124.4803  166.1043  147.8828 C   0  0  0  0  0  0  0  0  0  0  0  0
  125.8105  165.9431  148.1839 C   0  0  0  0  0  0  0  0  0  0  0  0
  126.6691  166.9666  148.0318 F   0  0  0  0  0  0  0  0  0  0  0  0
  126.3452  164.7508  148.6516 C   0  0  0  0  0  0  0  0  0  0  0  0
  125.4979  163.6529  148.8289 C   0  0  0  0  0  0  0  0  0  0  0  0
  124.1651  163.8103  148.5284 C   0  0  0  0  0  0  0  0  0  0  0  0
  120.4476  166.4662  147.0087 C   0  0  0  0  0  0  0  0  0  0  0  0
  119.8998  166.0722  145.8201 C   0  0  0  0  0  0  0  0  0  0  0  0
  120.7885  165.4964  144.7897 C   0  0  0  0  0  0  0  0  0  0  0  0
  118.5437  166.1951  145.5549 C   0  0  0  0  0  0  0  0  0  0  0  0
  117.7478  166.7355  146.5408 C   0  0  0  0  0  0  0  0  0  0  0  0
  118.2773  167.1409  147.7496 C   0  0  0  0  0  0  0  0  0  0  0  0
  119.6344  167.0052  147.9837 C   0  0  0  0  0  0  0  0  0  0  0  0
  118.0137  165.7645  144.2829 C   0  0  0  0  0  0  0  0  0  0  0  0
  118.0623  166.5876  143.1862 C   0  0  0  0  0  0  0  0  0  0  0  0
  118.5566  167.8517  142.9338 C   0  0  0  0  0  0  0  0  0  0  0  0
  118.3356  168.2083  141.6102 C   0  0  0  0  0  0  0  0  0  0  0  0
  118.7873  169.5361  141.1097 C   0  0  0  0  0  0  0  0  0  0  0  0
  118.5516  170.6061  142.1144 C   0  0  2  0  0  0  0  0  0  0  0  0
  118.5082  170.1628  143.5408 C   0  0  0  0  0  0  0  0  0  0  0  0
  119.2549  168.8562  143.7596 C   0  0  0  0  0  0  0  0  0  0  0  0
  117.3523  171.4743  141.8061 C   0  0  0  0  0  0  0  0  0  0  0  0
  117.4530  172.1632  140.4863 C   0  0  0  0  0  0  0  0  0  0  0  0
  117.0584  172.4976  142.8757 C   0  0  0  0  0  0  0  0  0  0  0  0
  116.2200  170.6155  141.7584 O   0  0  0  0  0  0  0  0  0  0  0  0
  117.7039  167.1571  141.0509 N   0  0  0  0  0  0  0  0  0  0  0  0
  117.5253  166.1779  141.9543 C   0  0  0  0  0  0  0  0  0  0  0  0
  116.9464  164.9323  141.8586 C   0  0  0  0  0  0  0  0  0  0  0  0
  116.8985  164.1038  142.9634 C   0  0  0  0  0  0  0  0  0  0  0  0
  117.4363  164.5204  144.1891 C   0  0  0  0  0  0  0  0  0  0  0  0
  117.3665  163.6693  145.2527 F   0  0  0  0  0  0  0  0  0  0  0  0
  116.3692  164.4355  140.6219 C   0  0  0  0  0  0  0  0  0  0  0  0
  115.8429  163.1249  140.5044 N   0  0  0  0  0  0  0  0  0  0  0  0
  116.3295  165.1825  139.6173 O   0  0  0  0  0  0  0  0  0  0  0  0
  1  2  1  0
  2  3  1  0
  3  4  2  0
  3  5  1  0
  5  6  1  0
  6  7  2  0
  6  8  1  0
  8  9  2  0
  9 10  1  0
 10 11  1  0
 10 12  2  0
 12 13  1  0
 13 14  2  0
  5 15  1  0
 15 16  2  0
 16 17  1  0
 16 18  1  0
 18 19  2  0
 19 20  1  0
 20 21  2  0
 18 22  1  0
 22 23  2  0
 23 24  1  0
 24 25  2  0
 25 26  1  0
 26 27  1  0
 27 28  1  0
 28 29  1  0
 27 30  1  6
 30 31  1  0
 30 32  1  0
 30 33  1  0
 25 34  1  0
 34 35  1  0
 35 36  2  0
 36 37  1  0
 37 38  2  0
 38 39  1  0
 36 40  1  0
 40 41  1  0
 40 42  2  0
  9  2  1  0
 21 15  1  0
 38 22  1  0
 14  8  1  0
 35 23  1  0
 29 24  1  0
M  END
$$$$
