
     RDKit          3D

 42 47  0  0  0  0  0  0  0  0999 V2000
  128.7200  179.5053  153.7267 C   0  0  0  0  0  0  0  0  0  0  0  0
  128.2888  180.0875  152.4671 N   0  0  0  0  0  0  0  0  0  0  0  0
  129.0830  180.9034  151.7471 C   0  0  0  0  0  0  0  0  0  0  0  0
  130.2347  181.1569  152.2003 O   0  0  0  0  0  0  0  0  0  0  0  0
  128.7524  181.4718  150.5844 N   0  0  0  0  0  0  0  0  0  0  0  0
  127.5263  181.2133  150.0834 C   0  0  0  0  0  0  0  0  0  0  0  0
  127.1673  181.7304  148.9819 O   0  0  0  0  0  0  0  0  0  0  0  0
  126.6341  180.3860  150.7486 C   0  0  0  0  0  0  0  0  0  0  0  0
  127.0717  179.8389  151.9571 C   0  0  0  0  0  0  0  0  0  0  0  0
  126.1954  179.0179  152.6236 C   0  0  0  0  0  0  0  0  0  0  0  0
  126.5484  178.4560  153.7930 F   0  0  0  0  0  0  0  0  0  0  0  0
  124.9243  178.7200  152.1525 C   0  0  0  0  0  0  0  0  0  0  0  0
  124.5041  179.2771  150.9409 C   0  0  0  0  0  0  0  0  0  0  0  0
  125.3789  180.0998  150.2704 C   0  0  0  0  0  0  0  0  0  0  0  0
  129.6250  182.3313  149.8533 C   0  0  0  0  0  0  0  0  0  0  0  0
  129.6567  183.6873  150.0212 C   0  0  0  0  0  0  0  0  0  0  0  0
  128.7434  184.2978  151.0093 C   0  0  0  0  0  0  0  0  0  0  0  0
  130.5155  184.5014  149.2973 C   0  0  0  0  0  0  0  0  0  0  0  0
  131.3523  183.8950  148.3865 C   0  0  0  0  0  0  0  0  0  0  0  0
  131.3392  182.5273  148.1987 C   0  0  0  0  0  0  0  0  0  0  0  0
  130.4706  181.7423  148.9363 C   0  0  0  0  0  0  0  0  0  0  0  0
  130.5104  185.9293  149.5111 C   0  0  0  0  0  0  0  0  0  0  0  0
  131.4482  186.5224  150.3181 C   0  0  0  0  0  0  0  0  0  0  0  0
  132.5328  186.0772  151.0470 C   0  0  0  0  0  0  0  0  0  0  0  0
  133.1548  187.1360  151.6951 C   0  0  0  0  0  0  0  0  0  0  0  0
  134.3536  186.8910  152.5438 C   0  0  0  0  0  0  0  0  0  0  0  0
  134.2137  185.6414  153.3368 C   0  0  2  0  0  0  0  0  0  0  0  0
  133.3051  184.6033  152.7625 C   0  0  0  0  0  0  0  0  0  0  0  0
  133.1434  184.7500  151.2576 C   0  0  0  0  0  0  0  0  0  0  0  0
  133.8719  185.8805  154.7905 C   0  0  0  0  0  0  0  0  0  0  0  0
  134.7950  186.8450  155.4571 C   0  0  0  0  0  0  0  0  0  0  0  0
  133.8051  184.6149  155.6097 C   0  0  0  0  0  0  0  0  0  0  0  0
  132.5659  186.4420  154.8224 O   0  0  0  0  0  0  0  0  0  0  0  0
  132.4475  188.2335  151.3602 N   0  0  0  0  0  0  0  0  0  0  0  0
  131.4290  187.9087  150.5452 C   0  0  0  0  0  0  0  0  0  0  0  0
  130.4526  188.6711  149.9442 C   0  0  0  0  0  0  0  0  0  0  0  0
  129.5090  188.0729  149.1311 C   0  0  0  0  0  0  0  0  0  0  0  0
  129.5349  186.6889  148.9100 C   0  0  0  0  0  0  0  0  0  0  0  0
  128.5835  186.1419  148.1000 F   0  0  0  0  0  0  0  0  0  0  0  0
  130.3645  190.1090  150.1288 C   0  0  0  0  0  0  0  0  0  0  0  0
  129.4376  190.9090  149.4151 N   0  0  0  0  0  0  0  0  0  0  0  0
  131.1294  190.6730  150.9447 O   0  0  0  0  0  0  0  0  0  0  0  0
  1  2  1  0
  2  3  1  0
  3  4  2  0
  3  5  1  0
  5  6  1  0
  6  7  2  0
  6  8  1  0
  8  9  2  0
  9 10  1  0
 10 11  1  0
 10 12  2  0
 12 13  1  0
 13 14  2  0
  5 15  1  0
 15 16  2  0
 16 17  1  0
 16 18  1  0
 18 19  2  0
 19 20  1  0
 20 21  2  0
 18 22  1  0
 22 23  2  0
 23 24  1  0
 24 25  2  0
 25 26  1  0
 26 27  1  0
 27 28  1  0
 28 29  1  0
 27 30  1  1
 30 31  1  0
 30 32  1  0
 30 33  1  0
 25 34  1  0
 34 35  1  0
 35 36  2  0
 36 37  1  0
 37 38  2  0
 38 39  1  0
 36 40  1  0
 40 41  1  0
 40 42  2  0
  9  2  1  0
 21 15  1  0
 38 22  1  0
 14  8  1  0
 35 23  1  0
 29 24  1  0
M  END
$$$$
