
     RDKit          3D

 42 47  0  0  0  0  0  0  0  0999 V2000
  212.6788  136.6874  133.8172 C   0  0  0  0  0  0  0  0  0  0  0  0
  211.9564  135.4519  134.0682 N   0  0  0  0  0  0  0  0  0  0  0  0
  210.7130  135.4430  134.5868 C   0  0  0  0  0  0  0  0  0  0  0  0
  210.1777  136.5552  134.8560 O   0  0  0  0  0  0  0  0  0  0  0  0
  209.9925  134.3477  134.8425 N   0  0  0  0  0  0  0  0  0  0  0  0
  210.5466  133.1497  134.5618 C   0  0  0  0  0  0  0  0  0  0  0  0
  209.9006  132.0814  134.7874 O   0  0  0  0  0  0  0  0  0  0  0  0
  211.8219  133.0517  134.0256 C   0  0  0  0  0  0  0  0  0  0  0  0
  212.4958  134.2531  133.7937 C   0  0  0  0  0  0  0  0  0  0  0  0
  213.7594  134.1669  133.2627 C   0  0  0  0  0  0  0  0  0  0  0  0
  214.4677  135.2822  133.0130 F   0  0  0  0  0  0  0  0  0  0  0  0
  214.3747  132.9612  132.9560 C   0  0  0  0  0  0  0  0  0  0  0  0
  213.6843  131.7692  133.1952 C   0  0  0  0  0  0  0  0  0  0  0  0
  212.4185  131.8514  133.7270 C   0  0  0  0  0  0  0  0  0  0  0  0
  208.6772  134.3829  135.3932 C   0  0  0  0  0  0  0  0  0  0  0  0
  207.5514  134.5537  134.6374 C   0  0  0  0  0  0  0  0  0  0  0  0
  207.6996  134.7096  133.1756 C   0  0  0  0  0  0  0  0  0  0  0  0
  206.2828  134.5839  135.1978 C   0  0  0  0  0  0  0  0  0  0  0  0
  206.1857  134.4341  136.5638 C   0  0  0  0  0  0  0  0  0  0  0  0
  207.3078  134.2601  137.3489 C   0  0  0  0  0  0  0  0  0  0  0  0
  208.5596  134.2346  136.7596 C   0  0  0  0  0  0  0  0  0  0  0  0
  205.1244  134.7676  134.3560 C   0  0  0  0  0  0  0  0  0  0  0  0
  204.2755  133.7229  134.0907 C   0  0  0  0  0  0  0  0  0  0  0  0
  204.2077  132.3975  134.4713 C   0  0  0  0  0  0  0  0  0  0  0  0
  203.1058  131.7788  133.8958 C   0  0  0  0  0  0  0  0  0  0  0  0
  202.8310  130.3407  134.1674 C   0  0  0  0  0  0  0  0  0  0  0  0
  204.0838  129.5406  134.1860 C   0  0  2  0  0  0  0  0  0  0  0  0
  205.3295  130.2881  134.5362 C   0  0  0  0  0  0  0  0  0  0  0  0
  205.0385  131.5440  135.3429 C   0  0  0  0  0  0  0  0  0  0  0  0
  204.3040  128.7290  132.9290 C   0  0  0  0  0  0  0  0  0  0  0  0
  203.0316  128.2678  132.3005 C   0  0  0  0  0  0  0  0  0  0  0  0
  205.2137  127.5418  133.1301 C   0  0  0  0  0  0  0  0  0  0  0  0
  204.9617  129.5782  131.9971 O   0  0  0  0  0  0  0  0  0  0  0  0
  202.4969  132.7307  133.1608 N   0  0  0  0  0  0  0  0  0  0  0  0
  203.1613  133.8956  133.2524 C   0  0  0  0  0  0  0  0  0  0  0  0
  202.9286  135.1337  132.6968 C   0  0  0  0  0  0  0  0  0  0  0  0
  203.7836  136.1854  132.9651 C   0  0  0  0  0  0  0  0  0  0  0  0
  204.8933  136.0045  133.8022 C   0  0  0  0  0  0  0  0  0  0  0  0
  205.7101  137.0710  134.0388 F   0  0  0  0  0  0  0  0  0  0  0  0
  201.7999  135.3934  131.8204 C   0  0  0  0  0  0  0  0  0  0  0  0
  201.6034  136.6472  131.1896 N   0  0  0  0  0  0  0  0  0  0  0  0
  200.9643  134.4850  131.6070 O   0  0  0  0  0  0  0  0  0  0  0  0
  1  2  1  0
  2  3  1  0
  3  4  2  0
  3  5  1  0
  5  6  1  0
  6  7  2  0
  6  8  1  0
  8  9  2  0
  9 10  1  0
 10 11  1  0
 10 12  2  0
 12 13  1  0
 13 14  2  0
  5 15  1  0
 15 16  2  0
 16 17  1  0
 16 18  1  0
 18 19  2  0
 19 20  1  0
 20 21  2  0
 18 22  1  0
 22 23  2  0
 23 24  1  0
 24 25  2  0
 25 26  1  0
 26 27  1  0
 27 28  1  0
 28 29  1  0
 27 30  1  6
 30 31  1  0
 30 32  1  0
 30 33  1  0
 25 34  1  0
 34 35  1  0
 35 36  2  0
 36 37  1  0
 37 38  2  0
 38 39  1  0
 36 40  1  0
 40 41  1  0
 40 42  2  0
  9  2  1  0
 21 15  1  0
 38 22  1  0
 14  8  1  0
 35 23  1  0
 29 24  1  0
M  END
$$$$
