
     RDKit          3D

 42 47  0  0  0  0  0  0  0  0999 V2000
  163.2037  155.8852  127.8418 C   0  0  0  0  0  0  0  0  0  0  0  0
  164.3444  155.1997  127.2584 N   0  0  0  0  0  0  0  0  0  0  0  0
  164.7799  154.0126  127.7232 C   0  0  0  0  0  0  0  0  0  0  0  0
  164.1624  153.4977  128.6976 O   0  0  0  0  0  0  0  0  0  0  0  0
  165.8186  153.3283  127.2362 N   0  0  0  0  0  0  0  0  0  0  0  0
  166.4914  153.8615  126.1950 C   0  0  0  0  0  0  0  0  0  0  0  0
  167.4848  153.2482  125.6984 O   0  0  0  0  0  0  0  0  0  0  0  0
  166.1220  155.0794  125.6440 C   0  0  0  0  0  0  0  0  0  0  0  0
  165.0229  155.7188  126.2223 C   0  0  0  0  0  0  0  0  0  0  0  0
  164.6491  156.9255  125.6837 C   0  0  0  0  0  0  0  0  0  0  0  0
  163.6003  157.5980  126.1894 F   0  0  0  0  0  0  0  0  0  0  0  0
  165.3062  157.5172  124.6140 C   0  0  0  0  0  0  0  0  0  0  0  0
  166.4043  156.8620  124.0485 C   0  0  0  0  0  0  0  0  0  0  0  0
  166.7818  155.6532  124.5851 C   0  0  0  0  0  0  0  0  0  0  0  0
  166.2473  152.0723  127.7591 C   0  0  0  0  0  0  0  0  0  0  0  0
  165.9160  150.8722  127.1952 C   0  0  0  0  0  0  0  0  0  0  0  0
  165.0721  150.8711  125.9824 C   0  0  0  0  0  0  0  0  0  0  0  0
  166.3465  149.6639  127.7235 C   0  0  0  0  0  0  0  0  0  0  0  0
  167.1324  149.7063  128.8540 C   0  0  0  0  0  0  0  0  0  0  0  0
  167.4807  150.9058  129.4421 C   0  0  0  0  0  0  0  0  0  0  0  0
  167.0352  152.0944  128.8911 C   0  0  0  0  0  0  0  0  0  0  0  0
  165.9687  148.4224  127.0907 C   0  0  0  0  0  0  0  0  0  0  0  0
  166.8451  147.7553  126.2725 C   0  0  0  0  0  0  0  0  0  0  0  0
  168.1466  147.9605  125.8600 C   0  0  0  0  0  0  0  0  0  0  0  0
  168.5570  146.9419  125.0102 C   0  0  0  0  0  0  0  0  0  0  0  0
  169.9322  146.9551  124.4392 C   0  0  0  0  0  0  0  0  0  0  0  0
  170.3468  148.3280  124.0483 C   0  0  2  0  0  0  0  0  0  0  0  0
  169.6805  149.4447  124.7846 C   0  0  0  0  0  0  0  0  0  0  0  0
  169.1519  149.0041  126.1408 C   0  0  0  0  0  0  0  0  0  0  0  0
  170.2824  148.5802  122.5585 C   0  0  0  0  0  0  0  0  0  0  0  0
  171.1125  147.6252  121.7675 C   0  0  0  0  0  0  0  0  0  0  0  0
  170.6490  149.9916  122.1700 C   0  0  0  0  0  0  0  0  0  0  0  0
  168.9276  148.4008  122.1658 O   0  0  0  0  0  0  0  0  0  0  0  0
  167.5017  146.1101  124.9035 N   0  0  0  0  0  0  0  0  0  0  0  0
  166.4695  146.5596  125.6379 C   0  0  0  0  0  0  0  0  0  0  0  0
  165.2036  146.0603  125.8482 C   0  0  0  0  0  0  0  0  0  0  0  0
  164.3220  146.7324  126.6730 C   0  0  0  0  0  0  0  0  0  0  0  0
  164.7046  147.9252  127.3021 C   0  0  0  0  0  0  0  0  0  0  0  0
  163.8012  148.5544  128.1075 F   0  0  0  0  0  0  0  0  0  0  0  0
  164.7392  144.8313  125.2292 C   0  0  0  0  0  0  0  0  0  0  0  0
  163.4375  144.3165  125.4505 N   0  0  0  0  0  0  0  0  0  0  0  0
  165.5072  144.1953  124.4711 O   0  0  0  0  0  0  0  0  0  0  0  0
  1  2  1  0
  2  3  1  0
  3  4  2  0
  3  5  1  0
  5  6  1  0
  6  7  2  0
  6  8  1  0
  8  9  2  0
  9 10  1  0
 10 11  1  0
 10 12  2  0
 12 13  1  0
 13 14  2  0
  5 15  1  0
 15 16  2  0
 16 17  1  0
 16 18  1  0
 18 19  2  0
 19 20  1  0
 20 21  2  0
 18 22  1  0
 22 23  2  0
 23 24  1  0
 24 25  2  0
 25 26  1  0
 26 27  1  0
 27 28  1  0
 28 29  1  0
 27 30  1  6
 30 31  1  0
 30 32  1  0
 30 33  1  0
 25 34  1  0
 34 35  1  0
 35 36  2  0
 36 37  1  0
 37 38  2  0
 38 39  1  0
 36 40  1  0
 40 41  1  0
 40 42  2  0
  9  2  1  0
 21 15  1  0
 38 22  1  0
 14  8  1  0
 35 23  1  0
 29 24  1  0
M  END
$$$$
