
     RDKit          3D

 42 47  0  0  0  0  0  0  0  0999 V2000
  132.5649  142.6810  123.8414 C   0  0  0  0  0  0  0  0  0  0  0  0
  133.2038  142.3366  125.1003 N   0  0  0  0  0  0  0  0  0  0  0  0
  132.9104  141.2019  125.7645 C   0  0  0  0  0  0  0  0  0  0  0  0
  132.0496  140.4276  125.2588 O   0  0  0  0  0  0  0  0  0  0  0  0
  133.4577  140.8232  126.9225 N   0  0  0  0  0  0  0  0  0  0  0  0
  134.3795  141.6366  127.4791 C   0  0  0  0  0  0  0  0  0  0  0  0
  134.9271  141.3192  128.5786 O   0  0  0  0  0  0  0  0  0  0  0  0
  134.7509  142.8279  126.8739 C   0  0  0  0  0  0  0  0  0  0  0  0
  134.1225  143.1368  125.6652 C   0  0  0  0  0  0  0  0  0  0  0  0
  134.4835  144.3144  125.0577 C   0  0  0  0  0  0  0  0  0  0  0  0
  133.9200  144.6767  123.8920 F   0  0  0  0  0  0  0  0  0  0  0  0
  135.4252  145.1857  125.5872 C   0  0  0  0  0  0  0  0  0  0  0  0
  136.0434  144.8593  126.7981 C   0  0  0  0  0  0  0  0  0  0  0  0
  135.6845  143.6808  127.4095 C   0  0  0  0  0  0  0  0  0  0  0  0
  133.1177  139.6114  127.5938 C   0  0  0  0  0  0  0  0  0  0  0  0
  132.2749  139.5597  128.6685 C   0  0  0  0  0  0  0  0  0  0  0  0
  131.6832  140.8201  129.1627 C   0  0  0  0  0  0  0  0  0  0  0  0
  131.9600  138.3673  129.3036 C   0  0  0  0  0  0  0  0  0  0  0  0
  132.5305  137.2135  128.8128 C   0  0  0  0  0  0  0  0  0  0  0  0
  133.3849  137.2397  127.7287 C   0  0  0  0  0  0  0  0  0  0  0  0
  133.6794  138.4453  127.1167 C   0  0  0  0  0  0  0  0  0  0  0  0
  131.0643  138.3657  130.4360 C   0  0  0  0  0  0  0  0  0  0  0  0
  131.5492  138.4631  131.7158 C   0  0  0  0  0  0  0  0  0  0  0  0
  132.8024  138.6001  132.2786 C   0  0  0  0  0  0  0  0  0  0  0  0
  132.7137  138.6557  133.6632 C   0  0  0  0  0  0  0  0  0  0  0  0
  133.9469  138.8030  134.4847 C   0  0  0  0  0  0  0  0  0  0  0  0
  135.0640  137.9861  133.9419 C   0  0  2  0  0  0  0  0  0  0  0  0
  135.0020  137.6872  132.4791 C   0  0  0  0  0  0  0  0  0  0  0  0
  134.1645  138.7042  131.7196 C   0  0  0  0  0  0  0  0  0  0  0  0
  135.3188  136.7140  134.7191 C   0  0  0  0  0  0  0  0  0  0  0  0
  134.9069  136.8108  136.1501 C   0  0  0  0  0  0  0  0  0  0  0  0
  136.7502  136.2414  134.6486 C   0  0  0  0  0  0  0  0  0  0  0  0
  134.5349  135.6940  134.1134 O   0  0  0  0  0  0  0  0  0  0  0  0
  131.4001  138.5530  133.9478 N   0  0  0  0  0  0  0  0  0  0  0  0
  130.6796  138.4377  132.8189 C   0  0  0  0  0  0  0  0  0  0  0  0
  129.3258  138.3140  132.6001 C   0  0  0  0  0  0  0  0  0  0  0  0
  128.8384  138.2167  131.3109 C   0  0  0  0  0  0  0  0  0  0  0  0
  129.7130  138.2424  130.2157 C   0  0  0  0  0  0  0  0  0  0  0  0
  129.1870  138.1433  128.9611 F   0  0  0  0  0  0  0  0  0  0  0  0
  128.3621  138.2797  133.6861 C   0  0  0  0  0  0  0  0  0  0  0  0
  126.9667  138.1843  133.4579 N   0  0  0  0  0  0  0  0  0  0  0  0
  128.7667  138.3357  134.8703 O   0  0  0  0  0  0  0  0  0  0  0  0
  1  2  1  0
  2  3  1  0
  3  4  2  0
  3  5  1  0
  5  6  1  0
  6  7  2  0
  6  8  1  0
  8  9  2  0
  9 10  1  0
 10 11  1  0
 10 12  2  0
 12 13  1  0
 13 14  2  0
  5 15  1  0
 15 16  2  0
 16 17  1  0
 16 18  1  0
 18 19  2  0
 19 20  1  0
 20 21  2  0
 18 22  1  0
 22 23  2  0
 23 24  1  0
 24 25  2  0
 25 26  1  0
 26 27  1  0
 27 28  1  0
 28 29  1  0
 27 30  1  1
 30 31  1  0
 30 32  1  0
 30 33  1  0
 25 34  1  0
 34 35  1  0
 35 36  2  0
 36 37  1  0
 37 38  2  0
 38 39  1  0
 36 40  1  0
 40 41  1  0
 40 42  2  0
  9  2  1  0
 21 15  1  0
 38 22  1  0
 14  8  1  0
 35 23  1  0
 29 24  1  0
M  END
$$$$
