
     RDKit          3D

 42 47  0  0  0  0  0  0  0  0999 V2000
  191.0845  160.1938  125.8325 C   0  0  0  0  0  0  0  0  0  0  0  0
  190.7129  159.1452  124.8977 N   0  0  0  0  0  0  0  0  0  0  0  0
  190.4527  159.4021  123.6011 C   0  0  0  0  0  0  0  0  0  0  0  0
  190.5401  160.5993  123.2074 O   0  0  0  0  0  0  0  0  0  0  0  0
  190.1069  158.4897  122.6889 N   0  0  0  0  0  0  0  0  0  0  0  0
  190.0082  157.2048  123.0896 C   0  0  0  0  0  0  0  0  0  0  0  0
  189.6829  156.3026  122.2590 O   0  0  0  0  0  0  0  0  0  0  0  0
  190.2560  156.8370  124.4036 C   0  0  0  0  0  0  0  0  0  0  0  0
  190.6109  157.8628  125.2829 C   0  0  0  0  0  0  0  0  0  0  0  0
  190.8585  157.5088  126.5865 C   0  0  0  0  0  0  0  0  0  0  0  0
  191.2051  158.4435  127.4888 F   0  0  0  0  0  0  0  0  0  0  0  0
  190.7711  156.2035  127.0499 C   0  0  0  0  0  0  0  0  0  0  0  0
  190.4144  155.1904  126.1547 C   0  0  0  0  0  0  0  0  0  0  0  0
  190.1656  155.5408  124.8483 C   0  0  0  0  0  0  0  0  0  0  0  0
  189.8393  158.8049  121.3238 C   0  0  0  0  0  0  0  0  0  0  0  0
  190.8048  158.8333  120.3568 C   0  0  0  0  0  0  0  0  0  0  0  0
  192.1972  158.5217  120.7404 C   0  0  0  0  0  0  0  0  0  0  0  0
  190.5180  159.1428  119.0353 C   0  0  0  0  0  0  0  0  0  0  0  0
  189.2081  159.4264  118.7169 C   0  0  0  0  0  0  0  0  0  0  0  0
  188.2149  159.4043  119.6755 C   0  0  0  0  0  0  0  0  0  0  0  0
  188.5331  159.0919  120.9855 C   0  0  0  0  0  0  0  0  0  0  0  0
  191.5740  159.1599  118.0510 C   0  0  0  0  0  0  0  0  0  0  0  0
  192.3768  160.2624  117.9006 C   0  0  0  0  0  0  0  0  0  0  0  0
  192.4748  161.4922  118.5204 C   0  0  0  0  0  0  0  0  0  0  0  0
  193.4975  162.2439  117.9572 C   0  0  0  0  0  0  0  0  0  0  0  0
  193.7876  163.6116  118.4696 C   0  0  0  0  0  0  0  0  0  0  0  0
  192.5376  164.3534  118.7810 C   0  0  2  0  0  0  0  0  0  0  0  0
  191.3475  163.5138  119.1155 C   0  0  0  0  0  0  0  0  0  0  0  0
  191.7411  162.1368  119.6270 C   0  0  0  0  0  0  0  0  0  0  0  0
  192.1669  165.3828  117.7369 C   0  0  0  0  0  0  0  0  0  0  0  0
  193.3103  166.2593  117.3483 C   0  0  0  0  0  0  0  0  0  0  0  0
  190.9948  166.2471  118.1325 C   0  0  0  0  0  0  0  0  0  0  0  0
  191.7582  164.6685  116.5772 O   0  0  0  0  0  0  0  0  0  0  0  0
  194.0273  161.4697  116.9892 N   0  0  0  0  0  0  0  0  0  0  0  0
  193.3891  160.2883  116.9268 C   0  0  0  0  0  0  0  0  0  0  0  0
  193.5687  159.1871  116.1199 C   0  0  0  0  0  0  0  0  0  0  0  0
  192.7602  158.0770  116.2726 C   0  0  0  0  0  0  0  0  0  0  0  0
  191.7521  158.0595  117.2465 C   0  0  0  0  0  0  0  0  0  0  0  0
  190.9781  156.9422  117.3612 F   0  0  0  0  0  0  0  0  0  0  0  0
  194.5920  159.1354  115.0906 C   0  0  0  0  0  0  0  0  0  0  0  0
  194.6759  158.0710  114.1586 N   0  0  0  0  0  0  0  0  0  0  0  0
  195.4353  160.0583  115.0139 O   0  0  0  0  0  0  0  0  0  0  0  0
  1  2  1  0
  2  3  1  0
  3  4  2  0
  3  5  1  0
  5  6  1  0
  6  7  2  0
  6  8  1  0
  8  9  2  0
  9 10  1  0
 10 11  1  0
 10 12  2  0
 12 13  1  0
 13 14  2  0
  5 15  1  0
 15 16  2  0
 16 17  1  0
 16 18  1  0
 18 19  2  0
 19 20  1  0
 20 21  2  0
 18 22  1  0
 22 23  2  0
 23 24  1  0
 24 25  2  0
 25 26  1  0
 26 27  1  0
 27 28  1  0
 28 29  1  0
 27 30  1  6
 30 31  1  0
 30 32  1  0
 30 33  1  0
 25 34  1  0
 34 35  1  0
 35 36  2  0
 36 37  1  0
 37 38  2  0
 38 39  1  0
 36 40  1  0
 40 41  1  0
 40 42  2  0
  9  2  1  0
 21 15  1  0
 38 22  1  0
 14  8  1  0
 35 23  1  0
 29 24  1  0
M  END
$$$$
