
     RDKit          3D

 42 47  0  0  0  0  0  0  0  0999 V2000
  145.3444  161.0049  131.8262 C   0  0  0  0  0  0  0  0  0  0  0  0
  146.2752  161.8900  131.1467 N   0  0  0  0  0  0  0  0  0  0  0  0
  146.0252  163.2040  130.9860 C   0  0  0  0  0  0  0  0  0  0  0  0
  144.9412  163.6595  131.4482 O   0  0  0  0  0  0  0  0  0  0  0  0
  146.8338  164.0732  130.3738 N   0  0  0  0  0  0  0  0  0  0  0  0
  147.9968  163.6062  129.8731 C   0  0  0  0  0  0  0  0  0  0  0  0
  148.7973  164.3940  129.2833 O   0  0  0  0  0  0  0  0  0  0  0  0
  148.3469  162.2692  129.9870 C   0  0  0  0  0  0  0  0  0  0  0  0
  147.4357  161.4387  130.6438 C   0  0  0  0  0  0  0  0  0  0  0  0
  147.7733  160.1128  130.7618 C   0  0  0  0  0  0  0  0  0  0  0  0
  146.9445  159.2546  131.3819 F   0  0  0  0  0  0  0  0  0  0  0  0
  148.9556  159.5819  130.2653 C   0  0  0  0  0  0  0  0  0  0  0  0
  149.8552  160.4289  129.6108 C   0  0  0  0  0  0  0  0  0  0  0  0
  149.5207  161.7575  129.4906 C   0  0  0  0  0  0  0  0  0  0  0  0
  146.5301  165.4589  130.2247 C   0  0  0  0  0  0  0  0  0  0  0  0
  146.5903  166.3554  131.2547 C   0  0  0  0  0  0  0  0  0  0  0  0
  146.9903  165.8691  132.5913 C   0  0  0  0  0  0  0  0  0  0  0  0
  146.2901  167.6988  131.0831 C   0  0  0  0  0  0  0  0  0  0  0  0
  145.9224  168.1139  129.8221 C   0  0  0  0  0  0  0  0  0  0  0  0
  145.8542  167.2278  128.7657 C   0  0  0  0  0  0  0  0  0  0  0  0
  146.1598  165.8935  128.9691 C   0  0  0  0  0  0  0  0  0  0  0  0
  146.3682  168.6061  132.2035 C   0  0  0  0  0  0  0  0  0  0  0  0
  147.4076  169.4945  132.3174 C   0  0  0  0  0  0  0  0  0  0  0  0
  148.5139  169.8078  131.5533 C   0  0  0  0  0  0  0  0  0  0  0  0
  149.2529  170.8186  132.1535 C   0  0  0  0  0  0  0  0  0  0  0  0
  150.4951  171.3212  131.5041 C   0  0  0  0  0  0  0  0  0  0  0  0
  151.2845  170.2124  130.9064 C   0  0  2  0  0  0  0  0  0  0  0  0
  150.5087  168.9961  130.5170 C   0  0  0  0  0  0  0  0  0  0  0  0
  149.0406  169.3058  130.2691 C   0  0  0  0  0  0  0  0  0  0  0  0
  152.4907  169.8152  131.7277 C   0  0  0  0  0  0  0  0  0  0  0  0
  153.3931  170.9635  132.0344 C   0  0  0  0  0  0  0  0  0  0  0  0
  153.3010  168.7026  131.1089 C   0  0  0  0  0  0  0  0  0  0  0  0
  152.0024  169.3091  132.9636 O   0  0  0  0  0  0  0  0  0  0  0  0
  148.5947  171.1249  133.2893 N   0  0  0  0  0  0  0  0  0  0  0  0
  147.4964  170.3610  133.4196 C   0  0  0  0  0  0  0  0  0  0  0  0
  146.5216  170.3093  134.3907 C   0  0  0  0  0  0  0  0  0  0  0  0
  145.4749  169.4148  134.2748 C   0  0  0  0  0  0  0  0  0  0  0  0
  145.3940  168.5533  133.1720 C   0  0  0  0  0  0  0  0  0  0  0  0
  144.3430  167.6868  133.0995 F   0  0  0  0  0  0  0  0  0  0  0  0
  146.5417  171.1708  135.5598 C   0  0  0  0  0  0  0  0  0  0  0  0
  145.4711  171.2139  136.4875 N   0  0  0  0  0  0  0  0  0  0  0  0
  147.5347  171.9059  135.7660 O   0  0  0  0  0  0  0  0  0  0  0  0
  1  2  1  0
  2  3  1  0
  3  4  2  0
  3  5  1  0
  5  6  1  0
  6  7  2  0
  6  8  1  0
  8  9  2  0
  9 10  1  0
 10 11  1  0
 10 12  2  0
 12 13  1  0
 13 14  2  0
  5 15  1  0
 15 16  2  0
 16 17  1  0
 16 18  1  0
 18 19  2  0
 19 20  1  0
 20 21  2  0
 18 22  1  0
 22 23  2  0
 23 24  1  0
 24 25  2  0
 25 26  1  0
 26 27  1  0
 27 28  1  0
 28 29  1  0
 27 30  1  1
 30 31  1  0
 30 32  1  0
 30 33  1  0
 25 34  1  0
 34 35  1  0
 35 36  2  0
 36 37  1  0
 37 38  2  0
 38 39  1  0
 36 40  1  0
 40 41  1  0
 40 42  2  0
  9  2  1  0
 21 15  1  0
 38 22  1  0
 14  8  1  0
 35 23  1  0
 29 24  1  0
M  END
$$$$
