
     RDKit          3D

 42 47  0  0  0  0  0  0  0  0999 V2000
  121.0446  163.9953  146.2837 C   0  0  0  0  0  0  0  0  0  0  0  0
  120.7569  165.4156  146.1766 N   0  0  0  0  0  0  0  0  0  0  0  0
  120.3631  165.9803  145.0186 C   0  0  0  0  0  0  0  0  0  0  0  0
  120.2472  165.2328  144.0067 O   0  0  0  0  0  0  0  0  0  0  0  0
  120.0824  167.2751  144.8488 N   0  0  0  0  0  0  0  0  0  0  0  0
  120.2000  168.0903  145.9179 C   0  0  0  0  0  0  0  0  0  0  0  0
  119.9441  169.3278  145.8055 O   0  0  0  0  0  0  0  0  0  0  0  0
  120.5988  167.6062  147.1548 C   0  0  0  0  0  0  0  0  0  0  0  0
  120.8698  166.2380  147.2321 C   0  0  0  0  0  0  0  0  0  0  0  0
  121.2653  165.7487  148.4529 C   0  0  0  0  0  0  0  0  0  0  0  0
  121.5432  164.4416  148.6018 F   0  0  0  0  0  0  0  0  0  0  0  0
  121.4019  166.5432  149.5826 C   0  0  0  0  0  0  0  0  0  0  0  0
  121.1261  167.9105  149.4855 C   0  0  0  0  0  0  0  0  0  0  0  0
  120.7297  168.4044  148.2647 C   0  0  0  0  0  0  0  0  0  0  0  0
  119.6682  167.8331  143.6032 C   0  0  0  0  0  0  0  0  0  0  0  0
  118.3621  168.0904  143.2934 C   0  0  0  0  0  0  0  0  0  0  0  0
  117.3237  167.7770  144.2967 C   0  0  0  0  0  0  0  0  0  0  0  0
  117.9854  168.6340  142.0740 C   0  0  0  0  0  0  0  0  0  0  0  0
  118.9824  168.9134  141.1654 C   0  0  0  0  0  0  0  0  0  0  0  0
  120.3088  168.6627  141.4547 C   0  0  0  0  0  0  0  0  0  0  0  0
  120.6524  168.1196  142.6802 C   0  0  0  0  0  0  0  0  0  0  0  0
  116.5917  168.8867  141.7945 C   0  0  0  0  0  0  0  0  0  0  0  0
  115.7691  167.8801  141.3555 C   0  0  0  0  0  0  0  0  0  0  0  0
  115.9242  166.5322  141.1003 C   0  0  0  0  0  0  0  0  0  0  0  0
  114.7281  165.9754  140.6675 C   0  0  0  0  0  0  0  0  0  0  0  0
  114.6579  164.5263  140.3317 C   0  0  0  0  0  0  0  0  0  0  0  0
  115.8780  164.0737  139.6130 C   0  0  2  0  0  0  0  0  0  0  0  0
  117.1183  164.8663  139.8712 C   0  0  0  0  0  0  0  0  0  0  0  0
  117.0645  165.6006  141.2018 C   0  0  0  0  0  0  0  0  0  0  0  0
  115.6759  163.9002  138.1243 C   0  0  0  0  0  0  0  0  0  0  0  0
  114.3673  163.2702  137.7815 C   0  0  0  0  0  0  0  0  0  0  0  0
  116.7856  163.1301  137.4514 C   0  0  0  0  0  0  0  0  0  0  0  0
  115.6915  165.2007  137.5495 O   0  0  0  0  0  0  0  0  0  0  0  0
  113.8378  166.9875  140.6588 N   0  0  0  0  0  0  0  0  0  0  0  0
  114.4186  168.1311  141.0608 C   0  0  0  0  0  0  0  0  0  0  0  0
  113.9258  169.4070  141.2193 C   0  0  0  0  0  0  0  0  0  0  0  0
  114.7548  170.4199  141.6621 C   0  0  0  0  0  0  0  0  0  0  0  0
  116.1013  170.1611  141.9535 C   0  0  0  0  0  0  0  0  0  0  0  0
  116.8823  171.1917  142.3877 F   0  0  0  0  0  0  0  0  0  0  0  0
  112.5426  169.7476  140.9360 C   0  0  0  0  0  0  0  0  0  0  0  0
  111.5566  168.7619  140.6815 N   0  0  0  0  0  0  0  0  0  0  0  0
  112.1972  170.9513  140.9131 O   0  0  0  0  0  0  0  0  0  0  0  0
  1  2  1  0
  2  3  1  0
  3  4  2  0
  3  5  1  0
  5  6  1  0
  6  7  2  0
  6  8  1  0
  8  9  2  0
  9 10  1  0
 10 11  1  0
 10 12  2  0
 12 13  1  0
 13 14  2  0
  5 15  1  0
 15 16  2  0
 16 17  1  0
 16 18  1  0
 18 19  2  0
 19 20  1  0
 20 21  2  0
 18 22  1  0
 22 23  2  0
 23 24  1  0
 24 25  2  0
 25 26  1  0
 26 27  1  0
 27 28  1  0
 28 29  1  0
 27 30  1  6
 30 31  1  0
 30 32  1  0
 30 33  1  0
 25 34  1  0
 34 35  1  0
 35 36  2  0
 36 37  1  0
 37 38  2  0
 38 39  1  0
 36 40  1  0
 40 41  1  0
 40 42  2  0
  9  2  1  0
 21 15  1  0
 38 22  1  0
 14  8  1  0
 35 23  1  0
 29 24  1  0
M  END
$$$$
