
     RDKit          3D

 42 47  0  0  0  0  0  0  0  0999 V2000
  185.3216  171.2587  142.9132 C   0  0  0  0  0  0  0  0  0  0  0  0
  184.4796  171.1139  144.0886 N   0  0  0  0  0  0  0  0  0  0  0  0
  184.2823  169.9221  144.6848 C   0  0  0  0  0  0  0  0  0  0  0  0
  184.8569  168.9119  144.1894 O   0  0  0  0  0  0  0  0  0  0  0  0
  183.5238  169.7168  145.7649 N   0  0  0  0  0  0  0  0  0  0  0  0
  182.9014  170.7834  146.3092 C   0  0  0  0  0  0  0  0  0  0  0  0
  182.1704  170.6378  147.3358 O   0  0  0  0  0  0  0  0  0  0  0  0
  183.0405  172.0535  145.7699 C   0  0  0  0  0  0  0  0  0  0  0  0
  183.8545  172.1666  144.6404 C   0  0  0  0  0  0  0  0  0  0  0  0
  183.9987  173.4204  144.0988 C   0  0  0  0  0  0  0  0  0  0  0  0
  184.7672  173.6049  143.0110 F   0  0  0  0  0  0  0  0  0  0  0  0
  183.3814  174.5492  144.6192 C   0  0  0  0  0  0  0  0  0  0  0  0
  182.5703  174.4160  145.7502 C   0  0  0  0  0  0  0  0  0  0  0  0
  182.4233  173.1619  146.2956 C   0  0  0  0  0  0  0  0  0  0  0  0
  183.3411  168.4359  146.3654 C   0  0  0  0  0  0  0  0  0  0  0  0
  182.3629  167.5608  145.9841 C   0  0  0  0  0  0  0  0  0  0  0  0
  181.4468  167.9572  144.8948 C   0  0  0  0  0  0  0  0  0  0  0  0
  182.2067  166.3201  146.5846 C   0  0  0  0  0  0  0  0  0  0  0  0
  183.0809  165.9865  147.5955 C   0  0  0  0  0  0  0  0  0  0  0  0
  184.0771  166.8530  147.9987 C   0  0  0  0  0  0  0  0  0  0  0  0
  184.2071  168.0839  147.3799 C   0  0  0  0  0  0  0  0  0  0  0  0
  181.1568  165.4314  146.1458 C   0  0  0  0  0  0  0  0  0  0  0  0
  181.3775  164.5262  145.1386 C   0  0  0  0  0  0  0  0  0  0  0  0
  182.4606  164.1792  144.3560 C   0  0  0  0  0  0  0  0  0  0  0  0
  182.1197  163.1657  143.4702 C   0  0  0  0  0  0  0  0  0  0  0  0
  183.1360  162.6290  142.5234 C   0  0  0  0  0  0  0  0  0  0  0  0
  183.9886  163.7125  141.9673 C   0  0  2  0  0  0  0  0  0  0  0  0
  184.1233  164.9358  142.8149 C   0  0  0  0  0  0  0  0  0  0  0  0
  183.8581  164.6488  144.2846 C   0  0  0  0  0  0  0  0  0  0  0  0
  183.6279  164.1019  140.5512 C   0  0  0  0  0  0  0  0  0  0  0  0
  183.4367  162.9262  139.6523 C   0  0  0  0  0  0  0  0  0  0  0  0
  184.6147  165.0519  139.9178 C   0  0  0  0  0  0  0  0  0  0  0  0
  182.3912  164.8006  140.6155 O   0  0  0  0  0  0  0  0  0  0  0  0
  180.8225  162.8916  143.7130 N   0  0  0  0  0  0  0  0  0  0  0  0
  180.3492  163.6777  144.6953 C   0  0  0  0  0  0  0  0  0  0  0  0
  179.1092  163.7644  145.2875 C   0  0  0  0  0  0  0  0  0  0  0  0
  178.8882  164.6758  146.3023 C   0  0  0  0  0  0  0  0  0  0  0  0
  179.9195  165.5191  146.7383 C   0  0  0  0  0  0  0  0  0  0  0  0
  179.6555  166.4033  147.7429 F   0  0  0  0  0  0  0  0  0  0  0  0
  177.9950  162.9234  144.8865 C   0  0  0  0  0  0  0  0  0  0  0  0
  176.7177  163.0181  145.4932 N   0  0  0  0  0  0  0  0  0  0  0  0
  178.1567  162.0813  143.9735 O   0  0  0  0  0  0  0  0  0  0  0  0
  1  2  1  0
  2  3  1  0
  3  4  2  0
  3  5  1  0
  5  6  1  0
  6  7  2  0
  6  8  1  0
  8  9  2  0
  9 10  1  0
 10 11  1  0
 10 12  2  0
 12 13  1  0
 13 14  2  0
  5 15  1  0
 15 16  2  0
 16 17  1  0
 16 18  1  0
 18 19  2  0
 19 20  1  0
 20 21  2  0
 18 22  1  0
 22 23  2  0
 23 24  1  0
 24 25  2  0
 25 26  1  0
 26 27  1  0
 27 28  1  0
 28 29  1  0
 27 30  1  6
 30 31  1  0
 30 32  1  0
 30 33  1  0
 25 34  1  0
 34 35  1  0
 35 36  2  0
 36 37  1  0
 37 38  2  0
 38 39  1  0
 36 40  1  0
 40 41  1  0
 40 42  2  0
  9  2  1  0
 21 15  1  0
 38 22  1  0
 14  8  1  0
 35 23  1  0
 29 24  1  0
M  END
$$$$
