
     RDKit          3D

 42 47  0  0  0  0  0  0  0  0999 V2000
  131.2385  133.0300  131.6640 C   0  0  0  0  0  0  0  0  0  0  0  0
  131.1485  134.1485  130.7409 N   0  0  0  0  0  0  0  0  0  0  0  0
  131.7122  135.3428  131.0070 C   0  0  0  0  0  0  0  0  0  0  0  0
  132.3336  135.4719  132.0994 O   0  0  0  0  0  0  0  0  0  0  0  0
  131.6692  136.4110  130.2063 N   0  0  0  0  0  0  0  0  0  0  0  0
  131.0103  136.2933  129.0344 C   0  0  0  0  0  0  0  0  0  0  0  0
  130.9425  137.2808  128.2408 O   0  0  0  0  0  0  0  0  0  0  0  0
  130.3958  135.1054  128.6676 C   0  0  0  0  0  0  0  0  0  0  0  0
  130.4960  134.0453  129.5717 C   0  0  0  0  0  0  0  0  0  0  0  0
  129.8908  132.8644  129.2176 C   0  0  0  0  0  0  0  0  0  0  0  0
  129.9462  131.8011  130.0387 F   0  0  0  0  0  0  0  0  0  0  0  0
  129.2014  132.6907  128.0256 C   0  0  0  0  0  0  0  0  0  0  0  0
  129.1118  133.7635  127.1334 C   0  0  0  0  0  0  0  0  0  0  0  0
  129.7166  134.9478  127.4844 C   0  0  0  0  0  0  0  0  0  0  0  0
  132.2805  137.6592  130.5270 C   0  0  0  0  0  0  0  0  0  0  0  0
  131.6296  138.6676  131.1807 C   0  0  0  0  0  0  0  0  0  0  0  0
  130.2218  138.4583  131.5777 C   0  0  0  0  0  0  0  0  0  0  0  0
  132.2473  139.8728  131.4813 C   0  0  0  0  0  0  0  0  0  0  0  0
  133.5605  140.0295  131.0958 C   0  0  0  0  0  0  0  0  0  0  0  0
  134.2397  139.0259  130.4345 C   0  0  0  0  0  0  0  0  0  0  0  0
  133.5954  137.8350  130.1490 C   0  0  0  0  0  0  0  0  0  0  0  0
  131.5160  140.9075  132.1732 C   0  0  0  0  0  0  0  0  0  0  0  0
  131.3544  140.8633  133.5350 C   0  0  0  0  0  0  0  0  0  0  0  0
  131.7670  140.0128  134.5413 C   0  0  0  0  0  0  0  0  0  0  0  0
  131.3119  140.4579  135.7754 C   0  0  0  0  0  0  0  0  0  0  0  0
  131.6380  139.6934  137.0110 C   0  0  0  0  0  0  0  0  0  0  0  0
  131.5538  138.2269  136.7826 C   0  0  2  0  0  0  0  0  0  0  0  0
  131.7683  137.7730  135.3750 C   0  0  0  0  0  0  0  0  0  0  0  0
  132.5730  138.7766  134.5639 C   0  0  0  0  0  0  0  0  0  0  0  0
  130.2986  137.5967  137.3434 C   0  0  0  0  0  0  0  0  0  0  0  0
  129.0507  138.1188  136.7134 C   0  0  0  0  0  0  0  0  0  0  0  0
  130.1821  137.7174  138.8431 C   0  0  0  0  0  0  0  0  0  0  0  0
  130.3727  136.2046  137.0629 O   0  0  0  0  0  0  0  0  0  0  0  0
  130.6187  141.5859  135.5222 N   0  0  0  0  0  0  0  0  0  0  0  0
  130.6226  141.8575  134.2058 C   0  0  0  0  0  0  0  0  0  0  0  0
  130.0662  142.8844  133.4766 C   0  0  0  0  0  0  0  0  0  0  0  0
  130.2300  142.9285  132.1053 C   0  0  0  0  0  0  0  0  0  0  0  0
  130.9613  141.9322  131.4437 C   0  0  0  0  0  0  0  0  0  0  0  0
  131.0970  142.0165  130.0891 F   0  0  0  0  0  0  0  0  0  0  0  0
  129.2961  143.9493  134.0949 C   0  0  0  0  0  0  0  0  0  0  0  0
  128.7946  145.0492  133.3552 N   0  0  0  0  0  0  0  0  0  0  0  0
  129.0605  143.9049  135.3243 O   0  0  0  0  0  0  0  0  0  0  0  0
  1  2  1  0
  2  3  1  0
  3  4  2  0
  3  5  1  0
  5  6  1  0
  6  7  2  0
  6  8  1  0
  8  9  2  0
  9 10  1  0
 10 11  1  0
 10 12  2  0
 12 13  1  0
 13 14  2  0
  5 15  1  0
 15 16  2  0
 16 17  1  0
 16 18  1  0
 18 19  2  0
 19 20  1  0
 20 21  2  0
 18 22  1  0
 22 23  2  0
 23 24  1  0
 24 25  2  0
 25 26  1  0
 26 27  1  0
 27 28  1  0
 28 29  1  0
 27 30  1  6
 30 31  1  0
 30 32  1  0
 30 33  1  0
 25 34  1  0
 34 35  1  0
 35 36  2  0
 36 37  1  0
 37 38  2  0
 38 39  1  0
 36 40  1  0
 40 41  1  0
 40 42  2  0
  9  2  1  0
 21 15  1  0
 38 22  1  0
 14  8  1  0
 35 23  1  0
 29 24  1  0
M  END
$$$$
