
     RDKit          3D

 30 35  0  0  0  0  0  0  0  0999 V2000
  164.0851  148.2167  124.7718 C   0  0  1  0  0  0  0  0  0  0  0  0
  165.3370  149.0519  125.0012 C   0  0  0  0  0  0  0  0  0  0  0  0
  165.5615  148.9385  126.4421 C   0  0  1  0  0  0  0  0  0  0  0  0
  166.2944  150.0081  127.1388 C   0  0  2  0  0  0  0  0  0  0  0  0
  167.5923  150.2876  126.4436 C   0  0  0  0  0  0  0  0  0  0  0  0
  168.6966  150.4711  127.4217 C   0  0  0  0  0  0  0  0  0  0  0  0
  168.2501  151.2210  128.6843 C   0  0  2  0  0  0  0  0  0  0  0  0
  169.4860  151.4432  129.4865 C   0  0  0  0  0  0  0  0  0  0  0  0
  169.2717  151.7711  130.9192 C   0  0  1  0  0  0  0  0  0  0  0  0
  169.0565  153.1467  131.0844 O   0  0  0  0  0  0  0  0  0  0  0  0
  168.2175  150.9384  131.5938 C   0  0  0  0  0  0  0  0  0  0  0  0
  167.8294  149.8187  130.6258 C   0  0  0  0  0  0  0  0  0  0  0  0
  167.1726  150.4564  129.4221 C   0  0  1  0  0  0  0  0  0  0  0  0
  166.1331  151.4103  129.9182 C   0  0  0  0  0  0  0  0  0  0  0  0
  166.6363  149.4017  128.5095 C   0  0  1  0  0  0  0  0  0  0  0  0
  165.5413  148.5731  129.0576 C   0  0  0  0  0  0  0  0  0  0  0  0
  164.2063  148.7022  128.4491 C   0  0  0  0  0  0  0  0  0  0  0  0
  164.1286  148.9306  126.9973 C   0  0  1  0  0  0  0  0  0  0  0  0
  163.4528  150.2510  126.7069 C   0  0  0  0  0  0  0  0  0  0  0  0
  163.5930  147.8138  126.1705 C   0  0  1  0  0  0  0  0  0  0  0  0
  162.1292  147.7633  125.9978 C   0  0  2  0  0  0  0  0  0  0  0  0
  161.7085  146.2867  126.0080 C   0  0  0  0  0  0  0  0  0  0  0  0
  161.8876  148.2377  124.5686 C   0  0  2  0  0  0  0  0  0  0  0  0
  160.6209  149.0175  124.4451 C   0  0  0  0  0  0  0  0  0  0  0  0
  160.5265  149.5222  123.0178 C   0  0  0  0  0  0  0  0  0  0  0  0
  160.4191  148.3091  122.1240 C   0  0  2  0  0  0  0  0  0  0  0  0
  159.0087  148.1774  121.5922 C   0  0  0  0  0  0  0  0  0  0  0  0
  160.7510  147.0788  122.9186 C   0  0  0  0  0  0  0  0  0  0  0  0
  161.9066  147.1983  123.6698 O   0  0  0  0  0  0  0  0  0  0  0  0
  163.0235  149.0236  124.3195 O   0  0  0  0  0  0  0  0  0  0  0  0
  1  2  1  1
  3  2  1  6
  3  4  1  0
  4  5  1  6
  5  6  1  0
  7  6  1  6
  7  8  1  0
  8  9  1  0
  9 10  1  6
  9 11  1  0
 11 12  1  0
 12 13  1  0
 13 14  1  1
 13 15  1  0
 15 16  1  1
 16 17  1  0
 17 18  1  0
 18 19  1  1
 18 20  1  0
 20 21  1  0
 21 22  1  6
 21 23  1  0
 23 24  1  1
 24 25  1  0
 25 26  1  0
 26 27  1  1
 26 28  1  0
 28 29  1  0
 23 30  1  0
 20  1  1  6
 29 23  1  0
 30  1  1  0
 18  3  1  0
 15  4  1  0
 13  7  1  0
M  END
$$$$
