
     RDKit          3D

 30 35  0  0  0  0  0  0  0  0999 V2000
  165.4476  152.0716  125.2754 C   0  0  1  0  0  0  0  0  0  0  0  0
  166.5875  151.1062  125.5687 C   0  0  0  0  0  0  0  0  0  0  0  0
  166.4399  150.8304  126.9975 C   0  0  1  0  0  0  0  0  0  0  0  0
  167.6216  150.4200  127.7733 C   0  0  2  0  0  0  0  0  0  0  0  0
  168.3101  149.2699  127.1032 C   0  0  0  0  0  0  0  0  0  0  0  0
  168.7313  148.2451  128.0942 C   0  0  0  0  0  0  0  0  0  0  0  0
  169.2293  148.8624  129.4083 C   0  0  2  0  0  0  0  0  0  0  0  0
  169.7378  147.7260  130.2271 C   0  0  0  0  0  0  0  0  0  0  0  0
  169.8868  147.9969  131.6798 C   0  0  1  0  0  0  0  0  0  0  0  0
  171.1276  148.5928  131.9466 O   0  0  0  0  0  0  0  0  0  0  0  0
  168.7409  148.7560  132.2886 C   0  0  0  0  0  0  0  0  0  0  0  0
  167.6296  148.8270  131.2392 C   0  0  0  0  0  0  0  0  0  0  0  0
  168.1373  149.6620  130.0852 C   0  0  1  0  0  0  0  0  0  0  0  0
  168.7155  150.9207  130.6490 C   0  0  0  0  0  0  0  0  0  0  0  0
  167.0416  149.8924  129.0956 C   0  0  1  0  0  0  0  0  0  0  0  0
  165.8971  150.6943  129.5785 C   0  0  0  0  0  0  0  0  0  0  0  0
  165.6819  152.0221  128.9789 C   0  0  0  0  0  0  0  0  0  0  0  0
  165.9822  152.1902  127.5480 C   0  0  1  0  0  0  0  0  0  0  0  0
  167.0712  153.2206  127.3555 C   0  0  0  0  0  0  0  0  0  0  0  0
  164.8213  152.4006  126.6394 C   0  0  1  0  0  0  0  0  0  0  0  0
  164.3664  153.7922  126.4607 C   0  0  2  0  0  0  0  0  0  0  0  0
  162.8344  153.7733  126.3602 C   0  0  0  0  0  0  0  0  0  0  0  0
  164.8531  154.1871  125.0704 C   0  0  2  0  0  0  0  0  0  0  0  0
  165.2444  155.6259  125.0029 C   0  0  0  0  0  0  0  0  0  0  0  0
  165.8022  155.8885  123.6170 C   0  0  0  0  0  0  0  0  0  0  0  0
  164.6766  155.6624  122.6352 C   0  0  2  0  0  0  0  0  0  0  0  0
  164.1852  156.9866  122.0925 C   0  0  0  0  0  0  0  0  0  0  0  0
  163.5390  154.9774  123.3366 C   0  0  0  0  0  0  0  0  0  0  0  0
  163.9301  153.8896  124.0967 O   0  0  0  0  0  0  0  0  0  0  0  0
  165.9471  153.3281  124.8825 O   0  0  0  0  0  0  0  0  0  0  0  0
  1  2  1  1
  3  2  1  6
  3  4  1  0
  4  5  1  6
  5  6  1  0
  7  6  1  6
  7  8  1  0
  8  9  1  0
  9 10  1  6
  9 11  1  0
 11 12  1  0
 12 13  1  0
 13 14  1  1
 13 15  1  0
 15 16  1  1
 16 17  1  0
 17 18  1  0
 18 19  1  1
 18 20  1  0
 20 21  1  0
 21 22  1  6
 21 23  1  0
 23 24  1  1
 24 25  1  0
 25 26  1  0
 26 27  1  1
 26 28  1  0
 28 29  1  0
 23 30  1  0
 20  1  1  6
 29 23  1  0
 30  1  1  0
 18  3  1  0
 15  4  1  0
 13  7  1  0
M  END
$$$$
