
     RDKit          3D

 30 35  0  0  0  0  0  0  0  0999 V2000
  118.4144  148.2009  154.5641 C   0  0  1  0  0  0  0  0  0  0  0  0
  117.4417  147.5215  153.6103 C   0  0  0  0  0  0  0  0  0  0  0  0
  118.0289  146.1964  153.4133 C   0  0  1  0  0  0  0  0  0  0  0  0
  117.7328  145.4591  152.1742 C   0  0  2  0  0  0  0  0  0  0  0  0
  116.2528  145.3970  151.9468 C   0  0  0  0  0  0  0  0  0  0  0  0
  115.8363  144.0455  151.4890 C   0  0  0  0  0  0  0  0  0  0  0  0
  116.8529  143.4049  150.5340 C   0  0  2  0  0  0  0  0  0  0  0  0
  116.2294  142.1357  150.0642 C   0  0  0  0  0  0  0  0  0  0  0  0
  117.1614  141.1435  149.4700 C   0  0  1  0  0  0  0  0  0  0  0  0
  117.3659  141.4111  148.1089 O   0  0  0  0  0  0  0  0  0  0  0  0
  118.4512  140.9768  150.2241 C   0  0  0  0  0  0  0  0  0  0  0  0
  118.3136  141.7425  151.5417 C   0  0  0  0  0  0  0  0  0  0  0  0
  118.1930  143.2131  151.2104 C   0  0  1  0  0  0  0  0  0  0  0  0
  119.2898  143.5596  150.2546 C   0  0  0  0  0  0  0  0  0  0  0  0
  118.2069  144.0258  152.4642 C   0  0  1  0  0  0  0  0  0  0  0  0
  119.4632  143.9854  153.2428 C   0  0  0  0  0  0  0  0  0  0  0  0
  120.2573  145.2222  153.3376 C   0  0  0  0  0  0  0  0  0  0  0  0
  119.5349  146.5022  153.4138 C   0  0  1  0  0  0  0  0  0  0  0  0
  119.8866  147.3770  152.2324 C   0  0  0  0  0  0  0  0  0  0  0  0
  119.5972  147.2311  154.7108 C   0  0  1  0  0  0  0  0  0  0  0  0
  120.7417  148.1415  154.9022 C   0  0  2  0  0  0  0  0  0  0  0  0
  121.1722  148.0474  156.3730 C   0  0  0  0  0  0  0  0  0  0  0  0
  120.1580  149.5417  154.7456 C   0  0  2  0  0  0  0  0  0  0  0  0
  121.1230  150.4808  154.1019 C   0  0  0  0  0  0  0  0  0  0  0  0
  120.4147  151.8076  153.9044 C   0  0  0  0  0  0  0  0  0  0  0  0
  120.0846  152.3433  155.2777 C   0  0  2  0  0  0  0  0  0  0  0  0
  120.9957  153.5026  155.6171 C   0  0  0  0  0  0  0  0  0  0  0  0
  120.2885  151.2570  156.2943 C   0  0  0  0  0  0  0  0  0  0  0  0
  119.7103  150.0508  155.9410 O   0  0  0  0  0  0  0  0  0  0  0  0
  119.0292  149.3062  153.9453 O   0  0  0  0  0  0  0  0  0  0  0  0
  1  2  1  6
  3  2  1  6
  3  4  1  0
  4  5  1  1
  5  6  1  0
  7  6  1  1
  7  8  1  0
  8  9  1  0
  9 10  1  6
  9 11  1  0
 11 12  1  0
 12 13  1  0
 13 14  1  6
 13 15  1  0
 15 16  1  6
 16 17  1  0
 17 18  1  0
 18 19  1  6
 18 20  1  0
 20 21  1  0
 21 22  1  1
 21 23  1  0
 23 24  1  6
 24 25  1  0
 25 26  1  0
 26 27  1  1
 26 28  1  0
 28 29  1  0
 23 30  1  0
 20  1  1  6
 29 23  1  0
 30  1  1  0
 18  3  1  0
 15  4  1  0
 13  7  1  0
M  END
$$$$
