
     RDKit          3D

 30 35  0  0  0  0  0  0  0  0999 V2000
  128.9577  143.2649  132.6368 C   0  0  1  0  0  0  0  0  0  0  0  0
  129.7263  142.5314  131.5466 C   0  0  0  0  0  0  0  0  0  0  0  0
  129.5754  141.1235  131.9131 C   0  0  1  0  0  0  0  0  0  0  0  0
  130.5947  140.1563  131.4749 C   0  0  2  0  0  0  0  0  0  0  0  0
  130.8232  140.2744  129.9985 C   0  0  0  0  0  0  0  0  0  0  0  0
  130.9343  138.9348  129.3636 C   0  0  0  0  0  0  0  0  0  0  0  0
  131.6816  137.9232  130.2435 C   0  0  2  0  0  0  0  0  0  0  0  0
  131.8282  136.6921  129.4169 C   0  0  0  0  0  0  0  0  0  0  0  0
  132.1396  135.4483  130.1666 C   0  0  1  0  0  0  0  0  0  0  0  0
  133.5208  135.3312  130.3777 O   0  0  0  0  0  0  0  0  0  0  0  0
  131.3470  135.2734  131.4320 C   0  0  0  0  0  0  0  0  0  0  0  0
  130.2658  136.3560  131.4485 C   0  0  0  0  0  0  0  0  0  0  0  0
  130.9571  137.6970  131.5527 C   0  0  1  0  0  0  0  0  0  0  0  0
  131.9513  137.6154  132.6669 C   0  0  0  0  0  0  0  0  0  0  0  0
  129.9470  138.7846  131.7246 C   0  0  1  0  0  0  0  0  0  0  0  0
  129.1629  138.7419  132.9774 C   0  0  0  0  0  0  0  0  0  0  0  0
  129.3684  139.8212  133.9581 C   0  0  0  0  0  0  0  0  0  0  0  0
  129.6272  141.1773  133.4481 C   0  0  1  0  0  0  0  0  0  0  0  0
  130.9843  141.6619  133.9043 C   0  0  0  0  0  0  0  0  0  0  0  0
  128.5535  142.1880  133.6556 C   0  0  1  0  0  0  0  0  0  0  0  0
  128.5778  142.9244  134.9333 C   0  0  2  0  0  0  0  0  0  0  0  0
  127.1236  143.1340  135.3792 C   0  0  0  0  0  0  0  0  0  0  0  0
  129.0899  144.3151  134.5734 C   0  0  2  0  0  0  0  0  0  0  0  0
  129.9328  144.8984  135.6583 C   0  0  0  0  0  0  0  0  0  0  0  0
  130.4680  146.2285  135.1629 C   0  0  0  0  0  0  0  0  0  0  0  0
  129.2783  147.1359  134.9545 C   0  0  2  0  0  0  0  0  0  0  0  0
  129.2257  148.1839  136.0445 C   0  0  0  0  0  0  0  0  0  0  0  0
  128.0188  146.3201  135.0096 C   0  0  0  0  0  0  0  0  0  0  0  0
  128.0677  145.1711  134.2405 O   0  0  0  0  0  0  0  0  0  0  0  0
  129.8238  144.0687  133.4027 O   0  0  0  0  0  0  0  0  0  0  0  0
  1  2  1  6
  3  2  1  6
  3  4  1  0
  4  5  1  6
  5  6  1  0
  7  6  1  6
  7  8  1  0
  8  9  1  0
  9 10  1  1
  9 11  1  0
 11 12  1  0
 12 13  1  0
 13 14  1  1
 13 15  1  0
 15 16  1  1
 16 17  1  0
 17 18  1  0
 18 19  1  6
 18 20  1  0
 20 21  1  0
 21 22  1  6
 21 23  1  0
 23 24  1  1
 24 25  1  0
 25 26  1  0
 26 27  1  1
 26 28  1  0
 28 29  1  0
 23 30  1  0
 20  1  1  6
 29 23  1  0
 30  1  1  0
 18  3  1  0
 15  4  1  0
 13  7  1  0
M  END
$$$$
