
     RDKit          3D

 30 35  0  0  0  0  0  0  0  0999 V2000
  173.8480  163.3648  116.0360 C   0  0  1  0  0  0  0  0  0  0  0  0
  173.4694  164.1893  114.8135 C   0  0  0  0  0  0  0  0  0  0  0  0
  173.8425  163.3264  113.6930 C   0  0  1  0  0  0  0  0  0  0  0  0
  174.1652  163.9391  112.3941 C   0  0  2  0  0  0  0  0  0  0  0  0
  173.0711  164.8726  111.9731 C   0  0  0  0  0  0  0  0  0  0  0  0
  172.7636  164.7216  110.5266 C   0  0  0  0  0  0  0  0  0  0  0  0
  174.0181  164.4726  109.6779 C   0  0  2  0  0  0  0  0  0  0  0  0
  173.5614  164.4850  108.2596 C   0  0  0  0  0  0  0  0  0  0  0  0
  174.4901  163.8649  107.2802 C   0  0  1  0  0  0  0  0  0  0  0  0
  175.4530  164.7920  106.8568 O   0  0  0  0  0  0  0  0  0  0  0  0
  175.1005  162.5703  107.7399 C   0  0  0  0  0  0  0  0  0  0  0  0
  174.3846  162.1583  109.0279 C   0  0  0  0  0  0  0  0  0  0  0  0
  174.7084  163.1892  110.0859 C   0  0  1  0  0  0  0  0  0  0  0  0
  176.1895  163.3963  110.0865 C   0  0  0  0  0  0  0  0  0  0  0  0
  174.1592  162.7601  111.4077 C   0  0  1  0  0  0  0  0  0  0  0  0
  174.7493  161.5316  111.9809 C   0  0  0  0  0  0  0  0  0  0  0  0
  175.5473  161.6580  113.2123 C   0  0  0  0  0  0  0  0  0  0  0  0
  175.1230  162.6527  114.2106 C   0  0  1  0  0  0  0  0  0  0  0  0
  176.2058  163.6869  114.4173 C   0  0  0  0  0  0  0  0  0  0  0  0
  174.5758  162.1259  115.4915 C   0  0  1  0  0  0  0  0  0  0  0  0
  175.5537  161.8302  116.5553 C   0  0  2  0  0  0  0  0  0  0  0  0
  175.0775  160.5688  117.2898 C   0  0  0  0  0  0  0  0  0  0  0  0
  175.3911  162.9641  117.5621 C   0  0  2  0  0  0  0  0  0  0  0  0
  176.6885  163.3365  118.1990 C   0  0  0  0  0  0  0  0  0  0  0  0
  176.4347  164.5288  119.1017 C   0  0  0  0  0  0  0  0  0  0  0  0
  175.4931  164.0693  120.1900 C   0  0  2  0  0  0  0  0  0  0  0  0
  176.2390  163.9297  121.4990 C   0  0  0  0  0  0  0  0  0  0  0  0
  174.9212  162.7319  119.8166 C   0  0  0  0  0  0  0  0  0  0  0  0
  174.4474  162.6739  118.5180 O   0  0  0  0  0  0  0  0  0  0  0  0
  174.8724  163.9972  116.7661 O   0  0  0  0  0  0  0  0  0  0  0  0
  1  2  1  6
  3  2  1  1
  3  4  1  0
  4  5  1  6
  5  6  1  0
  7  6  1  1
  7  8  1  0
  8  9  1  0
  9 10  1  1
  9 11  1  0
 11 12  1  0
 12 13  1  0
 13 14  1  1
 13 15  1  0
 15 16  1  1
 16 17  1  0
 17 18  1  0
 18 19  1  1
 18 20  1  0
 20 21  1  0
 21 22  1  1
 21 23  1  0
 23 24  1  1
 24 25  1  0
 25 26  1  0
 26 27  1  1
 26 28  1  0
 28 29  1  0
 23 30  1  0
 20  1  1  1
 29 23  1  0
 30  1  1  0
 18  3  1  0
 15  4  1  0
 13  7  1  0
M  END
$$$$
