
     RDKit          3D

 30 35  0  0  0  0  0  0  0  0999 V2000
  167.4579  150.0468  124.6301 C   0  0  1  0  0  0  0  0  0  0  0  0
  168.7226  149.5723  123.9281 C   0  0  0  0  0  0  0  0  0  0  0  0
  169.1163  148.3927  124.6981 C   0  0  1  0  0  0  0  0  0  0  0  0
  170.5313  147.9875  124.7139 C   0  0  2  0  0  0  0  0  0  0  0  0
  171.0569  147.8786  123.3147 C   0  0  0  0  0  0  0  0  0  0  0  0
  171.9043  146.6682  123.1523 C   0  0  0  0  0  0  0  0  0  0  0  0
  172.7647  146.3779  124.3898 C   0  0  2  0  0  0  0  0  0  0  0  0
  173.6446  145.2345  124.0171 C   0  0  0  0  0  0  0  0  0  0  0  0
  174.2654  144.5050  125.1522 C   0  0  1  0  0  0  0  0  0  0  0  0
  175.4511  145.1354  125.5555 O   0  0  0  0  0  0  0  0  0  0  0  0
  173.3337  144.2413  126.3022 C   0  0  0  0  0  0  0  0  0  0  0  0
  171.9236  144.6213  125.8455 C   0  0  0  0  0  0  0  0  0  0  0  0
  171.9029  146.1142  125.6054 C   0  0  1  0  0  0  0  0  0  0  0  0
  172.5070  146.7796  126.8006 C   0  0  0  0  0  0  0  0  0  0  0  0
  170.5116  146.5673  125.3021 C   0  0  1  0  0  0  0  0  0  0  0  0
  169.5325  146.4163  126.3996 C   0  0  0  0  0  0  0  0  0  0  0  0
  168.9825  147.6396  127.0079 C   0  0  0  0  0  0  0  0  0  0  0  0
  168.7414  148.7976  126.1323 C   0  0  1  0  0  0  0  0  0  0  0  0
  169.5790  149.9758  126.5741 C   0  0  0  0  0  0  0  0  0  0  0  0
  167.3200  149.1624  125.8790 C   0  0  1  0  0  0  0  0  0  0  0  0
  166.6882  150.0721  126.8530 C   0  0  2  0  0  0  0  0  0  0  0  0
  165.2296  149.6265  127.0300 C   0  0  0  0  0  0  0  0  0  0  0  0
  166.6111  151.4173  126.1385 C   0  0  2  0  0  0  0  0  0  0  0  0
  166.8007  152.5611  127.0785 C   0  0  0  0  0  0  0  0  0  0  0  0
  166.8051  153.8372  126.2584 C   0  0  0  0  0  0  0  0  0  0  0  0
  165.4365  153.9671  125.6321 C   0  0  2  0  0  0  0  0  0  0  0  0
  164.6500  155.0602  126.3218 C   0  0  0  0  0  0  0  0  0  0  0  0
  164.6965  152.6698  125.7877 C   0  0  0  0  0  0  0  0  0  0  0  0
  165.4414  151.5597  125.4314 O   0  0  0  0  0  0  0  0  0  0  0  0
  167.6529  151.3181  125.2032 O   0  0  0  0  0  0  0  0  0  0  0  0
  1  2  1  1
  3  2  1  6
  3  4  1  0
  4  5  1  6
  5  6  1  0
  7  6  1  6
  7  8  1  0
  8  9  1  0
  9 10  1  1
  9 11  1  0
 11 12  1  0
 12 13  1  0
 13 14  1  1
 13 15  1  0
 15 16  1  1
 16 17  1  0
 17 18  1  0
 18 19  1  1
 18 20  1  0
 20 21  1  0
 21 22  1  6
 21 23  1  0
 23 24  1  1
 24 25  1  0
 25 26  1  0
 26 27  1  1
 26 28  1  0
 28 29  1  0
 23 30  1  0
 20  1  1  6
 29 23  1  0
 30  1  1  0
 18  3  1  0
 15  4  1  0
 13  7  1  0
M  END
$$$$
