
     RDKit          3D

 30 35  0  0  0  0  0  0  0  0999 V2000
  132.9968  176.0090  144.5230 C   0  0  1  0  0  0  0  0  0  0  0  0
  131.8918  175.0599  144.9653 C   0  0  0  0  0  0  0  0  0  0  0  0
  132.3699  173.7511  144.5204 C   0  0  1  0  0  0  0  0  0  0  0  0
  131.3911  172.6866  144.2462 C   0  0  2  0  0  0  0  0  0  0  0  0
  130.4647  172.5188  145.4121 C   0  0  0  0  0  0  0  0  0  0  0  0
  130.2230  171.0812  145.7032 C   0  0  0  0  0  0  0  0  0  0  0  0
  130.1228  170.2286  144.4308 C   0  0  2  0  0  0  0  0  0  0  0  0
  129.7446  168.8604  144.8840 C   0  0  0  0  0  0  0  0  0  0  0  0
  129.9874  167.7696  143.9056 C   0  0  1  0  0  0  0  0  0  0  0  0
  128.9062  167.6496  143.0210 O   0  0  0  0  0  0  0  0  0  0  0  0
  131.3075  167.8604  143.1922 C   0  0  0  0  0  0  0  0  0  0  0  0
  132.1221  168.9613  143.8747 C   0  0  0  0  0  0  0  0  0  0  0  0
  131.4113  170.2750  143.6386 C   0  0  1  0  0  0  0  0  0  0  0  0
  131.0982  170.3714  142.1795 C   0  0  0  0  0  0  0  0  0  0  0  0
  132.2389  171.4076  144.1536 C   0  0  1  0  0  0  0  0  0  0  0  0
  133.5296  171.6255  143.4661 C   0  0  0  0  0  0  0  0  0  0  0  0
  133.6955  172.8622  142.6838 C   0  0  0  0  0  0  0  0  0  0  0  0
  133.0608  174.0897  143.1901 C   0  0  1  0  0  0  0  0  0  0  0  0
  132.0465  174.6071  142.1961 C   0  0  0  0  0  0  0  0  0  0  0  0
  133.9700  175.1555  143.6950 C   0  0  1  0  0  0  0  0  0  0  0  0
  134.4779  176.1169  142.6985 C   0  0  2  0  0  0  0  0  0  0  0  0
  135.9289  176.4532  143.0714 C   0  0  0  0  0  0  0  0  0  0  0  0
  133.6921  177.3983  142.9555 C   0  0  2  0  0  0  0  0  0  0  0  0
  133.4156  178.1470  141.6942 C   0  0  0  0  0  0  0  0  0  0  0  0
  132.5514  179.3428  142.0467 C   0  0  0  0  0  0  0  0  0  0  0  0
  133.3725  180.2331  142.9498 C   0  0  2  0  0  0  0  0  0  0  0  0
  133.8187  181.4678  142.1977 C   0  0  0  0  0  0  0  0  0  0  0  0
  134.5895  179.4831  143.4096 C   0  0  0  0  0  0  0  0  0  0  0  0
  134.3138  178.2094  143.8742 O   0  0  0  0  0  0  0  0  0  0  0  0
  132.5194  176.9136  143.5553 O   0  0  0  0  0  0  0  0  0  0  0  0
  1  2  1  6
  3  2  1  6
  3  4  1  0
  4  5  1  1
  5  6  1  0
  7  6  1  1
  7  8  1  0
  8  9  1  0
  9 10  1  6
  9 11  1  0
 11 12  1  0
 12 13  1  0
 13 14  1  6
 13 15  1  0
 15 16  1  6
 16 17  1  0
 17 18  1  0
 18 19  1  6
 18 20  1  0
 20 21  1  0
 21 22  1  1
 21 23  1  0
 23 24  1  6
 24 25  1  0
 25 26  1  0
 26 27  1  6
 26 28  1  0
 28 29  1  0
 23 30  1  0
 20  1  1  1
 29 23  1  0
 30  1  1  0
 18  3  1  0
 15  4  1  0
 13  7  1  0
M  END
$$$$
