
     RDKit          3D

 30 35  0  0  0  0  0  0  0  0999 V2000
  166.4804  150.3970  127.8425 C   0  0  1  0  0  0  0  0  0  0  0  0
  167.3876  149.3336  128.4454 C   0  0  0  0  0  0  0  0  0  0  0  0
  168.5263  149.2986  127.5281 C   0  0  1  0  0  0  0  0  0  0  0  0
  169.3232  148.0656  127.4228 C   0  0  2  0  0  0  0  0  0  0  0  0
  169.7532  147.6062  128.7829 C   0  0  0  0  0  0  0  0  0  0  0  0
  171.1692  147.1539  128.7740 C   0  0  0  0  0  0  0  0  0  0  0  0
  171.5438  146.4075  127.4862 C   0  0  2  0  0  0  0  0  0  0  0  0
  172.9317  145.9062  127.6931 C   0  0  0  0  0  0  0  0  0  0  0  0
  173.6653  145.5189  126.4610 C   0  0  1  0  0  0  0  0  0  0  0  0
  173.3653  144.1971  126.1022 O   0  0  0  0  0  0  0  0  0  0  0  0
  173.5003  146.4780  125.3151 C   0  0  0  0  0  0  0  0  0  0  0  0
  172.7831  147.7173  125.8548 C   0  0  0  0  0  0  0  0  0  0  0  0
  171.3913  147.2994  126.2732 C   0  0  1  0  0  0  0  0  0  0  0  0
  170.7899  146.5169  125.1496 C   0  0  0  0  0  0  0  0  0  0  0  0
  170.5913  148.4979  126.6689 C   0  0  1  0  0  0  0  0  0  0  0  0
  170.3122  149.4695  125.5900 C   0  0  0  0  0  0  0  0  0  0  0  0
  168.9161  149.6303  125.1494 C   0  0  0  0  0  0  0  0  0  0  0  0
  167.8555  149.5266  126.1644 C   0  0  1  0  0  0  0  0  0  0  0  0
  166.9295  148.3759  125.8435 C   0  0  0  0  0  0  0  0  0  0  0  0
  167.1244  150.7795  126.5008 C   0  0  1  0  0  0  0  0  0  0  0  0
  165.9565  151.1079  125.6620 C   0  0  2  0  0  0  0  0  0  0  0  0
  165.9297  152.6317  125.4751 C   0  0  0  0  0  0  0  0  0  0  0  0
  164.7468  150.7911  126.5349 C   0  0  2  0  0  0  0  0  0  0  0  0
  163.6019  150.2659  125.7341 C   0  0  0  0  0  0  0  0  0  0  0  0
  162.4945  149.8924  126.7012 C   0  0  0  0  0  0  0  0  0  0  0  0
  162.0475  151.1669  127.3780 C   0  0  2  0  0  0  0  0  0  0  0  0
  160.6956  151.5914  126.8477 C   0  0  0  0  0  0  0  0  0  0  0  0
  163.0415  152.2549  127.0891 C   0  0  0  0  0  0  0  0  0  0  0  0
  164.3562  151.8725  127.2876 O   0  0  0  0  0  0  0  0  0  0  0  0
  165.2615  149.8320  127.4210 O   0  0  0  0  0  0  0  0  0  0  0  0
  1  2  1  6
  3  2  1  1
  3  4  1  0
  4  5  1  1
  5  6  1  0
  7  6  1  1
  7  8  1  0
  8  9  1  0
  9 10  1  6
  9 11  1  0
 11 12  1  0
 12 13  1  0
 13 14  1  6
 13 15  1  0
 15 16  1  6
 16 17  1  0
 17 18  1  0
 18 19  1  6
 18 20  1  0
 20 21  1  0
 21 22  1  1
 21 23  1  0
 23 24  1  6
 24 25  1  0
 25 26  1  0
 26 27  1  6
 26 28  1  0
 28 29  1  0
 23 30  1  0
 20  1  1  1
 29 23  1  0
 30  1  1  0
 18  3  1  0
 15  4  1  0
 13  7  1  0
M  END
$$$$
