
     RDKit          3D

 30 35  0  0  0  0  0  0  0  0999 V2000
  164.9176  149.9874  125.7505 C   0  0  1  0  0  0  0  0  0  0  0  0
  165.0118  148.4942  126.0315 C   0  0  0  0  0  0  0  0  0  0  0  0
  163.9208  148.2569  126.9763 C   0  0  1  0  0  0  0  0  0  0  0  0
  164.0117  147.1173  127.9035 C   0  0  2  0  0  0  0  0  0  0  0  0
  164.3141  145.8572  127.1509 C   0  0  0  0  0  0  0  0  0  0  0  0
  163.4977  144.7218  127.6550 C   0  0  0  0  0  0  0  0  0  0  0  0
  163.3113  144.7574  129.1781 C   0  0  2  0  0  0  0  0  0  0  0  0
  162.6025  143.4958  129.5330 C   0  0  0  0  0  0  0  0  0  0  0  0
  161.9451  143.4810  130.8649 C   0  0  1  0  0  0  0  0  0  0  0  0
  162.8585  143.1120  131.8626 O   0  0  0  0  0  0  0  0  0  0  0  0
  161.2025  144.7437  131.2027 C   0  0  0  0  0  0  0  0  0  0  0  0
  161.1619  145.6035  129.9376 C   0  0  0  0  0  0  0  0  0  0  0  0
  162.5811  146.0104  129.6104 C   0  0  1  0  0  0  0  0  0  0  0  0
  163.2043  146.5466  130.8597 C   0  0  0  0  0  0  0  0  0  0  0  0
  162.5897  146.9762  128.4702 C   0  0  1  0  0  0  0  0  0  0  0  0
  161.9445  148.2813  128.7281 C   0  0  0  0  0  0  0  0  0  0  0  0
  162.7986  149.4808  128.7549 C   0  0  0  0  0  0  0  0  0  0  0  0
  163.9376  149.5381  127.8247 C   0  0  1  0  0  0  0  0  0  0  0  0
  165.2379  149.6366  128.5890 C   0  0  0  0  0  0  0  0  0  0  0  0
  163.8458  150.5237  126.7121 C   0  0  1  0  0  0  0  0  0  0  0  0
  164.3217  151.8899  126.9994 C   0  0  2  0  0  0  0  0  0  0  0  0
  163.3943  152.8707  126.2677 C   0  0  0  0  0  0  0  0  0  0  0  0
  165.6625  151.9961  126.2807 C   0  0  2  0  0  0  0  0  0  0  0  0
  166.6342  152.8437  127.0325 C   0  0  0  0  0  0  0  0  0  0  0  0
  167.9552  152.8031  126.2882 C   0  0  0  0  0  0  0  0  0  0  0  0
  167.7239  153.4404  124.9382 C   0  0  2  0  0  0  0  0  0  0  0  0
  168.3652  154.8101  124.8924 C   0  0  0  0  0  0  0  0  0  0  0  0
  166.2475  153.5921  124.7096 C   0  0  0  0  0  0  0  0  0  0  0  0
  165.5221  152.4480  124.9905 O   0  0  0  0  0  0  0  0  0  0  0  0
  166.0695  150.6547  126.2093 O   0  0  0  0  0  0  0  0  0  0  0  0
  1  2  1  1
  3  2  1  6
  3  4  1  0
  4  5  1  6
  5  6  1  0
  7  6  1  6
  7  8  1  0
  8  9  1  0
  9 10  1  1
  9 11  1  0
 11 12  1  0
 12 13  1  0
 13 14  1  1
 13 15  1  0
 15 16  1  1
 16 17  1  0
 17 18  1  0
 18 19  1  1
 18 20  1  0
 20 21  1  0
 21 22  1  6
 21 23  1  0
 23 24  1  1
 24 25  1  0
 25 26  1  0
 26 27  1  1
 26 28  1  0
 28 29  1  0
 23 30  1  0
 20  1  1  6
 29 23  1  0
 30  1  1  0
 18  3  1  0
 15  4  1  0
 13  7  1  0
M  END
$$$$
