
     RDKit          3D

 30 35  0  0  0  0  0  0  0  0999 V2000
  126.6846  147.2252  133.9457 C   0  0  1  0  0  0  0  0  0  0  0  0
  127.0186  146.1497  132.9214 C   0  0  0  0  0  0  0  0  0  0  0  0
  127.4530  145.0208  133.7437 C   0  0  1  0  0  0  0  0  0  0  0  0
  128.3683  144.0238  133.1649 C   0  0  2  0  0  0  0  0  0  0  0  0
  127.8331  143.5231  131.8578 C   0  0  0  0  0  0  0  0  0  0  0  0
  127.9973  142.0504  131.7392 C   0  0  0  0  0  0  0  0  0  0  0  0
  129.3166  141.5516  132.3446 C   0  0  2  0  0  0  0  0  0  0  0  0
  129.3906  140.0985  132.0230 C   0  0  0  0  0  0  0  0  0  0  0  0
  130.3474  139.3078  132.8388 C   0  0  1  0  0  0  0  0  0  0  0  0
  131.6367  139.3760  132.2922 O   0  0  0  0  0  0  0  0  0  0  0  0
  130.3262  139.6336  134.3062 C   0  0  0  0  0  0  0  0  0  0  0  0
  129.1289  140.5536  134.5540 C   0  0  0  0  0  0  0  0  0  0  0  0
  129.3873  141.8535  133.8258 C   0  0  1  0  0  0  0  0  0  0  0  0
  130.7672  142.3102  134.1778 C   0  0  0  0  0  0  0  0  0  0  0  0
  128.3212  142.8478  134.1539 C   0  0  1  0  0  0  0  0  0  0  0  0
  128.2649  143.2883  135.5642 C   0  0  0  0  0  0  0  0  0  0  0  0
  128.6004  144.6907  135.8638 C   0  0  0  0  0  0  0  0  0  0  0  0
  128.2033  145.7190  134.8887 C   0  0  1  0  0  0  0  0  0  0  0  0
  129.4217  146.4333  134.3504 C   0  0  0  0  0  0  0  0  0  0  0  0
  127.1219  146.6548  135.3038 C   0  0  1  0  0  0  0  0  0  0  0  0
  127.5399  147.8607  136.0430 C   0  0  2  0  0  0  0  0  0  0  0  0
  126.4727  148.1485  137.1086 C   0  0  0  0  0  0  0  0  0  0  0  0
  127.4162  148.9992  135.0359 C   0  0  2  0  0  0  0  0  0  0  0  0
  128.4720  150.0359  135.2317 C   0  0  0  0  0  0  0  0  0  0  0  0
  128.3207  151.0639  134.1265 C   0  0  0  0  0  0  0  0  0  0  0  0
  126.9750  151.7239  134.3154 C   0  0  2  0  0  0  0  0  0  0  0  0
  127.1542  153.1280  134.8498 C   0  0  0  0  0  0  0  0  0  0  0  0
  126.1701  150.9312  135.3047 C   0  0  0  0  0  0  0  0  0  0  0  0
  126.1665  149.5705  135.0540 O   0  0  0  0  0  0  0  0  0  0  0  0
  127.5489  148.3285  133.8101 O   0  0  0  0  0  0  0  0  0  0  0  0
  1  2  1  6
  3  2  1  6
  3  4  1  0
  4  5  1  6
  5  6  1  0
  7  6  1  1
  7  8  1  0
  8  9  1  0
  9 10  1  6
  9 11  1  0
 11 12  1  0
 12 13  1  0
 13 14  1  6
 13 15  1  0
 15 16  1  1
 16 17  1  0
 17 18  1  0
 18 19  1  6
 18 20  1  0
 20 21  1  0
 21 22  1  1
 21 23  1  0
 23 24  1  1
 24 25  1  0
 25 26  1  0
 26 27  1  1
 26 28  1  0
 28 29  1  0
 23 30  1  0
 20  1  1  6
 29 23  1  0
 30  1  1  0
 18  3  1  0
 15  4  1  0
 13  7  1  0
M  END
$$$$
