
     RDKit          3D

 30 35  0  0  0  0  0  0  0  0999 V2000
  164.6475  147.9567  127.1530 C   0  0  1  0  0  0  0  0  0  0  0  0
  165.2616  148.8363  126.0729 C   0  0  0  0  0  0  0  0  0  0  0  0
  165.5213  150.0966  126.7682 C   0  0  1  0  0  0  0  0  0  0  0  0
  165.5745  151.3454  125.9908 C   0  0  2  0  0  0  0  0  0  0  0  0
  166.5181  151.1994  124.8358 C   0  0  0  0  0  0  0  0  0  0  0  0
  167.3602  152.4137  124.6738 C   0  0  0  0  0  0  0  0  0  0  0  0
  166.5905  153.7101  124.9612 C   0  0  2  0  0  0  0  0  0  0  0  0
  167.5220  154.8226  124.6220 C   0  0  0  0  0  0  0  0  0  0  0  0
  167.1750  156.1483  125.1948 C   0  0  1  0  0  0  0  0  0  0  0  0
  166.2596  156.8183  124.3707 O   0  0  0  0  0  0  0  0  0  0  0  0
  166.7325  156.1056  126.6309 C   0  0  0  0  0  0  0  0  0  0  0  0
  166.9959  154.6902  127.1493 C   0  0  0  0  0  0  0  0  0  0  0  0
  166.0923  153.7450  126.3898 C   0  0  1  0  0  0  0  0  0  0  0  0
  164.7074  154.3082  126.4228 C   0  0  0  0  0  0  0  0  0  0  0  0
  166.1962  152.3666  126.9572 C   0  0  1  0  0  0  0  0  0  0  0  0
  165.7162  152.2052  128.3464 C   0  0  0  0  0  0  0  0  0  0  0  0
  164.5146  151.3838  128.5710 C   0  0  0  0  0  0  0  0  0  0  0  0
  164.3176  150.2010  127.7178 C   0  0  1  0  0  0  0  0  0  0  0  0
  163.0393  150.3322  126.9219 C   0  0  0  0  0  0  0  0  0  0  0  0
  164.4556  148.8709  128.3731 C   0  0  1  0  0  0  0  0  0  0  0  0
  163.2437  148.3176  129.0060 C   0  0  2  0  0  0  0  0  0  0  0  0
  163.6764  147.5911  130.2875 C   0  0  0  0  0  0  0  0  0  0  0  0
  162.7770  147.2160  128.0603 C   0  0  2  0  0  0  0  0  0  0  0  0
  161.2888  147.1087  128.0183 C   0  0  0  0  0  0  0  0  0  0  0  0
  160.9303  146.0599  126.9828 C   0  0  0  0  0  0  0  0  0  0  0  0
  161.4814  144.7426  127.4758 C   0  0  2  0  0  0  0  0  0  0  0  0
  160.3557  143.8576  127.9645 C   0  0  0  0  0  0  0  0  0  0  0  0
  162.4240  144.9971  128.6168 C   0  0  0  0  0  0  0  0  0  0  0  0
  163.3421  146.0009  128.3647 O   0  0  0  0  0  0  0  0  0  0  0  0
  163.3162  147.6292  126.8321 O   0  0  0  0  0  0  0  0  0  0  0  0
  1  2  1  6
  3  2  1  6
  3  4  1  0
  4  5  1  6
  5  6  1  0
  7  6  1  1
  7  8  1  0
  8  9  1  0
  9 10  1  6
  9 11  1  0
 11 12  1  0
 12 13  1  0
 13 14  1  6
 13 15  1  0
 15 16  1  1
 16 17  1  0
 17 18  1  0
 18 19  1  6
 18 20  1  0
 20 21  1  0
 21 22  1  1
 21 23  1  0
 23 24  1  6
 24 25  1  0
 25 26  1  0
 26 27  1  1
 26 28  1  0
 28 29  1  0
 23 30  1  0
 20  1  1  6
 29 23  1  0
 30  1  1  0
 18  3  1  0
 15  4  1  0
 13  7  1  0
M  END
$$$$
