
     RDKit          3D

 30 35  0  0  0  0  0  0  0  0999 V2000
  196.3982  140.5880  144.6932 C   0  0  1  0  0  0  0  0  0  0  0  0
  195.7834  139.4169  145.4469 C   0  0  0  0  0  0  0  0  0  0  0  0
  196.6710  139.2498  146.5973 C   0  0  1  0  0  0  0  0  0  0  0  0
  196.7689  137.9293  147.2402 C   0  0  2  0  0  0  0  0  0  0  0  0
  195.4031  137.4105  147.5737 C   0  0  0  0  0  0  0  0  0  0  0  0
  195.3800  136.7883  148.9236 C   0  0  0  0  0  0  0  0  0  0  0  0
  196.6656  136.0114  149.2390 C   0  0  2  0  0  0  0  0  0  0  0  0
  196.4281  135.3424  150.5491 C   0  0  0  0  0  0  0  0  0  0  0  0
  197.6448  134.8776  151.2631 C   0  0  1  0  0  0  0  0  0  0  0  0
  198.0256  133.6052  150.8137 O   0  0  0  0  0  0  0  0  0  0  0  0
  198.7841  135.8582  151.2477 C   0  0  0  0  0  0  0  0  0  0  0  0
  198.2499  137.1719  150.6729 C   0  0  0  0  0  0  0  0  0  0  0  0
  197.8725  136.9244  149.2296 C   0  0  1  0  0  0  0  0  0  0  0  0
  199.0198  136.2299  148.5679 C   0  0  0  0  0  0  0  0  0  0  0  0
  197.4847  138.2087  148.5716 C   0  0  1  0  0  0  0  0  0  0  0  0
  198.5600  139.2154  148.4427 C   0  0  0  0  0  0  0  0  0  0  0  0
  199.0351  139.5492  147.0892 C   0  0  0  0  0  0  0  0  0  0  0  0
  198.0492  139.5684  145.9967 C   0  0  1  0  0  0  0  0  0  0  0  0
  198.4066  138.5422  144.9461 C   0  0  0  0  0  0  0  0  0  0  0  0
  197.7184  140.8989  145.4153 C   0  0  1  0  0  0  0  0  0  0  0  0
  198.5837  141.3741  144.3195 C   0  0  2  0  0  0  0  0  0  0  0  0
  198.7548  142.8911  144.4842 C   0  0  0  0  0  0  0  0  0  0  0  0
  197.7462  141.2012  143.0569 C   0  0  2  0  0  0  0  0  0  0  0  0
  198.5821  140.8262  141.8786 C   0  0  0  0  0  0  0  0  0  0  0  0
  197.6483  140.5838  140.7080 C   0  0  0  0  0  0  0  0  0  0  0  0
  196.9696  141.8982  140.4019 C   0  0  2  0  0  0  0  0  0  0  0  0
  197.5303  142.4891  139.1268 C   0  0  0  0  0  0  0  0  0  0  0  0
  197.2208  142.8585  141.5288 C   0  0  0  0  0  0  0  0  0  0  0  0
  196.9922  142.3166  142.7811 O   0  0  0  0  0  0  0  0  0  0  0  0
  196.8574  140.1796  143.4263 O   0  0  0  0  0  0  0  0  0  0  0  0
  1  2  1  1
  3  2  1  6
  3  4  1  0
  4  5  1  1
  5  6  1  0
  7  6  1  1
  7  8  1  0
  8  9  1  0
  9 10  1  6
  9 11  1  0
 11 12  1  0
 12 13  1  0
 13 14  1  6
 13 15  1  0
 15 16  1  6
 16 17  1  0
 17 18  1  0
 18 19  1  6
 18 20  1  0
 20 21  1  0
 21 22  1  1
 21 23  1  0
 23 24  1  6
 24 25  1  0
 25 26  1  0
 26 27  1  6
 26 28  1  0
 28 29  1  0
 23 30  1  0
 20  1  1  6
 29 23  1  0
 30  1  1  0
 18  3  1  0
 15  4  1  0
 13  7  1  0
M  END
$$$$
