
     RDKit          3D

 30 35  0  0  0  0  0  0  0  0999 V2000
  164.6003  147.0716  126.5116 C   0  0  1  0  0  0  0  0  0  0  0  0
  165.7596  148.0354  126.7228 C   0  0  0  0  0  0  0  0  0  0  0  0
  165.0988  149.3288  126.8957 C   0  0  1  0  0  0  0  0  0  0  0  0
  165.8359  150.5592  126.5653 C   0  0  2  0  0  0  0  0  0  0  0  0
  167.1645  150.5718  127.2584 C   0  0  0  0  0  0  0  0  0  0  0  0
  167.4638  151.9147  127.8212 C   0  0  0  0  0  0  0  0  0  0  0  0
  166.9881  153.0565  126.9124 C   0  0  2  0  0  0  0  0  0  0  0  0
  167.4820  154.3133  127.5423 C   0  0  0  0  0  0  0  0  0  0  0  0
  166.8139  155.5620  127.0945 C   0  0  1  0  0  0  0  0  0  0  0  0
  167.4124  156.0503  125.9243 O   0  0  0  0  0  0  0  0  0  0  0  0
  165.3190  155.4557  126.9753 C   0  0  0  0  0  0  0  0  0  0  0  0
  164.9051  154.1150  127.5857 C   0  0  0  0  0  0  0  0  0  0  0  0
  165.4871  153.0166  126.7244 C   0  0  1  0  0  0  0  0  0  0  0  0
  165.1531  153.3250  125.2997 C   0  0  0  0  0  0  0  0  0  0  0  0
  164.9913  151.6843  127.1850 C   0  0  1  0  0  0  0  0  0  0  0  0
  163.5379  151.4542  127.0408 C   0  0  0  0  0  0  0  0  0  0  0  0
  163.0923  150.4346  126.0761 C   0  0  0  0  0  0  0  0  0  0  0  0
  163.9184  149.2271  125.9169 C   0  0  1  0  0  0  0  0  0  0  0  0
  164.4291  149.1210  124.4983 C   0  0  0  0  0  0  0  0  0  0  0  0
  163.3424  147.9493  126.4202 C   0  0  1  0  0  0  0  0  0  0  0  0
  162.4881  147.1959  125.4833 C   0  0  2  0  0  0  0  0  0  0  0  0
  161.3440  146.5707  126.2943 C   0  0  0  0  0  0  0  0  0  0  0  0
  163.3466  146.0193  125.0312 C   0  0  2  0  0  0  0  0  0  0  0  0
  163.0831  145.6489  123.6095 C   0  0  0  0  0  0  0  0  0  0  0  0
  164.0505  144.5426  123.2334 C   0  0  0  0  0  0  0  0  0  0  0  0
  163.7182  143.3493  124.0981 C   0  0  2  0  0  0  0  0  0  0  0  0
  163.0318  142.2832  123.2725 C   0  0  0  0  0  0  0  0  0  0  0  0
  162.7901  143.7788  125.1978 C   0  0  0  0  0  0  0  0  0  0  0  0
  163.1989  144.9272  125.8521 O   0  0  0  0  0  0  0  0  0  0  0  0
  164.6480  146.5095  125.2215 O   0  0  0  0  0  0  0  0  0  0  0  0
  1  2  1  6
  3  2  1  6
  3  4  1  0
  4  5  1  1
  5  6  1  0
  7  6  1  1
  7  8  1  0
  8  9  1  0
  9 10  1  6
  9 11  1  0
 11 12  1  0
 12 13  1  0
 13 14  1  6
 13 15  1  0
 15 16  1  6
 16 17  1  0
 17 18  1  0
 18 19  1  6
 18 20  1  0
 20 21  1  0
 21 22  1  1
 21 23  1  0
 23 24  1  6
 24 25  1  0
 25 26  1  0
 26 27  1  6
 26 28  1  0
 28 29  1  0
 23 30  1  0
 20  1  1  6
 29 23  1  0
 30  1  1  0
 18  3  1  0
 15  4  1  0
 13  7  1  0
M  END
$$$$
