
     RDKit          3D

 30 35  0  0  0  0  0  0  0  0999 V2000
  203.7949  138.4033  131.9033 C   0  0  1  0  0  0  0  0  0  0  0  0
  204.4401  137.6770  133.0753 C   0  0  0  0  0  0  0  0  0  0  0  0
  204.1206  136.2724  132.8219 C   0  0  1  0  0  0  0  0  0  0  0  0
  204.0608  135.3358  133.9559 C   0  0  2  0  0  0  0  0  0  0  0  0
  205.3113  135.4316  134.7762 C   0  0  0  0  0  0  0  0  0  0  0  0
  205.7951  134.0843  135.1767 C   0  0  0  0  0  0  0  0  0  0  0  0
  204.6493  133.1206  135.5150 C   0  0  2  0  0  0  0  0  0  0  0  0
  205.2963  131.8790  136.0249 C   0  0  0  0  0  0  0  0  0  0  0  0
  204.4420  130.6639  136.0275 C   0  0  1  0  0  0  0  0  0  0  0  0
  203.6714  130.6042  137.1973 O   0  0  0  0  0  0  0  0  0  0  0  0
  203.6159  130.4855  134.7842 C   0  0  0  0  0  0  0  0  0  0  0  0
  204.0886  131.5261  133.7669 C   0  0  0  0  0  0  0  0  0  0  0  0
  203.7533  132.8944  134.3166 C   0  0  1  0  0  0  0  0  0  0  0  0
  202.3243  132.8742  134.7573 C   0  0  0  0  0  0  0  0  0  0  0  0
  204.0554  133.9460  133.2990 C   0  0  1  0  0  0  0  0  0  0  0  0
  203.2418  133.8995  132.0652 C   0  0  0  0  0  0  0  0  0  0  0  0
  202.3030  135.0063  131.8148 C   0  0  0  0  0  0  0  0  0  0  0  0
  202.7062  136.3602  132.2274 C   0  0  1  0  0  0  0  0  0  0  0  0
  201.7439  136.9058  133.2574 C   0  0  0  0  0  0  0  0  0  0  0  0
  202.9998  137.3334  131.1391 C   0  0  1  0  0  0  0  0  0  0  0  0
  201.8544  138.0967  130.6092 C   0  0  2  0  0  0  0  0  0  0  0  0
  202.0617  138.2600  129.0967 C   0  0  0  0  0  0  0  0  0  0  0  0
  202.0170  139.4981  131.1883 C   0  0  2  0  0  0  0  0  0  0  0  0
  200.7009  140.1358  131.4865 C   0  0  0  0  0  0  0  0  0  0  0  0
  200.9748  141.4747  132.1448 C   0  0  0  0  0  0  0  0  0  0  0  0
  201.6910  142.3314  131.1273 C   0  0  2  0  0  0  0  0  0  0  0  0
  200.7591  143.3993  130.5976 C   0  0  0  0  0  0  0  0  0  0  0  0
  202.1365  141.4694  129.9812 C   0  0  0  0  0  0  0  0  0  0  0  0
  202.7748  140.3073  130.3763 O   0  0  0  0  0  0  0  0  0  0  0  0
  202.7667  139.2555  132.3498 O   0  0  0  0  0  0  0  0  0  0  0  0
  1  2  1  1
  3  2  1  1
  3  4  1  0
  4  5  1  1
  5  6  1  0
  7  6  1  6
  7  8  1  0
  8  9  1  0
  9 10  1  1
  9 11  1  0
 11 12  1  0
 12 13  1  0
 13 14  1  1
 13 15  1  0
 15 16  1  6
 16 17  1  0
 17 18  1  0
 18 19  1  1
 18 20  1  0
 20 21  1  0
 21 22  1  6
 21 23  1  0
 23 24  1  1
 24 25  1  0
 25 26  1  0
 26 27  1  6
 26 28  1  0
 28 29  1  0
 23 30  1  0
 20  1  1  1
 29 23  1  0
 30  1  1  0
 18  3  1  0
 15  4  1  0
 13  7  1  0
M  END
$$$$
