
     RDKit          3D

 30 35  0  0  0  0  0  0  0  0999 V2000
  110.6429  165.5437  158.8392 C   0  0  1  0  0  0  0  0  0  0  0  0
  109.3956  166.0691  158.1422 C   0  0  0  0  0  0  0  0  0  0  0  0
  108.7625  164.8582  157.6205 C   0  0  1  0  0  0  0  0  0  0  0  0
  107.8820  164.9600  156.4454 C   0  0  2  0  0  0  0  0  0  0  0  0
  106.8461  166.0211  156.6619 C   0  0  0  0  0  0  0  0  0  0  0  0
  105.5106  165.5721  156.1881 C   0  0  0  0  0  0  0  0  0  0  0  0
  105.5891  164.7349  154.9039 C   0  0  2  0  0  0  0  0  0  0  0  0
  104.1791  164.4875  154.4902 C   0  0  0  0  0  0  0  0  0  0  0  0
  103.9776  163.3721  153.5303 C   0  0  1  0  0  0  0  0  0  0  0  0
  104.1645  163.8142  152.2129 O   0  0  0  0  0  0  0  0  0  0  0  0
  104.7748  162.1361  153.8413 C   0  0  0  0  0  0  0  0  0  0  0  0
  105.4025  162.3316  155.2230 C   0  0  0  0  0  0  0  0  0  0  0  0
  106.3918  163.4710  155.1234 C   0  0  1  0  0  0  0  0  0  0  0  0
  107.2634  163.2194  153.9345 C   0  0  0  0  0  0  0  0  0  0  0  0
  107.1466  163.6106  156.4055 C   0  0  1  0  0  0  0  0  0  0  0  0
  108.0195  162.4726  156.7649 C   0  0  0  0  0  0  0  0  0  0  0  0
  109.4756  162.6933  156.7689 C   0  0  0  0  0  0  0  0  0  0  0  0
  109.9738  164.0057  157.2108 C   0  0  1  0  0  0  0  0  0  0  0  0
  110.7318  164.6853  156.0936 C   0  0  0  0  0  0  0  0  0  0  0  0
  110.7019  164.0441  158.5093 C   0  0  1  0  0  0  0  0  0  0  0  0
  112.1520  163.7790  158.4612 C   0  0  2  0  0  0  0  0  0  0  0  0
  112.5212  162.9733  159.7150 C   0  0  0  0  0  0  0  0  0  0  0  0
  112.8055  165.1431  158.6560 C   0  0  2  0  0  0  0  0  0  0  0  0
  114.0698  165.2741  157.8736 C   0  0  0  0  0  0  0  0  0  0  0  0
  114.5825  166.6897  158.0578 C   0  0  0  0  0  0  0  0  0  0  0  0
  114.9182  166.8534  159.5216 C   0  0  2  0  0  0  0  0  0  0  0  0
  116.4190  166.8682  159.7131 C   0  0  0  0  0  0  0  0  0  0  0  0
  114.3457  165.6985  160.2921 C   0  0  0  0  0  0  0  0  0  0  0  0
  113.0252  165.4252  159.9829 O   0  0  0  0  0  0  0  0  0  0  0  0
  111.8064  166.0194  158.2046 O   0  0  0  0  0  0  0  0  0  0  0  0
  1  2  1  6
  3  2  1  6
  3  4  1  0
  4  5  1  1
  5  6  1  0
  7  6  1  1
  7  8  1  0
  8  9  1  0
  9 10  1  6
  9 11  1  0
 11 12  1  0
 12 13  1  0
 13 14  1  6
 13 15  1  0
 15 16  1  6
 16 17  1  0
 17 18  1  0
 18 19  1  6
 18 20  1  0
 20 21  1  0
 21 22  1  1
 21 23  1  0
 23 24  1  6
 24 25  1  0
 25 26  1  0
 26 27  1  6
 26 28  1  0
 28 29  1  0
 23 30  1  0
 20  1  1  6
 29 23  1  0
 30  1  1  0
 18  3  1  0
 15  4  1  0
 13  7  1  0
M  END
$$$$
