
     RDKit          3D

 30 35  0  0  0  0  0  0  0  0999 V2000
  202.1164  131.5830  137.2795 C   0  0  1  0  0  0  0  0  0  0  0  0
  201.9366  130.4011  136.3371 C   0  0  0  0  0  0  0  0  0  0  0  0
  203.2891  130.1568  135.8368 C   0  0  1  0  0  0  0  0  0  0  0  0
  203.4616  129.5074  134.5272 C   0  0  2  0  0  0  0  0  0  0  0  0
  202.6614  128.2419  134.4646 C   0  0  0  0  0  0  0  0  0  0  0  0
  203.4356  127.1484  133.8206 C   0  0  0  0  0  0  0  0  0  0  0  0
  204.3018  127.6442  132.6545 C   0  0  2  0  0  0  0  0  0  0  0  0
  204.8944  126.4241  132.0376 C   0  0  0  0  0  0  0  0  0  0  0  0
  206.0779  126.6530  131.1699 C   0  0  1  0  0  0  0  0  0  0  0  0
  205.6789  126.9776  129.8655 O   0  0  0  0  0  0  0  0  0  0  0  0
  207.0742  127.6312  131.7273 C   0  0  0  0  0  0  0  0  0  0  0  0
  206.6605  127.9350  133.1688 C   0  0  0  0  0  0  0  0  0  0  0  0
  205.3291  128.6506  133.1257 C   0  0  1  0  0  0  0  0  0  0  0  0
  205.4364  129.7599  132.1285 C   0  0  0  0  0  0  0  0  0  0  0  0
  204.9455  129.1069  134.4959 C   0  0  1  0  0  0  0  0  0  0  0  0
  205.8263  130.1270  135.1040 C   0  0  0  0  0  0  0  0  0  0  0  0
  205.2719  131.4727  135.3291 C   0  0  0  0  0  0  0  0  0  0  0  0
  203.8568  131.5800  135.7189 C   0  0  1  0  0  0  0  0  0  0  0  0
  203.0827  132.3627  134.6831 C   0  0  0  0  0  0  0  0  0  0  0  0
  203.5768  132.0299  137.1105 C   0  0  1  0  0  0  0  0  0  0  0  0
  203.4982  133.4862  137.3304 C   0  0  2  0  0  0  0  0  0  0  0  0
  204.1239  133.7860  138.7001 C   0  0  0  0  0  0  0  0  0  0  0  0
  202.0106  133.7766  137.4986 C   0  0  2  0  0  0  0  0  0  0  0  0
  201.6320  135.1031  136.9287 C   0  0  0  0  0  0  0  0  0  0  0  0
  200.1277  135.2492  137.0580 C   0  0  0  0  0  0  0  0  0  0  0  0
  199.8085  135.2651  138.5345 C   0  0  2  0  0  0  0  0  0  0  0  0
  199.4330  136.6643  138.9710 C   0  0  0  0  0  0  0  0  0  0  0  0
  201.0201  134.8286  139.3069 C   0  0  0  0  0  0  0  0  0  0  0  0
  201.6111  133.6806  138.8100 O   0  0  0  0  0  0  0  0  0  0  0  0
  201.4184  132.7100  136.8045 O   0  0  0  0  0  0  0  0  0  0  0  0
  1  2  1  6
  3  2  1  6
  3  4  1  0
  4  5  1  1
  5  6  1  0
  7  6  1  1
  7  8  1  0
  8  9  1  0
  9 10  1  6
  9 11  1  0
 11 12  1  0
 12 13  1  0
 13 14  1  6
 13 15  1  0
 15 16  1  6
 16 17  1  0
 17 18  1  0
 18 19  1  6
 18 20  1  0
 20 21  1  0
 21 22  1  1
 21 23  1  0
 23 24  1  6
 24 25  1  0
 25 26  1  0
 26 27  1  1
 26 28  1  0
 28 29  1  0
 23 30  1  0
 20  1  1  6
 29 23  1  0
 30  1  1  0
 18  3  1  0
 15  4  1  0
 13  7  1  0
M  END
$$$$
