
     RDKit          3D

 30 35  0  0  0  0  0  0  0  0999 V2000
  200.3019  131.4957  148.1328 C   0  0  1  0  0  0  0  0  0  0  0  0
  200.1955  132.3018  149.4198 C   0  0  0  0  0  0  0  0  0  0  0  0
  199.1133  131.6391  150.1471 C   0  0  1  0  0  0  0  0  0  0  0  0
  198.3361  132.4090  151.1319 C   0  0  2  0  0  0  0  0  0  0  0  0
  199.2539  133.0920  152.0999 C   0  0  0  0  0  0  0  0  0  0  0  0
  198.7417  132.9863  153.4913 C   0  0  0  0  0  0  0  0  0  0  0  0
  197.2132  133.1027  153.5696 C   0  0  2  0  0  0  0  0  0  0  0  0
  196.8780  133.1185  155.0214 C   0  0  0  0  0  0  0  0  0  0  0  0
  195.4647  132.8096  155.3578 C   0  0  1  0  0  0  0  0  0  0  0  0
  194.6746  133.9653  155.2814 O   0  0  0  0  0  0  0  0  0  0  0  0
  194.8809  131.6609  154.5834 C   0  0  0  0  0  0  0  0  0  0  0  0
  196.0267  130.9949  153.8185 C   0  0  0  0  0  0  0  0  0  0  0  0
  196.5397  131.9876  152.7995 C   0  0  1  0  0  0  0  0  0  0  0  0
  195.3618  132.5331  152.0569 C   0  0  0  0  0  0  0  0  0  0  0  0
  197.5602  131.3412  151.9200 C   0  0  1  0  0  0  0  0  0  0  0  0
  197.0665  130.2431  151.0618 C   0  0  0  0  0  0  0  0  0  0  0  0
  197.0575  130.4558  149.6045 C   0  0  0  0  0  0  0  0  0  0  0  0
  198.1519  131.2439  149.0152 C   0  0  1  0  0  0  0  0  0  0  0  0
  197.6065  132.4825  148.3421 C   0  0  0  0  0  0  0  0  0  0  0  0
  199.1266  130.5063  148.1646 C   0  0  1  0  0  0  0  0  0  0  0  0
  198.7827  130.3648  146.7373 C   0  0  2  0  0  0  0  0  0  0  0  0
  199.2466  128.9741  146.2811 C   0  0  0  0  0  0  0  0  0  0  0  0
  199.6979  131.3480  146.0152 C   0  0  2  0  0  0  0  0  0  0  0  0
  199.0334  131.9616  144.8279 C   0  0  0  0  0  0  0  0  0  0  0  0
  199.9855  132.9883  144.2448 C   0  0  0  0  0  0  0  0  0  0  0  0
  201.2060  132.2392  143.7637 C   0  0  2  0  0  0  0  0  0  0  0  0
  201.2157  132.1759  142.2520 C   0  0  0  0  0  0  0  0  0  0  0  0
  201.1712  130.8386  144.3042 C   0  0  0  0  0  0  0  0  0  0  0  0
  200.8938  130.7729  145.6580 O   0  0  0  0  0  0  0  0  0  0  0  0
  199.9731  132.2906  147.0181 O   0  0  0  0  0  0  0  0  0  0  0  0
  1  2  1  1
  3  2  1  6
  3  4  1  0
  4  5  1  1
  5  6  1  0
  7  6  1  1
  7  8  1  0
  8  9  1  0
  9 10  1  6
  9 11  1  0
 11 12  1  0
 12 13  1  0
 13 14  1  6
 13 15  1  0
 15 16  1  6
 16 17  1  0
 17 18  1  0
 18 19  1  6
 18 20  1  0
 20 21  1  0
 21 22  1  6
 21 23  1  0
 23 24  1  6
 24 25  1  0
 25 26  1  0
 26 27  1  6
 26 28  1  0
 28 29  1  0
 23 30  1  0
 20  1  1  6
 29 23  1  0
 30  1  1  0
 18  3  1  0
 15  4  1  0
 13  7  1  0
M  END
$$$$
