
     RDKit          3D

 30 35  0  0  0  0  0  0  0  0999 V2000
  197.7248  174.5107  151.6211 C   0  0  1  0  0  0  0  0  0  0  0  0
  198.0074  173.8036  150.3029 C   0  0  0  0  0  0  0  0  0  0  0  0
  196.8347  174.1217  149.4886 C   0  0  1  0  0  0  0  0  0  0  0  0
  196.4491  173.2079  148.4010 C   0  0  2  0  0  0  0  0  0  0  0  0
  197.6238  172.9315  147.5125 C   0  0  0  0  0  0  0  0  0  0  0  0
  197.2306  172.9572  146.0792 C   0  0  0  0  0  0  0  0  0  0  0  0
  195.8417  172.3508  145.8358 C   0  0  2  0  0  0  0  0  0  0  0  0
  195.6606  172.3242  144.3570 C   0  0  0  0  0  0  0  0  0  0  0  0
  194.2607  172.1738  143.8838 C   0  0  1  0  0  0  0  0  0  0  0  0
  193.8979  170.8203  143.8361 O   0  0  0  0  0  0  0  0  0  0  0  0
  193.2612  173.0117  144.6315 C   0  0  0  0  0  0  0  0  0  0  0  0
  194.0469  173.9636  145.5359 C   0  0  0  0  0  0  0  0  0  0  0  0
  194.7697  173.1279  146.5684 C   0  0  1  0  0  0  0  0  0  0  0  0
  193.7805  172.1768  147.1629 C   0  0  0  0  0  0  0  0  0  0  0  0
  195.4342  174.0124  147.5728 C   0  0  1  0  0  0  0  0  0  0  0  0
  194.5287  174.8266  148.4115 C   0  0  0  0  0  0  0  0  0  0  0  0
  194.4626  174.5244  149.8514 C   0  0  0  0  0  0  0  0  0  0  0  0
  195.7007  174.1016  150.5255 C   0  0  1  0  0  0  0  0  0  0  0  0
  195.5425  172.7099  151.0938 C   0  0  0  0  0  0  0  0  0  0  0  0
  196.2945  175.0589  151.4995 C   0  0  1  0  0  0  0  0  0  0  0  0
  195.7985  174.9825  152.8864 C   0  0  2  0  0  0  0  0  0  0  0  0
  195.7296  176.4141  153.4370 C   0  0  0  0  0  0  0  0  0  0  0  0
  196.9217  174.3079  153.6667 C   0  0  2  0  0  0  0  0  0  0  0  0
  196.3978  173.4311  154.7551 C   0  0  0  0  0  0  0  0  0  0  0  0
  197.5826  172.7370  155.3998 C   0  0  0  0  0  0  0  0  0  0  0  0
  198.4357  173.8110  156.0329 C   0  0  2  0  0  0  0  0  0  0  0  0
  198.2903  173.7713  157.5384 C   0  0  0  0  0  0  0  0  0  0  0  0
  197.9835  175.1557  155.5406 C   0  0  0  0  0  0  0  0  0  0  0  0
  197.8207  175.2183  154.1681 O   0  0  0  0  0  0  0  0  0  0  0  0
  197.5829  173.5782  152.6666 O   0  0  0  0  0  0  0  0  0  0  0  0
  1  2  1  6
  3  2  1  1
  3  4  1  0
  4  5  1  6
  5  6  1  0
  7  6  1  6
  7  8  1  0
  8  9  1  0
  9 10  1  1
  9 11  1  0
 11 12  1  0
 12 13  1  0
 13 14  1  1
 13 15  1  0
 15 16  1  1
 16 17  1  0
 17 18  1  0
 18 19  1  1
 18 20  1  0
 20 21  1  0
 21 22  1  1
 21 23  1  0
 23 24  1  1
 24 25  1  0
 25 26  1  0
 26 27  1  1
 26 28  1  0
 28 29  1  0
 23 30  1  0
 20  1  1  1
 29 23  1  0
 30  1  1  0
 18  3  1  0
 15  4  1  0
 13  7  1  0
M  END
$$$$
