
     RDKit          3D

 30 35  0  0  0  0  0  0  0  0999 V2000
  165.7818  151.9149  130.6431 C   0  0  1  0  0  0  0  0  0  0  0  0
  165.8921  153.2504  129.9209 C   0  0  0  0  0  0  0  0  0  0  0  0
  165.7787  152.8837  128.5095 C   0  0  1  0  0  0  0  0  0  0  0  0
  166.3823  153.7590  127.4916 C   0  0  2  0  0  0  0  0  0  0  0  0
  165.9276  155.1736  127.6862 C   0  0  0  0  0  0  0  0  0  0  0  0
  165.5994  155.8157  126.3863 C   0  0  0  0  0  0  0  0  0  0  0  0
  166.5550  155.3956  125.2609 C   0  0  2  0  0  0  0  0  0  0  0  0
  166.1826  156.2222  124.0784 C   0  0  0  0  0  0  0  0  0  0  0  0
  166.6692  155.7231  122.7668 C   0  0  1  0  0  0  0  0  0  0  0  0
  167.9755  156.1697  122.5219 O   0  0  0  0  0  0  0  0  0  0  0  0
  166.5230  154.2390  122.5763 C   0  0  0  0  0  0  0  0  0  0  0  0
  165.6854  153.7080  123.7416 C   0  0  0  0  0  0  0  0  0  0  0  0
  166.4836  153.9049  125.0108 C   0  0  1  0  0  0  0  0  0  0  0  0
  167.8603  153.3708  124.7746 C   0  0  0  0  0  0  0  0  0  0  0  0
  165.7799  153.2681  126.1651 C   0  0  1  0  0  0  0  0  0  0  0  0
  165.6492  151.7965  126.1061 C   0  0  0  0  0  0  0  0  0  0  0  0
  166.3874  150.9971  127.0985 C   0  0  0  0  0  0  0  0  0  0  0  0
  166.5259  151.5417  128.4587 C   0  0  1  0  0  0  0  0  0  0  0  0
  167.9843  151.7473  128.7982 C   0  0  0  0  0  0  0  0  0  0  0  0
  165.7741  150.8458  129.5395 C   0  0  1  0  0  0  0  0  0  0  0  0
  166.4511  149.7063  130.1864 C   0  0  2  0  0  0  0  0  0  0  0  0
  165.3875  148.6405  130.4867 C   0  0  0  0  0  0  0  0  0  0  0  0
  166.8854  150.2327  131.5503 C   0  0  2  0  0  0  0  0  0  0  0  0
  168.1839  149.6422  131.9897 C   0  0  0  0  0  0  0  0  0  0  0  0
  168.5710  150.3008  133.3002 C   0  0  0  0  0  0  0  0  0  0  0  0
  167.5173  149.9236  134.3149 C   0  0  2  0  0  0  0  0  0  0  0  0
  168.0733  148.9095  135.2904 C   0  0  0  0  0  0  0  0  0  0  0  0
  166.3425  149.3148  133.6046 C   0  0  0  0  0  0  0  0  0  0  0  0
  165.9182  150.0439  132.5081 O   0  0  0  0  0  0  0  0  0  0  0  0
  166.9790  151.6142  131.3206 O   0  0  0  0  0  0  0  0  0  0  0  0
  1  2  1  6
  3  2  1  1
  3  4  1  0
  4  5  1  1
  5  6  1  0
  7  6  1  1
  7  8  1  0
  8  9  1  0
  9 10  1  1
  9 11  1  0
 11 12  1  0
 12 13  1  0
 13 14  1  6
 13 15  1  0
 15 16  1  6
 16 17  1  0
 17 18  1  0
 18 19  1  1
 18 20  1  0
 20 21  1  0
 21 22  1  1
 21 23  1  0
 23 24  1  1
 24 25  1  0
 25 26  1  0
 26 27  1  1
 26 28  1  0
 28 29  1  0
 23 30  1  0
 20  1  1  1
 29 23  1  0
 30  1  1  0
 18  3  1  0
 15  4  1  0
 13  7  1  0
M  END
$$$$
