
     RDKit          3D

 30 35  0  0  0  0  0  0  0  0999 V2000
  128.1958  147.9381  136.5811 C   0  0  1  0  0  0  0  0  0  0  0  0
  127.8686  146.5404  137.0879 C   0  0  0  0  0  0  0  0  0  0  0  0
  128.5383  145.6650  136.1263 C   0  0  1  0  0  0  0  0  0  0  0  0
  128.0247  144.3010  135.9212 C   0  0  2  0  0  0  0  0  0  0  0  0
  127.8822  143.5956  137.2358 C   0  0  0  0  0  0  0  0  0  0  0  0
  128.3622  142.1915  137.1464 C   0  0  0  0  0  0  0  0  0  0  0  0
  128.0136  141.5313  135.8053 C   0  0  2  0  0  0  0  0  0  0  0  0
  128.4326  140.1068  135.9295 C   0  0  0  0  0  0  0  0  0  0  0  0
  128.5850  139.3680  134.6500 C   0  0  1  0  0  0  0  0  0  0  0  0
  127.3525  138.8480  134.2300 O   0  0  0  0  0  0  0  0  0  0  0  0
  129.2819  140.1432  133.5668 C   0  0  0  0  0  0  0  0  0  0  0  0
  129.8386  141.4190  134.2024 C   0  0  0  0  0  0  0  0  0  0  0  0
  128.6653  142.2611  134.6508 C   0  0  1  0  0  0  0  0  0  0  0  0
  127.7031  142.3522  133.5096 C   0  0  0  0  0  0  0  0  0  0  0  0
  129.1431  143.5883  135.1438 C   0  0  1  0  0  0  0  0  0  0  0  0
  129.7807  144.4583  134.1325 C   0  0  0  0  0  0  0  0  0  0  0  0
  129.0882  145.7025  133.7563 C   0  0  0  0  0  0  0  0  0  0  0  0
  128.3515  146.4266  134.8047 C   0  0  1  0  0  0  0  0  0  0  0  0
  126.8830  146.5080  134.4564 C   0  0  0  0  0  0  0  0  0  0  0  0
  128.9153  147.7348  135.2387 C   0  0  1  0  0  0  0  0  0  0  0  0
  128.5020  148.9210  134.4658 C   0  0  2  0  0  0  0  0  0  0  0  0
  129.7139  149.8583  134.3654 C   0  0  0  0  0  0  0  0  0  0  0  0
  127.5085  149.6476  135.3662 C   0  0  2  0  0  0  0  0  0  0  0  0
  126.4224  150.3066  134.5827 C   0  0  0  0  0  0  0  0  0  0  0  0
  125.4422  150.9113  135.5699 C   0  0  0  0  0  0  0  0  0  0  0  0
  126.1851  151.9822  136.3337 C   0  0  2  0  0  0  0  0  0  0  0  0
  125.7327  153.3532  135.8812 C   0  0  0  0  0  0  0  0  0  0  0  0
  127.6569  151.8485  136.0674 C   0  0  0  0  0  0  0  0  0  0  0  0
  128.1282  150.5538  136.1927 O   0  0  0  0  0  0  0  0  0  0  0  0
  127.0254  148.6084  136.1766 O   0  0  0  0  0  0  0  0  0  0  0  0
  1  2  1  6
  3  2  1  1
  3  4  1  0
  4  5  1  1
  5  6  1  0
  7  6  1  1
  7  8  1  0
  8  9  1  0
  9 10  1  6
  9 11  1  0
 11 12  1  0
 12 13  1  0
 13 14  1  6
 13 15  1  0
 15 16  1  6
 16 17  1  0
 17 18  1  0
 18 19  1  6
 18 20  1  0
 20 21  1  0
 21 22  1  1
 21 23  1  0
 23 24  1  6
 24 25  1  0
 25 26  1  0
 26 27  1  6
 26 28  1  0
 28 29  1  0
 23 30  1  0
 20  1  1  1
 29 23  1  0
 30  1  1  0
 18  3  1  0
 15  4  1  0
 13  7  1  0
M  END
$$$$
