
     RDKit          3D

 30 35  0  0  0  0  0  0  0  0999 V2000
  204.1481  132.7167  134.4635 C   0  0  1  0  0  0  0  0  0  0  0  0
  204.7968  131.6435  133.6004 C   0  0  0  0  0  0  0  0  0  0  0  0
  206.1760  131.6048  134.0860 C   0  0  1  0  0  0  0  0  0  0  0  0
  207.2403  131.1384  133.1826 C   0  0  2  0  0  0  0  0  0  0  0  0
  206.8743  129.8121  132.5885 C   0  0  0  0  0  0  0  0  0  0  0  0
  208.0411  128.8913  132.5712 C   0  0  0  0  0  0  0  0  0  0  0  0
  209.3585  129.6114  132.2520 C   0  0  2  0  0  0  0  0  0  0  0  0
  210.3907  128.5431  132.1352 C   0  0  0  0  0  0  0  0  0  0  0  0
  211.8006  128.9976  132.2424 C   0  0  1  0  0  0  0  0  0  0  0  0
  212.2759  129.4318  130.9968 O   0  0  0  0  0  0  0  0  0  0  0  0
  212.0461  130.0017  133.3340 C   0  0  0  0  0  0  0  0  0  0  0  0
  210.7701  130.0857  134.1743 C   0  0  0  0  0  0  0  0  0  0  0  0
  209.6776  130.6569  133.2985 C   0  0  1  0  0  0  0  0  0  0  0  0
  210.2170  131.8826  132.6326 C   0  0  0  0  0  0  0  0  0  0  0  0
  208.4456  130.9032  134.1074 C   0  0  1  0  0  0  0  0  0  0  0  0
  208.5648  131.9305  135.1641 C   0  0  0  0  0  0  0  0  0  0  0  0
  207.7904  133.1736  135.0095 C   0  0  0  0  0  0  0  0  0  0  0  0
  206.4558  133.0837  134.3959 C   0  0  1  0  0  0  0  0  0  0  0  0
  206.4046  133.8985  133.1238 C   0  0  0  0  0  0  0  0  0  0  0  0
  205.2895  133.3321  135.2879 C   0  0  1  0  0  0  0  0  0  0  0  0
  204.8609  134.7352  135.4391 C   0  0  2  0  0  0  0  0  0  0  0  0
  204.4172  134.9334  136.8956 C   0  0  0  0  0  0  0  0  0  0  0  0
  203.5832  134.8448  134.6138 C   0  0  2  0  0  0  0  0  0  0  0  0
  203.4496  136.1826  133.9655 C   0  0  0  0  0  0  0  0  0  0  0  0
  202.2067  136.1528  133.0964 C   0  0  0  0  0  0  0  0  0  0  0  0
  201.0253  135.9583  134.0176 C   0  0  2  0  0  0  0  0  0  0  0  0
  200.2437  137.2479  134.1411 C   0  0  0  0  0  0  0  0  0  0  0  0
  201.5201  135.5628  135.3792 C   0  0  0  0  0  0  0  0  0  0  0  0
  202.4636  134.5512  135.3546 O   0  0  0  0  0  0  0  0  0  0  0  0
  203.7442  133.8124  133.6767 O   0  0  0  0  0  0  0  0  0  0  0  0
  1  2  1  6
  3  2  1  6
  3  4  1  0
  4  5  1  1
  5  6  1  0
  7  6  1  1
  7  8  1  0
  8  9  1  0
  9 10  1  6
  9 11  1  0
 11 12  1  0
 12 13  1  0
 13 14  1  6
 13 15  1  0
 15 16  1  6
 16 17  1  0
 17 18  1  0
 18 19  1  6
 18 20  1  0
 20 21  1  0
 21 22  1  1
 21 23  1  0
 23 24  1  6
 24 25  1  0
 25 26  1  0
 26 27  1  1
 26 28  1  0
 28 29  1  0
 23 30  1  0
 20  1  1  6
 29 23  1  0
 30  1  1  0
 18  3  1  0
 15  4  1  0
 13  7  1  0
M  END
$$$$
