
     RDKit          3D

 30 35  0  0  0  0  0  0  0  0999 V2000
  133.0509  139.6644  130.9553 C   0  0  1  0  0  0  0  0  0  0  0  0
  132.5281  139.5856  132.3829 C   0  0  0  0  0  0  0  0  0  0  0  0
  131.2200  138.9492  132.2310 C   0  0  1  0  0  0  0  0  0  0  0  0
  130.1818  139.1956  133.2449 C   0  0  2  0  0  0  0  0  0  0  0  0
  130.7206  138.9265  134.6172 C   0  0  0  0  0  0  0  0  0  0  0  0
  129.7315  138.1901  135.4473 C   0  0  0  0  0  0  0  0  0  0  0  0
  128.2887  138.6487  135.1945 C   0  0  2  0  0  0  0  0  0  0  0  0
  127.4490  137.9244  136.1898 C   0  0  0  0  0  0  0  0  0  0  0  0
  125.9953  137.8746  135.8890 C   0  0  1  0  0  0  0  0  0  0  0  0
  125.3534  139.0286  136.3602 O   0  0  0  0  0  0  0  0  0  0  0  0
  125.6705  137.5818  134.4507 C   0  0  0  0  0  0  0  0  0  0  0  0
  126.9770  137.1912  133.7565 C   0  0  0  0  0  0  0  0  0  0  0  0
  127.8808  138.4036  133.7580 C   0  0  1  0  0  0  0  0  0  0  0  0
  127.0870  139.5682  133.2579 C   0  0  0  0  0  0  0  0  0  0  0  0
  129.1137  138.1273  132.9602 C   0  0  1  0  0  0  0  0  0  0  0  0
  128.9059  137.8972  131.5145 C   0  0  0  0  0  0  0  0  0  0  0  0
  129.4405  138.8950  130.5723 C   0  0  0  0  0  0  0  0  0  0  0  0
  130.7167  139.5468  130.9077 C   0  0  1  0  0  0  0  0  0  0  0  0
  130.5242  141.0390  131.0528 C   0  0  0  0  0  0  0  0  0  0  0  0
  131.8914  139.1957  130.0625 C   0  0  1  0  0  0  0  0  0  0  0  0
  132.0838  139.9917  128.8359 C   0  0  2  0  0  0  0  0  0  0  0  0
  132.6034  139.0469  127.7428 C   0  0  0  0  0  0  0  0  0  0  0  0
  133.2527  140.9192  129.1510 C   0  0  2  0  0  0  0  0  0  0  0  0
  133.1020  142.2513  128.4949 C   0  0  0  0  0  0  0  0  0  0  0  0
  134.2570  143.1234  128.9491 C   0  0  0  0  0  0  0  0  0  0  0  0
  135.5249  142.4863  128.4305 C   0  0  2  0  0  0  0  0  0  0  0  0
  136.0812  143.2957  127.2796 C   0  0  0  0  0  0  0  0  0  0  0  0
  135.2172  141.1006  127.9404 C   0  0  0  0  0  0  0  0  0  0  0  0
  134.4623  140.3533  128.8268 O   0  0  0  0  0  0  0  0  0  0  0  0
  133.1959  141.0053  130.5508 O   0  0  0  0  0  0  0  0  0  0  0  0
  1  2  1  1
  3  2  1  1
  3  4  1  0
  4  5  1  1
  5  6  1  0
  7  6  1  6
  7  8  1  0
  8  9  1  0
  9 10  1  6
  9 11  1  0
 11 12  1  0
 12 13  1  0
 13 14  1  6
 13 15  1  0
 15 16  1  6
 16 17  1  0
 17 18  1  0
 18 19  1  1
 18 20  1  0
 20 21  1  0
 21 22  1  6
 21 23  1  0
 23 24  1  6
 24 25  1  0
 25 26  1  0
 26 27  1  6
 26 28  1  0
 28 29  1  0
 23 30  1  0
 20  1  1  1
 29 23  1  0
 30  1  1  0
 18  3  1  0
 15  4  1  0
 13  7  1  0
M  END
$$$$
