
     RDKit          3D

 30 35  0  0  0  0  0  0  0  0999 V2000
  174.0865  146.0316  121.6017 C   0  0  1  0  0  0  0  0  0  0  0  0
  173.7244  146.1615  123.0745 C   0  0  0  0  0  0  0  0  0  0  0  0
  172.4099  146.8023  123.0459 C   0  0  1  0  0  0  0  0  0  0  0  0
  171.9746  147.5954  124.2069 C   0  0  2  0  0  0  0  0  0  0  0  0
  172.1228  146.7978  125.4670 C   0  0  0  0  0  0  0  0  0  0  0  0
  170.9454  146.9761  126.3568 C   0  0  0  0  0  0  0  0  0  0  0  0
  170.4026  148.4117  126.3392 C   0  0  2  0  0  0  0  0  0  0  0  0
  169.3305  148.4562  127.3732 C   0  0  0  0  0  0  0  0  0  0  0  0
  168.3821  149.5943  127.2667 C   0  0  1  0  0  0  0  0  0  0  0  0
  168.8943  150.7267  127.9156 O   0  0  0  0  0  0  0  0  0  0  0  0
  167.9260  149.8909  125.8653 C   0  0  0  0  0  0  0  0  0  0  0  0
  168.4208  148.7514  124.9718 C   0  0  0  0  0  0  0  0  0  0  0  0
  169.9321  148.8015  124.9548 C   0  0  1  0  0  0  0  0  0  0  0  0
  170.3413  150.2106  124.6658 C   0  0  0  0  0  0  0  0  0  0  0  0
  170.4689  147.8057  123.9785 C   0  0  1  0  0  0  0  0  0  0  0  0
  170.1346  148.0517  122.5595 C   0  0  0  0  0  0  0  0  0  0  0  0
  171.2318  148.4028  121.6420 C   0  0  0  0  0  0  0  0  0  0  0  0
  172.5417  147.7674  121.8573 C   0  0  1  0  0  0  0  0  0  0  0  0
  173.5925  148.8129  122.1526 C   0  0  0  0  0  0  0  0  0  0  0  0
  172.9830  146.7777  120.8358 C   0  0  1  0  0  0  0  0  0  0  0  0
  173.7046  147.3132  119.6662 C   0  0  2  0  0  0  0  0  0  0  0  0
  173.2692  146.5021  118.4374 C   0  0  0  0  0  0  0  0  0  0  0  0
  175.1631  146.9336  119.8993 C   0  0  2  0  0  0  0  0  0  0  0  0
  176.1007  147.9745  119.3843 C   0  0  0  0  0  0  0  0  0  0  0  0
  177.5098  147.5496  119.7518 C   0  0  0  0  0  0  0  0  0  0  0  0
  177.7908  146.2604  119.0161 C   0  0  2  0  0  0  0  0  0  0  0  0
  178.7505  146.5115  117.8736 C   0  0  0  0  0  0  0  0  0  0  0  0
  176.5061  145.7207  118.4561 C   0  0  0  0  0  0  0  0  0  0  0  0
  175.4669  145.7027  119.3693 O   0  0  0  0  0  0  0  0  0  0  0  0
  175.2194  146.8102  121.2962 O   0  0  0  0  0  0  0  0  0  0  0  0
  1  2  1  1
  3  2  1  1
  3  4  1  0
  4  5  1  1
  5  6  1  0
  7  6  1  6
  7  8  1  0
  8  9  1  0
  9 10  1  6
  9 11  1  0
 11 12  1  0
 12 13  1  0
 13 14  1  6
 13 15  1  0
 15 16  1  6
 16 17  1  0
 17 18  1  0
 18 19  1  1
 18 20  1  0
 20 21  1  0
 21 22  1  6
 21 23  1  0
 23 24  1  6
 24 25  1  0
 25 26  1  0
 26 27  1  6
 26 28  1  0
 28 29  1  0
 23 30  1  0
 20  1  1  1
 29 23  1  0
 30  1  1  0
 18  3  1  0
 15  4  1  0
 13  7  1  0
M  END
$$$$
