
     RDKit          3D

 30 35  0  0  0  0  0  0  0  0999 V2000
  171.4003  164.7311  111.3343 C   0  0  1  0  0  0  0  0  0  0  0  0
  172.0771  164.7874  112.6967 C   0  0  0  0  0  0  0  0  0  0  0  0
  173.2397  163.9147  112.5348 C   0  0  1  0  0  0  0  0  0  0  0  0
  173.8163  163.2627  113.7218 C   0  0  2  0  0  0  0  0  0  0  0  0
  174.0879  164.2763  114.7918 C   0  0  0  0  0  0  0  0  0  0  0  0
  175.4031  164.0328  115.4404 C   0  0  0  0  0  0  0  0  0  0  0  0
  175.7110  162.5388  115.6114 C   0  0  2  0  0  0  0  0  0  0  0  0
  176.9785  162.4692  116.3916 C   0  0  0  0  0  0  0  0  0  0  0  0
  177.6984  161.1713  116.3331 C   0  0  1  0  0  0  0  0  0  0  0  0
  177.1943  160.2829  117.2935 O   0  0  0  0  0  0  0  0  0  0  0  0
  177.7623  160.5602  114.9610 C   0  0  0  0  0  0  0  0  0  0  0  0
  177.2422  161.6038  113.9702 C   0  0  0  0  0  0  0  0  0  0  0  0
  175.7790  161.8378  114.2720 C   0  0  1  0  0  0  0  0  0  0  0  0
  175.1120  160.5030  114.3717 C   0  0  0  0  0  0  0  0  0  0  0  0
  175.1781  162.7364  113.2404 C   0  0  1  0  0  0  0  0  0  0  0  0
  175.1283  162.1942  111.8657 C   0  0  0  0  0  0  0  0  0  0  0  0
  173.8062  161.9058  111.2844 C   0  0  0  0  0  0  0  0  0  0  0  0
  172.6914  162.8042  111.6250 C   0  0  1  0  0  0  0  0  0  0  0  0
  171.5990  162.0414  112.3388 C   0  0  0  0  0  0  0  0  0  0  0  0
  172.1707  163.6711  110.5319 C   0  0  1  0  0  0  0  0  0  0  0  0
  171.1231  163.0906  109.6712 C   0  0  2  0  0  0  0  0  0  0  0  0
  171.3695  163.5842  108.2383 C   0  0  0  0  0  0  0  0  0  0  0  0
  169.8323  163.7726  110.1122 C   0  0  2  0  0  0  0  0  0  0  0  0
  168.6580  162.8553  110.0268 C   0  0  0  0  0  0  0  0  0  0  0  0
  167.4532  163.5947  110.5770 C   0  0  0  0  0  0  0  0  0  0  0  0
  167.1977  164.7696  109.6624 C   0  0  2  0  0  0  0  0  0  0  0  0
  165.9692  164.5137  108.8170 C   0  0  0  0  0  0  0  0  0  0  0  0
  168.3783  164.9540  108.7529 C   0  0  0  0  0  0  0  0  0  0  0  0
  169.5950  164.9305  109.4112 O   0  0  0  0  0  0  0  0  0  0  0  0
  170.1263  164.1400  111.4346 O   0  0  0  0  0  0  0  0  0  0  0  0
  1  2  1  1
  3  2  1  1
  3  4  1  0
  4  5  1  1
  5  6  1  0
  7  6  1  6
  7  8  1  0
  8  9  1  0
  9 10  1  1
  9 11  1  0
 11 12  1  0
 12 13  1  0
 13 14  1  1
 13 15  1  0
 15 16  1  6
 16 17  1  0
 17 18  1  0
 18 19  1  1
 18 20  1  0
 20 21  1  0
 21 22  1  6
 21 23  1  0
 23 24  1  1
 24 25  1  0
 25 26  1  0
 26 27  1  6
 26 28  1  0
 28 29  1  0
 23 30  1  0
 20  1  1  1
 29 23  1  0
 30  1  1  0
 18  3  1  0
 15  4  1  0
 13  7  1  0
M  END
$$$$
