
     RDKit          3D

 30 35  0  0  0  0  0  0  0  0999 V2000
  131.9500  137.1018  132.8359 C   0  0  1  0  0  0  0  0  0  0  0  0
  131.0473  136.7617  131.6583 C   0  0  0  0  0  0  0  0  0  0  0  0
  131.8734  137.0800  130.4940 C   0  0  1  0  0  0  0  0  0  0  0  0
  131.2164  137.4281  129.2236 C   0  0  2  0  0  0  0  0  0  0  0  0
  130.2050  136.3845  128.8579 C   0  0  0  0  0  0  0  0  0  0  0  0
  130.2681  136.0604  127.4085 C   0  0  0  0  0  0  0  0  0  0  0  0
  130.5435  137.2941  126.5378 C   0  0  2  0  0  0  0  0  0  0  0  0
  130.4368  136.8302  125.1258 C   0  0  0  0  0  0  0  0  0  0  0  0
  131.0581  137.7173  124.1094 C   0  0  1  0  0  0  0  0  0  0  0  0
  130.1654  138.7272  123.7232 O   0  0  0  0  0  0  0  0  0  0  0  0
  132.4051  138.2583  124.5005 C   0  0  0  0  0  0  0  0  0  0  0  0
  132.8398  137.5286  125.7732 C   0  0  0  0  0  0  0  0  0  0  0  0
  131.8811  137.9151  126.8770 C   0  0  1  0  0  0  0  0  0  0  0  0
  131.7555  139.4053  126.8748 C   0  0  0  0  0  0  0  0  0  0  0  0
  132.3437  137.3512  128.1812 C   0  0  1  0  0  0  0  0  0  0  0  0
  133.6292  137.8762  128.6890 C   0  0  0  0  0  0  0  0  0  0  0  0
  133.6069  138.6874  129.9181 C   0  0  0  0  0  0  0  0  0  0  0  0
  132.6406  138.3246  130.9672 C   0  0  1  0  0  0  0  0  0  0  0  0
  131.6785  139.4639  131.2143 C   0  0  0  0  0  0  0  0  0  0  0  0
  133.1988  137.7570  132.2257 C   0  0  1  0  0  0  0  0  0  0  0  0
  133.5992  138.7236  133.2653 C   0  0  2  0  0  0  0  0  0  0  0  0
  134.8671  138.1831  133.9419 C   0  0  0  0  0  0  0  0  0  0  0  0
  132.5087  138.6297  134.3273 C   0  0  2  0  0  0  0  0  0  0  0  0
  132.2394  139.9495  134.9702 C   0  0  0  0  0  0  0  0  0  0  0  0
  131.0805  139.7672  135.9318 C   0  0  0  0  0  0  0  0  0  0  0  0
  131.5405  138.8083  137.0047 C   0  0  2  0  0  0  0  0  0  0  0  0
  131.7846  139.5534  138.2988 C   0  0  0  0  0  0  0  0  0  0  0  0
  132.8248  138.1614  136.5719 C   0  0  0  0  0  0  0  0  0  0  0  0
  132.7932  137.6773  135.2762 O   0  0  0  0  0  0  0  0  0  0  0  0
  131.4110  138.1639  133.5869 O   0  0  0  0  0  0  0  0  0  0  0  0
  1  2  1  6
  3  2  1  1
  3  4  1  0
  4  5  1  6
  5  6  1  0
  7  6  1  1
  7  8  1  0
  8  9  1  0
  9 10  1  1
  9 11  1  0
 11 12  1  0
 12 13  1  0
 13 14  1  1
 13 15  1  0
 15 16  1  1
 16 17  1  0
 17 18  1  0
 18 19  1  1
 18 20  1  0
 20 21  1  0
 21 22  1  1
 21 23  1  0
 23 24  1  1
 24 25  1  0
 25 26  1  0
 26 27  1  1
 26 28  1  0
 28 29  1  0
 23 30  1  0
 20  1  1  1
 29 23  1  0
 30  1  1  0
 18  3  1  0
 15  4  1  0
 13  7  1  0
M  END
$$$$
