
     RDKit          3D

 32 36  0  0  0  0  0  0  0  0999 V2000
  161.7188  145.9223  129.1173 C   0  0  1  0  0  0  0  0  0  0  0  0
  161.8707  144.4612  129.2016 C   0  0  1  0  0  0  0  0  0  0  0  0
  160.9821  144.0623  130.3582 C   0  0  0  0  0  0  0  0  0  0  0  0
  160.0467  145.2602  130.5585 C   0  0  0  0  0  0  0  0  0  0  0  0
  161.0542  146.3600  130.3936 C   0  0  1  0  0  0  0  0  0  0  0  0
  161.8674  146.4460  131.6187 C   0  0  0  0  0  0  0  0  0  0  0  0
  161.0493  147.0871  132.6046 O   0  0  0  0  0  0  0  0  0  0  0  0
  160.4252  147.7023  130.0259 C   0  0  0  0  0  0  0  0  0  0  0  0
  161.5434  148.6445  129.6739 C   0  0  0  0  0  0  0  0  0  0  0  0
  162.4168  148.1813  128.5348 C   0  0  2  0  0  0  0  0  0  0  0  0
  161.5900  148.3363  127.2962 C   0  0  0  0  0  0  0  0  0  0  0  0
  162.8817  146.7909  128.8539 C   0  0  2  0  0  0  0  0  0  0  0  0
  163.9221  146.2720  127.9211 C   0  0  0  0  0  0  0  0  0  0  0  0
  165.1196  147.2315  128.1451 C   0  0  0  0  0  0  0  0  0  0  0  0
  164.6296  148.5187  127.5169 C   0  0  2  0  0  0  0  0  0  0  0  0
  165.7669  149.4009  127.0817 C   0  0  1  0  0  0  0  0  0  0  0  0
  166.8564  149.4916  128.0688 C   0  0  0  0  0  0  0  0  0  0  0  0
  166.3576  148.7348  125.8226 C   0  0  0  0  0  0  0  0  0  0  0  0
  167.4624  149.5136  125.2297 C   0  0  0  0  0  0  0  0  0  0  0  0
  167.4430  150.9893  125.4167 C   0  0  2  0  0  0  0  0  0  0  0  0
  168.5517  151.4294  126.1841 O   0  0  0  0  0  0  0  0  0  0  0  0
  166.1582  151.5861  125.8541 C   0  0  0  0  0  0  0  0  0  0  0  0
  166.4867  152.8435  126.6792 C   0  0  0  0  0  0  0  0  0  0  0  0
  165.4389  152.1912  124.6262 C   0  0  0  0  0  0  0  0  0  0  0  0
  165.2070  150.6877  126.5425 C   0  0  2  0  0  0  0  0  0  0  0  0
  164.3216  151.3575  127.5692 C   0  0  0  0  0  0  0  0  0  0  0  0
  163.1080  150.4332  127.7342 C   0  0  0  0  0  0  0  0  0  0  0  0
  163.6019  149.1381  128.3909 C   0  0  1  0  0  0  0  0  0  0  0  0
  164.0577  149.5087  129.7537 C   0  0  0  0  0  0  0  0  0  0  0  0
  161.3044  143.8549  127.9543 C   0  0  0  0  0  0  0  0  0  0  0  0
  162.0536  142.8066  127.1890 C   0  0  0  0  0  0  0  0  0  0  0  0
  160.1417  144.1920  127.4868 C   0  0  0  0  0  0  0  0  0  0  0  0
  1  2  1  1
  2  3  1  0
  3  4  1  0
  4  5  1  0
  5  6  1  1
  6  7  1  0
  5  8  1  0
  8  9  1  0
  9 10  1  0
 10 11  1  6
 10 12  1  0
 12 13  1  6
 13 14  1  0
 15 14  1  1
 15 16  1  0
 16 17  1  1
 16 18  1  0
 18 19  1  0
 19 20  1  0
 20 21  1  1
 20 22  1  0
 22 23  1  0
 22 24  1  0
 22 25  1  0
 25 26  1  1
 26 27  1  0
 27 28  1  0
 28 29  1  1
  2 30  1  6
 30 31  1  0
 30 32  2  0
  5  1  1  0
 28 10  1  0
 12  1  1  0
 28 15  1  0
 25 16  1  0
M  END
$$$$
