
     RDKit          3D

 32 36  0  0  0  0  0  0  0  0999 V2000
  182.2013  161.2771  134.7148 C   0  0  1  0  0  0  0  0  0  0  0  0
  181.7839  162.3289  133.7743 C   0  0  1  0  0  0  0  0  0  0  0  0
  181.5487  161.5923  132.4750 C   0  0  0  0  0  0  0  0  0  0  0  0
  181.4137  160.1208  132.8834 C   0  0  0  0  0  0  0  0  0  0  0  0
  182.5280  160.0646  133.8868 C   0  0  1  0  0  0  0  0  0  0  0  0
  183.8127  160.0273  133.1674 C   0  0  0  0  0  0  0  0  0  0  0  0
  184.1841  158.6470  133.0713 O   0  0  0  0  0  0  0  0  0  0  0  0
  182.3895  158.9093  134.8761 C   0  0  0  0  0  0  0  0  0  0  0  0
  183.4292  159.1025  135.9456 C   0  0  0  0  0  0  0  0  0  0  0  0
  183.3219  160.4075  136.6942 C   0  0  2  0  0  0  0  0  0  0  0  0
  182.1148  160.2783  137.5706 C   0  0  0  0  0  0  0  0  0  0  0  0
  183.2916  161.5129  135.6801 C   0  0  2  0  0  0  0  0  0  0  0  0
  183.3959  162.8779  136.2698 C   0  0  0  0  0  0  0  0  0  0  0  0
  184.8002  162.8813  136.9277 C   0  0  0  0  0  0  0  0  0  0  0  0
  184.6110  161.9523  138.1078 C   0  0  2  0  0  0  0  0  0  0  0  0
  185.5985  162.2308  139.2070 C   0  0  1  0  0  0  0  0  0  0  0  0
  186.9722  162.4554  138.7252 C   0  0  0  0  0  0  0  0  0  0  0  0
  185.1344  163.5455  139.8660 C   0  0  0  0  0  0  0  0  0  0  0  0
  185.9751  163.9362  141.0146 C   0  0  0  0  0  0  0  0  0  0  0  0
  186.6389  162.8496  141.7837 C   0  0  2  0  0  0  0  0  0  0  0  0
  188.0515  162.9358  141.6892 O   0  0  0  0  0  0  0  0  0  0  0  0
  186.1238  161.4756  141.5712 C   0  0  0  0  0  0  0  0  0  0  0  0
  187.2956  160.5011  141.7877 C   0  0  0  0  0  0  0  0  0  0  0  0
  185.1815  161.1037  142.7395 C   0  0  0  0  0  0  0  0  0  0  0  0
  185.4021  161.2237  140.3057 C   0  0  2  0  0  0  0  0  0  0  0  0
  185.5236  159.8154  139.7683 C   0  0  0  0  0  0  0  0  0  0  0  0
  184.3219  159.6247  138.8335 C   0  0  0  0  0  0  0  0  0  0  0  0
  184.5257  160.5502  137.6275 C   0  0  1  0  0  0  0  0  0  0  0  0
  185.7221  160.0439  136.9103 C   0  0  0  0  0  0  0  0  0  0  0  0
  180.4701  162.8809  134.2361 C   0  0  0  0  0  0  0  0  0  0  0  0
  180.1553  164.3414  134.1190 C   0  0  0  0  0  0  0  0  0  0  0  0
  179.5419  162.1279  134.7413 C   0  0  0  0  0  0  0  0  0  0  0  0
  1  2  1  6
  2  3  1  0
  3  4  1  0
  4  5  1  0
  5  6  1  6
  6  7  1  0
  5  8  1  0
  8  9  1  0
  9 10  1  0
 10 11  1  1
 10 12  1  0
 12 13  1  1
 13 14  1  0
 15 14  1  6
 15 16  1  0
 16 17  1  6
 16 18  1  0
 18 19  1  0
 19 20  1  0
 20 21  1  6
 20 22  1  0
 22 23  1  0
 22 24  1  0
 22 25  1  0
 25 26  1  6
 26 27  1  0
 27 28  1  0
 28 29  1  6
  2 30  1  1
 30 31  1  0
 30 32  2  0
  5  1  1  0
 28 10  1  0
 12  1  1  0
 28 15  1  0
 25 16  1  0
M  END
$$$$
