
     RDKit          3D

 32 36  0  0  0  0  0  0  0  0999 V2000
  148.4290  165.6955  128.3493 C   0  0  1  0  0  0  0  0  0  0  0  0
  149.6975  165.6580  127.6046 C   0  0  1  0  0  0  0  0  0  0  0  0
  149.6021  164.3986  126.7733 C   0  0  0  0  0  0  0  0  0  0  0  0
  148.1086  164.0524  126.7654 C   0  0  0  0  0  0  0  0  0  0  0  0
  147.8069  164.3334  128.2082 C   0  0  1  0  0  0  0  0  0  0  0  0
  148.3347  163.2288  129.0271 C   0  0  0  0  0  0  0  0  0  0  0  0
  149.7587  163.3837  129.0481 O   0  0  0  0  0  0  0  0  0  0  0  0
  146.3248  164.5890  128.4744 C   0  0  0  0  0  0  0  0  0  0  0  0
  146.1969  165.0731  129.8926 C   0  0  0  0  0  0  0  0  0  0  0  0
  146.9758  166.3282  130.1981 C   0  0  2  0  0  0  0  0  0  0  0  0
  146.2455  167.4402  129.5111 C   0  0  0  0  0  0  0  0  0  0  0  0
  148.3949  166.0993  129.7678 C   0  0  2  0  0  0  0  0  0  0  0  0
  149.3367  167.1735  130.1931 C   0  0  0  0  0  0  0  0  0  0  0  0
  149.2964  167.0975  131.7415 C   0  0  0  0  0  0  0  0  0  0  0  0
  147.9159  167.6310  132.0596 C   0  0  2  0  0  0  0  0  0  0  0  0
  147.8394  168.2011  133.4489 C   0  0  1  0  0  0  0  0  0  0  0  0
  148.5040  167.3696  134.4670 C   0  0  0  0  0  0  0  0  0  0  0  0
  148.6025  169.5401  133.3964 C   0  0  0  0  0  0  0  0  0  0  0  0
  148.5748  170.2639  134.6825 C   0  0  0  0  0  0  0  0  0  0  0  0
  147.3987  170.0504  135.5680 C   0  0  2  0  0  0  0  0  0  0  0  0
  147.7737  169.4331  136.7886 O   0  0  0  0  0  0  0  0  0  0  0  0
  146.2030  169.4324  134.9460 C   0  0  0  0  0  0  0  0  0  0  0  0
  145.4679  168.6378  136.0406 C   0  0  0  0  0  0  0  0  0  0  0  0
  145.1767  170.5406  134.6148 C   0  0  0  0  0  0  0  0  0  0  0  0
  146.4265  168.6369  133.7200 C   0  0  2  0  0  0  0  0  0  0  0  0
  145.4642  167.4881  133.5174 C   0  0  0  0  0  0  0  0  0  0  0  0
  145.5037  167.1759  132.0157 C   0  0  0  0  0  0  0  0  0  0  0  0
  146.8955  166.6149  131.6988 C   0  0  1  0  0  0  0  0  0  0  0  0
  146.9972  165.3204  132.4171 C   0  0  0  0  0  0  0  0  0  0  0  0
  149.7303  166.8273  126.6688 C   0  0  0  0  0  0  0  0  0  0  0  0
  150.9719  167.6475  126.4914 C   0  0  0  0  0  0  0  0  0  0  0  0
  148.7006  167.1759  125.9601 C   0  0  0  0  0  0  0  0  0  0  0  0
  1  2  1  1
  2  3  1  0
  3  4  1  0
  4  5  1  0
  5  6  1  1
  6  7  1  0
  5  8  1  0
  8  9  1  0
  9 10  1  0
 10 11  1  6
 10 12  1  0
 12 13  1  6
 13 14  1  0
 15 14  1  1
 15 16  1  0
 16 17  1  1
 16 18  1  0
 18 19  1  0
 19 20  1  0
 20 21  1  1
 20 22  1  0
 22 23  1  0
 22 24  1  0
 22 25  1  0
 25 26  1  1
 26 27  1  0
 27 28  1  0
 28 29  1  1
  2 30  1  6
 30 31  1  0
 30 32  2  0
  5  1  1  0
 28 10  1  0
 12  1  1  0
 28 15  1  0
 25 16  1  0
M  END
$$$$
