
     RDKit          3D

 32 36  0  0  0  0  0  0  0  0999 V2000
  147.1308  169.0486  134.2971 C   0  0  1  0  0  0  0  0  0  0  0  0
  147.9912  170.0055  135.0105 C   0  0  1  0  0  0  0  0  0  0  0  0
  147.0217  170.8725  135.7817 C   0  0  0  0  0  0  0  0  0  0  0  0
  145.7176  170.0669  135.8062 C   0  0  0  0  0  0  0  0  0  0  0  0
  145.7276  169.5829  134.3859 C   0  0  1  0  0  0  0  0  0  0  0  0
  145.3396  170.6959  133.5027 C   0  0  0  0  0  0  0  0  0  0  0  0
  146.0632  171.8458  133.9571 O   0  0  0  0  0  0  0  0  0  0  0  0
  144.8601  168.3452  134.1657 C   0  0  0  0  0  0  0  0  0  0  0  0
  145.1361  167.8410  132.7758 C   0  0  0  0  0  0  0  0  0  0  0  0
  146.5782  167.4846  132.5143 C   0  0  2  0  0  0  0  0  0  0  0  0
  146.8301  166.2172  133.2707 C   0  0  0  0  0  0  0  0  0  0  0  0
  147.4167  168.6673  132.9010 C   0  0  2  0  0  0  0  0  0  0  0  0
  148.8494  168.5477  132.5074 C   0  0  0  0  0  0  0  0  0  0  0  0
  148.7956  168.4954  130.9584 C   0  0  0  0  0  0  0  0  0  0  0  0
  148.1969  167.1298  130.6976 C   0  0  2  0  0  0  0  0  0  0  0  0
  148.5694  166.6022  129.3397 C   0  0  1  0  0  0  0  0  0  0  0  0
  148.4745  167.6080  128.2678 C   0  0  0  0  0  0  0  0  0  0  0  0
  150.0529  166.1932  129.4400 C   0  0  0  0  0  0  0  0  0  0  0  0
  150.5662  165.5962  128.1915 C   0  0  0  0  0  0  0  0  0  0  0  0
  149.5972  164.8752  127.3233 C   0  0  2  0  0  0  0  0  0  0  0  0
  149.4511  165.5152  126.0660 O   0  0  0  0  0  0  0  0  0  0  0  0
  148.3018  164.5027  127.9411 C   0  0  0  0  0  0  0  0  0  0  0  0
  147.2406  164.4932  126.8261 C   0  0  0  0  0  0  0  0  0  0  0  0
  148.3473  163.0117  128.3487 C   0  0  0  0  0  0  0  0  0  0  0  0
  147.8780  165.2852  129.1218 C   0  0  2  0  0  0  0  0  0  0  0  0
  146.3824  165.4320  129.2899 C   0  0  0  0  0  0  0  0  0  0  0  0
  146.1632  165.7564  130.7735 C   0  0  0  0  0  0  0  0  0  0  0  0
  146.7506  167.1496  131.0315 C   0  0  1  0  0  0  0  0  0  0  0  0
  145.9246  168.1023  130.2491 C   0  0  0  0  0  0  0  0  0  0  0  0
  148.8206  169.2471  136.0011 C   0  0  0  0  0  0  0  0  0  0  0  0
  148.2908  168.9068  137.3610 C   0  0  0  0  0  0  0  0  0  0  0  0
  150.0214  168.8373  135.7289 C   0  0  0  0  0  0  0  0  0  0  0  0
  1  2  1  6
  2  3  1  0
  3  4  1  0
  4  5  1  0
  5  6  1  6
  6  7  1  0
  5  8  1  0
  8  9  1  0
  9 10  1  0
 10 11  1  1
 10 12  1  0
 12 13  1  1
 13 14  1  0
 15 14  1  6
 15 16  1  0
 16 17  1  6
 16 18  1  0
 18 19  1  0
 19 20  1  0
 20 21  1  6
 20 22  1  0
 22 23  1  0
 22 24  1  0
 22 25  1  0
 25 26  1  6
 26 27  1  0
 27 28  1  0
 28 29  1  6
  2 30  1  1
 30 31  1  0
 30 32  2  0
  5  1  1  0
 28 10  1  0
 12  1  1  0
 28 15  1  0
 25 16  1  0
M  END
$$$$
