
     RDKit          3D

 32 36  0  0  0  0  0  0  0  0999 V2000
  106.5036  167.8104  154.7429 C   0  0  1  0  0  0  0  0  0  0  0  0
  106.7581  169.1593  154.2131 C   0  0  1  0  0  0  0  0  0  0  0  0
  107.4187  168.9136  152.8754 C   0  0  0  0  0  0  0  0  0  0  0  0
  107.0854  167.4550  152.5414 C   0  0  0  0  0  0  0  0  0  0  0  0
  107.3076  166.8586  153.9003 C   0  0  1  0  0  0  0  0  0  0  0  0
  108.7569  166.7548  154.1416 C   0  0  0  0  0  0  0  0  0  0  0  0
  109.2896  165.9581  153.0768 O   0  0  0  0  0  0  0  0  0  0  0  0
  106.5954  165.5215  154.0945 C   0  0  0  0  0  0  0  0  0  0  0  0
  106.7128  165.1535  155.5481 C   0  0  0  0  0  0  0  0  0  0  0  0
  106.1266  166.1665  156.4995 C   0  0  2  0  0  0  0  0  0  0  0  0
  104.6408  166.0517  156.3547 C   0  0  0  0  0  0  0  0  0  0  0  0
  106.7254  167.5018  156.1683 C   0  0  2  0  0  0  0  0  0  0  0  0
  106.4022  168.5712  157.1550 C   0  0  0  0  0  0  0  0  0  0  0  0
  107.0667  168.0690  158.4632 C   0  0  0  0  0  0  0  0  0  0  0  0
  106.1893  166.8965  158.8467 C   0  0  2  0  0  0  0  0  0  0  0  0
  106.2457  166.6104  160.3218 C   0  0  1  0  0  0  0  0  0  0  0  0
  107.6070  166.6596  160.8822 C   0  0  0  0  0  0  0  0  0  0  0  0
  105.4412  167.7377  160.9999 C   0  0  0  0  0  0  0  0  0  0  0  0
  105.3506  167.5735  162.4639 C   0  0  0  0  0  0  0  0  0  0  0  0
  105.3960  166.1890  163.0060 C   0  0  2  0  0  0  0  0  0  0  0  0
  106.5437  165.9857  163.8142 O   0  0  0  0  0  0  0  0  0  0  0  0
  105.1624  165.0895  162.0390 C   0  0  0  0  0  0  0  0  0  0  0  0
  105.9487  163.8615  162.5326 C   0  0  0  0  0  0  0  0  0  0  0  0
  103.7002  164.6040  162.1705 C   0  0  0  0  0  0  0  0  0  0  0  0
  105.4162  165.3912  160.6141 C   0  0  2  0  0  0  0  0  0  0  0  0
  105.8812  164.2162  159.7834 C   0  0  0  0  0  0  0  0  0  0  0  0
  105.5531  164.5822  158.3299 C   0  0  0  0  0  0  0  0  0  0  0  0
  106.4582  165.7559  157.9355 C   0  0  1  0  0  0  0  0  0  0  0  0
  107.8478  165.2354  157.9522 C   0  0  0  0  0  0  0  0  0  0  0  0
  105.4395  169.8242  153.9614 C   0  0  0  0  0  0  0  0  0  0  0  0
  104.4007  169.1872  153.0891 C   0  0  0  0  0  0  0  0  0  0  0  0
  105.1273  170.9660  154.4930 C   0  0  0  0  0  0  0  0  0  0  0  0
  1  2  1  1
  2  3  1  0
  3  4  1  0
  4  5  1  0
  5  6  1  1
  6  7  1  0
  5  8  1  0
  8  9  1  0
  9 10  1  0
 10 11  1  1
 10 12  1  0
 12 13  1  1
 13 14  1  0
 15 14  1  1
 15 16  1  0
 16 17  1  1
 16 18  1  0
 18 19  1  0
 19 20  1  0
 20 21  1  6
 20 22  1  0
 22 23  1  0
 22 24  1  0
 22 25  1  0
 25 26  1  1
 26 27  1  0
 27 28  1  0
 28 29  1  6
  2 30  1  6
 30 31  1  0
 30 32  2  0
  5  1  1  0
 28 10  1  0
 12  1  1  0
 28 15  1  0
 25 16  1  0
M  END
$$$$
