
     RDKit          3D

 32 36  0  0  0  0  0  0  0  0999 V2000
  147.4884  168.0258  133.4287 C   0  0  1  0  0  0  0  0  0  0  0  0
  148.3476  168.4206  134.5561 C   0  0  1  0  0  0  0  0  0  0  0  0
  147.4316  169.2143  135.4600 C   0  0  0  0  0  0  0  0  0  0  0  0
  146.0170  168.8339  135.0077 C   0  0  0  0  0  0  0  0  0  0  0  0
  146.2420  168.8622  133.5244 C   0  0  1  0  0  0  0  0  0  0  0  0
  146.2984  170.2652  133.0797 C   0  0  0  0  0  0  0  0  0  0  0  0
  145.0918  170.8855  133.5395 O   0  0  0  0  0  0  0  0  0  0  0  0
  145.2087  168.0529  132.7433 C   0  0  0  0  0  0  0  0  0  0  0  0
  145.6762  167.9801  131.3157 C   0  0  0  0  0  0  0  0  0  0  0  0
  147.0348  167.3509  131.1333 C   0  0  2  0  0  0  0  0  0  0  0  0
  146.8450  165.8873  131.3857 C   0  0  0  0  0  0  0  0  0  0  0  0
  147.9922  168.0635  132.0427 C   0  0  2  0  0  0  0  0  0  0  0  0
  149.4201  167.6943  131.8266 C   0  0  0  0  0  0  0  0  0  0  0  0
  149.7021  168.1726  130.3786 C   0  0  0  0  0  0  0  0  0  0  0  0
  148.9074  167.1877  129.5481 C   0  0  2  0  0  0  0  0  0  0  0  0
  149.4549  167.0570  128.1537 C   0  0  1  0  0  0  0  0  0  0  0  0
  149.8104  168.3454  127.5346 C   0  0  0  0  0  0  0  0  0  0  0  0
  150.7617  166.2495  128.2892 C   0  0  0  0  0  0  0  0  0  0  0  0
  151.4049  165.9817  126.9879 C   0  0  0  0  0  0  0  0  0  0  0  0
  150.5253  165.8807  125.7925 C   0  0  2  0  0  0  0  0  0  0  0  0
  150.7977  166.9136  124.8595 O   0  0  0  0  0  0  0  0  0  0  0  0
  149.0768  165.6937  126.0481 C   0  0  0  0  0  0  0  0  0  0  0  0
  148.3113  166.3424  124.8806 C   0  0  0  0  0  0  0  0  0  0  0  0
  148.7216  164.1994  125.8692 C   0  0  0  0  0  0  0  0  0  0  0  0
  148.5724  166.1272  127.3685 C   0  0  2  0  0  0  0  0  0  0  0  0
  147.1403  166.6125  127.3794 C   0  0  0  0  0  0  0  0  0  0  0  0
  146.6689  166.4763  128.8332 C   0  0  0  0  0  0  0  0  0  0  0  0
  147.4591  167.4900  129.6700 C   0  0  1  0  0  0  0  0  0  0  0  0
  147.0426  168.8344  129.1997 C   0  0  0  0  0  0  0  0  0  0  0  0
  148.7612  167.1822  135.2907 C   0  0  0  0  0  0  0  0  0  0  0  0
  150.0712  167.1079  136.0147 C   0  0  0  0  0  0  0  0  0  0  0  0
  148.0070  166.1279  135.3497 C   0  0  0  0  0  0  0  0  0  0  0  0
  1  2  1  1
  2  3  1  0
  3  4  1  0
  4  5  1  0
  5  6  1  6
  6  7  1  0
  5  8  1  0
  8  9  1  0
  9 10  1  0
 10 11  1  1
 10 12  1  0
 12 13  1  1
 13 14  1  0
 15 14  1  6
 15 16  1  0
 16 17  1  6
 16 18  1  0
 18 19  1  0
 19 20  1  0
 20 21  1  1
 20 22  1  0
 22 23  1  0
 22 24  1  0
 22 25  1  0
 25 26  1  6
 26 27  1  0
 27 28  1  0
 28 29  1  6
  2 30  1  1
 30 31  1  0
 30 32  2  0
  5  1  1  0
 28 10  1  0
 12  1  1  0
 28 15  1  0
 25 16  1  0
M  END
$$$$
