
     RDKit          3D

 32 36  0  0  0  0  0  0  0  0999 V2000
  147.3241  168.4524  134.1832 C   0  0  1  0  0  0  0  0  0  0  0  0
  148.2786  168.9454  135.1886 C   0  0  1  0  0  0  0  0  0  0  0  0
  147.4725  169.9179  136.0196 C   0  0  0  0  0  0  0  0  0  0  0  0
  146.0112  169.5715  135.7113 C   0  0  0  0  0  0  0  0  0  0  0  0
  146.1366  169.3743  134.2291 C   0  0  1  0  0  0  0  0  0  0  0  0
  146.2425  170.6934  133.5823 C   0  0  0  0  0  0  0  0  0  0  0  0
  145.0971  171.4445  134.0023 O   0  0  0  0  0  0  0  0  0  0  0  0
  145.0085  168.5325  133.6363 C   0  0  0  0  0  0  0  0  0  0  0  0
  145.3734  168.2276  132.2095 C   0  0  0  0  0  0  0  0  0  0  0  0
  146.6786  167.4905  132.0412 C   0  0  2  0  0  0  0  0  0  0  0  0
  146.4234  166.0932  132.5147 C   0  0  0  0  0  0  0  0  0  0  0  0
  147.7343  168.2600  132.7793 C   0  0  2  0  0  0  0  0  0  0  0  0
  149.1210  167.7705  132.5358 C   0  0  0  0  0  0  0  0  0  0  0  0
  149.3312  168.0191  131.0195 C   0  0  0  0  0  0  0  0  0  0  0  0
  148.4274  166.9810  130.3894 C   0  0  2  0  0  0  0  0  0  0  0  0
  148.8711  166.6183  128.9992 C   0  0  1  0  0  0  0  0  0  0  0  0
  149.2565  167.7796  128.1793 C   0  0  0  0  0  0  0  0  0  0  0  0
  150.1360  165.7537  129.1738 C   0  0  0  0  0  0  0  0  0  0  0  0
  150.6734  165.2623  127.8899 C   0  0  0  0  0  0  0  0  0  0  0  0
  149.7107  165.0512  126.7757 C   0  0  2  0  0  0  0  0  0  0  0  0
  149.9776  165.9212  125.6878 O   0  0  0  0  0  0  0  0  0  0  0  0
  148.2745  164.9984  127.1403 C   0  0  0  0  0  0  0  0  0  0  0  0
  147.4699  165.5242  125.9379 C   0  0  0  0  0  0  0  0  0  0  0  0
  147.8236  163.5205  127.2021 C   0  0  0  0  0  0  0  0  0  0  0  0
  147.8860  165.6469  128.4109 C   0  0  2  0  0  0  0  0  0  0  0  0
  146.4878  166.2224  128.4352 C   0  0  0  0  0  0  0  0  0  0  0  0
  146.1089  166.3249  129.9185 C   0  0  0  0  0  0  0  0  0  0  0  0
  147.0103  167.3926  130.5509 C   0  0  1  0  0  0  0  0  0  0  0  0
  146.6400  168.6813  129.9151 C   0  0  0  0  0  0  0  0  0  0  0  0
  148.6698  167.7991  136.0701 C   0  0  0  0  0  0  0  0  0  0  0  0
  149.9561  167.0594  135.8598 C   0  0  0  0  0  0  0  0  0  0  0  0
  147.9299  167.4028  137.0597 C   0  0  0  0  0  0  0  0  0  0  0  0
  1  2  1  1
  2  3  1  0
  3  4  1  0
  4  5  1  0
  5  6  1  6
  6  7  1  0
  5  8  1  0
  8  9  1  0
  9 10  1  0
 10 11  1  1
 10 12  1  0
 12 13  1  1
 13 14  1  0
 15 14  1  6
 15 16  1  0
 16 17  1  6
 16 18  1  0
 18 19  1  0
 19 20  1  0
 20 21  1  6
 20 22  1  0
 22 23  1  0
 22 24  1  0
 22 25  1  0
 25 26  1  6
 26 27  1  0
 27 28  1  0
 28 29  1  6
  2 30  1  1
 30 31  1  0
 30 32  2  0
  5  1  1  0
 28 10  1  0
 12  1  1  0
 28 15  1  0
 25 16  1  0
M  END
$$$$
