
     RDKit          3D

 32 36  0  0  0  0  0  0  0  0999 V2000
  134.2916  137.4936  134.4315 C   0  0  1  0  0  0  0  0  0  0  0  0
  134.4605  137.3458  135.8857 C   0  0  1  0  0  0  0  0  0  0  0  0
  135.9582  137.3811  136.0904 C   0  0  0  0  0  0  0  0  0  0  0  0
  136.5108  137.9949  134.7989 C   0  0  0  0  0  0  0  0  0  0  0  0
  135.6445  137.2637  133.8158 C   0  0  1  0  0  0  0  0  0  0  0  0
  136.1352  135.8809  133.6878 C   0  0  0  0  0  0  0  0  0  0  0  0
  136.4542  135.6899  132.3043 O   0  0  0  0  0  0  0  0  0  0  0  0
  135.5446  137.9656  132.4630 C   0  0  0  0  0  0  0  0  0  0  0  0
  134.4843  137.2590  131.6640 C   0  0  0  0  0  0  0  0  0  0  0  0
  133.1218  137.2399  132.3109 C   0  0  2  0  0  0  0  0  0  0  0  0
  132.5968  138.6378  132.2001 C   0  0  0  0  0  0  0  0  0  0  0  0
  133.2855  136.6997  133.7011 C   0  0  2  0  0  0  0  0  0  0  0  0
  131.9972  136.4247  134.3987 C   0  0  0  0  0  0  0  0  0  0  0  0
  131.3485  135.3121  133.5349 C   0  0  0  0  0  0  0  0  0  0  0  0
  130.9661  136.0578  132.2742 C   0  0  2  0  0  0  0  0  0  0  0  0
  129.8359  135.3861  131.5443 C   0  0  1  0  0  0  0  0  0  0  0  0
  129.9738  133.9221  131.4593 C   0  0  0  0  0  0  0  0  0  0  0  0
  128.5699  135.6691  132.3780 C   0  0  0  0  0  0  0  0  0  0  0  0
  127.3463  135.1189  131.7626 C   0  0  0  0  0  0  0  0  0  0  0  0
  127.3146  134.9989  130.2803 C   0  0  2  0  0  0  0  0  0  0  0  0
  127.2201  133.6440  129.8715 O   0  0  0  0  0  0  0  0  0  0  0  0
  128.3401  135.7633  129.5303 C   0  0  0  0  0  0  0  0  0  0  0  0
  128.6428  134.9883  128.2352 C   0  0  0  0  0  0  0  0  0  0  0  0
  127.7019  137.0607  128.9821 C   0  0  0  0  0  0  0  0  0  0  0  0
  129.5656  136.1351  130.2692 C   0  0  2  0  0  0  0  0  0  0  0  0
  130.8183  136.2272  129.4271 C   0  0  0  0  0  0  0  0  0  0  0  0
  131.7827  137.1212  130.2175 C   0  0  0  0  0  0  0  0  0  0  0  0
  132.1867  136.3557  131.4837 C   0  0  1  0  0  0  0  0  0  0  0  0
  132.9602  135.1740  131.0280 C   0  0  0  0  0  0  0  0  0  0  0  0
  133.8749  138.5519  136.5540 C   0  0  0  0  0  0  0  0  0  0  0  0
  134.3833  139.9300  136.2567 C   0  0  0  0  0  0  0  0  0  0  0  0
  132.8977  138.4666  137.4034 C   0  0  0  0  0  0  0  0  0  0  0  0
  1  2  1  1
  2  3  1  0
  3  4  1  0
  4  5  1  0
  5  6  1  6
  6  7  1  0
  5  8  1  0
  8  9  1  0
  9 10  1  0
 10 11  1  1
 10 12  1  0
 12 13  1  1
 13 14  1  0
 15 14  1  1
 15 16  1  0
 16 17  1  6
 16 18  1  0
 18 19  1  0
 19 20  1  0
 20 21  1  1
 20 22  1  0
 22 23  1  0
 22 24  1  0
 22 25  1  0
 25 26  1  6
 26 27  1  0
 27 28  1  0
 28 29  1  6
  2 30  1  1
 30 31  1  0
 30 32  2  0
  5  1  1  0
 28 10  1  0
 12  1  1  0
 28 15  1  0
 25 16  1  0
M  END
$$$$
