
     RDKit          3D

 32 36  0  0  0  0  0  0  0  0999 V2000
  131.7614  139.5550  133.6098 C   0  0  1  0  0  0  0  0  0  0  0  0
  132.9516  140.0525  134.3176 C   0  0  1  0  0  0  0  0  0  0  0  0
  132.4016  141.0502  135.3117 C   0  0  0  0  0  0  0  0  0  0  0  0
  130.9080  140.7182  135.4070 C   0  0  0  0  0  0  0  0  0  0  0  0
  130.6359  140.4935  133.9485 C   0  0  1  0  0  0  0  0  0  0  0  0
  130.5784  141.7995  133.2699 C   0  0  0  0  0  0  0  0  0  0  0  0
  129.1897  142.1112  133.1067 O   0  0  0  0  0  0  0  0  0  0  0  0
  129.3843  139.6567  133.6916 C   0  0  0  0  0  0  0  0  0  0  0  0
  129.3571  139.3219  132.2256 C   0  0  0  0  0  0  0  0  0  0  0  0
  130.5653  138.5646  131.7341 C   0  0  2  0  0  0  0  0  0  0  0  0
  130.4324  137.1793  132.2866 C   0  0  0  0  0  0  0  0  0  0  0  0
  131.7848  139.3325  132.1517 C   0  0  2  0  0  0  0  0  0  0  0  0
  133.0539  138.8203  131.5611 C   0  0  0  0  0  0  0  0  0  0  0  0
  132.8584  139.0394  130.0383 C   0  0  0  0  0  0  0  0  0  0  0  0
  131.8116  138.0028  129.6902 C   0  0  2  0  0  0  0  0  0  0  0  0
  131.8695  137.6098  128.2399 C   0  0  1  0  0  0  0  0  0  0  0  0
  132.0346  138.7514  127.3239 C   0  0  0  0  0  0  0  0  0  0  0  0
  133.1284  136.7315  128.0923 C   0  0  0  0  0  0  0  0  0  0  0  0
  133.3036  136.2105  126.7224 C   0  0  0  0  0  0  0  0  0  0  0  0
  132.0792  135.9930  125.9062 C   0  0  2  0  0  0  0  0  0  0  0  0
  132.0567  136.8402  124.7689 O   0  0  0  0  0  0  0  0  0  0  0  0
  130.7898  135.9659  126.6378 C   0  0  0  0  0  0  0  0  0  0  0  0
  129.7008  136.4814  125.6797 C   0  0  0  0  0  0  0  0  0  0  0  0
  130.3589  134.4955  126.8464 C   0  0  0  0  0  0  0  0  0  0  0  0
  130.7560  136.6417  127.9523 C   0  0  2  0  0  0  0  0  0  0  0  0
  129.4187  137.2363  128.3327 C   0  0  0  0  0  0  0  0  0  0  0  0
  129.4456  137.3698  129.8611 C   0  0  0  0  0  0  0  0  0  0  0  0
  130.4910  138.4361  130.2114 C   0  0  1  0  0  0  0  0  0  0  0  0
  129.9768  139.7184  129.6696 C   0  0  0  0  0  0  0  0  0  0  0  0
  133.5521  138.9166  135.0879 C   0  0  0  0  0  0  0  0  0  0  0  0
  133.8822  139.0519  136.5434 C   0  0  0  0  0  0  0  0  0  0  0  0
  133.7997  137.7651  134.5433 C   0  0  0  0  0  0  0  0  0  0  0  0
  1  2  1  6
  2  3  1  0
  3  4  1  0
  4  5  1  0
  5  6  1  6
  6  7  1  0
  5  8  1  0
  8  9  1  0
  9 10  1  0
 10 11  1  1
 10 12  1  0
 12 13  1  1
 13 14  1  0
 15 14  1  6
 15 16  1  0
 16 17  1  6
 16 18  1  0
 18 19  1  0
 19 20  1  0
 20 21  1  6
 20 22  1  0
 22 23  1  0
 22 24  1  0
 22 25  1  0
 25 26  1  6
 26 27  1  0
 27 28  1  0
 28 29  1  6
  2 30  1  1
 30 31  1  0
 30 32  2  0
  5  1  1  0
 28 10  1  0
 12  1  1  0
 28 15  1  0
 25 16  1  0
M  END
$$$$
