
     RDKit          3D

 32 36  0  0  0  0  0  0  0  0999 V2000
  147.0872  163.9269  132.2166 C   0  0  1  0  0  0  0  0  0  0  0  0
  146.3934  163.8112  133.5090 C   0  0  1  0  0  0  0  0  0  0  0  0
  146.1702  162.3254  133.6782 C   0  0  0  0  0  0  0  0  0  0  0  0
  147.1467  161.6728  132.6927 C   0  0  0  0  0  0  0  0  0  0  0  0
  146.9403  162.5973  131.5290 C   0  0  1  0  0  0  0  0  0  0  0  0
  145.6544  162.2733  130.8879 C   0  0  0  0  0  0  0  0  0  0  0  0
  145.7915  160.9535  130.3477 O   0  0  0  0  0  0  0  0  0  0  0  0
  148.0990  162.5804  130.5340 C   0  0  0  0  0  0  0  0  0  0  0  0
  147.8705  163.6988  129.5547 C   0  0  0  0  0  0  0  0  0  0  0  0
  147.7777  165.0685  130.1795 C   0  0  2  0  0  0  0  0  0  0  0  0
  149.1698  165.4192  130.6051 C   0  0  0  0  0  0  0  0  0  0  0  0
  146.7466  165.0036  131.2675 C   0  0  2  0  0  0  0  0  0  0  0  0
  146.3903  166.3316  131.8432 C   0  0  0  0  0  0  0  0  0  0  0  0
  145.7623  167.0888  130.6443 C   0  0  0  0  0  0  0  0  0  0  0  0
  146.9612  167.3492  129.7575 C   0  0  2  0  0  0  0  0  0  0  0  0
  146.7479  168.5343  128.8569 C   0  0  1  0  0  0  0  0  0  0  0  0
  145.4137  168.5712  128.2337 C   0  0  0  0  0  0  0  0  0  0  0  0
  146.8527  169.7765  129.7647 C   0  0  0  0  0  0  0  0  0  0  0  0
  146.7202  171.0425  129.0175 C   0  0  0  0  0  0  0  0  0  0  0  0
  147.1612  171.0535  127.5969 C   0  0  2  0  0  0  0  0  0  0  0  0
  146.0752  171.3004  126.7186 O   0  0  0  0  0  0  0  0  0  0  0  0
  148.0194  169.9262  127.1594 C   0  0  0  0  0  0  0  0  0  0  0  0
  147.7474  169.6884  125.6630 C   0  0  0  0  0  0  0  0  0  0  0  0
  149.4941  170.3911  127.1441 C   0  0  0  0  0  0  0  0  0  0  0  0
  147.9417  168.6827  127.9554 C   0  0  2  0  0  0  0  0  0  0  0  0
  148.1871  167.4086  127.1787 C   0  0  0  0  0  0  0  0  0  0  0  0
  148.6028  166.3626  128.2215 C   0  0  0  0  0  0  0  0  0  0  0  0
  147.3810  166.0834  129.1055 C   0  0  1  0  0  0  0  0  0  0  0  0
  146.3676  165.4469  128.2280 C   0  0  0  0  0  0  0  0  0  0  0  0
  147.3282  164.2633  134.5888 C   0  0  0  0  0  0  0  0  0  0  0  0
  146.8227  164.9683  135.8108 C   0  0  0  0  0  0  0  0  0  0  0  0
  148.6077  164.0557  134.5285 C   0  0  0  0  0  0  0  0  0  0  0  0
  1  2  1  1
  2  3  1  0
  3  4  1  0
  4  5  1  0
  5  6  1  6
  6  7  1  0
  5  8  1  0
  8  9  1  0
  9 10  1  0
 10 11  1  1
 10 12  1  0
 12 13  1  1
 13 14  1  0
 15 14  1  6
 15 16  1  0
 16 17  1  6
 16 18  1  0
 18 19  1  0
 19 20  1  0
 20 21  1  6
 20 22  1  0
 22 23  1  0
 22 24  1  0
 22 25  1  0
 25 26  1  6
 26 27  1  0
 27 28  1  0
 28 29  1  6
  2 30  1  1
 30 31  1  0
 30 32  2  0
  5  1  1  0
 28 10  1  0
 12  1  1  0
 28 15  1  0
 25 16  1  0
M  END
$$$$
