
     RDKit          3D

 32 36  0  0  0  0  0  0  0  0999 V2000
  183.1041  159.5758  137.0587 C   0  0  1  0  0  0  0  0  0  0  0  0
  181.9471  158.8297  137.5781 C   0  0  1  0  0  0  0  0  0  0  0  0
  180.9769  158.7962  136.4188 C   0  0  0  0  0  0  0  0  0  0  0  0
  181.8306  159.1309  135.1902 C   0  0  0  0  0  0  0  0  0  0  0  0
  182.6535  160.2359  135.7846 C   0  0  1  0  0  0  0  0  0  0  0  0
  181.8239  161.4496  135.8744 C   0  0  0  0  0  0  0  0  0  0  0  0
  180.9718  161.4449  134.7228 O   0  0  0  0  0  0  0  0  0  0  0  0
  183.9586  160.4863  135.0318 C   0  0  0  0  0  0  0  0  0  0  0  0
  184.7768  161.4456  135.8517 C   0  0  0  0  0  0  0  0  0  0  0  0
  185.0964  160.9636  137.2447 C   0  0  2  0  0  0  0  0  0  0  0  0
  186.1155  159.8793  137.0786 C   0  0  0  0  0  0  0  0  0  0  0  0
  183.8045  160.5673  137.8969 C   0  0  2  0  0  0  0  0  0  0  0  0
  183.9291  160.2637  139.3509 C   0  0  0  0  0  0  0  0  0  0  0  0
  184.3711  161.6168  139.9662 C   0  0  0  0  0  0  0  0  0  0  0  0
  185.7933  161.7547  139.4662 C   0  0  2  0  0  0  0  0  0  0  0  0
  186.6200  162.6390  140.3581 C   0  0  1  0  0  0  0  0  0  0  0  0
  185.9229  163.8635  140.7875 C   0  0  0  0  0  0  0  0  0  0  0  0
  186.8972  161.8121  141.6299 C   0  0  0  0  0  0  0  0  0  0  0  0
  187.7546  162.5236  142.5979 C   0  0  0  0  0  0  0  0  0  0  0  0
  188.7294  163.5101  142.0599 C   0  0  2  0  0  0  0  0  0  0  0  0
  188.4353  164.8248  142.5035 O   0  0  0  0  0  0  0  0  0  0  0  0
  189.0154  163.4360  140.6070 C   0  0  0  0  0  0  0  0  0  0  0  0
  189.3704  164.8560  140.1301 C   0  0  0  0  0  0  0  0  0  0  0  0
  190.3508  162.6862  140.3931 C   0  0  0  0  0  0  0  0  0  0  0  0
  187.9901  162.7918  139.7587 C   0  0  2  0  0  0  0  0  0  0  0  0
  187.8997  163.3250  138.3465 C   0  0  0  0  0  0  0  0  0  0  0  0
  187.2282  162.2145  137.5278 C   0  0  0  0  0  0  0  0  0  0  0  0
  185.7809  162.0908  138.0203 C   0  0  1  0  0  0  0  0  0  0  0  0
  185.1083  163.3645  137.6635 C   0  0  0  0  0  0  0  0  0  0  0  0
  182.3796  157.4232  137.8587 C   0  0  0  0  0  0  0  0  0  0  0  0
  182.3978  156.3845  136.7785 C   0  0  0  0  0  0  0  0  0  0  0  0
  182.7711  157.0410  139.0353 C   0  0  0  0  0  0  0  0  0  0  0  0
  1  2  1  1
  2  3  1  0
  3  4  1  0
  4  5  1  0
  5  6  1  1
  6  7  1  0
  5  8  1  0
  8  9  1  0
  9 10  1  0
 10 11  1  6
 10 12  1  0
 12 13  1  1
 13 14  1  0
 15 14  1  1
 15 16  1  0
 16 17  1  1
 16 18  1  0
 18 19  1  0
 19 20  1  0
 20 21  1  6
 20 22  1  0
 22 23  1  0
 22 24  1  0
 22 25  1  0
 25 26  1  6
 26 27  1  0
 27 28  1  0
 28 29  1  1
  2 30  1  6
 30 31  1  0
 30 32  2  0
  5  1  1  0
 28 10  1  0
 12  1  1  0
 28 15  1  0
 25 16  1  0
M  END
$$$$
