
     RDKit          3D

 32 36  0  0  0  0  0  0  0  0999 V2000
  198.4775  130.5267  148.1579 C   0  0  1  0  0  0  0  0  0  0  0  0
  197.9136  129.3030  147.5666 C   0  0  1  0  0  0  0  0  0  0  0  0
  198.0796  129.5007  146.0768 C   0  0  0  0  0  0  0  0  0  0  0  0
  199.1271  130.6127  145.9484 C   0  0  0  0  0  0  0  0  0  0  0  0
  198.6265  131.5173  147.0359 C   0  0  1  0  0  0  0  0  0  0  0  0
  197.4263  132.2212  146.5526 C   0  0  0  0  0  0  0  0  0  0  0  0
  197.7770  132.8021  145.2909 O   0  0  0  0  0  0  0  0  0  0  0  0
  199.6906  132.4836  147.5524 C   0  0  0  0  0  0  0  0  0  0  0  0
  199.1313  133.1622  148.7725 C   0  0  0  0  0  0  0  0  0  0  0  0
  198.7368  132.2235  149.8852 C   0  0  2  0  0  0  0  0  0  0  0  0
  200.0200  131.7219  150.4715 C   0  0  0  0  0  0  0  0  0  0  0  0
  197.8220  131.1865  149.3030 C   0  0  2  0  0  0  0  0  0  0  0  0
  197.1803  130.3061  150.3204 C   0  0  0  0  0  0  0  0  0  0  0  0
  196.3121  131.2866  151.1509 C   0  0  0  0  0  0  0  0  0  0  0  0
  197.3522  132.0804  151.9122 C   0  0  2  0  0  0  0  0  0  0  0  0
  196.7956  132.6664  153.1802 C   0  0  1  0  0  0  0  0  0  0  0  0
  195.4596  133.2652  153.0186 C   0  0  0  0  0  0  0  0  0  0  0  0
  196.6410  131.4836  154.1575 C   0  0  0  0  0  0  0  0  0  0  0  0
  196.1515  131.9009  155.4860 C   0  0  0  0  0  0  0  0  0  0  0  0
  196.4895  133.2751  155.9443 C   0  0  2  0  0  0  0  0  0  0  0  0
  195.3254  134.0698  156.1034 O   0  0  0  0  0  0  0  0  0  0  0  0
  197.5743  133.9713  155.2115 C   0  0  0  0  0  0  0  0  0  0  0  0
  197.2809  135.4813  155.2713 C   0  0  0  0  0  0  0  0  0  0  0  0
  198.8823  133.8694  156.0300 C   0  0  0  0  0  0  0  0  0  0  0  0
  197.8579  133.5018  153.8386 C   0  0  2  0  0  0  0  0  0  0  0  0
  198.3669  134.5643  152.8906 C   0  0  0  0  0  0  0  0  0  0  0  0
  199.0929  133.8061  151.7715 C   0  0  0  0  0  0  0  0  0  0  0  0
  198.0351  133.0195  150.9874 C   0  0  1  0  0  0  0  0  0  0  0  0
  197.1622  134.0280  150.3370 C   0  0  0  0  0  0  0  0  0  0  0  0
  198.7689  128.1433  147.9763 C   0  0  0  0  0  0  0  0  0  0  0  0
  199.6018  127.3994  146.9770 C   0  0  0  0  0  0  0  0  0  0  0  0
  198.8430  127.7385  149.2069 C   0  0  0  0  0  0  0  0  0  0  0  0
  1  2  1  6
  2  3  1  0
  3  4  1  0
  4  5  1  0
  5  6  1  6
  6  7  1  0
  5  8  1  0
  8  9  1  0
  9 10  1  0
 10 11  1  1
 10 12  1  0
 12 13  1  1
 13 14  1  0
 15 14  1  6
 15 16  1  0
 16 17  1  6
 16 18  1  0
 18 19  1  0
 19 20  1  0
 20 21  1  6
 20 22  1  0
 22 23  1  0
 22 24  1  0
 22 25  1  0
 25 26  1  6
 26 27  1  0
 27 28  1  0
 28 29  1  6
  2 30  1  1
 30 31  1  0
 30 32  2  0
  5  1  1  0
 28 10  1  0
 12  1  1  0
 28 15  1  0
 25 16  1  0
M  END
$$$$
