
     RDKit          3D

 32 36  0  0  0  0  0  0  0  0999 V2000
  132.7754  179.8094  146.6081 C   0  0  1  0  0  0  0  0  0  0  0  0
  132.2816  178.7671  145.6944 C   0  0  1  0  0  0  0  0  0  0  0  0
  133.1642  178.8961  144.4735 C   0  0  0  0  0  0  0  0  0  0  0  0
  134.3795  179.6956  144.9574 C   0  0  0  0  0  0  0  0  0  0  0  0
  133.6591  180.7129  145.7927 C   0  0  1  0  0  0  0  0  0  0  0  0
  133.0269  181.6986  144.8993 C   0  0  0  0  0  0  0  0  0  0  0  0
  133.9855  181.9922  143.8759 O   0  0  0  0  0  0  0  0  0  0  0  0
  134.5536  181.3755  146.8384 C   0  0  0  0  0  0  0  0  0  0  0  0
  133.6680  182.1915  147.7395 C   0  0  0  0  0  0  0  0  0  0  0  0
  132.5915  181.4017  148.4413 C   0  0  2  0  0  0  0  0  0  0  0  0
  133.2941  180.5910  149.4858 C   0  0  0  0  0  0  0  0  0  0  0  0
  131.8383  180.6312  147.3971 C   0  0  2  0  0  0  0  0  0  0  0  0
  130.6092  179.9610  147.9091 C   0  0  0  0  0  0  0  0  0  0  0  0
  129.7129  181.1439  148.3589 C   0  0  0  0  0  0  0  0  0  0  0  0
  130.4322  181.6493  149.5913 C   0  0  2  0  0  0  0  0  0  0  0  0
  129.5048  182.3758  150.5257 C   0  0  1  0  0  0  0  0  0  0  0  0
  128.5821  183.2995  149.8437 C   0  0  0  0  0  0  0  0  0  0  0  0
  128.6385  181.2863  151.1894 C   0  0  0  0  0  0  0  0  0  0  0  0
  127.7002  181.8333  152.1890 C   0  0  0  0  0  0  0  0  0  0  0  0
  128.0988  183.0779  152.8995 C   0  0  2  0  0  0  0  0  0  0  0  0
  127.2195  184.1500  152.6007 O   0  0  0  0  0  0  0  0  0  0  0  0
  129.5296  183.4586  152.8196 C   0  0  0  0  0  0  0  0  0  0  0  0
  129.6077  184.9936  152.9065 C   0  0  0  0  0  0  0  0  0  0  0  0
  130.2394  183.0303  154.1250 C   0  0  0  0  0  0  0  0  0  0  0  0
  130.3007  182.9143  151.6817 C   0  0  2  0  0  0  0  0  0  0  0  0
  131.4272  183.7958  151.1910 C   0  0  0  0  0  0  0  0  0  0  0  0
  132.3891  182.8608  150.4462 C   0  0  0  0  0  0  0  0  0  0  0  0
  131.6672  182.3667  149.1864 C   0  0  1  0  0  0  0  0  0  0  0  0
  131.4638  183.5593  148.3270 C   0  0  0  0  0  0  0  0  0  0  0  0
  132.5464  177.4301  146.3160 C   0  0  0  0  0  0  0  0  0  0  0  0
  131.4246  176.5076  146.6850 C   0  0  0  0  0  0  0  0  0  0  0  0
  133.7486  177.0012  146.5497 C   0  0  0  0  0  0  0  0  0  0  0  0
  1  2  1  6
  2  3  1  0
  3  4  1  0
  4  5  1  0
  5  6  1  6
  6  7  1  0
  5  8  1  0
  8  9  1  0
  9 10  1  0
 10 11  1  1
 10 12  1  0
 12 13  1  1
 13 14  1  0
 15 14  1  6
 15 16  1  0
 16 17  1  6
 16 18  1  0
 18 19  1  0
 19 20  1  0
 20 21  1  6
 20 22  1  0
 22 23  1  0
 22 24  1  0
 22 25  1  0
 25 26  1  6
 26 27  1  0
 27 28  1  0
 28 29  1  6
  2 30  1  1
 30 31  1  0
 30 32  2  0
  5  1  1  0
 28 10  1  0
 12  1  1  0
 28 15  1  0
 25 16  1  0
M  END
$$$$
