
     RDKit          3D

 32 36  0  0  0  0  0  0  0  0999 V2000
  163.1764  147.6881  125.8602 C   0  0  1  0  0  0  0  0  0  0  0  0
  162.3316  146.5375  126.2174 C   0  0  1  0  0  0  0  0  0  0  0  0
  161.0625  146.7488  125.4230 C   0  0  0  0  0  0  0  0  0  0  0  0
  161.4506  147.7559  124.3344 C   0  0  0  0  0  0  0  0  0  0  0  0
  162.2810  148.6824  125.1733 C   0  0  1  0  0  0  0  0  0  0  0  0
  161.3830  149.5096  125.9972 C   0  0  0  0  0  0  0  0  0  0  0  0
  160.5966  150.2862  125.0857 O   0  0  0  0  0  0  0  0  0  0  0  0
  163.2518  149.5296  124.3533 C   0  0  0  0  0  0  0  0  0  0  0  0
  164.1644  150.2342  125.3192 C   0  0  0  0  0  0  0  0  0  0  0  0
  164.9518  149.3155  126.2198 C   0  0  2  0  0  0  0  0  0  0  0  0
  165.9900  148.6794  125.3483 C   0  0  0  0  0  0  0  0  0  0  0  0
  163.9796  148.3848  126.8829 C   0  0  2  0  0  0  0  0  0  0  0  0
  164.5807  147.5503  127.9618 C   0  0  0  0  0  0  0  0  0  0  0  0
  165.0289  148.5933  129.0183 C   0  0  0  0  0  0  0  0  0  0  0  0
  166.2013  149.2663  128.3370 C   0  0  2  0  0  0  0  0  0  0  0  0
  167.1528  149.8774  129.3281 C   0  0  1  0  0  0  0  0  0  0  0  0
  166.4833  150.6067  130.4187 C   0  0  0  0  0  0  0  0  0  0  0  0
  167.9034  148.6954  129.9743 C   0  0  0  0  0  0  0  0  0  0  0  0
  168.9277  149.1309  130.9437 C   0  0  0  0  0  0  0  0  0  0  0  0
  169.5665  150.4559  130.7225 C   0  0  2  0  0  0  0  0  0  0  0  0
  169.2712  151.3567  131.7775 O   0  0  0  0  0  0  0  0  0  0  0  0
  169.3976  151.0582  129.3781 C   0  0  0  0  0  0  0  0  0  0  0  0
  169.4192  152.5880  129.5480 C   0  0  0  0  0  0  0  0  0  0  0  0
  170.6804  150.8125  128.5504 C   0  0  0  0  0  0  0  0  0  0  0  0
  168.2438  150.5916  128.5800 C   0  0  2  0  0  0  0  0  0  0  0  0
  167.6608  151.6188  127.6357 C   0  0  0  0  0  0  0  0  0  0  0  0
  166.9049  150.8167  126.5682 C   0  0  0  0  0  0  0  0  0  0  0  0
  165.7048  150.1532  127.2552 C   0  0  1  0  0  0  0  0  0  0  0  0
  164.8104  151.2551  127.6888 C   0  0  0  0  0  0  0  0  0  0  0  0
  162.9914  145.2919  125.7102 C   0  0  0  0  0  0  0  0  0  0  0  0
  163.3059  145.1148  124.2557 C   0  0  0  0  0  0  0  0  0  0  0  0
  163.3345  144.3200  126.4987 C   0  0  0  0  0  0  0  0  0  0  0  0
  1  2  1  1
  2  3  1  0
  3  4  1  0
  4  5  1  0
  5  6  1  1
  6  7  1  0
  5  8  1  0
  8  9  1  0
  9 10  1  0
 10 11  1  6
 10 12  1  0
 12 13  1  6
 13 14  1  0
 15 14  1  1
 15 16  1  0
 16 17  1  1
 16 18  1  0
 18 19  1  0
 19 20  1  0
 20 21  1  1
 20 22  1  0
 22 23  1  0
 22 24  1  0
 22 25  1  0
 25 26  1  1
 26 27  1  0
 27 28  1  0
 28 29  1  1
  2 30  1  6
 30 31  1  0
 30 32  2  0
  5  1  1  0
 28 10  1  0
 12  1  1  0
 28 15  1  0
 25 16  1  0
M  END
$$$$
