
     RDKit          3D

 32 36  0  0  0  0  0  0  0  0999 V2000
  131.2009  162.6739  155.0597 C   0  0  1  0  0  0  0  0  0  0  0  0
  130.1562  162.2210  155.9917 C   0  0  1  0  0  0  0  0  0  0  0  0
  128.8607  162.5602  155.2897 C   0  0  0  0  0  0  0  0  0  0  0  0
  129.2580  162.7680  153.8237 C   0  0  0  0  0  0  0  0  0  0  0  0
  130.5203  163.5490  154.0432 C   0  0  1  0  0  0  0  0  0  0  0  0
  130.1655  164.9270  154.4236 C   0  0  0  0  0  0  0  0  0  0  0  0
  129.2202  165.3862  153.4500 O   0  0  0  0  0  0  0  0  0  0  0  0
  131.4686  163.5092  152.8465 C   0  0  0  0  0  0  0  0  0  0  0  0
  132.7684  164.1305  153.2785 C   0  0  0  0  0  0  0  0  0  0  0  0
  133.4276  163.4500  154.4521 C   0  0  2  0  0  0  0  0  0  0  0  0
  133.9588  162.1523  153.9271 C   0  0  0  0  0  0  0  0  0  0  0  0
  132.4124  163.3560  155.5529 C   0  0  2  0  0  0  0  0  0  0  0  0
  132.9725  162.8933  156.8544 C   0  0  0  0  0  0  0  0  0  0  0  0
  133.9763  164.0125  157.2345 C   0  0  0  0  0  0  0  0  0  0  0  0
  135.0892  163.8094  156.2287 C   0  0  2  0  0  0  0  0  0  0  0  0
  136.4018  164.3497  156.7252 C   0  0  1  0  0  0  0  0  0  0  0  0
  136.2925  165.6700  157.3689 C   0  0  0  0  0  0  0  0  0  0  0  0
  136.8804  163.3616  157.8081 C   0  0  0  0  0  0  0  0  0  0  0  0
  138.1990  163.7207  158.3659 C   0  0  0  0  0  0  0  0  0  0  0  0
  139.1441  164.4548  157.4823 C   0  0  2  0  0  0  0  0  0  0  0  0
  139.4223  165.7518  157.9844 O   0  0  0  0  0  0  0  0  0  0  0  0
  138.8399  164.4450  156.0312 C   0  0  0  0  0  0  0  0  0  0  0  0
  139.3828  165.7556  155.4335 C   0  0  0  0  0  0  0  0  0  0  0  0
  139.7287  163.3873  155.3365 C   0  0  0  0  0  0  0  0  0  0  0  0
  137.4362  164.1842  155.6470 C   0  0  2  0  0  0  0  0  0  0  0  0
  136.9872  164.8538  154.3677 C   0  0  0  0  0  0  0  0  0  0  0  0
  135.7746  164.0481  153.8832 C   0  0  0  0  0  0  0  0  0  0  0  0
  134.6407  164.2723  154.8914 C   0  0  1  0  0  0  0  0  0  0  0  0
  134.2771  165.7080  154.7982 C   0  0  0  0  0  0  0  0  0  0  0  0
  130.2414  160.7299  156.1079 C   0  0  0  0  0  0  0  0  0  0  0  0
  131.2857  160.0741  156.9596 C   0  0  0  0  0  0  0  0  0  0  0  0
  129.4142  159.9394  155.4958 C   0  0  0  0  0  0  0  0  0  0  0  0
  1  2  1  1
  2  3  1  0
  3  4  1  0
  4  5  1  0
  5  6  1  1
  6  7  1  0
  5  8  1  0
  8  9  1  0
  9 10  1  0
 10 11  1  6
 10 12  1  0
 12 13  1  1
 13 14  1  0
 15 14  1  1
 15 16  1  0
 16 17  1  1
 16 18  1  0
 18 19  1  0
 19 20  1  0
 20 21  1  1
 20 22  1  0
 22 23  1  0
 22 24  1  0
 22 25  1  0
 25 26  1  6
 26 27  1  0
 27 28  1  0
 28 29  1  1
  2 30  1  6
 30 31  1  0
 30 32  2  0
  5  1  1  0
 28 10  1  0
 12  1  1  0
 28 15  1  0
 25 16  1  0
M  END
$$$$
