
     RDKit          3D

 32 36  0  0  0  0  0  0  0  0999 V2000
  185.1166  134.2885  125.3366 C   0  0  1  0  0  0  0  0  0  0  0  0
  185.5823  132.9295  125.6548 C   0  0  1  0  0  0  0  0  0  0  0  0
  184.8635  132.0484  124.6581 C   0  0  0  0  0  0  0  0  0  0  0  0
  184.3920  133.0101  123.5612 C   0  0  0  0  0  0  0  0  0  0  0  0
  183.9211  134.1339  124.4370 C   0  0  1  0  0  0  0  0  0  0  0  0
  182.6302  133.7579  125.0382 C   0  0  0  0  0  0  0  0  0  0  0  0
  181.7655  133.4017  123.9529 O   0  0  0  0  0  0  0  0  0  0  0  0
  183.8473  135.4743  123.7086 C   0  0  0  0  0  0  0  0  0  0  0  0
  183.5856  136.5363  124.7410 C   0  0  0  0  0  0  0  0  0  0  0  0
  184.6280  136.6230  125.8277 C   0  0  2  0  0  0  0  0  0  0  0  0
  185.8398  137.2236  125.1852 C   0  0  0  0  0  0  0  0  0  0  0  0
  184.7954  135.2497  126.4085 C   0  0  2  0  0  0  0  0  0  0  0  0
  185.6421  135.2107  127.6347 C   0  0  0  0  0  0  0  0  0  0  0  0
  184.8397  136.0587  128.6554 C   0  0  0  0  0  0  0  0  0  0  0  0
  184.9959  137.4619  128.1096 C   0  0  2  0  0  0  0  0  0  0  0  0
  184.8290  138.5040  129.1808 C   0  0  1  0  0  0  0  0  0  0  0  0
  183.6984  138.2437  130.0883 C   0  0  0  0  0  0  0  0  0  0  0  0
  186.1121  138.4394  130.0337 C   0  0  0  0  0  0  0  0  0  0  0  0
  186.1338  139.4494  131.1098 C   0  0  0  0  0  0  0  0  0  0  0  0
  185.3930  140.7185  130.8786 C   0  0  2  0  0  0  0  0  0  0  0  0
  184.3203  140.8672  131.7946 O   0  0  0  0  0  0  0  0  0  0  0  0
  185.0084  141.0169  129.4780 C   0  0  0  0  0  0  0  0  0  0  0  0
  183.7121  141.8462  129.5185 C   0  0  0  0  0  0  0  0  0  0  0  0
  186.0145  142.0295  128.8833 C   0  0  0  0  0  0  0  0  0  0  0  0
  184.9183  139.8671  128.5531 C   0  0  2  0  0  0  0  0  0  0  0  0
  183.8989  140.0139  127.4459 C   0  0  0  0  0  0  0  0  0  0  0  0
  184.3400  139.0391  126.3461 C   0  0  0  0  0  0  0  0  0  0  0  0
  184.1605  137.6173  126.8924 C   0  0  1  0  0  0  0  0  0  0  0  0
  182.7018  137.4259  127.0867 C   0  0  0  0  0  0  0  0  0  0  0  0
  187.0498  132.8531  125.3639 C   0  0  0  0  0  0  0  0  0  0  0  0
  187.6799  133.7116  124.3095 C   0  0  0  0  0  0  0  0  0  0  0  0
  187.8441  132.0593  126.0142 C   0  0  0  0  0  0  0  0  0  0  0  0
  1  2  1  1
  2  3  1  0
  3  4  1  0
  4  5  1  0
  5  6  1  1
  6  7  1  0
  5  8  1  0
  8  9  1  0
  9 10  1  0
 10 11  1  6
 10 12  1  0
 12 13  1  1
 13 14  1  0
 15 14  1  1
 15 16  1  0
 16 17  1  1
 16 18  1  0
 18 19  1  0
 19 20  1  0
 20 21  1  1
 20 22  1  0
 22 23  1  0
 22 24  1  0
 22 25  1  0
 25 26  1  1
 26 27  1  0
 27 28  1  0
 28 29  1  1
  2 30  1  6
 30 31  1  0
 30 32  2  0
  5  1  1  0
 28 10  1  0
 12  1  1  0
 28 15  1  0
 25 16  1  0
M  END
$$$$
