
     RDKit          3D

 32 36  0  0  0  0  0  0  0  0999 V2000
  165.3952  157.7080  126.8526 C   0  0  1  0  0  0  0  0  0  0  0  0
  166.3171  158.5037  127.6784 C   0  0  1  0  0  0  0  0  0  0  0  0
  166.5098  159.7812  126.8929 C   0  0  0  0  0  0  0  0  0  0  0  0
  165.3388  159.8075  125.9037 C   0  0  0  0  0  0  0  0  0  0  0  0
  165.3562  158.3627  125.4990 C   0  0  1  0  0  0  0  0  0  0  0  0
  166.4829  158.1420  124.5763 C   0  0  0  0  0  0  0  0  0  0  0  0
  167.1405  159.4062  124.4291 O   0  0  0  0  0  0  0  0  0  0  0  0
  164.0297  157.8864  124.9106 C   0  0  0  0  0  0  0  0  0  0  0  0
  164.1115  156.3920  124.7618 C   0  0  0  0  0  0  0  0  0  0  0  0
  164.3753  155.6486  126.0475 C   0  0  2  0  0  0  0  0  0  0  0  0
  163.1045  155.7299  126.8351 C   0  0  0  0  0  0  0  0  0  0  0  0
  165.5912  156.2558  126.6831 C   0  0  2  0  0  0  0  0  0  0  0  0
  166.1025  155.4956  127.8590 C   0  0  0  0  0  0  0  0  0  0  0  0
  166.5202  154.1305  127.2533 C   0  0  0  0  0  0  0  0  0  0  0  0
  165.1857  153.4978  126.9211 C   0  0  2  0  0  0  0  0  0  0  0  0
  165.2703  151.9971  126.8764 C   0  0  1  0  0  0  0  0  0  0  0  0
  166.4619  151.4924  126.1730 C   0  0  0  0  0  0  0  0  0  0  0  0
  165.3889  151.5388  128.3441 C   0  0  0  0  0  0  0  0  0  0  0  0
  165.4266  150.0697  128.4822 C   0  0  0  0  0  0  0  0  0  0  0  0
  164.7242  149.2624  127.4489 C   0  0  2  0  0  0  0  0  0  0  0  0
  165.6322  148.4590  126.7127 O   0  0  0  0  0  0  0  0  0  0  0  0
  163.7549  149.9831  126.5891 C   0  0  0  0  0  0  0  0  0  0  0  0
  163.7276  149.2733  125.2233 C   0  0  0  0  0  0  0  0  0  0  0  0
  162.3236  149.7201  127.1121 C   0  0  0  0  0  0  0  0  0  0  0  0
  163.9335  151.4455  126.4655 C   0  0  2  0  0  0  0  0  0  0  0  0
  163.4950  152.0351  125.1439 C   0  0  0  0  0  0  0  0  0  0  0  0
  163.2443  153.5238  125.4185 C   0  0  0  0  0  0  0  0  0  0  0  0
  164.6000  154.1682  125.7333 C   0  0  1  0  0  0  0  0  0  0  0  0
  165.4022  154.0825  124.4877 C   0  0  0  0  0  0  0  0  0  0  0  0
  165.6233  158.8503  128.9601 C   0  0  0  0  0  0  0  0  0  0  0  0
  164.4806  159.8194  128.9890 C   0  0  0  0  0  0  0  0  0  0  0  0
  165.9631  158.3227  130.0959 C   0  0  0  0  0  0  0  0  0  0  0  0
  1  2  1  1
  2  3  1  0
  3  4  1  0
  4  5  1  0
  5  6  1  6
  6  7  1  0
  5  8  1  0
  8  9  1  0
  9 10  1  0
 10 11  1  1
 10 12  1  0
 12 13  1  1
 13 14  1  0
 15 14  1  6
 15 16  1  0
 16 17  1  6
 16 18  1  0
 18 19  1  0
 19 20  1  0
 20 21  1  6
 20 22  1  0
 22 23  1  0
 22 24  1  0
 22 25  1  0
 25 26  1  6
 26 27  1  0
 27 28  1  0
 28 29  1  6
  2 30  1  1
 30 31  1  0
 30 32  2  0
  5  1  1  0
 28 10  1  0
 12  1  1  0
 28 15  1  0
 25 16  1  0
M  END
$$$$
