
     RDKit          3D

 32 36  0  0  0  0  0  0  0  0999 V2000
  132.9151  163.9816  152.6842 C   0  0  1  0  0  0  0  0  0  0  0  0
  133.0016  162.6146  153.2216 C   0  0  1  0  0  0  0  0  0  0  0  0
  134.4729  162.4230  153.5123 C   0  0  0  0  0  0  0  0  0  0  0  0
  135.0496  163.8431  153.5422 C   0  0  0  0  0  0  0  0  0  0  0  0
  134.3209  164.4048  152.3568 C   0  0  1  0  0  0  0  0  0  0  0  0
  134.9449  163.8869  151.1272 C   0  0  0  0  0  0  0  0  0  0  0  0
  136.3073  164.3295  151.1461 O   0  0  0  0  0  0  0  0  0  0  0  0
  134.2450  165.9302  152.3643 C   0  0  0  0  0  0  0  0  0  0  0  0
  133.3092  166.3419  151.2612 C   0  0  0  0  0  0  0  0  0  0  0  0
  131.9150  165.7789  151.3804 C   0  0  2  0  0  0  0  0  0  0  0  0
  131.2712  166.5172  152.5128 C   0  0  0  0  0  0  0  0  0  0  0  0
  132.0368  164.2919  151.5403 C   0  0  2  0  0  0  0  0  0  0  0  0
  130.7367  163.5668  151.4635 C   0  0  0  0  0  0  0  0  0  0  0  0
  130.2517  163.8464  150.0172 C   0  0  0  0  0  0  0  0  0  0  0  0
  129.8851  165.3141  150.0730 C   0  0  2  0  0  0  0  0  0  0  0  0
  128.8721  165.6811  149.0240 C   0  0  1  0  0  0  0  0  0  0  0  0
  129.1503  165.0941  147.7020 C   0  0  0  0  0  0  0  0  0  0  0  0
  127.5335  165.0860  149.5057 C   0  0  0  0  0  0  0  0  0  0  0  0
  126.4090  165.4071  148.6052 C   0  0  0  0  0  0  0  0  0  0  0  0
  126.4856  166.6762  147.8329 C   0  0  2  0  0  0  0  0  0  0  0  0
  126.5439  166.4312  146.4370 O   0  0  0  0  0  0  0  0  0  0  0  0
  127.4827  167.6731  148.2913 C   0  0  0  0  0  0  0  0  0  0  0  0
  127.9399  168.4740  147.0587 C   0  0  0  0  0  0  0  0  0  0  0  0
  126.7642  168.7583  149.1264 C   0  0  0  0  0  0  0  0  0  0  0  0
  128.6176  167.1613  149.0889 C   0  0  2  0  0  0  0  0  0  0  0  0
  129.9087  167.9333  148.9348 C   0  0  0  0  0  0  0  0  0  0  0  0
  130.7324  167.6154  150.1897 C   0  0  0  0  0  0  0  0  0  0  0  0
  131.1219  166.1335  150.1211 C   0  0  1  0  0  0  0  0  0  0  0  0
  132.0296  165.9941  148.9555 C   0  0  0  0  0  0  0  0  0  0  0  0
  132.2644  162.5723  154.5250 C   0  0  0  0  0  0  0  0  0  0  0  0
  130.8970  161.9673  154.6264 C   0  0  0  0  0  0  0  0  0  0  0  0
  132.7735  163.0383  155.6238 C   0  0  0  0  0  0  0  0  0  0  0  0
  1  2  1  6
  2  3  1  0
  3  4  1  0
  4  5  1  0
  5  6  1  6
  6  7  1  0
  5  8  1  0
  8  9  1  0
  9 10  1  0
 10 11  1  1
 10 12  1  0
 12 13  1  1
 13 14  1  0
 15 14  1  6
 15 16  1  0
 16 17  1  6
 16 18  1  0
 18 19  1  0
 19 20  1  0
 20 21  1  6
 20 22  1  0
 22 23  1  0
 22 24  1  0
 22 25  1  0
 25 26  1  6
 26 27  1  0
 27 28  1  0
 28 29  1  6
  2 30  1  1
 30 31  1  0
 30 32  2  0
  5  1  1  0
 28 10  1  0
 12  1  1  0
 28 15  1  0
 25 16  1  0
M  END
$$$$
