
     RDKit          3D

 32 36  0  0  0  0  0  0  0  0999 V2000
  147.2882  163.8736  132.2261 C   0  0  1  0  0  0  0  0  0  0  0  0
  148.2331  162.8425  132.6832 C   0  0  1  0  0  0  0  0  0  0  0  0
  147.6415  162.3480  133.9838 C   0  0  0  0  0  0  0  0  0  0  0  0
  146.1805  162.8107  133.9449 C   0  0  0  0  0  0  0  0  0  0  0  0
  146.3979  164.1904  133.3963 C   0  0  1  0  0  0  0  0  0  0  0  0
  146.9240  165.0504  134.4701 C   0  0  0  0  0  0  0  0  0  0  0  0
  148.2631  164.6092  134.7241 O   0  0  0  0  0  0  0  0  0  0  0  0
  145.1499  164.7827  132.7449 C   0  0  0  0  0  0  0  0  0  0  0  0
  145.5617  166.0506  132.0485 C   0  0  0  0  0  0  0  0  0  0  0  0
  146.6273  165.8690  130.9965 C   0  0  2  0  0  0  0  0  0  0  0  0
  145.9547  165.1855  129.8466 C   0  0  0  0  0  0  0  0  0  0  0  0
  147.7715  165.1335  131.6299 C   0  0  2  0  0  0  0  0  0  0  0  0
  148.9901  165.0589  130.7748 C   0  0  0  0  0  0  0  0  0  0  0  0
  149.4135  166.5426  130.6183 C   0  0  0  0  0  0  0  0  0  0  0  0
  148.3305  167.0988  129.7187 C   0  0  2  0  0  0  0  0  0  0  0  0
  148.7981  168.3078  128.9566 C   0  0  1  0  0  0  0  0  0  0  0  0
  149.5664  169.2619  129.7746 C   0  0  0  0  0  0  0  0  0  0  0  0
  149.7556  167.7761  127.8710 C   0  0  0  0  0  0  0  0  0  0  0  0
  150.2671  168.8430  126.9885 C   0  0  0  0  0  0  0  0  0  0  0  0
  149.4020  170.0342  126.7750 C   0  0  2  0  0  0  0  0  0  0  0  0
  150.0050  171.2115  127.2870 O   0  0  0  0  0  0  0  0  0  0  0  0
  147.9762  169.8964  127.1577 C   0  0  0  0  0  0  0  0  0  0  0  0
  147.4719  171.2879  127.5811 C   0  0  0  0  0  0  0  0  0  0  0  0
  147.1365  169.6275  125.8874 C   0  0  0  0  0  0  0  0  0  0  0  0
  147.6514  168.8488  128.1491 C   0  0  2  0  0  0  0  0  0  0  0  0
  146.4675  169.1539  129.0390 C   0  0  0  0  0  0  0  0  0  0  0  0
  145.9815  167.7952  129.5606 C   0  0  0  0  0  0  0  0  0  0  0  0
  147.0700  167.2428  130.4893 C   0  0  1  0  0  0  0  0  0  0  0  0
  147.1310  168.1614  131.6533 C   0  0  0  0  0  0  0  0  0  0  0  0
  148.2058  161.7095  131.7035 C   0  0  0  0  0  0  0  0  0  0  0  0
  149.2173  160.6053  131.7624 C   0  0  0  0  0  0  0  0  0  0  0  0
  147.3050  161.6198  130.7738 C   0  0  0  0  0  0  0  0  0  0  0  0
  1  2  1  1
  2  3  1  0
  3  4  1  0
  4  5  1  0
  5  6  1  1
  6  7  1  0
  5  8  1  0
  8  9  1  0
  9 10  1  0
 10 11  1  6
 10 12  1  0
 12 13  1  6
 13 14  1  0
 15 14  1  1
 15 16  1  0
 16 17  1  1
 16 18  1  0
 18 19  1  0
 19 20  1  0
 20 21  1  1
 20 22  1  0
 22 23  1  0
 22 24  1  0
 22 25  1  0
 25 26  1  1
 26 27  1  0
 27 28  1  0
 28 29  1  1
  2 30  1  6
 30 31  1  0
 30 32  2  0
  5  1  1  0
 28 10  1  0
 12  1  1  0
 28 15  1  0
 25 16  1  0
M  END
$$$$
