
     RDKit          3D

 32 36  0  0  0  0  0  0  0  0999 V2000
  173.1816  161.8761  113.4018 C   0  0  1  0  0  0  0  0  0  0  0  0
  172.4377  160.6128  113.2765 C   0  0  1  0  0  0  0  0  0  0  0  0
  173.1690  159.6594  114.1943 C   0  0  0  0  0  0  0  0  0  0  0  0
  173.9970  160.5653  115.1130 C   0  0  0  0  0  0  0  0  0  0  0  0
  174.4805  161.5445  114.0839 C   0  0  1  0  0  0  0  0  0  0  0  0
  175.5508  160.9125  113.2936 C   0  0  0  0  0  0  0  0  0  0  0  0
  176.5874  160.5648  114.2193 O   0  0  0  0  0  0  0  0  0  0  0  0
  174.9197  162.8792  114.6826 C   0  0  0  0  0  0  0  0  0  0  0  0
  175.1608  163.8292  113.5418 C   0  0  0  0  0  0  0  0  0  0  0  0
  173.9629  164.0579  112.6541 C   0  0  2  0  0  0  0  0  0  0  0  0
  173.0157  164.8978  113.4536 C   0  0  0  0  0  0  0  0  0  0  0  0
  173.4554  162.7145  112.2193 C   0  0  2  0  0  0  0  0  0  0  0  0
  172.3989  162.7778  111.1697 C   0  0  0  0  0  0  0  0  0  0  0  0
  173.1283  163.4191  109.9607 C   0  0  0  0  0  0  0  0  0  0  0  0
  173.3215  164.8497  110.4163 C   0  0  2  0  0  0  0  0  0  0  0  0
  173.4602  165.7958  109.2558 C   0  0  1  0  0  0  0  0  0  0  0  0
  174.3375  165.2934  108.1846 C   0  0  0  0  0  0  0  0  0  0  0  0
  172.0477  165.9302  108.6517 C   0  0  0  0  0  0  0  0  0  0  0  0
  171.9976  166.8792  107.5224 C   0  0  0  0  0  0  0  0  0  0  0  0
  172.9757  167.9999  107.5203 C   0  0  2  0  0  0  0  0  0  0  0  0
  173.8657  167.9096  106.4197 O   0  0  0  0  0  0  0  0  0  0  0  0
  173.6628  168.2837  108.8032 C   0  0  0  0  0  0  0  0  0  0  0  0
  175.0512  168.8589  108.4696 C   0  0  0  0  0  0  0  0  0  0  0  0
  172.9762  169.4883  109.4877 C   0  0  0  0  0  0  0  0  0  0  0  0
  173.7265  167.1782  109.7829 C   0  0  2  0  0  0  0  0  0  0  0  0
  174.9461  167.1840  110.6768 C   0  0  0  0  0  0  0  0  0  0  0  0
  174.5592  166.3555  111.9090 C   0  0  0  0  0  0  0  0  0  0  0  0
  174.3853  164.9023  111.4502 C   0  0  1  0  0  0  0  0  0  0  0  0
  175.7262  164.4387  111.0152 C   0  0  0  0  0  0  0  0  0  0  0  0
  171.0604  160.8193  113.8284 C   0  0  0  0  0  0  0  0  0  0  0  0
  170.3107  162.0952  113.5922 C   0  0  0  0  0  0  0  0  0  0  0  0
  170.4471  159.9073  114.5184 C   0  0  0  0  0  0  0  0  0  0  0  0
  1  2  1  6
  2  3  1  0
  3  4  1  0
  4  5  1  0
  5  6  1  6
  6  7  1  0
  5  8  1  0
  8  9  1  0
  9 10  1  0
 10 11  1  1
 10 12  1  0
 12 13  1  1
 13 14  1  0
 15 14  1  6
 15 16  1  0
 16 17  1  6
 16 18  1  0
 18 19  1  0
 19 20  1  0
 20 21  1  6
 20 22  1  0
 22 23  1  0
 22 24  1  0
 22 25  1  0
 25 26  1  6
 26 27  1  0
 27 28  1  0
 28 29  1  6
  2 30  1  1
 30 31  1  0
 30 32  2  0
  5  1  1  0
 28 10  1  0
 12  1  1  0
 28 15  1  0
 25 16  1  0
M  END
$$$$
