
     RDKit          3D

 32 36  0  0  0  0  0  0  0  0999 V2000
  147.9828  166.5418  128.5562 C   0  0  1  0  0  0  0  0  0  0  0  0
  149.0266  166.8378  127.5623 C   0  0  1  0  0  0  0  0  0  0  0  0
  149.0325  165.6254  126.6588 C   0  0  0  0  0  0  0  0  0  0  0  0
  147.6926  164.9324  126.9323 C   0  0  0  0  0  0  0  0  0  0  0  0
  147.6675  165.0769  128.4257 C   0  0  1  0  0  0  0  0  0  0  0  0
  148.6004  164.0998  129.0126 C   0  0  0  0  0  0  0  0  0  0  0  0
  148.1185  162.8035  128.6390 O   0  0  0  0  0  0  0  0  0  0  0  0
  146.2647  164.9598  129.0182 C   0  0  0  0  0  0  0  0  0  0  0  0
  146.3533  165.3439  130.4697 C   0  0  0  0  0  0  0  0  0  0  0  0
  146.8782  166.7360  130.7177 C   0  0  2  0  0  0  0  0  0  0  0  0
  145.7814  167.6668  130.3024 C   0  0  0  0  0  0  0  0  0  0  0  0
  148.1784  166.8703  129.9810 C   0  0  2  0  0  0  0  0  0  0  0  0
  148.9253  168.1214  130.2953 C   0  0  0  0  0  0  0  0  0  0  0  0
  149.2522  167.9780  131.8044 C   0  0  0  0  0  0  0  0  0  0  0  0
  147.8948  168.1528  132.4514 C   0  0  2  0  0  0  0  0  0  0  0  0
  148.0063  168.6338  133.8717 C   0  0  1  0  0  0  0  0  0  0  0  0
  149.0522  167.9466  134.6486 C   0  0  0  0  0  0  0  0  0  0  0  0
  148.4169  170.1175  133.7821 C   0  0  0  0  0  0  0  0  0  0  0  0
  148.5168  170.7631  135.1057 C   0  0  0  0  0  0  0  0  0  0  0  0
  147.6487  170.2402  136.1946 C   0  0  2  0  0  0  0  0  0  0  0  0
  148.4174  169.6837  137.2487 O   0  0  0  0  0  0  0  0  0  0  0  0
  146.5143  169.3786  135.7834 C   0  0  0  0  0  0  0  0  0  0  0  0
  146.2420  168.3894  136.9310 C   0  0  0  0  0  0  0  0  0  0  0  0
  145.2176  170.2210  135.7761 C   0  0  0  0  0  0  0  0  0  0  0  0
  146.6296  168.7079  134.4709 C   0  0  2  0  0  0  0  0  0  0  0  0
  145.9301  167.3709  134.3710 C   0  0  0  0  0  0  0  0  0  0  0  0
  145.7003  167.1357  132.8723 C   0  0  0  0  0  0  0  0  0  0  0  0
  147.0748  166.9369  132.2216 C   0  0  1  0  0  0  0  0  0  0  0  0
  147.6238  165.6774  132.7825 C   0  0  0  0  0  0  0  0  0  0  0  0
  148.5843  168.0163  126.7501 C   0  0  0  0  0  0  0  0  0  0  0  0
  148.2088  167.8698  125.3067 C   0  0  0  0  0  0  0  0  0  0  0  0
  148.4901  169.2083  127.2541 C   0  0  0  0  0  0  0  0  0  0  0  0
  1  2  1  6
  2  3  1  0
  3  4  1  0
  4  5  1  0
  5  6  1  1
  6  7  1  0
  5  8  1  0
  8  9  1  0
  9 10  1  0
 10 11  1  6
 10 12  1  0
 12 13  1  6
 13 14  1  0
 15 14  1  1
 15 16  1  0
 16 17  1  1
 16 18  1  0
 18 19  1  0
 19 20  1  0
 20 21  1  1
 20 22  1  0
 22 23  1  0
 22 24  1  0
 22 25  1  0
 25 26  1  1
 26 27  1  0
 27 28  1  0
 28 29  1  1
  2 30  1  6
 30 31  1  0
 30 32  2  0
  5  1  1  0
 28 10  1  0
 12  1  1  0
 28 15  1  0
 25 16  1  0
M  END
$$$$
