[NO NAME]
  Mrv0541 05011210012D          
Created with ChemWriter - http://chemwriter.com
 38 40  0  0  1  0            999 V2000
   15.6068  -12.7690    0.0000 C   0  0  0  0  0  0  0  0  0  0  0  0
   16.4293  -12.7724    0.0000 N   0  0  0  0  0  0  0  0  0  0  0  0
   15.3890  -13.5636    0.0000 C   0  0  0  0  0  0  0  0  0  0  0  0
   14.8918  -12.3616    0.0000 C   0  0  0  0  0  0  0  0  0  0  0  0
   17.1409  -12.3132    0.0000 C   0  0  0  0  0  0  0  0  0  0  0  0
   16.7232  -13.5021    0.0000 C   0  0  0  0  0  0  0  0  0  0  0  0
   16.0800  -14.0201    0.0000 C   0  0  0  0  0  0  0  0  0  0  0  0
   14.1768  -12.7690    0.0000 O   0  0  0  0  0  0  0  0  0  0  0  0
   14.8884  -11.5324    0.0000 O   0  0  0  0  0  0  0  0  0  0  0  0
   17.8525  -12.7310    0.0000 C   0  0  0  0  0  0  0  0  0  0  0  0
   17.1374  -11.4875    0.0000 O   0  0  0  0  0  0  0  0  0  0  0  0
   13.4685  -12.3616    0.0000 C   0  0  1  0  0  0  0  0  0  0  0  0
   18.5400  -12.2821    0.0000 N   0  0  0  0  0  0  0  0  0  0  0  0
   18.0634  -13.5298    0.0000 C   0  0  0  0  0  0  0  0  0  0  0  0
   13.4685  -11.5360    0.0000 C   0  0  1  0  0  0  0  0  0  0  0  0
   12.7492  -12.7655    0.0000 C   0  0  0  0  0  0  0  0  0  0  0  0
   19.1798  -12.8001    0.0000 C   0  0  0  0  0  0  0  0  0  0  0  0
   18.8859  -13.5257    0.0000 O   0  0  0  0  0  0  0  0  0  0  0  0
   14.1768  -11.1243    0.0000 C   0  0  0  0  0  0  0  0  0  0  0  0
   12.8737  -10.9488    0.0000 C   0  0  0  0  0  0  0  0  0  0  0  0
   12.7457  -13.5948    0.0000 C   0  0  0  0  0  0  0  0  0  0  0  0
   12.0307  -12.3546    0.0000 C   0  0  0  0  0  0  0  0  0  0  0  0
   20.0539  -12.4688    0.0000 C   0  0  0  0  0  0  0  0  0  0  0  0
   14.1768  -10.3022    0.0000 C   0  0  0  0  0  0  0  0  0  0  0  0
   20.2607  -11.6707    0.0000 C   0  0  0  0  0  0  0  0  0  0  0  0
   14.8918   -9.8912    0.0000 C   0  0  0  0  0  0  0  0  0  0  0  0
   19.6804  -11.0829    0.0000 C   0  0  0  0  0  0  0  0  0  0  0  0
   21.0588  -11.4494    0.0000 O   0  0  0  0  0  0  0  0  0  0  0  0
   15.6068  -10.2952    0.0000 N   0  0  0  0  0  0  0  0  0  0  0  0
   14.8884   -9.0620    0.0000 O   0  0  0  0  0  0  0  0  0  0  0  0
   19.8948  -10.2848    0.0000 C   0  0  1  0  0  0  0  0  0  0  0  0
   16.3220   -9.8878    0.0000 C   0  0  0  0  0  0  0  0  0  0  0  0
   19.1798   -9.8774    0.0000 C   0  0  0  0  0  0  0  0  0  0  0  0
   20.6583   -9.9708    0.0000 O   0  0  0  0  0  0  0  0  0  0  0  0
   17.0371  -10.2917    0.0000 C   0  0  0  0  0  0  0  0  0  0  0  0
   18.4680  -10.2883    0.0000 C   0  0  0  0  0  0  0  0  0  0  0  0
   17.7487   -9.8843    0.0000 C   0  0  0  0  0  0  0  0  0  0  0  0
   18.4645  -11.1141    0.0000 C   0  0  0  0  0  0  0  0  0  0  0  0
  1  2  1  0  0  0  0
  1  3  2  0  0  0  0
  1  4  1  0  0  0  0
  2  5  1  0  0  0  0
  2  6  1  0  0  0  0
  3  7  1  0  0  0  0
  4  8  1  0  0  0  0
  4  9  2  0  0  0  0
  5 10  1  0  0  0  0
  5 11  2  0  0  0  0
  8 12  1  0  0  0  0
 10 13  1  0  0  0  0
 10 14  2  0  0  0  0
 12 15  1  0  0  0  0
 12 16  1  6  0  0  0
 13 17  2  0  0  0  0
 14 18  1  0  0  0  0
 15 19  1  0  0  0  0
 15 20  1  6  0  0  0
 16 21  1  0  0  0  0
 16 22  1  0  0  0  0
 17 23  1  0  0  0  0
 19 24  2  0  0  0  0
 23 25  1  0  0  0  0
 24 26  1  0  0  0  0
 25 27  1  0  0  0  0
 25 28  2  0  0  0  0
 26 29  1  0  0  0  0
 26 30  2  0  0  0  0
 27 31  1  0  0  0  0
 29 32  1  0  0  0  0
 31 33  1  0  0  0  0
 31 34  1  1  0  0  0
 32 35  1  0  0  0  0
 33 36  2  0  0  0  0
 35 37  2  0  0  0  0
 36 38  1  0  0  0  0
  6  7  1  0  0  0  0
 17 18  1  0  0  0  0
 36 37  1  0  0  0  0
M  END
> <DATABASE_ID>
DB01669

> <DATABASE_NAME>
drugbank

> <SMILES>
CC(C)[C@H]1OC(=O)C2=CCCN2C(=O)C2=COC(=N2)CC(=O)C[C@H](O)\C=C(/C)\C=C\CNC(=O)\C=C\[C@H]1C

> <INCHI_IDENTIFIER>
InChI=1S/C28H35N3O7/c1-17(2)26-19(4)9-10-24(34)29-11-5-7-18(3)13-20(32)14-21(33)15-25-30-22(16-37-25)27(35)31-12-6-8-23(31)28(36)38-26/h5,7-10,13,16-17,19-20,26,32H,6,11-12,14-15H2,1-4H3,(H,29,34)/b7-5+,10-9+,18-13+/t19-,20-,26-/m1/s1

> <INCHI_KEY>
DAIKHDNSXMZDCU-FQTGFAPKSA-N

> <FORMULA>
C28H35N3O7

> <MOLECULAR_WEIGHT>
525.5934

> <EXACT_MASS>
525.247500489

> <JCHEM_ACCEPTOR_COUNT>
6

> <JCHEM_ATOM_COUNT>
73

> <JCHEM_AVERAGE_NEUTRAL_MICROSPECIES_CHARGE>
-6.227628687677097e-07

> <JCHEM_AVERAGE_POLARIZABILITY>
55.74056774297819

> <JCHEM_BIOAVAILABILITY>
1

> <JCHEM_DONOR_COUNT>
2

> <JCHEM_FORMAL_CHARGE>
0

> <JCHEM_GHOSE_FILTER>
0

> <JCHEM_IUPAC>
(10R,11R,12E,17E,19E,21S)-21-hydroxy-11,19-dimethyl-10-(propan-2-yl)-9,26-dioxa-3,15,28-triazatricyclo[23.2.1.0^{3,7}]octacosa-1(27),6,12,17,19,25(28)-hexaene-2,8,14,23-tetrone

> <ALOGPS_LOGP>
2.60

> <JCHEM_LOGP>
2.3764210819999994

> <ALOGPS_LOGS>
-3.94

> <JCHEM_MDDR_LIKE_RULE>
0

> <JCHEM_NEUTRAL_CHARGE>
0

> <JCHEM_NUMBER_OF_RINGS>
3

> <JCHEM_PHYSIOLOGICAL_CHARGE>
0

> <JCHEM_PKA>
14.694420976292205

> <JCHEM_PKA_STRONGEST_ACIDIC>
13.174180875660658

> <JCHEM_PKA_STRONGEST_BASIC>
-0.15766729670327034

> <JCHEM_POLAR_SURFACE_AREA>
139.04

> <JCHEM_REFRACTIVITY>
144.17179999999996

> <JCHEM_ROTATABLE_BOND_COUNT>
1

> <JCHEM_RULE_OF_FIVE>
0

> <ALOGPS_SOLUBILITY>
6.01e-02 g/l

> <JCHEM_TRADITIONAL_IUPAC>
biotin

> <JCHEM_VEBER_RULE>
0

> <DRUGBANK_ID>
DB01669

> <SECONDARY_ACCESSION_NUMBERS>
EXPT03225

> <DRUG_GROUPS>
experimental

> <GENERIC_NAME>
Virginiamycin M1

> <SYNONYMS>
Mikamycin A; Ostreogrycin A; Pristinamycin IIA; Streptogramin A; Virginiamycin factor M1; Virginiamycin M1

$$$$
