[NO NAME]
  Mrv0541 04211221232D          
Created with ChemWriter - http://chemwriter.com
 11 12  0  0  1  0            999 V2000
   -0.7145    0.4125    0.0000 C   0  0  0  0  0  0  0  0  0  0  0  0
   -0.7145   -0.4125    0.0000 C   0  0  0  0  0  0  0  0  0  0  0  0
    0.7145    0.4125    0.0000 O   0  0  0  0  0  0  0  0  0  0  0  0
    1.5395   -0.4125    0.0000 C   0  0  0  0  0  0  0  0  0  0  0  0
    0.7145   -0.4125    0.0000 C   0  0  0  0  0  0  0  0  0  0  0  0
    1.1270   -1.1270    0.0000 C   0  0  0  0  0  0  0  0  0  0  0  0
    0.0000    0.8250    0.0000 C   0  0  1  0  0  0  0  0  0  0  0  0
    0.0000    1.6500    0.0000 C   0  0  0  0  0  0  0  0  0  0  0  0
    0.0000   -0.8250    0.0000 C   0  0  1  0  0  0  0  0  0  0  0  0
   -0.3000    0.3000    0.0000 C   0  0  0  0  0  0  0  0  0  0  0  0
   -0.3000   -0.3000    0.0000 C   0  0  0  0  0  0  0  0  0  0  0  0
  9  5  1  0  0  0  0
  9  2  1  0  0  0  0
  5  3  1  0  0  0  0
  3  7  1  0  0  0  0
  7  1  1  0  0  0  0
  1  2  1  0  0  0  0
  7 10  1  1  0  0  0
  9 11  1  1  0  0  0
 11 10  1  0  0  0  0
  5  4  1  0  0  0  0
  5  6  1  0  0  0  0
  7  8  1  0  0  0  0
M  END
> <DATABASE_ID>
DB03852

> <DATABASE_NAME>
drugbank

> <SMILES>
C[C@@]12CC[C@@H](CC1)C(C)(C)O2

> <INCHI_IDENTIFIER>
InChI=1S/C10H18O/c1-9(2)8-4-6-10(3,11-9)7-5-8/h8H,4-7H2,1-3H3/t8-,10+

> <INCHI_KEY>
WEEGYLXZBRQIMU-WAAGHKOSSA-N

> <FORMULA>
C10H18O

> <MOLECULAR_WEIGHT>
154.2493

> <EXACT_MASS>
154.135765198

> <JCHEM_ACCEPTOR_COUNT>
1

> <JCHEM_ATOM_COUNT>
29

> <JCHEM_AVERAGE_NEUTRAL_MICROSPECIES_CHARGE>
6.2244227827592605e-12

> <JCHEM_AVERAGE_POLARIZABILITY>
18.53942553294828

> <JCHEM_BIOAVAILABILITY>
1

> <JCHEM_DONOR_COUNT>
0

> <JCHEM_FORMAL_CHARGE>
0

> <JCHEM_GHOSE_FILTER>
0

> <JCHEM_IUPAC>
(1s,4s)-1,3,3-trimethyl-2-oxabicyclo[2.2.2]octane

> <ALOGPS_LOGP>
3.36

> <JCHEM_LOGP>
2.3484196063333327

> <ALOGPS_LOGS>
-3.84

> <JCHEM_MDDR_LIKE_RULE>
0

> <JCHEM_NEUTRAL_CHARGE>
0

> <JCHEM_NUMBER_OF_RINGS>
2

> <JCHEM_PHYSIOLOGICAL_CHARGE>
0

> <JCHEM_PKA_STRONGEST_BASIC>
-4.205900916339655

> <JCHEM_POLAR_SURFACE_AREA>
9.23

> <JCHEM_REFRACTIVITY>
45.8609

> <JCHEM_ROTATABLE_BOND_COUNT>
0

> <JCHEM_RULE_OF_FIVE>
1

> <ALOGPS_SOLUBILITY>
2.25e-02 g/l

> <JCHEM_TRADITIONAL_IUPAC>
tetrahydrofolic acid

> <JCHEM_VEBER_RULE>
1

> <DRUGBANK_ID>
DB03852

> <SECONDARY_ACCESSION_NUMBERS>
EXPT00969

> <DRUG_GROUPS>
experimental; nutraceutical

> <GENERIC_NAME>
Eucalyptol

> <SYNONYMS>
1,8-cineol; 1,8-Cineole; 1,8-epoxy-p-menthane; 1,8-oxido-p-menthane; Cajeputol; Cineole; Eucalyptol; Zineol

> <PRODUCTS>
365 Whole Foods Market Anticavity/Antigingivitis Mouthwash; 365 Whole Foods Market Antigingivitis Mouthwash; Advanced Antiseptic; Advanced Antiseptic Citrus; Advanced Citrus; Advanced Citrus Antiseptic; Alsirub Ont; Amber Mouth Rinse; Amber Mouth Wash - Liq; Amber Mouthwash - Liq; Anitseptic Mouth Rinse; Antiseptic; Antiseptic Blue Mint; Antiseptic Blue Mint Mouthwash; Antiseptic Lil Drug Store Products; Antiseptic Mouth Rinse; Antiseptic Mouth Rinse - Liq; Antiseptic Mouth rinse; Antiseptic Mouthrinse; Antiseptic Rinse; Antiseptic Rinse Spring Mint; Antispetic; Antispetic Mouth Rinse; Aqua Blue Mouthwash; Aurora Blue Mint; Aurora Fresh Burst; Balminil Camphorub; Balminil Nasal Ointment; Being Well Antiseptic; Bentasil Green; Biocence; Borasol; Buenos Dias de Personna citrus flavour; Buenos Dias de Personna cool mint; Buenos Dias de Personna mint; Buenos Dias de Personna original; Cal Mo Dol Ont; Calmomusc Liq; Camocare Pain Relieving Cream; Camphorated Ointment Compound; Carboseptol; Cool Mint Antiseptic Mouthwash; Creo Grippe Enfants Sup; Creo Grippe Sup Adultes; DISCOUNT DRUG MART Original Flavor Mouthwash; Demo Cineol Inj; Demo-cineol Adultes/adults; Demo-cineol Enfants/children; Discount Drug Mart Blue Mint Mouthwash; Discount Drug Mart Spring Mint Mouthwash; Equate Tartar Control Plus; Family Dollar Antiseptic Mouth Rinse; Family Dollar Antiseptic Mouth Rinse Blue Mint; Family Dollar Antiseptic Mouth Rinse Spring Mint; Family Wellness Blue Mint; Family Wellness Green Mint; Family Wellness Original Amber; Family Wellness Ultra Mouthwash; Germ Free ARIA; Giant Eagle Cool Burst Antiseptic; Giant Eagle Cool Burst Mouthwash; Giant Eagle Original Antiseptic; Giant Eagle Original Mouthwash; Giant Eagle Spring Fresh Antiseptic; Giant Eagle Spring Fresh Mouthwash; Green MINT Mouth Rinse; Handy Solutions Cool Mint Listerine Antiseptic Mouthwash; Handy Solutions Listerine Antiseptic Mouthwash; Hyvee Antiseptic Blue Mint; Hyvee Antiseptic Mint; Hyvee Antiseptic Original; Hyvee Blue Mint; Hyvee Health Cool Blue Sugar Free; Hyvee Health Green Mint Sugar Free; Inarub Crm; Infraline Liq; Jack and Jill Rub; Keloid Healer Synergy for treatment of keloids; Kiro-rub; Kroger Cool Mint Boost Mouth; LISTERINE Original Antiseptic; Larynsol Loz; Listerine Advanced with Tartar Protection Antiseptic Citrus; Listerine Antiseptic; Listerine Cool Mint Antiseptic; Listerine FreshBurst Antiseptic; Listerine Gum Therapy Antiseptic; Listerine Naturals Antiseptic; Listerine Naturals Antiseptic - Herbal Mint; Listerine Ultraclean Antiseptic Arctic Mint; Listerine Ultraclean Antiseptic Cool Mint; Listerine Ultraclean Antiseptic Fresh Citrus; Listerine Ultraclean Arctic Mint; Listerine Ultraclean Fresh Citrus; Marco Rub Camphorated Ont; Marcs Blue Mint; Marcs Original; Marcs Spring Mint; Mastic Dent; Mouth Oral Shield; Mouth Rinse; Mouthwash; ORAL-DENT Blue Mint; Onguent Camphre Menthol Alsi; Oral Care Antiseptic; Oral Dent Amber; Oral Dent Blue Mint; Oral Dent Citrus; Oral Dent Fresh Mint; Original Antiseptic; P.O.V. Blue Mint; P.O.V. Spring Mint; P.O.V. Sugarfree; Pastilles Valda; Peppermint Mouth Rinse; Phytorub Ont; Poly Interferent Mouthwas; Pommade Au The Des Bois; Quality Choice Amber; Quality Choice Blue Mint; Quality Choice Sprng Mint; Rhino-vaccin; Rinse; Rosatra Synergy for treatment of Acne Rosacea; Royal Mouthwash Fresh and Clean Original Mint; Shaping with workout - loose skin revitalizer; Shaping without workout; Shopko Blue Mint; Shopko Ice Mint; Shopko Spring Mint; Slim Booster with natural slimming activators; Smart Sense Blue Mint; Smart Sense Citrus; Smart Sense Iceberg Blue; Smart Sense Original Flavor; Smart Sense Spring Mint; Soft Mint Listerine Antiseptic; Tartar Control; Tartar Control Plus; Tartar control; Tartar control plus; Thermo Rub Ont; Valda Pastilles; Valda Pastilles Lemon Flavoured; Vaporisateur Medicamente

$$$$
