[NO NAME]
  Mrv0541 04241205072D          
Created with ChemWriter - http://chemwriter.com
 34 35  0  0  0  0            999 V2000
    3.8861    1.4562    0.0000 C   0  0  0  0  0  0  0  0  0  0  0  0
    4.6006    1.8687    0.0000 N   0  0  0  0  0  0  0  0  0  0  0  0
    5.3151    1.4562    0.0000 C   0  0  0  0  0  0  0  0  0  0  0  0
    5.3151    0.6312    0.0000 N   0  0  0  0  0  0  0  0  0  0  0  0
    6.0296    1.8687    0.0000 N   0  0  0  0  0  0  0  0  0  0  0  0
    6.7440    1.4562    0.0000 C   0  0  0  0  0  0  0  0  0  0  0  0
    6.7440    0.6312    0.0000 N   0  0  0  0  0  0  0  0  0  0  0  0
    7.4585    1.8687    0.0000 N   0  0  0  0  0  0  0  0  0  0  0  0
    8.1730    1.4562    0.0000 C   0  0  0  0  0  0  0  0  0  0  0  0
    8.8752    1.8893    0.0000 C   0  0  0  0  0  0  0  0  0  0  0  0
    8.1969    0.6316    0.0000 C   0  0  0  0  0  0  0  0  0  0  0  0
    8.9231    0.2400    0.0000 C   0  0  0  0  0  0  0  0  0  0  0  0
    9.6013    1.4978    0.0000 C   0  0  0  0  0  0  0  0  0  0  0  0
    9.6253    0.6731    0.0000 C   0  0  0  0  0  0  0  0  0  0  0  0
   10.3397    0.2606    0.0000 Cl  0  0  0  0  0  0  0  0  0  0  0  0
    3.8861    0.6312    0.0000 C   0  0  0  0  0  0  0  0  0  0  0  0
    3.1716    0.2187    0.0000 C   0  0  0  0  0  0  0  0  0  0  0  0
    3.1716   -0.6063    0.0000 C   0  0  0  0  0  0  0  0  0  0  0  0
    3.8861   -1.0188    0.0000 C   0  0  0  0  0  0  0  0  0  0  0  0
    3.8861   -1.8438    0.0000 C   0  0  0  0  0  0  0  0  0  0  0  0
    4.6006   -2.2563    0.0000 N   0  0  0  0  0  0  0  0  0  0  0  0
    5.3150   -1.8438    0.0000 C   0  0  0  0  0  0  0  0  0  0  0  0
    5.3150   -1.0188    0.0000 N   0  0  0  0  0  0  0  0  0  0  0  0
    6.0295   -2.2563    0.0000 N   0  0  0  0  0  0  0  0  0  0  0  0
    6.7440   -1.8438    0.0000 C   0  0  0  0  0  0  0  0  0  0  0  0
    6.7440   -1.0188    0.0000 N   0  0  0  0  0  0  0  0  0  0  0  0
    7.4585   -2.2563    0.0000 N   0  0  0  0  0  0  0  0  0  0  0  0
    8.1729   -1.8438    0.0000 C   0  0  0  0  0  0  0  0  0  0  0  0
    8.8874   -0.6063    0.0000 C   0  0  0  0  0  0  0  0  0  0  0  0
    8.1729   -1.0188    0.0000 C   0  0  0  0  0  0  0  0  0  0  0  0
    8.8874   -2.2563    0.0000 C   0  0  0  0  0  0  0  0  0  0  0  0
    9.6019   -1.8438    0.0000 C   0  0  0  0  0  0  0  0  0  0  0  0
    9.6019   -1.0188    0.0000 C   0  0  0  0  0  0  0  0  0  0  0  0
   10.3163   -0.6063    0.0000 Cl  0  0  0  0  0  0  0  0  0  0  0  0
  1  2  1  0  0  0  0
  2  3  1  0  0  0  0
  3  5  1  0  0  0  0
  3  4  2  0  0  0  0
  5  6  1  0  0  0  0
  6  8  1  0  0  0  0
  6  7  2  0  0  0  0
  8  9  1  0  0  0  0
 10  9  2  0  0  0  0
  9 11  1  0  0  0  0
 10 13  1  0  0  0  0
 11 12  2  0  0  0  0
 12 14  1  0  0  0  0
 14 13  2  0  0  0  0
 14 15  1  0  0  0  0
  1 16  1  0  0  0  0
 16 17  1  0  0  0  0
 17 18  1  0  0  0  0
 18 19  1  0  0  0  0
 19 20  1  0  0  0  0
 20 21  1  0  0  0  0
 21 22  1  0  0  0  0
 22 23  2  0  0  0  0
 22 24  1  0  0  0  0
 24 25  1  0  0  0  0
 25 26  2  0  0  0  0
 25 27  1  0  0  0  0
 27 28  1  0  0  0  0
 30 28  2  0  0  0  0
 28 31  1  0  0  0  0
 29 30  1  0  0  0  0
 31 32  2  0  0  0  0
 32 33  1  0  0  0  0
 29 33  2  0  0  0  0
 33 34  1  0  0  0  0
M  END
> <DATABASE_ID>
DB00878

> <DATABASE_NAME>
drugbank

> <SMILES>
ClC1=CC=C(NC(=N)NC(=N)NCCCCCCNC(=N)NC(=N)NC2=CC=C(Cl)C=C2)C=C1

> <INCHI_IDENTIFIER>
InChI=1S/C22H30Cl2N10/c23-15-5-9-17(10-6-15)31-21(27)33-19(25)29-13-3-1-2-4-14-30-20(26)34-22(28)32-18-11-7-16(24)8-12-18/h5-12H,1-4,13-14H2,(H5,25,27,29,31,33)(H5,26,28,30,32,34)

> <INCHI_KEY>
GHXZTYHSJHQHIJ-UHFFFAOYSA-N

> <FORMULA>
C22H30Cl2N10

> <MOLECULAR_WEIGHT>
505.447

> <EXACT_MASS>
504.203196424

> <JCHEM_ACCEPTOR_COUNT>
10

> <JCHEM_ATOM_COUNT>
64

> <JCHEM_AVERAGE_NEUTRAL_MICROSPECIES_CHARGE>
3.7501797394834875

> <JCHEM_AVERAGE_POLARIZABILITY>
54.58213081067789

> <JCHEM_BIOAVAILABILITY>
0

> <JCHEM_DONOR_COUNT>
10

> <JCHEM_FORMAL_CHARGE>
0

> <JCHEM_GHOSE_FILTER>
0

> <JCHEM_IUPAC>
N-(4-chlorophenyl)-1-{N'-[6-(N-{[N'-(4-chlorophenyl)carbamimidamido]methanimidoyl}amino)hexyl]carbamimidamido}methanimidamide

> <ALOGPS_LOGP>
2.71

> <JCHEM_LOGP>
4.510369177333333

> <ALOGPS_LOGS>
-4.29

> <JCHEM_MDDR_LIKE_RULE>
0

> <JCHEM_NEUTRAL_CHARGE>
4

> <JCHEM_NUMBER_OF_RINGS>
2

> <JCHEM_PHYSIOLOGICAL_CHARGE>
4

> <JCHEM_PKA_STRONGEST_BASIC>
10.516535504977844

> <JCHEM_POLAR_SURFACE_AREA>
167.58

> <JCHEM_REFRACTIVITY>
181.71459999999993

> <JCHEM_ROTATABLE_BOND_COUNT>
9

> <JCHEM_RULE_OF_FIVE>
0

> <ALOGPS_SOLUBILITY>
2.61e-02 g/l

> <JCHEM_TRADITIONAL_IUPAC>
tetrahydrofolic acid

> <JCHEM_VEBER_RULE>
0

> <DRUGBANK_ID>
DB00878

> <SECONDARY_ACCESSION_NUMBERS>
APRD00545

> <DRUG_GROUPS>
approved; vet_approved; withdrawn

> <GENERIC_NAME>
Chlorhexidine

> <SYNONYMS>
1,1'-Hexamethylene bis(5-(p-chlorophenyl)biguanide); Chlorhexidin; Chlorhexidine; Chlorhexidinum; Cloresidina; Clorhexidina; N,N'-Bis(4-chlorophenyl)-3,12-diimino-2,4,11,13-tetraazatetradecanediimidamide

> <PRODUCTS>
(Fruli) Quick-Dry Disposable Hand Sanitizer; (Qiqing) Chlorhexidine Gluconate Alcohol Disinfectant; 3M Avagard; 3M SoluPrep; 3m Soluprep Sponge; Acclean Chlorhexidine Gluconate 0.12% Oral Rinse; Akilgeld Hand Sanitizer; Akilspray Hand Sanitizer; Alcohol Antibacterial Wipes; Alcohol Disinfectant Wipes; Anti Mucedine Feminine Wash; Anti-bac Hand; Antibacterial Protective Hand; Antimicrobial Foam Handwash; Antimicrobial Skin Cleanser; Antiseptic Body Cleanser; Antiseptic Cleanser Solution; Antiseptic Cleansing Wipes; Antiseptic First Aid Spray; Antiseptic Foam Handwash; Antiseptic Lotion Soap 2%; Antiseptic Skin Cleanser; Antiseptic Skin Cleanser Exidine-2 CHG; Antiseptic Solution; Aplicare Antiseptic Chlorhexidine Gluconate; Aplicare Chlorhexidine Gluconate 2% Solution; Avagard Chg; Avidene Surgical Scrub; B-good Hand and Skin Disinfecting Agent; BD E-Z Scrub; BD E-Z Scrub 107; Bacti-stat Chg; Bactigras; Bactoshield; Bactoshield CHG; Bactoshield CHG Chlorhexidine Gluconate; Bactoshield CHG Chlorhexidine Gluconate Solution; Bactoshield Chg 2%; Bactoshield Chg 4%; Baxedin; Baxedin 2% - 70%; Baxedin Liq 20%; Baxedin Pre-OP; Bei Ling Tong Bao Er Zheng Yuan Antibacterial Creams; Betasept; Bioprep; Bioprep Liq; Burn O Sol Spray; CLIP Liquid Sanitizer; Calgon Vestal 2% Chg Antimicrob.skin Cleans.; Calgon Vestal 4% Chg Antimicrob.skin Cleans.; Cardinal Health; Cardinal Health Antiseptic Skin Cleanser; Chinese Herb Essence Bacteriostatic Feminine Wash; Chlora-cleanze; ChloraPrep One-Step; Chloraprep; Chloraprep Liq 0.5%; Chloraprep Swabsticks; Chlorhexidine; Chlorhexidine 0.5% Liq; Chlorhexidine 2% Antiseptic Hand Wash; Chlorhexidine 4% Antiseptic Hand Wash; Chlorhexidine Alcohol Free; Chlorhexidine Gluconante; Chlorhexidine Gluconate; Chlorhexidine Gluconate 0.12% Oral Rinse; Chlorhexidine Gluconate 0.12% Oral Rinse, USP; Chlorhexidine Gluconate Applicator; Chlorhexidine Gluconate Solution 0.05%; Chlorhexidine Gluconate Solution 0.75% Antiseptic; Chlorhexidine Gluconate Solution USP 20%; Chlorhexidine Gluconate, 0.12% Oral Rinse Solution; Chlorhexidine Liq 0.05%; Chlorhexidine Solution; Chlorhexidine and Isopropyl Alcohol Prep Pads; Chlorhexidine and Isopropyl Alcohol Swabsticks; Chlorhexidine gluconate; Chlorhexidine-cetrimide Soltn Conc; Chlorhexseptic-liq 0.5mg/ml; Cida-stat Foam; Cida-stat Liq; DASH Chlorhexidine Gluconate 0.12% Oral Rinse; DEQGEL Advanced Hand Sanitizer; Denti-Care Denti-Rinse Chlorhexidine Gluconate Oral Rinse; Denticare Chlorhexidine Gluconate Oral Rinse 0.12%; DermacinRx Clorhexacin; DermacinRx Surgical ComboPak; DermacinRx Surgical PharmaPak; Dermawerx Surgical Plus Pak; Dermawerx Surgical PrePak; Dermsafe Chlorhexidine Gluconate Hand Sanitizer Lotion; Dermsafe Pc; Dexidin 0.5 Solution; Dexidin 2 Detergent; Dexidin 2 Solution; Dexidin 20; Dexidin Liq 4%; Disinfectant Fabric Wash; Disinfectant Spray(Speedy effect type); Disinfectant Wet Tissues; Dr. Dean; Dr. Zheng s acteriostatic gel; Dyna-Hex 2; Dyna-Hex 75; Dyna-hex 2; Dyna-hex 4; E-Z Scrub 107; E-Z Scrub 747 4%; E-Z Scrub Antimicrobial Foam Solution Containing 4% Chg; Endure 400 Scrub-Stat 4; Endure 420 Cida-Stat; Eyewash Station Additive Concentrate; Ezy-TM; First Aid Antiseptic Skin Cleanser; Flamazine C; Foam Care Chg Surgical Hand Scrub; Foam Safe; Foaming Chlorhexidine Gluconate; Foaming Hand Antiseptic With Chg 2%; Foaming Hand Wash; Freeman Packing Alcohol Wipe; Gelato Chlorohexidine; Germi Stat Gel 2%; Germi Stat Gel 4%; Germi-stat 0.5% Antiseptic Prep Gel; Germi-stat 2% Foaming Liquid; Germi-stat Prep Gel; Gum Paroex; Hand Sanitizer; Hand Sanitizer Biokaab; Hand Sanitizer Gel Biokaab; Hand Wipes; Hand wipes; HandSoap; Hands-free skin sanitizer; Henry Schein Antimicrobial Skin Cleanser; Hexicinide; Hexifoam-skin Disinfectant Aer 1%; Hexirex Antiseptic Skin Cleanser; Hibiclens; Hibiclens Antiseptic/antimicrobial Skin Cleanser; Hibiclens for Georgia Pacific; Hibidil; Hibistat; Hibistat Germicidal Hand Rinse; Hibitane Skin Cleanser; Hibitane Skin Cleanser 2%; Hibitane Skin Cleanser 4%; Hibitane Skin Cleanser Liq 4%; Hygenipak 2% Chg Foaming Skin Cleanser; Hygenipak 2% Chg Skin Cleanser; Hygienipak 4% Chg Foaming Skin Cleanser; Hygienipak 4% Chg Skin Cleanser; Hygienium; ICEKING Skin Expert Refreshing Body Roller; Ic-gel; Instillagel; JIANLIANG Antibacterial Sprays 10mL; Jisberry Hand Sanitizer; KIMVENT ORAL CARE Q4 Kit WITH CHG; Kimvent Oral Care Q2 Kit with CHG; KleerSight; LARA MED Antibacterial Wet Wipes; Laura Line Antibacterial Cream Soap 2%; Laura Line Chlorhexidine Antiseptic Soap; Liquivida Hydration; Liszt Hand sanitizer without washing; Loris - I.V.; Loris 2% Chg Body Cleanser/nettoyant Pour Le Corps; Loris 2% Chg Solution; Loris 2% Chg Wipe/serviette; Loris I.V. Pro - Prefilled Applicator With Solution; Loris I.V. Pro - Sponge; Loris I.V. Pro - Swabstick; Major Oral Rinse; Medifresh Hand Skin Antiseptic Disinfectant Wet Wipes; Microban Medical; Motherwort Herb Feminine Antibacterial Gels; NUPRO Chlorhexidine Gluconate; Noble 75% Alcohol Wipes; NuSurgePak Surgical Prep/CarePak; Oral Cleansing and Suctioning System, q2; Oral Cleansing and Suctioning System, q4; Oris Chx; Oro Clear; Oro-clense; Oronine H Ointment 1%; Ostar Antimicrobial Hand Soap 2% - Liquid; PS1 Aciurgy Pack; PS2 Aciurgy Pack; Paroex; Perichlor; Perichlor Without Alcohol; Peridex; Peridex Oral Rinse; Peridex Oral Rinse 0.12%; PerioChip; Periogard; Periogard (Chlorhexidine Gluconate); Periogard Alcohol Free; Perioselect Antimicrobial Sol 0.12%; PhysiciansCare Eyewash Station Additive Concentrate; Plant Herb Based Bacteriostatic Feminine Wash; Pre and Post Sx Pouch; Pre-Scrub II Surgical Hand Scrub; Pre-moistened Towelette; Prevantics Maxi Swabstick; Prevantics Swab; Prevantics Swabstick; Prevantics swabstick; Prevora Stage 1; Pro-dentx Chlorhexidene Oral Rinse; Protective Hand; Provon Antimicrobial Foam Handwash; Provon Antiseptic Lotion Soap With 2% Chg; Purell Antimicrobial Foam; Purell Antimicrobial Foam Handwash 2% Chg; Purell CS Foam Handwash 2% CHG; Purmist; Q2 Oral Care Kit with CHG; QCare Rx Oral Cleansing and Suctioning System; QCare Rx Oral Cleansing and Suctioning System, Q2; QCare Rx Oral Cleansing and Suctioning System, Q4; QCare Rx Petite Oral Cleansing and Suctioning System; Quick-Drying Hand Sanitizer; Quick-drying rinse-free hand skin disinfectant; ReadyPrep CHG; Rougier Clean Derm; Rougier Vap-chlorhexidine Gluconate 2% W/V; Rouhex G 20%; Rouhex G 4%; Rouhex G Liq 2%; Rugby Antiseptic Skin Cleanser; SAITENM Health Wet wipes; SANIDEP Advanced Sanitizer with Organic Extracts; Salvesept Crm; Sanital Antibacterial Hand Soap; Savlodil; Savlon Hospital Concentrate; Scrub; Scrub Care; Scrub Care Exidine -4 CHG; Scrub Care Exidine-2 CHG; Scrub Care Surgical Scrub Brush/nail Cleaner With Exidine 4; Scrub Stat 4 Foam Liq; Scrub, Scrub-Stat; Scrub, Scrub-Stat, Foam Safe, Micro-Guard; Scrub-Stat; Scrub-stat IV 4%; Seaqua X; Selpak Antibacterial Wet Wipes; Septi-san; Serdaen; Skin Antisepsis, Oral Cleansing and Nasal Antisepsis System; Skin antisepsis, oral cleansing, nasal antisepsis; Skinvisible Chlorhexidine Formula Hand Sanitizer Lotion; Sky Oral Rinse; Smart San CHG; Smart Sense Antiseptic Skin Cleanser; Soft Care 2% Chg Antimicrobial Skin Cleanser; Soft Care Antiseptic Hand Soap; Solunet C Brosse 4%; Soluprep; Soluprep AQ; Soluprep AQ Applicator; Soluprep AQ Sponge; Soluprep AQ Swab; Soluprep AQ Wipe; Soluprep Antiseptic Skin Cleanser Preoperative Kit; Soluprep Antiseptic Skin Cleanser Sponge; Soluprep Applicator; Soluprep Ld Sponge; Soluprep Qd Solution; Soluprep Qd Swab; Soluprep Qd Wipe; Soluprep Swab; Soluprep Wipe; Spectro Gram 2 Skin Cleanser; Spectro Tar Antiseptic Shampoo; Spray On Plastic Bandage Aerosol; Spray On Plastic Bandage Non-aerosol; Stanhexidine 2% With Isopropyl Alcohol 4%; Stanhexidine 20%; Stanhexidine 4% With Isopropyl Alcohol 4%; Stanhexidine Aqueous 2% With 4% Isopropyl Alcohol; Stanhexidine Red Tincture 0.5%; Stat Touch 2 Antimicrobial Skin Cleanser; Steri-clean; Steri-stat Liq 2.0%; Steri-stat Liq 20%; Steri-stat Liq 4.0%; Steri-stat Tincture (tinted) Antis Prep Gel; Sterigel Plus; Sterixin 0.05%; Sunberry Rinse free Hand Sanitizer; Surgical Continuum System; Surgical and healthcare personnel hand antiseptic with moisturizers; Tai Yu Ling Antibacterial Sprays 10mL; Ultrastat; WhyteDerm SurgiPak; X-pur Chlorhexidine; Yu Ding Antibacterial Sprays 10mL; Zedoary Oils Feminine Antibacterial Gels

> <INTERNATIONAL_BRANDS>
Cida-Stat; Corsodyl; DentiSept; Dyna-Hex; Exidine; Hexadol; Hibiscrub; Hibitane; Microderm; Periogard Oral Rinse; Pharmaseal Scrub Care; Prevacare R; Rotersept; Sterilon; Tubulicid

> <SALTS>
Chlorhexidine acetate; Chlorhexidine gluconate; Chlorhexidine hydrochloride

$$$$
