[NO NAME]
  Mrv1909 06271922562D          

 34 37  0  0  1  0            999 V2000
   -0.7145    0.4125    0.0000 C   0  0  1  0  0  0  0  0  0  0  0  0
   -0.7145   -0.4125    0.0000 C   0  0  0  0  0  0  0  0  0  0  0  0
    0.7145   -0.4125    0.0000 C   0  0  0  0  0  0  0  0  0  0  0  0
    0.0000   -0.8250    0.0000 C   0  0  0  0  0  0  0  0  0  0  0  0
    0.0000    0.8250    0.0000 C   0  0  2  0  0  0  0  0  0  0  0  0
    0.7145    0.4125    0.0000 C   0  0  2  0  0  0  0  0  0  0  0  0
    2.6985    1.2374    0.0000 C   0  0  2  0  0  0  0  0  0  0  0  0
    2.2134    0.5699    0.0000 C   0  0  0  0  0  0  0  0  0  0  0  0
    3.5235    1.2374    0.0000 C   0  0  0  0  0  0  0  0  0  0  0  0
    0.0000    1.6500    0.0000 C   0  0  1  0  0  0  0  0  0  0  0  0
   -0.7145    2.0625    0.0000 O   0  0  0  0  0  0  0  0  0  0  0  0
   -1.4290    0.8250    0.0000 C   0  0  0  0  0  0  0  0  0  0  0  0
   -1.4290   -0.8250    0.0000 C   0  0  0  0  0  0  0  0  0  0  0  0
   -2.1434    0.4125    0.0000 C   0  0  0  0  0  0  0  0  0  0  0  0
   -2.1434   -0.4125    0.0000 C   0  0  0  0  0  0  0  0  0  0  0  0
   -2.8579   -0.8250    0.0000 O   0  0  0  0  0  0  0  0  0  0  0  0
    0.0000    0.0000    0.0000 Cl  0  0  0  0  0  0  0  0  0  0  0  0
    0.7145    1.2374    0.0000 H   0  0  0  0  0  0  0  0  0  0  0  0
    1.4289    1.6500    0.0000 C   0  0  1  0  0  0  0  0  0  0  0  0
    1.4289    2.4749    0.0000 C   0  0  0  0  0  0  0  0  0  0  0  0
    1.4289    0.8250    0.0000 C   0  0  2  0  0  0  0  0  0  0  0  0
   -0.7145    1.2374    0.0000 C   0  0  0  0  0  0  0  0  0  0  0  0
    0.7145    2.0625    0.0000 C   0  0  0  0  0  0  0  0  0  0  0  0
    1.4289    0.0000    0.0000 H   0  0  0  0  0  0  0  0  0  0  0  0
    3.6424    1.9049    0.0000 C   0  0  0  0  0  0  0  0  0  0  0  0
    2.9280    2.3174    0.0000 C   0  0  0  0  0  0  0  0  0  0  0  0
    2.9280    3.1424    0.0000 O   0  0  0  0  0  0  0  0  0  0  0  0
    4.3569    2.3174    0.0000 O   0  0  0  0  0  0  0  0  0  0  0  0
    0.0001    3.3000    0.0000 C   0  0  0  0  0  0  0  0  0  0  0  0
    2.2134    1.9049    0.0000 C   0  0  1  0  0  0  0  0  0  0  0  0
    2.2134    2.8875    0.0000 O   0  0  0  0  0  0  0  0  0  0  0  0
    1.4289    3.3000    0.0000 C   0  0  0  0  0  0  0  0  0  0  0  0
    1.4289    4.1250    0.0000 O   0  0  0  0  0  0  0  0  0  0  0  0
    0.7145    2.8875    0.0000 C   0  0  0  0  0  0  0  0  0  0  0  0
  1 12  1  0  0  0  0
  1 22  1  1  0  0  0
  1  2  1  0  0  0  0
  2 13  2  0  0  0  0
  4  2  1  0  0  0  0
  3  4  1  0  0  0  0
  5  1  1  0  0  0  0
  5 10  1  0  0  0  0
  5 17  1  6  0  0  0
  6  5  1  0  0  0  0
  6  3  1  0  0  0  0
 21  6  1  0  0  0  0
  6 18  1  1  0  0  0
 30  7  1  0  0  0  0
  7  8  1  0  0  0  0
  7  9  1  1  0  0  0
 21  8  1  0  0  0  0
 10 23  1  0  0  0  0
 10 11  1  1  0  0  0
 12 14  2  0  0  0  0
 13 15  1  0  0  0  0
 14 15  1  0  0  0  0
 15 16  2  0  0  0  0
 19 30  1  0  0  0  0
 21 19  1  0  0  0  0
 19 23  1  0  0  0  0
 19 20  1  1  0  0  0
 21 24  1  6  0  0  0
 30 26  1  0  0  0  0
 26 25  1  0  0  0  0
 25 28  1  0  0  0  0
 26 27  2  0  0  0  0
 31 32  1  0  0  0  0
 32 34  1  0  0  0  0
 34 29  1  0  0  0  0
 30 31  1  6  0  0  0
 32 33  2  0  0  0  0
M  END
> <DATABASE_ID>
DB14221

> <DATABASE_NAME>
drugbank

> <SMILES>
[H][C@@]12C[C@H](C)[C@](OC(=O)CC)(C(=O)CO)[C@@]1(C)C[C@H](O)[C@@]1(Cl)[C@@]2([H])CCC2=CC(=O)C=C[C@]12C

> <INCHI_IDENTIFIER>
InChI=1S/C25H33ClO6/c1-5-21(31)32-25(20(30)13-27)14(2)10-18-17-7-6-15-11-16(28)8-9-22(15,3)24(17,26)19(29)12-23(18,25)4/h8-9,11,14,17-19,27,29H,5-7,10,12-13H2,1-4H3/t14-,17-,18-,19-,22-,23-,24-,25-/m0/s1

> <INCHI_KEY>
OHYGPBKGZGRQKT-XGQKBEPLSA-N

> <FORMULA>
C25H33ClO6

> <MOLECULAR_WEIGHT>
464.98

> <EXACT_MASS>
464.1965665

> <JCHEM_ACCEPTOR_COUNT>
5

> <JCHEM_ATOM_COUNT>
65

> <JCHEM_AVERAGE_POLARIZABILITY>
48.357284714059176

> <JCHEM_BIOAVAILABILITY>
1

> <JCHEM_DONOR_COUNT>
2

> <JCHEM_FORMAL_CHARGE>
0

> <JCHEM_GHOSE_FILTER>
1

> <JCHEM_IUPAC>
(1R,2S,3aS,3bS,9aS,9bR,10S,11aS)-9b-chloro-10-hydroxy-1-(2-hydroxyacetyl)-2,9a,11a-trimethyl-7-oxo-1H,2H,3H,3aH,3bH,4H,5H,7H,9aH,9bH,10H,11H,11aH-cyclopenta[a]phenanthren-1-yl propanoate

> <ALOGPS_LOGP>
2.50

> <JCHEM_LOGP>
3.286731019000001

> <ALOGPS_LOGS>
-4.77

> <JCHEM_MDDR_LIKE_RULE>
0

> <JCHEM_NUMBER_OF_RINGS>
4

> <JCHEM_PHYSIOLOGICAL_CHARGE>
0

> <JCHEM_PKA>
14.123972494079855

> <JCHEM_PKA_STRONGEST_ACIDIC>
13.518679626527199

> <JCHEM_PKA_STRONGEST_BASIC>
-3.2979028044747767

> <JCHEM_POLAR_SURFACE_AREA>
100.9

> <JCHEM_REFRACTIVITY>
121.01439999999997

> <JCHEM_ROTATABLE_BOND_COUNT>
5

> <JCHEM_RULE_OF_FIVE>
1

> <ALOGPS_SOLUBILITY>
7.87e-03 g/l

> <JCHEM_TRADITIONAL_IUPAC>
(2S,3S,4S,5R)-3,4,5-trihydroxy-6-{[1-(isopropylamino)-3-(naphthalen-1-yloxy)propan-2-yl]oxy}oxane-2-carboxylic acid

> <JCHEM_VEBER_RULE>
0

> <DRUGBANK_ID>
DB14221

> <DRUG_GROUPS>
experimental

> <GENERIC_NAME>
Beclomethasone 17-monopropionate

> <SYNONYMS>
17-BMP; Beclomethasone 17-propionate; Beclomethasone-17-monopropionate

$$$$
