039
  Mrv0541 02241213012D          

 31 35  0  0  0  0            999 V2000
    0.7293    1.6268    0.0000 C   0  0  0  0  0  0  0  0  0  0  0  0
    0.7293    0.8018    0.0000 O   0  0  0  0  0  0  0  0  0  0  0  0
    1.4438    0.3893    0.0000 C   0  0  0  0  0  0  0  0  0  0  0  0
    2.1583    0.8018    0.0000 C   0  0  0  0  0  0  0  0  0  0  0  0
    2.8727    0.3893    0.0000 C   0  0  0  0  0  0  0  0  0  0  0  0
    2.8727   -0.4357    0.0000 C   0  0  0  0  0  0  0  0  0  0  0  0
    2.1583   -0.8482    0.0000 C   0  0  0  0  0  0  0  0  0  0  0  0
    1.4438   -0.4357    0.0000 C   0  0  0  0  0  0  0  0  0  0  0  0
    0.7293   -0.8482    0.0000 N   0  0  0  0  0  0  0  0  0  0  0  0
    0.7293   -1.6732    0.0000 C   0  0  0  0  0  0  0  0  0  0  0  0
    1.4438   -2.0857    0.0000 O   0  0  0  0  0  0  0  0  0  0  0  0
    0.0148   -2.0857    0.0000 C   0  0  0  0  0  0  0  0  0  0  0  0
    0.0148   -2.9107    0.0000 C   0  0  0  0  0  0  0  0  0  0  0  0
    0.7293   -3.3232    0.0000 Cl  0  0  0  0  0  0  0  0  0  0  0  0
   -0.6996   -3.3232    0.0000 C   0  0  0  0  0  0  0  0  0  0  0  0
   -1.4141   -2.9107    0.0000 C   0  0  0  0  0  0  0  0  0  0  0  0
   -1.4141   -2.0857    0.0000 C   0  0  0  0  0  0  0  0  0  0  0  0
   -0.6996   -1.6732    0.0000 C   0  0  0  0  0  0  0  0  0  0  0  0
   -0.6996   -0.8482    0.0000 N   0  0  0  0  0  0  0  0  0  0  0  0
    0.0148   -0.4357    0.0000 C   0  0  0  0  0  0  0  0  0  0  0  0
    0.0148    0.3893    0.0000 C   0  0  0  0  0  0  0  0  0  0  0  0
   -0.6996    0.8018    0.0000 S   0  0  0  0  0  0  0  0  0  0  0  0
   -0.6996    1.6268    0.0000 C   0  0  0  0  0  0  0  0  0  0  0  0
   -1.4141    2.0393    0.0000 C   0  0  0  0  0  0  0  0  0  0  0  0
   -2.1987    1.7844    0.0000 N   0  0  0  0  0  0  0  0  0  0  0  0
   -2.6836    2.4518    0.0000 C   0  0  0  0  0  0  0  0  0  0  0  0
   -2.1987    3.1192    0.0000 N   0  0  0  0  0  0  0  0  0  0  0  0
   -1.4141    2.8643    0.0000 C   0  0  0  0  0  0  0  0  0  0  0  0
   -0.6996    3.2768    0.0000 N   0  0  0  0  0  0  0  0  0  0  0  0
    0.0148    2.8643    0.0000 C   0  0  0  0  0  0  0  0  0  0  0  0
    0.0148    2.0393    0.0000 N   0  0  0  0  0  0  0  0  0  0  0  0
  1  2  1  0  0  0  0
  2  3  1  0  0  0  0
  3  4  2  0  0  0  0
  3  8  1  0  0  0  0
  4  5  1  0  0  0  0
  5  6  2  0  0  0  0
  6  7  1  0  0  0  0
  7  8  2  0  0  0  0
  8  9  1  0  0  0  0
  9 10  1  0  0  0  0
  9 20  1  0  0  0  0
 10 11  2  0  0  0  0
 10 12  1  0  0  0  0
 12 13  2  0  0  0  0
 12 18  1  0  0  0  0
 13 14  1  0  0  0  0
 13 15  1  0  0  0  0
 15 16  2  0  0  0  0
 16 17  1  0  0  0  0
 17 18  2  0  0  0  0
 18 19  1  0  0  0  0
 19 20  2  0  0  0  0
 20 21  1  0  0  0  0
 21 22  1  0  0  0  0
 22 23  1  0  0  0  0
 23 24  2  0  0  0  0
 23 31  1  0  0  0  0
 24 25  1  0  0  0  0
 24 28  1  0  0  0  0
 25 26  2  0  0  0  0
 26 27  1  0  0  0  0
 27 28  1  0  0  0  0
 28 29  2  0  0  0  0
 29 30  1  0  0  0  0
 30 31  2  0  0  0  0
M  END
> <DATABASE_ID>
DB06831

> <DATABASE_NAME>
drugbank

> <SMILES>
COC1=CC=CC=C1N1C(=O)C2=C(Cl)C=CC=C2N=C1CSC1=C2N=CNC2=NC=N1

> <INCHI_IDENTIFIER>
InChI=1S/C21H15ClN6O2S/c1-30-15-8-3-2-7-14(15)28-16(27-13-6-4-5-12(22)17(13)21(28)29)9-31-20-18-19(24-10-23-18)25-11-26-20/h2-8,10-11H,9H2,1H3,(H,23,24,25,26)

> <INCHI_KEY>
UMMYTDJYDSTEMB-UHFFFAOYSA-N

> <FORMULA>
C21H15ClN6O2S

> <MOLECULAR_WEIGHT>
450.901

> <EXACT_MASS>
450.066572151

> <JCHEM_ACCEPTOR_COUNT>
6

> <JCHEM_ATOM_COUNT>
46

> <JCHEM_AVERAGE_NEUTRAL_MICROSPECIES_CHARGE>
-0.00116240727460011

> <JCHEM_AVERAGE_POLARIZABILITY>
44.567309088615936

> <JCHEM_BIOAVAILABILITY>
1

> <JCHEM_DONOR_COUNT>
1

> <JCHEM_FORMAL_CHARGE>
0

> <JCHEM_GHOSE_FILTER>
1

> <JCHEM_IUPAC>
5-chloro-3-(2-methoxyphenyl)-2-[(9H-purin-6-ylsulfanyl)methyl]-3,4-dihydroquinazolin-4-one

> <ALOGPS_LOGP>
2.74

> <JCHEM_LOGP>
3.4175739183333333

> <ALOGPS_LOGS>
-4.85

> <JCHEM_MDDR_LIKE_RULE>
0

> <JCHEM_NEUTRAL_CHARGE>
0

> <JCHEM_NUMBER_OF_RINGS>
5

> <JCHEM_PHYSIOLOGICAL_CHARGE>
0

> <JCHEM_PKA_STRONGEST_ACIDIC>
9.913086839020565

> <JCHEM_PKA_STRONGEST_BASIC>
2.7619330300988083

> <JCHEM_POLAR_SURFACE_AREA>
96.36

> <JCHEM_REFRACTIVITY>
121.5785

> <JCHEM_ROTATABLE_BOND_COUNT>
4

> <JCHEM_RULE_OF_FIVE>
1

> <ALOGPS_SOLUBILITY>
6.41e-03 g/l

> <JCHEM_TRADITIONAL_IUPAC>
tetrahydrofolic acid

> <JCHEM_VEBER_RULE>
0

> <DRUGBANK_ID>
DB06831

> <DRUG_GROUPS>
experimental

> <GENERIC_NAME>
2-((9H-PURIN-6-YLTHIO)METHYL)-5-CHLORO-3-(2-METHOXYPHENYL)QUINAZOLIN-4(3H)-ONE

$$$$
