1002
  Mrv0541 02231215102D          

 21 22  0  0  1  0            999 V2000
    5.9370   -0.2063    0.0000 O   0  0  0  0  0  0  0  0  0  0  0  0
    4.5080    1.4438    0.0000 N   0  0  0  0  0  0  0  0  0  0  0  0
    4.5080   -0.2063    0.0000 N   0  0  0  0  0  0  0  0  0  0  0  0
    5.2224    1.0313    0.0000 C   0  0  1  0  0  0  0  0  0  0  0  0
    5.9370    1.4438    0.0000 C   0  0  0  0  0  0  0  0  0  0  0  0
    4.5080    2.2688    0.0000 C   0  0  0  0  0  0  0  0  0  0  0  0
    5.9370    2.2688    0.0000 C   0  0  0  0  0  0  0  0  0  0  0  0
    5.2224    2.6813    0.0000 C   0  0  0  0  0  0  0  0  0  0  0  0
    3.7935    1.0313    0.0000 C   0  0  0  0  0  0  0  0  0  0  0  0
    5.2224    0.2063    0.0000 C   0  0  0  0  0  0  0  0  0  0  0  0
    3.0791    1.4438    0.0000 C   0  0  0  0  0  0  0  0  0  0  0  0
    2.3645    1.0313    0.0000 C   0  0  0  0  0  0  0  0  0  0  0  0
    4.5080   -1.0313    0.0000 C   0  0  0  0  0  0  0  0  0  0  0  0
    1.6500    1.4438    0.0000 C   0  0  0  0  0  0  0  0  0  0  0  0
    5.2224   -1.4438    0.0000 C   0  0  0  0  0  0  0  0  0  0  0  0
    3.7935   -1.4438    0.0000 C   0  0  0  0  0  0  0  0  0  0  0  0
    5.2224   -2.2688    0.0000 C   0  0  0  0  0  0  0  0  0  0  0  0
    3.7935   -2.2688    0.0000 C   0  0  0  0  0  0  0  0  0  0  0  0
    5.9370   -1.0313    0.0000 C   0  0  0  0  0  0  0  0  0  0  0  0
    3.0791   -1.0313    0.0000 C   0  0  0  0  0  0  0  0  0  0  0  0
    4.5080   -2.6813    0.0000 C   0  0  0  0  0  0  0  0  0  0  0  0
  1 10  2  0  0  0  0
  2  4  1  0  0  0  0
  2  6  1  0  0  0  0
  2  9  1  0  0  0  0
  3 10  1  0  0  0  0
  3 13  1  0  0  0  0
  4  5  1  0  0  0  0
  4 10  1  1  0  0  0
  5  7  1  0  0  0  0
  6  8  1  0  0  0  0
  7  8  1  0  0  0  0
  9 11  1  0  0  0  0
 11 12  1  0  0  0  0
 12 14  1  0  0  0  0
 13 15  2  0  0  0  0
 13 16  1  0  0  0  0
 15 17  1  0  0  0  0
 15 19  1  0  0  0  0
 16 18  2  0  0  0  0
 16 20  1  0  0  0  0
 17 21  2  0  0  0  0
 18 21  1  0  0  0  0
M  END
> <DATABASE_ID>
DB01002

> <DATABASE_NAME>
drugbank

> <SMILES>
CCCCN1CCCC[C@H]1C(=O)NC1=C(C)C=CC=C1C

> <INCHI_IDENTIFIER>
InChI=1S/C18H28N2O/c1-4-5-12-20-13-7-6-11-16(20)18(21)19-17-14(2)9-8-10-15(17)3/h8-10,16H,4-7,11-13H2,1-3H3,(H,19,21)/t16-/m0/s1

> <INCHI_KEY>
LEBVLXFERQHONN-INIZCTEOSA-N

> <FORMULA>
C18H28N2O

> <MOLECULAR_WEIGHT>
288.4277

> <EXACT_MASS>
288.220163528

> <JCHEM_ACCEPTOR_COUNT>
2

> <JCHEM_ATOM_COUNT>
49

> <JCHEM_AVERAGE_NEUTRAL_MICROSPECIES_CHARGE>
0.9097361875100665

> <JCHEM_AVERAGE_POLARIZABILITY>
34.428863657410304

> <JCHEM_BIOAVAILABILITY>
1

> <JCHEM_DONOR_COUNT>
1

> <JCHEM_FORMAL_CHARGE>
0

> <JCHEM_GHOSE_FILTER>
1

> <JCHEM_IUPAC>
(2S)-1-butyl-N-(2,6-dimethylphenyl)piperidine-2-carboxamide

> <ALOGPS_LOGP>
3.31

> <JCHEM_LOGP>
4.515518884333334

> <ALOGPS_LOGS>
-3.47

> <JCHEM_MDDR_LIKE_RULE>
0

> <JCHEM_NEUTRAL_CHARGE>
1

> <JCHEM_NUMBER_OF_RINGS>
2

> <JCHEM_PHYSIOLOGICAL_CHARGE>
1

> <JCHEM_PKA_STRONGEST_ACIDIC>
13.623539229353204

> <JCHEM_PKA_STRONGEST_BASIC>
8.003403055870814

> <JCHEM_POLAR_SURFACE_AREA>
32.34

> <JCHEM_REFRACTIVITY>
90.19330000000001

> <JCHEM_ROTATABLE_BOND_COUNT>
5

> <JCHEM_RULE_OF_FIVE>
1

> <ALOGPS_SOLUBILITY>
9.77e-02 g/l

> <JCHEM_TRADITIONAL_IUPAC>
tetrahydrofolic acid

> <JCHEM_VEBER_RULE>
1

> <DRUGBANK_ID>
DB01002

> <SECONDARY_ACCESSION_NUMBERS>
APRD00110

> <DRUG_GROUPS>
approved; investigational

> <GENERIC_NAME>
Levobupivacaine

> <SYNONYMS>
(-)-bupivacaine; (S)-1-butyl-2',6'-pipecoloxylidide; (S)-bupivacaine; L-(-)-1-Butyl-2',6'-pipecoloxylidide; L-(−)-bupivacaine; Levobupivacaína; Levobupivacaine

> <INTERNATIONAL_BRANDS>
Chirocaine; Novabupi

> <SALTS>
Levobupivacaine hydrochloride

$$$$
