1053
  Mrv0541 02231215122D          

 24 26  0  0  1  0            999 V2000
    7.6201    1.0703    0.0000 S   0  0  0  0  0  0  0  0  0  0  0  0
    5.4215   -0.5975    0.0000 O   0  0  0  0  0  0  0  0  0  0  0  0
    7.3230   -1.6623    0.0000 O   0  0  0  0  0  0  0  0  0  0  0  0
    8.6819   -1.2207    0.0000 O   0  0  0  0  0  0  0  0  0  0  0  0
    4.4089    0.3950    0.0000 O   0  0  0  0  0  0  0  0  0  0  0  0
    6.8354   -0.0096    0.0000 N   0  0  0  0  0  0  0  0  0  0  0  0
    5.4215    1.4034    0.0000 N   0  0  0  0  0  0  0  0  0  0  0  0
    6.8354    0.8154    0.0000 C   0  0  1  0  0  0  0  0  0  0  0  0
    8.1049    0.4029    0.0000 C   0  0  0  0  0  0  0  0  0  0  0  0
    7.6201   -0.2646    0.0000 C   0  0  2  0  0  0  0  0  0  0  0  0
    6.0036    0.8188    0.0000 C   0  0  1  0  0  0  0  0  0  0  0  0
    6.0036   -0.0130    0.0000 C   0  0  0  0  0  0  0  0  0  0  0  0
    8.7724   -0.0820    0.0000 C   0  0  0  0  0  0  0  0  0  0  0  0
    8.7724    0.8878    0.0000 C   0  0  0  0  0  0  0  0  0  0  0  0
    7.8750   -1.0491    0.0000 C   0  0  0  0  0  0  0  0  0  0  0  0
    4.6241    1.1915    0.0000 C   0  0  0  0  0  0  0  0  0  0  0  0
    4.0420    1.7760    0.0000 C   0  0  0  0  0  0  0  0  0  0  0  0
    3.2446    1.5642    0.0000 C   0  0  0  0  0  0  0  0  0  0  0  0
    3.0295    0.7677    0.0000 C   0  0  0  0  0  0  0  0  0  0  0  0
    2.6625    2.1487    0.0000 C   0  0  0  0  0  0  0  0  0  0  0  0
    2.2322    0.5558    0.0000 C   0  0  0  0  0  0  0  0  0  0  0  0
    1.8651    1.9368    0.0000 C   0  0  0  0  0  0  0  0  0  0  0  0
    1.6500    1.1404    0.0000 C   0  0  0  0  0  0  0  0  0  0  0  0
    6.7335    1.4675    0.0000 H   0  0  0  0  0  0  0  0  0  0  0  0
  1  8  1  0  0  0  0
  1  9  1  0  0  0  0
  2 12  2  0  0  0  0
  3 15  1  0  0  0  0
  4 15  2  0  0  0  0
  5 16  2  0  0  0  0
  6  8  1  0  0  0  0
  6 10  1  0  0  0  0
  6 12  1  0  0  0  0
 11  7  1  1  0  0  0
  7 16  1  0  0  0  0
  8 11  1  0  0  0  0
  8 24  1  6  0  0  0
  9 10  1  0  0  0  0
  9 13  1  0  0  0  0
  9 14  1  0  0  0  0
 10 15  1  6  0  0  0
 11 12  1  0  0  0  0
 16 17  1  0  0  0  0
 17 18  1  0  0  0  0
 18 19  2  0  0  0  0
 18 20  1  0  0  0  0
 19 21  1  0  0  0  0
 20 22  2  0  0  0  0
 21 23  2  0  0  0  0
 22 23  1  0  0  0  0
M  END
> <DATABASE_ID>
DB01053

> <DATABASE_NAME>
drugbank

> <SMILES>
[H][C@]12SC(C)(C)[C@@H](N1C(=O)[C@H]2NC(=O)CC1=CC=CC=C1)C(O)=O

> <INCHI_IDENTIFIER>
InChI=1S/C16H18N2O4S/c1-16(2)12(15(21)22)18-13(20)11(14(18)23-16)17-10(19)8-9-6-4-3-5-7-9/h3-7,11-12,14H,8H2,1-2H3,(H,17,19)(H,21,22)/t11-,12+,14-/m1/s1

> <INCHI_KEY>
JGSARLDLIJGVTE-MBNYWOFBSA-N

> <FORMULA>
C16H18N2O4S

> <MOLECULAR_WEIGHT>
334.39

> <EXACT_MASS>
334.098727764

> <JCHEM_ACCEPTOR_COUNT>
4

> <JCHEM_ATOM_COUNT>
41

> <JCHEM_AVERAGE_NEUTRAL_MICROSPECIES_CHARGE>
-0.9996694606048797

> <JCHEM_AVERAGE_POLARIZABILITY>
33.52931273995759

> <JCHEM_BIOAVAILABILITY>
1

> <JCHEM_DONOR_COUNT>
2

> <JCHEM_FORMAL_CHARGE>
0

> <JCHEM_GHOSE_FILTER>
1

> <JCHEM_IUPAC>
(2S,5R,6R)-3,3-dimethyl-7-oxo-6-(2-phenylacetamido)-4-thia-1-azabicyclo[3.2.0]heptane-2-carboxylic acid

> <ALOGPS_LOGP>
1.92

> <JCHEM_LOGP>
1.0806779529999997

> <ALOGPS_LOGS>
-3.07

> <JCHEM_MDDR_LIKE_RULE>
0

> <JCHEM_NEUTRAL_CHARGE>
-1

> <JCHEM_NUMBER_OF_RINGS>
3

> <JCHEM_PHYSIOLOGICAL_CHARGE>
-1

> <JCHEM_PKA>
12.119397282151532

> <JCHEM_PKA_STRONGEST_ACIDIC>
3.529281016771107

> <JCHEM_PKA_STRONGEST_BASIC>
-2.7642193970852755

> <JCHEM_POLAR_SURFACE_AREA>
86.71

> <JCHEM_REFRACTIVITY>
84.52780000000003

> <JCHEM_ROTATABLE_BOND_COUNT>
4

> <JCHEM_RULE_OF_FIVE>
1

> <ALOGPS_SOLUBILITY>
2.85e-01 g/l

> <JCHEM_TRADITIONAL_IUPAC>
biotin

> <JCHEM_VEBER_RULE>
0

> <DRUGBANK_ID>
DB01053

> <SECONDARY_ACCESSION_NUMBERS>
APRD00646; DB11612

> <DRUG_GROUPS>
approved; vet_approved

> <GENERIC_NAME>
Benzylpenicillin

> <SYNONYMS>
(2S,5R,6R)-3,3-dimethyl-7-oxo-6-(phenylacetamido)-4-thia-1-azabicyclo[3.2.0]heptane-2-carboxylic acid; 6-(2-phenylacetamido)penicillanic acid; Bencilpenicilina; Bensylpenicillin; Benzyl benicillin; Benzylpenicillin; BenzylpÃ©nicilline; Benzylpenicillinic acid; Benzylpenicillinum; Free penicillin II; PCG; Penicillin G; PG

> <PRODUCTS>
Bicillin A-P Injection Pws; Bicillin C-R 900/300; Bicillin CR; Bicillin L-A; Bicillin L-A Injection Sus 1200000iu/2ml; Buffered Penicillin G Potassium; Crystapen; Crystapen 1 000 000 Iu Pws; Crystapen 10000000 Iu Pws; Crystapen 10m I.U.; Crystapen 1m I.U.; Crystapen 5m I.U.; Megacillin 250 Pedi Sus; Megacillin 500 Sus; Megacillin 500 Tablets; Novo-pen G 500; Penicillin G K for Inj USP 1000000u/vial; Penicillin G K for Inj,usp 10000000u/vial; Penicillin G K for Inj,usp 5000000u/vial; Penicillin G Na for Inj USP 10000000u/vial; Penicillin G Na for Inj USP 1000000u/vial; Penicillin G Na for Inj USP 5000000u/vial; Penicillin G Pot. for Inj. (10millioniu) USP; Penicillin G Potassium; Penicillin G Potassium Inj 10000000iu; Penicillin G Potassium Inj 10000000unit/vial; Penicillin G Potassium Inj 1000000iu; Penicillin G Potassium Inj 1000000unit/vial; Penicillin G Potassium Inj 5000000iu; Penicillin G Potassium Inj 5000000unit/vial; Penicillin G Potassium for Injection, USP; Penicillin G Sod. for Inj. (10millioniu) USP; Penicillin G Sod. for Inj. (1millioniu) USP; Penicillin G Sodium; Penicillin G Sodium Inj 10000000iu; Penicillin G Sodium Inj 1000000iu; Penicillin G Sodium Inj 5000000iu; Penicillin G Sodium for Injection; Penicillin G Sodium for Injection, USP; Permapen; Pfizerpen

> <INTERNATIONAL_BRANDS>
Pentids

> <SALTS>
Benethamine penicillin; Benzathine benzylpenicillin; Benzylpenicillin benzathine hydrate; Benzylpenicillin calcium; Benzylpenicillin potassium; Benzylpenicillin sodium

$$$$
