1059
  Mrv0541 02231215122D          

 23 25  0  0  0  0            999 V2000
    7.1488    1.0625    0.0000 F   0  0  0  0  0  0  0  0  0  0  0  0
    4.2364    1.8676    0.0000 O   0  0  0  0  0  0  0  0  0  0  0  0
    2.0930    0.6301    0.0000 O   0  0  0  0  0  0  0  0  0  0  0  0
    2.8075    1.8676    0.0000 O   0  0  0  0  0  0  0  0  0  0  0  0
    7.1488   -0.6273    0.0000 N   0  0  0  0  0  0  0  0  0  0  0  0
    8.5746   -1.4579    0.0000 N   0  0  0  0  0  0  0  0  0  0  0  0
    4.2364   -0.6075    0.0000 N   0  0  0  0  0  0  0  0  0  0  0  0
    7.1456   -1.4523    0.0000 C   0  0  0  0  0  0  0  0  0  0  0  0
    7.8649   -0.2176    0.0000 C   0  0  0  0  0  0  0  0  0  0  0  0
    7.8585   -1.8676    0.0000 C   0  0  0  0  0  0  0  0  0  0  0  0
    8.5778   -0.6329    0.0000 C   0  0  0  0  0  0  0  0  0  0  0  0
    6.4359   -0.2121    0.0000 C   0  0  0  0  0  0  0  0  0  0  0  0
    4.9509   -0.1949    0.0000 C   0  0  0  0  0  0  0  0  0  0  0  0
    5.6884   -0.6360    0.0000 C   0  0  0  0  0  0  0  0  0  0  0  0
    4.9509    0.6301    0.0000 C   0  0  0  0  0  0  0  0  0  0  0  0
    6.4359    0.6473    0.0000 C   0  0  0  0  0  0  0  0  0  0  0  0
    5.6884    1.0712    0.0000 C   0  0  0  0  0  0  0  0  0  0  0  0
    4.2364   -1.4325    0.0000 C   0  0  0  0  0  0  0  0  0  0  0  0
    4.2364    1.0426    0.0000 C   0  0  0  0  0  0  0  0  0  0  0  0
    3.5220   -0.1949    0.0000 C   0  0  0  0  0  0  0  0  0  0  0  0
    3.5220    0.6301    0.0000 C   0  0  0  0  0  0  0  0  0  0  0  0
    3.5220   -1.8450    0.0000 C   0  0  0  0  0  0  0  0  0  0  0  0
    2.8075    1.0426    0.0000 C   0  0  0  0  0  0  0  0  0  0  0  0
  1 16  1  0  0  0  0
  2 19  2  0  0  0  0
  3 23  1  0  0  0  0
  4 23  2  0  0  0  0
  5  8  1  0  0  0  0
  5  9  1  0  0  0  0
  5 12  1  0  0  0  0
  6 10  1  0  0  0  0
  6 11  1  0  0  0  0
  7 13  1  0  0  0  0
  7 18  1  0  0  0  0
  7 20  1  0  0  0  0
  8 10  1  0  0  0  0
  9 11  1  0  0  0  0
 12 14  1  0  0  0  0
 12 16  2  0  0  0  0
 13 14  2  0  0  0  0
 13 15  1  0  0  0  0
 15 17  2  0  0  0  0
 15 19  1  0  0  0  0
 16 17  1  0  0  0  0
 18 22  1  0  0  0  0
 19 21  1  0  0  0  0
 20 21  2  0  0  0  0
 21 23  1  0  0  0  0
M  END
> <DATABASE_ID>
DB01059

> <DATABASE_NAME>
drugbank

> <SMILES>
CCN1C=C(C(O)=O)C(=O)C2=CC(F)=C(C=C12)N1CCNCC1

> <INCHI_IDENTIFIER>
InChI=1S/C16H18FN3O3/c1-2-19-9-11(16(22)23)15(21)10-7-12(17)14(8-13(10)19)20-5-3-18-4-6-20/h7-9,18H,2-6H2,1H3,(H,22,23)

> <INCHI_KEY>
OGJPXUAPXNRGGI-UHFFFAOYSA-N

> <FORMULA>
C16H18FN3O3

> <MOLECULAR_WEIGHT>
319.3308

> <EXACT_MASS>
319.133219662

> <JCHEM_ACCEPTOR_COUNT>
6

> <JCHEM_ATOM_COUNT>
41

> <JCHEM_AVERAGE_NEUTRAL_MICROSPECIES_CHARGE>
0.05315406694045842

> <JCHEM_AVERAGE_POLARIZABILITY>
32.25833733769905

> <JCHEM_BIOAVAILABILITY>
1

> <JCHEM_DONOR_COUNT>
2

> <JCHEM_FORMAL_CHARGE>
0

> <JCHEM_GHOSE_FILTER>
0

> <JCHEM_IUPAC>
1-ethyl-6-fluoro-4-oxo-7-(piperazin-1-yl)-1,4-dihydroquinoline-3-carboxylic acid

> <ALOGPS_LOGP>
-0.47

> <JCHEM_LOGP>
-0.9704539791927047

> <ALOGPS_LOGS>
-2.50

> <JCHEM_MDDR_LIKE_RULE>
0

> <JCHEM_NEUTRAL_CHARGE>
0

> <JCHEM_NUMBER_OF_RINGS>
3

> <JCHEM_PHYSIOLOGICAL_CHARGE>
0

> <JCHEM_PKA_STRONGEST_ACIDIC>
5.577145294644659

> <JCHEM_PKA_STRONGEST_BASIC>
8.765453885190917

> <JCHEM_POLAR_SURFACE_AREA>
72.88

> <JCHEM_REFRACTIVITY>
85.47680000000001

> <JCHEM_ROTATABLE_BOND_COUNT>
3

> <JCHEM_RULE_OF_FIVE>
1

> <ALOGPS_SOLUBILITY>
1.01e+00 g/l

> <JCHEM_TRADITIONAL_IUPAC>
tetrahydrofolic acid

> <JCHEM_VEBER_RULE>
0

> <DRUGBANK_ID>
DB01059

> <SECONDARY_ACCESSION_NUMBERS>
APRD00469

> <DRUG_GROUPS>
approved

> <GENERIC_NAME>
Norfloxacin

> <SYNONYMS>
1-Ethyl-6-fluor-1,4-dihydro-4-oxo-7-(1-piperazinyl)-3-chinolincarbonsÃ¤ure; 1-Ethyl-6-fluoro-1,4-dihydro-4-oxo-7-(1-piperazinyl)-3-quinolinecarboxylic acid; 1,4-Dihydro-1-ethyl-6-fluoro-4-oxo-7-(1-piperazinyl)-3-quinolinecarboxylic acid; NFLX; Norfloxacin; Norfloxacine; Norfloxacino; Norfloxacinum

> <PRODUCTS>
Ava-norfloxacin; Co Norfloxacin; Norfloxacin; Norfloxacine-400; Noroxin; Ntp-norfloxacin; PMS-norfloxacin; Riva-norfloxacin; Teva-norfloxacin

$$$$
