1068
  Mrv0541 02231215132D          

 22 24  0  0  0  0            999 V2000
    3.6081   -1.2313    0.0000 Cl  0  0  0  0  0  0  0  0  0  0  0  0
    2.3403    2.5929    0.0000 O   0  0  0  0  0  0  0  0  0  0  0  0
    1.8668   -2.5929    0.0000 O   0  5  0  0  0  0  0  0  0  0  0  0
    3.2913   -2.4806    0.0000 O   0  0  0  0  0  0  0  0  0  0  0  0
    2.1839    1.2046    0.0000 N   0  0  0  0  0  0  0  0  0  0  0  0
    4.0375    1.2046    0.0000 N   0  0  0  0  0  0  0  0  0  0  0  0
    2.5467   -2.1255    0.0000 N   0  3  0  0  0  0  0  0  0  0  0  0
    3.1107    0.0423    0.0000 C   0  0  0  0  0  0  0  0  0  0  0  0
    2.3674    0.4003    0.0000 C   0  0  0  0  0  0  0  0  0  0  0  0
    3.8540    0.4003    0.0000 C   0  0  0  0  0  0  0  0  0  0  0  0
    4.4990   -0.1141    0.0000 C   0  0  0  0  0  0  0  0  0  0  0  0
    3.1881   -0.8135    0.0000 C   0  0  0  0  0  0  0  0  0  0  0  0
    1.6500   -0.0728    0.0000 C   0  0  0  0  0  0  0  0  0  0  0  0
    3.5232    1.8496    0.0000 C   0  0  0  0  0  0  0  0  0  0  0  0
    2.4818   -1.3031    0.0000 C   0  0  0  0  0  0  0  0  0  0  0  0
    2.6982    1.8496    0.0000 C   0  0  0  0  0  0  0  0  0  0  0  0
    1.7076   -0.9302    0.0000 C   0  0  0  0  0  0  0  0  0  0  0  0
    4.3760   -0.9299    0.0000 C   0  0  0  0  0  0  0  0  0  0  0  0
    5.2670    0.1873    0.0000 C   0  0  0  0  0  0  0  0  0  0  0  0
    5.0210   -1.4442    0.0000 C   0  0  0  0  0  0  0  0  0  0  0  0
    5.9120   -0.3271    0.0000 C   0  0  0  0  0  0  0  0  0  0  0  0
    5.7890   -1.1429    0.0000 C   0  0  0  0  0  0  0  0  0  0  0  0
  1 18  1  0  0  0  0
  2 16  2  0  0  0  0
  3  7  1  0  0  0  0
  4  7  2  0  0  0  0
  5  9  1  0  0  0  0
  5 16  1  0  0  0  0
  6 10  2  0  0  0  0
  6 14  1  0  0  0  0
  7 15  1  0  0  0  0
  8  9  2  0  0  0  0
  8 10  1  0  0  0  0
  8 12  1  0  0  0  0
  9 13  1  0  0  0  0
 10 11  1  0  0  0  0
 11 18  1  0  0  0  0
 11 19  2  0  0  0  0
 12 15  2  0  0  0  0
 13 17  2  0  0  0  0
 14 16  1  0  0  0  0
 15 17  1  0  0  0  0
 18 20  2  0  0  0  0
 19 21  1  0  0  0  0
 20 22  1  0  0  0  0
 21 22  2  0  0  0  0
M  CHG  2   3  -1   7   1
M  END
> <DATABASE_ID>
DB01068

> <DATABASE_NAME>
drugbank

> <SMILES>
[O-][N+](=O)C1=CC2=C(NC(=O)CN=C2C2=CC=CC=C2Cl)C=C1

> <INCHI_IDENTIFIER>
InChI=1S/C15H10ClN3O3/c16-12-4-2-1-3-10(12)15-11-7-9(19(21)22)5-6-13(11)18-14(20)8-17-15/h1-7H,8H2,(H,18,20)

> <INCHI_KEY>
DGBIGWXXNGSACT-UHFFFAOYSA-N

> <FORMULA>
C15H10ClN3O3

> <MOLECULAR_WEIGHT>
315.711

> <EXACT_MASS>
315.041068908

> <JCHEM_ACCEPTOR_COUNT>
4

> <JCHEM_ATOM_COUNT>
32

> <JCHEM_AVERAGE_NEUTRAL_MICROSPECIES_CHARGE>
-1.4490181239240624e-05

> <JCHEM_AVERAGE_POLARIZABILITY>
29.65942445716429

> <JCHEM_BIOAVAILABILITY>
1

> <JCHEM_DONOR_COUNT>
1

> <JCHEM_FORMAL_CHARGE>
0

> <JCHEM_GHOSE_FILTER>
1

> <JCHEM_IUPAC>
5-(2-chlorophenyl)-7-nitro-2,3-dihydro-1H-1,4-benzodiazepin-2-one

> <ALOGPS_LOGP>
2.76

> <JCHEM_LOGP>
3.152004688

> <ALOGPS_LOGS>
-4.47

> <JCHEM_MDDR_LIKE_RULE>
0

> <JCHEM_NEUTRAL_CHARGE>
0

> <JCHEM_NUMBER_OF_RINGS>
3

> <JCHEM_PHYSIOLOGICAL_CHARGE>
0

> <JCHEM_PKA_STRONGEST_ACIDIC>
11.654068206547986

> <JCHEM_PKA_STRONGEST_BASIC>
1.8858058490224412

> <JCHEM_POLAR_SURFACE_AREA>
84.6

> <JCHEM_REFRACTIVITY>
83.01650000000002

> <JCHEM_ROTATABLE_BOND_COUNT>
2

> <JCHEM_RULE_OF_FIVE>
1

> <ALOGPS_SOLUBILITY>
1.06e-02 g/l

> <JCHEM_TRADITIONAL_IUPAC>
tetrahydrofolic acid

> <JCHEM_VEBER_RULE>
0

> <DRUGBANK_ID>
DB01068

> <SECONDARY_ACCESSION_NUMBERS>
APRD00054

> <DRUG_GROUPS>
approved; illicit

> <GENERIC_NAME>
Clonazepam

> <SYNONYMS>
1,3-dihydro-7-nitro-5-(2-chlorophenyl)-2H-1,4.benzodiazepin-2-one; 5-(2-chloro-phenyl)-7-nitro-1,3-dihydro-benzo[e][1,4]diazepin-2-one; 5-(2-chlorophenyl)-7-nitro-1H-benzo[e][1,4]diazepin-2(3H)-one; 5-(o-chlorophenyl)-7-nitro-1,3-dihydro-2H-1,4-benzodiazepin-2-one; Clonazepam; Clonazepamum

> <PRODUCTS>
Accel-clonazepam; Apo-clonazepam; Clonapam; Clonazepam; Clonazepam-0.5 - Tab 0.5mg; Clonazepam-2 - Tab 2mg; Clonazepam-R; Co Clonazepam; Dom-clonazepam - Tab 0.5mg; Dom-clonazepam - Tab 2mg; Dom-clonazepam-R - Tab 0.5mg; Klonopin; Mylan-clonazepam; PHL-clonazepam - 0.25mg; PHL-clonazepam - Tab 0.5mg; PHL-clonazepam - Tab 1mg; PHL-clonazepam - Tab 2mg; PHL-clonazepam-R; PMS-clonazepam; PMS-clonazepam-R; Pro-clonazepam; Ratio-clonazepam; Riva-clonazepam; Rivotril; Sandoz Clonazepam; Teva-clonazepam; Zym-clonazepam

> <INTERNATIONAL_BRANDS>
Antelepsin; Iktorivil; Rivotril

$$$$
