1069
  Mrv0541 02231215132D          

 20 22  0  0  1  0            999 V2000
    3.6958   -1.9665    0.0000 S   0  0  0  0  0  0  0  0  0  0  0  0
    3.6958   -0.3823    0.0000 N   0  0  0  0  0  0  0  0  0  0  0  0
    4.3819    1.5979    0.0000 N   0  0  0  0  0  0  0  0  0  0  0  0
    4.3819    0.8058    0.0000 C   0  0  0  0  0  0  0  0  0  0  0  0
    3.6958    0.4097    0.0000 C   0  0  0  0  0  0  0  0  0  0  0  0
    3.0099   -0.7784    0.0000 C   0  0  0  0  0  0  0  0  0  0  0  0
    4.3819   -0.7784    0.0000 C   0  0  0  0  0  0  0  0  0  0  0  0
    5.0678    0.4097    0.0000 C   0  0  0  0  0  0  0  0  0  0  0  0
    3.0099   -1.5704    0.0000 C   0  0  0  0  0  0  0  0  0  0  0  0
    4.3819   -1.5704    0.0000 C   0  0  0  0  0  0  0  0  0  0  0  0
    5.0678    1.9939    0.0000 C   0  0  0  0  0  0  0  0  0  0  0  0
    3.6958    1.9939    0.0000 C   0  0  0  0  0  0  0  0  0  0  0  0
    2.3019   -0.3549    0.0000 C   0  0  0  0  0  0  0  0  0  0  0  0
    5.0899   -0.3549    0.0000 C   0  0  0  0  0  0  0  0  0  0  0  0
    2.3019   -1.9939    0.0000 C   0  0  0  0  0  0  0  0  0  0  0  0
    5.0899   -1.9939    0.0000 C   0  0  0  0  0  0  0  0  0  0  0  0
    1.5842   -0.7619    0.0000 C   0  0  0  0  0  0  0  0  0  0  0  0
    5.8076   -0.7619    0.0000 C   0  0  0  0  0  0  0  0  0  0  0  0
    1.5842   -1.5869    0.0000 C   0  0  0  0  0  0  0  0  0  0  0  0
    5.8076   -1.5869    0.0000 C   0  0  0  0  0  0  0  0  0  0  0  0
  1  9  1  0  0  0  0
  1 10  1  0  0  0  0
  2  5  1  0  0  0  0
  2  6  1  0  0  0  0
  2  7  1  0  0  0  0
  3  4  1  0  0  0  0
  3 11  1  0  0  0  0
  3 12  1  0  0  0  0
  4  5  1  0  0  0  0
  4  8  1  0  0  0  0
  6  9  1  0  0  0  0
  6 13  2  0  0  0  0
  7 10  1  0  0  0  0
  7 14  2  0  0  0  0
  9 15  2  0  0  0  0
 10 16  2  0  0  0  0
 13 17  1  0  0  0  0
 14 18  1  0  0  0  0
 15 19  1  0  0  0  0
 16 20  1  0  0  0  0
 17 19  2  0  0  0  0
 18 20  2  0  0  0  0
M  END
> <DATABASE_ID>
DB01069

> <DATABASE_NAME>
drugbank

> <SMILES>
CC(CN1C2=CC=CC=C2SC2=CC=CC=C12)N(C)C

> <INCHI_IDENTIFIER>
InChI=1S/C17H20N2S/c1-13(18(2)3)12-19-14-8-4-6-10-16(14)20-17-11-7-5-9-15(17)19/h4-11,13H,12H2,1-3H3

> <INCHI_KEY>
PWWVAXIEGOYWEE-UHFFFAOYSA-N

> <FORMULA>
C17H20N2S

> <MOLECULAR_WEIGHT>
284.419

> <EXACT_MASS>
284.13471934

> <JCHEM_ACCEPTOR_COUNT>
2

> <JCHEM_ATOM_COUNT>
40

> <JCHEM_AVERAGE_NEUTRAL_MICROSPECIES_CHARGE>
0.9910969200452052

> <JCHEM_AVERAGE_POLARIZABILITY>
32.38497245611025

> <JCHEM_BIOAVAILABILITY>
1

> <JCHEM_DONOR_COUNT>
0

> <JCHEM_FORMAL_CHARGE>
0

> <JCHEM_GHOSE_FILTER>
1

> <JCHEM_IUPAC>
dimethyl[1-(10H-phenothiazin-10-yl)propan-2-yl]amine

> <ALOGPS_LOGP>
4.52

> <JCHEM_LOGP>
4.287570851666667

> <ALOGPS_LOGS>
-4.07

> <JCHEM_MDDR_LIKE_RULE>
0

> <JCHEM_NEUTRAL_CHARGE>
1

> <JCHEM_NUMBER_OF_RINGS>
3

> <JCHEM_PHYSIOLOGICAL_CHARGE>
1

> <JCHEM_PKA_STRONGEST_BASIC>
9.046575852890253

> <JCHEM_POLAR_SURFACE_AREA>
6.48

> <JCHEM_REFRACTIVITY>
88.50490000000003

> <JCHEM_ROTATABLE_BOND_COUNT>
3

> <JCHEM_RULE_OF_FIVE>
1

> <ALOGPS_SOLUBILITY>
2.45e-02 g/l

> <JCHEM_TRADITIONAL_IUPAC>
tetrahydrofolic acid

> <JCHEM_VEBER_RULE>
1

> <DRUGBANK_ID>
DB01069

> <SECONDARY_ACCESSION_NUMBERS>
APRD00601

> <DRUG_GROUPS>
approved; investigational

> <GENERIC_NAME>
Promethazine

> <SYNONYMS>
(2-dimethylamino-2-methyl)ethyl-N-dibenzoparathiazine; 10-(2-Dimethylaminopropyl)phenothiazine; 10-[2-(dimethylamino)propyl]phenothiazine; N-(2'-dimethylamino-2'-methyl)ethylphenothiazine; N,N,alpha-trimethyl-10H-phenothiazine-10-ethanamine; N,N,Î±-trimethyl-10H-phenothiazine-10-ethanamine; Proazamine; Prometazina; Promethazine; Promethazinum

> <PRODUCTS>
Dextromethorphan Hydrobromide and Promethazine Hydrochloride; Histantil Tab 25mg; Histantil Tab 50mg; Meperidine Hcl and Promethazine Hcl; Meperidine Hydrochloride and Promethazine Hydrochloride; PMS-promethazine Syr 10mg/5ml; Phenadoz; Phenergan; Phenergan 50; Phenergan Cream 2%; Phenergan Injectable 25mg/ml; Phenergan Syrup 10mg/5ml; Phenergan Tablet 10mg; Phenergan Tablet 25mg; Phenergan Tablet 50mg; Promatussin DM Adult Formula Syr; Promatussin DM Children Formula; Prometh with Codeine; Prometh with Dextromethorphan; Promethazine; Promethazine DM; Promethazine HCl; Promethazine HCl Inj 28.2mg/ml; Promethazine HCl Inj USP; Promethazine HCl and Codeine Phosphate; Promethazine HCl and Dextromethorphan Hydrobromide; Promethazine HCl, Phenylephrine HCl and Codeine Phosphate; Promethazine HCl, Phenylephrine HCl, Codeine Phosphate; Promethazine Hci; Promethazine Hydrochloride; Promethazine Hydrochloride Injection USP; Promethazine Hydrochloride Injection, USP; Promethazine Hydrochloride Phenylephrine Hydrochloride and Codeine Phosphate; Promethazine Hydrochloride and Codeine Phosphate; Promethazine Hydrochloride and Dextromethophan Hydrobromide; Promethazine Hydrochloride and Dextromethorphan Hydrobromide; Promethazine Hydrochloride and Dextromethorphan Hydrobromide Oral; Promethazine Hydrochloride and Dextromethorphan Hydrobromide Oral Solution; Promethazine Hydrochloride and Phenylephrine Hydrochloride; Promethazine Hydrochloride, Phenylephrine Hydrochloride and Codeine Phosphate; Promethazine VC; Promethazine VC With Codeine; Promethazine VC with Codeine; Promethazine VC with Codeine Oral Solution; Promethazine Vc; Promethazine Vc With Codeine; Promethazine Vc With Codine; Promethazine With Codeine; Promethazine hydrochloride; Promethazine hydrochloride and phenylephrine hydrochloride; Promethazine with Codeine; Promethegan

> <INTERNATIONAL_BRANDS>
Avomine; Fargan; Farganesse; Lergigan; Prothiazine; Receptozine; Romergan

> <SALTS>
Promethazine hydrochloride; Promethazine teoclate

$$$$
