1075
  Mrv0541 02231215132D          

 19 20  0  0  0  0            999 V2000
    3.0791    0.2063    0.0000 O   0  0  0  0  0  0  0  0  0  0  0  0
    2.3645    2.2688    0.0000 N   0  0  0  0  0  0  0  0  0  0  0  0
    3.7935   -0.2063    0.0000 C   0  0  0  0  0  0  0  0  0  0  0  0
    4.5080    0.2063    0.0000 C   0  0  0  0  0  0  0  0  0  0  0  0
    3.7935   -1.0313    0.0000 C   0  0  0  0  0  0  0  0  0  0  0  0
    3.0791    1.0313    0.0000 C   0  0  0  0  0  0  0  0  0  0  0  0
    2.3645    1.4438    0.0000 C   0  0  0  0  0  0  0  0  0  0  0  0
    4.5080    1.0313    0.0000 C   0  0  0  0  0  0  0  0  0  0  0  0
    4.5080   -1.4438    0.0000 C   0  0  0  0  0  0  0  0  0  0  0  0
    5.2224   -0.2063    0.0000 C   0  0  0  0  0  0  0  0  0  0  0  0
    3.0791   -1.4438    0.0000 C   0  0  0  0  0  0  0  0  0  0  0  0
    1.6500    2.6813    0.0000 C   0  0  0  0  0  0  0  0  0  0  0  0
    3.0791    2.6813    0.0000 C   0  0  0  0  0  0  0  0  0  0  0  0
    5.2224    1.4438    0.0000 C   0  0  0  0  0  0  0  0  0  0  0  0
    4.5080   -2.2688    0.0000 C   0  0  0  0  0  0  0  0  0  0  0  0
    5.9370    0.2063    0.0000 C   0  0  0  0  0  0  0  0  0  0  0  0
    3.0791   -2.2688    0.0000 C   0  0  0  0  0  0  0  0  0  0  0  0
    5.9370    1.0313    0.0000 C   0  0  0  0  0  0  0  0  0  0  0  0
    3.7935   -2.6813    0.0000 C   0  0  0  0  0  0  0  0  0  0  0  0
  1  3  1  0  0  0  0
  1  6  1  0  0  0  0
  2  7  1  0  0  0  0
  2 12  1  0  0  0  0
  2 13  1  0  0  0  0
  3  4  1  0  0  0  0
  3  5  1  0  0  0  0
  4  8  2  0  0  0  0
  4 10  1  0  0  0  0
  5  9  2  0  0  0  0
  5 11  1  0  0  0  0
  6  7  1  0  0  0  0
  8 14  1  0  0  0  0
  9 15  1  0  0  0  0
 10 16  2  0  0  0  0
 11 17  2  0  0  0  0
 14 18  2  0  0  0  0
 15 19  2  0  0  0  0
 16 18  1  0  0  0  0
 17 19  1  0  0  0  0
M  END
> <DATABASE_ID>
DB01075

> <DATABASE_NAME>
drugbank

> <SMILES>
CN(C)CCOC(C1=CC=CC=C1)C1=CC=CC=C1

> <INCHI_IDENTIFIER>
InChI=1S/C17H21NO/c1-18(2)13-14-19-17(15-9-5-3-6-10-15)16-11-7-4-8-12-16/h3-12,17H,13-14H2,1-2H3

> <INCHI_KEY>
ZZVUWRFHKOJYTH-UHFFFAOYSA-N

> <FORMULA>
C17H21NO

> <MOLECULAR_WEIGHT>
255.3547

> <EXACT_MASS>
255.162314299

> <JCHEM_ACCEPTOR_COUNT>
2

> <JCHEM_ATOM_COUNT>
40

> <JCHEM_AVERAGE_NEUTRAL_MICROSPECIES_CHARGE>
0.9866015468090229

> <JCHEM_AVERAGE_POLARIZABILITY>
29.859328856172915

> <JCHEM_BIOAVAILABILITY>
1

> <JCHEM_DONOR_COUNT>
0

> <JCHEM_FORMAL_CHARGE>
0

> <JCHEM_GHOSE_FILTER>
1

> <JCHEM_IUPAC>
[2-(diphenylmethoxy)ethyl]dimethylamine

> <ALOGPS_LOGP>
3.44

> <JCHEM_LOGP>
3.651907262

> <ALOGPS_LOGS>
-3.53

> <JCHEM_MDDR_LIKE_RULE>
0

> <JCHEM_NEUTRAL_CHARGE>
1

> <JCHEM_NUMBER_OF_RINGS>
2

> <JCHEM_PHYSIOLOGICAL_CHARGE>
1

> <JCHEM_PKA_STRONGEST_BASIC>
8.867087128683956

> <JCHEM_POLAR_SURFACE_AREA>
12.47

> <JCHEM_REFRACTIVITY>
79.92700000000002

> <JCHEM_ROTATABLE_BOND_COUNT>
6

> <JCHEM_RULE_OF_FIVE>
1

> <ALOGPS_SOLUBILITY>
7.52e-02 g/l

> <JCHEM_TRADITIONAL_IUPAC>
tetrahydrofolic acid

> <JCHEM_VEBER_RULE>
1

> <DRUGBANK_ID>
DB01075

> <SECONDARY_ACCESSION_NUMBERS>
APRD00587; DB06975

> <DRUG_GROUPS>
approved; investigational

> <GENERIC_NAME>
Diphenhydramine

> <SYNONYMS>
2-(benzhydryloxy)-N,N-dimethylethylamine; 2-diphenylmethoxy-N,N-demthylethanamine; Difenhidramina; Diphenhydramine; Diphenhydraminum; N-(2-(diphenylmethoxy)ethyl)-N,N-dimethylamine; O-benzhydryldimethylaminoethanol; α-(2-dimethylaminoethoxy)diphenylmethane; β-dimethylaminoethanol diphenylmethyl ether; β-dimethylaminoethyl benzhydryl ether

> <PRODUCTS>
24 / 7 Life Extra Strength Pain Reliever PM; 24/7 Life Allergy Relief; 7 Select Allergy; 7 Select Allergy Childrens; 7 Select Ibuprofen PM; 7 Select Night Time Severe Cold Cough and Flu; 7 Select Night Time Sleep Aid; 7 Select Night Time severe cold, cough and flu; 7 Select Pain Relief PM; 7-Select Advil PM; A Health Itch Relief Gel; ADVIL PM- diphenhydramine citrate and ibuprofen tablet, coated; ADWE dye-free childrens allergy; AXIM Allergy; Acedif PLUS; Aceta-gesic; AcetaFlu NightTime; AcetaFlu NightTime Effervescent; AcetaMax PM; Acetadryl; Acetaminophen / Diphenhydramine 500/25 mg; Acetaminophen 500mg Diphenhydramine HCl 25mg; Acetaminophen Diphenhydramine HCL; Acetaminophen Diphenhydramine HCl; Acetaminophen Extra Strength PM; Acetaminophen PM; Acetaminophen PM Extra Strength; Acetaminophen PM Extra strength; Acetaminophen PM Rapid Release; Acetaminophen PMExtra Strength Extra Strength; Acetaminophen With Antihistamine Nighttime; Acetaminophen and Diphenhydramine HCl; Acetaminophen and Diphenhydramine Hydrochloride; Acetaminophen and Diphenhydramine hydrochloride; Acetaminophen, Acetaminophen PM Extra Strength, Day and Night; Acetaminophen, Diphenhydramine HCl; Acetaminophen, Diphenhydramine Hydrochloride; Acetaminophen, Diphenhydramine Hydrochloride, Phenylephrine Hydrochloride; Acetaminophen, Diphenhydramine Hyhrochloride, Phenylephrine Hydrochloride; Added Strength PM; Adult Allergy; Adult Allergy Relief; Adult Allergy Relief Dye Free; Adventure Medical Kits 1-2 Person First Aid; Adventure Medical Kits 1-4 Person First Aid; Advil Cold & Flu; Advil Cold, Cough & Flu Nighttime; Advil Day/night Convenience Pack; Advil Nighttime; Advil PM; Advil Pain & Head Cold Night; After Bite Outdoor; After Bite Plus; After Bite Xtra; After Sting; AfterBite with Antihistimine; Ag-diphenhydramine 25 mg; Ag-diphenhydramine 50 mg; Airacof; Alahist LQ; Aldex CT; Aleve Nighttime; Aleve PM; Alka-Seltzer Plus Allergy; Alka-Seltzer Plus Night Severe Cold, Cough And Flu; All Night Pain Relief PM; Allegra Cooling Relief Anti-Itch; Allegra Intensive Relief Anti-Itch; Aller-Ben; Aller-aide; Aller-aide Elixir; Aller-aide Plus; Aller-aide Plus Capsules 50mg; Allerdryl Cap 25mg; Allerdryl Cap 50mg; Allergic Itch Relief; Allergies MY CHILD NEEDS HELP WITH; Allergies Relief; Allergy; Allergy Antihistamine; Allergy Attack Relief to Go; Allergy Capsules Extra Strength; Allergy Care; Allergy Childrens; Allergy Childrens Allergy; Allergy Circle K; Allergy Complete Relief; Allergy Cream; Allergy D; Allergy Dye-free; Allergy DyeFree; Allergy Elixir; Allergy Formula; Allergy Formula Caplets; Allergy Formula Elixir; Allergy Formula Extra Strength; Allergy Formula Junior Strength; Allergy Formula Liquid; Allergy Formula Liquid Capsules; Allergy Formula Liquid Gels; Allergy Get Relief; Allergy Lil Drug Store Products; Allergy Liquid Gel Capsules; Allergy Medicine; Allergy Plus Cold; Allergy Plus Congestion; Allergy Plus Congestion Relief; Allergy Plus Severe Sinus Headache; Allergy Plus Sinus Headache; Allergy Plus Sinus Relief; Allergy Rapid Melts Childrens; Allergy Relief; Allergy Relief 25 mg; Allergy Relief Antihistamine; Allergy Relief Caplet; Allergy Relief Childrens; Allergy Relief Childrens Allergy; Allergy Relief Complete; Allergy Relief DIPHENHYDRAMINE HCI, 25 mg Antihistamine; Allergy Relief DYE-FREE; Allergy Relief Diphenhydramine HCl; Allergy Relief Dye Free; Allergy Relief Dye-Free; Allergy Relief Dye-Free Liquid Gels; Allergy Relief Dye-Free Softgel; Allergy Relief Elixir; Allergy Relief Extra Strength Nighttime; Allergy Relief Nighttime; Allergy Relief Plus Congestion; Allergy Relief Plus Sinus Headache; Allergy Relief childrens; Allergy Severe; Allergy Sinus Headache Caplets; Allergy Sinus Nighttime Relief; Allergy Softgel; Allergy Tablets 25mg; Allergy Tablets Extra Strength; Allergy and Cold; Allergy and Cold PE; Allergy and Cold Relief; Allergy and Sinus Headache; Allergy and Sinus Headache Relief Complete; Allergy plus Sinus Headache; Allergy relief; Allergy, Circle K; Allergy, Lil Drug Store; Allergy, Sinus and Headache Relief Medication; Allernix; Allernix Cap 50mg U; Allernix Elixir; Allernix Extra Strength; Allernix HCl Cap 25mg U; Anti Itch; Anti Itch Cream; Anti Itch Spray; Anti Itch and Skin Protectant; Anti itch Topical Analgesic; Anti-Itch; Anti-Itch Cream; Anti-Itch Extra Strength; Anti-Itch Maximum Strength; Anti-Itch Wal-Dryl; Anti-itch; Anti-itch Diphenhydramine Hydrochloride Cream; Anti-itch Plus Cream; Anti-itch cream; Antihistamine Allergy; Antihistimine Allergy; Antiphlamine Coin Plaster; Aphenap; Armand Regular Strength Itch Stopping; Assured Allergy Relief; Assured Headache PM (Aspirin Free); Assured Night time Cold and Cough; Atopalm Itch Relief; Au Kah Chuen Fugical; AuroFlu Flu and Sore Throat Warming Relief; AuroFlu Night Time Severe Cold and Cough; AuroFlu Night Time Severe Cold and Cough Warming Relief; AuroMucus Fast Maximum Night Time Cold and Flu; AuroZzil NIGHTTIME SLEEP-AID; Aurodryl Childrens Allergy; Aurodryl childrens Allergy; Aurophen Daytime Nighttime; Aurophen PM Extra Strength; Aurophen Pain Away plus Sleep aid; BENADRYL Extra Strength Itch Cooling; BONINE Faster-Acting; Bactimicina Childrens Allergy; Balminil Codeine Night Time + Expectorant; Balminil Night-time; Banophen; Banophen Diphenhydramine HCl; Basic Care Acetaminophen PM; Basic Care Allergy Relief; Basic Care Childrens Allergy Relief; Basic Care Daytime Severe Cold Nighttime Cold and Flu; Basic Care Daytime Severe Cold and Flu Nighttime Severe Cold, Cough and Flu; Basic Care Ibuprofen PM; Basic Care Naproxen Sodium PM; Basic Care Nighttime Sleep Aid; Basic Care severe cold and cough; Bayer PM; Benadryl; Benadryl Allergy; Benadryl Allergy & Cold Caplets; Benadryl Allergy & Sinus; Benadryl Allergy EXTRA STRENGTH; Benadryl Allergy Liqui-Gels; Benadryl Allergy Liquid; Benadryl Allergy Liquigels; Benadryl Allergy Plus Cold; Benadryl Allergy Plus Congestion; Benadryl Allergy Quick Dissolve; Benadryl Allergy Quick Dissolve Strips; Benadryl Allergy Rapid Release; Benadryl Allergy Sinus Caplets; Benadryl Allergy Sinus Headache; Benadryl Allergy Ultratab; Benadryl Allergy, Sinus & Pain Total; Benadryl Bug Bite Relief; Benadryl Capsules 50mg; Benadryl Cream 2%; Benadryl Decongestant Tablets; Benadryl Extra Strength Itch Cooling; Benadryl Extra Strength Itch Relief; Benadryl Extra Strength Itch Stopping; Benadryl Fast Melts; Benadryl Inj. 50mg/ml; Benadryl Itch Stopping Cream; Benadryl Itch Stopping Gel; Benadryl Original Strength Itch Stopping; Benadryl PE Total Extra Strength; Benadryl PE Total Regular Strength; Benadryl ReadyMist Itch Stopping; Benadryl Spray; Benadryl Total; Benadryl Ultra Tab; Benadryl Ultratabs; Benadryl-D Allergy and Sinus; Benaldryl; Benatu Sleep Essential Oil; Benylin All-IN-one Cold and Flu Night PE Caplets; Benylin Cold and Sinus Night Caplets; Benylin Cough and Cold Night Strips; Benylin Extra Strength All-IN-one Cold, Flu & Cough Night; Benylin Night Cough; Benylin Sleep Time; Benylin for Children All-IN-one Cold & Fever Nightime; Benylin for Children Cough Night; Berkley and Jensen Allergy; Berkley and Jensen Allergy Relief; Berkley and Jensen Ibuprofen PM; Berkley and Jensen Sleep Aid; Best Choice Childrens Allergy Relief Bubblegum flavor; Best Choice Itch Relief; Best Choice Itch Stopping; Best Choice Nighttime Severe Cold and Cough Honey Lemon infused with Chamomile and White Tea Flavors; Betr Allergy Relief; Betr sleep aid; Bi Electro Extra Strength; Bite and Itch; Blistex Ivarest; Buckley's Complete Cough, Cold & Flu Night; Buckley's Complete PM - Nighttime; Buckley's Complete Relief; Buckley's Complete Relief + Mucus; Buckley's Nighttime Cough & Congestion; Bye Bye Bite Lot; CAREALL Anti-Itch; CAREALL Diphenhydramine; CAREALL Non-Aspirin PM Extra Strength; CVS Effervescent Pain Relief PM; CVS Extra Strength Itch Relief; CVS Extra Strength Itch Stopping; CVS Health Childrens Allergy Relief; CVS Health Medication and Topical Refill Pouch; CVS Health Nighttime Severe Cough and Cold Nighttime Severe Cold and Cough; CVS Health Nighttime Sleep Aid; CVS Health Nighttime Sleep-Aid; CVS Itch Relief; CVS Maximum Strength Itch Relief; CVS Nighttime Sleep Aid; CVS Pharmacy Daytime Nighttime Severe Cold and Cough Kit; CVS Pharmacy Nighttime Severe Cough and Cold honey lemon infused with chamomile and white tea flavors; CVS Pharmacy Pre-measured spoon Childrens ALLERGY MEDICATION; CVS Regular Strength Itch Stopping; CVS cough and severe cold night time honey lemon infused with chamomile and white tea flavors; CVS dye-free childrens allergy; Cabinet Allergy Relief; Calamine Lotion With Antihistamine; Calmex Tab 25mg; Calmylin; Calmylin #4 Syr; Care One Flu and Severe Cold and Cough Nighttime; Care One Ibuprofen PM; Care One Pain Relief PM Extra Strength; Care One Pain Relief and Pain Relief PM; CareOne Acetaminophen PM; CareOne Allergy Medication; CareOne Allergy Relief; CareOne Childrens Allergy; CareOne Childrens Allergy Relief; CareOne Day Time Severe Cold Night Time Cold and Flu; CareOne Nighttime Severe Cold and Cough; CareOne Nighttime Sleep Aid; CareOne Pain Relief Pain Relief PM; CareOne Triacting Night Time Cold and Cough Childrens; CareOne sinus relief day time sinus relief night time; Careone Allergy; Careone Allergy Relief; Careone Ibuprofen PM; Careone Naproxen Sodium PM; Careone Nighttime Sleep Aid; Careone Pain Relief PM; Careone Sinus Relief Day Time Night Time; Careone night time severe cold and cough honey lemon infused with chamomile and white tea flavors; Caring Mill Acetaminophen PM; Caring Mill Allergy; Caring Mill Childrens Allergy; Caring Mill Night Time Sleep Aid; Children Allergy Dye-Free Wal Dryl 20 single doses x 5mL ea; Children Allergy Relief Bubblegum flavor; Children Allergy Relief Dye Free Cherry; Children's Allergy Formula; Children's Allergy Formula Rapid Melts; Children's Allergy Relief Liquid; Children's Allergy and Sinus Medication Liquid Suspension; Children's Benadryl Allergy Chewables; Children's Benadryl Allergy Fastmelt; Children's Benadryl Allergy Liquid; Children's Benadryl Allergy Strips; Children's Benadryl Bug Bite Relief; Children's Benadryl-D Allergy & Sinus; Children's Benadryl-D Syrup; Children's Clear Allergy Formula; Children's Cough, Cold & Allergy Strips; Children's Liquid Allergy Formula; Children's Tylenol Allergy - D Chewable Tablets; Children's Tylenol Allergy-D Suspension; Children's Tylenol Cold and Cough Nighttime; Children's Tylenol Complete Cold, Cough & Fever Nighttime; Childrens Allergy; Childrens Allergy Dye Free; Childrens Allergy Dye Free Wal-Dryl; Childrens Allergy Dye-Free Wal Dryl; Childrens Allergy Melts; Childrens Allergy Plus Congestion; Childrens Allergy Plus Congestion Relief; Childrens Allergy Relief; Childrens Allergy Relief Dye Free; Childrens Allergy Relief Dye Free Bubble Gum; Childrens Allergy Relief Dye Free Cherry; Childrens Allergy Relief Dye-Free; Childrens Allergy Relief Dye-free; Childrens Benadryl ALLERGY; Childrens Benadryl Allergy; Childrens Benadryl Allergy Plus Congestion; Childrens Benadryl Chewables; Childrens Benadryl DYE-FREE ALLERGY; Childrens Benadryl-D ALLERGY and SINUS; Childrens Cold and Cough Nighttime; Childrens Complete Allergy; Childrens Cough and Cold Nighttime; Childrens Delsym Cough Plus Chest Congestion DM and Delsym Cough Plus Cold Night Time; Childrens Delsym Cough Plus Cold Night Time; Childrens Dimetapp Multi-Symptom Cold and Flu; Childrens Dimetapp Nighttime Cold and Congestion; Childrens Dye Free Allergy; Childrens Dye Free Allergy Relief; Childrens Mucinex Multi Symptom Cold and Childrens Mucinex Night Time Multi Symptom Cold; Childrens Mucinex Night Time Multi-Symptom Cold; Childrens Night Time COUGH and COLD RELIEF; Childrens Night Time Cold and Cough; Childrens Nighttime Cold and Cough; Childrens PediaClear Cough; Childrens Triacting; Childrens Triacting Night Time Cold and Cough; Childrens Triacting Nighttime Cold and Cough; Childrens Triacting Nighttime Cold and Cough ReadyInCase; Childrens Tylenol Plus Cold and Allergy; Childrens WAL-DRYL Single-Use Allergy; Childrens Wal Dryl PE; Childrens Wal-Dryl Allergy; Childrens allergy relief; Circle K Allergy Antihistamine; Circle K Nighttime Sleep Aid; Circle K Nighttime Sleep-Aid; Clear Allergy Formula for Children and Adults; Clear Time; Cleartime; Cold & Flu-IN-one; Cold and Congestion Childrens Nighttime; Cold and Cough; Cold and Cough MULTI-SYMPTOM DAYTIME / NIGHTTIME; Cold and Flu; Cold and Flu Daytime, Nighttime; Cold and Flu Nighttime; Cold and Flu Relief; Cold and Flu Severe Night; Cold-EEZE Childrens Nighttime Cold and Cough Relief; Cold-EEZE Nighttime Cold and Flu; Complete Allergy; Complete Allergy Antihistamine; Complete Allergy Medicine; Complete Allergy Relief; Complete Allergy Softgel; Complete One Cold and Flu Nightime Extra Strength Tablets; Complete One Cold and Flu PE Night; Compoz MAXIMUM STRENGTH nighttime sleep aid; ConRx Allergy; ConRx PM; Contac Cold; Contac Cold and Fever Caplets; Contac Day & Night Sinus/allergy Caplet; Contac Night Caplets; Contac-C Ext.stren.night Time Cough,cold&flu; Contrast Allergy PreMed Pack; CoreTex Anti-Itch Gel; CoreTex Professional Outdoor Skin Protection Wallet; Coricidin II Night Time Cold and Flu; Correct Dose Childrens Allergy Relief; Cough Syr W Codeine Diphenhyd HCl & Ammon Cl; Cough Syrup; Cough and Allergy Syrup With Codeine; Cough and Cold Nighttime; Cough, Cold & Flu; Cough, Cold and Flu Nightime Caplets; Cough, Cold and Flu Relief Complete Night Super Strength; CounterAct Night; CounterAct PM; Cystex PM; DAYTIME SEVERE COLD and COUGH NIGHTTIME SEVERE COLD and COUGH; DG Anti-Itch; DG Health Allergy; DG Health Ibuprofen PM; DG Health Maximum Strength Sleep Aid; DG Health Sleep Aid; DG Health Tussin; DIPHENHYDRAMINE HYDROCHLORIDE 50mg; DM Cough Syrup; DM Plus Cough Syrup; DM Syrup; Dalay Maximum Strength; Damylin Avec Codeine Sirop; Damylin With Codeine Syrup; Day and Night Cold; Day and Night Cold PE; Day and Night Sinus; Day and Night Sinus Maximum Strength; DayTime Mucus Relief Severe Cold and Nighttime Cold and Flu Maximum Strength; DayTime NightTime Cold/Flu; DayTime Severe Congestion Relief and Nighttime Severe Cough and Congestion Relief Maximum Strength; Daytime Cold and Cough and NightTime Cold and Congestion Childrens; Daytime Mucus Relief Nighttime Cold and Flu; Daytime Mucus Relief Severe Cold/Nighttime Mucus Relief Cold and Flu; Daytime Mucus Relief Severe Congestion and Cough and Nighttime Cold and Flu Maximum Strength; Daytime Nightime Severe Cold; Daytime Nighttime Cold and Cough Childrens; Daytime Nighttime Cold and Flu; Daytime Nighttime Multi Symptom Cold Childrens; Daytime Nighttime Severe Cold; Daytime Nighttime Severe Cold Cough and Flu Relief; Daytime Nighttime Severe Cold and Flu; Daytime Nighttime Severe Cough and Cold; Daytime Severe Cold Nighttime Cold and Flu; Daytime Severe Cold and Cough and Nighttime Severe Cold and Cough; Daytime Severe Cold and Flu Nighttime Severe Cold, Cough and Flu; Daytime Sinus Nighttime Sinus Maximum Strength; Daytime and Nighttime Pain Relief; Daytime and Nighttime Sinus Congestion PE; Delsym Childrens Night Time Cough and Cold; Delsym Cough Plus Chest Congestion DM and Delsym Cough Plus Cold Night Time; Delsym Cough Plus Cold Day Time and Delsym Cough Plus Cold Night Time; Delsym Cough Plus Cold Night Time; Delsym Night Time Cough and Cold; Dermagesic; Dermamine Extra Strength Itch Stopping; Dermarest Plus - Gel; Dg Health Allergy; Dg Health Allergy Childrens; Dg Health Allergy Relief; Dg Health Anti Itch; Dg Health Flu and Severe Cold and Cough; Dg Health Headache Relief PM; Dg Health Naproxen Sodium PM; Dg Health Pain Relief PM; Dg Health Pain Relief PM Extra Strength; Dg Health Sleep Aid; Dg Health Triacting Night Time Cold and Cough; Di-phen; Diabetic Tussin Nighttime Cold and Flu; Dicopanol; Dimetane Allergy Tablets; Dimetapp Cold and Cough and Dimetapp Nighttime Cold and Congestion; Dimetapp Cold and Cough and Nighttime Cold and Congestion; Dimetapp Multi-Symptom Cold and Flu; Dimetapp Nighttime Cold and Congestion; Diphen; DiphenMax; Diphendydramine Hydrochloride; Diphenhist; Diphenhydramine; Diphenhydramine D; Diphenhydramine HCL; Diphenhydramine HCL 25 mg; Diphenhydramine HCl; Diphenhydramine HCl 12.5mg Antihistamine; Diphenhydramine HCl 25 mg; Diphenhydramine HCl 25mg; Diphenhydramine HCl 25mg 24ct Blister; Diphenhydramine HCl Allergy Antihistamine; Diphenhydramine HCl Children's Liquid; Diphenhydramine HCl Inj USP 50mg/ml; Diphenhydramine HCl Injection, USP; Diphenhydramine HCl Oral Solution; Diphenhydramine HCl and Ibuprofen; Diphenhydramine HCl and Zinc Acetate; Diphenhydramine HCl, Zinc Acetate; Diphenhydramine Hci; Diphenhydramine Hcl; Diphenhydramine Hydrochloride; Diphenhydramine Hydrochloride 25 Mg Tablet; Diphenhydramine Hydrochloride 25mg; Diphenhydramine Hydrochloride 50 Mg Caplet; Diphenhydramine Hydrochloride 50 Mg Capsule; Diphenhydramine Hydrochloride 50 Mg Capsules USP Extra Strength Sleep Aid; Diphenhydramine Hydrochloride 50mg USP; Diphenhydramine Hydrochloride Antihistamine; Diphenhydramine Hydrochloride Caplets 25mg; Diphenhydramine Hydrochloride Caplets 50 mg; Diphenhydramine Hydrochloride Elixir U.S.P.; Diphenhydramine Hydrochloride Elixir USP; Diphenhydramine Hydrochloride Injection; Diphenhydramine Hydrochloride Injection USP; Diphenhydramine Hydrochloride and Zinc Acetate; Diphenhydramine Oral Liquid; Diphenhydramine hydrochloride; Diphenist 50mg/ml; Discount Drug Mart Extra Strength Itch Stopping; Discount Drug Mart Regular Strength Itch Stopping; Discount Drugmart Allergy Relief; Discount Drugmart Nighttime Sleep-Aid; Doctor Manzanilla Allergy and Decongestant Relief; Doctor Manzanilla Cough Suppressant and Nasal Decongestant; Doctor Manzanilla Cough and Cold; Dorm-L Tab 25mg; Dormax; Dormin; Dormiphen Comprime; Dormiphen Extra-fort Capsule; Dormiphen Extra-fort Comprime; Dormirax 25; Dormirax 50; Dr Cocoa Day Night Combo; Dr. Cocoa Nighttime Cough and Cold; Dr. Cocoa for Children Nighttime Cough + Cold; Dr. Sheffield Anti Itch Cream; DrKids Childrens Muti Symptom Cold Flu and Sore Throat Nighttime; Dreamol Extra Strength; Drx Choice childrens allergy chews; Duane Reade anti-itch; Dye Free Allergy childrens; Dye Free Childrens Allergy Relief; Dye Free Childrens Diphenhydramine Hydrochloride; Dye Free Sleep Aid; Dye Free Wal Dryl Allergy childrens; Dye Free Wal Sleep Z; Dye-Free ALLERGY; Dye-Free Adult ALLERGY; Dye-Free Allergy; Dye-Free Allergy Relief; Dye-Free Childrens ALLERGY; Dye-Free Wal-Dryl; Dye-free Adult Allergy Liquid Medication; Dye-free Allergy; Dye-free Allergy Relief; EZ Nite Sleep; EZ Nite Sleep Aid; EZ Nite Sleep Berry; EZ Nite Sleep Nighttime Sleep Aid; EZ Nite Sleep Nighttime Sleep-Aid; Each Relief Equate; Easy Care First Aid Diphenhydramine; Easy Care First Aid Kit - Comprehensive; Effective Itch Relief; End-A-flu Multi-symptom Severe Cold and Cough Nighttime Formula; Endal CD; Equaline Allergy; Equaline Anti Itch; Equaline Anti-itch; Equaline Flu and Severe Cold and Cough; Equaline Ibuprofen PM; Equaline Naproxen Sodium PM; Equaline Night Time Cold and Cough Childrens; Equaline Night Time Sleep Aid; Equaline Pain Relief PM; Equaline Pain Relief PM Extra Strength; Equate All Night Pain Relief; Equate Allergy Relief; Equate Anti Itch; Equate Childrens Multi symptom Cold Nighttime; Equate Flu and Severe Cold and Cough; Equate Ibuprofen PM; Equate Itch Relief Gel; Equate Night Time Cold and Cough Childrens; Equate Nighttime Sleep Aid; Ergodryl Cap; Excedrin PM; Excedrin PM Triple Action Caplets; Excedrin PM Triple Action Caplets and Excedrin Extra Strength Pain Reliever; Excedrin PM Triple Action Caplets and Excedrin Tension Headache; Exchange Select Ibuprofen PM; Excinol Night (Acetaminophen); Extra Strength Acetaminophen PM; Extra Strength Allergy Formula Liquid Capsules; Extra Strength Allergy Formula Nighttime; Extra Strength Allergy Total; Extra Strength Benadryl Allergy; Extra Strength Benadryl Allergy Nighttime; Extra Strength Dormex Caplets; Extra Strength Dormex Capsules; Extra Strength First Aid Anti-itch Rite Aid; Extra Strength Flu Relief Nightime; Extra Strength Itch Stopping; Extra Strength Mapap PM; Extra Strength Multi-symptom Relief Sugar Free; Extra Strength Neocitran Flu Syrup; Extra Strength Neocitran Total Symptom Relief - Sugar Free; Extra Strength Night Time Pain Medicine; Extra Strength Night Time Pain Relief; Extra Strength Nighttime Allergy Liquid Gel Capsules; Extra Strength Nighttime Pain Reliever / Sleep Aid; Extra Strength Nite-Time Pain Relief; Extra Strength NiteTime Pain Relief; Extra Strength Nitetime Sleep Aid Gel Caps; Extra Strength No-pain PM; Extra Strength Non-Aspirin PM; Extra Strength Nytol Quickgels; Extra Strength Nytol Tab 50mg; Extra Strength PM Pain Relief; Extra Strength Pain Relief PM; Extra Strength Pain Reliever PM; Extra Strength Simply Sleep Liqui-gels; Extra Strength Sinus Relief Nighttime; Extra Strength Sinutab Sinus Nighttime; Extra Strength Sleep Aid; Extra Strength Sleep Aid Fast; Extra Strength Sleep Aid Liquid Gels; Extra Strength Total Symptom Relief Sugar-free; Extra Strength Tylenol Allergy Sinus Nighttime Caplet; Extra Strength Tylenol Allergy and Cough; Extra Strength Tylenol Complete Cold, Cough & Flu Nighttime; Extra Strength Tylenol Flu Nighttime Gelcap; Extra Strength Tylenol Nighttime; Extra Strength Tylenol PM; Extra Strength Tylenol Pain and Head Cold Night; Extra Strength Tylenol Pain and Head Cold Night Rapid Release; Extra Strength Wal-dryl Itch Relief; Extra strength first aid anti-itch Rite Aid pharmacy; Ez Nite Sleep; FIRST BXN Mouthwash; FIRST Dukes Mouthwash Compounding; FIRST Marys Mouthwash Compounding; FIRST Mouthwash BLM; FLU-MED NIGHTTIME SEVERE COLD and COUGH; Facol Cold and Flu Day and Night; Facol Cold and Flu Night; Family Care Anti-Itch; Family Care Anti-itch; Family Dollar Nighttime Severe Cold and Cough honey lemon infused with chamomile and white tea flavors; Family Wellness; Family Wellness Allergy; Family Wellness Ibuprofen PM; Family Wellness Severe Cold and Cough; Family Wellness Sleep Aid; Family Wellness flu and severe cold and cough nighttime; Fast Maximum Night Time Cold and Flu; First Aid Shot Therapy Allergy Relief; First Aid Shot Therapy Sleep Aid; FirstCare Allergy Relief DIPHENHYDRAMINE HCI, 25 mg Antihistamine; FirstCare Childrens Allergy Diphenhydramine HCl Chewable Gels; Firstcare Childrens Allergy Relief; Flu Relief; Flu Relief Therapy; Flu Relief Therapy Night Time; Flu Relief Therapy Nighttime; Flu Relief Therapy Nighttime Severe Cold; Flu Relief Therapy Severe Cough and Cold Nighttime; Flu and Severe Cold Nighttime Relief; Flu and Severe Cold and Cough; Flu and Severe Cold and Cough Night Time; Flu and Severe Cold and Cough Nighttime; Flu and Sore Throat; Flu and Sore Throat Relief; Flu and severe cold daytime nighttime; Flu, Cough & Cold Complete Day and Night; Flu, Cough and Sore Throat; Formu Care Flu and Severe Cold and Cough Night Time; Formule Allergie Liquide; Fridababy Children Allergy Relief Diphenhydramine HCl 12.5mg per 5mL vial , 15ct; Fulton Street Market Nighttime Flu and Severe Cold and Cough; Genexa Acetaminophen PM Extra Strength; Geri Dryl; Geri-Dryl allergy relief; Geri-dryl; Good Neighbor Allergy Relief; Good Neighbor Pharmacy Allergy; Good Neighbor Pharmacy Childrens Allergy; Good Neighbor Pharmacy Cleartime; Good Neighbor Pharmacy Cold and Flu Night Time; Good Neighbor Pharmacy Flu and Severe Cold and Cough; Good Neighbor Pharmacy Flu and Severe Cold and Cough Nighttime; Good Neighbor Pharmacy Headache PM; Good Neighbor Pharmacy Ibuprofen PM; Good Neighbor Pharmacy Itch Relief Extra Strength; Good Neighbor Pharmacy Mucus Relief Severe Cold Cold and Flu Night Time; Good Neighbor Pharmacy Pain Relief PM; Good Neighbor Pharmacy Pain Relief and Pain Relief PM; Good Neighbor Pharmacy Sinus Relief Day Time Night Time; Good Neighbor Pharmacy Sleep Aid; Good Neighbor Pharmacy Sleep Time; Good Neighbor Pharmacy allergy; Good Sense Allergy; Good Sense Allergy Relief; Good Sense Flu and Severe Cold and Cough; Good Sense Flu and Severe Cold and Cough Nighttime; Good Sense Ibuprofen PM; Good Sense Itch Relief; Good Sense Naproxen Sodium; Good Sense Nighttime Sleep Aid; Good Sense Pain Relief PM; Good Sense Pain Relief PM Extra Strength; Good Sense Sleep Aid; Good Sense Sleep Time; Good Sense headache pm; Good Sense pain relief pm extra strength; Good neighbor Pharmacy Itch Relief; Goodys PM; Goodys PM Pain Reliever; Handy Solutions Allergy Relief; Harris Teeter Acetaminophen PM; Harris Teeter Allergy Relief; Harris Teeter Anti-Itch; Harris Teeter Childrens Allergy; Harris Teeter Ibuprofen PM; Harris Teeter Sinus Relief; Headache Formula PM; Headache PM; Headache PM Aspirin Free; Headache PM Formula; Headache Relief PM; Health Mart Childrens Allergy Plus Congestion; Health Mart Childrens Allergy Relief; Health Mart Maximum Strength Sleep Aid; Health Mart Nighttime Sleep Aid; Health Mart Z Sleep; Health Mart ibuprofen PM; Health Mart severe cold cough and flu; Health Mart z-sleep; Health mart allergy childrens; Healthy Accents Allergy; Healthy Accents Allergy Relief; Healthy Accents Anti Itch; Healthy Accents Ibuprofen PM; Healthy Accents Nighttime Sleep Aid; Healthy Accents Pain Relief PM; Healthy Accents Pain Relief PM Extra Strength; Healthy Accents Severe Cold; Healthy Accents Sinus Relief; Healthy Accents Sleeptime; Helath Mart Childrens allergy relief dye free; Help I Can't Sleep; Help I cant Sleep; Histaprin; Hydramine; IC Ivy Relief; Ibuprofen Daytime, Ibuprofen Nighttime; Ibuprofen Nighttime; Ibuprofen PM; Ibuprofen and Diphenhydramine Citrate; Ibuprofen and Diphenhydramine HCl; Ibuprofen and Diphenhydramine Hydrochloride Capsules; Ibuprofen, Diphenhydramine HCl; Industrial Itch and Pain Relief; Insomnal; Insomnal Cap 25mg; Insomnal DS; Instant Itch Relief CVS; Itch Rel Spr Cvs; Itch Relief; Itch Relief Cream; Itch Relief Extra Strength; Itch Relief Gel; Itch Relief Spray; Itch Relief Stick; Itch Relief extra strength; Itch Relif Cvs; Itch Stopping; Itch and Bite Relief First Aid Kit; Itch relief Cream; Ivarest; Jack & Jill Bedtime; Jack & Jill Bedtime Cough & Cold; Jack & Jill Thin Strips Cough & Cold; Jamp Diphenhydramine 25 mg; Jamp Diphenhydramine 50 mg; Jamp Diphenhydramine Children's Syrup; Jet-Asleep Double Strength Night Time Sleep Aid; Johnson and Johnson All Purpose First Aid Kit; Junior Strength Allergy Formula; Junior Strength Allergy Tablets; KMart - Pain Relief PM; Kids Allergy; Kids-EEZE Allergy; Kinkan Cool; Kroger Allergy Relief; Kroger NIGHTTIME SLEEP AID; Kroger Nighttime Sleep-Aid; Kroger NiteTime Cold and Flu; Kroger NiteTime Flu plus Severe Cold and Cough; L-Oral ALLERGEX Hay Fever and Allergy Relief Syrup; LEADER Nighttime Sleep-Aid; Leader Allergy; Leader Anti Itch; Leader Anti Itch Maximum Strength; Leader Childrens Allergy; Leader Childrens Allergy Relief; Leader Cold and Flu; Leader Flu and Severe Cold and Cough; Leader Headache PM Formula; Leader Headache Relief PM; Leader Ibuprofen PM; Leader Maximum Strength Sleep Aid; Leader Night Time Cough and Cold Childrens Triacting; Leader Pain Reliever PM; Leader Restfully Sleep; Leader Severe Cold and Cough; Leader Sleep Aid; Leader SleepTime; Leader allergy; Leader ibuprofen pm; Legatrin PM; Lil Drug Store Allergy Antihistamine; Lil Drug Store Nighttime Sleep-Aid; Lil Drug Store Products Allergy Antihistamine; Lil Drug Store Tylenol PM Extra Strength; Live Better Anti-Itch; Lotion Calamine Avec Antihistaminique; Lucky Itch Stopping; M-Dryl; MAXIMUM STRENGTH Nighttime Sleep Aid; MYGRIN Nighttime; Maximum Strength Adult Allergy Relief; Maximum Strength First Aid Anti-Itch Rite Aid; Maximum Strength Mucinex Fast-Max Day Time Cold and Flu and Maximum Strength Mucinex Fast-Max Night Time Cold and Flu; Maximum Strength Mucinex Fast-Max Day Time Cold and Flu and Night Time Cold and Flu; Maximum Strength Mucinex Fast-Max Night Time Cold and Flu; Maximum Strength Nighttime Cold and Flu; Maximum Strength Nighttime Sleep-Aid; Maximum Strength Sleep Aid; Medi-First Diphenhydramine Hydrochloride; Medique Diphen; Medique at Home Diphen; Meijer Anti-itch; Meijer Childrens Allergy Relief Bubblegum flavor; Meijer Nighttime Severe Cold and Cough Honey Lemon infused with Chamomile and White Tea Flavors; Meijer Nighttime Sleep Aid Non Habit Forming; Meijer Nighttime Sleep-aid Berry Flavor; Midol PM; Motrin PM; Mountain Series Weekender Medical; Mucinex Childrens Day Time Multi-Symptom Cold and Mucinex Childrens Night Time Multi-Symptom Cold Triple Pack; Mucinex Childrens Day Time Multi-Symptom Cold and Night Time Multi-Symptom Cold; Mucinex Childrens Night Time Multi-Symptom Cold; Mucinex Fast Max Day Time Severe Congestion and Cough and Night Time Cold and Flu; Mucinex Fast-Max Day Time Cold and Flu and Night Time Cold and Flu; Mucinex Fast-Max Day Time Severe Cold and Mucinex Fast-Max Night Time Cold and Flu Maximum Strength; Mucinex Fast-Max Day Time Severe Congestion and Cough - Mucinex Fast-Max Night Time Cold and Flu Maximum Strength; Mucinex Fast-Max Day Time Severe Congestion and Cough and Mucinex Fast-Max Night Time Cold and Flu Maximum Strength; Mucinex Fast-Max Night Time Cold and Flu; Mucinex Fast-Max Night Time Cold and Flu Clear and Cool; Mucinex Fast-Max Severe Congestion and Cough Clear and Cool and Mucinex Fast-Max Night Time Cold and Flu Clear and Cool; Mucinex Sinus-Max Day Night; Mucinex Sinus-Max Day Night Maximum Strength; Mucinex Sinus-Max Day Time Severe Congestion Relief and Mucinex Sinus-Max Night Time Congestion and Cough Maximum Strength; Mucinex Sinus-Max Night Time Congestion And Cough; Mucus Relief All In One Daytime Nighttime Cold Flu Maximum Strength; Mucus Relief All in One Maximum Strength; Mucus Relief Day Time and Night Time; Mucus Relief Daytime/Nighttime; Mucus Relief Daytime/Nighttime/Maximum Strength; Mucus Relief Nighttime Cold Flu Maximum StrengthCold Flu and Sore Throat; Mucus Relief Nighttime Congestion Cough Maximum Strength; Mucus Relief Severe Cold Daytime Cold and Flu Nighttime; Mucus Relief Severe Congestion Cough Night Time Cold and Flu Maximum Strength; Mucus Relief Sinus Congestion Daytime Nighttime Maximum Strength; Mucus Relief Sinus Day and Night; Mucus Relief cold and flu Daytime/Nighttime; Mucus Sinus Relief Day and Night; Multi Symptom Cold and Multi Symptom Nighttime Cold Childrens; Multi Symptom NightTime Cold; Multi Symptom Severe Cold; Multi Symptom Severe Cold PE; Multi Symptom Severe Cold and Nighttime Severe Cold and Cough; Multi Symptom Sinus Relief Pain and Congestion Daytime Nighttime; Multi-Symptom Cold and Cough Daytime Nighttime; Multi-symptom Allergy; NIGHTTIME SLEEP AID Maximum Strength; NON ASPIRIN PM Extra Strength; NOTTS - Pain Relief PM; Nadryl 25mg; Nadryl 50mg; Naproxen PM; Naproxen Sodium Diphenhydramine HCl; Naproxen Sodium PM; Naproxen Sodium and Diphenhydramine HCl; Naproxen Sodium and Diphenhydramine Hydrochloride; Naramin; Neocitran Extra Strength Total Cold Night; Neocitran Thin Strips Nighttime Cough; Neocitran Thin Strips Nighttime Cough and Cold; Neocitran Total Cold Night; Night Cough Liquid Fastgels; Night Time Cold & Flu Liquid; Night Time Cold and Cough Childrens; Night Time Cold and Flu; Night Time Cough and Cold Relief; Night Time Severe Cold and Cough; Night Time Severe Cold and Cough Relief; Night Time Sleep Aid; Night Time Sleep-aid; NightTime Cold; NightTime Cold and Cough Children; NightTime Cold and Flu; NightTime Pain Reliever PM; NightTime Sleep Aid Maximum Strength; Nightime Sleep Aid; Nighttime; Nighttime Allergy; Nighttime Allergy Relief Extra Strength; Nighttime Cold and Cough Childrens; Nighttime Cold and Cough Sugar-Free; Nighttime Cold and Cough childrens; Nighttime Cold and Flu; Nighttime Cold and Flu Maximum Strength; Nighttime Cold and Flu Relief Therapy; Nighttime Cold and Flu-IN-one Extra Strength; Nighttime Cold, Cough & Flu; Nighttime Flu Relief Therapy Severe Cold; Nighttime Flu and Severe; Nighttime Flu, Cough & Cold Complete Relief Extra Strength; Nighttime Liquigel Sleep-aid; Nighttime Pain Plus Sleep; Nighttime Pain Relief; Nighttime Pain Reliever; Nighttime Pain Reliever plus Sleep Aid; Nighttime SLEEP AID; Nighttime Severe Cold and Cough; Nighttime Severe Cough and Cold; Nighttime Severe cold cough and flu relief; Nighttime Sleep; Nighttime Sleep Aid; Nighttime Sleep Aid Alcohol Free; Nighttime Sleep Aid Berry Flavor; Nighttime Sleep Aid Liquid; Nighttime Sleep Aid Maximum Strength; Nighttime Sleep Aid Non Habit Forming; Nighttime Sleep Aid Softgels; Nighttime Sleep Aid maximum strength; Nighttime Sleep Easy; Nighttime Sleep-Aid; Nighttime Sleep-Aid Maximum Strength; Nighttime Sleep-Aid Non-Habit Forming; Nighttime Sleep-Aid Softgel; Nighttime Sleep-aid; Nighttime Sleepaid; Nighttime Snooze; Nighttime Super Strength Contac Complete; Nighttime Symptom Relief Extra Strength for Symptoms Of Cold and Cough; Nighttime Total Cold and Flu; Nighttime Wal Flu Severe Cold and Cough; Nighttime sleep aid; Nighttime sleep aid Maximum Strength; Nite Time Cold and Cough; Nite Time Sleep Aid LiquidGels; Niteclear Cold and Flu Relief; Non Aspirin PM Extra Strength; Non-Aspirin PM Extra Strength; North Antihistamine; Novex Diphenhydramine; Nyt Time Sleep Caps; Nytol; Nytol Extra Strength Sleep Aid Caplet 50mg; Nytol QuickCaps; Nytol Tablet 25mg; Olp Anti-itch Allergy Relief; On The GO-Dose; Only For ALLERGY; Only For BODY PAIN; Only For FIRST AID MEDICINE; Only For SLEEP; Our Family night time severe cold and cough honey lemon infused with chamomile and white tea flavors; PAIN RELIEF PM Extra Strength; PAIN RELIEVER PM Extra Strength; PM Acetaminophen; PM Get Relief; PM pain reliever; PMS-diphenhydramine Elixir 2.5mg/ml; PMS-diphenhydramine Hydrochloride Inj 50mg/ml; Pain Away plus Sleep aid; Pain Plus Sleep; Pain Relief Acetaminophen PM; Pain Relief Acetaminophen PM Extra Strength; Pain Relief Medicine PM; Pain Relief PM; Pain Relief PM Extra Relief; Pain Relief PM Extra Strength; Pain Relief PM Extra Strength Aspirin Free; Pain Relief PM Extra strength; Pain Relief PM Nightime Sleep Aid; Pain Relief PM Rapid Release; Pain Relief PM extra Strength; Pain Relief PM extra strength; Pain Relief Pain Relief PM; Pain Relief and Pain Relief PM; Pain Relief plus Sleep Aid; Pain Reliever & Sleep Aid; Pain Reliever Extra Strength PM; Pain Reliever PM; Pain Reliever PM Extra Strength; Pain Reliever PM Extra strength; Pain Reliever PM extra strength; Pain Reliever Sleep Aid Extra strength; Pain Reliever and Sleep Aid; Pain reliever PM Extra Strength; Panadol PM; Pdp-diphenhydramine; Pdp-diphenhydramine Extra Strength/ Extra Fort; PediaCare Childrens Allergy and Cold; PediaCare Childrens Nighttime Multi Symptom Cold; Pediacare Childrens Allergy; Percogesic Extra Strength; Percogesic Original Strength; Pharbedryl; PhysiciansCare Allergy Antihistamine; Picnic Antihistamine; Plus Pharma; Plus Pharma Extra Strength Acetaminophen PM; Preferred Plus Cold and Flu Night Time; Preferred Plus Complete Allergy Medicine; Preferred Plus Severe Cold Cough and Flu; Preferred Plus Severe Cold Day Time Cold and Flu Night Time; Preferred Plus Sinus Relief Day Tiime Night Time; Premier Value Allergy; Premier Value Nighttime Sleep Aid Softgels; Premier Value Nighttime Sleep-Aid Liquid Sleep-Aid; Premier Value Sleep-Aid; Premier Value night time severe cold and cough honey lemon infused with chamomile and white tea flavors; Publix allergy; Pulmorex DM Syr; Pulmorex Expectorant Liq; Q-dryl; Qdryl Allergy; Quality Choice Extra Strength Anti Itch; Quality Choice Itch Relief; Quality Choice Nighttime Severe Cold and Cough Honey Lemon infused with Chamomile and White Tea Flavors; Quality Choice Severe Cold and Cough Nighttime; Quality Choice night time severe cold and cough honey lemon infused with chamomile and white tea flavors; Quenalin Cough; RIGHT REMEDIES Allergy Relief; Rapid Release Acetaminophen PM Extra Strength; Rapid Release Pain Relief PM; Reeses Onetab Allergy and Sinus; Reeses Onetab Cold and Flu; Regular Strength Dormex Capsules; Regular Strength Flu Relief Nightime; Regular Strength Sleep Aid; Rest Simply; Restfully Sleep; Rexall Childrens Allergy; Rexall Sleep Aid; Rite Aid Anti-Itch; Rite Aid Itch Relief; Rite Aid Maximum Strength Itch Relief; Rite Aid Nighttime Severe Cold and Cough Relief; Rite Aid Nighttime Sleep Aid Non Habit Forming; Rite Aid night time severe cold and cough honey lemon with chamomile and white tea flavors; RiteAid Nighttime Sleep Aid; Robitussin Direct Runny Nose; Robitussin Honey Severe Cough, Flu Plus Sore Throat Nighttime; Robitussin Night Time Cough and Chest Congestion; Robitussin Night Time Cough and Cold; Robitussin Night Time Cough, Cold and Flu; Robitussin Peak Cold Nighttime Multi-symptom Cold; Robitussin Severe Multi-Symptom Cough Cold Flu Nighttime; Rugby Acetaminophen 500 mg and Diphenhydramine HCl 25 mg Pain Reliever/Sleep Aid; Rugby Diphenhist; Rugid Itch and Pain Relief; Rx Act Flu and Severe Cold and Cough Nighttime; Rx Act Ibuprofen PM; Rx Act Pain Relief PM Extra Strengh Rapid Release; SEVERE COLD DAY COLD and FLU NIGHT; SINUS RELIEF Maximum Strength Daytime and Nighttime Sinus Pain; Salonpas Medicated Plaster; SanaTos Severe Cold and Cough Nighttime; Scheinpharm Diphenhydramine Inj.50mg/ml; Sebrx Topical Analgesic; Sedamo; Sedicin Tablets 25mg; Select Brand Extra Strength Itch Stopping; Select Brand Itch Relief; Select Health Allergy Relief Cherry; Severe Allergy; Severe Allergy And Sinus Headache; Severe Allergy And Sinus Headache Maximum Strength; Severe Allergy Plus Sinus Headache; Severe Allergy Plus Sinus Headache Maximum Strength; Severe Allergy Relief Plus Sinus Headache; Severe Cold; Severe Cold Cough and Flu; Severe Cold Cough and Flu Relief Nighttime; Severe Cold Daytime Cold and Flu Nighttime; Severe Cold PE; Severe Cold PE Multi-Symptom; Severe Cold Relief PE; Severe Cold and Cough Night Time; Severe Cold and Cough Nighttime; Severe Cold and Cough Relief Nighttime; Severe Cold and Flu; Severe Cold, Cold and Flu Daytime, Nighttime, Maximum Strength; Severe Cold, Cold and Flu Maximum Strength, Daytime, Nightime; Severe Cold, Flu and Cough; Severe Congestion and Cough, Cold and Flu Daytime and Nighttime; Severe Congestion and Cough, Cold and Flu Daytime, Nighttime; Severe Congestion and Cough/ Cold and Flu Daytime/nighttime; Severe Congestion and Cough/Cold and Flu Daytime/Nighttime/Maximum Strength; Severe Cough and Cold; Severe Cough and Congestion and Cold and Flu Daytime, Nighttime; ShopRight Childrens Nighttime Cold and Cough; ShopRite Allergy Relief; ShopRite Anti Itch; ShopRite Childrens Allergy; ShopRite Nighttime Flu Plus Severe Cold and Cough; ShopRite Non Aspirin; ShopRite Pain Relief PM; ShopRite Sleep Aid; Shopko Anti-Itch; Shoprite Ibuprofen PM; Signature Care Allergy Relief; Signature Care Ibuprofen PM; Signature Care Itch Relief; Signature Care Naproxen Sodium PM; Signature Care severe cold cough and flu Nighttime; Siladryl Allergy Medicine; Silphen; Simply Right Diphenhydramine Hydrochloride Allergy Relief; Simply Sleep; Simply Sleep Liqui-gels; Sinus PE Congestion; Sinus Pressure and Congestion Relief; Sinus Pressure and Pain Daytime Nighttime Maximum Strength; Sinus Relief; Sinus Relief Congestion and Cough Maximum Strength; Sinus Relief Day Night; Sinus Relief Day and Night; Sinus Relief Daytime Nighttime; Sinus Relief Daytime, Nighttime; Sinus Relief Daytime, Nighttime, Maximum Strength; Sinus Relief Nightime Caplets; Sinus Severe Cold Multi-Symptom; Sinutab Daytime/nightime Extra Strength Caplets (combo Pack); Sinutab N.T. Regular Strength Caplets; Sinutab PE Sinus and Allergy; Sleep; Sleep Aid; Sleep Aid (regular Strength) Tab 25mg; Sleep Aid Caplets; Sleep Aid Dye-Free NIghttime; Sleep Aid Extra Strength; Sleep Aid Extra Strength Tab 50mg; Sleep Aid Liquid Fastgels; Sleep Aid Liquid Gels; Sleep Aid Maximum Strength; Sleep Aid Maximum Strength Nighttime; Sleep Aid Night Time; Sleep Aid NightTime; Sleep Aid Nighttime; Sleep Aid Nite Time; Sleep Aid Plus Pain Relief; Sleep Aid Regular Strength; Sleep Aid Regular strength; Sleep Aid maximum strength; Sleep Easy; Sleep Eze D Caplet 25mg; Sleep Eze D Extra Strength Cap 50mg; Sleep Eze D Extra Strength Caplet 50mg; Sleep II Nighttime Sleep Aid; Sleep Nighttime Sleep Aid; Sleep Tabs; Sleep Tabs For Nighttime use; Sleep Time; Sleep aid Maximum Strength; Sleep original formula; Sleep-Aid; Sleep-Aid Chewables Nighttime; Sleep-Aid Diphenhydramine HCl; Sleep-Aid Maximum Strength; Sleep-Aid Nighttime; Sleep-Aid Regular Strength; Sleep-Aid, Circle K; Sleep-Aid, Lil Drug Store; Sleep-EZ Nighttime Sleep Aid; Sleep-aid; Sleep-aid Extra Strength; Sleep-eze; Sleep-eze D Extra Strength Capsules; Sleep-eze Extra Strength Caplets; Sleep-eze Extra Strength Gelcaps; Sleep-eze Extra Strength Minis; Sleep-eze Eze-free; Sleep-eze Eze-liquid; Sleep-eze Regular Strength Caplets; SleepEze minis; SleepTime; Sleepaid Extra Strength Capsules; Sleepeze; Sleepeze Gelcaps; Sleepeze eze melts; Sleepinal; Sleeptime; Sleeptime Dry Cough; Sleepwell; Smart Sense Allergy; Smart Sense Allergy Relief; Smart Sense Anti Itch Extra Strength; Smart Sense Childrens Nighttime Cold and Cough; Smart Sense Childrens allergy relief; Smart Sense Flu and Severe Cold and Cough Nighttime; Smart Sense Ibuprofen PM; Smart Sense Itch Stopping; Smart Sense Nightime Sleep Aid; Smart Sense Nighttime Sleep Aid; Smart Sense Pain Relief PM Extra Strength; Smart Sense Sinus Relief; Smart Sense Sleep Aid; Smart Sense Topical Analgesic Skin Protectant; Smart Sense Triacting; Smart sense Nighttime Severe Cold and Cough Honey Lemon infused with Chamomile and White Tea Flavors; SnoozEase Nighttime Sleep-Aid; SohMed Allergy; SohMed Pain Relief PM; Sominex; Sominex Extra Strength Caplet 50mg; Sominex Max; Sominex Tablets 25mg; Somnapure Clinical Strength; Somnitabs; Sound Body Childrens Allergy Relief; Sound Body Nighttime Sleep Aid; Sound Body Pain Relief PM; Sound Body Sleep Aid; Sting Kure - Liq; Sting-eze-liq; Sudafed PE Cold and Cough; Sudafed PE Day Plus Night Sinus Congestion; Sudafed PE Sinus Congestion; Sudafed Sinus Nighttime; Sun Mark allergy relief; SunMark Allergy Relief; SunMark Night Time Sleep Aid; Sunmark Allergy Relief Antihistamine; Sunmark Anti-itch; Sunmark Ibuprofen PM; Sunmark Pain Reliever PM Extra Strength; Sunmark z sleep; Sunmark z-sleep; Super Strength Complete Cold Powder; Suphedrine PE; Suppress Cough Syr W.cod.diphen.hcl Amm.chl.; TRIAMINIC Childrens Night Time Cold and Cough; TRIAMINIC Night Time Cold and Cough; TUSSIN CF NIGHTTIME COUGH and COLD; TYLENOL PM Extra Strength; Tact; Tact Cool Jelly; Tecnu Calagel; Tecnu Rash Relief; Tekral; TexaClear Kids Cold Relief; TexaClear Nighttime Sleep-Aid; Texaclear Night Time Cough Cold/flu; Texaclear PM Pain Reliever Sleep Aid; The Itch Eraser; The Itch Eraser Gel; The Itch Eraser Max Strength; The Itch Eraser With Antihistamine; TheraCare Extra Strength Anti-Itch Cream Itch Stopping; Theraflu ExpressMax Daytime Nighttime Value Pack; Theraflu ExpressMax Flu, Cough, and Sore Throat; Theraflu ExpressMax Nighttime Severe Cold and Cough; Theraflu Expressmax Daytime Severe Cold and Cough and Theraflu Expressmax Nighttime Severe Cold and Cough; Theraflu Multi-Symptom Severe Cold and Theraflu Nighttime Severe Cold and Cough; Theraflu Nighttime Multi-Symptom Severe Cold Powder; Theraflu Nighttime Severe Cold and Cough; Theraflu Powerpods Nighttime Severe Cold; Theraflu Sugar Free Nightime Severe Cold and Cough; Theraflu Warming Relief Flu and Sore Throat; Theraflu Warming Relief Nighttime Severe Cold And Cough; Time-gesic; TopCare Allergy Relief; TopCare Anti-Itch; TopCare Mucus Relief and Cold and Flu; TopCare Nighttime Cold and Flu Simple Relief; TopCare Nighttime Severe Cold and Cough honey lemon infused with chamomile and white tea flavors; TopCare night time severe cold and cough honey lemon infused with chamomile and white tea flavors; Topcare All Night Pain Relief PM; Topcare Allergy; Topcare Anti Itch; Topcare Childrens Night Time Cold and Cough; Topcare Childrens Triacting Nightime Cold and Cough; Topcare Clear Time; Topcare Cold and Flu Night Time; Topcare Flu and Severe Cold and Cough; Topcare Headache PM Formula; Topcare Headache Relief PM; Topcare Ibuprofen PM; Topcare Pain Relief PM; Topcare Pain Relief PM Extra Strength; Topcare Sinus Relief Day Time Night Time; Topcare Sleep Aid; Topcare Sleep Aid Nighttime; Topcare Tussin CF; Topcare Tussin CF Max; Topcare ZZZ Sleep; Topcare childrens allergy; Topcare pain relief PM extra strength non habit forming; Total Cold & Flu Combo; Total Cold Hot Lemon Relief; Total Cold Night; Tranquil Nighttime; Triacting Night Time; Triacting Night Time Cold and Cough; Trialyn Syrup; Triaminic Day - Night Club Pack; Triaminic Day Time Cold and Cough and Night Time Cold and Cough; Triaminic Nighttime Cough and Cold; Triaminic Thin Strips Cough & Runny Nose; Triaminic Thin Strips Nighttime Cold & Cough; Tylenol Allergy Multi-Symptom Nighttime; Tylenol PM; Tylenol PM Extra Strength; Tylenol Sinus and Allergy Severe; Tylo Night (Acetaminophen); Unisom; Unisom C Nightime Sleep Aid Cap 50mg; Unisom PM Pain Nighttime Sleep Aid and Pain Reliever; Unisom Sleep Gels; Unisom SleepGels Nighttime Sleep-Aid; Unisom SleepMelts Nighttime Sleep-Aid; Unisom SleepMinis Nighttime Sleep-Aid; Unisom Sleepgels Extra Strength; Unisom Warming Cherry; Up and Up Acetaminophen PM; Up and Up Acetaminophen PM Extra Strength; Up and Up Allergy Relief; Up and Up Childrens Allergy Melts; Up and Up Childrens Cold and Cough Relief; Up and Up Childrens allergy medication; Up and Up Daytime Multi Symptom Severe Cold Nighttime Severe Cold and Cough; Up and Up Daytime Severe Cold Nighttime Cold and Flu; Up and Up Dye-free Childrens Allergy; Up and Up Flu and Severe Cold and Cough Relief; Up and Up Ibuprofen PM; Up and Up Naproxen Sodium PM; Up and Up Nighttime Flu and Severe Cold and Cough; Up and Up Nighttime Sleep Aid; Up and Up Nighttime Sleep-aid; Up and Up itch relief; VIcks Flu Therapy Severe Cold and Flu Night; Valumeds Allergy Relief; Valumeds Aspirin Free Headache Relief PM; Valumeds Nighttime Sleep Aid; Vanamine PD; Vanapain PM; Vicks Cough and Congestion PM; Vicks Nyquil Hot Remedy; Vicks QlearQuil Nighttime Allergy Relief; Vicks ZzzQuil Liquid and Liquicaps Combo; Vicks ZzzQuil Night Pain; Vicks childrens Cough Congestion Night; Wal Dryl; Wal Dryl Allergy Childrens; Wal Dryl Childrens Allergy; Wal Flu Severe; Wal Flu Severe Cold and Cough; Wal Flu Severe Cold and Cough Daytime Nighttime; Wal Sleep Z; Wal Som Nighttime Sleep Aid; Wal Som Nighttime Sleep Aid Nighttime; Wal- Dryl Itch Relief; Wal-Dryl; Wal-Dryl Allergy; Wal-Dryl Allergy Dye Free; Wal-Dryl Allergy Dye-Free; Wal-Dryl Allergy Plus Cold; Wal-Dryl Maximum Strength; Wal-Dryl PE ALLERGY PLUS CONGESTION; Wal-Dryl PE Allergy and Sinus; Wal-Dryl-D; Wal-Nadol PM; Wal-Phed PE; Wal-Phed PE Daytime / Nighttime; Wal-Phed PE Pressure plus Pain plus Cold Daytime, Nighttime, Multi-Symptom; Wal-Phed PE, Multi-Symptom; Wal-Phed PE, Multi-Symptom, Daytime, Nighttime; Wal-Sleep Z; Wal-Sleep Z Diphenhydramine HCl / Sleep Aid; Wal-Sleep Z Nighttime; Wal-Sleep Z Pain Relief; Wal-Som; Wal-dryl; Wal-dryl Allergy; Wal-dryl Itch Relief; Walgreens Anti Itch; Walgreens Anti Itch Cream; Walgreens Daytime Nighttime Wal-Flu Severe Cold and Cough Kit; Walgreens Original Strength Anti Itch; Walgreens Sugar Free Nighttime Wal-Flu severe cold and cough Natural honey lemon flavor; Walgreens night time wal-flu severe cold and cough honey lemon flavor infused with chamomile and white tea flavors; Warrior First Aid Anti Itch; Weeks and Leo Extra Strength Itch Stopping; Welby Allergy Relief; Well at Walgreens Multi-Symptom Wal-Flu Severe Cold and Nighttime Wal-Flu Severe Cold and Cough Kit; Welly Calm Balm; Welly Childrens Travel Medicine; Western Family Itch Relief; Western Family Nighttime Severe Cold and Cough honey lemon infused with chamomile and white tea flavors; WinCo Foods Nighttime Severe Cold and Cough honey lemon infused with chamomile and white tea flavors; WinCo Original Strength Anti-Itch; Winco Foods Childrens Allergy Relief Dye Free; X3 On-the-GO First Aid Topical Analgesic Itch Relief Spray; Xpect Extra Strength Itch Relief; Z-sleep; ZZZQuil Nightime Sleep-Aid; ZZZTime; ZoDen PD; Zzz Sleep; Zzz Time; ZzzQuil; ZzzQuil Alcohol Free Nighttime Sleep-Aid; ZzzQuil FREE OF; ZzzQuil Nighttime Sleep-Aid; ZzzQuil Soothing Berry; ZzzSleep; Zzzquil Alcohol Free; Zzzquil Liquid; allergy relief Childrens; allergy relief Diphenhydramine HCI 25 mg Antihistamine; basic care acetaminophen PM; childrens Allergy Dye Free Wal Dryl; dg health Ibuprofen pm; healthy mama eaZZZe THE PAIN; pain relief PM; rx act Pain Relief PM; severe cold and sinus relief PE; severe cold, cold and flu Daytime/Nighttime; smart sense Allergy Relief

> <INTERNATIONAL_BRANDS>
Aleryl; Alledryl; Allerdryl; Belix; Benylan; Dermodrin; Desentol; Dibondrin; Dimedrol; Diphen; Dormarex 2; Genahist; Histaxin; Hyrexin; Nytol Quickgels; Restamin; Siladryl; Silphen Cough

> <SALTS>
Diphenhydramine citrate; Diphenhydramine hydrochloride; Diphenhydramine methylbromide; Diphenhydramine salicylate

$$$$
