1081
  Mrv0541 02231215142D          

 34 37  0  0  0  0            999 V2000
    3.6020    2.8717    0.0000 O   0  0  0  0  0  0  0  0  0  0  0  0
    4.5704    3.6842    0.0000 O   0  0  0  0  0  0  0  0  0  0  0  0
    4.8396    0.5072    0.0000 N   0  0  0  0  0  0  0  0  0  0  0  0
    5.7751   -1.5553    0.0000 N   0  0  0  0  0  0  0  0  0  0  0  0
    4.8396    2.1573    0.0000 C   0  0  0  0  0  0  0  0  0  0  0  0
    4.1251    1.7447    0.0000 C   0  0  0  0  0  0  0  0  0  0  0  0
    5.5541    1.7447    0.0000 C   0  0  0  0  0  0  0  0  0  0  0  0
    4.1251    0.9197    0.0000 C   0  0  0  0  0  0  0  0  0  0  0  0
    5.5541    0.9197    0.0000 C   0  0  0  0  0  0  0  0  0  0  0  0
    4.8396   -0.3178    0.0000 C   0  0  0  0  0  0  0  0  0  0  0  0
    5.4716    2.6876    0.0000 C   0  0  0  0  0  0  0  0  0  0  0  0
    4.4270    2.8717    0.0000 C   0  0  0  0  0  0  0  0  0  0  0  0
    4.1251   -0.7303    0.0000 C   0  0  0  0  0  0  0  0  0  0  0  0
    4.1251   -1.5553    0.0000 C   0  0  0  0  0  0  0  0  0  0  0  0
    5.3283    3.5001    0.0000 C   0  0  0  0  0  0  0  0  0  0  0  0
    6.2469    2.4054    0.0000 C   0  0  0  0  0  0  0  0  0  0  0  0
    3.3001   -1.5553    0.0000 C   0  0  0  0  0  0  0  0  0  0  0  0
    4.1251   -2.3803    0.0000 C   0  0  0  0  0  0  0  0  0  0  0  0
    5.9603    4.0304    0.0000 C   0  0  0  0  0  0  0  0  0  0  0  0
    6.8788    2.9357    0.0000 C   0  0  0  0  0  0  0  0  0  0  0  0
    4.9501   -1.5553    0.0000 C   0  0  0  0  0  0  0  0  0  0  0  0
    6.7356    3.7482    0.0000 C   0  0  0  0  0  0  0  0  0  0  0  0
    3.1895    3.5863    0.0000 C   0  0  0  0  0  0  0  0  0  0  0  0
    2.8876   -2.2698    0.0000 C   0  0  0  0  0  0  0  0  0  0  0  0
    4.8396   -2.7929    0.0000 C   0  0  0  0  0  0  0  0  0  0  0  0
    2.8876   -0.8409    0.0000 C   0  0  0  0  0  0  0  0  0  0  0  0
    3.4106   -2.7929    0.0000 C   0  0  0  0  0  0  0  0  0  0  0  0
    2.3645    3.5863    0.0000 C   0  0  0  0  0  0  0  0  0  0  0  0
    2.0625   -2.2698    0.0000 C   0  0  0  0  0  0  0  0  0  0  0  0
    4.8396   -3.6179    0.0000 C   0  0  0  0  0  0  0  0  0  0  0  0
    2.0625   -0.8409    0.0000 C   0  0  0  0  0  0  0  0  0  0  0  0
    3.4106   -3.6179    0.0000 C   0  0  0  0  0  0  0  0  0  0  0  0
    1.6500   -1.5553    0.0000 C   0  0  0  0  0  0  0  0  0  0  0  0
    4.1251   -4.0304    0.0000 C   0  0  0  0  0  0  0  0  0  0  0  0
  1 12  1  0  0  0  0
  1 23  1  0  0  0  0
  2 12  2  0  0  0  0
  3  8  1  0  0  0  0
  3  9  1  0  0  0  0
  3 10  1  0  0  0  0
  4 21  3  0  0  0  0
  5  6  1  0  0  0  0
  5  7  1  0  0  0  0
  5 11  1  0  0  0  0
  5 12  1  0  0  0  0
  6  8  1  0  0  0  0
  7  9  1  0  0  0  0
 10 13  1  0  0  0  0
 11 15  2  0  0  0  0
 11 16  1  0  0  0  0
 13 14  1  0  0  0  0
 14 17  1  0  0  0  0
 14 18  1  0  0  0  0
 14 21  1  0  0  0  0
 15 19  1  0  0  0  0
 16 20  2  0  0  0  0
 17 24  2  0  0  0  0
 17 26  1  0  0  0  0
 18 25  2  0  0  0  0
 18 27  1  0  0  0  0
 19 22  2  0  0  0  0
 20 22  1  0  0  0  0
 23 28  1  0  0  0  0
 24 29  1  0  0  0  0
 25 30  1  0  0  0  0
 26 31  2  0  0  0  0
 27 32  2  0  0  0  0
 29 33  2  0  0  0  0
 30 34  2  0  0  0  0
 31 33  1  0  0  0  0
 32 34  1  0  0  0  0
M  END
> <DATABASE_ID>
DB01081

> <DATABASE_NAME>
drugbank

> <SMILES>
CCOC(=O)C1(CCN(CCC(C#N)(C2=CC=CC=C2)C2=CC=CC=C2)CC1)C1=CC=CC=C1

> <INCHI_IDENTIFIER>
InChI=1S/C30H32N2O2/c1-2-34-28(33)29(25-12-6-3-7-13-25)18-21-32(22-19-29)23-20-30(24-31,26-14-8-4-9-15-26)27-16-10-5-11-17-27/h3-17H,2,18-23H2,1H3

> <INCHI_KEY>
HYPPXZBJBPSRLK-UHFFFAOYSA-N

> <FORMULA>
C30H32N2O2

> <MOLECULAR_WEIGHT>
452.5873

> <EXACT_MASS>
452.246378278

> <JCHEM_ACCEPTOR_COUNT>
3

> <JCHEM_ATOM_COUNT>
66

> <JCHEM_AVERAGE_NEUTRAL_MICROSPECIES_CHARGE>
0.9690432388530652

> <JCHEM_AVERAGE_POLARIZABILITY>
51.57712363209488

> <JCHEM_BIOAVAILABILITY>
1

> <JCHEM_DONOR_COUNT>
0

> <JCHEM_FORMAL_CHARGE>
0

> <JCHEM_GHOSE_FILTER>
0

> <JCHEM_IUPAC>
ethyl 1-(3-cyano-3,3-diphenylpropyl)-4-phenylpiperidine-4-carboxylate

> <ALOGPS_LOGP>
5.74

> <JCHEM_LOGP>
5.884015037999999

> <ALOGPS_LOGS>
-5.49

> <JCHEM_MDDR_LIKE_RULE>
1

> <JCHEM_NEUTRAL_CHARGE>
1

> <JCHEM_NUMBER_OF_RINGS>
4

> <JCHEM_PHYSIOLOGICAL_CHARGE>
1

> <JCHEM_PKA_STRONGEST_BASIC>
8.49558763946689

> <JCHEM_POLAR_SURFACE_AREA>
53.33

> <JCHEM_REFRACTIVITY>
146.76189999999997

> <JCHEM_ROTATABLE_BOND_COUNT>
9

> <JCHEM_RULE_OF_FIVE>
0

> <ALOGPS_SOLUBILITY>
1.46e-03 g/l

> <JCHEM_TRADITIONAL_IUPAC>
tetrahydrofolic acid

> <JCHEM_VEBER_RULE>
0

> <DRUGBANK_ID>
DB01081

> <SECONDARY_ACCESSION_NUMBERS>
APRD00366

> <DRUG_GROUPS>
approved; illicit

> <GENERIC_NAME>
Diphenoxylate

> <SYNONYMS>
1-(3-Cyano-3,3-diphenylpropyl)-4-phenyl-isonipecotic acid ethyl ester; 2,2-Diphenyl-4-(4-carbethoxy-4-phenylpiperidino)butyronitrile; Difenossilato; Difenoxilato; Diphenoxylate; Diphenoxylatum; Ethyl 1-(3-cyano-3,3-diphenylpropyl)-4-phenyl-4-piperidinecarboxylate; Ethyl 1-(3-cyano-3,3-diphenylpropyl)-4-phenylisonipecotate

> <PRODUCTS>
Diphenoxylate Hcl and Atropine Sulfate; Diphenoxylate Hydrochloride and Atropine Sulfate; Diphenoxylate hydrochloride and atropine sulfate; Lomotil

> <SALTS>
Diphenoxylate hydrochloride

$$$$
