1086
  Mrv0541 02231215142D          

 12 12  0  0  0  0            999 V2000
    3.0791    1.3654    0.0000 O   0  0  0  0  0  0  0  0  0  0  0  0
    1.6500    1.3654    0.0000 O   0  0  0  0  0  0  0  0  0  0  0  0
    2.3645   -2.3472    0.0000 N   0  0  0  0  0  0  0  0  0  0  0  0
    2.3645    0.1279    0.0000 C   0  0  0  0  0  0  0  0  0  0  0  0
    3.0791   -0.2846    0.0000 C   0  0  0  0  0  0  0  0  0  0  0  0
    1.6500   -0.2846    0.0000 C   0  0  0  0  0  0  0  0  0  0  0  0
    2.3645   -1.5222    0.0000 C   0  0  0  0  0  0  0  0  0  0  0  0
    3.0791   -1.1096    0.0000 C   0  0  0  0  0  0  0  0  0  0  0  0
    1.6500   -1.1096    0.0000 C   0  0  0  0  0  0  0  0  0  0  0  0
    2.3645    0.9529    0.0000 C   0  0  0  0  0  0  0  0  0  0  0  0
    3.0791    2.1904    0.0000 C   0  0  0  0  0  0  0  0  0  0  0  0
    3.7935    2.6029    0.0000 C   0  0  0  0  0  0  0  0  0  0  0  0
  1 10  1  0  0  0  0
  1 11  1  0  0  0  0
  2 10  2  0  0  0  0
  3  7  1  0  0  0  0
  4  5  2  0  0  0  0
  4  6  1  0  0  0  0
  4 10  1  0  0  0  0
  5  8  1  0  0  0  0
  6  9  2  0  0  0  0
  7  8  2  0  0  0  0
  7  9  1  0  0  0  0
 11 12  1  0  0  0  0
M  END
> <DATABASE_ID>
DB01086

> <DATABASE_NAME>
drugbank

> <SMILES>
CCOC(=O)C1=CC=C(N)C=C1

> <INCHI_IDENTIFIER>
InChI=1S/C9H11NO2/c1-2-12-9(11)7-3-5-8(10)6-4-7/h3-6H,2,10H2,1H3

> <INCHI_KEY>
BLFLLBZGZJTVJG-UHFFFAOYSA-N

> <FORMULA>
C9H11NO2

> <MOLECULAR_WEIGHT>
165.1891

> <EXACT_MASS>
165.078978601

> <JCHEM_ACCEPTOR_COUNT>
2

> <JCHEM_ATOM_COUNT>
23

> <JCHEM_AVERAGE_NEUTRAL_MICROSPECIES_CHARGE>
5.9732564578585126e-05

> <JCHEM_AVERAGE_POLARIZABILITY>
17.458940489590255

> <JCHEM_BIOAVAILABILITY>
1

> <JCHEM_DONOR_COUNT>
1

> <JCHEM_FORMAL_CHARGE>
0

> <JCHEM_GHOSE_FILTER>
1

> <JCHEM_IUPAC>
ethyl 4-aminobenzoate

> <ALOGPS_LOGP>
2.20

> <JCHEM_LOGP>
1.5046047806666665

> <ALOGPS_LOGS>
-1.76

> <JCHEM_MDDR_LIKE_RULE>
0

> <JCHEM_NEUTRAL_CHARGE>
0

> <JCHEM_NUMBER_OF_RINGS>
1

> <JCHEM_PHYSIOLOGICAL_CHARGE>
0

> <JCHEM_PKA_STRONGEST_BASIC>
2.7762371036930076

> <JCHEM_POLAR_SURFACE_AREA>
52.32

> <JCHEM_REFRACTIVITY>
47.532300000000006

> <JCHEM_ROTATABLE_BOND_COUNT>
3

> <JCHEM_RULE_OF_FIVE>
1

> <ALOGPS_SOLUBILITY>
2.85e+00 g/l

> <JCHEM_TRADITIONAL_IUPAC>
tetrahydrofolic acid

> <JCHEM_VEBER_RULE>
0

> <DRUGBANK_ID>
DB01086

> <SECONDARY_ACCESSION_NUMBERS>
APRD00539

> <DRUG_GROUPS>
approved; investigational

> <GENERIC_NAME>
Benzocaine

> <SYNONYMS>
4-aminobenzoic acid ethyl ester; Amben ethyl ester; Benzocaina; Benzocaine; Benzocainum; Ethyl aminobenzoate; Ethyl p-aminobenzoate; Ethyl p-aminophenylcarboxylate; p-(Ethoxycarbonyl)aniline; p-Carbethoxyaniline; p-Ethoxycarboxylic aniline

> <PRODUCTS>
10 Person ANSI; 20/20 Topical Anesthetic; 25 Person ANSI; 2x Med Liq; 3M Nexcare Cold Sore Treatment; 3X Medicated Mouth Sore Gel; 3X Medicated Toothache and Gum Gel; 3x Medicated Mouth Sore Gel; 3x Medicated Toothache and Gum Gel; 4125 First Aid Kit; 4129 First Aid Kit; 4142 First Aid Kit; 4209 First Aid Kit; 4211 First Aid Kit; 4215 First Aid Kit; 4217 First Aid Kit; 4221 First Aid Kit; 4230 First Aid Kit; 4232 First Aid Kit; 4240 First Aid Kit; 4241 First Aid Kit; 4242 First Aid Kit; 4243 First Aid Kit; 4246 First Aid Kit; 4248 First Aid Kit; 4249 First Aid Kit; 4272 First Aid Kit; 4329 First Aid Kit; 4334 First Aid Kit; 4338 First Aid Kit; 4339 First Aid Kit; 4345 First Aid Kit; 4355 First Aid Kit; 4356 First Aid Kit; 4357 First Aid Kit; 4358 First Aid Kit; 4367 First Aid Kit; 4379 First Aid Kit; 4X Medicated Severe Toothache and Gum Cream; 4X Medicated Severe Toothache and Gum Gel; 4X Medicated Toothache and Gum Gel; 4x Medicated Gum Cream; 4x Medicated Severe Toothache and Gum Gel; 4x Medicated Toothache and Gum Cream; 4x Medicated Toothache and Gum Gel; 50 Person ANSI; 7 Select Oral Pain Maximum Strength Relief; ACME FIRST AID Contains 404 PIECES; ARC FIRST AID Contains 1000 PIECES; ARC FIRST AID Contains 303 PIECES; ARC FIRST AID Contains 303 PIECES HARDCASE; ARC FIRST AID Contains 404 PIECES; ARC FIRST AID Emergency Preparedness Contains 167 PIECES; ATOPALM Oral Pain Relief; Acella Antipyrine and Benzocaine Otic; Actisep; Adazin; Advance Topical Anesthetic Gel; Adventure First Aid .5 Tin; Adventure First Aid Water Resistant; Adventure Medical Kits 1 Person First Aid; Adventure Medical Kits 1-2 Person First Aid; Adventure Medical Kits 1-2 Person National Ski Patrol First Aid; Adventure Medical Kits 1-4 Person First Aid; Adventure Medical Kits Dental Medic; Aeroaid Antiseptic First Aid; Aeroburn Burn First Aid; Aerowipe; After Bite Wipe Insect Sting Relief; Aftertest Pain Relief; Aid and First Sting Relief Prep Pad; Aidplus Sting Relief Prep Pad; Alcohol Prep Pad with Benzocaine; Alcohol Prep Pads; Alcohol Prep Pads with Pain Relief; Alcohol Prep Swab with Pain Relief; Alcohol Swab with Benzocaine; Alcohol Swabs with Benzocaine; Allegenal-M; Alpha-Caine Topical Anesthetic; Americaine; Anadent Kanka Gel; Anal Swabs 20%; Anbesol Baby Gel 7.5%; Anbesol Cold Sore Therapy; Anbesol Extra Strength Gel - 20%; Anbesol Gel; Anbesol Jr; Anbesol Liquid; Anbesol Maximum Strength; Anbesol Maximum Strength Liquid; Anbesol Regular Strength; Anesgerm; Anesgerm LA MUELA Fast Pain Relief; Anestenka; Anestesico Topical Gel; Anesthetic; Angidol Cherry Flavor; Angidol Honey Lemon Flavor; Anivy; Anti Itch; Anti-Itch Medicated Maximum Strength; Anti-Itch Regular Strength; Antibiotic Cold Sore Ointment; Antibiotic Lozenges; Antipyrine and Benzocaine; Antipyrine and Benzocaine Otic; Antiseptic; Antiseptic First Aid; Antiseptic Medicated CVS; Antiseptic Pain Relieving; Appedrine; Aramark Medi-Band; Arkodyne; Assist II Anorectal (Hemorrhoidal); Assured Feminine Anti-itch; Astra-dent Topical Anesthetic Gel; Auralgan; Auralgan Eardrops; Auralgan Solution; Aurax Otic; Aurisan Dps; Aurodex; Aurodex Antipyrine and Benzocaine Otic; Auto 157; Avant; BENZOCAINE Bubble Gum; BENZOCAINE Cherry; BENZOCAINE Mint; BENZOCAINE Pina Colada; BENZOCAINE Raspberry; BENZOCAINE Strawberry; BENZOCAINE and RESORCINOL; BLT Skin Cream; BLUE ACME SLEEVE FIRST AID Contains 1000 PIECES; BODY ACTION PRODUCTS Anal Glide Extra; BODY ACTION PRODUCTS Butt Eze Benzocaine; BODY ACTION PRODUCTS Climax Control Gel; BODY ACTION PRODUCTS Endless Love for Men; BODY ACTION PRODUCTS Higher Control Male Climax; BODY ACTION PRODUCTS Prolong Lubricating; Baby Anbesol; Baby Anestenka; Baby Orajel Daytime Regular Formula and Nighttime Formula; Baby Orajel Instant Relief Daytime Nighttime Twin Pack; Baby Orajel Instant Relief for Teething Pain Longer Lasting; Baby Orajel Instant Teething Pain Relief; Baby Orajel Instant Teething Pain Relief Nighttime Formula; Baby Orajel Nighttime Formula; Baby Orajel Nighttime Instant Relief for Teething Pain Long Lasting Extra Strength; Baby Orajel Smartdose Teething; Baby Orajel Teething Medicine; Baby Orajel Teething Pain Medicine; Baby Orajel Teething Pain Relief; Baby SensiGel; Baby SensiGel Night Time Formula; Baby Teething Oral Pain Reliever; Bactimicina for Sore Throat; Balminil Loz; Balzarol Ont; Basic Care Vagicaine; BeeGentle Topical Anesthetic; BencoCaine Topical Anesthetic; Benz O Sthetic; Benzal Vagisil Creme Regular Strength; Benzo Jel; Benzo-Jel; Benzo-Jel Banana; Benzo-Jel Bubble Gum; Benzo-Jel Cherry; Benzo-Jel Mint; Benzo-Jel Pina Colada; Benzo-Jel Raspberry; Benzo-Jel STRAWBERRY; Benzo-Jel Topical Anesthetic; Benzocaine; Benzocaine 20% / Lidocaine 10% / Tetracaine 10%; Benzocaine and Benzethonium; Benzocaine and Triclosan; Benzocaine, Menthol, Zinc Chloride; Benzocaine,isopropyl Alcohol; Benzodent; Best Health Sore Throat Relief Cherry Flavor; Bionet Lozenge; Bite Relief; Bite and Sting Medicated Relief Pads CVS; Bite and Sting Relief GNP; Bite and Sting Relief Signature Care; Bite and Sting Relief Stick; Bite and Sting Relief Well at Walgreens; Bite and Sting relief; Bite relief Scherer Labs; BiteMD External Analgesic First Aid Antiseptic; Blistex; Blistex Baby Kanka; Blistex Foille Medicated First Aid; Blistex Kank-A; Blistex Kank-Eze; Blt 1; Boil Ease; Boil Ease Drawing Salve Ont; Boil Ease Pain Relieving Ointment; Boy Butter Desensitizing Lubricant; Boy Butter Extreme H2O Desensitizing Lubricant; Brace Relief; Budpack Feminine Anti-itch; Budpak Baby Teething Oral Pain Reliever; Budpak Feminine Anti-Itch; Budpak Oral Maximum Strength; Burkhart Topical Anesthetic; Burn O Sol Spray; Burn Water Soluble; Burncare Cream 5.0%; Burncare Kit; Bus and Classroom Yellow; Bye Bye Bite Lot; Bye Bye Burn Lot; CARMEX COLD SORE treatment External Analgesic; CARMEX COLD SORE treatment External Analgesic Skin Protectant; CARMEX Multi-Symptom 3 in 1 COLD Sore treatment External Analgesic Skin Protectant; CEPASTAT Sore throat and Cough; CVS 2x Liq (CSR); CVS Adult Enema; CVS Fast Acting Baby Teething; CVS Health All Purpose Kit; CVS Health Healing on the Go Kit; CVS Itch Relief and Repellent; CVS Maximum Strength; CVS Maximum Strength Boil Relief; CVS Maximum Toothache Relief Double Medicated; CVS Mini Enema; CVS Oral Anesthetic; CVS Pharmacy; CVS Pharmacy Instant Toothache; CVS Pharmacy Maximum Strength; CVS Pharmacy Mouth Sore; CVS Pharmacy Mouth Sore Gel; CVS Pharmacy Nighttime Oral Pain Relief; CVS Pharmacy Sensitive Medicated Cream; CVS Pharmacy Toothache and Gum Reliever; CVS Pharmacy Toothache reliever; CVS Severe Toothache and Gum Relief Triple Medicated; CVS Sore Throat Mixed Berry Flavor; CVS Tooth and Gum Pain Relief Cushions; Caine Tips Oral Pain Relief Swabs; CaineTips; Candee Caine Topical Anesthetic; Care Bus and Classroom Yellow; Cepacol Citrus Extra Strength Lozenges; Cepacol Dual Relief; Cepacol Extra Strength Lozenge; Cepacol Extra Strength Orange Citrus Lozenge; Cepacol Extra Strength Sore Throat Cherry; Cepacol Extra Strength Sore Throat Tangerine; Cepacol Extra Strength Sore Throat and Cough; Cepacol Extra Strength Sore Throat cherry; Cepacol Extra Strength Sore Throat honey lemon; Cepacol Extra Strength Sore Throat mixed berry; Cepacol Extra Strength Sore Throat sugar free cherry; Cepacol Fizzlers; Cepacol InstaMax Sore Throat Berry Frost Sugar Free; Cepacol Instamax Sore Throat Arctic Cherry; Cepacol SORE THROAT AND COUGH; Cepacol Sensations Cooling; Cepacol Sensations Hydra; Cepacol Sensations Sore Throat Cooling ice cool; Cepacol Sensations Sore Throat Hydra citrus splash; Cepacol Sensations Warming; Cepacol Sore Throat; Cepacol Sore Throat Extra Strength Sucrose-free Lozenge (cherry Flavour); Cepacol Sore Throat Maximum Numbing Cherry; Cepacol Sore Throat Maximum Numbing Citrus; Cepacol Sore Throat Maximum Numbing Honey Lemon; Cepacol Sore Throat Maximum Numbing Sugar Free Cherry; Cepacol Sore Throat Plus Coating; Cepacol Sore Throat Plus Cough; Cepacol Sore Throat and Coating; Cepacol Sore Throat and Cough; Cepacol Ultra Sore Throat; Certus Sting Relief Prep Pad; Cetacaine Anesthetic; Cetacaine Liquid; Cetacaine Spray; Cetacaine Topical Anesthetic; Cherry Sore Throat Lozenge; Cherry Sore Throat Lozenges; Cherry Sore Throat Lozenze; Cherry Sore Throat Relief Lozenge; Cherry Throat Drops; Cherry Throat Relief Lozenges; Chigg Away; Chigger Relief Evora Labs; Chiggerex; Chiggerex 2X Medicated; Chloraseptic; Chloraseptic Max; Chloraseptic Sore Throat Liquid Center; Chloraseptic Sore Throat Max Liquid Center; Chloraseptic Total Sore Throat and Cough; Chloraseptic Total Sore Throat and Cough, Sugar Free; Chloraseptic Warming Sore Throat; Chloraspetic; Chlorphenylcaine; Climax Control Benzocaine; CliniStat Pain Relieving; Coghlan s Sting Relief; Cold Sore Lotion; Cold Sore Treatment; Colgate Orabase; ComfortCaine Topical Anesthetic; Comfortcaine; Comfortcaine Topical Anesthetic; Comfortox Benzocaine; Cora Caine; CoreTex Professional Outdoor Skin Protection Wallet; Cut Care Insect Bite Antiseptic and Pain Relieving Wipe; Cut Cleaner; Cutiecaine; DG 3x Medicated Toothache adn Gum Gel; DG 4x Medicated Tooth and Gum Cream; DG Health Feminine Anti-itch; DG Health Maximum Toothache Relief; DZEUS Climax control wipes; DZues Climax control wipes; Defend; DenTek Instant Pain Relief Maximum Strength; Dental City Topical Anesthetic; Dental Relief; Dentalgar Liq; Dentek Instant Pain Relief Maximum Strength; Denti-Care Denti-Freeze Topical Anesthetic Bubblegum; Denti-Care Denti-Freeze Topical Anesthetic Cherry; Denti-Care Denti-Freeze Topical Anesthetic Mint; Denti-Care Denti-Freeze Topical Anesthetic Raspberry; Denti-Care Denti-Freeze Topical Anesthetic Strawberry; Denti-care Topical Anesthetic Gel; Denti-care Topical Anesthetic Liquid Spray; Denticare Pro-freeze; Denture Orajel Gel; DermaWound Wound Care Venous Stasis; Dermacaine-R; Dermaphy Ont; Dermoplast Anesthetic Pain Relieving Antibacterial; Dermoplast Anesthetic Pain and Itch; Dermoplast First Aid; Dermoplast Insect Itch and Sting Relief; Dermoplast Pain Relieving; Dermoplast Pain Relieving Antibacterial; Dermoplast Pain relieving; Dermoplast Sunburn and Burn Relief; Desensitizing cream; Detane Gel 7.5%; Dexatrim Tablets; Diphen; DocuSol Plus; Dollar General Health Oral Pain Reliever; Dollar General Toothache Relief; Dukal Sting Relief Pad; Dyve Comfort B; E-Vac Plus; ECOLAB Antiseptic; EJECTDELAY Cream; EJECTDELAY Gel; ENEMEEZ Plus; EZ WOUNDCARE Pain Relieving and First Aid Antiseptic; Easy Care First Aid; Easy Care First Aid - All Purpose; Easy Care First Aid Chest - Home and Workshop; Easy Care First Aid Kit - Outdoor and Travel; Easy Care First Aid Kit - Sports and Travel; Eclipse Topical Analgesic FA; Emercol Loz; Emercreme No4 Ont Efa; Endless Love For Men; Endocaine Spray 20%; Endospray; Equaline Vagicaine Maximum Strength; Equate Benz-Dex Cough and Throat Lozenges; Equate Oral Pain Relief; Equate vagicaine maximum strength; Exactacain Topical Anesthetic; Extra Strength Cepacol Sore Throat; Ez Access; FAK Care4 Bus and School Yellow ORM D; FIDELIS Topical Anesthetic; FIRST AID Contains 1000 PIECES; FIRST AID Contains 202 PIECES; FIRST AID Contains 303 PIECES; FIRST AID Contains 303 PIECES HARDCASE; FIRST AID Contains 404 PIECES; Family Dollar Oral Pain Relief; Family Wellness; Family wellness Regular; Feminine Anti-Itch Creme; Finafta; Finafta Baby; Finafta MultiOral; Fire Out; First Aid; First Aid Antiseptic; First Aid Antiseptic Water Soluble; First Aid Antiseptic Well at Walgreens; First Aid Direct Soothe-A-Sting; First Aid Medicated Rite Aid; First Aid Only Sting Relief; First Aid Only Sting Relief Pad; First Aid Pads CVS; First Degree Burn; Foille Ont; FranklyNumb 1; GAUKE Sting Relief Pad; GENUINE FIRST AID Emergency Preparedness Contains 167 PIECES HARDCASE; GENUINE FIRST AID Emergency Preparedness Contains 167 Pieces; GFA First Aid 75 Person Metal Case; GOOD NEIGHBOR PHARMACY FIRST AID Contains 202 PIECES; GPS Topical Anesthetic; Gelato Anestesico Topical Gel; Gelato Topical Anesthetic; Genuine First Aid Insect Sting Relief Pad 1 ct; Gercillin; Giltuss Bucalsep; GingiCaine Fusion; GingiCaine Gel; GingiCaine Gel, Chocolate Mint; GingiCaine Gel, Cotton Candy Flavor; GingiCaine Gel, Mint Julep; GingiCaine Gel, Pina Colada; GingiCaine Liquid, Cherry; GingiCaine gel, Cherry; Gingicaine Gel 20%; Gingicaine Gel Strawberry; Gingicaine Gel Variety Pak; Gingicaine Liq Top Anesthetic; Good Neighbor Pain Relief; Good Neighbor Pharmacy Cold Sore Treatment; Good Neighbor Pharmacy Emergency Preparedness and First Aid Contains 167 Pieces; Good Neighbor Pharmacy First Aid; Good Neighbor Pharmacy Vagicaine; Good Sense Cherry Benzocaine Lozenges; Good Sense Vagicaine Anti Itch; Goodsense Oral Pain Relief; Gouttes Dentaires; Gouttes Pour Mal D'oreilles; Goyescas 7 Syrups Sore Throat Relief; Goyescas Broncovac 5 Sore Throat Relief; Green Guard Antiseptic First Aid; Green Guard Burn First Aid; Gumnumb Topical Anesthetic; Gumsol; HEB Mouth Sore Relief; HEB Severe Toothache; HEB Severe Toothache and Gum Relief Triple Medicated; HIGHER CONTROL Male Climax Control Lubricating; Health-Tec Topical Anesthetic; Hemorro-dol Sup; Hemovirtu's Hemorrhoidal Ointment; Henry Schein Topical Anesthetic Gel; Herbasoul Male Genital Desensitizer Cream; Hims Delay Wipes; Honey Lemon Sore Throat Lozenges; Honey Lemon Throat Drops; HurriCaine; HurriCaine Topical Anesthetic; HurriCaine Topical Anesthetic Gel; HurriCaine Topical Anesthetic Liquid; Hurricaine Dry Handle Swab; Hurricaine Topical Anesthetic Spray; INTIMALE Benzocaine Delay Gel; Image Essentials Vagicaine; Insect Bite Relief; Insect Sting Relief; Insect Sting Relief Pad; Insect Sting Relief Wipes; Insect String Relief pad; Instant First Aid CVS; Instant Toothache Pain Relief; Intense CVS Intense Toothache; Intimate Wipe; Iodent Maximum Strength Oral Analgesic; Iodent Oral Analgesic; Ioline; Iolite; Ipana 20% Benzocaine Topical; Isopropyl Alcohol with Benzocaine; JO Prolonger with Benzocaine; Jianze Sting Relief Pads; Jiffy Toothache Drops; Johnson and Johnson Burn Crm 5.0%; K-Mart SmartSense First Aid Contains 303 Pieces; KANKA SoftBrush; KMart Smart Sense; KY Duration for Him; KY Duration for Men; Kama Sutra Pleasure Balm; Kank-A; Kank-A Mouth Pain; Kank-A with Blistex Medicated Lip; Keep Going Sting Relief Pad; Kolorz Topical Anesthetic Blue Rasberry; Kolorz Topical Anesthetic Cherry Burst; Kolorz Topical Anesthetic Cotton Candy; Kolorz Topical Anesthetic Pina Colada; Kolorz Topical Anesthetic Triple Mint; Kroger Maximum Strength; Kroger Toothache Pain Relief; LIGHTS Sting Relief Prep Pad; Lanacane Anti Itch Maximum Strength; Lanacane Anti Itch Original Strength; Lanacane Anti-bacterial First Aid Spray; Lanacane First Aid; Lanacane Maximum Strength Anti Bacterial First Aid; Lanacane Maximum Strength Anti-Itch; Laryngets Loz; Leader Anti-Itch Maximum Strength; Leader Anti-Itch Regular Strength; Leader Cherry Sore Throat Lozenges; Leader Honey Lemon Benzocaine Throat Lozenge; Leader Maximum Strength Anti-Itch; Leader Mixed Berry Benz-Dex Lozenges; Leader Oral Analgesic; Leader Oral Pain Relief Anesthetic; Leader Regular Strength Anti-Itch; Little Colds Sore Throat Relief Melt Aways; Little Ouchies Little Remedies Pain Relief; LolliCaine Bubble Gum; LolliCaine Cherry; LolliCaine Mint; LolliCaine Pina Colada; Lollicaine Bubble Gum; Lollicaine Cherry; Lollicaine Mint; Lollicaine Pina Colada; LubeLife Climax Control Delay; Lucky Oral Pain Relief; MAGIC STAMINA Climax Control; MAKESENSE Junior Pain Relief; MAKESENSE Pain Relief; MK Sting Relief Pads; MS Topical Anesthetic; Magic STAMINA; Maintain; Major Oral Pain Relief Maximum Strength; MakeSense Feminine Anti-itch; Male Desensitizer Pleasure Balm; Mandelay Male Genital Desensitizer; Mark 3; Massage Men Gel Max Delay; Massage Men Gel Max Power; Massage Men Gel Max Size; Massage Men Gel Max Time; Max 4 Men - Max Control Male Sex Prolong Unscented; Maximum Strength Feminine Anti-Itch Family Wellness; McKesson Orasol Gel; Medi-First Sting Relief; Medi-First Sting Relief Wipes; Medi-first Antiseptic First Aid; Medi-first Burn First Aid; Medi-first Ivy-Rid First Aid; Medi-first Protective Coating Bandage; Medicaine Sting and Bite; Medicaine Swabs; Medicated First Aid Good Sense; Meditowel Antibacterial First Aid; Meijer Maximum Strength Oral Pain Relief; Meijer Severe Toothache and Gum Relief Triple Medicated; Men Delay Wipe; Mend19 Wound Care Venous Stasis; Midway Select Topical Anesthetic; Mint Rx Endurance Wipes; Mirakel; Mirakel Pain and Itch Relief; Mixed Berry Sore Throat Lozenge; Mixed Berry Sore Throat Lozenges; Mixed Berry Sore Throat and Cough Lozenge; Mixed Berry Sore Throat and Cough Lozenges; Mixed Berry Sore Throat and Cough lozenge; Mixed Berry Throat and Cough Lozenges; Mixed Berry sore throat and cough lozenge; Monistat Care Instant Itch Relief; Mouth Sore Medication; Mouth Sore Relief Applicator; Mouth Sore Relief Professional Strength; Mucinex Instasoothe Sore Throat Plus Pain Relief; My Fair Baby Instant Pain Relief; My Fair Baby oral gel Instant Pain Relief; MyDerm Bite Relief; MyOxin; NBE Anbesol; NRG Topical Anesthetic; Ndc 72934- 5010-4 Benzocaine 20% / Lidocaine 8% / Tetracaine 4%.; Nene Dente; NeuroMed FA; NeutraCaine; North Burn; North First Aid Antiseptic; North First Aid Antiseptic Water Soluble; Novex Sore Throat; Novex Sore Throat Honey Lemon Flavor; OFF Bite and Itch Relief First Aid Antiseptic; OLP Baby Teething; OP First Aid Series Insect Sting Relief Pad; Ombre Men overtime wipes; One Touch Advanced Topical Anesthetic Bubble Gum; One Touch Advanced Topical Anesthetic Cherry; One Touch Advanced Topical Anesthetic Gel Cool Mint; One Touch Advanced Topical Anesthetic Strawberry Ice; One Touch Topical Anesthetic Gel; OneTouch Revolution Topical Anesthetic; Opahl; Opahl Dye Free; OptimV Anti-Itch Maximum Strength; OraLabs Cold Sore Treatment; Orabase Benzocaine Purple Ice; Oragel Liq 205mg/gm; Orajel; Orajel 3X Medicated For All Mouth Sores; Orajel 3X Medicated For Toothache and Gum; Orajel 3X Medicated for Denture Pain; Orajel 4X Medicated For Toothache and Gum; Orajel 4X Medicated For Toothache and Gum, Cream; Orajel 4X Medicated PM For Toothache and Gum; Orajel Cold Sore Moisturelock; Orajel Cold Sore Touch Free - Single Dose; Orajel Denture; Orajel Denture Pain Relief; Orajel Denture Plus; Orajel Extra Strength; Orajel Gum Pain 3X Medicated; Orajel Instant Pain Relief For All Mouth Sores; Orajel Instant Pain Relief MAXIMUM; Orajel Instant Pain Relief MAXIMUM Toothache Oral Pain Relief; Orajel Instant Pain Relief Maximum; Orajel Instant Pain Relief Maximum Strength; Orajel Instant Pain Relief Regular; Orajel Instant Pain Relief Regular Strength; Orajel Instant Pain Relief SEVERE; Orajel Instant Pain Relief Severe; Orajel Instant Pain Relief Severe PM; Orajel Instant Pain Relief for Severe Toothache Maximum Strength; Orajel Instant Pain Relief for Toothache Maximum Strength; Orajel Instant Pain Reliver for Canker Sores Extra Strength Pain Relief; Orajel Instant Relief for Teething Pain; Orajel Instant Relief for Teething Pain Cooling Cucumber; Orajel Instant Relief for Teething Pain Daytime Nighttime Twin Pack; Orajel Instant Relief for Teething Pain Longer Lasting; Orajel Maximum Strength; Orajel Medicated for Toothache and Gum, Liquid; Orajel Mouth-aid; Orajel Multi-action Cold Sore Medicine; Orajel Nighttime Instant Relief for Teething Pain Longer Lasting Extra Strength; Orajel Regular Strength; Orajel Severe Toothache Maximum Strength Fast-Acting Formula; Orajel Toothache Strips; Orajel Ultra Canker Sore Medicine; Orajel for All Mouth Sores Maximum Strength; Orajel for Codl Sores Relief and Concealer; Orajel for Cold Sores; Orajel for Cold Sores Double Medicated, Cream; Orajel for Cold Sores Maximum Strength; Orajel for Cold Sores Single Dose; Orajel for Toothache Maximum Strength; Oral Analgesic Maximum Strength; Oral B Instant Pain Relief; Oral Gel Maximum Strength; Oral Pain Relief; Oral Pain Relief Anesthetic Anesthetic; Oral Pain Relief Gel; Oral Pain Reliever; Oralgar Dps; Orasep; Ortizol Otic Solution; Oti Cal; Otic Care Antipyrine and Benzocaine; Otic Edge; Otozin; Outgro; Oxipor Lotion; PM Toothache Relief; POWERECT Benzocaine Male Delay Gel; Pac-Dent Top Gel; Pain Prescriptives Topical Analgesic FA; Pain Relief; Pain Relief Alcohol Swabs; Panocaine Gel; Pastilles Antiseptiques Jener; Pastilles Merol; Patterson Dental Topical Anesthetic; Pennacaine; Permathene-12 - Caplet; Physicians Care Sting Relief Pad; Pleasure Balm Kama Sutra; Plush anesthetics B; Preboost; Precaine B; Precaine B Bubblegum; Precaine B Chocolate Mint; Precaine B Chocolate Vanilla; Prime-Gel; Primo Topical Anesthetic; Pro-caine Topical Anesthetic Gel; ProStat Antiseptic First Aid; ProStat Burn First Aid; ProStat Protective Coating Bandage First Aid; Procicept B Benzocaine 20%; Projel-20; Prolong; Prolong Plus; Promescent Delay Wipes; Protection; Pulmosirum Pastille; PureLife Topical Anesthetic; Pyrocaine Burn; Quala Topical Anesthetic Gel; Quality Choice Maximum Strength Oral Pain Relieving; Quality Choice Vaginal Anti-Itch Maximum Strength; RE Benzotic; Ready America First Aid Outdoor- 107 Pieces; Realtree; Rectogel HC; Red Cross Canker Sore; Red Cross Oral Pain Relief; Rexall Feminine Maximum Strength Anti-itch; Rexall Maximum Strength; Rite Aid Baby Care; Rite Aid Liquid Anesthetic Oral Pain Relief; Rite Aid Maximum Strength; Rite Aid Maximum Toothache Reliever; Rite Aid Mixed Berry Sore Throat and Cough Lozenge; Rite Aid Oral Pain Reliever; Rite Aid Original Strength Vagicaine; Rite Aid Pain Relieving; Rite Aid Professional Strength; Rite Aid Severe Toothache and Gum Relief Triple Medicated; Rite Aid Tooth and Gum Pain Relief Cushions; Roman Male Genital Desensitizer; Roman Swipes; Rougier Swab Insect Bite Relief Swabs; SKINS DELAY Climax Control Benzocaine Gel; Safco Sensicaine Ultra Topical Anesthetic Gel; Safeton Sting Relief Pad 60 Isopropyl Alcohol 6 Benzocaine; Salinocaine; SalivaCAINE; Sally Hansen Microwavable Eybrow, Face and Lip Wax Kit; Sally Hansen Ouch-Relief Numbing Wipes; Sally Hansen Ouch-Relief Stripless Hard Wax Kit; Sally Hansen Ouch-Relief Wax Kit; Sally Hansen Ouch-Relief Wax Strip Kit; Sanatos Lozenges EX; Scotts Select Topical Anesthetic; SensiGel; Sensicaine TM Extra Topical Anesthetic; Severe Oral Pain Reliever; Severe Triple Medicated Gel; Sheffield Baby Teething Gel; Sheffield Pain Relief; Shunga Male Genital Desensitizer; Shunga Sensation Balm; Signature Care Bite and Sting Relief; Signature Care Vagicaine; Sirop Dentition; Sj3; Slim-mint Gum; Smart Sense Vagicaine Maximum Strength; SmartPractice topical anesthetic gel Bubble Gum; SmartPractice topical anesthetic gel Cherry; SmartPractice topical anesthetic gel Mint; SmartPractice topical anesthetic gel Pina Colada; SmartPractice topical anesthetic gel Raspberry; SmartPractice topical anesthetic gel Strawberry; Solarcaine First Aid Cream; Solarcaine First Aid Spray; Sooth-a-Sting; Soothe-A-Sting; Soothe-A-sting; Sorbet Anestesico Topical Gel; Sore Throat Logenzes Sore Throat; Sore Throat Logenzes Sore Throat-; Sore Throat Lozenges Menthol Flavour; Sore Throat and Cough; Sore Throat and Cough Lozenge; Sore throat and cough lozenge; Stay Hard; Sting Eze; Sting Kure - Liq; Sting Relief; Sting Relief Medicated Pad; Sting Relief Pad; Sting Relief Pads; Sting Relief Prep Pad; Sting Relief Wipe; Sting and Bite; Sting relief pad; Sting-Kill; Sting-eze-liq; StingEze Insect Bite Relief; StingEze Max Insect Bite Relief; StingEze with Aloe for kids; StingX; Super T; Superdent Banana; Superdent Bubble Gum; Superdent Cherry; Superdent Mint; Superdent Pina Colada; Superdent Raspberry; Superdent Strawberry; Swabplus Anesthetic Swabs; Swabplus Tooth & Gum Pain Relief Swabs; T.R.U.E. Test Thin-Layer Rapid Use Patch Test; TANAC Oral Pain Reliever; Tanac; Tanac Liquid; Tempo Sting Relief Pad; Terpacan; Terrasil Boil Pain Relief; TheraCare Maximum Strength Oral Pain Relief Severe; Throat Lozenges; Throat Relief Lozenges; Tiger Supply Inc Topical Anesthetic; Tokisan Sore Throat Relief; Toothache and Gum Relief; Toothache and Gum Relief Cushions; Top Quality Mfg. Topical Anesthetic; TopCare Oral Pain Relief Maximum Strength; TopCare Sore Throat Cherry Flavor; TopCare Sore Throat Honey Lemon Flavor; Topcare Maximum Strength; Topcare Vagicaine; Topco 4x Medicated Toothache and Gum Gel; Topex; Topex Bubble Gum; Topex Cherry; Topex Mint; Topex Pina Colada; Topex Raspberry; Topex Strawberry; Topicaine - Top Gel 20%; Topicaine Gel 20%; Topical Anesthetic; Topical Anesthetic Banana; Topical Anesthetic Bubble Gum; Topical Anesthetic Cherry; Topical Anesthetic Mint; Topical Anesthetic Pina Colada; Topical Anesthetic Raspberry; Topical Anesthetic Strawberry; Topicale Gel Pump Pina Colada; Treagan Otic; Trioxin; Trojan Extended Pleasure; UEC Medical Insect Sting Relief; UltraCare Oral Anesthetic Bubble Gum; UltraCare Oral Anesthetic Butter Rum; UltraCare Oral Anesthetic Cool Mint; UltraCare Oral Anesthetic Orange Cream; UltraCare Oral Anesthetic Pina Colada; UltraCare Oral Anesthetic Walterberry; Ultracare Oral Anesthetic Creme de Menthe; Up and up vagicaine; VAGISIL Anti-Itch Creme Regular Strength; VAGISIL Anti-Itch Medicated Creme Maximum Strength; VAGISIL Anti-Itch Medicated Creme Regular Strength; VERGE Male Genital Desensitizer; VH Essentials Sensitive Medicated Cream; Vacuant Plus; Vagi care; Vagi-Cure Advanced Sensitive Medicated; Vagi-cure (maximum Strength); Vagi-cure (regular Strength); Vagicaine; Vagicaine Maximum Strength; Vagicaine Maximum Strength Anti-Itch Cream; Vagicaine Medicated Maximum Strength; Vagisil Anti Itch Maximum Strength; Vagisil Anti Itch Original Strength; Vicks Formula 44 Cough and Sore Throat Lozenge; Vicks Formula 44 Sore Throat; Vicks VapoCool Sore Throat; Viroxyn Professional Use; VistaCaine Topical Anesthetic; Walgreens Baby Teething; Walgreens Cold Sore Treatment; Walgreens Instant Toothache and Gum Relief Triple Medicated; Walgreens Intense Toothache; Walgreens Maximum Strength; Walgreens Mixed Berry Benz-Dex Lozenges; Walgreens Pain Burn Itch Relief; Walgreens Pain Relief; Walgreens Pain Relieving for Boils; Walgreens Severe Oral Pain Reliever; Walgreens Severe Toothache Relief; Warrior Chiggerex Relief; Well at Walgreens Anti-Itch Maximum Strength; WinCo Foods Maximum Strength Oral Analgesic; Xpect Sting Wipes; Your Logo Here Antiseptic First Aid; Your Logo Here Bandage Aid; Your Logo Here Burn First Aid; Your Logo Here Poison Ivy First Aid; Zap Liquid; Zap Topical Anesthetic Gel; Zap Topical Anesthetic Spray; Zap Topical Anesthetic Spray Aerosol; Zapotol Dentidol Oral Analgesic; Zee Insect Sting Relief Wipes; Zilactin Baby (teething Gel); Zilactin Tooth and Gum Pain Reliever; Zilactin Toothache Swab; Zilactin-B; Zip Topical Anesthetic Gel Mint; Zip Topical Anesthetic Gel Strawberry; Zonsen Sting Relief Pad; anal GLIDE; aramark Antiseptic; endless Love FOR MEN; equate Severe Toothache and Gum Relief; iSmile Topical Anesthetic

> <INTERNATIONAL_BRANDS>
Anacaine; Anaesthesin; Anbesol Baby; Dermoplast

> <SALTS>
Benzocaine hydrochloride

$$$$
