1125
  Mrv0541 02231215162D          

 19 21  0  0  0  0            999 V2000
    4.1159    1.4482    0.0000 O   0  0  0  0  0  0  0  0  0  0  0  0
    4.1159   -1.4482    0.0000 O   0  0  0  0  0  0  0  0  0  0  0  0
    7.6412    0.0000    0.0000 O   0  0  0  0  0  0  0  0  0  0  0  0
    4.3412    0.0000    0.0000 C   0  0  0  0  0  0  0  0  0  0  0  0
    3.8597    0.6639    0.0000 C   0  0  0  0  0  0  0  0  0  0  0  0
    3.8597   -0.6639    0.0000 C   0  0  0  0  0  0  0  0  0  0  0  0
    3.0791    0.4125    0.0000 C   0  0  0  0  0  0  0  0  0  0  0  0
    3.0791   -0.4125    0.0000 C   0  0  0  0  0  0  0  0  0  0  0  0
    5.1662    0.0000    0.0000 C   0  0  0  0  0  0  0  0  0  0  0  0
    2.3645    0.8250    0.0000 C   0  0  0  0  0  0  0  0  0  0  0  0
    2.3645   -0.8250    0.0000 C   0  0  0  0  0  0  0  0  0  0  0  0
    5.5787    0.7145    0.0000 C   0  0  0  0  0  0  0  0  0  0  0  0
    5.5787   -0.7145    0.0000 C   0  0  0  0  0  0  0  0  0  0  0  0
    1.6500    0.4125    0.0000 C   0  0  0  0  0  0  0  0  0  0  0  0
    1.6500   -0.4125    0.0000 C   0  0  0  0  0  0  0  0  0  0  0  0
    6.4037    0.7145    0.0000 C   0  0  0  0  0  0  0  0  0  0  0  0
    6.4037   -0.7145    0.0000 C   0  0  0  0  0  0  0  0  0  0  0  0
    6.8162    0.0000    0.0000 C   0  0  0  0  0  0  0  0  0  0  0  0
    8.0537   -0.7145    0.0000 C   0  0  0  0  0  0  0  0  0  0  0  0
  1  5  2  0  0  0  0
  2  6  2  0  0  0  0
  3 18  1  0  0  0  0
  3 19  1  0  0  0  0
  4  5  1  0  0  0  0
  4  6  1  0  0  0  0
  4  9  1  0  0  0  0
  5  7  1  0  0  0  0
  6  8  1  0  0  0  0
  7  8  1  0  0  0  0
  7 10  2  0  0  0  0
  8 11  2  0  0  0  0
  9 12  2  0  0  0  0
  9 13  1  0  0  0  0
 10 14  1  0  0  0  0
 11 15  1  0  0  0  0
 12 16  1  0  0  0  0
 13 17  2  0  0  0  0
 14 15  2  0  0  0  0
 16 18  2  0  0  0  0
 17 18  1  0  0  0  0
M  END
> <DATABASE_ID>
DB01125

> <DATABASE_NAME>
drugbank

> <SMILES>
COC1=CC=C(C=C1)C1C(=O)C2=CC=CC=C2C1=O

> <INCHI_IDENTIFIER>
InChI=1S/C16H12O3/c1-19-11-8-6-10(7-9-11)14-15(17)12-4-2-3-5-13(12)16(14)18/h2-9,14H,1H3

> <INCHI_KEY>
XRCFXMGQEVUZFC-UHFFFAOYSA-N

> <FORMULA>
C16H12O3

> <MOLECULAR_WEIGHT>
252.2647

> <EXACT_MASS>
252.07864425

> <JCHEM_ACCEPTOR_COUNT>
3

> <JCHEM_ATOM_COUNT>
31

> <JCHEM_AVERAGE_NEUTRAL_MICROSPECIES_CHARGE>
-0.9964252475343891

> <JCHEM_AVERAGE_POLARIZABILITY>
26.29842498591164

> <JCHEM_BIOAVAILABILITY>
1

> <JCHEM_DONOR_COUNT>
0

> <JCHEM_FORMAL_CHARGE>
0

> <JCHEM_GHOSE_FILTER>
1

> <JCHEM_IUPAC>
2-(4-methoxyphenyl)-2,3-dihydro-1H-indene-1,3-dione

> <ALOGPS_LOGP>
2.99

> <JCHEM_LOGP>
2.7232339989999996

> <ALOGPS_LOGS>
-4.30

> <JCHEM_MDDR_LIKE_RULE>
0

> <JCHEM_NEUTRAL_CHARGE>
-1

> <JCHEM_NUMBER_OF_RINGS>
3

> <JCHEM_PHYSIOLOGICAL_CHARGE>
-1

> <JCHEM_PKA_STRONGEST_ACIDIC>
4.554801253117332

> <JCHEM_PKA_STRONGEST_BASIC>
-4.82388585418053

> <JCHEM_POLAR_SURFACE_AREA>
43.370000000000005

> <JCHEM_REFRACTIVITY>
71.69670000000002

> <JCHEM_ROTATABLE_BOND_COUNT>
2

> <JCHEM_RULE_OF_FIVE>
1

> <ALOGPS_SOLUBILITY>
1.28e-02 g/l

> <JCHEM_TRADITIONAL_IUPAC>
biotin

> <JCHEM_VEBER_RULE>
0

> <DRUGBANK_ID>
DB01125

> <SECONDARY_ACCESSION_NUMBERS>
APRD00799

> <DRUG_GROUPS>
approved

> <GENERIC_NAME>
Anisindione

> <SYNONYMS>
2-(4-Methoxyphenyl)-1H-indene-1,3(2H)-dione; 2-(4-Methoxyphenyl)indan-1,3-dione; 2-(p-Methoxyphenyl)-1,3-indandione; 2-(p-Methoxyphenyl)indane-1,3-dione; 2-p-Anisyl-1,3-indandione; 2-para-Anisyl-1,3-indandione; Anisin indandione; Anisindiona; Anisindione; Anisindionum

> <INTERNATIONAL_BRANDS>
Miradon; Unidone

$$$$
