1151
  Mrv0541 02231215172D          

 20 22  0  0  0  0            999 V2000
    3.8680    0.7167    0.0000 N   0  0  0  0  0  0  0  0  0  0  0  0
    2.4959   -1.6597    0.0000 N   0  0  0  0  0  0  0  0  0  0  0  0
    4.2641    2.4519    0.0000 C   0  0  0  0  0  0  0  0  0  0  0  0
    3.4719    2.4519    0.0000 C   0  0  0  0  0  0  0  0  0  0  0  0
    4.5817    1.0603    0.0000 C   0  0  0  0  0  0  0  0  0  0  0  0
    3.1542    1.0603    0.0000 C   0  0  0  0  0  0  0  0  0  0  0  0
    3.8680   -0.0755    0.0000 C   0  0  0  0  0  0  0  0  0  0  0  0
    4.7580    1.8326    0.0000 C   0  0  0  0  0  0  0  0  0  0  0  0
    2.9780    1.8326    0.0000 C   0  0  0  0  0  0  0  0  0  0  0  0
    3.1820   -0.4715    0.0000 C   0  0  0  0  0  0  0  0  0  0  0  0
    5.1777    0.4899    0.0000 C   0  0  0  0  0  0  0  0  0  0  0  0
    2.5581    0.4899    0.0000 C   0  0  0  0  0  0  0  0  0  0  0  0
    5.5425    2.0879    0.0000 C   0  0  0  0  0  0  0  0  0  0  0  0
    2.1934    2.0879    0.0000 C   0  0  0  0  0  0  0  0  0  0  0  0
    3.1819   -1.2637    0.0000 C   0  0  0  0  0  0  0  0  0  0  0  0
    5.9680    0.7269    0.0000 C   0  0  0  0  0  0  0  0  0  0  0  0
    1.7678    0.7269    0.0000 C   0  0  0  0  0  0  0  0  0  0  0  0
    6.1516    1.5314    0.0000 C   0  0  0  0  0  0  0  0  0  0  0  0
    1.5843    1.5315    0.0000 C   0  0  0  0  0  0  0  0  0  0  0  0
    2.4959   -2.4519    0.0000 C   0  0  0  0  0  0  0  0  0  0  0  0
  1  5  1  0  0  0  0
  1  6  1  0  0  0  0
  1  7  1  0  0  0  0
  2 15  1  0  0  0  0
  2 20  1  0  0  0  0
  3  4  1  0  0  0  0
  3  8  1  0  0  0  0
  4  9  1  0  0  0  0
  5  8  1  0  0  0  0
  5 11  2  0  0  0  0
  6  9  1  0  0  0  0
  6 12  2  0  0  0  0
  7 10  1  0  0  0  0
  8 13  2  0  0  0  0
  9 14  2  0  0  0  0
 10 15  1  0  0  0  0
 11 16  1  0  0  0  0
 12 17  1  0  0  0  0
 13 18  1  0  0  0  0
 14 19  1  0  0  0  0
 16 18  2  0  0  0  0
 17 19  2  0  0  0  0
M  END
> <DATABASE_ID>
DB01151

> <DATABASE_NAME>
drugbank

> <SMILES>
CNCCCN1C2=CC=CC=C2CCC2=CC=CC=C12

> <INCHI_IDENTIFIER>
InChI=1S/C18H22N2/c1-19-13-6-14-20-17-9-4-2-7-15(17)11-12-16-8-3-5-10-18(16)20/h2-5,7-10,19H,6,11-14H2,1H3

> <INCHI_KEY>
HCYAFALTSJYZDH-UHFFFAOYSA-N

> <FORMULA>
C18H22N2

> <MOLECULAR_WEIGHT>
266.3807

> <EXACT_MASS>
266.178298714

> <JCHEM_ACCEPTOR_COUNT>
2

> <JCHEM_ATOM_COUNT>
42

> <JCHEM_AVERAGE_NEUTRAL_MICROSPECIES_CHARGE>
0.9990432207771537

> <JCHEM_AVERAGE_POLARIZABILITY>
31.74311947449245

> <JCHEM_BIOAVAILABILITY>
1

> <JCHEM_DONOR_COUNT>
1

> <JCHEM_FORMAL_CHARGE>
0

> <JCHEM_GHOSE_FILTER>
1

> <JCHEM_IUPAC>
(3-{2-azatricyclo[9.4.0.0^{3,8}]pentadeca-1(15),3,5,7,11,13-hexaen-2-yl}propyl)(methyl)amine

> <ALOGPS_LOGP>
4.02

> <JCHEM_LOGP>
3.895520857

> <ALOGPS_LOGS>
-3.83

> <JCHEM_MDDR_LIKE_RULE>
0

> <JCHEM_NEUTRAL_CHARGE>
1

> <JCHEM_NUMBER_OF_RINGS>
3

> <JCHEM_PHYSIOLOGICAL_CHARGE>
1

> <JCHEM_PKA_STRONGEST_BASIC>
10.018711766113656

> <JCHEM_POLAR_SURFACE_AREA>
15.27

> <JCHEM_REFRACTIVITY>
85.31090000000003

> <JCHEM_ROTATABLE_BOND_COUNT>
4

> <JCHEM_RULE_OF_FIVE>
1

> <ALOGPS_SOLUBILITY>
3.96e-02 g/l

> <JCHEM_TRADITIONAL_IUPAC>
biotin

> <JCHEM_VEBER_RULE>
1

> <DRUGBANK_ID>
DB01151

> <SECONDARY_ACCESSION_NUMBERS>
APRD00022; DB07682

> <DRUG_GROUPS>
approved; investigational

> <GENERIC_NAME>
Desipramine

> <SYNONYMS>
5-(gamma-methylaminopropyl)iminodibenzyl; 5-(γ-methylaminopropyl)iminodibenzyl; Déméthylimipramine; Desipramin; Desipramina; Desipramine; Désipramine; Desipraminum; Desmethylimipramine; DMI; Monodemethylimipramine; N-(3-methylaminopropyl)iminobibenzyl; Norimipramine

> <PRODUCTS>
Desipramine; Desipramine HCL; Desipramine Hydrochloride; Desipramine-10 - Tab 10mg; Desipramine-25 - Tab 25mg; Desipramine-50 - Tab 50mg; Desipramine-75 - Tab 75mg; Dom-desipramine Tablets - 25mg; Dom-desipramine Tablets - 50mg; Norpramin; Norpramin 100mg Tab; Norpramin 10mg Tab; Norpramin 25mg Tab; Norpramin 50mg Tab; Norpramin 75mg Tab; Norpramin Tab 25mg; Norpramin Tab 50mg; Norpramin Tab 75mg; Novo-desipramine Fc - 50mg Tab; Novo-desipramine Sc - Tab 10mg; Novo-desipramine Sc - Tab 25mg; Novo-desipramine Sc -tab 75mg; PHL-desipramine; PMS Desipramine Hydro Tab 10mg; PMS Desipramine Hydro Tab 25mg; PMS Desipramine Hydro Tab 50mg; PMS Desipramine Hydro Tab 75mg; PMS-desipramine - Tab 100mg; Penta-desipramine Tablets; Pertofrane 25mg; Pertofrane Tab 50mg; Ratio-desipramine Tab 100mg; Ratio-desipramine Tab 10mg; Ratio-desipramine Tab 25mg; Ratio-desipramine Tab 50mg; Ratio-desipramine Tab 75mg

> <INTERNATIONAL_BRANDS>
Pertofran; Pertofrane

> <SALTS>
Desipramine hydrochloride

$$$$
