1180
  Mrv0541 02231215182D          

 49 54  0  0  1  0            999 V2000
    9.0363   -1.7074    0.0000 O   0  0  0  0  0  0  0  0  0  0  0  0
   10.1908   -0.4251    0.0000 O   0  0  0  0  0  0  0  0  0  0  0  0
    7.5971   -2.1231    0.0000 O   0  0  0  0  0  0  0  0  0  0  0  0
    6.5463   -1.1548    0.0000 O   0  0  0  0  0  0  0  0  0  0  0  0
   10.4823    0.9736    0.0000 O   0  0  0  0  0  0  0  0  0  0  0  0
    2.2047    1.5699    0.0000 O   0  0  0  0  0  0  0  0  0  0  0  0
   14.2286   -1.2671    0.0000 O   0  0  0  0  0  0  0  0  0  0  0  0
   14.8118    1.5303    0.0000 O   0  0  0  0  0  0  0  0  0  0  0  0
   15.3278   -0.0368    0.0000 O   0  0  0  0  0  0  0  0  0  0  0  0
    7.1069    1.7458    0.0000 N   0  0  0  0  0  0  0  0  0  0  0  0
    5.0832    0.8239    0.0000 N   0  0  0  0  0  0  0  0  0  0  0  0
    7.6469    0.1264    0.0000 C   0  0  2  0  0  0  0  0  0  0  0  0
    8.2218    0.7649    0.0000 C   0  0  1  0  0  0  0  0  0  0  0  0
    6.8078    0.3115    0.0000 C   0  0  0  0  0  0  0  0  0  0  0  0
    7.9102   -0.7289    0.0000 C   0  0  1  0  0  0  0  0  0  0  0  0
    6.5548    1.1327    0.0000 C   0  0  2  0  0  0  0  0  0  0  0  0
    7.9499    1.5801    0.0000 C   0  0  0  0  0  0  0  0  0  0  0  0
    9.1000    0.5924    0.0000 C   0  0  0  0  0  0  0  0  0  0  0  0
    8.7843   -0.9218    0.0000 C   0  0  2  0  0  0  0  0  0  0  0  0
    9.3832   -0.2567    0.0000 C   0  0  2  0  0  0  0  0  0  0  0  0
    5.7480    1.3042    0.0000 C   0  0  0  0  0  0  0  0  0  0  0  0
    6.8519    2.5303    0.0000 C   0  0  0  0  0  0  0  0  0  0  0  0
    5.4931    2.0888    0.0000 C   0  0  0  0  0  0  0  0  0  0  0  0
    6.0451    2.7018    0.0000 C   0  0  0  0  0  0  0  0  0  0  0  0
    7.3513   -1.3356    0.0000 C   0  0  0  0  0  0  0  0  0  0  0  0
    4.6731    2.0867    0.0000 C   0  0  0  0  0  0  0  0  0  0  0  0
    4.4203    1.3065    0.0000 C   0  0  0  0  0  0  0  0  0  0  0  0
    9.8424   -1.8820    0.0000 C   0  0  0  0  0  0  0  0  0  0  0  0
    4.1108    2.7297    0.0000 C   0  0  0  0  0  0  0  0  0  0  0  0
   10.7403    0.1901    0.0000 C   0  0  0  0  0  0  0  0  0  0  0  0
    3.5877    1.1154    0.0000 C   0  0  0  0  0  0  0  0  0  0  0  0
    3.2741    2.5578    0.0000 C   0  0  0  0  0  0  0  0  0  0  0  0
    3.0108    1.7452    0.0000 C   0  0  0  0  0  0  0  0  0  0  0  0
    7.0380   -2.7297    0.0000 C   0  0  0  0  0  0  0  0  0  0  0  0
   11.5480    0.0217    0.0000 C   0  0  0  0  0  0  0  0  0  0  0  0
   12.0975    0.6369    0.0000 C   0  0  0  0  0  0  0  0  0  0  0  0
    1.6499    2.1803    0.0000 C   0  0  0  0  0  0  0  0  0  0  0  0
   12.9051    0.4684    0.0000 C   0  0  0  0  0  0  0  0  0  0  0  0
   13.4546    1.0836    0.0000 C   0  0  0  0  0  0  0  0  0  0  0  0
   13.1630   -0.3151    0.0000 C   0  0  0  0  0  0  0  0  0  0  0  0
   13.9706   -0.4836    0.0000 C   0  0  0  0  0  0  0  0  0  0  0  0
   14.2623    0.9151    0.0000 C   0  0  0  0  0  0  0  0  0  0  0  0
   14.5202    0.1317    0.0000 C   0  0  0  0  0  0  0  0  0  0  0  0
   13.6789   -1.8823    0.0000 C   0  0  0  0  0  0  0  0  0  0  0  0
   14.5539    2.3139    0.0000 C   0  0  0  0  0  0  0  0  0  0  0  0
   15.8774    0.5784    0.0000 C   0  0  0  0  0  0  0  0  0  0  0  0
    7.1996   -0.3590    0.0000 H   0  0  0  0  0  0  0  0  0  0  0  0
    8.6577    1.2605    0.0000 H   0  0  0  0  0  0  0  0  0  0  0  0
    6.1096    0.6457    0.0000 H   0  0  0  0  0  0  0  0  0  0  0  0
 19  1  1  6  0  0  0
  1 28  1  0  0  0  0
 20  2  1  1  0  0  0
  2 30  1  0  0  0  0
  3 25  1  0  0  0  0
  3 34  1  0  0  0  0
  4 25  2  0  0  0  0
  5 30  2  0  0  0  0
  6 33  1  0  0  0  0
  6 37  1  0  0  0  0
  7 41  1  0  0  0  0
  7 44  1  0  0  0  0
  8 42  1  0  0  0  0
  8 45  1  0  0  0  0
  9 43  1  0  0  0  0
  9 46  1  0  0  0  0
 10 16  1  0  0  0  0
 10 17  1  0  0  0  0
 10 22  1  0  0  0  0
 11 21  1  0  0  0  0
 11 27  1  0  0  0  0
 12 13  1  0  0  0  0
 12 14  1  0  0  0  0
 12 15  1  0  0  0  0
 12 47  1  6  0  0  0
 13 17  1  0  0  0  0
 13 18  1  0  0  0  0
 13 48  1  6  0  0  0
 14 16  1  0  0  0  0
 15 19  1  0  0  0  0
 15 25  1  1  0  0  0
 16 21  1  0  0  0  0
 16 49  1  1  0  0  0
 18 20  1  0  0  0  0
 19 20  1  0  0  0  0
 21 23  2  0  0  0  0
 22 24  1  0  0  0  0
 23 24  1  0  0  0  0
 23 26  1  0  0  0  0
 26 27  2  0  0  0  0
 26 29  1  0  0  0  0
 27 31  1  0  0  0  0
 29 32  2  0  0  0  0
 30 35  1  0  0  0  0
 31 33  2  0  0  0  0
 32 33  1  0  0  0  0
 35 36  2  3  0  0  0
 36 38  1  0  0  0  0
 38 39  2  0  0  0  0
 38 40  1  0  0  0  0
 39 42  1  0  0  0  0
 40 41  2  0  0  0  0
 41 43  1  0  0  0  0
 42 43  2  0  0  0  0
M  END
> <DATABASE_ID>
DB01180

> <DATABASE_NAME>
drugbank

> <SMILES>
[H][C@]12C[C@@H](OC(=O)C=CC3=CC(OC)=C(OC)C(OC)=C3)[C@H](OC)[C@@H](C(=O)OC)[C@@]1([H])C[C@@]1([H])N(CCC3=C1NC1=C3C=CC(OC)=C1)C2

> <INCHI_IDENTIFIER>
InChI=1S/C35H42N2O9/c1-40-21-8-9-22-23-11-12-37-18-20-15-29(46-30(38)10-7-19-13-27(41-2)33(43-4)28(14-19)42-3)34(44-5)31(35(39)45-6)24(20)17-26(37)32(23)36-25(22)16-21/h7-10,13-14,16,20,24,26,29,31,34,36H,11-12,15,17-18H2,1-6H3/t20-,24+,26-,29-,31+,34+/m1/s1

> <INCHI_KEY>
SZLZWPPUNLXJEA-LAFLMMDJSA-N

> <FORMULA>
C35H42N2O9

> <MOLECULAR_WEIGHT>
634.716

> <EXACT_MASS>
634.289030952

> <JCHEM_ACCEPTOR_COUNT>
8

> <JCHEM_ATOM_COUNT>
88

> <JCHEM_AVERAGE_NEUTRAL_MICROSPECIES_CHARGE>
0.7100652109257699

> <JCHEM_AVERAGE_POLARIZABILITY>
69.65863706589506

> <JCHEM_BIOAVAILABILITY>
0

> <JCHEM_DONOR_COUNT>
1

> <JCHEM_FORMAL_CHARGE>
0

> <JCHEM_GHOSE_FILTER>
0

> <JCHEM_IUPAC>
methyl (1R,15S,17R,18R,19S,20S)-6,18-dimethoxy-17-{[3-(3,4,5-trimethoxyphenyl)prop-2-enoyl]oxy}-3,13-diazapentacyclo[11.8.0.0^{2,10}.0^{4,9}.0^{15,20}]henicosa-2(10),4(9),5,7-tetraene-19-carboxylate

> <ALOGPS_LOGP>
4.48

> <JCHEM_LOGP>
4.070086811999998

> <ALOGPS_LOGS>
-5.26

> <JCHEM_MDDR_LIKE_RULE>
1

> <JCHEM_NEUTRAL_CHARGE>
1

> <JCHEM_NUMBER_OF_RINGS>
6

> <JCHEM_PHYSIOLOGICAL_CHARGE>
1

> <JCHEM_PKA_STRONGEST_ACIDIC>
16.290112706432037

> <JCHEM_PKA_STRONGEST_BASIC>
7.388997906586196

> <JCHEM_POLAR_SURFACE_AREA>
117.78

> <JCHEM_REFRACTIVITY>
171.16419999999994

> <JCHEM_ROTATABLE_BOND_COUNT>
11

> <JCHEM_RULE_OF_FIVE>
0

> <ALOGPS_SOLUBILITY>
3.49e-03 g/l

> <JCHEM_TRADITIONAL_IUPAC>
biotin

> <JCHEM_VEBER_RULE>
0

> <DRUGBANK_ID>
DB01180

> <SECONDARY_ACCESSION_NUMBERS>
APRD00112

> <DRUG_GROUPS>
approved

> <GENERIC_NAME>
Rescinnamine

> <SYNONYMS>
3,4,5-Trimethoxycinnamoyl methyl reserpate; Rescinnamine; Trimethoxy cinnamoyl reserpate de methyl

> <INTERNATIONAL_BRANDS>
Tsuruselpi S

$$$$
