1188
  Mrv0541 02231215182D          

 15 16  0  0  0  0            999 V2000
    4.5080   -1.4438    0.0000 O   0  0  0  0  0  0  0  0  0  0  0  0
    5.9370   -0.6188    0.0000 O   0  0  0  0  0  0  0  0  0  0  0  0
    4.5080   -0.6188    0.0000 N   0  0  0  0  0  0  0  0  0  0  0  0
    3.0791   -0.6188    0.0000 C   0  0  0  0  0  0  0  0  0  0  0  0
    3.0791   -1.4438    0.0000 C   0  0  0  0  0  0  0  0  0  0  0  0
    2.3645   -0.2063    0.0000 C   0  0  0  0  0  0  0  0  0  0  0  0
    2.3645   -1.8563    0.0000 C   0  0  0  0  0  0  0  0  0  0  0  0
    1.6500   -0.6188    0.0000 C   0  0  0  0  0  0  0  0  0  0  0  0
    1.6500   -1.4438    0.0000 C   0  0  0  0  0  0  0  0  0  0  0  0
    3.7935   -0.2063    0.0000 C   0  0  0  0  0  0  0  0  0  0  0  0
    3.7935    0.6188    0.0000 C   0  0  0  0  0  0  0  0  0  0  0  0
    4.5080    1.0313    0.0000 C   0  0  0  0  0  0  0  0  0  0  0  0
    5.2224   -0.2063    0.0000 C   0  0  0  0  0  0  0  0  0  0  0  0
    5.2224    0.6188    0.0000 C   0  0  0  0  0  0  0  0  0  0  0  0
    4.5080    1.8563    0.0000 C   0  0  0  0  0  0  0  0  0  0  0  0
  1  3  1  0  0  0  0
  2 13  2  0  0  0  0
  3 10  1  0  0  0  0
  3 13  1  0  0  0  0
  4  5  1  0  0  0  0
  4  6  1  0  0  0  0
  4 10  1  0  0  0  0
  5  7  1  0  0  0  0
  6  8  1  0  0  0  0
  7  9  1  0  0  0  0
  8  9  1  0  0  0  0
 10 11  2  0  0  0  0
 11 12  1  0  0  0  0
 12 14  2  0  0  0  0
 12 15  1  0  0  0  0
 13 14  1  0  0  0  0
M  END
> <DATABASE_ID>
DB01188

> <DATABASE_NAME>
drugbank

> <SMILES>
CC1=CC(=O)N(O)C(=C1)C1CCCCC1

> <INCHI_IDENTIFIER>
InChI=1S/C12H17NO2/c1-9-7-11(13(15)12(14)8-9)10-5-3-2-4-6-10/h7-8,10,15H,2-6H2,1H3

> <INCHI_KEY>
SCKYRAXSEDYPSA-UHFFFAOYSA-N

> <FORMULA>
C12H17NO2

> <MOLECULAR_WEIGHT>
207.2689

> <EXACT_MASS>
207.125928793

> <JCHEM_ACCEPTOR_COUNT>
2

> <JCHEM_ATOM_COUNT>
32

> <JCHEM_AVERAGE_NEUTRAL_MICROSPECIES_CHARGE>
-0.589883739434734

> <JCHEM_AVERAGE_POLARIZABILITY>
23.12587927974971

> <JCHEM_BIOAVAILABILITY>
1

> <JCHEM_DONOR_COUNT>
1

> <JCHEM_FORMAL_CHARGE>
0

> <JCHEM_GHOSE_FILTER>
1

> <JCHEM_IUPAC>
6-cyclohexyl-1-hydroxy-4-methyl-1,2-dihydropyridin-2-one

> <ALOGPS_LOGP>
2.15

> <JCHEM_LOGP>
2.216589469333334

> <ALOGPS_LOGS>
-2.17

> <JCHEM_MDDR_LIKE_RULE>
0

> <JCHEM_NEUTRAL_CHARGE>
-1

> <JCHEM_NUMBER_OF_RINGS>
2

> <JCHEM_PHYSIOLOGICAL_CHARGE>
-1

> <JCHEM_PKA_STRONGEST_ACIDIC>
6.842140564132407

> <JCHEM_PKA_STRONGEST_BASIC>
-6.194129902384247

> <JCHEM_POLAR_SURFACE_AREA>
40.54

> <JCHEM_REFRACTIVITY>
60.907399999999996

> <JCHEM_ROTATABLE_BOND_COUNT>
1

> <JCHEM_RULE_OF_FIVE>
1

> <ALOGPS_SOLUBILITY>
1.41e+00 g/l

> <JCHEM_TRADITIONAL_IUPAC>
biotin

> <JCHEM_VEBER_RULE>
0

> <DRUGBANK_ID>
DB01188

> <SECONDARY_ACCESSION_NUMBERS>
APRD00871

> <DRUG_GROUPS>
approved; investigational

> <GENERIC_NAME>
Ciclopirox

> <SYNONYMS>
6-cyclohexyl-1-hydroxy-4-methyl-2(1H)-pyridinone; Ciclopirox; Ciclopiroxum

> <PRODUCTS>
Apo-ciclopirox; Ciclodan; Ciclomazole; Ciclopirox; Ciclopirox 0.77% / Salicylic Acid 2%; Ciclopirox 1% / Clobetasol Propionate 0.05%; Ciclopirox 3%; Ciclopirox 3% / Itraconazole 5% / Urea 20%; Ciclopirox 8% / Fluconazole 1% / Terbinafine HCl 1%; Ciclopirox Olamine; Ciclopirox Olamine 0.77% / Clobetasol Propionate 0.05% / Salicylic Acid 3%.; Ciclopirox Olamine 1% / Salicylic Acid 2%; Ciclopirox Topical Solution; Cnl8; Loprox; Loprox Cream 1%; Loprox Crm 1%; Loprox Lotion 1%; Loprox Lotion 1.0%; PMS-ciclopirox; Pedipak; Pedipirox-4 Nail Kit; Penlac; Stieprox Shampoo; Taro-ciclopirox; Terbinafine HCl Ciclopirox; Trilociclo

> <INTERNATIONAL_BRANDS>
Batrafen; Mycoster; Stieprox

> <SALTS>
Ciclopirox olamine

$$$$
