1192
  Mrv1718008161817022D          

 24 28  0  0  1  0            999 V2000
    1.9356   -0.2231    0.0000 O   0  0  0  0  0  0  0  0  0  0  0  0
    4.4727   -1.7584    0.0000 O   0  0  0  0  0  0  0  0  0  0  0  0
    1.7349   -2.3527    0.0000 O   0  0  0  0  0  0  0  0  0  0  0  0
    1.7349    1.8149    0.0000 O   0  0  0  0  0  0  0  0  0  0  0  0
    5.3440   -1.0939    0.0000 N   0  0  0  0  0  0  0  0  0  0  0  0
    3.2006   -0.6814    0.0000 C   0  0  1  0  0  0  0  0  0  0  0  0
    3.9151   -1.0939    0.0000 C   0  0  1  0  0  0  0  0  0  0  0  0
    4.6296   -0.6814    0.0000 C   0  0  1  0  0  0  0  0  0  0  0  0
    2.4861   -1.0939    0.0000 C   0  0  2  0  0  0  0  0  0  0  0  0
    3.6773   -0.0764    0.0000 C   0  0  0  0  0  0  0  0  0  0  0  0
    3.2006    0.1436    0.0000 C   0  0  0  0  0  0  0  0  0  0  0  0
    3.9151   -1.9190    0.0000 C   0  0  0  0  0  0  0  0  0  0  0  0
    4.6296    0.1436    0.0000 C   0  0  0  0  0  0  0  0  0  0  0  0
    4.8506   -0.0764    0.0000 C   0  0  0  0  0  0  0  0  0  0  0  0
    3.9151    0.5561    0.0000 C   0  0  0  0  0  0  0  0  0  0  0  0
    3.2006   -2.3315    0.0000 C   0  0  0  0  0  0  0  0  0  0  0  0
    2.4861   -1.9190    0.0000 C   0  0  0  0  0  0  0  0  0  0  0  0
    2.4861    0.5561    0.0000 C   0  0  0  0  0  0  0  0  0  0  0  0
    5.9350   -1.7290    0.0000 C   0  0  0  0  0  0  0  0  0  0  0  0
    3.9151    1.3811    0.0000 C   0  0  0  0  0  0  0  0  0  0  0  0
    2.4861    1.3811    0.0000 C   0  0  0  0  0  0  0  0  0  0  0  0
    3.2006    1.7936    0.0000 C   0  0  0  0  0  0  0  0  0  0  0  0
    4.8675   -1.3334    0.0000 H   0  0  0  0  0  0  0  0  0  0  0  0
    1.8196   -1.2870    0.0000 H   0  0  0  0  0  0  0  0  0  0  0  0
  1  9  1  0  0  0  0
  1 18  1  0  0  0  0
  7  2  1  1  0  0  0
  3 17  2  0  0  0  0
  4 21  1  0  0  0  0
  5  8  1  0  0  0  0
  5 14  1  0  0  0  0
  5 19  1  0  0  0  0
  6  7  1  0  0  0  0
  6  9  1  0  0  0  0
  6 10  1  1  0  0  0
  6 11  1  0  0  0  0
  7  8  1  0  0  0  0
  7 12  1  0  0  0  0
  8 13  1  0  0  0  0
  8 23  1  6  0  0  0
  9 17  1  0  0  0  0
  9 24  1  1  0  0  0
 10 14  1  0  0  0  0
 11 15  2  0  0  0  0
 11 18  1  0  0  0  0
 12 16  1  0  0  0  0
 13 15  1  0  0  0  0
 15 20  1  0  0  0  0
 16 17  1  0  0  0  0
 18 21  2  0  0  0  0
 20 22  2  0  0  0  0
 21 22  1  0  0  0  0
M  END
> <DATABASE_ID>
DB01192

> <DATABASE_NAME>
drugbank

> <SMILES>
[H][C@@]12OC3=C(O)C=CC4=C3[C@@]11CCN(C)[C@]([H])(C4)[C@]1(O)CCC2=O

> <INCHI_IDENTIFIER>
InChI=1S/C17H19NO4/c1-18-7-6-16-13-9-2-3-10(19)14(13)22-15(16)11(20)4-5-17(16,21)12(18)8-9/h2-3,12,15,19,21H,4-8H2,1H3/t12-,15+,16+,17-/m1/s1

> <INCHI_KEY>
UQCNKQCJZOAFTQ-ISWURRPUSA-N

> <FORMULA>
C17H19NO4

> <MOLECULAR_WEIGHT>
301.3371

> <EXACT_MASS>
301.131408101

> <JCHEM_ACCEPTOR_COUNT>
5

> <JCHEM_ATOM_COUNT>
41

> <JCHEM_AVERAGE_POLARIZABILITY>
30.771555668091246

> <JCHEM_BIOAVAILABILITY>
1

> <JCHEM_DONOR_COUNT>
2

> <JCHEM_FORMAL_CHARGE>
0

> <JCHEM_GHOSE_FILTER>
1

> <JCHEM_IUPAC>
(1S,5R,13R,17S)-10,17-dihydroxy-4-methyl-12-oxa-4-azapentacyclo[9.6.1.0^{1,13}.0^{5,17}.0^{7,18}]octadeca-7(18),8,10-trien-14-one

> <ALOGPS_LOGP>
1.26

> <JCHEM_LOGP>
0.7848734728819186

> <ALOGPS_LOGS>
-1.07

> <JCHEM_MDDR_LIKE_RULE>
0

> <JCHEM_NUMBER_OF_RINGS>
5

> <JCHEM_PHYSIOLOGICAL_CHARGE>
1

> <JCHEM_PKA>
13.586789168485328

> <JCHEM_PKA_STRONGEST_ACIDIC>
10.071581404722176

> <JCHEM_PKA_STRONGEST_BASIC>
8.209824749325092

> <JCHEM_POLAR_SURFACE_AREA>
70.0

> <JCHEM_REFRACTIVITY>
79.55950000000001

> <JCHEM_ROTATABLE_BOND_COUNT>
0

> <JCHEM_RULE_OF_FIVE>
1

> <ALOGPS_SOLUBILITY>
2.56e+01 g/l

> <JCHEM_TRADITIONAL_IUPAC>
(1S,5R,13R,17S)-10,17-dihydroxy-4-methyl-12-oxa-4-azapentacyclo[9.6.1.0^{1,13}.0^{5,17}.0^{7,18}]octadeca-7(18),8,10-trien-14-one

> <JCHEM_VEBER_RULE>
0

> <DRUGBANK_ID>
DB01192

> <SECONDARY_ACCESSION_NUMBERS>
APRD00158

> <DRUG_GROUPS>
approved; investigational; vet_approved

> <GENERIC_NAME>
Oxymorphone

> <SYNONYMS>
(14S)-14-Hydroxydihydromorphinone; 14-Hydroxydihydromorphinone; Dihydrohydroxymorphinone; Dihydroxymorphinone; Oximorfona; Oximorphonum; Oxymorphone; Oxymorphonum

> <PRODUCTS>
Numorphan; Numorphan Injection 1.5mg/ml; Numorphan Suppository 5mg; Opana; Opana ER; Oxymorphone Hydrochloride; Oxymorphone Hydrochloride Extended-Release; Oxymorphone hydrochloride

> <SALTS>
Oxymorphone hydrochloride

$$$$
