1197
  Mrv0541 02231215192D          

 14 14  0  0  1  0            999 V2000
    1.6500   -1.6166    0.0000 S   0  0  0  0  0  0  0  0  0  0  0  0
    3.7935   -0.3790    0.0000 O   0  0  0  0  0  0  0  0  0  0  0  0
    5.1443    1.6406    0.0000 O   0  0  0  0  0  0  0  0  0  0  0  0
    4.7026    0.2815    0.0000 O   0  0  0  0  0  0  0  0  0  0  0  0
    3.0791    0.8585    0.0000 N   0  0  0  0  0  0  0  0  0  0  0  0
    3.7465    1.3435    0.0000 C   0  0  1  0  0  0  0  0  0  0  0  0
    3.4916    2.1281    0.0000 C   0  0  0  0  0  0  0  0  0  0  0  0
    2.6666    2.1281    0.0000 C   0  0  0  0  0  0  0  0  0  0  0  0
    2.4115    1.3435    0.0000 C   0  0  0  0  0  0  0  0  0  0  0  0
    3.0791    0.0335    0.0000 C   0  0  0  0  0  0  0  0  0  0  0  0
    2.3645   -0.3790    0.0000 C   0  0  1  0  0  0  0  0  0  0  0  0
    4.5311    1.0885    0.0000 C   0  0  0  0  0  0  0  0  0  0  0  0
    2.3645   -1.2040    0.0000 C   0  0  0  0  0  0  0  0  0  0  0  0
    1.6500    0.0335    0.0000 C   0  0  0  0  0  0  0  0  0  0  0  0
  1 13  1  0  0  0  0
  2 10  2  0  0  0  0
  3 12  1  0  0  0  0
  4 12  2  0  0  0  0
  5  6  1  0  0  0  0
  5  9  1  0  0  0  0
  5 10  1  0  0  0  0
  6  7  1  0  0  0  0
  6 12  1  1  0  0  0
  7  8  1  0  0  0  0
  8  9  1  0  0  0  0
 10 11  1  0  0  0  0
 11 13  1  0  0  0  0
 11 14  1  1  0  0  0
M  END
> <DATABASE_ID>
DB01197

> <DATABASE_NAME>
drugbank

> <SMILES>
C[C@H](CS)C(=O)N1CCC[C@H]1C(O)=O

> <INCHI_IDENTIFIER>
InChI=1S/C9H15NO3S/c1-6(5-14)8(11)10-4-2-3-7(10)9(12)13/h6-7,14H,2-5H2,1H3,(H,12,13)/t6-,7+/m1/s1

> <INCHI_KEY>
FAKRSMQSSFJEIM-RQJHMYQMSA-N

> <FORMULA>
C9H15NO3S

> <MOLECULAR_WEIGHT>
217.285

> <EXACT_MASS>
217.077264041

> <JCHEM_ACCEPTOR_COUNT>
3

> <JCHEM_ATOM_COUNT>
29

> <JCHEM_AVERAGE_NEUTRAL_MICROSPECIES_CHARGE>
-0.9997581494096159

> <JCHEM_AVERAGE_POLARIZABILITY>
21.7200784718371

> <JCHEM_BIOAVAILABILITY>
1

> <JCHEM_DONOR_COUNT>
2

> <JCHEM_FORMAL_CHARGE>
0

> <JCHEM_GHOSE_FILTER>
1

> <JCHEM_IUPAC>
(2S)-1-[(2S)-2-methyl-3-sulfanylpropanoyl]pyrrolidine-2-carboxylic acid

> <ALOGPS_LOGP>
1.02

> <JCHEM_LOGP>
0.7269212306666664

> <ALOGPS_LOGS>
-1.68

> <JCHEM_MDDR_LIKE_RULE>
0

> <JCHEM_NEUTRAL_CHARGE>
-1

> <JCHEM_NUMBER_OF_RINGS>
1

> <JCHEM_PHYSIOLOGICAL_CHARGE>
-1

> <JCHEM_PKA>
10.096073653342602

> <JCHEM_PKA_STRONGEST_ACIDIC>
4.0186342694223685

> <JCHEM_PKA_STRONGEST_BASIC>
-1.260826651107954

> <JCHEM_POLAR_SURFACE_AREA>
57.61

> <JCHEM_REFRACTIVITY>
54.63490000000001

> <JCHEM_ROTATABLE_BOND_COUNT>
3

> <JCHEM_RULE_OF_FIVE>
1

> <ALOGPS_SOLUBILITY>
4.52e+00 g/l

> <JCHEM_TRADITIONAL_IUPAC>
biotin

> <JCHEM_VEBER_RULE>
0

> <DRUGBANK_ID>
DB01197

> <SECONDARY_ACCESSION_NUMBERS>
APRD00164

> <DRUG_GROUPS>
approved

> <GENERIC_NAME>
Captopril

> <SYNONYMS>
(2S)-1-[(2S)-2-methyl-3-sulfanylpropanoyl]pyrrolidine-2-carboxylic acid; Captopril; Captoprilum; Captopryl; CP; D-2-methyl-3-mercaptopropanoyl-L-proline; D-3-mercapto-2-methylpropanoyl-L-proline; L-Captopril

> <PRODUCTS>
Apo-capto Tab 100mg; Apo-capto Tab 12.5mg; Apo-capto Tab 25mg; Apo-capto Tab 50mg; Apo-capto Tab 6.25mg; Bci Captopril Tablets; Capoten; Capoten Tab 100mg; Capoten Tab 12.5mg; Capoten Tab 25mg; Capoten Tab 50mg; Capozide; Captopril; Captopril Tablets; Captopril and Hydrochlorothiazide; Captopril-100 Tab 100mg; Captopril-12.5 Tab 12.5mg; Captopril-25 Tab 25mg; Captopril-50 Tab 50mg; Captril; Dom-captopril; Ftp-captopril; Med Captopril - Tab 100mg; Med Captopril - Tab 12.5mg; Med Captopril - Tab 25mg; Med Captopril - Tab 50mg; Mylan-captopril; Novo-captoril; Nu-capto Tab 100mg; Nu-capto Tab 12.5mg; Nu-capto Tab 25mg; Nu-capto Tab 50mg; Orb-captopril; PMS-captopril - Tab 100mg; PMS-captopril - Tab 12.5mg; PMS-captopril - Tab 25mg; PMS-captopril - Tab 50mg; Penta-captopril Tablets; Ratio-captopril Tab 100mg; Ratio-captopril Tab 12.5mg; Ratio-captopril Tab 25mg; Ratio-captopril Tab 50mg; Teva-captopril; Tria-captopril 100mg Tablet; Tria-captopril 12.5mg Tablet; Tria-captopril 25mg Tablet; Tria-captopril 50mg Tablet

> <INTERNATIONAL_BRANDS>
Acepress; Acepril; Apopril; Captolane; Captoril; Cesplon; Dilabar; Garranil; Hipertil; Hypertil; Lopirin; Lopril; Tenosbon; Tensoprel

$$$$
