122
  Mrv0541 02261416092D          

  7  6  0  0  0  0            999 V2000
    4.5080    0.4125    0.0000 O   0  0  0  0  0  0  0  0  0  0  0  0
    2.3645    0.0000    0.0000 N   0  3  0  0  0  0  0  0  0  0  0  0
    3.0791    0.4125    0.0000 C   0  0  0  0  0  0  0  0  0  0  0  0
    1.6501   -0.4125    0.0000 C   0  0  0  0  0  0  0  0  0  0  0  0
    1.9520    0.7145    0.0000 C   0  0  0  0  0  0  0  0  0  0  0  0
    2.7770   -0.7145    0.0000 C   0  0  0  0  0  0  0  0  0  0  0  0
    3.7936    0.0000    0.0000 C   0  0  0  0  0  0  0  0  0  0  0  0
  1  7  1  0  0  0  0
  2  3  1  0  0  0  0
  2  4  1  0  0  0  0
  2  5  1  0  0  0  0
  2  6  1  0  0  0  0
  3  7  1  0  0  0  0
M  CHG  1   2   1
M  END
> <DATABASE_ID>
DB00122

> <DATABASE_NAME>
drugbank

> <SMILES>
C[N+](C)(C)CCO

> <INCHI_IDENTIFIER>
InChI=1S/C5H14NO/c1-6(2,3)4-5-7/h7H,4-5H2,1-3H3/q+1

> <INCHI_KEY>
OEYIOHPDSNJKLS-UHFFFAOYSA-N

> <FORMULA>
C5H14NO

> <MOLECULAR_WEIGHT>
104.1708

> <EXACT_MASS>
104.107539075

> <JCHEM_ACCEPTOR_COUNT>
1

> <JCHEM_ATOM_COUNT>
21

> <JCHEM_AVERAGE_NEUTRAL_MICROSPECIES_CHARGE>
0.9999998925865887

> <JCHEM_AVERAGE_POLARIZABILITY>
12.56561305801337

> <JCHEM_BIOAVAILABILITY>
1

> <JCHEM_DONOR_COUNT>
1

> <JCHEM_FORMAL_CHARGE>
1

> <JCHEM_GHOSE_FILTER>
0

> <JCHEM_IUPAC>
(2-hydroxyethyl)trimethylazanium

> <ALOGPS_LOGP>
-3.59

> <JCHEM_LOGP>
-4.662269162805079

> <ALOGPS_LOGS>
-1.59

> <JCHEM_MDDR_LIKE_RULE>
0

> <JCHEM_NEUTRAL_CHARGE>
1

> <JCHEM_NUMBER_OF_RINGS>
0

> <JCHEM_PHYSIOLOGICAL_CHARGE>
1

> <JCHEM_PKA_STRONGEST_ACIDIC>
13.968714076810004

> <JCHEM_PKA_STRONGEST_BASIC>
-3.2498844628033043

> <JCHEM_POLAR_SURFACE_AREA>
20.23

> <JCHEM_REFRACTIVITY>
42.194

> <JCHEM_ROTATABLE_BOND_COUNT>
2

> <JCHEM_RULE_OF_FIVE>
1

> <ALOGPS_SOLUBILITY>
3.61e+00 g/l

> <JCHEM_TRADITIONAL_IUPAC>
biotin

> <JCHEM_VEBER_RULE>
1

> <DRUGBANK_ID>
DB00122

> <SECONDARY_ACCESSION_NUMBERS>
NUTR00020

> <DRUG_GROUPS>
approved; nutraceutical

> <GENERIC_NAME>
Choline

> <SYNONYMS>
Bilineurine; Choline ion; N-trimethylethanolamine; N,N,N-trimethylethanol-ammonium; trimethylethanolamine; Vitamin J

> <PRODUCTS>
24 Multivitamins + Minerals; 50 Plus; Advanced 2000 Capsules; Alertonic; Alkadrenergy Tablets; American Eagle Energizer Plus Vitamin Supplement Drink; American Plus Energy & Vitamin Drink; B 50 Capsules; B Complex 25mg Vitamin Supplement; B Complex 50 Vitamin Cap; B Complex 50+ Caplet; B Compound 50mg Tab; B-100 Caps; B-100 Hi Potency B Vitamins Tab; B-100 Vitamin Supplement; B-50 Complex; B-50 Hi Potency B Vitamins Tab; B-complex; B-complex 100; B-complex 50; B-complex Tab; B-complex With Vitamin C, Biotin, Folic Acid; B-complex-50 Tab; B-plex; B-plus - Tab; B50 Complex; Balanced B 125 Srt; Betacol; Bev 29 Tab; Bev B-150; Bev-lipo-1000; Biosculpt; Body Rox; Body Tropics Plus Tab; C. Vit-min Formula; Card-floe II Tab; Cavan Prenatal; Children's Chew Multi & Min Tab; Children's Chewable Multivitamins and Minerals; Children's Chewable Vit and Min Tab; Choline & Inositol Caps; Choline 250 mg; Choline 250mg; Choline Bitartrate 100mg-tab; Choline Bitartrate 500 Mg - Tablet; Choline Caps 350mg; Choline Ctr Srt 400mg; Choline Inositol Methionine; Choline Tab 250mg; Choline and Inositol 250mg/250mg; Cholinex Tab 200mg; Chromium and Vanadium Mineral Supplement; Classic Swiss One 10 Multivitamin and Mineral Tab; Complete Mega B; Complete Multivitamins and Minerals Tablets Timed Release; Complete One A Day Tab; Complete One-A-day - Tab; Complexe B Compose 75; Daily Energy Brand B-complex; Deriton; Derma-force; Doctor's Choice Brand for Men; Dp 2000; Duet DHA Balanced; Essential B Tablets; Extra Once A Day; Fem - Pmt; Folic Acid Plus; For-2; Formula Cm; Formula F L W; Formula Gly; Formula Hh; Formula Lf; Forty Plus Vitamin Supplement; Fusion PM Formula Tab; Gabavale-5; Gabazolamine; Gabazolamine-0.5; Gabazolpidem-5; Gabitidine; Gaboxetine; Gesticare DHA; Glyco Lite Ect; Glyco Plus Ect; Gnc Choline/inositol 250mg Tablets; Grand Master Formula Tab; H.W. Children's Chewable Multi Vit & Mineral; Harvest Of Values All B Complex Tab; Hi Potency B Complex W Chelated Minerals; Hi Potency B52 B Complex Tab; Hi Potency Multi Tab; Hi Potency Stress B Tension With C; Hoa 1; Hyporyl - Tab; Innersource Tab; Insur-all Vitamin Supplement; Iron, Vit & Min Supp; L Fac Tab; L.C. Supplement; Lip - Fac Formula; Lipall Plus Tab; Lipo Factors Plus B6; Lipo-B-C Tab; Lipotrope Tab; Lipotrope-plus B6 Tab; Lipotropic Adjunct; Lipotropic Ctr; Lipotropics 600 Tab; Lipovite; Liqui B Complex; Liqui B Complex Plus; Liqui Vita; Liquid B Complex 50; Livertal 36; Low Potency B Complex Tab; Magnum-75 Vitamin and Mineral Supplement; Maintain Multiple Vitamin & Minerals; Mangadyn; Master Key Multi Vitamin Multi Mineral Formula 2; Maximum Once A Day; Maxine Vitamin and Mineral Supplement; Maxum Multi-vite; Mega 13 Multivitamin Formula; Mega Balance; Mega Capsules; Mega Lipotropic Cap; Mega Plex III - Pck; Mega Plex IV - Pck; Mega Vitaminerals; Mega-vim 75 With Beta-carotene - Tablets; Men's 50+; Men's Biomultiple Vitamin and Mineral Supplement; Men's Multi Master Formula; Mini-B Tab; Multi B; Multi Flow Tablets; Multi II IV Vi Tab; Multi Plex I - Tab; Multi Plex II - Tab; Multi Spectrum - Tablet; Multi Tabs; Multi Vitamin-mineral Formula; Multi-force for Adults Tab; Multi-force for Women Tab; Multi-phyto Capsules; Multicaps; Multipack II; Multiple Vitamins and Minerals Capsules; Multitabs; Multivitamin & Minerals (iron Free); Multivitamin & Multimineral; Multivitamine; Multivitamins and Minerals With Betacarotene Tablets; Multivitamins and Minerals for Men; Multivitamins and Minerals for Women; Multivitamins and Minerals for Young Men; Multivitamins and Minerals for Young Women; Multra Plex; Multra With Iron; NESTABS ABC Prenatal Multi-vitamin/Mineral Supplement with DHA/EPA; NESTABS DHA Prenatal Multi-vitamin/Mineral Supplement with DHA/EPA; NESTABS Prenatal Multi-vitamin/Mineral Supplement; Nata Komplete; Natural Source Spectrum With Beta Carotene; New Chapter's D'adamo 4 Your Type Multiple for Type O; Nitro Vites - Tab; Nrg Plus Liq; Nutri-Tab OB; Nutri-Tab OB plus DHA; Olympian Multi Vit Plus Minerals Tab; Onccor; One A Day Multiple Vit W Minerals; One A Day Tab; Only One - Tablet; Orti B; Palm Spring's PM Form Tab; Phytopure; Phytovim Cap; Pour Ma SantÃ©; Pre-Tabs DHA Prenatal Multi-vitamin/Mineral Supplement with DHA/EPA; Prenatal Formula Tab; Prenatal Vi-min; Prenatal, DHA; Prenatrix; Prenatryl; Pretrate; Pro Hers Vanilla; Pro Pcos Citrus; Prometa; Protect Plus SO 60; Proteminal; Red American Eagle Vitamin Supplement Drink; Revit Multi-vitamins and Minerals; Revitalize Multi-vitamin and Mineral Complex; Right Choice P.M. Multi Formula - Caplet; Rocky Mountain Multiple Vit and Min Mega Tab; Senophylline; Sentradine; Sentraflox AM-10; Sentralopram AM-10; Sentravil PM-25; Sentrazolam AM; Sentrazolpidem PM-5; Sentroxatine; Spectrum 2 Cap; Stom #2; Strazepam; Stress B & C Caplet; Stress B Capsules With Vitamin C; Stress B With 1000 Mg Vitamin C; Stress B&c Tab; Stress Ctr Srt; Stress Formula B-comp + 500mg Vit C Tab; Stress Formula Multi-B Comp + 500mg Vit C Cap; Stress Formula Vit B With C Complex; Stress Forte Plus Lipotropic Factors; Stress Vitamin B With C Complex Tablets; Stressmates; Super B Compound W 500mg Vit C; Super Daily No 2; Super Multi; Super Stress Capsules; Super Stress Mega B Plus 1000mg Vit C Tab; Super Vita Vim Multivitamins and Minerals; Super Vita-vim With Beta-carotene - Tab; Super-pote Vitamin Supplement; Swiss One; Swiss One Multi Vit & Chel Min Tab; Swiss One Multivitamin and Mineral Caplet; Swiss One Timed Release Tab; Time Release B 100 Compound - Tablet; Timed Release B Complex 100 Srt; Timed Release B-complex 100; Timed Release B-complex 50; Timed Release Vita-vim Srt; Trazamine; Twin G.F. Powder; Twin G.F. Powder Vanilla Flavor; Twin Opti Pwr; Ultimate Tab; Ultr F/b E.S. Mega Lipotropic Fmla W B6bet; Ultra Hr; Usana Megavitamin Tablets - Tab; V-Natal; VITAFOL Gummies; Vasula Tab; Vege 1 Daily Tab; Vege Swiss One Multivitamin W Chel Mins Tab; Vit B Complex Ctr; Vit-HA Multi Vitamin and Zinc Supplement; Vita B Complex Tab; Vita Balance 2000; Vita Plex Tab; Vita Vim Multivitamins and Minerals Tab; Vita Vim With Beta Carotene-caplet; Vita-B; Vita-vim - Tab; Vita-vim With Beta-carotene - Tab; Vita-worth B-complex Tablets; Vitalife - Capsule; Vitamin & Mineral Formula 1 Dietary Supplement; Vitamin B + C Cap; Vitamin B Complex 100 Tab; Vitamin B Complex 50; Vitamin B Complex Suppl; Vitamin B Complex W C Tab; Vitamin B Compound W C Tab 500mg; Vitamin B Compound W Vit C 250mg Tab; Vitamin B Tablets; Vitaphil 90 DHA; Vitaphil DHA; Vitaplex; Wellness Formula; Women's Biomultiple Vitamin and Mineral Supplement; Women's Formula

> <SALTS>
Choline bitartrate

$$$$
