1226
  Mrv0541 02231215202D          

 74 79  0  0  1  0            999 V2000
    8.4681    1.4290    0.0000 O   0  0  0  0  0  0  0  0  0  0  0  0
   14.2432   -1.4290    0.0000 O   0  0  0  0  0  0  0  0  0  0  0  0
    2.3661    3.2904    0.0000 O   0  0  0  0  0  0  0  0  0  0  0  0
   20.3451   -3.2904    0.0000 O   0  0  0  0  0  0  0  0  0  0  0  0
    2.3661    1.6005    0.0000 O   0  0  0  0  0  0  0  0  0  0  0  0
   20.3451   -1.6005    0.0000 O   0  0  0  0  0  0  0  0  0  0  0  0
    3.8495    6.5705    0.0000 O   0  0  0  0  0  0  0  0  0  0  0  0
   18.8617   -6.5705    0.0000 O   0  0  0  0  0  0  0  0  0  0  0  0
    2.4206    4.0955    0.0000 O   0  0  0  0  0  0  0  0  0  0  0  0
   20.2907   -4.0955    0.0000 O   0  0  0  0  0  0  0  0  0  0  0  0
    2.4206    5.7455    0.0000 O   0  0  0  0  0  0  0  0  0  0  0  0
   20.2907   -5.7455    0.0000 O   0  0  0  0  0  0  0  0  0  0  0  0
    9.7056    2.1435    0.0000 O   0  0  0  0  0  0  0  0  0  0  0  0
   13.0057   -2.1435    0.0000 O   0  0  0  0  0  0  0  0  0  0  0  0
    5.9930    2.8579    0.0000 N   0  3  0  0  0  0  0  0  0  0  0  0
   16.7183   -2.8579    0.0000 N   0  3  0  0  0  0  0  0  0  0  0  0
    5.2785    3.2705    0.0000 C   0  0  1  0  0  0  0  0  0  0  0  0
   17.4327   -3.2705    0.0000 C   0  0  1  0  0  0  0  0  0  0  0  0
    5.9930    2.0329    0.0000 C   0  0  0  0  0  0  0  0  0  0  0  0
   16.7183   -2.0329    0.0000 C   0  0  0  0  0  0  0  0  0  0  0  0
    6.8180    2.8579    0.0000 C   0  0  0  0  0  0  0  0  0  0  0  0
   15.8932   -2.8579    0.0000 C   0  0  0  0  0  0  0  0  0  0  0  0
    4.5640    2.8579    0.0000 C   0  0  0  0  0  0  0  0  0  0  0  0
   18.1472   -2.8579    0.0000 C   0  0  0  0  0  0  0  0  0  0  0  0
    5.2785    1.6204    0.0000 C   0  0  0  0  0  0  0  0  0  0  0  0
   17.4327   -1.6204    0.0000 C   0  0  0  0  0  0  0  0  0  0  0  0
    6.4055    3.5724    0.0000 C   0  0  0  0  0  0  0  0  0  0  0  0
   16.3057   -3.5724    0.0000 C   0  0  0  0  0  0  0  0  0  0  0  0
    5.2785    4.0955    0.0000 C   0  0  0  0  0  0  0  0  0  0  0  0
   17.4327   -4.0955    0.0000 C   0  0  0  0  0  0  0  0  0  0  0  0
    4.5640    2.0329    0.0000 C   0  0  0  0  0  0  0  0  0  0  0  0
   18.1472   -2.0329    0.0000 C   0  0  0  0  0  0  0  0  0  0  0  0
    7.2305    2.1435    0.0000 C   0  0  0  0  0  0  0  0  0  0  0  0
   15.4807   -2.1435    0.0000 C   0  0  0  0  0  0  0  0  0  0  0  0
    3.8265    3.2991    0.0000 C   0  0  0  0  0  0  0  0  0  0  0  0
   18.8847   -3.2991    0.0000 C   0  0  0  0  0  0  0  0  0  0  0  0
    4.5640    4.5080    0.0000 C   0  0  0  0  0  0  0  0  0  0  0  0
   18.1472   -4.5080    0.0000 C   0  0  0  0  0  0  0  0  0  0  0  0
    3.8265    1.5918    0.0000 C   0  0  0  0  0  0  0  0  0  0  0  0
   18.8847   -1.5918    0.0000 C   0  0  0  0  0  0  0  0  0  0  0  0
    8.0556    2.1435    0.0000 C   0  0  0  0  0  0  0  0  0  0  0  0
   14.6557   -2.1435    0.0000 C   0  0  0  0  0  0  0  0  0  0  0  0
    3.0790    2.8751    0.0000 C   0  0  0  0  0  0  0  0  0  0  0  0
   19.6323   -2.8751    0.0000 C   0  0  0  0  0  0  0  0  0  0  0  0
    3.0790    2.0158    0.0000 C   0  0  0  0  0  0  0  0  0  0  0  0
   19.6323   -2.0158    0.0000 C   0  0  0  0  0  0  0  0  0  0  0  0
    3.8495    4.0955    0.0000 C   0  0  0  0  0  0  0  0  0  0  0  0
   18.8617   -4.0955    0.0000 C   0  0  0  0  0  0  0  0  0  0  0  0
    4.5640    5.3330    0.0000 C   0  0  0  0  0  0  0  0  0  0  0  0
   18.1472   -5.3330    0.0000 C   0  0  0  0  0  0  0  0  0  0  0  0
    3.8495    5.7455    0.0000 C   0  0  0  0  0  0  0  0  0  0  0  0
   18.8617   -5.7455    0.0000 C   0  0  0  0  0  0  0  0  0  0  0  0
    3.1351    4.5080    0.0000 C   0  0  0  0  0  0  0  0  0  0  0  0
   19.5762   -4.5080    0.0000 C   0  0  0  0  0  0  0  0  0  0  0  0
    3.1351    5.3330    0.0000 C   0  0  0  0  0  0  0  0  0  0  0  0
   19.5762   -5.3330    0.0000 C   0  0  0  0  0  0  0  0  0  0  0  0
    9.2931    1.4290    0.0000 C   0  0  0  0  0  0  0  0  0  0  0  0
   13.4182   -1.4290    0.0000 C   0  0  0  0  0  0  0  0  0  0  0  0
    1.6500    2.8806    0.0000 C   0  0  0  0  0  0  0  0  0  0  0  0
   21.0612   -2.8806    0.0000 C   0  0  0  0  0  0  0  0  0  0  0  0
    2.3693    0.7755    0.0000 C   0  0  0  0  0  0  0  0  0  0  0  0
   20.3420   -0.7755    0.0000 C   0  0  0  0  0  0  0  0  0  0  0  0
    9.7056    0.7145    0.0000 C   0  0  0  0  0  0  0  0  0  0  0  0
   13.0057   -0.7145    0.0000 C   0  0  0  0  0  0  0  0  0  0  0  0
   10.5306    0.7145    0.0000 C   0  0  0  0  0  0  0  0  0  0  0  0
   12.1807   -0.7145    0.0000 C   0  0  0  0  0  0  0  0  0  0  0  0
    4.5640    6.9830    0.0000 C   0  0  0  0  0  0  0  0  0  0  0  0
   18.1472   -6.9830    0.0000 C   0  0  0  0  0  0  0  0  0  0  0  0
    1.7061    4.5080    0.0000 C   0  0  0  0  0  0  0  0  0  0  0  0
   21.0052   -4.5080    0.0000 C   0  0  0  0  0  0  0  0  0  0  0  0
    2.4206    6.5705    0.0000 C   0  0  0  0  0  0  0  0  0  0  0  0
   20.2907   -6.5705    0.0000 C   0  0  0  0  0  0  0  0  0  0  0  0
   10.9431    0.0000    0.0000 C   0  0  0  0  0  0  0  0  0  0  0  0
   11.7681    0.0000    0.0000 C   0  0  0  0  0  0  0  0  0  0  0  0
  1 41  1  0  0  0  0
  1 57  1  0  0  0  0
  2 42  1  0  0  0  0
  2 58  1  0  0  0  0
  3 43  1  0  0  0  0
  3 59  1  0  0  0  0
  4 44  1  0  0  0  0
  4 60  1  0  0  0  0
  5 45  1  0  0  0  0
  5 61  1  0  0  0  0
  6 46  1  0  0  0  0
  6 62  1  0  0  0  0
  7 51  1  0  0  0  0
  7 67  1  0  0  0  0
  8 52  1  0  0  0  0
  8 68  1  0  0  0  0
  9 53  1  0  0  0  0
  9 69  1  0  0  0  0
 10 54  1  0  0  0  0
 10 70  1  0  0  0  0
 11 55  1  0  0  0  0
 11 71  1  0  0  0  0
 12 56  1  0  0  0  0
 12 72  1  0  0  0  0
 13 57  2  0  0  0  0
 14 58  2  0  0  0  0
 15 17  1  0  0  0  0
 15 19  1  0  0  0  0
 15 21  1  0  0  0  0
 15 27  1  0  0  0  0
 16 18  1  0  0  0  0
 16 20  1  0  0  0  0
 16 22  1  0  0  0  0
 16 28  1  0  0  0  0
 17 23  1  0  0  0  0
 17 29  1  1  0  0  0
 18 24  1  0  0  0  0
 18 30  1  1  0  0  0
 19 25  1  0  0  0  0
 20 26  1  0  0  0  0
 21 33  1  0  0  0  0
 22 34  1  0  0  0  0
 23 31  1  0  0  0  0
 23 35  2  0  0  0  0
 24 32  1  0  0  0  0
 24 36  2  0  0  0  0
 25 31  1  0  0  0  0
 26 32  1  0  0  0  0
 29 37  1  0  0  0  0
 30 38  1  0  0  0  0
 31 39  2  0  0  0  0
 32 40  2  0  0  0  0
 33 41  1  0  0  0  0
 34 42  1  0  0  0  0
 35 43  1  0  0  0  0
 36 44  1  0  0  0  0
 37 47  2  0  0  0  0
 37 49  1  0  0  0  0
 38 48  2  0  0  0  0
 38 50  1  0  0  0  0
 39 45  1  0  0  0  0
 40 46  1  0  0  0  0
 43 45  2  0  0  0  0
 44 46  2  0  0  0  0
 47 53  1  0  0  0  0
 48 54  1  0  0  0  0
 49 51  2  0  0  0  0
 50 52  2  0  0  0  0
 51 55  1  0  0  0  0
 52 56  1  0  0  0  0
 53 55  2  0  0  0  0
 54 56  2  0  0  0  0
 57 63  1  0  0  0  0
 58 64  1  0  0  0  0
 63 65  1  0  0  0  0
 64 66  1  0  0  0  0
 65 73  1  0  0  0  0
 66 74  1  0  0  0  0
 73 74  2  0  0  0  0
M  CHG  2  15   1  16   1
M  END
> <DATABASE_ID>
DB01226

> <DATABASE_NAME>
drugbank

> <SMILES>
COC1=CC(C[C@@H]2C3=CC(OC)=C(OC)C=C3CC[N+]2(C)CCCOC(=O)CC\C=C\CCC(=O)OCCC[N+]2(C)CCC3=CC(OC)=C(OC)C=C3[C@H]2CC2=CC(OC)=C(OC)C(OC)=C2)=CC(OC)=C1OC

> <INCHI_IDENTIFIER>
InChI=1S/C58H80N2O14/c1-59(25-21-41-35-47(63-3)49(65-5)37-43(41)45(59)29-39-31-51(67-7)57(71-11)52(32-39)68-8)23-17-27-73-55(61)19-15-13-14-16-20-56(62)74-28-18-24-60(2)26-22-42-36-48(64-4)50(66-6)38-44(42)46(60)30-40-33-53(69-9)58(72-12)54(34-40)70-10/h13-14,31-38,45-46H,15-30H2,1-12H3/q+2/b14-13+/t45-,46-,59?,60?/m1/s1

> <INCHI_KEY>
ILVYCEVXHALBSC-OTBYEXOQSA-N

> <FORMULA>
C58H80N2O14

> <MOLECULAR_WEIGHT>
1029.2608

> <EXACT_MASS>
1028.560955278

> <JCHEM_ACCEPTOR_COUNT>
12

> <JCHEM_ATOM_COUNT>
154

> <JCHEM_AVERAGE_NEUTRAL_MICROSPECIES_CHARGE>
2.0000000000169402

> <JCHEM_AVERAGE_POLARIZABILITY>
116.98855407116574

> <JCHEM_BIOAVAILABILITY>
0

> <JCHEM_DONOR_COUNT>
0

> <JCHEM_FORMAL_CHARGE>
2

> <JCHEM_GHOSE_FILTER>
0

> <JCHEM_IUPAC>
(1R)-2-(3-{[(4E)-8-{3-[(1R)-6,7-dimethoxy-2-methyl-1-[(3,4,5-trimethoxyphenyl)methyl]-1,2,3,4-tetrahydroisoquinolin-2-ium-2-yl]propoxy}-8-oxooct-4-enoyl]oxy}propyl)-6,7-dimethoxy-2-methyl-1-[(3,4,5-trimethoxyphenyl)methyl]-1,2,3,4-tetrahydroisoquinolin-2-ium

> <ALOGPS_LOGP>
3.80

> <JCHEM_LOGP>
-0.7599931869434924

> <ALOGPS_LOGS>
-7.53

> <JCHEM_MDDR_LIKE_RULE>
1

> <JCHEM_NEUTRAL_CHARGE>
2

> <JCHEM_NUMBER_OF_RINGS>
6

> <JCHEM_PHYSIOLOGICAL_CHARGE>
2

> <JCHEM_PKA>
19.190317149321665

> <JCHEM_PKA_STRONGEST_ACIDIC>
18.5882571579937

> <JCHEM_PKA_STRONGEST_BASIC>
-4.119794035665876

> <JCHEM_POLAR_SURFACE_AREA>
144.90000000000003

> <JCHEM_REFRACTIVITY>
308.7439999999999

> <JCHEM_ROTATABLE_BOND_COUNT>
30

> <JCHEM_RULE_OF_FIVE>
0

> <ALOGPS_SOLUBILITY>
3.26e-05 g/l

> <JCHEM_TRADITIONAL_IUPAC>
tetrahydrofolic acid

> <JCHEM_VEBER_RULE>
0

> <DRUGBANK_ID>
DB01226

> <SECONDARY_ACCESSION_NUMBERS>
APRD01119

> <DRUG_GROUPS>
approved

> <GENERIC_NAME>
Mivacurium

> <SYNONYMS>
Mivacurium

> <PRODUCTS>
Mivacron; Mivacurium Chloride

> <SALTS>
Mivacurium chloride

$$$$
