1227
  Mrv0541 02231215202D          

 26 27  0  0  1  0            999 V2000
    5.8950   -0.7144    0.0000 O   0  0  0  0  0  0  0  0  0  0  0  0
    7.1325    0.0000    0.0000 O   0  0  0  0  0  0  0  0  0  0  0  0
    2.4253   -0.2482    0.0000 N   0  0  0  0  0  0  0  0  0  0  0  0
    4.6575    0.0000    0.0000 C   0  0  0  0  0  0  0  0  0  0  0  0
    3.8325    0.0000    0.0000 C   0  0  0  0  0  0  0  0  0  0  0  0
    5.4825    0.0000    0.0000 C   0  0  2  0  0  0  0  0  0  0  0  0
    3.0572    0.2822    0.0000 C   0  0  2  0  0  0  0  0  0  0  0  0
    4.6575    0.8250    0.0000 C   0  0  0  0  0  0  0  0  0  0  0  0
    4.6575   -0.8250    0.0000 C   0  0  0  0  0  0  0  0  0  0  0  0
    5.8950    0.7144    0.0000 C   0  0  0  0  0  0  0  0  0  0  0  0
    2.9140    1.0946    0.0000 C   0  0  0  0  0  0  0  0  0  0  0  0
    3.9430    1.2375    0.0000 C   0  0  0  0  0  0  0  0  0  0  0  0
    5.3720   -1.2375    0.0000 C   0  0  0  0  0  0  0  0  0  0  0  0
    5.3720    1.2375    0.0000 C   0  0  0  0  0  0  0  0  0  0  0  0
    3.9430   -1.2375    0.0000 C   0  0  0  0  0  0  0  0  0  0  0  0
    6.7200    0.7144    0.0000 C   0  0  0  0  0  0  0  0  0  0  0  0
    1.6500    0.0341    0.0000 C   0  0  0  0  0  0  0  0  0  0  0  0
    2.5685   -1.0605    0.0000 C   0  0  0  0  0  0  0  0  0  0  0  0
    3.9430    2.0625    0.0000 C   0  0  0  0  0  0  0  0  0  0  0  0
    5.3720   -2.0625    0.0000 C   0  0  0  0  0  0  0  0  0  0  0  0
    5.3720    2.0625    0.0000 C   0  0  0  0  0  0  0  0  0  0  0  0
    3.9430   -2.0625    0.0000 C   0  0  0  0  0  0  0  0  0  0  0  0
    6.7200   -0.7144    0.0000 C   0  0  0  0  0  0  0  0  0  0  0  0
    4.6575    2.4750    0.0000 C   0  0  0  0  0  0  0  0  0  0  0  0
    4.6575   -2.4750    0.0000 C   0  0  0  0  0  0  0  0  0  0  0  0
    7.1325   -1.4290    0.0000 C   0  0  0  0  0  0  0  0  0  0  0  0
  6  1  1  6  0  0  0
  1 23  1  0  0  0  0
  2 23  2  0  0  0  0
  7  3  1  1  0  0  0
  3 17  1  0  0  0  0
  3 18  1  0  0  0  0
  4  5  1  0  0  0  0
  4  6  1  0  0  0  0
  4  8  1  0  0  0  0
  4  9  1  0  0  0  0
  5  7  1  0  0  0  0
  6 10  1  0  0  0  0
  7 11  1  0  0  0  0
  8 12  2  0  0  0  0
  8 14  1  0  0  0  0
  9 13  2  0  0  0  0
  9 15  1  0  0  0  0
 10 16  1  0  0  0  0
 12 19  1  0  0  0  0
 13 20  1  0  0  0  0
 14 21  2  0  0  0  0
 15 22  2  0  0  0  0
 19 24  2  0  0  0  0
 20 25  2  0  0  0  0
 21 24  1  0  0  0  0
 22 25  1  0  0  0  0
 23 26  1  0  0  0  0
M  END
> <DATABASE_ID>
DB01227

> <DATABASE_NAME>
drugbank

> <SMILES>
CC[C@H](OC(C)=O)C(C[C@H](C)N(C)C)(C1=CC=CC=C1)C1=CC=CC=C1

> <INCHI_IDENTIFIER>
InChI=1S/C23H31NO2/c1-6-22(26-19(3)25)23(17-18(2)24(4)5,20-13-9-7-10-14-20)21-15-11-8-12-16-21/h7-16,18,22H,6,17H2,1-5H3/t18-,22-/m0/s1

> <INCHI_KEY>
XBMIVRRWGCYBTQ-AVRDEDQJSA-N

> <FORMULA>
C23H31NO2

> <MOLECULAR_WEIGHT>
353.4977

> <EXACT_MASS>
353.235479241

> <JCHEM_ACCEPTOR_COUNT>
2

> <JCHEM_ATOM_COUNT>
57

> <JCHEM_AVERAGE_NEUTRAL_MICROSPECIES_CHARGE>
0.998651272573234

> <JCHEM_AVERAGE_POLARIZABILITY>
40.532265378475486

> <JCHEM_BIOAVAILABILITY>
1

> <JCHEM_DONOR_COUNT>
0

> <JCHEM_FORMAL_CHARGE>
0

> <JCHEM_GHOSE_FILTER>
1

> <JCHEM_IUPAC>
(3S,6S)-6-(dimethylamino)-4,4-diphenylheptan-3-yl acetate

> <ALOGPS_LOGP>
4.78

> <JCHEM_LOGP>
4.884769339999999

> <ALOGPS_LOGS>
-5.30

> <JCHEM_MDDR_LIKE_RULE>
0

> <JCHEM_NEUTRAL_CHARGE>
1

> <JCHEM_NUMBER_OF_RINGS>
2

> <JCHEM_PHYSIOLOGICAL_CHARGE>
1

> <JCHEM_PKA_STRONGEST_BASIC>
9.869489670661055

> <JCHEM_POLAR_SURFACE_AREA>
29.54

> <JCHEM_REFRACTIVITY>
117.85760000000002

> <JCHEM_ROTATABLE_BOND_COUNT>
9

> <JCHEM_RULE_OF_FIVE>
1

> <ALOGPS_SOLUBILITY>
1.79e-03 g/l

> <JCHEM_TRADITIONAL_IUPAC>
biotin

> <JCHEM_VEBER_RULE>
1

> <DRUGBANK_ID>
DB01227

> <SECONDARY_ACCESSION_NUMBERS>
APRD00745

> <DRUG_GROUPS>
approved; investigational; withdrawn

> <GENERIC_NAME>
Levacetylmethadol

> <SYNONYMS>
(-)-alpha-Acetylmethadol; (1S,4S)-4-(dimethylamino)-1-ethyl-2,2-diphenylpentyl acetate; 1-alpha-Acetylmethadol; LAAM; Levacetilmetadol; Levacetylmethadol; Levacetylmethadolum; Levo-alpha-acetylmethadol; Levo-methadyl acetate; Levo-Î±-acetylmethadol; Levomethadyl; Levomethadyl acetate

> <INTERNATIONAL_BRANDS>
Orlaam

> <SALTS>
Levacetylmethadol hydrochloride

$$$$
