1259
  Mrv0541 02231215212D          

 40 44  0  0  0  0            999 V2000
   10.2164   -1.8725    0.0000 Cl  0  0  0  0  0  0  0  0  0  0  0  0
    2.4037   -1.9531    0.0000 S   0  0  0  0  0  0  0  0  0  0  0  0
   13.7743   -3.1512    0.0000 F   0  0  0  0  0  0  0  0  0  0  0  0
    5.8584    0.6520    0.0000 O   0  0  0  0  0  0  0  0  0  0  0  0
    3.1574   -2.2886    0.0000 O   0  0  0  0  0  0  0  0  0  0  0  0
    1.6500   -1.6174    0.0000 O   0  0  0  0  0  0  0  0  0  0  0  0
   11.6548   -1.0640    0.0000 O   0  0  0  0  0  0  0  0  0  0  0  0
    3.8953   -0.3594    0.0000 N   0  0  0  0  0  0  0  0  0  0  0  0
    8.8161    0.6190    0.0000 N   0  0  0  0  0  0  0  0  0  0  0  0
    8.8256    3.1512    0.0000 N   0  0  0  0  0  0  0  0  0  0  0  0
    9.5732    1.8679    0.0000 N   0  0  0  0  0  0  0  0  0  0  0  0
    3.5598   -1.1131    0.0000 C   0  0  0  0  0  0  0  0  0  0  0  0
    2.7393   -1.1993    0.0000 C   0  0  0  0  0  0  0  0  0  0  0  0
    4.7159   -0.2732    0.0000 C   0  0  0  0  0  0  0  0  0  0  0  0
    5.0514    0.4805    0.0000 C   0  0  0  0  0  0  0  0  0  0  0  0
    6.6591    1.8851    0.0000 C   0  0  0  0  0  0  0  0  0  0  0  0
    5.9447    1.4726    0.0000 C   0  0  0  0  0  0  0  0  0  0  0  0
    8.0881    1.8851    0.0000 C   0  0  0  0  0  0  0  0  0  0  0  0
    7.3736    1.4726    0.0000 C   0  0  0  0  0  0  0  0  0  0  0  0
    4.6389    1.1950    0.0000 C   0  0  0  0  0  0  0  0  0  0  0  0
    5.1909    1.8081    0.0000 C   0  0  0  0  0  0  0  0  0  0  0  0
    8.0881    2.7101    0.0000 C   0  0  0  0  0  0  0  0  0  0  0  0
    6.6591    2.7101    0.0000 C   0  0  0  0  0  0  0  0  0  0  0  0
    8.8256    1.4439    0.0000 C   0  0  0  0  0  0  0  0  0  0  0  0
    2.0682   -2.7067    0.0000 C   0  0  0  0  0  0  0  0  0  0  0  0
    7.3736    3.1226    0.0000 C   0  0  0  0  0  0  0  0  0  0  0  0
    9.5257    0.1983    0.0000 C   0  0  0  0  0  0  0  0  0  0  0  0
    9.5732    2.7273    0.0000 C   0  0  0  0  0  0  0  0  0  0  0  0
    9.5163   -0.6267    0.0000 C   0  0  0  0  0  0  0  0  0  0  0  0
   10.2450    0.6024    0.0000 C   0  0  0  0  0  0  0  0  0  0  0  0
   10.9451   -0.6433    0.0000 C   0  0  0  0  0  0  0  0  0  0  0  0
   10.2259   -1.0474    0.0000 C   0  0  0  0  0  0  0  0  0  0  0  0
   10.9547    0.1818    0.0000 C   0  0  0  0  0  0  0  0  0  0  0  0
   12.3740   -0.6598    0.0000 C   0  0  0  0  0  0  0  0  0  0  0  0
   13.0836   -1.0805    0.0000 C   0  0  0  0  0  0  0  0  0  0  0  0
   13.0741   -1.9055    0.0000 C   0  0  0  0  0  0  0  0  0  0  0  0
   13.8029   -0.6763    0.0000 C   0  0  0  0  0  0  0  0  0  0  0  0
   13.7837   -2.3262    0.0000 C   0  0  0  0  0  0  0  0  0  0  0  0
   14.5125   -1.0970    0.0000 C   0  0  0  0  0  0  0  0  0  0  0  0
   14.5030   -1.9220    0.0000 C   0  0  0  0  0  0  0  0  0  0  0  0
  1 32  1  0  0  0  0
  2  5  2  0  0  0  0
  2  6  2  0  0  0  0
  2 13  1  0  0  0  0
  2 25  1  0  0  0  0
  3 38  1  0  0  0  0
  4 15  1  0  0  0  0
  4 17  1  0  0  0  0
  7 31  1  0  0  0  0
  7 34  1  0  0  0  0
  8 12  1  0  0  0  0
  8 14  1  0  0  0  0
  9 24  1  0  0  0  0
  9 27  1  0  0  0  0
 10 22  1  0  0  0  0
 10 28  2  0  0  0  0
 11 24  2  0  0  0  0
 11 28  1  0  0  0  0
 12 13  1  0  0  0  0
 14 15  1  0  0  0  0
 15 20  2  0  0  0  0
 16 17  1  0  0  0  0
 16 19  2  0  0  0  0
 16 23  1  0  0  0  0
 17 21  2  0  0  0  0
 18 19  1  0  0  0  0
 18 22  2  0  0  0  0
 18 24  1  0  0  0  0
 20 21  1  0  0  0  0
 22 26  1  0  0  0  0
 23 26  2  0  0  0  0
 27 29  2  0  0  0  0
 27 30  1  0  0  0  0
 29 32  1  0  0  0  0
 30 33  2  0  0  0  0
 31 32  2  0  0  0  0
 31 33  1  0  0  0  0
 34 35  1  0  0  0  0
 35 36  2  0  0  0  0
 35 37  1  0  0  0  0
 36 38  1  0  0  0  0
 37 39  2  0  0  0  0
 38 40  2  0  0  0  0
 39 40  1  0  0  0  0
M  END
> <DATABASE_ID>
DB01259

> <DATABASE_NAME>
drugbank

> <SMILES>
CS(=O)(=O)CCNCC1=CC=C(O1)C1=CC2=C(C=C1)N=CN=C2NC1=CC(Cl)=C(OCC2=CC(F)=CC=C2)C=C1

> <INCHI_IDENTIFIER>
InChI=1S/C29H26ClFN4O4S/c1-40(36,37)12-11-32-16-23-7-10-27(39-23)20-5-8-26-24(14-20)29(34-18-33-26)35-22-6-9-28(25(30)15-22)38-17-19-3-2-4-21(31)13-19/h2-10,13-15,18,32H,11-12,16-17H2,1H3,(H,33,34,35)

> <INCHI_KEY>
BCFGMOOMADDAQU-UHFFFAOYSA-N

> <FORMULA>
C29H26ClFN4O4S

> <MOLECULAR_WEIGHT>
581.058

> <EXACT_MASS>
580.134731942

> <JCHEM_ACCEPTOR_COUNT>
7

> <JCHEM_ATOM_COUNT>
66

> <JCHEM_AVERAGE_NEUTRAL_MICROSPECIES_CHARGE>
0.6480967061058637

> <JCHEM_AVERAGE_POLARIZABILITY>
61.18680631374861

> <JCHEM_BIOAVAILABILITY>
0

> <JCHEM_DONOR_COUNT>
2

> <JCHEM_FORMAL_CHARGE>
0

> <JCHEM_GHOSE_FILTER>
0

> <JCHEM_IUPAC>
N-{3-chloro-4-[(3-fluorophenyl)methoxy]phenyl}-6-(5-{[(2-methanesulfonylethyl)amino]methyl}furan-2-yl)quinazolin-4-amine

> <ALOGPS_LOGP>
5.18

> <JCHEM_LOGP>
4.6385087983333335

> <ALOGPS_LOGS>
-4.42

> <JCHEM_MDDR_LIKE_RULE>
1

> <JCHEM_NEUTRAL_CHARGE>
1

> <JCHEM_NUMBER_OF_RINGS>
5

> <JCHEM_PHYSIOLOGICAL_CHARGE>
1

> <JCHEM_PKA_STRONGEST_ACIDIC>
16.436491865676707

> <JCHEM_PKA_STRONGEST_BASIC>
7.262927927247154

> <JCHEM_POLAR_SURFACE_AREA>
106.35000000000001

> <JCHEM_REFRACTIVITY>
152.41719999999998

> <JCHEM_ROTATABLE_BOND_COUNT>
11

> <JCHEM_RULE_OF_FIVE>
0

> <ALOGPS_SOLUBILITY>
2.23e-02 g/l

> <JCHEM_TRADITIONAL_IUPAC>
biotin

> <JCHEM_VEBER_RULE>
0

> <DRUGBANK_ID>
DB01259

> <SECONDARY_ACCESSION_NUMBERS>
DB02584

> <DRUG_GROUPS>
approved; investigational

> <GENERIC_NAME>
Lapatinib

> <SYNONYMS>
Lapatinib; N-(3-chloro-4-((3-fluorophenyl)methoxy)phenyl)-6-(5-(((2-(methylsulfonyl)ethyl)amino)methyl)-2-furanyl)-4-quinazolinamine

> <PRODUCTS>
Lapatinib; Tykerb; Tyverb

> <SALTS>
Lapatinib ditosylate

$$$$
