1262
  Mrv0541 02231215212D          

 16 17  0  0  1  0            999 V2000
    3.7464   -1.1305    0.0000 O   0  0  0  0  0  0  0  0  0  0  0  0
    2.1816   -2.5826    0.0000 O   0  0  0  0  0  0  0  0  0  0  0  0
    4.7969   -2.4964    0.0000 O   0  0  0  0  0  0  0  0  0  0  0  0
    1.6500    0.1794    0.0000 O   0  0  0  0  0  0  0  0  0  0  0  0
    3.0790    0.1794    0.0000 N   0  0  0  0  0  0  0  0  0  0  0  0
    2.3645    1.4169    0.0000 N   0  0  0  0  0  0  0  0  0  0  0  0
    3.7935    1.4169    0.0000 N   0  0  0  0  0  0  0  0  0  0  0  0
    3.0790    2.6545    0.0000 N   0  0  0  0  0  0  0  0  0  0  0  0
    2.6665   -1.9152    0.0000 C   0  0  1  0  0  0  0  0  0  0  0  0
    2.4115   -1.1305    0.0000 C   0  0  0  0  0  0  0  0  0  0  0  0
    3.4915   -1.9152    0.0000 C   0  0  1  0  0  0  0  0  0  0  0  0
    3.0790   -0.6456    0.0000 C   0  0  1  0  0  0  0  0  0  0  0  0
    3.9764   -2.5826    0.0000 C   0  0  0  0  0  0  0  0  0  0  0  0
    2.3645    0.5919    0.0000 C   0  0  0  0  0  0  0  0  0  0  0  0
    3.7935    0.5919    0.0000 C   0  0  0  0  0  0  0  0  0  0  0  0
    3.0790    1.8294    0.0000 C   0  0  0  0  0  0  0  0  0  0  0  0
  1 11  1  0  0  0  0
  1 12  1  0  0  0  0
  9  2  1  1  0  0  0
  3 13  1  0  0  0  0
  4 14  2  0  0  0  0
 12  5  1  6  0  0  0
  5 14  1  0  0  0  0
  5 15  1  0  0  0  0
  6 14  1  0  0  0  0
  6 16  2  0  0  0  0
  7 15  2  0  0  0  0
  7 16  1  0  0  0  0
  8 16  1  0  0  0  0
  9 10  1  0  0  0  0
  9 11  1  0  0  0  0
 10 12  1  0  0  0  0
 11 13  1  6  0  0  0
M  END
> <DATABASE_ID>
DB01262

> <DATABASE_NAME>
drugbank

> <SMILES>
NC1=NC(=O)N(C=N1)[C@H]1C[C@H](O)[C@@H](CO)O1

> <INCHI_IDENTIFIER>
InChI=1S/C8H12N4O4/c9-7-10-3-12(8(15)11-7)6-1-4(14)5(2-13)16-6/h3-6,13-14H,1-2H2,(H2,9,11,15)/t4-,5+,6+/m0/s1

> <INCHI_KEY>
XAUDJQYHKZQPEU-KVQBGUIXSA-N

> <FORMULA>
C8H12N4O4

> <MOLECULAR_WEIGHT>
228.2053

> <EXACT_MASS>
228.085854892

> <JCHEM_ACCEPTOR_COUNT>
7

> <JCHEM_ATOM_COUNT>
28

> <JCHEM_AVERAGE_NEUTRAL_MICROSPECIES_CHARGE>
1.1165964517753615e-05

> <JCHEM_AVERAGE_POLARIZABILITY>
21.152792212911585

> <JCHEM_BIOAVAILABILITY>
1

> <JCHEM_DONOR_COUNT>
3

> <JCHEM_FORMAL_CHARGE>
0

> <JCHEM_GHOSE_FILTER>
0

> <JCHEM_IUPAC>
4-amino-1-[(2R,4S,5R)-4-hydroxy-5-(hydroxymethyl)oxolan-2-yl]-1,2-dihydro-1,3,5-triazin-2-one

> <ALOGPS_LOGP>
-1.96

> <JCHEM_LOGP>
-2.1646948889999997

> <ALOGPS_LOGS>
-1.62

> <JCHEM_MDDR_LIKE_RULE>
0

> <JCHEM_NEUTRAL_CHARGE>
0

> <JCHEM_NUMBER_OF_RINGS>
2

> <JCHEM_PHYSIOLOGICAL_CHARGE>
0

> <JCHEM_PKA>
14.787462757393836

> <JCHEM_PKA_STRONGEST_ACIDIC>
13.89482653451755

> <JCHEM_PKA_STRONGEST_BASIC>
2.0930619292819053

> <JCHEM_POLAR_SURFACE_AREA>
120.73999999999998

> <JCHEM_REFRACTIVITY>
50.6825

> <JCHEM_ROTATABLE_BOND_COUNT>
2

> <JCHEM_RULE_OF_FIVE>
1

> <ALOGPS_SOLUBILITY>
5.50e+00 g/l

> <JCHEM_TRADITIONAL_IUPAC>
tetrahydrofolic acid

> <JCHEM_VEBER_RULE>
0

> <DRUGBANK_ID>
DB01262

> <DRUG_GROUPS>
approved; investigational

> <GENERIC_NAME>
Decitabine

> <SYNONYMS>
4-amino-1-(2-deoxy-Î²-D-erythro-pentofuranosyl)-s-triazin-2(1H)-one; 5-aza-2'-deoxycytidine; 5-azadeoxycytidine; DAC; Decitabina; Decitabine

> <PRODUCTS>
Dacogen; Decitabine; Demylocan; Inqovi

$$$$
