127
  Mrv0541 02231214272D          

 14 13  0  0  0  0            999 V2000
    4.9504    0.2063    0.0000 N   0  0  0  0  0  0  0  0  0  0  0  0
    8.5226   -0.2063    0.0000 N   0  0  0  0  0  0  0  0  0  0  0  0
    2.0928    0.2063    0.0000 N   0  0  0  0  0  0  0  0  0  0  0  0
   11.3804   -0.2063    0.0000 N   0  0  0  0  0  0  0  0  0  0  0  0
    6.3793    0.2063    0.0000 C   0  0  0  0  0  0  0  0  0  0  0  0
    7.0938   -0.2063    0.0000 C   0  0  0  0  0  0  0  0  0  0  0  0
    5.6650   -0.2063    0.0000 C   0  0  0  0  0  0  0  0  0  0  0  0
    7.8082    0.2063    0.0000 C   0  0  0  0  0  0  0  0  0  0  0  0
    4.2361   -0.2063    0.0000 C   0  0  0  0  0  0  0  0  0  0  0  0
    9.2371    0.2063    0.0000 C   0  0  0  0  0  0  0  0  0  0  0  0
    3.5217    0.2063    0.0000 C   0  0  0  0  0  0  0  0  0  0  0  0
    9.9515   -0.2063    0.0000 C   0  0  0  0  0  0  0  0  0  0  0  0
    2.8072   -0.2063    0.0000 C   0  0  0  0  0  0  0  0  0  0  0  0
   10.6658    0.2063    0.0000 C   0  0  0  0  0  0  0  0  0  0  0  0
  1  7  1  0  0  0  0
  1  9  1  0  0  0  0
  2  8  1  0  0  0  0
  2 10  1  0  0  0  0
  3 13  1  0  0  0  0
  4 14  1  0  0  0  0
  5  6  1  0  0  0  0
  5  7  1  0  0  0  0
  6  8  1  0  0  0  0
  9 11  1  0  0  0  0
 10 12  1  0  0  0  0
 11 13  1  0  0  0  0
 12 14  1  0  0  0  0
M  END
> <DATABASE_ID>
DB00127

> <DATABASE_NAME>
drugbank

> <SMILES>
NCCCNCCCCNCCCN

> <INCHI_IDENTIFIER>
InChI=1S/C10H26N4/c11-5-3-9-13-7-1-2-8-14-10-4-6-12/h13-14H,1-12H2

> <INCHI_KEY>
PFNFFQXMRSDOHW-UHFFFAOYSA-N

> <FORMULA>
C10H26N4

> <MOLECULAR_WEIGHT>
202.3402

> <EXACT_MASS>
202.215746852

> <JCHEM_ACCEPTOR_COUNT>
4

> <JCHEM_ATOM_COUNT>
40

> <JCHEM_AVERAGE_NEUTRAL_MICROSPECIES_CHARGE>
3.8741949485898255

> <JCHEM_AVERAGE_POLARIZABILITY>
26.694691643339382

> <JCHEM_BIOAVAILABILITY>
1

> <JCHEM_DONOR_COUNT>
4

> <JCHEM_FORMAL_CHARGE>
0

> <JCHEM_GHOSE_FILTER>
0

> <JCHEM_IUPAC>
(3-aminopropyl)({4-[(3-aminopropyl)amino]butyl})amine

> <ALOGPS_LOGP>
-0.66

> <JCHEM_LOGP>
-1.4540076160000006

> <ALOGPS_LOGS>
-1.97

> <JCHEM_MDDR_LIKE_RULE>
0

> <JCHEM_NEUTRAL_CHARGE>
4

> <JCHEM_NUMBER_OF_RINGS>
0

> <JCHEM_PHYSIOLOGICAL_CHARGE>
4

> <JCHEM_PKA_STRONGEST_BASIC>
10.799251803165692

> <JCHEM_POLAR_SURFACE_AREA>
76.1

> <JCHEM_REFRACTIVITY>
62.558200000000014

> <JCHEM_ROTATABLE_BOND_COUNT>
11

> <JCHEM_RULE_OF_FIVE>
1

> <ALOGPS_SOLUBILITY>
2.19e+00 g/l

> <JCHEM_TRADITIONAL_IUPAC>
tetrahydrofolic acid

> <JCHEM_VEBER_RULE>
0

> <DRUGBANK_ID>
DB00127

> <SECONDARY_ACCESSION_NUMBERS>
NUTR00055; EXPT02947; DB02564

> <DRUG_GROUPS>
experimental; nutraceutical

> <GENERIC_NAME>
Spermine

> <SYNONYMS>
4,9-diaza-1,12-dodecanediamine; 4,9-diazadodecane-1,12-diamine; Musculamine; N,N'-Bis(3-aminopropyl)-1,4-butanediamine; Spermina; Spermine

> <SALTS>
Spermine dihydrate

$$$$
