1296
  Mrv0541 02231215222D          

 12 12  0  0  1  0            999 V2000
    4.2365   -0.0784    0.0000 O   0  0  0  0  0  0  0  0  0  0  0  0
    2.0930    1.1592    0.0000 O   0  0  0  0  0  0  0  0  0  0  0  0
    2.0930   -0.4909    0.0000 O   0  0  0  0  0  0  0  0  0  0  0  0
    4.9509    1.1592    0.0000 O   0  0  0  0  0  0  0  0  0  0  0  0
    4.2365   -1.7284    0.0000 O   0  0  0  0  0  0  0  0  0  0  0  0
    3.5220    1.9842    0.0000 N   0  0  0  0  0  0  0  0  0  0  0  0
    2.8075    0.7466    0.0000 C   0  0  1  0  0  0  0  0  0  0  0  0
    2.8075   -0.0784    0.0000 C   0  0  1  0  0  0  0  0  0  0  0  0
    3.5220    1.1592    0.0000 C   0  0  2  0  0  0  0  0  0  0  0  0
    3.5220   -0.4909    0.0000 C   0  0  1  0  0  0  0  0  0  0  0  0
    4.2365    0.7466    0.0000 C   0  0  0  0  0  0  0  0  0  0  0  0
    3.5220   -1.3159    0.0000 C   0  0  0  0  0  0  0  0  0  0  0  0
  1 10  1  0  0  0  0
  1 11  1  0  0  0  0
  7  2  1  6  0  0  0
  8  3  1  1  0  0  0
  4 11  1  0  0  0  0
  5 12  1  0  0  0  0
  9  6  1  1  0  0  0
  7  8  1  0  0  0  0
  7  9  1  0  0  0  0
  8 10  1  0  0  0  0
  9 11  1  0  0  0  0
 10 12  1  6  0  0  0
M  END
> <DATABASE_ID>
DB01296

> <DATABASE_NAME>
drugbank

> <SMILES>
N[C@H]1C(O)O[C@H](CO)[C@@H](O)[C@@H]1O

> <INCHI_IDENTIFIER>
InChI=1S/C6H13NO5/c7-3-5(10)4(9)2(1-8)12-6(3)11/h2-6,8-11H,1,7H2/t2-,3-,4-,5-,6?/m1/s1

> <INCHI_KEY>
MSWZFWKMSRAUBD-IVMDWMLBSA-N

> <FORMULA>
C6H13NO5

> <MOLECULAR_WEIGHT>
179.1711

> <EXACT_MASS>
179.079372531

> <JCHEM_ACCEPTOR_COUNT>
6

> <JCHEM_ATOM_COUNT>
25

> <JCHEM_AVERAGE_NEUTRAL_MICROSPECIES_CHARGE>
0.9443371885114902

> <JCHEM_AVERAGE_POLARIZABILITY>
16.87098422014048

> <JCHEM_BIOAVAILABILITY>
1

> <JCHEM_DONOR_COUNT>
5

> <JCHEM_FORMAL_CHARGE>
0

> <JCHEM_GHOSE_FILTER>
0

> <JCHEM_IUPAC>
(3R,4R,5S,6R)-3-amino-6-(hydroxymethyl)oxane-2,4,5-triol

> <ALOGPS_LOGP>
-2.73

> <JCHEM_LOGP>
-3.0394210146666665

> <ALOGPS_LOGS>
0.49

> <JCHEM_MDDR_LIKE_RULE>
0

> <JCHEM_NEUTRAL_CHARGE>
1

> <JCHEM_NUMBER_OF_RINGS>
1

> <JCHEM_PHYSIOLOGICAL_CHARGE>
1

> <JCHEM_PKA>
12.974072372694078

> <JCHEM_PKA_STRONGEST_ACIDIC>
11.726975176724002

> <JCHEM_PKA_STRONGEST_BASIC>
8.229727434444008

> <JCHEM_POLAR_SURFACE_AREA>
116.17

> <JCHEM_REFRACTIVITY>
37.58090000000001

> <JCHEM_ROTATABLE_BOND_COUNT>
1

> <JCHEM_RULE_OF_FIVE>
1

> <ALOGPS_SOLUBILITY>
5.51e+02 g/l

> <JCHEM_TRADITIONAL_IUPAC>
biotin

> <JCHEM_VEBER_RULE>
0

> <DRUGBANK_ID>
DB01296

> <SECONDARY_ACCESSION_NUMBERS>
EXPT01563

> <DRUG_GROUPS>
approved; investigational

> <GENERIC_NAME>
Glucosamine

> <SYNONYMS>
2-amino-2-deoxy-D-glucose; Chitosamine; D-Glucosamine; Glucosamina; Glucosamine

> <PRODUCTS>
Glucosamine Sulfate, Chondroitin Sulfate, Ibuprofen; Medi-flexx Joint Support Formula; Medi-flexx Rx Joint Support Formula; Remaxazon External Patch; Theraflex Advance; arthronSAN

> <SALTS>
Glucosamine hydrochloride; Glucosamine sulfate; Glucosamine sulfate potassium chloride; Glucosamine sulfate sodium chloride

$$$$
