1348
  Mrv0541 02231215232D          

 31 33  0  0  1  0            999 V2000
    6.6536   -1.7767    0.0000 S   0  0  0  0  0  0  0  0  0  0  0  0
    7.9885   -1.7767    0.0000 S   0  0  0  0  0  0  0  0  0  0  0  0
    6.7592    1.3989    0.0000 O   0  0  0  0  0  0  0  0  0  0  0  0
    9.0390    0.5590    0.0000 O   0  0  0  0  0  0  0  0  0  0  0  0
    7.8829    1.3989    0.0000 O   0  0  0  0  0  0  0  0  0  0  0  0
    2.9922    1.7214    0.0000 O   0  0  0  0  0  0  0  0  0  0  0  0
    4.1483    2.5613    0.0000 O   0  0  0  0  0  0  0  0  0  0  0  0
    6.9086   -0.0222    0.0000 N   0  0  0  0  0  0  0  0  0  0  0  0
    5.1182    1.2265    0.0000 N   0  0  0  0  0  0  0  0  0  0  0  0
    7.3211   -1.2918    0.0000 C   0  0  0  0  0  0  0  0  0  0  0  0
    7.9885   -0.8069    0.0000 C   0  0  0  0  0  0  0  0  0  0  0  0
    7.7336   -0.0222    0.0000 C   0  0  1  0  0  0  0  0  0  0  0  0
    6.6536   -0.8069    0.0000 C   0  0  0  0  0  0  0  0  0  0  0  0
    6.4236    0.6452    0.0000 C   0  0  0  0  0  0  0  0  0  0  0  0
    6.9086   -2.5613    0.0000 C   0  0  0  0  0  0  0  0  0  0  0  0
    7.7336   -2.5613    0.0000 C   0  0  0  0  0  0  0  0  0  0  0  0
    8.2185    0.6452    0.0000 C   0  0  0  0  0  0  0  0  0  0  0  0
    5.6032    0.5590    0.0000 C   0  0  2  0  0  0  0  0  0  0  0  0
    4.2977    1.1402    0.0000 C   0  0  1  0  0  0  0  0  0  0  0  0
    5.2675   -0.1947    0.0000 C   0  0  0  0  0  0  0  0  0  0  0  0
    3.9621    0.3865    0.0000 C   0  0  0  0  0  0  0  0  0  0  0  0
    3.1416    0.3003    0.0000 C   0  0  0  0  0  0  0  0  0  0  0  0
    3.8128    1.8077    0.0000 C   0  0  0  0  0  0  0  0  0  0  0  0
    2.8061   -0.4534    0.0000 C   0  0  0  0  0  0  0  0  0  0  0  0
    1.9856   -0.5396    0.0000 C   0  0  0  0  0  0  0  0  0  0  0  0
    3.2910   -1.1209    0.0000 C   0  0  0  0  0  0  0  0  0  0  0  0
    2.5074    2.3889    0.0000 C   0  0  0  0  0  0  0  0  0  0  0  0
    1.6500   -1.2933    0.0000 C   0  0  0  0  0  0  0  0  0  0  0  0
    2.9554   -1.8745    0.0000 C   0  0  0  0  0  0  0  0  0  0  0  0
    2.1350   -1.9608    0.0000 C   0  0  0  0  0  0  0  0  0  0  0  0
    1.6868    2.3026    0.0000 C   0  0  0  0  0  0  0  0  0  0  0  0
  1 10  1  0  0  0  0
  1 15  1  0  0  0  0
  2 10  1  0  0  0  0
  2 16  1  0  0  0  0
  3 14  2  0  0  0  0
  4 17  1  0  0  0  0
  5 17  2  0  0  0  0
  6 23  1  0  0  0  0
  6 27  1  0  0  0  0
  7 23  2  0  0  0  0
  8 12  1  0  0  0  0
  8 13  1  0  0  0  0
  8 14  1  0  0  0  0
 18  9  1  6  0  0  0
 19  9  1  1  0  0  0
 10 11  1  0  0  0  0
 10 13  1  0  0  0  0
 11 12  1  0  0  0  0
 12 17  1  6  0  0  0
 14 18  1  0  0  0  0
 15 16  1  0  0  0  0
 18 20  1  0  0  0  0
 19 21  1  0  0  0  0
 19 23  1  0  0  0  0
 21 22  1  0  0  0  0
 22 24  1  0  0  0  0
 24 25  2  0  0  0  0
 24 26  1  0  0  0  0
 25 28  1  0  0  0  0
 26 29  2  0  0  0  0
 27 31  1  0  0  0  0
 28 30  2  0  0  0  0
 29 30  1  0  0  0  0
M  END
> <DATABASE_ID>
DB01348

> <DATABASE_NAME>
drugbank

> <SMILES>
CCOC(=O)[C@H](CCC1=CC=CC=C1)N[C@@H](C)C(=O)N1CC2(C[C@H]1C(O)=O)SCCS2

> <INCHI_IDENTIFIER>
InChI=1S/C22H30N2O5S2/c1-3-29-21(28)17(10-9-16-7-5-4-6-8-16)23-15(2)19(25)24-14-22(30-11-12-31-22)13-18(24)20(26)27/h4-8,15,17-18,23H,3,9-14H2,1-2H3,(H,26,27)/t15-,17-,18-/m0/s1

> <INCHI_KEY>
HRWCVUIFMSZDJS-SZMVWBNQSA-N

> <FORMULA>
C22H30N2O5S2

> <MOLECULAR_WEIGHT>
466.614

> <EXACT_MASS>
466.15961346

> <JCHEM_ACCEPTOR_COUNT>
5

> <JCHEM_ATOM_COUNT>
61

> <JCHEM_AVERAGE_NEUTRAL_MICROSPECIES_CHARGE>
-0.9844019399385568

> <JCHEM_AVERAGE_POLARIZABILITY>
48.74005483504798

> <JCHEM_BIOAVAILABILITY>
1

> <JCHEM_DONOR_COUNT>
2

> <JCHEM_FORMAL_CHARGE>
0

> <JCHEM_GHOSE_FILTER>
1

> <JCHEM_IUPAC>
(8S)-7-[(2S)-2-{[(2S)-1-ethoxy-1-oxo-4-phenylbutan-2-yl]amino}propanoyl]-1,4-dithia-7-azaspiro[4.4]nonane-8-carboxylic acid

> <ALOGPS_LOGP>
1.79

> <JCHEM_LOGP>
1.6036345915656902

> <ALOGPS_LOGS>
-4.20

> <JCHEM_MDDR_LIKE_RULE>
1

> <JCHEM_NEUTRAL_CHARGE>
-1

> <JCHEM_NUMBER_OF_RINGS>
3

> <JCHEM_PHYSIOLOGICAL_CHARGE>
-1

> <JCHEM_PKA_STRONGEST_ACIDIC>
3.6249575075648406

> <JCHEM_PKA_STRONGEST_BASIC>
5.199901730998294

> <JCHEM_POLAR_SURFACE_AREA>
95.93999999999998

> <JCHEM_REFRACTIVITY>
121.93960000000001

> <JCHEM_ROTATABLE_BOND_COUNT>
10

> <JCHEM_RULE_OF_FIVE>
1

> <ALOGPS_SOLUBILITY>
2.93e-02 g/l

> <JCHEM_TRADITIONAL_IUPAC>
biotin

> <JCHEM_VEBER_RULE>
0

> <DRUGBANK_ID>
DB01348

> <DRUG_GROUPS>
approved

> <GENERIC_NAME>
Spirapril

> <SYNONYMS>
Espirapril; Spirapril; Spiraprilum

> <INTERNATIONAL_BRANDS>
Renormax

> <SALTS>
Spirapril hydrochloride

$$$$
