1351
  Mrv0541 02231215242D          

 16 16  0  0  0  0            999 V2000
    4.5080   -0.1915    0.0000 O   0  0  0  0  0  0  0  0  0  0  0  0
    1.6500   -0.1915    0.0000 O   0  0  0  0  0  0  0  0  0  0  0  0
    3.0791   -2.6665    0.0000 O   0  0  0  0  0  0  0  0  0  0  0  0
    3.7935   -1.4290    0.0000 N   0  0  0  0  0  0  0  0  0  0  0  0
    2.3645   -1.4290    0.0000 N   0  0  0  0  0  0  0  0  0  0  0  0
    3.0791   -0.1915    0.0000 C   0  0  0  0  0  0  0  0  0  0  0  0
    3.4916    0.5231    0.0000 C   0  0  0  0  0  0  0  0  0  0  0  0
    3.0791    1.2375    0.0000 C   0  0  0  0  0  0  0  0  0  0  0  0
    2.6665    0.5231    0.0000 C   0  0  0  0  0  0  0  0  0  0  0  0
    3.4916    1.9520    0.0000 C   0  0  0  0  0  0  0  0  0  0  0  0
    3.7935   -0.6040    0.0000 C   0  0  0  0  0  0  0  0  0  0  0  0
    2.3645   -0.6040    0.0000 C   0  0  0  0  0  0  0  0  0  0  0  0
    1.8415    0.5231    0.0000 C   0  0  0  0  0  0  0  0  0  0  0  0
    4.3166    1.9520    0.0000 C   0  0  0  0  0  0  0  0  0  0  0  0
    3.0791    2.6665    0.0000 C   0  0  0  0  0  0  0  0  0  0  0  0
    3.0791   -1.8415    0.0000 C   0  0  0  0  0  0  0  0  0  0  0  0
  1 11  2  0  0  0  0
  2 12  2  0  0  0  0
  3 16  2  0  0  0  0
  4 11  1  0  0  0  0
  4 16  1  0  0  0  0
  5 12  1  0  0  0  0
  5 16  1  0  0  0  0
  6  7  1  0  0  0  0
  6  9  1  0  0  0  0
  6 11  1  0  0  0  0
  6 12  1  0  0  0  0
  7  8  1  0  0  0  0
  8 10  1  0  0  0  0
  9 13  1  0  0  0  0
 10 14  1  0  0  0  0
 10 15  1  0  0  0  0
M  END
> <DATABASE_ID>
DB01351

> <DATABASE_NAME>
drugbank

> <SMILES>
CCC1(CCC(C)C)C(=O)NC(=O)NC1=O

> <INCHI_IDENTIFIER>
InChI=1S/C11H18N2O3/c1-4-11(6-5-7(2)3)8(14)12-10(16)13-9(11)15/h7H,4-6H2,1-3H3,(H2,12,13,14,15,16)

> <INCHI_KEY>
VIROVYVQCGLCII-UHFFFAOYSA-N

> <FORMULA>
C11H18N2O3

> <MOLECULAR_WEIGHT>
226.2722

> <EXACT_MASS>
226.131742452

> <JCHEM_ACCEPTOR_COUNT>
3

> <JCHEM_ATOM_COUNT>
34

> <JCHEM_AVERAGE_NEUTRAL_MICROSPECIES_CHARGE>
-0.24686160178076624

> <JCHEM_AVERAGE_POLARIZABILITY>
23.44849042106522

> <JCHEM_BIOAVAILABILITY>
1

> <JCHEM_DONOR_COUNT>
2

> <JCHEM_FORMAL_CHARGE>
0

> <JCHEM_GHOSE_FILTER>
1

> <JCHEM_IUPAC>
5-ethyl-5-(3-methylbutyl)-1,3-diazinane-2,4,6-trione

> <ALOGPS_LOGP>
1.87

> <JCHEM_LOGP>
1.8932512466666667

> <ALOGPS_LOGS>
-2.40

> <JCHEM_MDDR_LIKE_RULE>
0

> <JCHEM_NEUTRAL_CHARGE>
0

> <JCHEM_NUMBER_OF_RINGS>
1

> <JCHEM_PHYSIOLOGICAL_CHARGE>
0

> <JCHEM_PKA>
11.15486149168678

> <JCHEM_PKA_STRONGEST_ACIDIC>
7.484748322088917

> <JCHEM_POLAR_SURFACE_AREA>
75.27

> <JCHEM_REFRACTIVITY>
58.0029

> <JCHEM_ROTATABLE_BOND_COUNT>
4

> <JCHEM_RULE_OF_FIVE>
1

> <ALOGPS_SOLUBILITY>
8.97e-01 g/l

> <JCHEM_TRADITIONAL_IUPAC>
tetrahydrofolic acid

> <JCHEM_VEBER_RULE>
0

> <DRUGBANK_ID>
DB01351

> <DRUG_GROUPS>
approved; illicit

> <GENERIC_NAME>
Amobarbital

> <SYNONYMS>
5-ethyl-5-(3-methylbutyl)-2,4,6(1H,3H,5H)-pyrimidinetrione; 5-ethyl-5-(3-methylbutyl)barbituric acid; 5-ethyl-5-isoamylbarbituric acid; 5-ethyl-5-isopentylbarbituric acid; Amobarbital; Amobarbitale; Amylobarbitone; Barbamil; Barbamyl

> <PRODUCTS>
Amytal Sodium; Amytal Sodium 500mg; Amytal Sodium Cap 60mg; Amytal Sodium Pulvule 222 0.2gm; Tuinal Pulvule 303; Tuinal Pulvule 304

> <INTERNATIONAL_BRANDS>
Amytal; Isomytal

> <SALTS>
Amobarbital sodium

$$$$
