1356
  Mrv0541 02231215242D          

  1  0  0  0  0  0            999 V2000
    2.0000    0.0000    0.0000 Li  0  3  0  0  0  0  0  0  0  0  0  0
M  CHG  1   1   1
M  END
> <DATABASE_ID>
DB01356

> <DATABASE_NAME>
drugbank

> <SMILES>
[Li+]

> <INCHI_IDENTIFIER>
InChI=1S/Li/q+1

> <INCHI_KEY>
HBBGRARXTFLTSG-UHFFFAOYSA-N

> <FORMULA>
Li

> <MOLECULAR_WEIGHT>
6.941

> <EXACT_MASS>
7.016004049

> <JCHEM_ACCEPTOR_COUNT>
0

> <JCHEM_ATOM_COUNT>
1

> <JCHEM_AVERAGE_NEUTRAL_MICROSPECIES_CHARGE>
1.0

> <JCHEM_AVERAGE_POLARIZABILITY>
1.7784

> <JCHEM_BIOAVAILABILITY>
1

> <JCHEM_DONOR_COUNT>
0

> <JCHEM_FORMAL_CHARGE>
1

> <JCHEM_GHOSE_FILTER>
0

> <JCHEM_IUPAC>
lithium(1+) ion

> <JCHEM_LOGP>
0.0

> <JCHEM_MDDR_LIKE_RULE>
0

> <JCHEM_NEUTRAL_CHARGE>
1

> <JCHEM_NUMBER_OF_RINGS>
0

> <JCHEM_PHYSIOLOGICAL_CHARGE>
1

> <JCHEM_PKA>
3.55

> <JCHEM_PKA_STRONGEST_ACIDIC>
3.09

> <JCHEM_POLAR_SURFACE_AREA>
0.0

> <JCHEM_REFRACTIVITY>
0.0

> <JCHEM_ROTATABLE_BOND_COUNT>
0

> <JCHEM_RULE_OF_FIVE>
1

> <JCHEM_TRADITIONAL_IUPAC>
tetrahydrofolic acid

> <JCHEM_VEBER_RULE>
1

> <DRUGBANK_ID>
DB01356

> <DRUG_GROUPS>
experimental

> <GENERIC_NAME>
Lithium cation

> <SYNONYMS>
Li(+); Lithium ion; Lithium, ion; Lithium, ion (li1+)

$$$$
