139
  Mrv0541 02231214282D          

  8  7  0  0  0  0            999 V2000
    2.0928    0.2063    0.0000 O   0  0  0  0  0  0  0  0  0  0  0  0
    5.6650   -0.2063    0.0000 O   0  0  0  0  0  0  0  0  0  0  0  0
    2.8072   -1.0312    0.0000 O   0  0  0  0  0  0  0  0  0  0  0  0
    4.9504    1.0312    0.0000 O   0  0  0  0  0  0  0  0  0  0  0  0
    3.5217    0.2063    0.0000 C   0  0  0  0  0  0  0  0  0  0  0  0
    4.2361   -0.2063    0.0000 C   0  0  0  0  0  0  0  0  0  0  0  0
    2.8072   -0.2063    0.0000 C   0  0  0  0  0  0  0  0  0  0  0  0
    4.9504    0.2063    0.0000 C   0  0  0  0  0  0  0  0  0  0  0  0
  1  7  1  0  0  0  0
  2  8  1  0  0  0  0
  3  7  2  0  0  0  0
  4  8  2  0  0  0  0
  5  6  1  0  0  0  0
  5  7  1  0  0  0  0
  6  8  1  0  0  0  0
M  END
> <DATABASE_ID>
DB00139

> <DATABASE_NAME>
drugbank

> <SMILES>
OC(=O)CCC(O)=O

> <INCHI_IDENTIFIER>
InChI=1S/C4H6O4/c5-3(6)1-2-4(7)8/h1-2H2,(H,5,6)(H,7,8)

> <INCHI_KEY>
KDYFGRWQOYBRFD-UHFFFAOYSA-N

> <FORMULA>
C4H6O4

> <MOLECULAR_WEIGHT>
118.088

> <EXACT_MASS>
118.02660868

> <JCHEM_ACCEPTOR_COUNT>
4

> <JCHEM_ATOM_COUNT>
14

> <JCHEM_AVERAGE_NEUTRAL_MICROSPECIES_CHARGE>
-1.9755799552040574

> <JCHEM_AVERAGE_POLARIZABILITY>
10.141334051490146

> <JCHEM_BIOAVAILABILITY>
1

> <JCHEM_DONOR_COUNT>
2

> <JCHEM_FORMAL_CHARGE>
0

> <JCHEM_GHOSE_FILTER>
0

> <JCHEM_IUPAC>
butanedioic acid

> <ALOGPS_LOGP>
-0.53

> <JCHEM_LOGP>
-0.3984829673333332

> <ALOGPS_LOGS>
0.25

> <JCHEM_MDDR_LIKE_RULE>
0

> <JCHEM_NEUTRAL_CHARGE>
-2

> <JCHEM_NUMBER_OF_RINGS>
0

> <JCHEM_PHYSIOLOGICAL_CHARGE>
-2

> <JCHEM_PKA>
5.6869121792916

> <JCHEM_PKA_STRONGEST_ACIDIC>
3.5541665109763474

> <JCHEM_POLAR_SURFACE_AREA>
74.6

> <JCHEM_REFRACTIVITY>
23.537

> <JCHEM_ROTATABLE_BOND_COUNT>
3

> <JCHEM_RULE_OF_FIVE>
1

> <ALOGPS_SOLUBILITY>
2.11e+02 g/l

> <JCHEM_TRADITIONAL_IUPAC>
tetrahydrofolic acid

> <JCHEM_VEBER_RULE>
0

> <DRUGBANK_ID>
DB00139

> <SECONDARY_ACCESSION_NUMBERS>
NUTR00054

> <DRUG_GROUPS>
approved; nutraceutical

> <GENERIC_NAME>
Succinic acid

> <SYNONYMS>
1,2-ethanedicarboxylic acid; Acide butanedioïque; Acide succinique; Acidum succinicum; Amber acid; Asuccin; Bernsteinsäure; Butandisäure; Butanedioic acid; Butanedionic acid; Dihydrofumaric acid; Ethylenesuccinic acid; Spirit of amber; Succinic acid

> <PRODUCTS>
FeRiva 21 7; Ferrex 150 Forte Plus; Ferrex 150 Plus; Ferrex 28; Iron Aspartate Glycinate and Polysaccharide Complex, Ascorbic Calcium, Vitamin B12, Folic Acid, Calcium Threonate and Succinic Acid; Iron Aspartate, Glycinate, Ascorbic Calcium, Vitamin B12, Calcium Threonate and Succinic Acid; Iron Fumarate and Aspartate, Glycinate, Ascorbic Calcium, Vitamin B12, Folic Acid, Calcium Threonate and Succinic Acid; Irospan 24/6; Niferex; Se-Vate 21/7

$$$$
