1390
  Mrv0541 02231215282D          

  5  3  0  0  0  0            999 V2000
    2.5864    0.8250    0.0000 Na  0  3  0  0  0  0  0  0  0  0  0  0
    0.4429    1.2375    0.0000 O   0  0  0  0  0  0  0  0  0  0  0  0
    1.8719    1.2375    0.0000 O   0  5  0  0  0  0  0  0  0  0  0  0
    1.1575    0.0000    0.0000 O   0  0  0  0  0  0  0  0  0  0  0  0
    1.1575    0.8250    0.0000 C   0  0  0  0  0  0  0  0  0  0  0  0
  2  5  1  0  0  0  0
  3  5  1  0  0  0  0
  4  5  2  0  0  0  0
M  CHG  2   1   1   3  -1
M  END
> <DATABASE_ID>
DB01390

> <DATABASE_NAME>
drugbank

> <SMILES>
[Na+].OC([O-])=O

> <INCHI_IDENTIFIER>
InChI=1S/CH2O3.Na/c2-1(3)4;/h(H2,2,3,4);/q;+1/p-1

> <INCHI_KEY>
UIIMBOGNXHQVGW-UHFFFAOYSA-M

> <FORMULA>
CHNaO3

> <MOLECULAR_WEIGHT>
84.0066

> <EXACT_MASS>
83.982338573

> <JCHEM_ACCEPTOR_COUNT>
3

> <JCHEM_ATOM_COUNT>
6

> <JCHEM_AVERAGE_NEUTRAL_MICROSPECIES_CHARGE>
-1.0006337308913795

> <JCHEM_AVERAGE_POLARIZABILITY>
3.8604671580063

> <JCHEM_BIOAVAILABILITY>
1

> <JCHEM_DONOR_COUNT>
1

> <JCHEM_FORMAL_CHARGE>
0

> <JCHEM_GHOSE_FILTER>
0

> <JCHEM_IUPAC>
sodium hydrogen carbonate

> <ALOGPS_LOGP>
-0.06

> <JCHEM_LOGP>
0.25005136566666664

> <ALOGPS_LOGS>
0.96

> <JCHEM_MDDR_LIKE_RULE>
0

> <JCHEM_NEUTRAL_CHARGE>
-1

> <JCHEM_NUMBER_OF_RINGS>
0

> <JCHEM_PHYSIOLOGICAL_CHARGE>
-1

> <JCHEM_PKA>
10.32259950554

> <JCHEM_PKA_STRONGEST_ACIDIC>
3.501076428435099

> <JCHEM_POLAR_SURFACE_AREA>
60.36

> <JCHEM_REFRACTIVITY>
20.335300000000004

> <JCHEM_ROTATABLE_BOND_COUNT>
0

> <JCHEM_RULE_OF_FIVE>
1

> <ALOGPS_SOLUBILITY>
7.64e+02 g/l

> <JCHEM_TRADITIONAL_IUPAC>
biotin

> <JCHEM_VEBER_RULE>
0

> <DRUGBANK_ID>
DB01390

> <DRUG_GROUPS>
approved

> <GENERIC_NAME>
Sodium bicarbonate

> <SYNONYMS>
Baking soda; Bicarbonate of soda; Carbonic acid monosodium salt; NaHCO3; Natriumhydrogenkarbonat; Sodio bicarbonato; Sodium acid carbonate; Sodium bicarbonate; Sodium hydrogen carbonate; Sodium hydrogencarbonate

> <PRODUCTS>
7.5% Sodium Bicarbonate; 8.4% Sodium Bicarbonate; 800 Sodium Bicarbonate Powder; Adea Gargle; After Bite Advanced; After Bite Kids; After Bite Sensitive; After Bite The Itch Eraser KIDS; After Bite Wipe; After Bite the Itch Eraser; Alka Seltzer; Alka Seltzer Evt; Alka Seltzer Flavoured; Alka Seltzer Original; Alka Seltzer Originial 1s Blister Pack; Alka-Seltzer; Alka-Seltzer Extra Strength; Alka-Seltzer Gold; Alka-Seltzer HEARTBURN; Alka-Seltzer Heartburn; Alka-Seltzer Heartburn Relief Extra Strength; Alka-Seltzer Heartburn Relief Lemon Lime; Alka-Seltzer Lemon Lime; Alka-Seltzer Original; Alka-Seltzer XTRA STRENGTH; Alka-seltzer Flavoured; Alka-seltzer Flavoured - Evt; Alka-seltzer Original; All natural Saline Packets CareOne; Amo Endosol Extra; Anti-Empacho; Aqua De Folli Hair Booster; Aqua De Folli Hair Booster Mini; Aqua De Folli Hair Booster Pro; Arm and Hammer Baking Soda; Assured Bug Bite Relief; Bablab Super Clean Calming Cleansing Balm; Baking Soda USP; Baros Effervescent Granules; Basic Care Omeprazole and Sodium Bicarbonate; BasoSAN; Bc-I Concentrate Pwr; Best Choice Effervescent Antacid Pain Relief; Bi-peglyte; Bibag; Bicarb Hemodial Conc 81.25gm/l; Bicarbolyte Bicar Hemodialysis Conc; Bicarbolyte Bicar Hemodiaylsis Conc; Bicarbonate Chloride D12052; Bicarbonate Conc Mb-330 Pwr 650mg/pck; Bicarbonate Concentrate 4105; Bicarbonate Concentrate B38; Bicarbonate Concentrate D16000; Bicarbonate Concentrate D16001; Bicarbonate Concentrate D17000; Bicarbonate Concentrate D20000; Bicarbonate Concentrate No 4202 Liq; Bicart; Bicart Select Combi-pak; Bicaruvas; Bicavera 1.5% Glucose; Bicavera 2.3% Glucose; Bicavera 4.25% Glucose; Bicavera Forte 1.5% Glucose; Bicavera Forte 2.3% Glucose; Bicavera Forte 4.25% Glucose; Biflexy 1100; Biflexy 750; Biflexy 900; Brioschi Childrens Effervescent Antacid; Brioschi Effervescent Antacid; Brioschi Effervescent Antacid - 1.8gm/6gm; Brioschi Effervescent Antacid Pwr 280.3mg/gm; Bromo Seltzer; Bss Plus; CLIN-LIDO-Single Use Kit; CVS Health Antacid and Pain Reliever; CVS Health Extra Strength Antacid and Pain Reliever; CVS Instant Relief Ready to Use Sinus Wash System; CVS Sinus Wash; Carbicarb Injection; Care One Original Antacid and Pain Relief; Ceo-two; Ceo-two Bowel Evacuant Suppositories; Citrocarbonate Eff Pws; Clenz-Lyte; Colyte; Colyte with flavor packs; Cvs; D12057; DG Health Effervescent Antacid and Pain Relief; De LA Cruz Sodium Bicarbonate Antacid; De La Cruz Desempacho; Dialysis Solution 35 K0; Dialysis Solution 35 K2; Dialysis Solution 35 K4; Dialyte; Dr. Juans Santo Remedio PARA LA ACIDEZ; Drug Mart Effervescent Pain Relief; E-Z-gas 2 Granules; E-Z-gas II; EcoDent Ultimate Essential Mouthcare Sparkling Clean Mint; EcoDent Ultimate Essential Mouthcare Spicy-Cool Cinnamon; Effervescent Antacid and Pain Relief; Effervescent Pain Relief; Effervescent Pain Relief Fast Relief; Effervescent Pain Relief Fast Relief Fast Relief; Electropeg Solution; Elliotts B; Equaline Effervescent Antacid and Pain Relief; Equate Comfort Flow Sinus wash; Equate Effervescent Antacid and Pain Relief; Equate Extra Strength Effervescent Antacid and Pain Relief; Equate Neti Pot Sinus Wash; Equate Omeprazole and Sodium Bicarbonate; Equate Saline Packets; Estomarol; Family Care Effervescent Antacid and Pain Relief; Family Wellness Effervescent Antacid and Pain Relief; Freds Effervescent Antacid Pain Relief; Gastrocote Chewable Tab; GaviLyte - C TM; GaviLyte - N; GaviLyte-H and Bisacodyl; Gavilyte G Tm; Giant Foods Baking Soda; Gingera Effervescent Antacid; GoLYTELY; Golytely Gi Lavage Solution; Good Sense Effervescent Antacid and Pain Relief; Good Sense Omeprazole and Sodium Bicarbonate; Goongsecret Calming Bath Oriental Formula for Babies; H.E.L.P.bicel; HEB Extra Strength Effervescent Antacid and Pain Relief; HalfLytely and Bisacodyl; HalfLytely and Bisacodyl Bowel Prep with Flavor Packs; Hema Bp-38; Hemacart; Hemodialysis Grade Sodium Bicarbonate Solution; Hemodialysis Sodium Bicarbonate; Humco Sodium Bicarbonate; HyVee Health Effervescent Antacid and Pain Relief; Infant 4.2% Sodium Bicarbonate; Inon; Jamp-electropeg; Jamp-electropeg With Flavour Packet; Jamplyte; Jamplyte 280; Kettle Neti Pot; Klean-prep; Kroger Effervescent Antacid and Pain Relief; Leader Effervescent Antacid and Pain Relief; Leader Extra Strength Effervescent Antacid and Pain Reliever; Leader Sinus Wash Saline Refill Packets; Life Q; Lyteprep; Market Basket Effervescent Antacid and Pain Relief; Medique Medi Seltzer; Medis Sodium Bicarbonate; Meijer Effervescent Antacid and Pain Relief; Naturalyte Dry Pack for Bicarbonate Dialysis; Naturalyte Sodium Bicarbonate Liquid Concentrate; Navstel; Neut; Neut Sodium Bicarbonate; Neutra-seltzer; Normo Gastryl; Normocarb 25; Normocarb 35; Not Applicable; NuLYTELY; NuLYTELY With Flavor Packs; Ocl Solution; Ohta's Isan Stomach Powder; Ohtas Isan Antacid; Omeprazole Sodium Bicarbonate; Omeprazole and Sodium Bicarbonate; Omeprazole and Sodium Bicrabonate; Omeprazole and sodium bicarbonate; Omeprazole, Sodium Bicarbonate, Magnesium Hydroxide; Omeprazole, Sodium bicarbonate; Omeprazole/Bicarbonate; Omeprazole/Sodium Bicarbonate; Omeprazole/sodium Bicarbonate; Ora Rinse Liq; PEG-3350 and Electrolytes; PEG-3350, sodium chloride, sodium bicarbonate and potassium chloride; PMS-peglyte; POLYETHYLENE GLYCOL 3350, SODIUM CHLORIDE, SODIUM BICARBONATE and POTASSIUM CHLORIDE; Pain Relief Fast Relief; Pediatric 8.4% Sodium Bicarbonate; Peg-3350; Peglyte Powder; Peglyte Solution; Pepsotol; Phoxillum B22k4/0; Phoxillum Bk4/2.5; Physioneal 40 Glucose 1.36% W/V 13.6mg/ml Clear-flex; Physioneal 40 Glucose 1.36% W/V 13.6mg/ml Solution for Peritoneal Dialysis; Physioneal 40 Glucose 2.27% W/V 22.7 mg/ml Clear-flex; Physioneal 40 Glucose 2.27% W/V 22.7 mg/ml, Solution for Peritoneal Dialysis; Physioneal 40 Glucose 3.86% W/V 38.6 mg/ml Clear-flex; Physioneal 40 Glucose 3.86% W/V 38.6mg/ml, Solution for Peritoneal Dialysis; Picot Plus Effervescent; Pleo Alkala Antacid; Polyethylene Glycol 3350 and Electrolytes; Polyethylene Glycol 3350 and electrolytes - Unflavored; Polyethylene Glycol 3350 and electrolytes with Lemon Flavor; Polyethylene Glycol 3350 and electrolyteswith Orange Flavor; Polyethylene Glycol 3350, Sodium Chloride, Sodium Bicarbonate and Potassium Chloride - Unflavored; Polyethylene Glycol 3350, Sodium Chloride, Sodium Bicarbonate and Potassium Chloride with Lemon Flavor; Polyethylene Glycol 3350, Sodium Chloride, Sodium Bicarbonate and Potassium Chloride with Orange Flavor; Polyethylene Glycol-3350 and Electrolytes; Polyethylene Glycol-3350 and Electrolytes with Flavor Pack; Polyethylene Glycol-3350, Sodium Chloride, Potassium Chloride and Sodium Bicarbonate; Premier Value Antacid and Pain Relief Medicine; Premier Value Sodium Bicarbonate; Prism0cal; Prism0cal B22k0/0; PrismaSol; Prismasol 0; Prismasol 2; Prismasol 4; Prismasol B22gk4/0; Prismasol Bgk0/2.5; Prismasol Bgk2/0; Prismasol Bgk2/3.5; Prismasol Bgk4/0/1.2; Prismasol Bgk4/2.5; Prismasol Bgk4/3.5; Prismasol Bk0/0/1.2; Prolax - Pws; ProloGel Neurotherapy; ProloGel Pain Relief; ProloGel Urgent Care; Publix Fast Relief Effervescent; Pure Baking Soda; PureOxyWash; Quabic-100; Quabic-300; Quality Choice Effervescent Antacid and Pain Relief; Quality Choice Extra Strength Effervescent Antacid and Pain Relief; R04940 Liq; Relief OTC antacid; Rexall Sinus Wash System Soft Tip Squeeze bottle; Riga Purgative Lemon Flav Liq; Rite Aid Antacid and Pain Relief; SODIUM BICARBONATE 4% (2.4%mEq); Sal De Uvas Picot; Sal de Uvas Picot; Saline Refills; Saline Wash; Signature Care Effervescent Antacid and Pain Relief; Simply Saline Comfort Flow Sinus wash; Simply Saline Neti Pot Sinus wash; SinuCleanse; SinuCleanse Micro-Filtered Nasal Wash System; SinuCleanse Neti-Pot; SinuCleanse Squeeze; Sinus Wash; Sinus Wash Packet; Sinus Wash Pre Mixed Ready to Use Rite Aid; Sinus Wash Saline Packets Good Neighbor Pharmacy; Sinus Wash Saline Refills Meijer; Sinus Wash Saline Refills Premier Value; Skin protectant; Smart Sense Effervescent Antacid and Pain Relief; Soda Mint Tab; Sodium Bicarbonate; Sodium Bicarbonate 10 GR. (650 MG); Sodium Bicarbonate 10 gr; Sodium Bicarbonate 10 gr (650 mg); Sodium Bicarbonate 5 gr; Sodium Bicarbonate 5 gr (325 mg); Sodium Bicarbonate 5% Inj 50mg/ml USP; Sodium Bicarbonate 5% Inj 5gm/100ml USP; Sodium Bicarbonate Antacid; Sodium Bicarbonate Dry Concentrate Ro9504; Sodium Bicarbonate Dry Concentrate Rx002c; Sodium Bicarbonate Inj 4.2%; Sodium Bicarbonate Inj 7.5%; Sodium Bicarbonate Inj 8.4%; Sodium Bicarbonate Injection; Sodium Bicarbonate Injection 75mg/ml; Sodium Bicarbonate Injection 84mg/ml; Sodium Bicarbonate Injection USP; Sodium Bicarbonate Injection, USP; Sodium Bicarbonate Tab 300mg; Sodium Bicarbonate Tab 600mg; Sodium Bicarbonate USP for Hemodialysis D12276; Sodium Bicarbonate-chloride Dry Concentrate; Sodium Bicarbonate-chloride Dry Concentrate R04955; Sodium Bicarbonate-chloride Liquid Concentrate Ro4941; Soft Tip Neti Pot Easy to use Sinus Relief Premier Value; Soft Tip Neti Pot Good Neighbor Pharmacy; Soft Tip Neti Pot Sinus Wash Rite Aid; Soft Tip Neti Pot Sinus wash CareOne; Soft Tip Neti Pot Sinus wash Meijer; Soft Tip Neti Pot Soothing Sinus Relief Good Neighbor; Soft Tip Squeeze bottle Sinus Wash Good Neighbor Pharmacy; Soft Tip Squeeze bottle Sinus Wash Meijer; Soft Tip Squeeze bottle Sinus Wash Premier Value; Soft Tip Squeeze bottle Sinus Wash Rite Aid; Sol-cart B; Solution Carda; Stomachin Antacid; Suclear; TRILYTE with flavor packs; The Itch Eraser Sensitive; Thunas Bilex; Top Value Effervescent Pain Relief; TopCare Effervescent Antacid and Pain Relief; Topcare Omeprazole and Sodium Bicarbonate; Tqm Bicarbonate Concentrate B38; TriLyte with Flavor Packs; Unik Zoru Pwr; Unik Zoru Tab; Up and Up Antacid and Pain Relief; Urasal Granules; Vida Mia Pain Relief; Vida Mia Sodium Bicarbonate; Vivia Bicarb; Walgreens Antacid Pain Relief Extra Strength; Walgreens Effervescent Pain Relief; Walgreens Filtered Squeeze Sinus Wash System; Walgreens Sinus Wash Squeeze Bottle Kit; Well at Walgreens; WinCo Foods Effervescent Antacid and Pain Relief; Woodward's Gripe Water Liq; Yeti Pot- Schnoz Wash; Zee-Seltzer Antacid and Pain Reliever; Zegerid; Zegerid OTC; Zegerid with Magnesium Hydroxide; medPREDkit

$$$$
