1428
  Mrv0541 02231215292D          

 17 18  0  0  0  0            999 V2000
    3.5220   -2.2688    0.0000 O   0  0  0  0  0  0  0  0  0  0  0  0
    2.0930    0.2063    0.0000 O   0  0  0  0  0  0  0  0  0  0  0  0
    2.8075    1.4438    0.0000 O   0  0  0  0  0  0  0  0  0  0  0  0
    3.5220    0.2063    0.0000 C   0  0  0  0  0  0  0  0  0  0  0  0
    3.5220    1.0313    0.0000 C   0  0  0  0  0  0  0  0  0  0  0  0
    4.2365    1.4438    0.0000 C   0  0  0  0  0  0  0  0  0  0  0  0
    2.8075   -0.2063    0.0000 C   0  0  0  0  0  0  0  0  0  0  0  0
    4.2365   -0.2063    0.0000 C   0  0  0  0  0  0  0  0  0  0  0  0
    3.5220   -1.4438    0.0000 C   0  0  0  0  0  0  0  0  0  0  0  0
    2.8075   -1.0313    0.0000 C   0  0  0  0  0  0  0  0  0  0  0  0
    4.2365   -1.0313    0.0000 C   0  0  0  0  0  0  0  0  0  0  0  0
    4.2365    2.2688    0.0000 C   0  0  0  0  0  0  0  0  0  0  0  0
    4.9509    1.0313    0.0000 C   0  0  0  0  0  0  0  0  0  0  0  0
    4.9509    2.6813    0.0000 C   0  0  0  0  0  0  0  0  0  0  0  0
    5.6655    1.4438    0.0000 C   0  0  0  0  0  0  0  0  0  0  0  0
    5.6655    2.2688    0.0000 C   0  0  0  0  0  0  0  0  0  0  0  0
    4.2365   -2.6813    0.0000 C   0  0  0  0  0  0  0  0  0  0  0  0
  1  9  1  0  0  0  0
  1 17  1  0  0  0  0
  2  7  1  0  0  0  0
  3  5  2  0  0  0  0
  4  5  1  0  0  0  0
  4  7  2  0  0  0  0
  4  8  1  0  0  0  0
  5  6  1  0  0  0  0
  6 12  2  0  0  0  0
  6 13  1  0  0  0  0
  7 10  1  0  0  0  0
  8 11  2  0  0  0  0
  9 10  2  0  0  0  0
  9 11  1  0  0  0  0
 12 14  1  0  0  0  0
 13 15  2  0  0  0  0
 14 16  2  0  0  0  0
 15 16  1  0  0  0  0
M  END
> <DATABASE_ID>
DB01428

> <DATABASE_NAME>
drugbank

> <SMILES>
COC1=CC(O)=C(C=C1)C(=O)C1=CC=CC=C1

> <INCHI_IDENTIFIER>
InChI=1S/C14H12O3/c1-17-11-7-8-12(13(15)9-11)14(16)10-5-3-2-4-6-10/h2-9,15H,1H3

> <INCHI_KEY>
DXGLGDHPHMLXJC-UHFFFAOYSA-N

> <FORMULA>
C14H12O3

> <MOLECULAR_WEIGHT>
228.2433

> <EXACT_MASS>
228.07864425

> <JCHEM_ACCEPTOR_COUNT>
3

> <JCHEM_ATOM_COUNT>
29

> <JCHEM_AVERAGE_NEUTRAL_MICROSPECIES_CHARGE>
-0.4578303420044551

> <JCHEM_AVERAGE_POLARIZABILITY>
23.96111181175272

> <JCHEM_BIOAVAILABILITY>
1

> <JCHEM_DONOR_COUNT>
1

> <JCHEM_FORMAL_CHARGE>
0

> <JCHEM_GHOSE_FILTER>
1

> <JCHEM_IUPAC>
2-benzoyl-5-methoxyphenol

> <ALOGPS_LOGP>
3.35

> <JCHEM_LOGP>
3.6213622659999993

> <ALOGPS_LOGS>
-3.25

> <JCHEM_MDDR_LIKE_RULE>
0

> <JCHEM_NEUTRAL_CHARGE>
0

> <JCHEM_NUMBER_OF_RINGS>
2

> <JCHEM_PHYSIOLOGICAL_CHARGE>
-1

> <JCHEM_PKA_STRONGEST_ACIDIC>
7.073430637559264

> <JCHEM_PKA_STRONGEST_BASIC>
-4.848677912480104

> <JCHEM_POLAR_SURFACE_AREA>
46.53

> <JCHEM_REFRACTIVITY>
65.07760000000002

> <JCHEM_ROTATABLE_BOND_COUNT>
3

> <JCHEM_RULE_OF_FIVE>
1

> <ALOGPS_SOLUBILITY>
1.28e-01 g/l

> <JCHEM_TRADITIONAL_IUPAC>
tetrahydrofolic acid

> <JCHEM_VEBER_RULE>
0

> <DRUGBANK_ID>
DB01428

> <DRUG_GROUPS>
approved; investigational

> <GENERIC_NAME>
Oxybenzone

> <SYNONYMS>
2-Benzoyl-5-methoxyphenol; 2-Hydroxy-4-methoxybenzophenone; 4-Methoxy-2-hydroxybenzophenone; Benzophenone-3; Oxibenzona; Oxybenzone; Oxybenzonum

> <PRODUCTS>
100 SPF Cream; 1177, 1178 Sunscreen; 14-day Skin Rescue SPF 30; 15 SPF Fps Premium Sunscreen; 15 SPF Fps Sunscreen Lotion Écran Solaire; 15 SPF Sunscreen Uva/uvb Protection Oil-free Milky Spray; 15 SPF Sunscreen Uva/uvb Protection Vitalizing Age-defying Cream; 15 Spray Gel Sunscreen With Instant Bronzer; 24K Bio-Brightening Skin Tone Moisturizer SPF 30; 24K Skin Tone Moisturizer SPF 30; 29 by LYDIA MONDAVI Napa Valley BROAD SPECTRUM SPF 30 D VINE DAY; 2X Sunblock SPF 50; 3-IN-1 Active Moisturizer; 30 Continuous Spray Sunscreen With Instant Bronzer; 30 Lotion Sunscreen Moisture Max; 30 Plus Sunblock Spray; 30 SPF; 30 SPF Fps Continuous Spray; 30 SPF Fps High Protection Sunscreen; 30 SPF Fps Kids High Protection Sunscreen; 30 SPF Fps Sunscreen Lotion Écran Solaire; 30 SPF Jack Nicklaus; 30 SPF Oil Free; 30 SPF Sunscreen Uva/uvb Protection Delicate Skin Ultra Soothing Lotion; 30 SPF Sunscreen Uva/uvb Protection High Protection Age-defying Cream; 30 SPF Sunscreen Uva/uvb Protection Oil-free Milky Spray; 30 SPF/fps Sunscreen Spray Écran Solaire En Vaporisateur; 30 Spray Gel Sunscreen With Instant Bronzer; 4 Spray Gel Sunscreen With Instant Bronzer; 4-IN-1 Broad Spectrum SPF 50 Sunscreen; 4362 First Aid Kit; 45 SPF Fps High Protection Sunscreen; 45 SPF Fps Sunscreen Lotion Écran Solaire; 45 SPF Sunblock Spray; 45 SPF Sunscreen Spray; 50 Lotion Sunscreen Moisture Max; 50 SPF-fps Sunscreen; 5281 Sunscreen; 5283 Sunscreen; 5298 Sunscreen; 5299 Sunscreen; 5407 Sunscreen; 55 SPF/fps Sunscreen Lotion Écran Solaire; 7 Select Sport SPF 30; 7-Select Sport SPF 50; 70 Dry Touch SPF 70; 70 SPF Body Mist; 70 SPF Cream; 70 SPF Sunblock; 70 SPF/fps Sunscreen Lotion Écran Solaire; 8 SPF Sunscreen Lotion; 85 SPF Cream; A Cream SPF 30; A M Stimulus Complex SPF 25; A-cream; AMBI Sunscreen; ANEW Clinical Luminosity Pro Brightening Hand; ANEW Platinum Day; ANEW Solar Advance Sunscreen Body Mist; ANNA LOTAN Clear Protector Free Broad Spectrum SPF 32 Sunscreen; ANTI-AGING CONCEALER FACE EYES SUNSCREEN SPF 20 Shade 10; ARTISTRY YOUTH XTEND Lifting Smoothing Foundation Broad Spectrum SPF 20 Sunscreen; ARTISTRY YOUTH XTEND Protecting Broad Spectrum SPF 15; ARTISTRY YOUTH XTEND Protecting Broad Spectrum SPF 15 Sunscreen; Abyssine Lotion + SPF 15; Academy Continuous SPF 50; Academy Continuous Sport SPF 50; Academy SPF 50; Academy Sport SPF 50; Academy Sports Outdoors SUNSCREEN CONTINUOUS BROAD SPECTRUM SPF 50 Water-Resistant; Academy Sports Outdoors SUNSCREEN CONTINUOUS SPORT BROAD SPECTRUM SPF 50 Water-Resistant; Active Breathable Sunblock SPF 30; Active Breathable Sunblock SPF 45; Active Radiance Day Moisture SPF 30; Active SPF 15 Dry Lot Sunscreen; Active SPF 15 Sunblock - Lot; Active SPF 30 Dry Lot Sunscreen; Active SPF 30 Sunblock - Lot; Active Sport; Active Sunscreen Lotion SPF 50; Adaptateur De Bronzage - Lot; Advanced Anti-Wrinkle Therapy Cicatricure; Advanced Dynamics Soothing day Moisture Broad Spectrum SPF 15 Jafra; African Extracts Rooibos Moisturising Day Cream; Age Defense BB Cream SPF 30; Age Defying Hydrating Sunscreen SPF 30; Age Defying Moisturizer SPF 18; Age Delay - Creme Prolongateur Jeunesse - SPF 15; Age Management Skin Care System Sun Protection Cream SPF 15; Age Minimize 3d Day Cream SPF 30 Broad Spectrum Sunscreen; Age Renewal Deep Wrinkle Moisturizer; Age Renewal Firming; Age Renewal Firming and Hydrating Moisturizer; Age Renewal Firming and Hydrating Moisturizer SPF 30; Age Shield Face + Moisturizing Repair; Age Shield Face Sunscreen SPF 110; Age Shield Face Sunscreen SPF 60; Age Shield Face Sunscreen SPF 85; Age-defying + Moisturizing Neck & Chest Treatment SPF 15; Age-fighting Moisturizer Sunscreen SPF 30; Ageless Results Renewing Day Cream Creme De Jour Revigorante SPF/fps 15; Ageless Solar Defense (SPF 30); Alba Botanica UN-petroleum Cherry SPF18 Lip Balm; Alba Botanica UN-petroleum Tangerine SPF18 Lip Balm; Alba Botanica UN-petroleum Vanilla SPF18 Lip Balm; Aldi Lacura Sport SPF 50; All Day Moisture with AHAs SPF 15 Broad Spectrum Sunscreen; All Day Sunscreen with SPF 30; All Seasons Lip Balm; Almay Anti Aging Lip Care SPF 20; Almay Daily Moisturizer SPF 15 for Dry Skin; Almay Daily Moisturizer SPF 15 for Normal Combo Skin; Almay Daily Moisturizer SPF 15 for Oily Skin; Almay Ideal Lip Color SPF 17; Almay Kinetin Age Defying Daily Cream SPF 15; Almay Kinetin Age Defying Daily Lotion SPF 15; Almay Protective Lip Care SPF 25; Almay Protective Lip Care SPF 25 (shade-clear); Almay Time-off Lasting Moisture Lotion; Almond Aloe Facial Moisturizing Spf15; Aloe Ice SPF 50; Aloe Kote SPF 25; Aloe Up Broad Spectrum SPF 30; Aloe Up Broad Spectrum SPF 50; Aloe Up Dark Tanning Oil SPF 4; Aloe Up Dark Tanning Oil SPF 4 Continuous Sunscreen; Aloe Up Lil Kids Continuous Sunscreen SPF 50; Aloe Up Medicated Lip Balm SPF 30; Aloe Up Medicated Lip Ice Sunscreen SPF 30; Aloe Up Natural Lip Ice Sunscreen; Aloe Up Pro 30 Continuous Sunscreen; Aloe Up Pro 50 Continuous Sunscreen; Aloespa Lip Balm; Aloespa Sport SPF 24; Alphaquin HP; Always Color Stay on Makeup Broad Spectrum SPF 15 Jafra; Am/pm Anti-wrinkle Complex SPF 15; Amazonian clay BB illuminating moisturizer Broad Spectrum SPF 15 Sunscreen; Ambi Essentials; Ambi Essentials Daily Moisturizer Sunscreen Broad Spectrum SPF15; Ambi Even and Clear CC Sunscreen Broad Spectrum SPF30; Ambi Even and Clear Daily Moisturizer Sunscreen Broad Spectrum SPF30; Ambient Lip Shield Stick SPF 45; American Crew All-IN-one Face Balm; Amerisource Bergen Good Neighbor Pharmacy Sport SPF 50; Amish Origins SPF 15 Lip Balm; Amla Glow Ultra Hydrating Day Moisturizer Broad Spectrum SPF 25 Sunscreen; Andalou Naturals Daliy Defense with SPF 18; Anew Age-transforming Compact Makeup Maquillage Compact Transformation-age SPF-fps 15; Anew Alternative Intensive Age Treatment SPF 25 Day; Anew Clinical Absolute Even Spot Correcting Hand; Anew Clinical Skinvincible Multi-Shield; Anew Day Force Vertical Lifting Complex, SPF 15; Anew Hydra Fusion Daily Beauty Defense; Anew Men Daily Moisturizer; Anew Neutralize; Anew Platinum Day Cream; Anew Rejuvenate Day Dial-A-glow Anti-aging Moisturizer SPF 15; Anew Rejuvenate Day Revitalizing; Anew Rejuvenate Day Revitalizing Cream / CRème Revitalisante SPF/fps 25 Uva/uvb; Anew Rejuvenate Day Revitalizing Cream/creme Revitalisante SPF/fps 25; Anew Reversalist Complete Renewal Day; Anew Reversalist Complete Renewal Day Cream; Anew Reversalist Complete Renewal Day Lotion; Anew Reversalist Day Renewal; Anew Reversalist Day Renewal Cream SPF Fps 25 Uva Uvb; Anew Skinvincible Day; Anew Skinvincible Day Lotion Broad Spectrum SPF 50 Sunscreen; Anew Solar Advance Sunscreen Body; Anew Solor Advance Sunscreen Face; Anew Sun Sunscreen Body Lotion; Anew Sun Sunscreen Body Mist Lotion; Anew Sun Sunscreen Face Lotion; Anew Ultimate 7S Day; Anew Ultimate Day 7s Cream; Anew Ultimate Day Multi-Performance; Anew Ultimate Day Multi-performance Cream; Anew Vitale Day; Anew Vitale Day Cream; Anew Vitale Day Lotion; Anew Youth-awakening Lipstick Rouge À Lèvres Éclat Jeunesse SPF Fps 15; Anna Lotan Clear Silky Sunscreen Gel Broad Spectrum SPF30; Anna Lotan Triple Benefit Tinted Moisturizing Day Broad Spectrum SPF 30; Anthelios Lotion Corps Ultra-fluide; Anthelios Mist; Anthelios Ultra-fluid Lotion; Anti-Aging Complex SPF 30 Merle Norman; Anti-Aging Daily Moisturizer Sunscreen Broad-Spectrum SPF 30; Anti-Aging Emulsion SPF 30; Anti-Aging Hydra Tint SPF 20 Shade 10; Anti-Aging Tinted Moisturizer Broad Spectrum SPF 30; Anti-aging Complex Broad Spectrum SPF 30; Anti-aging Complex Emulsion Broad Spectrum SPF 30; Anti-aging Concealer Face Eyes Sunscreen SPF 20 Shade 20; Anti-aging Concealer Face Eyes Sunscreen SPF 20 Shade 30; Anti-aging Concealer Face Eyes Sunscreen SPF 20 Shade 40; Anti-aging Facial Moisturizer SPF/fps 70; Anti-aging Hydra Tint SPF 20 Shade 20; Anti-aging Hydra Tint SPF 20 Shade 30; Anti-aging Hydra Tint SPF 20 Shade 40; Anti-aging Sunscreen Broad Spectrum SPF 30; Anti-aging Tinted Moisturizer; Anti-wrinkle Intensive Day Cream; Antioxidant Daily Protectant SPF 30; Antioxidant Daily Protectant SPF 45; Antioxidant Daily Protectant SPF 50; Antioxidant Day SPF 15; Aqua SPF 50; Aquagel Defense 50; Aquaphor Lip Protectant and Sunscreen; Aquaphor Lip Repair and Protect; Aquasource Non Stop SPF 15 - Peau Normale Mixte; Aquasource Non Stop SPF 15 - Peau Seche; Aquasport; Aramis Lab Series Power Protector Broad Spectrum SPF 50; Aramis Lab Series Power Protector SPF 50; Arbonne Abc Arbonne Baby Care Sunscreen SPF 30; Arbonne Abc Arbonne Baby Care Water-resistant Sunscreen SPF 30; Arbonne Baby Care Sunscreen SPF 30; Arbonne International Abc Arbonne Children's Care Sunscreen SPF 30+; Arbonne International Before Sun Water Resistant Sunscreen SPF 30; Arbonne International Lip Saver Sunscreen SPF 30; Arbonne International Liquid Sunshine Tan Enhancer Sunscreen SPF 15; Arbonne International Made In The Shade Self-tanner Sunscreen SPF 15; Arbonne International Save Face & Body Sunscreen SPF 15; Arbonne Lip Saver Sunscreen SPF 30; Arbonne Liquid Sunshine Tan Enhancer With SPF 15; Arbonne Made In The Shade Self-tanner With SPF-15; Arbonne Made in the Shade Self Tanner Sunscreen SPF 15; Arbonne Nutrimen C RE9 Reality Moisturizing Sunscreen SPF 8; Arbonne Nutrimin C RE9 Reality SPF 8 Day Creme; Arbonne Revelage Age Spot Brightening Day with SPF 30; Arbonne Revelage Age Spot Brightening Hand Therapy with SPF 30; Arbonne Save Face & Body Sunscreen SPF 15; Arbonne Save Face and Body Sunscreen SPF 15; Arbonne Water-resistant Sunscreen SPF 30; Ariel Sun Smacker SPF 24 Strawberry Kiwi; Artistry Clarifying Moisturizer SPF 8 Lot; Artistry Essentials Balancing; Artistry Essentials Balancing Lotion; Artistry Essentials Hydrating Lotion; Artistry Essentials Hydrating SPF 15; Artistry Ideal Radiance Illuminating CC SPF 50 Broad Spectrum Med/Deep; Artistry Ideal Radiance Illuminating CC SPF 50 Broad Spectrum Sunscreen Deep; Artistry Ideal Radiance Illuminating CC SPF 50 Broad Spectrum Sunscreen Light/Medium; Artistry Ideal Radiance Illuminating CC SPF 50 Broad Spectrum Sunscreen Medium; Artistry Ideal Radiance Illuminating CC SPF50 Broad Spectrum Sunscreen - Light; Artistry Ideal Radiance Illuminating Cc Cream; Artistry Lip Colour Sheer SPF 15; Artistry Moisture Rich Moisturizer SPF 8 Crm; Artistry Pure White Moisturiser I; Artistry Time Defiance Firming CRème Foundation SPF 15; Artistry Youth Xtend Lifting Smoothing Foundation; Artistry Youth Xtend Lifting Smoothing Foundation Shade Brule L4W1; Artistry Youth Xtend Lifting Smoothing Foundation Shade Buff L1W1; Artistry Youth Xtend Lifting Smoothing Foundation Shade Cappuccino L5W1; Artistry Youth Xtend Lifting Smoothing Foundation Shade Caramel L5N1; Artistry Youth Xtend Lifting Smoothing Foundation Shade Chablis L1C1; Artistry Youth Xtend Lifting Smoothing Foundation Shade Chiffon L2C1; Artistry Youth Xtend Lifting Smoothing Foundation Shade Cream L1W2; Artistry Youth Xtend Lifting Smoothing Foundation Shade Golden L4N1; Artistry Youth Xtend Lifting Smoothing Foundation Shade Mink L6W1; Artistry Youth Xtend Lifting Smoothing Foundation Shade Natural L2N2; Artistry Youth Xtend Lifting Smoothing Foundation Shade Ochre L2N1; Artistry Youth Xtend Lifting Smoothing Foundation Shade Plush L3C1; Artistry Youth Xtend Lifting Smoothing Foundation Shade Sand L2W1; Artistry Youth Xtend Lifting Smoothing Foundation Shade Soleil L3W1; Artistry Youth Xtend Lifting Smoothing Foundation Shade Tawny L3N1; Artistry Youth Xtend Lifting Smoothing Foundation Shade Walnut L6N1; Artistry Youth Xtend Protecting Cream; Artistry Youth Xtend Protecting Lotion; Artra Skin Tone for Dry Skin; Artra Skin Tone for Normal Skin; Artra Skin Tone for Oily Skin; Aruba Aloe Island Remedy Daily Ultra Aloe; Aruba Aloe Lip Sunscreen and Moisturizer; Aruba Aloe Very Water Resistant Sunscreen; Aruba Aloe Very Water Resistant Sunscreen - For Faces SPF 30; Aruba Aloe Very Water Resistant Sunscreen For Kids SPF 30; Aruba Aloe Very Water Resistant Sunscreen SPF 15; Aruba Aloe Very Water Resistant Sunscreen SPF 50; Aruba Aloe Very Water Resistant Sunscreen SPF 8; Aunt Bees Five Flavors Pineapple Coconut Lip Balm; Aunt Bees Five Flavors Sweet Almond Lip Balm; Aunt Bees Five Flavors Tangelo Lip Balm; Aunt Bees Five Flavors Wintermint Lip Balm; Aunt Bees SPF 35 Cherry Lip Balm; Aureli Broad Spectrum; Austalian Gold SPF 6 Sunscreen LOW PROTECTION; Australian Gold BOAD SPECTRUM SPF 30; Australian Gold BOAD SPECTRUM SPF 50; Australian Gold BROAD SPECTRUM SPF 15; Australian Gold BROAD SPECTRUM SPF 15 Sunscreen; Australian Gold BROAD SPECTRUM SPF 30; Australian Gold BROAD SPECTRUM SPF 30 Sunscreen; Australian Gold BROAD SPECTRUM SPF 30 X-treme Sport Sunscreen; Australian Gold BROAD SPECTRUM SPF 4; Australian Gold BROAD SPECTRUM SPF 50; Australian Gold BROAD SPECTRUM SPF 50 X-treme Sport Sunscreen; Australian Gold BROAD SPECTRUM SPF 8; Australian Gold Broad Spectrum 30; Australian Gold Broad Spectrum SPF 15; Australian Gold Broad Spectrum SPF 30; Australian Gold Broad Spectrum SPF 30 Sheer Sunscreen; Australian Gold Broad Spectrum SPF 30 with invisidry Technology; Australian Gold Broad Spectrum SPF 4; Australian Gold Broad Spectrum SPF 4 Sunscreen; Australian Gold Broad Spectrum SPF 45; Australian Gold Broad Spectrum SPF 50; Australian Gold Broad Spectrum SPF 8; Australian Gold Carrot Oil Formula Broad Spectrum SPF 4; Australian Gold Exotic Blend spf8; Australian Gold Hello Kitty Broad Spectrum 50; Australian Gold Invisidry Technology Oil-Free Formula Broad Spectrum SPF 30; Australian Gold Just Shine SPF 50 Glitter Sunscreen; Australian Gold Justice SPF 50 Glitter Sunscreen; Australian Gold Mermaid SPF 50 Glitter Sunscreen; Australian Gold SPF 30 with insect repellent; Australian Gold X-treme Sport SPF 30 C/S Sunscreen; Autobronzant Vapo Fps 15; Aveda Daily Light Guard SPF 15; Aveda Daily Light Guard SPF 15 - Cream; Aveda Lip Tint SPF 15; Aveeno ACTIVE NATURALS protect Plus hydrate sunscreen BROAD SPECTRUM SPF30; Aveeno Active Naturals Ageless Vitality Rejuvenating Day Moisturizer SPF 30; Aveeno Active Naturals Clear Complexion BB Broad Spectrum SPF30 - Medium; Aveeno Active Naturals Clear Complexion BB Sunscreen Broad Spectrum SPF30 Fair to Light; Aveeno Active Naturals Daily Moisturizing Broad Spectrum SPF15; Aveeno Active Naturals Hydrosport Sunblock SPF 50; Aveeno Active Naturals Hydrosport Sunblock SPF 85; Aveeno Active Naturals Hydrosport Sunblock SPF30; Aveeno Active Naturals Hydrosport Sunscreen Broad Spectrum SPF30; Aveeno Active Naturals Hydrosport Sunscreen Broad spectrum SPF30; Aveeno Active Naturals Hydrosport Sunscreen Lotion SPF 85; Aveeno Active Naturals Hydrosport Sunscreen Spray SPF 85; Aveeno Active Naturals Positively Ageless Correcting Tinted Moisturizer SPF30 Light to Medium; Aveeno Active Naturals Positively Ageless Correcting Tinted Moisturizer Sunscreen Broad Spectrum SPF30; Aveeno Active Naturals Positively Ageless Daily Antioxidant Defense Moisturizer SPF 42; Aveeno Active Naturals Positively Ageless Day; Aveeno Active Naturals Positively Ageless Multidefense Daily Moisturizer SPF 42; Aveeno Active Naturals Positively Ageless Youth Perfecting Moisturizer SPF 30; Aveeno Active Naturals Positively Ageless Youth Perfecting Moisturizer Sunscreen Broad Spectrum SPF30; Aveeno Active Naturals Positively Radiant Daily Moisturizer with sunscreen Broad Spectrum SPF30; Aveeno Active Naturals Positively Radiant Tinted Moisturizer - Fair to Light Sunscreen Broad Spectrum SPF30; Aveeno Active Naturals Positively Radiant Tinted Moisturizer - Medium Sunscreen Broad Spectrum SPF30; Aveeno Active Naturals Positively Radiant Tinted Moisturizer SPF 30 Fair/Light; Aveeno Active Naturals Positively Radiant Tinted Moisturizer SPF 30 Medium; Aveeno Active Naturals Protect + Hydrate SPF 30; Aveeno Active Naturals Protect + Hydrate SPF 45; Aveeno Active Naturals Protect + Hydrate SPF 60; Aveeno Active Naturals Protect Plus Hydrate Sunscreen Broad Spectrum SPF 70; Aveeno Active Naturals Protect Plus Hydrate Sunscreen Broad Spectrum SPF50 For Face; Aveeno Active Naturals Protect Plus Hydrate Sunscreen Broad Spectrum SPF50 for face; Aveeno Active Naturals Smart Essentials Daily Nourishing Moisturizer SPF 30; Aveeno Active Naturals Smart Essentials Daily Nourishing Moisturizer Sunscreen Broad Spectrum SPF30; Aveeno Active Naturals Sunscreen Lotion Face Spf60; Aveeno Active Naturals Sunscreen Lotion SPF 30; Aveeno Active Naturals Sunscreen Lotion SPF 45; Aveeno Active Naturals Sunscreen Lotion SPF 55; Aveeno Active Naturals Sunscreen Spray SPF 30; Aveeno Active Naturals Sunscreen Spray SPF 45; Aveeno Baby Continuous Protection Sunscreen Broad Spectrum SPF55; Aveeno Baby Sunblock Lotion SPF 45; Aveeno Baby Sunscreen Lotion SPF 55; Aveeno Continuous Protection Face SPF100 Plus; Aveeno Continuous Protection SPF 30; Aveeno Continuous Protection SPF85; Aveeno DAILY MOISTURIZING SUNSCREEN BROAD SPECTRUM SPF 15; Aveeno Daily Moisturizing SPF15; Aveeno Hydrosport Sunscreen Wet Skin Broad Spectrum SPF 30; Aveeno PROTECT plus HYDRATE sunscreen BROAD SPECTRUM SPF 50 FOR FACE; Aveeno Positively Ageless Complete; Aveeno Positively Ageless Complete Anti Aging System; Aveeno Positively Ageless Daily Moisturizer SPF 30; Aveeno Positively Ageless Face SPF90; Aveeno Positively Ageless SPF55; Aveeno Positively Ageless SPF70; Aveeno Positively Radiant CC Broad Spectrum SPF30 - Fair to Light; Aveeno Positively Radiant CC Broad Spectrum SPF30 - Medium; Aveeno Positively Radiant Daily Moisturizer sunscreen Broad Spectrum SPF30; Aveeno Protect Plus Hydrate Sunscreen Broad Spectrum SPF 30; Aveeno Protect Plus Hydrate Sunscreen Broad Spectrum SPF 70; Aveeno Protect Plus Hydrate Sunscreen Broad Spectrum SPF30; Aveeno Protect Plus Hydrate Sunscreen Broad Spectrum SPF50; Aveeno Protect Plus Hydrate Sunscreen Broad Spectrum SPF70; Aveeno Sunblock Spray SPF 45; Aveeno Sunscreen Lotion Face SPF 30; Aveeno Sunscreen Lotion SPF 100; Avobenzone, Homosalate, Octisalate, Octocrylene, Oxybenzone; Avon Age Block Environmental Protection Cream SPF 15; Avon Age Block SPF 15 - Crm Top; Avon Anew Advanced All-IN-one Max Self-adjusting Perfecting Cream Spf15; Avon Anew Advanced All-IN-one Max Self-adjusting Perfecting Lotion SPF 15; Avon Anew Advanced All-IN-one SPF 15; Avon Anew Advanced All-IN-one Self-adjusting Perfecting Lotion Spf15; Avon Anew All-IN-one Intensive Complex, SPF 15; Avon Anew All-IN-one Perfecting Complex SPF 15; Avon Anew All-IN-one Perfecting Lotion SPF 8; Avon Anew Force Extra Triple Lifting Day Cream SPF 15; Avon Anew Luminosity Brightening Complex SPF 15; Avon Anew Luminosity Ultra SPF 15; Avon Anew Perfecting Moisturizer SPF 15; Avon Anew Platinum Day Broad Spectrum SPF 25 Sunscreen; Avon Anew Positivity A.M. Fortifier Spf15; Avon Anew Positivity Empowering A.M. Fortifier SPF 15; Avon Anew Retroactive + Day Defense SPF 15; Avon Anew Revital - Air Complex SPF 15; Avon Anew Revital-air SPF 15; Avon Anew Ultimate Hand and Nail Cream SPF 15; Avon Auth.skin So Soft Moist.suncare-spf15; Avon Authentic Skin So Soft MoisT.S.C.-spf30; Avon Beautiful Morning Revitalizing Moisturizer Spf10; Avon Brilliant Moisture Sheer Lipcolor SPF 15; Avon Broad Spectrum Sunblock Lotion SPF 15; Avon Bronzy Lip Balm SPF 15; Avon Care Moisture Replenish Daily Hydrating; Avon Care Moisture Replenish Daily Hydrating Cream; Avon Clearskin Clarifying Cover SPF 15; Avon Elements Skin Revitalize Instant Radiance; Avon Elements Skin Revitalize Instant Radiance Lotion; Avon Elements Youth Restoring Multi-Purpose; Avon Elements Youth-Restoring Anti-Wrinkle Moisture; Avon Exfoliating After Shave Balm SPF 15; Avon Eye Block Environmental Protection Cream SPF 15; Avon Hydralift Day Cream SPF 15; Avon Hydralift Day Lotion SPF 15; Avon Hydrofirming Bio6 Day Cream SPF 15; Avon Moisture Lift Protective Cream SPF 15; Avon Moisture Lift Protective Lotion SPF 15; Avon Moisture Shield Spf15 Crm; Avon Moisture Shield-tinted SPF 15 Crm; Avon Moisture Therapy Body Lotion SPF 8; Avon Moisture Therapy Intensive Moisturizing Lip Treatment SPF 15; Avon Moisture Therapy Lip Balm SPF 15 - Ont; Avon Moisture Therapy Moisturizing Lip Treatment SPF 15; Avon Moisture Therapy Soothing Lip Balm SPF 15; Avon Multi-boost Daily Vitamin Moisturizing Cream SPF 15; Avon Nutra Effects Active Seed Complex Ageless Day Cream Broad Spectrum SPF 20 Sunscreen; Avon Nutra Effects Active Seed Complex Balance Day Cream Broad Spectrum SPF 15 Sunscreen; Avon Nutra Effects Active Seed Complex Hydration Day Cream Broad Spectrum SPF 15 Sunscreen; Avon Nutra Effects Active Seed Complex Radiance Day Cream Broad Spectrum SPF 20 Sunscreen; Avon Nutra Effects Ageless Day Cream; Avon Nutra Effects Balance Day Cream; Avon Nutra Effects Hydration Day Cream; Avon Nutra Effects Radiance Day Cream; Avon Recharging Day Radiance Cream SPF 15; Avon Satin Moisture Lipstick Spf15; Avon Shine Divine Sheer Luminous Lipcolor SPF 15; Avon Skin So Soft Firm & Restore Neck & Chest Treatment Cream SPF 15 Sunscreen; Avon Skin So Soft Sunblock and Insect Repellent SPF 15; Avon Skin-SO-soft Body Lotion SPF 6; Avon Solutions Beautifully Protected Daily Uv Moisturizer SPF 30; Avon Split Decision Lipstick SPF 15; Avon Sport Sunblock Lot Spf30; Avon Sun + Kids Technologie Derma Plus Technology Disappearing Potion Sunscreen Lotion; Avon Sun Age Defying SPF 30 Sunscreen Lotion; Avon Sun Baby SPF 40 Sunscreen Lotion; Avon Sun High Protection Kids Sunblock Lotion SPF 40; Avon Sun High Protection Sunblock Lotion SPF 40; Avon Sun Kids Disappearing Colour Stick SPF 25; Avon Sun Kids Disappearing Colour Sunblock Cream SPF 30; Avon Sun Kids SPF 30 Disappearing Color Sunscreen Spray; Avon Sun Kids SPF 40 Disappearing Color Sunscreen Lotion; Avon Sun Lip Balm SPF 15; Avon Sun SPF 30 Sunscreen Lotion; Avon Sun SPF 40 Sunscreen Lotion; Avon Sun Seekers Face Sunblock Crm Spf30; Avon Sun Seekers Moist. Sunb Lot Spf30; Avon Sun Seekers Moist. Sunblock Lot. Spf15; Avon Sun Seekers Protective Lip Balm SPF 15; Avon Sun Seekers Tanning Spritzer SPF 6 Liq; Avon Sun Self-tanning Face Cream SPF 6; Avon Sun Shades SPF 15 Lip Gloss; Avon Sun Sparkle SPF 30 Sunscreen Lotion for Kids; Avon Sun Sport Refresh Sunscreen; Avon Sun Sport SPF 15 Sunscreen Spray; Avon Sun Sport SPF 30 Sunscreen Spray; Avon Sun Sport SPF 8 Sunscreen Gel; Avon Sun Sunblock Lotion SPF 15; Avon Sun Sunblock Lotion SPF 30; Avon Sun Sunscreen; Avon Sun Sunscreen Face; Avon Sunseekers Child.sunblock.lot SPF 15; Avon Sunseekers Child.sunblock.lot SPF 30; Avon Sunseekers Sunblock Lot Spf15; Avon Ultimate Day Multi-Performance Broad Spectrum SPF 25 Sunscreen; Avon Ultimate Day Multi-Performance SPF 25; Avon Ultra Color Rich Renewable Lipstick SPF 15; Avon Ultra Moisture Rich Lipstick SPF 15; Avon Unlimited Moisture Lipcolor SPF 15; Awaken by Quality Choice Long-Lasting Oil-Free Moisturizer Broad Spectrum SPF 15; Axe Crew Cut Buzzed Look with Sunscreen SPF 15; B. Kamins, Chemist Bio-maple Day Cream; BB Cream SPF 20 Beige; BB Cream SPF 20 Fair; BB Cream SPF 20 Medium; BB Cream SPF 20 Nude; BELLA SCHNEIDER BEAUTY Glow And Go Tinted Moisturizing Sunscreen Broad Spectrum SPF 30; BLI Holding Miami Beach kids spf 50; BLI Holdings MIAMI BEACH Kids spf 50; BODY TIME Anti-Aging Day Cream SPF 30; BULLFROG DEET FREE Mosquito Coast Sunscreen with Insect Repellent SPF 30; BULLFROG KIDS Sunscreen Broad Spectrum SPF 50 Plus; BULLFROG Marathon Mist Sunscreen Broad Spectrum SPF 36; BULLFROG Marathon Mist Sunscreen Broad Spectrum SPF 50; BULLFROG Water Armor SPORT 50 Plus InstaCool Sunscreen Broad Spectrum; Babies Sunblock Lotion SPF 45; Babies Ultra Block Lotion SPF 30; Babies' Total Sunblock Lotion SPF 45; Babies' Ultra Sunblock Lotion SPF 30; Baby Blanket BROAD SPECTRUM SPF 50; Baby Blanket Sunscreen Stick for Babies; Baby Broad Spectrum SPF 50 DG body; Baby Faces 45 SPF Sunscreen Spray; Baby Faces 50 SPF Sunblock; Baby Faces 50 SPF-fps Sunscreen Spray; Baby Faces 50 SPF/fps; Baby Gentle Sunscreen SPF 50; Baby Sun Protection Lotion; Baby Sunscreen Broad Spectrum SPF 60 Lotion; Baby Sunscreen SPF 50; Baby Sunscreen SPF 50 tugaboos; Baby Sunscreen Stick Écran Solaire En Bâtonnet SPF Fps 50; Baby Sunstick SPF 55 CVS; Baby Zone SPF 30 Sunscreen; Baby blanket BROAD SPECTRUM SPF 50; Bain De Soleil 6-hour Waterp.sport Lot.spf15; Bain De Soleil 6-hour Waterproof Lot. SPF 15; Bain De Soleil All Day Lot. for Babies Spf30; Bain De Soleil All Day Lot. for Kids Spf30; Bain De Soleil All Day Lotion SPF 30; Bain De Soleil Longue Duree Pur Bebes Spf30; Bain De Soleil Lot Longue Duree Fps 15; Bain De Soleil Lot.longue Dur.pour Enf.fps30; Bain De Soleil Lotion Longue Duree Fps 30; Bain De Soleil Lotion Sport SPF 15; Bain De Soleil Luminessence Spf4; Bain De Soleil Luminessence Spf8; Bain De Soleil Mega Tan Lotion SPF 30; Bain De Soleil Oil Free Faces SPF 15; Bain De Soleil Oil-free Protecteur SPF-25; Bain De Soleil Orange Gelee SPF 8; Bain De Soleil Orange Gelee SPF-15; Bain De Soleil Sos SPF 15; Bain De Soleil Sos SPF 30; Bain De Soleil Tanning Mist SPF 8; Bain de Soleil Orange Creme SPF 4; Bain de Soleil Transpare SPF 10; Bain de Soleil Transpare SPF 4; Balance Dynamics Balancing SPF 15; Balance Dynamics SPF 15; Balancing Day Moisture Broad Spectrum SPF 15 Jafra; Balancing Dynamics Kit Jafra; Balancing SPF 15 Jafra; Balea Bb Cream SPF 15; Bali Body BB Cream SPF 15; Bali Body BB Cream SPF 15 Natural; Bali Body BB Cream SPF 15 Tan; Ballmania Lip Balm SPF 20; Baléa Face Lip Balm SPF 15; Baléa Face Lip Balm SPF 30; Bambini Soul; Banana Boat; Banana Boat Action Sport Sunblock Spray Gel SPF 25; Banana Boat Active Kids Sunblock Lot SPF 30; Banana Boat Active Kids Sunblock Lot SPF 50; Banana Boat Active Kids Sunblock Lot Spf30; Banana Boat Active Sport Sunblock Spray SPF 25; Banana Boat Aloe Vera Lip Balm Spf30; Banana Boat Aloe Vera Lip Balm Sunbl. Spf21; Banana Boat Aloe Vera Lip Balm Sunblock SPF 30; Banana Boat Aquashield H20 Sport Sunblock Lotion SPF 30; Banana Boat Aquashield H2o Kids Sunblock SPF 30; Banana Boat Baby Block Sunblock Lotion SPF 50; Banana Boat Baby SPF 50; Banana Boat Baby Sunblock Lot SPF 50; Banana Boat Baby Sunblock Lotion SPF 29; Banana Boat Baby Sunblock Lotion SPF 50; Banana Boat Bite Block Sunblock SPF 15; Banana Boat Bite Block Sunblock SPF 30; Banana Boat Cool Colorz Vanishing Sunblock Spray; Banana Boat Cool Colouring Vanishing Sunblock Spf30 Lotion; Banana Boat Cool Colourz Groovy Grape Foaming Sunblock SPF 30; Banana Boat Dark Tanning Oil SPF 8; Banana Boat Deep Tanning Dry SPF 4; Banana Boat Deep Tanning Dry SPF 8; Banana Boat Dry Balance Clear Sunscreen Broad Spectrum SPF 30; Banana Boat Faces Plus SPF 23; Banana Boat Faces Plus SPF 31; Banana Boat Faces Plus Spf15; Banana Boat Faces Plus Sunblock SPF 23 - Crm; Banana Boat Funky Fruit - Lip Balm; Banana Boat Funky Fruit Lip Balm; Banana Boat Kids Protect and Play SPF 50; Banana Boat Kids Protect and Play SPF 85; Banana Boat Kids Quik Blok Spray SPF 25; Banana Boat Kids Sunblock SPF 30; Banana Boat Kids Sunblock Spf50; Banana Boat Kids Sunblock Spray Lotion SPF 48; Banana Boat Kids Sunblock Stick SPF 30; Banana Boat Mens SPF 30; Banana Boat Mens SPF 50 Plus; Banana Boat Oil Free SPF 30; Banana Boat Protective Dry SPF 15; Banana Boat Protective Dry SPF 6; Banana Boat Quick Dry Spray SPF 15; Banana Boat Quick Dry Spray SPF 30; Banana Boat Quik Blok Kids Spray SPF 25; Banana Boat Quik Blok Oil Free Spray SPF 15; Banana Boat Quik Blok Spray SPF 25; Banana Boat Quik Dri Sport Body and Scalp SPF 30; Banana Boat Sport Body and Scalp SPF 30; Banana Boat Sport Performance; Banana Boat Sport Performance Active Dry Protect SPF UVB 50; Banana Boat Sport Performance Active Dry protect; Banana Boat Sport Performance SPF 15; Banana Boat Sport Performance SPF 15 Canada; Banana Boat Sport Performance SPF 30; Banana Boat Sport Performance SPF 30 Canada; Banana Boat Sport Performance SPF 85; Banana Boat Sport SPF 30; Banana Boat Sport SPF 30 Lip Balm; Banana Boat Sport SPF 50; Banana Boat Sport SPF 60; Banana Boat Sport Sunblock Ecran Solaire Uva & Uvb SPF Fps 30; Banana Boat Sport Sunblock Lotion SPF 30; Banana Boat Sport Sunblock Lotion SPF 50; Banana Boat Sport Sunblock Lotion Spf30; Banana Boat Sport Sunblock Lotion Spf50; Banana Boat Sport Sunblock SPF 15; Banana Boat Sport Sunblock SPF 30; Banana Boat SunComfort SPF 30; Banana Boat Sunblock SPF 15; Banana Boat Suncomfort Sunscreen Spray SPF 30; Banana Boat Suncomfort Sunscreen Spray SPF 50+; Banana Boat Sunscreen Lotion SPF 8; Banana Boat Sunscreen Oil Spray Huile Ecran Solaire En Vaporisateur SPF Fps 15; Banana Boat Suntanicals Sunscreen Lotion SPF 30; Banana Boat Ultra 30 Super Sunblock; Banana Boat Ultra Defence SPF 30 for UK; Banana Boat Ultra Defense; Banana Boat Ultra Defense Broad Spectrum; Banana Boat Ultra Defense Clear Sunscreen Broad Spectrum SPF 100; Banana Boat Ultra Defense SPF 30 Canada; Banana Boat Ultra Defense SPF 30 for LATAM; Banana Boat Ultra Defense SPF 60 Canada; Banana Boat Ultra Defense SPF 85; Banana Boat Ultra Defense Sheer Protect; Banana Boat Ultra Defense Sheer Protect FPS 50 LATAM; Banana Boat Ultra Defense Sheer Protect SPF 30; Banana Boat Ultra Defense Sheer Protect SPF 50; Banana Boat Ultra Plus Sunblock Ecran Solaire Uva & Uvb SPF/fps 50; Banana Boat Ultra Plus Sunblock SPF 50; Banana Boat Ultra Plus Sunblock Spray Lotion SPF 48; Banana Boat Ultra Sunblock Ecran Solaire Uva & Uvb SPF Fps 30; Banana Boat Ultra Sunblock Lot Spf30; Banana Boat Ultra Sunblock SPF 30; Banana Boat Ultra defense SPF 50 Canada; Banana Boat Ultramist Sport Performance SPF 50; Banana Boat Vitamin E Lip Balm Spf30; Banana Boat Vitamin E Lip Balm Sunblock SPF 30; Banana Boat Vitaskin Facial Care Sunscreen SPF 30 Lotion; Banana Boat Vitaskin Sunscreen SPF 30 Lotion; Banana Boat Vitaskin Sunscreen SPF 50 Lotion; Banana Boat for Men Triple Defense Sunscreen Lotion SPF 30; Banana Boat for Men Triple Defense Sunscreen Lotion SPF 50+; Banana Bt Paba Free Uva and Uvb Spf25 Sunbl.; Banana Bt.faces Sens.skin Sunbl. SPF 23 Crm; Banana Bt.paba Free Uva and Uvb Prot.SPF 15; Banishing Cream Skin Tone Perfector Perfecteur De Teint SPF 15/fps15; Barely Beige Moisturizing Makeup Broad Spectrum SPF 15 Jafra; Barely Beige Oil Controlling Makeup Broad Spectrum SPF 15 Jafra; Baume Protecteur Fps 15 Avec Filtres Uva/uvb; Bb Anti-fatigue Absolute SPF 25; Bb Spf20; Bb10 Instant Skin Perfector Broad Spectrum SPF 35; Beach Defense Kids; Beach Defense Kids SPF 60; Beach Defense SPF 30; Beach Defense SPF 30 Sunscreen Spray; Beach Defense SPF 60; Beach Defense SPF 60 Sunscreen Lotion; Beauticontrol Sunlogics O-F Tan.mist SPF 8; Beauticontrol Sunlogics Sun Shield Lot; Beauticontrol Sunlogics Uv Lip&eye Stk Spf15; Beauticontrol Sunlogics Water Resist. SPF 30; Beauty Balm Instant Solutions Broad Spectrum SPF 35; Beauty Booster Cream SPF 30; Bebak Baby Sun; Bee Pollen-jojoba High Moisture Cream; Beeswax Lip Balm SPF 15; Beeswax Lip Balm SPF 30 Vertra; Beeswax SPF 30 Broad Spectrum Lip Balm; Before Sun Liquid Sunshine Tan Enhancer SPF 15; Bellagio Childrens Sunscreen SPF 45; Bellagio Dark Tanning SPF 2; Bellagio Lip Moisturizer SPF 15; Bellagio Sunscreen SPF 30; Bellagio Sunscreen SPF 45; Bellagio Sunscreen SPF 8; Belo Intensive Brightening; Belo Sun Expert Tinted Sunscreen; Benefiance Wrinkle Smoothing Day Cream; Benefit You Rebel Lite SPF 15; Benefit You Rebel SPF 15; Beyond Belief Vita C SPF 15 Daily Moisture; Bienfait Uv SPF 50; Big Kids SPF 30 Sunblock - Lot; Big Lots Soundbody SPF 70 Sun Defense; Big Lots Soundbody Sheer Sunscreen Broad Spectrum SPF 70; Big Lots Soundbody Sun Defense Screen Broad Spectrum SPF 70; Big V Baby Sunblock SPF 30 Lot; Big V Kids Sunblock Lotion SPF 30; Big V Sunblock Lotion 30 SPF; Big V Sunblock Lotion SPF 15; Bilboa Capri Sunscreen SPF 15; Bilboa Capri Sunscreen SPF 30; Bilboa Capri Sunscreen SPF 50 Plus; Bilboa Kids Sunscreen SPF 50 Plus; Bio-maple Day Cream SPF 15; Bio-protection Jour SPF 20; Biocorneum Plus SPF 30 Advanced Scar Treatment; Bioelements FaceScreen; Bioelements Sun Diffusing Protector SPF 15; Bioelements, Inc. SPF 50 FaceScreen; Biolagesun A D.I.T.S. S.C. S.B. Wp SPF 30; Biolagesun F.T.S. Sens. Sk. Sun Bl. Wp.spf30; Biolagesun S.S. Skin-caring S.S. Wp. SPF 15; Biolagesun T.T.T. Skin-caring S.S. Wp SPF 8; Biophora Day Protection Spf30 Uva/uvb Sunscreen; Biopur Fluide Mat Hydratant SPF 15; Biore Nourish Nourrit Moisture Lotion SPF 15; Biore Pore Perfect Pore Minimizing Lightweight Moisturizer SPF 15; Biosun Professional Sun Protection - Children SPF 30 - Crm; Biosun Professional Sun Protection - Faces SPF 25 - Crm; Biosun Professional Sun Protection - SPF 15 - Crm; Biosun Professional Sun Protection - SPF 30 - Crm; Biosun Professional Sun Protection - SPF 45 - Crm; Biosun Professional Sun Protection Oil Free Gel SPF 30; Biosun Professional Sun Protection Oil Free Spray SPF 25; Biotherm Protecteur Auto-bronzant Fps 12; Biotherm-bronzant Securite SPF 15; Biotherm-gelee Bronzante Hydratante SPF 8; Biovi Total Beauty; Birds Garden Lip Balm Cerulean Warbler SPF 30; Birds Garden Lip Balm Dark Eyed Junco SPF 30; Birds Garden Lip Balm Western Tanager - SPF 30; Bisque Always Color Stay-on Broad Spectrum SPF 15 Jafra; Bite Beauty; Bite Beauty SPF 15 Sheer Balm; Black Stick; Bliss Triple Oxygen Ultimate Protection UV Moisturizer SPF 33; Blissful Butters; Blistex Assorted Medicated Balm Value Pack (Blistex Medicated Berry Lip Balm, Blistex Medicated Lip Balm, Blistex Medicated Mint Lip Balm); Blistex Blissful Butters; Blistex Complete Moisture; Blistex Complete Moisture Lipbalm SPF 15; Blistex Daily Conditioning Treatment; Blistex Dct; Blistex Deep Renewal International; Blistex Enhancement Series; Blistex Enhancement Series (Deep Renewal and Silk and Shine); Blistex Enhancement Series (Lip Vibrance, Deep Renewal and Ultra-Rich Hydration); Blistex Enhancement Series (Soft and Lush, Deep Renewal and Ultra-Rich Hydration); Blistex Enhancement Series (Ultra-Rich Hydration and Lip Vibrance); Blistex European Formula; Blistex FIVE STAR; Blistex Five Star Lip Protection Broad Spectrum; Blistex Herbal Answer; Blistex Herbal Answer Lip Protectant SPF 15; Blistex Herbal Answer Lipbalm SPF 15; Blistex Lip Balm; Blistex Lip Infusion Sheer Liquid Balm; Blistex Lip Massage; Blistex Lip Vibrance; Blistex Med Lip Conditioner Spf15 Ont; Blistex Medicated Berry Balm; Blistex Medicated Lip Balm; Blistex Medicated Mint Lip Balm; Blistex Medicated Variety Pack (Blistex Medicated Berry Lip Balm, Blistex Medicated Lip Balm, Blistex Medicated Lip); Blistex Nurture and Nourish; Blistex Orange Mango Blast; Blistex Raspberry Lemonade Blast; Blistex Revive and Restore; Blistex Silk & Shine Lip Balm; Blistex Soft and Lush; Blistex Spa Effects SPF 15 Lip Protectant; Blistex Sunblock Stk Spf15; Blistex Ultra Lip Balm; Blistex Ultra Rich Hydration; Block Up Oil Free 30 SPF; Block-UP Oil Free 15 SPF; Block-UP Oil Free 45 SPF; Blue Lizard Regular; Blue Lizard Sport; Blue Lizard Sport Original Sunscreen; Blue Lizard Sunscreen Australian Formula; Blue Stick; Blumingo Anti-aging Am SPF-30 Sunscreen; Bobbi Brown Bb Broad Spectrum SPF 35; Bobbi Brown Beach Sport Stick for Face SPF 20; Bobbi Brown Beach Sunscreen Body Spray SPF 15; Bobbi Brown Beach Sunscreen Gel for Body SPF 30; Bobbi Brown Beach Sunscreen for Face SPF 25; Bobbi Brown Beauty Balm SPF 35; Bobbi Brown Brightening Protective Face Base Uv SPF 50; Bobbi Brown CC BROAD SPECTRUM SPF 25; Bobbi Brown Color Correct Cream SPF 35; Bobbi Brown Extra Moisturizing Balm SPF 25; Bobbi Brown Extra Repair Foundation Broad Spectrum SPF 25; Bobbi Brown Extra Repair Moisturizing Balm SPF 25; Bobbi Brown Extra SPF 25 Moisturizing Balm; Bobbi Brown Extra SPF 25 Tinted Broad Spectrum Moisturizing Balm; Bobbi Brown Extra SPF 25 Tinted Moisturizing Balm; Bobbi Brown Extra Tinted Moisturizing Balm SPF 25; Bobbi Brown Primer Plus Protection SPF 50; Bobbi Brown Primer Plus Radiance SPF 35; Bobbi Brown SPF 50 Protective Face Base Broad Spectrum; Body Armor SPF 15 Sunscreen - Crm; Body Essentials Hand and Body Moisturizing Formula SPF 8; Body Glow Sunscreen SPF 20; Body Illuminating Creme SPF 15; Body Revive Moisturizing Sunscreen Lot; Body Series Hand & Body Lotion SPF 8 Moisturizing Formula; Body Time Sun Broad Spectrum SPF30 Anti-Aging Day; Body Zone SPF 15 Sport Screen; Body Zone SPF 15 Sunscreen; Body Zone SPF 30 Kids Screen; Body Zone SPF 30 Purple Block Screen; Body Zone SPF 30 Sport Screen; Body Zone SPF 30 Sunscreen; Body Zone SPF 40 Kids Sunscreen; Body Zone SPF 45 Suncreeen; Body Zone SPF 8 Sunscreen; Bodyglide Sun Formula SPF-25; Borba Age Defying Daily Hydrator SPF 30 Plus; Borba Age Defying Super Creme SPF 100 plus; Borghese Radiante Brightening Hand Creme; Botanical Effects Hydrate & Protect Broad Spectrum Sunscreen SPF 30; Botanical Effects Moisturizer SPF 30; Brighten Up SPF 15; Brightening and moisturizing facial SPF 30; Brite Prep Fx; BritePrep FX; Britto Body Sunscreen Broad Spectrum SPF 50; Britto Facial Sunscreen Broad Spectrum SPF 50; Broad Spectrum 30 SPF Fps Sunscreen Lotion; Broad Spectrum 50 SPF Fps Sunscreen Lotion; Broad Spectrum Moisturizing Sunscreen SPF 30; Broad Spectrum Moisturizing Sunscreen-SPF 15, Octinoxate, Oxybenzone; Broad Spectrum SPF 30 Fps; Broad Spectrum SPF 30 Preferred Plus Pharmacy; Broad Spectrum SPF 30 Sport Sunscreen Continuous Spray; Broad Spectrum SPF 30 Sun Stick; Broad Spectrum SPF 30 Sunscreen Continuous Spray; Broad Spectrum SPF 30 Sunscreen Preferred Plus Pharmacy; Broad Spectrum SPF 30 Tropical Sunscreen; Broad Spectrum SPF 30 Ultrathon; Broad Spectrum SPF 50 Baby Sunscreen Preferred Plus Pharmacy; Broad Spectrum SPF 50 CVS; Broad Spectrum SPF 50 CareOne; Broad Spectrum SPF 50 Daylogic; Broad Spectrum SPF 50 Kids Preferred Plus Pharmacy; Broad Spectrum SPF 50 Lotion; Broad Spectrum SPF 50 Sunscreen Bioelements; Broad Spectrum SPF 50 Sunscreen Preferred Plus Pharmacy; Broad Spectrum SPF 70 CVS; Broad Spectrum SPF 70 Sunscreen Preferred Plus Pharmacy; Broad Spectrum SPF/fps 50; Broad Spectrum Sunscreen Colourless SPF 40; Broad Spectrum Sunscreen SPF 25; Bronz Repair; Bronz Repair Creme De Soin Visage Pour Soleil Intense; Bronz Repair Creme De Soin Visage Pour Soleil Normal Ou Fort; Bronz Repair Extreme; Bronze Magic Gel Creme Nacre Autobronzant Express Fps 15; Brume Solaire SPF 5; Brush and Go All Skin types; Brush and Go Oily Problematic Skin; Bubble Gum Sunscreen Lip Moisturizer; Build-A-tan Face SPF 15; Bull Frog Insta-Cool Mist 50; Bull Frog Kids Continuous Spray Sunscreen Broad Spectrum SPF 50+; Bull Frog Kids Mist 50; Bull Frog Marathon Mist 36; Bull Frog Marathon Mist 50; Bull Frog Marathon Mist Continuous Spray Sunscreen Broad Spectrum SPF 36; Bull Frog Marathon Mist Continuous Spray Sunscreen Broad Spectrum SPF 50; Bull Frog Water Armor Sport 50; Bull Frog Water Armor Sport Quick Gel Sunscreen Broad Spectrum SPF 50; Bull Frog Water Armor Sport Quick Spray Sunscreen Broad Spectrum SPF 50; Bull Frog Water Armor Sport Quik 50; Bull Frog Water Armor Sport SPF 50+; Bull Frog Water Armor Super 40; BullFrog Land Sport SPF 50 Lip Balm; BullFrog Quik; BullFrog Quik Gel Sport; BullFrog SPF 50 Land Sport Quik Gel Sunscreen; BullFrog SPF50 Land Sport C-Spray; BullFrog SPF50 Land Sport Quik; BullFrog SPF50 Water Sport; BullFrog SPF50 Water Sport C-Spray; BullFrog Super Block; BullFrog Water Armor Sport Super; Bullfrog Surfer; Buzz Away Lotion Spf15; By Nature Daily Face Sunscreen Broad Spectrum SPF 30; By Nature Hydrating Day SPF 15; C Cream SPF 30; C-NO Wrinkle; CARDINAL HEALTH LEADER SPF 50 General Protection Sunscreen; CARDINAL HEALTH LEADER SPF30 General Protection Sunscreen; CC Cream Broad Spectrum SPF 30 Merle Norman; CD CAPTURE TOTALE Multi-Perfection UVB Base Sunscreen SPF 50; CD DIORSKIN CITY DEFENSE Toxin Shield Pollution UV Advanced Protection with sunscreen Broad Spectrum SPF50; CD DIORSKIN NUDE CREME Nude Glow Creme Gel Compact Makeup Sunscreen Broad Spectrum SPF20 010; CD DIORSKIN NUDE CREME Nude Glow Creme Gel Compact Makeup Sunscreen Broad Spectrum SPF20 020; CD DIORSKIN NUDE CREME Nude Glow Creme Gel Compact Makeup Sunscreen Broad Spectrum SPF20 030; CD DIORSKIN NUDE CREME Nude Glow Creme Gel Compact Makeup Sunscreen Broad Spectrum SPF20 040; CD DIORSKIN NUDE CREME Nude Glow Creme Gel Compact Makeup Sunscreen Broad Spectrum SPF20 050; CD DIORSNOW Bloom Perfect Brightening Perfect Skin Creator With Sunscreen Broad Spectrum SPF35; CD DIORSNOW UV SHIELD Brightening Illuminating UV Protection With Sunscreen TRANSLUCENT BROAD SPECTRUM SPF 50; CD Dior Prestige White Collection Satin Brightening UV Base Blemish Balm SPF 50; CD Dior Prestige White Collection Satin Brightening UV Base SPF 50; CD Dior Prestige White Collection Satin Brightening Uvb Base With Sunscreen SPF 50; CD Diorsnow Uv Shield Bb Creme Light Shade White Reveal Uv Protection SPF 50; CD HydraLife BB Creme Enhancing Sunscreen Moisturizer For Immediate Beauty Golden Peach Broad Spectrum SPF 30; CD HydraLife BB Creme Enhancing Sunscreen Moisturizer For Immediate Beauty Luminous Beige Broad Spectrum SPF 30; CD HydraLife BB Creme Enhancing Sunscreen Moisturizer For Immediate Beauty Sunny Amber Broad Spectrum SPF 30; CERAMIDE LIFT and FIRM; CERAMIDE LIFT and FIRM EYE SPF 15; CLARINS Age-Control Hand SPF 15; CLARINS BROAD SPECTRUM SPF 30 Sunscreen Care; CLARINS BROAD SPECTRUM SPF 50 Dry Touch Facial Sunscreen Enriched with antioxidants Prevents sun induced age spots; CLARINS BROAD SPECTRUM SPF 50 Plus - SUNSCREEN CARE MILK; CLARINS BROAD SPECTRUM SPF 50 Plus - SUNSCREEN FOR FACE WRINKLE CONTROL; CLARINS Broad Spectrum SPF 15 Sunscreen Care For Outdoor Sports; CLARINS Broad Spectrum SPF 30 Sunscreen For Face Wrinkle Control; CLARINS UV PLUS ANTI-POLLUTION BROAD SPECTRUM SPF 50 NON-TINTED Sunscreen Multi-Protection; CLARINS UV PLUS ANTI-POLLUTION SUNSCREEN MULTI-PROTECTION BROAD SPECTRUM SPF 50 Oil-Free -DEEP; CLARINS UV PLUS ANTI-POLLUTION SUNSCREEN MULTI-PROTECTION BROAD SPECTRUM SPF 50 Oil-Free -LIGHT; CLE DE PEAU BEAUTE PROTECTIVE FORTIFYING n; CLINIQUE SPF 30 ADVANCED PROTECTION BODY CREAM with SOLAR SMART; CLINIQUE SPF 30 with SOLAR SMART; CLINIQUE SPF 50 with SOLAR SMART ADVANCED PROTECTION; CLINIQUE skin supplies for men; COVER plus CORRECT/TINTED MOISTURIZER CC CRM DEEP ALMOND; COVER plus CORRECT/TINTED MOISTURIZER CC CRM FAIR; COVER plus CORRECT/TINTED MOISTURIZER CC CRM GOLDEN ALMOND; COVER plus CORRECT/TINTED MOISTURIZER CC CRM GOLDEN LIGHT; COVER plus CORRECT/TINTED MOISTURIZER CC CRM GOLDEN MEDIUM; COVER plus CORRECT/TINTED MOISTURIZER CC CRM LIGHT; COVER plus CORRECT/TINTED MOISTURIZER CC CRM MED; COVER plus CORRECT/TINTED MOISTURIZER CC CRM MED/DEEP; COVER plus CORRECT/TINTED MOISTURIZER CC CRM PORCELAIN; CRC Sunscreen Towel CRC; CRème Auto-bronzante Bronze Dore SPF 15; CRème De Soin Solaire Mer Et Tropiques Visage; CRème De Soin Solaire Visage; CRème Rajeunissante Haute Fermeté Jour; CRème Solaire Anti-rides Visage SPF 30; CRème Solaire Bronzage Sécurité Spécial Visage SPF 15; CRème Solaire Fps 30; CRème Solaire Protection Élevée Visage; CRème Solaire Régions Sensibles Fps 30; CRème Solaire Spécial Visage SPF 50; CRème Solaire Très Haute Protection SPF 30; CRème Solaire Très Haute Protection Spécial Visage SPF 30; CRème Solaire Visage Toucher Sec Fps 50+; CRème Solaire Écran Spécial Visage SPF 30; CVS Clear Face SPF 30 3 oz; CVS Health Age Defense SPF 70 Face; CVS Health Baby SPF 50; CVS Health Cherry SPF 15 Lip Balm; CVS Health Childrens SPF 70 Plus Wet and Dry; CVS Health Lip Moisture Cherry; CVS Health Lip Moisture Mint; CVS Health Lip Moisture Vanilla; CVS Health Lip Repair; CVS Health Moisture SPF 15 Lip Balm; CVS Health Original SPF 15 Lip Balm; CVS Health SPF 100 Clear; CVS Health SPF 100 Ultra Protection; CVS Health SPF 100 Ultra Sheer; CVS Health SPF 15 Clear; CVS Health SPF 30 Clear; CVS Health SPF 30 Coconut Scented Clear; CVS Health SPF 30 Sheer Mist; CVS Health SPF 30 Ultra Sheer; CVS Health SPF 45 Sheer Mist; CVS Health SPF 45 Ultra Sheer; CVS Health SPF 50 Clear; CVS Health SPF 50 Coconut Scented Clear; CVS Health SPF 50 Sun; CVS Health SPF 55 Clear Face; CVS Health SPF 55 Clear Face Paraben and Phthalate Free; CVS Health SPF 55 Ultra Sheer; CVS Health SPF 70 Beach Guard Sun; CVS Health SPF 70 Clear; CVS Health SPF 70 Sheer Mist; CVS Health SPF 70 Sun; CVS Health SPF 70 Ultra Sheer; CVS Health SPF 85 Wet and Dry; CVS Health Sport Clear Broad Spectrum SPF 100 Plus Sunscreen; CVS Health Sport SPF 100 Clear; CVS Health Sport SPF 100 Plus Clear; CVS Health Sport SPF 15 Clear; CVS Health Sport SPF 30 Clear; CVS Health Sport SPF 50 Clear; CVS Health Sport SPF 50 Face; CVS Health Sport SPF 50 Sun; CVS Health Sport SPF 70 Clear; CVS Health Ultra Protection SPF 100; CVS Health Ultra Protection SPF 50; CVS Health Ultra Protection SPF 70; CVS Health Ultra Sheer Broad Spectrum SPF 70; CVS Health Ultra Sheer SPF 100 Sunscreen; CVS Pharmacy Kids SPF 50 Clear; CVS Pharmacy Kids SPF 70 Clear; CVS Pharmacy Oil Free Faces SPF 30; CVS Pharmacy Oil Free SPF 30; CVS Pharmacy SPF 15; CVS Pharmacy SPF 30; CVS Pharmacy SPF 30 Beach Guard Clear; CVS Pharmacy SPF 30 Beach Guard Sun; CVS Pharmacy SPF 30 Wet and Dry; CVS Pharmacy SPF 50 Beach Guard Sun; CVS Pharmacy SPF 70 Beach Guard Clear; CVS Pharmacy Sport SPF 50; CY BETTER LIPS BALM Humectante para Labios con color FPS 18 (BLUSH CURE) - PINK; CY BETTER LIPS BALM Humectante para Labios con color FPS 18 (CHOCO THERAPY) - BROWN; CY BETTER LIPS BALM Humectante para Labios con color FPS 18 (DR. ROSE) - PINK; CY BETTER LIPS BALM Humectante para Labios con color FPS 18 (FLASHY KARMIN) - RED; CY BETTER LIPS BALM Humectante para Labios con color FPS 18 (FUXIA DEFENSE) - MAGENTA; CY BETTER LIPS BALM Humectante para Labios con color FPS 18 (GET WELL PEACH) - PINK; CY BETTER LIPS BALM Humectante para Labios con color FPS 18 (GRAPE CARE) - RED; CY BETTER LIPS BALM Humectante para Labios con color FPS 18 (INTENSIVE RED) - RED; CY BETTER LIPS BALM Humectante para Labios con color FPS 18 (LILAC ZIMMER) - LILAC; CY BETTER LIPS BALM Humectante para Labios con color FPS 18 (PINK STAR) - PINK; CY BETTER LIPS BALM Humectante para Labios con color FPS 18 (PURE OXYGEN) - BEIGE; CY BETTER LIPS BALM Humectante para Labios con color FPS 18 (SAND LIFE) - YELLOW; CY BETTER LIPS BALM Humectante para Labios con color FPS 18 (SHINY BROWN) - BROWN; CY BETTER LIPS BALM Humectante para Labios con color FPS 18 (SUN LIGHT) - BEIGE; CYZONE CY PERLIPS Labial Hidratante con perlas de luz y FPS 20; CYZONE CY SOLUXION Aclaradora FPS 15; CYZONE CY SOLUXION desmanchadora FPS 15; Cafe Mocha Always Stay-on Makeup Broad Spectrum SPF 15 Jafra; Cafe au lait Always Stay-on Makeup Broad Spectrum SPF 15 Jafra; Calenda-cucumber Oil-free Moisturizer; California Tan BROAD SPECTRUM SPF 30; California Tan BROAD SPECTRUM SPF 4; California Tan BROAD SPECTRUM SPF 45; California Tan BROAD SPECTRUM SPF 8; California Tan Broad Spectrum SPF 8; California Tan Continuous Sunscreen Broad Spectrum SPF 30; California Tan SPF 30 Sunscreen; California Tan SPF 45 Sunscreen; Calm Dynamics Gentle Hydrating Day SPF 15; Calming Dynamics Kit Jafra; Calming Dynamics SPF 15; Camera Ready 5 In 1 Beauty Balm SPF 35; Camera Ready Bb Broad Spectrum SPF 35; Camera Ready Cc Broad Spectrum SPF 30; Canadian Ice Uv Protection SPF 15; Cannon Balm; Cannon Balm 140; Canscreen 400 Lotion; Capture First Action Creme Lissante Jeunesse SPF 8; Capture First Action Fluide Lissant Jeunesse SPF 8; Capture Lift; Capture Rides - Crm; Capture Rides Fluide; Capture Totale Anti-aging Emulsion Uva/uvb Protection; Capture Totale Multi-perfection Creme SPF 20; Cardinal Health Leader SPF 30 General Protection Sunscreen Clear Continuous; Cardinal Health Leader SPF 30 Sport Sunscreen Clear Continuous; Cardinal Health Leader SPF 50 Kids Sunscreen Clear Continuous; Cardinal Health Leader SPF 70 General Protection Sunscreen Clear Continuous; Care One Moisture SPF 15 Lip Balm; Careline Skin Guard Invisible SPF 50; Careline Skin Guard Kids Invisible SPF 50; Careline Skin Guard SPF 30; Caribbean Breeze SPF 30 Kids Sunscreen Lotion; Caribbean Breeze Spf12 Sunscreen Spray Lotion; Caribbean Breeze Spf15 Sunscreen Lotion; Caribbean Breeze Spf15 Sunscreen Spray Lotion; Caribbean Breeze Spf20 Sunscreen Spray Lotion; Caribbean Breeze Spf30 Sunscreen Lotion; Caribbean Breeze Spf30 Sunscreen Spray Lotion; Caribbean Breeze Spf45 Sunscreen Spray Lotion; Carmex Cherry Flavoured Lip Ointment SPF 15; Carmex Classic Lip Balm Cherry SPF 15; Carmex Classic Lip Balm Medicated Free Wintergreen Stick; Carmex Classic Lip Balm Medicated SPF 15; Carmex Classic Lip Balm Strawberry SPF 15; Carmex Click-stick Lip Moisturizer With Sun Block SPF 15; Carmex Daily Care Moisturizing Lip Balm Cupcake Batter SPF 15; Carmex Daily Care Moisturizing Lip Balm Favorites SPF 15; Carmex Daily Care Moisturizing Lip Balm Free Wintergreen and Fresh Cherry SPF 15; Carmex Daily Care Moisturizing Lip Balm Fresh Cherry SPF 15; Carmex Daily Care Moisturizing Lip Balm Holiday SPF 15; Carmex Daily Care Moisturizing Lip Balm Honey Dew Melon SPF 15; Carmex Daily Care Moisturizing Lip Balm Orange Dream SPF 15; Carmex Daily Care Moisturizing Lip Balm SPF 15; Carmex Daily Care Moisturizing Lip Balm SPF 15 Assorted; Carmex Daily Care Moisturizing Lip Balm SPF 15 Minis; Carmex Daily Care Moisturizing Lip Balm Strawberry SPF 15; Carmex Daily Care Moisturizing Lip Balm Sweets SPF 15; Carmex Daily Care Moisturizing Lip Balm Tropical Colada SPF 15; Carmex Daily Care Moisturizing Lip Balm Wintergreen SPF 15; Carmex Daily Care moisturizing Lip Balm Winter Mint SPF 15; Carmex Flavoured Lip Balm; Carmex Lip Moisturizer With Sunscreen SPF 15; Carmex Moisture Plus; Cashmere Always Stay-on Makeup Broad Spectrum SPF 15 Jafra; Cashmere Moisturizing Makeup Broad Spectrum SPF 15 Jafra; Cb 101; Cb 102; Cc Cream Broad Spectrum SPF 30; Celazome Botanical Mositurizer with SPF 15; Celazome Moisturizing Sunscreen SPF 15; Celazome Moisturizing Sunscreen with SPF 30; Celazome Mositurizing Sunscreen with SPF 29; Celazome SPF 29; Celazome SPF 30; Celesty Colors Special Edition With Alix Avien BB Cream; Celesty Colors Special Edition With Alix Avien CC Cream; Cellular Anti-Wrinkle SunScreen SPF 30 La Prarie; Cellular Anti-wrinkle Sun Cream SPF 30; Cellular Anti-wrinkle Sun Sunscreen Broad Spectrum SPF 30; Cellular Aw Sun Block SPF 50; Cellular Brightening System Day Emulsion SPF 15; Cellular Day Defense Firming Complex SPF 15; Cellular Day Defense Firming SPF 25; Cellular Defense Shield SPF 15; Cellular Energizing Colour Finish SPF 15; Cellular Lip Treatment SPF 15; Cellular Luxe Lip Treatment SPF 15; Cellular Protective Body Emulsion SPF 30; Cellular Purifying Systeme Hydrating Fluid SPF 15; Cellular Radiance Sunscreen SPF 30; Cellular Swiss Protection Veil Broad Spectrum SPF 50; Cellular Swiss UV Protection Veil Sunscreen Broad Spectrum SPF 50 La Prairie; Cellular Time Release Moisture Lotion SPF 15; CeraVe Kids Sunscreen Broad Spectrum SPF 50 WET SKIN; CeraVe Sunscreen Broad Spectrum SPF 30 WET SKIN; CeraVe Sunscreen Broad Spectrum SPF 50 WET SKIN; Ceramide EyeWish Eye Sunscreen SPF 10; Ceramide Eyewish Eye Cream SPF 10; Ceramide Lift And Firm Day Broad Spectrum Sunscreen SPF 30; Ceramide Lift And Firm Eye Sunscreen SPF 15; Ceramide Lift and Firm Day Cream SPF 30; Ceramide Lift and Firm Day Lotion SPF 30; Ceramide Lift and Firm Eye Cream SPF 15; Ceramide Plump Perfect Lip Moisture SPF 30; Ceramide Premier Intense Moisture and Renewal Activation Broad Spectrum SPF 30; Ceramide Premiere Broad Spectrum SPF 30; Ceramide Premiere Intense Moisture and Renewal Activation Cream SPF 30; Cetaphil Daily Facial Moisturizer (SPF 50); Cetaphil Daily Facial Moisturizer SPF 50; Cetaphil Daily Facial Moisturizer with suncreen SPF 50; Chap - Grip SPF 15; ChapIce Moisture SPF 15 Lip Balm; ChapIce SPF 30 Lip Balm; ChapStick Active Sport Ready; ChapStick Hydration Lock Day and Night; Chapfix+; Chapstick Active SPF 30; Chapstick Lipshield 365; Chapstick Moisturizer; Chapstick Moisturizer Green Apple; Chapstick Moisturizer Raspberry Creme; Chapstick Moisturizer Vanilla Mint; Chapstick Petroleum Jelly Sunblock Spf15; Chapstick Sunblock 15 Lip Balm; Chapstick Ultra Moisture; Chapstick Ultra SPF 30; Cherry Candy Cane Lip Balm; Children's Sunblock Lot SPF 30; Children's Sunscreen SPF 15; Childrens Sunstick SPF 55 CVS; Chopper Chap Lip Balm; Christian Dior Prestige Brightening Revitalizing UV Base SPF 50; Chrono Repair Solaire; Cicatricure Brightening Face With SPF; Cicatricure Scar SPF 30; Clarifying Line Broad Spectrum SPF 50 EXEL; Clarins Broad Spectrum SPF 30 - Sunscreen Care; Clarins Broad Spectrum SPF 30 Sunscreen Care; Clarins Sunscreen Care Milk- SPF 50 Plus; Clarins Sunscreen For Face Wrinkle Control SPF 50 PLUS; Clarins Sunscreen Progressive Tanning SPF 15; Clarins Super Restorative Day; Clarins UV PLUS ANTI-POLLUTION B.S. SPF 50, Sunscreen Multi-Protection Tint Medium; Cle De Peau Beaute 30 Soin Protecteur Uv Pour Les Levres; Cle De Peau Beaute Gentle Protective I; Cle De Peau Beaute Protective Fortifying; Cle De Peau Beaute Refreshing Protective I; Cle De Peau Beaute Uv Protection; Cle De Peau Beaute Uv Protective Lip Treatment; Cle De Peau Beaute Uv Protective for Body; Clean & Clear Finishes Pore Perfecting Moisturizer; Clean Fresh Sunblock Sunscreen SPF 30 Continuous; Clean and Clear Advantage 2-in-1 Acne and Mark Eraser Kit; Clean and Clear Finishes Pore Perfecting Moisturizer; Clean and Clear Oxygenating Ultra Light Moisturizer; Cleanroom Lip Balm SPF 15; Clear Complexion Bb Cream; Clear Complexion Bb Cream SPF 30 Medium; Clear Difference Bb Complexion Perfecting Bb Broad Spectrum SPF 35; Clear Face; Clear SPF 30 Sunscreen Spray; Clear Stick Uv Protector; Clear Sunscreen Stick; Clearskin Professional Oil Free; Clearskin Professional Oil Free Lotion SPF 15 Lotion Sans Huile Fps 15; Climatik SPF 30 Fps Lip Balm Baume A Levres; Climatik SPF 30 Fps Protective Cream CRème Protectrice; Climatik SPF 30 Fps Protective Lotion Lotion Protectrice; Clinic A Retinol Vital Day Moist Lot Spf20; Clinique Broad Spectrum SPF 30 Sunscreen Body With Solar Smart; Clinique Broad Spectrum SPF 30 Sunscreen Face With Solar Smart; Clinique Broad Spectrum SPF 50 Sunscreen Body With Solar Smart; Clinique Broad Spectrum SPF 50 Sunscreen Face With Solar Smart; Clinique SPF 30 Body Cream; Clinique SPF 30 Face Cream; Clinique SPF 50 Body Cream; Clinique SPF 50 Face Cream; Clinique Skin Supplies for Men M Protect SPF 21; Clinique Sun-care Body Gel 15 SPF Sunscreen; Clinique Sun-care Body Spray 15 SPF Sun Block; Clinique Sun-care Body Spray 30 SPF Sun Block; Clinique Sun-care Lip/eye 30 SPF Sun Block; Clinique Sun-care Uv-response Body Cream 30 SPF Sunscreen; Clinique Sun-care Uv-response Body Cream 50 SPF Sunscreen; Clinique Sun-care Uv-response Face Cream 30 SPF Sunscreen; Clinique Sun-care Uv-response Face Cream 50 SPF Sunscreen; Clinique Superdefense Age Defense Moisturizer Broad Spectrum SPF 25; Clinique Superdefense Age Defense Moisturizer SPF 25 Combination Oily; Clinique Superdefense Age Defense Moisturizer SPF 25 Dry Combination; Clinique Superdefense Age Defense Moisturizer SPF 25 Very Dry Combination; Clinique Superdefense Triple Action Moisturizer SPF 25 Normal To Dry Skin; Clinique Superdefense Triple Action Moisturizer SPF 25 Normal To Oily Skin; Clinique Superdefense Triple Action Moisturizer SPF 25 for Very Dry Skin; Clinique for Men Broad Spectrum SPF 21 Moisturizer; Clinique for Men SPF 21 Moisturizer; Clé De Peau Beauté 30 Émulsion Protectrice Uv Pour Le Corps; Clé De Peau Beauté CRème Fortifiante Protectrice; Clé De Peau Beauté Émulsion Fortifiante Protectrice; Cocoa Always Color Stay-on Makeup Broad Spectrum SPF 15 Jafra; Coconut Sunscreen Lip Moisturizer; Cocooil SPF 30; Cocooil SPF30; Cocooil SPF50; Color Icon Bronzer SPF 15; Come In The Sun SPF 30; Complete Acne Therapy System; Complete Dry Mist Spray; Concept II SolScents Broad Spectrum SPF 30 Angelica; Concept II SolScents Broad Spectrum SPF 30 Cucumber Melon; Concept II SolScents Broad Spectrum SPF 30 Deep Love; Concept II SolScents Broad Spectrum SPF 50 Flower Blast; Concept II SolScents Broad Spectrum SPF 50 Raspberry Dreams; Continuous Hydration SPF 25; Continuous Spray Lotion; Continuous Spray SPF/fps 70; Continuous Spray Sheer Mist SPF 30; Continuous Spray Sunscreen Sun Bum Broad Spectrum SPF 15; Continuous Spray Sunscreen Sun Bum Broad Spectrum SPF 30; Continuous Spray Sunscreen Sun Bum Broad Spectrum SPF 50; Continuum Unifying Lotion I; Continuum Unifying Lotion II; Control Dynamics Mattifying SPF 15; Control Dynamics SPF 15; Control Dynamics kit Jafra; Cool Aqua Lipbalm SPF 15; Cooldry Sport SPF 30; Cooldry Sport SPF 30 Sunscreen Spray; Cooldry Sport SPF 60; Cooldry Sport SPF 60 Sunscreen Spray; Cooldry Sport Sunscreen Spray SPF 100; Coolzone Instantly Cools & Refreshes Rafraîchit Instantanément Spray Sunscreen Écran Solaire En Vaporisateur SPF/fps 30; Coolzone Instantly Cools & Refreshes Rafraîchit Instantanément Spray Sunscreen Écran Solaire En Vaporisateur SPF/fps 50; Copperstone Water Babies Pure and Simple Whipped Sunscreen Broad Spectrum SPF 50 SPF 50; Coppertone 2 Dark Tanning Oil Spf2; Coppertone Bug & Sun Block SPF 15; Coppertone Bug & Sun Block SPF 30; Coppertone Clear Continuous Spray Sunscreen SPF 50; Coppertone Clearly Sheer Faces SPF 50; Coppertone Clearly Sheer For Beach and Pool SPF 30; Coppertone Clearly Sheer For Beach and Pool SPF 50 Plus; Coppertone Clearly Sheer For Beach and Pool SPF 50 Plus Face; Coppertone Clearly Sheer For Sunny Days SPF 30; Coppertone Clearly Sheer SPF 30; Coppertone Clearly Sheer SPF 50; Coppertone Clearly Sheer Whipped SPF 50; Coppertone Clearly Sheer Whipped Sunscreen Broad Spectrum SPF 50 SPF 50; Coppertone Continuous Spray Sunscreen SPF 30; Coppertone Defend and Care Face Sunscreen SPF 50; Coppertone Defend and Care Ultra Hydrate SPF 50; Coppertone Defend and Care Ultra Hydrate Whipped SPF 50; Coppertone Defend and Care Ultra Hydrating SPF 50; Coppertone Dry Oil Mist Sunscreen Continuous Spray SPF 10; Coppertone Dry Oil Sunscreen Spray SPF 8; Coppertone Dry SPF 10; Coppertone Faces Only Sunblock Lot SPF 15; Coppertone Gel SPF 15; Coppertone Gel SPF 30; Coppertone General Protection Sunscreen Lotion SPF 60; Coppertone KIDS SPF 30; Coppertone KIDS SPF 50; Coppertone KIDS SPF 55; Coppertone Kids - SPF 40 Lot Top; Coppertone Kids Colorblok Lotion SPF 30; Coppertone Kids Colorblok SPF 40; Coppertone Kids Colorblok Spf30; Coppertone Kids Colorblok Spray SPF 30; Coppertone Kids Continuous Spray SPF 60; Coppertone Kids Continuous Spray Sunscreen SPF 50; Coppertone Kids Foam SPF 40; Coppertone Kids Glitter Lotion SPF 30; Coppertone Kids Lotion SPF 30; Coppertone Kids SPF 15 Sunblock Lotion; Coppertone Kids SPF 30 - Lot; Coppertone Kids SPF 30 Sunblock Lotion; Coppertone Kids SPF 40 - Lot; Coppertone Kids SPF 50; Coppertone Kids SPF 70 Plus; Coppertone Kids Sport SPF 100; Coppertone Kids Sport SPF 50; Coppertone Kids Sport Sunscreen SPF 100; Coppertone Kids Spray Lotion SPF 30; Coppertone Kids Spray'n Play SPF 30; Coppertone Kids Sunblock Lotion Spray SPF 30; Coppertone Kids Sunscreen Lotion SPF 60; Coppertone Kids Sunscreen Mousse SPF 60; Coppertone Kids Sunscreen SPF 50; Coppertone Kids Sunscreen SPF 70; Coppertone Kids Sunscreen Stick SPF 55; Coppertone Kids Wet Protect SPF 50; Coppertone Kids Wet'n Clear Sunscreen Continuous Spray SPF 50; Coppertone Lipkote Spf15; Coppertone Lotion Spray SPF 30; Coppertone Mist SPF 4; Coppertone Noskote 15 Crm; Coppertone Oil Free - SPF 15 Lot Top; Coppertone Oil Free Continuous Spray SPF 50 Sunscreen; Coppertone Oil Free Faces SPF 50 Plus; Coppertone Oil Free Faces SPF-30; Coppertone Oil Free Faces Sunscreen Lotion SPF 60; Coppertone Oil Free Lotion SPF 15; Coppertone Oil Free Lotion SPF 30; Coppertone Oil Free Lotion SPF 45; Coppertone Oil Free Lotion SPF-30; Coppertone Oil Free Lotion SPF-45; Coppertone Oil Free SPF 8 - Lot; Coppertone Oil Free SPF 8-lot Top; Coppertone Oil Free Sunscreen Lotion SPF 30; Coppertone Oil Free Sunscreen Mousse SPF 60; Coppertone Radiance - Spf15 - Lot Top; Coppertone Radiance SPF 15 - Lot; Coppertone SPORT PRO SERIES SPF 30; Coppertone SPORT PRO SERIES SPF 50; Coppertone SPORT SPF 30; Coppertone SPORT SPF 50; Coppertone SPORT SPF 90; Coppertone SPORT Sunscreen Faces SPF 50; Coppertone SPORT Sunscreen SPF 100PLUS; Coppertone SPORT Sunscreen SPF 50; Coppertone SPORT Sunscreen SPF 80; Coppertone Skin Selects for Dry Skin -spf15; Coppertone Skin Selects for Oily Skin-spf15; Coppertone Spectra 3 Babies Lotion SPF 50; Coppertone Spectra 3 Kids Lotion SPF 50; Coppertone Spectra 3 Lotion SPF 50; Coppertone Spectra SPF 30; Coppertone Sport; Coppertone Sport AccuSpray SPF 15; Coppertone Sport AccuSpray SPF 30; Coppertone Sport AccuSpray SPF 70; Coppertone Sport Clear Continuous Spray Sunscreen SPF 50; Coppertone Sport Clear SPF 50; Coppertone Sport Continuous SPF 100 Plus; Coppertone Sport Continuous Spray SPF 15 Accuspray Sunscreen; Coppertone Sport Continuous Spray SPF 30 Accuspray Sunscreen; Coppertone Sport Continuous Spray SPF 50+ Accuspray Sunscreen; Coppertone Sport Continuous Spray Sunscreen SPF 15; Coppertone Sport Continuous Spray Sunscreen SPF 30; Coppertone Sport Gel SPF-15; Coppertone Sport Gel SPF-30; Coppertone Sport High Performance Faces SPF 50; Coppertone Sport High Performance SPF 50; Coppertone Sport Lip Balm SPF 50; Coppertone Sport Lotion SPF 15; Coppertone Sport Lotion SPF 30; Coppertone Sport Lotion SPF-30; Coppertone Sport Pro Series Sunscreen Continuous Spray SPF 30; Coppertone Sport Pro Series Sunscreen Continuous Spray SPF 50+; Coppertone Sport SPF; Coppertone Sport SPF 100; Coppertone Sport SPF 100 plus; Coppertone Sport SPF 15 Lotion; Coppertone Sport SPF 30; Coppertone Sport SPF 30 Lotion; Coppertone Sport SPF 50; Coppertone Sport SPF 55; Coppertone Sport SPF 70; Coppertone Sport SPF 75; Coppertone Sport SPF 8 Lotion; Coppertone Sport SPF 80; Coppertone Sport Spray SPF 15; Coppertone Sport Spray SPF 30; Coppertone Sport Sunblock Stick SPF 30; Coppertone Sport Sunscreen Lip Balm SPF 30; Coppertone Sport Sunscreen Lotion Face SPF 50; Coppertone Sport Sunscreen Lotion Face SPF 60; Coppertone Sport Sunscreen Lotion SPF 50; Coppertone Sport Sunscreen Lotion SPF 60; Coppertone Sport Sunscreen SPF 100; Coppertone Sport Sunscreen SPF 30; Coppertone Sport Sunscreen SPF 70; Coppertone Sport Sunscreen Stick; Coppertone Sport Sunscreen Stick SPF 55; Coppertone Sport Wet Protect SPF 30; Coppertone Spray SPF 15; Coppertone Spray SPF 30; Coppertone Sunblock Lotion SPF 45; Coppertone Sunblock Lotion Spf30; Coppertone Sunblock Lotion Spf45; Coppertone Sunscreen Continuous Spray SPF 15; Coppertone Sunscreen Continuous Spray SPF 30; Coppertone Sunscreen Continuous Spray SPF 50+; Coppertone Sunscreen Dry Oil Continuous Spray SPF 4; Coppertone Sunscreen Lotion Clearlysheer Face SPF 50; Coppertone Sunscreen Lotion Face Oil Free SPF 30; Coppertone Sunscreen Lotion Oil Free SPF 50; Coppertone Sunscreen Lotion Oil Free SPF 60; Coppertone Sunscreen Lotion SPF 15; Coppertone Sunscreen Lotion SPF 30; Coppertone Sunscreen Lotion SPF 50 Defend & Care; Coppertone Sunscreen Lotion SPF 50 Kids; Coppertone Sunscreen Lotion SPF 50 Sun Guard; Coppertone Sunscreen Lotion SPF 8 Defend & Glow; Coppertone Sunscreen Mousse SPF 50 Defend & Care; Coppertone Sunscreen Mousse SPF 50 Waterbabies Pure & Simple; Coppertone Sunscreen Spray Clearlysheer SPF 30; Coppertone Sunscreen Spray Clearlysheer SPF 50; Coppertone Sunscreen Spray SPF 30 Sport; Coppertone Sunscreen Spray SPF 30 Sun Guard; Coppertone Sunscreen Spray SPF 50 Defend & Care; Coppertone Sunscreen Spray SPF 50 Kids; Coppertone Sunscreen Spray SPF 50 Sport; Coppertone Sunscreen Spray SPF 50 Sun Guard; Coppertone Sunscreen Stick SPF 55; Coppertone Suntan Lot SPF-4; Coppertone Tanning Defend and Glow SPF 10; Coppertone Tanning Defend and Glow SPF 15; Coppertone Tanning Dry Oil SPF 10; Coppertone Tanning Dry Oil SPF 15; Coppertone Tanning Dry Oil SPF 4; Coppertone Tanning Oil SPF 15; Coppertone Tanning Oil SPF 6; Coppertone Tattoo Guard Sunscreen SPF 50; Coppertone TattooGuard Sunscreen SPF 50 Plus; Coppertone Ultra Guard SPF 30; Coppertone Ultra Guard SPF 50; Coppertone Ultra Guard SPF 70; Coppertone Ultra Guard SPF 70 Sunscreen; Coppertone UltraGuard SPF 15; Coppertone UltraGuard SPF 30; Coppertone UltraGuard SPF 50; Coppertone UltraGuard SPF 70 Plus; Coppertone UltraGuard SPF 70 Plus Sunscreen; Coppertone Ultraguard Sunscreen SPF 15; Coppertone Uv Guard SPF-30 Lotion; Coppertone Uvguard SPF 15 Lotion; Coppertone Water BABIES SPF 55; Coppertone Water Babies Foaming Sunscreen SPF 75 Plus; Coppertone Water Babies Pure And Simple Whipped SPF 50; Coppertone Water Babies SPF 50; Coppertone Water Babies Sunblock Crm Spf25; Coppertone Water Babies Sunblock Lot Spf30; Coppertone Water Babies Sunscreen SPF 70 Plus; Coppertone WaterBABIES Sunscreen SPF 100plus; Coppertone Waterbabies Continuous Spray Sunscreen Lotion SPF 50; Coppertone Waterbabies Spray SPF 30; Coppertone Waterbabies Spray SPF-45; Coppertone Waterbabies Sunblock Lot SPF 45; Coppertone Waterbabies Sunblock Stick SPF 30; Coppertone Waterbabies Sunscreen Lotion SPF 60; Coppertone Waterbabies Sunscreen Mousse SPF 60; Coppertone Wet and Clear Kids SPF 50 Plus; Coppertone Wet and Clear SPF 50 Plus; Coppertone Wet n Clear Kids SPF 45plus; Coppertone Wet n Clear SPF 30; Coppertone Wet n Clear SPF 45plus; Coppertone Wet'n Clear Sunscreen Continuous Spray SPF 30; Coppertone Wet'n Clear Sunscreen Continuous Spray SPF 50; Coppertone kids SPF 50; Coppertone kids SPF 70 Plus; Coppertone kids SPF 75 Plus; Coppertone oil free Foaming Sunscreen SPF 75 Plus; Coppertone oil free SPF 30; Coppertone oil free faces Sunscreen SPF 30; Coppertone ultraGUARD SPF 50; Coppertone ultraGUARD SPF 90 plus; Coppertone ultraGUARD Sunscreen SPF 100 Plus; Coppertone ultraGUARD Sunscreen SPF 100plus; Coppertone ultraguard; Coppertone water BABIES SPF 70 plus; Coppertone waterBABIES Pure and Simple Free SPF 50; Coppertone waterBABIES Sunscreen SPF 50; Coppertone wet n clear SPF 30; CoreTex Professional Outdoor Skin Protection Wallet; CoreTex Sun X SPF 30; CoreTex Sun X SPF 30 Thin; Correction Code (A.M.) Daily Moisturizer Broad Spectrum SPF 25; Correway Sunscreen (Non-waterproof); Cosmedix SPF50; Cotton Candy Sunscreen Lip Moisturizer; Cover Fx Total Coverage Cream Foundation SPF 30; Cover Tint SPF 20 - Dark; Cover Tint SPF 20 - Light; Cover Tint SPF 20 - Medium; Cream; Creme Anti-rides Auto-bronzante SPF 15; Creme Auto-bronzante Bronze Dore SPF 15; Creme Bronzante Neige Et Montagne; Creme D'activation; Creme De Traitement Des Intolerances Solaires; Creme Ecran Solaire; Creme Haute Exigence Jour SPF 20; Creme Hiver - Creme; Creme Pour Peaux Intolerantes Au Soleil; Creme Solaire Anti-age SPF 20; Creme Solaire Anti-rides SPF 10; Creme Solaire Anti-rides Visage SPF 20; Creme Solaire Anti-rides Visage SPF 30; Creme Solaire Bronzage Rapide Special Peaux Mates SPF 10; Creme Solaire Bronzage Securite SPF 15; Creme Solaire Bronzage Securite SPF 20; Creme Solaire Bronzage Securite Special Visage SPF 15; Creme Solaire Ecran Special Visage SPF 30; Creme Solaire Fps 15; Creme Solaire Haute Protection Special Enfants Et Peaux Reactives Au Soleil SPF 30; Creme Solaire Haute Protection Special Sports SPF 15; Creme Solaire No.40; Creme Solaire SPF 15; Crescent White Uv Protector Broad Spectrum SPF 50; Croc Bloc Broad Spectrum SPF 30 FPS Ecran Solaire; Croc Bloc Broad Spectrum SPF 50 Fps Ecran Solaire; Croc Bloc Combinator SPF 15; Croc Bloc SPF 30 Fps Ecran Solaire; Cross-terrain SPF 50; Cvs SPF 8; Cyber White Brilliant Cells Full Spectrum Brightening Uv Protector SPF 50; Cyberwhite EX Extra Intensive Bb Creme Multi Action Formula Spf35; Cyberwhite Hd Bb Advanced Brightening Broad Spectrum SPF 50; Cyberwhite Hd Uv Protector Broad Spectrum SPF 50; Cyzone Express Your Face; Cyzone SUN BY ME Sunblock SPF 50; Cyzone Sun By Me; Cyzone Sun By Me Face Screen Fps 50 Amplio Espectro; Cyzone better lips balm; DDF Weightless Defense Hydrator Broad Spectrum SPF 45; DEET FREE BULLFROG Mosquito Coast Sunscreen with Insect Repellent SPF 30; DHC Camu Camu White Day Milk; DIORSNOW BB Creme 010 White Reveal UV Protection Sunscreen Broad Spectrum SPF 50; DIORSNOW BB Creme 020 White Reveal UV Protection Sunscreen Broad Spectrum SPF 50; DIORSNOW UV Shield White Reveal UV Protection BB Creme Pearly White SPF 50; DIORSNOW WHITE REVEAL PURE TRANSPARENCY MAKEUP SPF 30 010 Ivory; DIORSNOW WHITE REVEAL PURE TRANSPARENCY MAKEUP SPF 30 012 Porcelain; DIORSNOW WHITE REVEAL PURE TRANSPARENCY MAKEUP SPF 30 020 Light Beige; DIORSNOW WHITE REVEAL PURE TRANSPARENCY MAKEUP SPF 30 021 Linen; DIORSNOW WHITE REVEAL PURE TRANSPARENCY MAKEUP SPF 30 030 Medium Beige; DNA Defense SPF 30; DOCTOR WHITE Advanced Radiance UV Shield SPF 50; Daily Anti-wrinkle Moisturizer; Daily Anti-wrinkle Moisturizing Lotion; Daily Body Moisture Hydrating Complex SPF8; Daily Defense Broad Spectrum SPF 30; Daily Defense SPF 15; Daily Defense SPF 30; Daily Deflector Mineral Sunscreen SPF 40; Daily Deflector Moisturizer SPF 20; Daily Deflector Moisturizer SPF 50; Daily Essential Moisturiser; Daily Face Protectant SPF 30; Daily Moisture Drink SPF 15 Lotion; Daily Moisturizing Cream SPF 15; Daily Moisturizing Lotion SPF 15; Daily Moisturizing SPF 15; Daily Protect Sunscreen Moisturizer Broad Spectrum SPF 30; Daily Protection Moisturizer With Sunscreen SPF 15; Daily SPF 30; Daily SPF30; Daily Wear Moisturizer SPF-20; Damage Control Water Resistant Sunscreen SPF 30; Dark Skin Defense Concealer Broad Spectrum SPF 15 Jafra; Dark Tanning 4 SPF Dry Oil Spray; Darphin Cc Cream Instant Multi-benefit Care SPF 35; Darphin Cc Instant Multi-benefit Care Broad Spectrum SPF 35; Day C; Day Care for Hands Broad Spectrum SPF 15 Jafra; Day Cream - 10 SPF; Day Cream SPF 15; Day Cream SPF 30; Day Defense Treatment SPF 15; Day Face SPF 15; Day Facial Moisturizer With SPF 15; Day Hydrator SPF-15; Day Lotion - 10 SPF; Day Moisturizer Broad Spectrum SPF 30 With Skin Firming Retinol; Day Protection SPF 30; Day Wear Advanced Multi-protection Anti-oxidant and Uv Defense Broad Spectrum SPF 30; Daylogic Tinted Daily Moisturizer SPF 30; Daytime Anti-wrinkle Cream; Daytime Firming Lotion; Daytime Smoothing Cream Level 3; Daywear Bb Anti Oxidant Beauty Benefit Broad Spectrum SPF 35; Ddf Ultra-lite Oil-free Moisturizing Dew Uv Moisturizer SPF 45; De-Aging Moisturizing Day Creme With Sunscreen SPF 20; Dearderm Daily Mositure Sunscreen; Deb Sunprotect SPF 33; Deep Moisture Renewal With SPF 15; Deep Renewal; Deep Wrinkle Moisture; Defend and Restore Moisture CRème; Defend and Restore Moisture Lotion; Defense Uv; Defense Zone C/S Broad Spectrum SPF 30; Defense Zone Kids C/S Broad Spectrum SPF 50; Defense Zone Sport Broad Spectrum SPF 30 Sunscreen; Defense Zone Sport Broad Spectrum SPF 50 Sunscreen; Defense Zone Sport C/S Broad Spectrum SPF 30; Defense Zone Sport C/S Broad Spectrum SPF 50; Delon Tropic High Protection Sun Spray SPF 30; Dentec Lip Balm; Dentec Lotion; Derma Brilliance Sunscreen SPF 30; Derma Brite SPF 35; Derma Fade; Derma Soleil Dry Sport SPF 30; Derma Soleil Dry Sports 30 SPF; Derma Soleil Health Natural Sunblock SPF 15; Derma Soleil Health Natural Sunblock SPF 30; Derma Soleil Health Natural Sunblock SPF 45; Derma Soleil Kids Natural Sunblock SPF 30; Derma Soleil Kids Natural Sunblock SPF 45; Derma Soleil Natural Age-Free Facial Sunblock SPF 30; Derma Soleil Natural Age-free Facial Sunblock SPF 30; Derma Soleil Natural Sunblock SPF 15; Derma Soleil Natural Sunblock SPF 30; Derma Soleil Natural Sunblock SPF 45; Dermablend Advanced Fade Cream With Sunscreen and Moisturizing Aha; Dermablend Chromatone Fade Cream With Sunscreen; Dermajetics Concealing Pencil - SPF 15; Dermajetics Day Defense SPF 10; Dermajetics Hydrating Liquid Foundation SPF-15; Dermajetics Nature's Mirror Balancing Moisturizer Spf4; Dermajetics Nature's Mirror Hydrating Moisturizer SPF 4; Dermajetics Nature's Mirror Oil-free Moisturizer SPF 4; Dermalogica Full Spectrum Block SPF 15; Dermalogica Pigment Relief SPF 15; Dermalogica Protective Self Tan SPF 15; Dermalogica Solar Defense Booster SPF 30; Dermaprot Helioprot Ab SPF 30; Dermaspf Sun Protect SPF 15; Dermaspf Sun Protect SPF 30; Dermaspf Sun Protect SPF 45; Dermatological Sun Protection; Dermatone; Dermatone Lip Balm; Dermatone Moisturising Uva/uvb Creme; Dermatone SPF 23 Lips N Face Protector; Dermatone Skin Protector; Dermatone Skin Protector - Pommade; Dermisa SUNSCREEN SPF 55 BROAD SPECTRUM; Desert Bambu Dark Tanning SPF 2; Desert Bambu Lip Balm SPF 15; Desert Bambu Sunscreen SPF 30; Desert Beige Always Stay-on Makeup SPF 15 Jafra; Desert Spirit Lip Balm SPF 15; Desert Spirit Sunscreen; Deserving Health Natural Age-Free Facial Sunblock; Deserving Health Natural Age-Free Facial Sunblock 30 SPF; Deserving Health Natural Sunblock; Destination Brands International BROAD SPECTRUM SPF 50 Sunscreen; Diane Von Furstenberg Skin Tint / Fluide De Teint (honey, Myrrh,cinnamon); Diane Von Furstenberg Skin Tint /fluide De Teint (ivory, Nectar, Alabaster); Dior Bronze Autobronzant Eclat Du Visage; Dior Bronze Collagen Activ SPF 15 001; Dior Bronze Collagen Activ SPF 15 002; Dior Bronze Collagen Activ SPF 15 003; Dior Bronze Collagen Activ SPF 15 004; Dior Bronze Matte Sunshine; Dior Mains; Dior Snow Light Veil 010 Ivory SPF 20; Dior Snow Light Veil 012 Porcelain SPF 20; Dior Snow Uvx2 Ultra-perfecteur De Teint SPF 35 - Beige 02; Dior Snow Uvx2 Ultra-perfecteur De Teint SPF 35 - Mauve 01; DiorSnow Light Veil 020 Light Beige SPF 20; DiorSnow Light Veil 021 Linen SPF 20; DiorSnow White Reveal Instant Spot Concealer SPF 50 Ivory 010; DiorSnow White Reveal Instant Spot Concealer SPF 50 Light Beige 020; Diorprestige White Collection Satin Brightening Uv Base SPF 50; Diorskin Compact; Diorskin Eclat Doux; Diorskin Forever Compact; Diorskin Nude Compact Gelée Effet Peau Nue; Diorskin Nude Natural Glow Makeup 010 Ivory; Diorskin Nude Natural Glow Makeup 020 Light Beige; Diorskin Nude Natural Glow Makeup 022 Cameo; Diorskin Nude Natural Glow Makeup 030 Medium Beige; Diorskin Nude Natural Glow Makeup 040 Honey Beige; Diorskin Nude Natural Glow Makeup 050 Dark Beige; Diorskin Nude Natural Glow Makeup 070 Dark Brown; Diorsnow Uv Shield Bb Creme White Reveal Uv Protection SPF 50; Diorsnow White Reveal Perfecting Makeup Uv Base SPF 35 Beige Cristal; Diorsnow White Reveal Perfecting Makeup Uv Base SPF 35 Bleu Cristal; Diorsnow White Reveal Perfecting Makeup Uv Base SPF 35 Rose Cristal; Disney Baby Einstein SPF 45 Lotion; Disney Cars Lip Smacker SPF Lip Balm; Disney Classic Characters Lip Smacker SPF Lip Balm; Disney Frozen SPF Lip Smacker Lip Balm; Disney Little Mermaid SPF Lip Smacker Lip Balm; Disney Pirates Of The Caribbean SPF 30 Continuous Spray No Pumping Needed; Disney SPF 30 Continuous Spray No Pumping Needed Fairies; Disney Sun Pals SPF 30 Continuous Spray No Pumping Needed Nemo; Disney Sun Pals SPF 30 Sun Protection Spray; Disney Sun Pals SPF 45 Lotion Mermaid; Disney Sun Pals SPF 45 Lotion Nemo; Disney Sun Pals SPF 45 Lotion Pooh Bear; Dml Facial Moisturizer With Sunscreen; Do The Right Thing Smoothing Body Lotion SPF 15; Doc Block Body Essential Sunscreen Broad Spectrum SPF30; Dollar General Studio Selection Sun Sunscreen Broad Spectrum SPF 70; Dollar General Studio Selection Sun Sunscreen Broad Spectrum SPF 85 with Aloe; Dollar General Studio Selection Sun Tanning Dry Oil Broad Spectrum SPF 15 Sunscreen; Donald Duck Sun Smacker SPF 24 Tropical Touchdown; Donna Karan Cashmere Mist Hand Conditioning Creme SPF 15; Dormer 211 Face Cream SPF 15; Dormer 211 SPF 30; Dr. Evans Oil-Free DEFENSE DAY TINTED MOISTURIZER SPF 55; Dr. Russo Day Moisturizer SPF 30; Drula Fade Cream Extra-medicated; Drula Fade Cream Medium-medicated; Drula Fade Cream Normal-medicated; Drula Fade Cream Superforte Medicated; Dry Balance Sunscreen Spray SPF 30; Dry Balance Sunscreen Spray SPF 50+; Dry Oil Antioxidant Sun Protection; Dry Oil Huile Sèche SPF/fps 4; Dry Oil Sunscreen; Dual Spectrum SPF 30; Duane Reade Baby SunscreenSPF 50 SPF 50; Duane Reade Oil Free Sunscreen SPF 30; Duane Reade Prevail Moisturizing Sunscreen SPF 30; Duane Reade Prevail Moisturizing Sunscreen SPF 50; Duane Reade Prevail Moisturizing Sunscreen SPF 80; Duane Reade Sport Sunscreen SPF 50; Duane Reade Sports Sunscreen SPF 30; Duane Reade Sports Sunscreen SPF 50; Duane Reade Sunscreen SPF 15; Duane Reade Sunscreen SPF 30; Duane Reade Sunscreen SPF 50; Duane Reade Sunscreen SPF 70; Duke Cannon Standard Issue Face; Durascreen SPF 15-lot; Durascreen SPF 30; Dynamic Defence Concentrate Anti-Ageing Day SPF 15; Dynamic Skin Recovery SPF 30; Dynamic Skin Recovery SPF30; Dynamic Skin SPF 30; Défense Plein Soleil; EAD Kids; ELF Beauty Shield SPF 50 Skin Shielding Moisturizer; ELF Broad Spectrum SPF 20 Sunscreen BB Cream Beige; ELF Broad Spectrum SPF 20 Sunscreen BB Cream Buff; ELF Broad Spectrum SPF 20 Sunscreen BB Cream Dark; ELF Broad Spectrum SPF 20 Sunscreen BB Cream Fair; ELF Broad Spectrum SPF 20 Sunscreen BB Cream Medium; ELF Broad Spectrum SPF 20 Sunscreen BB Cream Nude; ELF Broad Spectrum SPF 20 Sunscreen Beige BB Cream; ELF Broad Spectrum SPF 20 Sunscreen Buff BB Cream; ELF Broad Spectrum SPF 20 Sunscreen Dark BB Cream; ELF Broad Spectrum SPF 20 Sunscreen Fair BB Cream; ELF Broad Spectrum SPF 20 Sunscreen Nude BB Cream; ELF Clear SPF 20 Sunscreen Face Primer; ELF Conditioning Lip Balm SPF 15; ELF Daily Hydration Moisturizer SPF 15; ELF Lip Balm SPF 15; ELF Lip Balm SPF 15 Color; ELF SPF 20 Sunscreen Face Primer Clear; ELF SPF 20 Sunscreen UVA/UVB Tinted Moisturizer Almond; ELF SPF 20 Sunscreen UVA/UVB Tinted Moisturizer Beige; ELF SPF 20 Sunscreen UVA/UVB Tinted Moisturizer Espresso; ELF SPF 20 Sunscreen UVA/UVB Tinted Moisturizer Ivory; ELF SPF 20 Sunscreen UVA/UVB Tinted Moisturizer Mocha; ELF SPF 20 Sunscreen UVA/UVB Tinted Moisturizer Nude; ELF SPF 20 Sunscreen UVA/UVB Tinted Moisturizer Porcelain; ELF SPF 20 Sunscreen UVA/UVB Tinted Moisturizer Sand; ELF SPF 20 Sunscreen UVAUVB Tinted Moisturizer Nude; ELF Super Glossy Lip Shine SPF 15; ELF Tinted Moisturizer SPF 15; ELF Tinted Moisturizer SPF 20; ESIKA 3-in-1 Pro Makeup Foundation SPF 20; ESIKA Core Sensations; ESIKA Extreme Moisturizing SPF 16; ESIKA Extreme Moisturizing SPF 16 (BORGONA SEXY) - BROWN; ESIKA Extreme Moisturizing SPF 16 (CAFE MOCA) - BROWN; ESIKA Extreme Moisturizing SPF 16 (CEREZA HECHIZO) - RED; ESIKA Extreme Moisturizing SPF 16 (CORAL CHIC) - PINK; ESIKA Extreme Moisturizing SPF 16 (FRAMBUESA MANIA) - RED; ESIKA Extreme Moisturizing SPF 16 (FUCSIA CAUTIVANTE) - PURPLE; ESIKA Extreme Moisturizing SPF 16 (FUCSIA GLAM) - PURPLE; ESIKA Extreme Moisturizing SPF 16 (GRANATE SEDUCTOR) - PURPLE; ESIKA Extreme Moisturizing SPF 16 (MAGENTA TRAVIESA) - PURPLE; ESIKA Extreme Moisturizing SPF 16 (MARRON GLAMOUR) - BROWN; ESIKA Extreme Moisturizing SPF 16 (MORADO EXUBERANTE) - PURPLE; ESIKA Extreme Moisturizing SPF 16 (NARANJA PRIMAVERA) - RED; ESIKA Extreme Moisturizing SPF 16 (PIMIENTA CALIENTE) - BROWN; ESIKA Extreme Moisturizing SPF 16 (ROJO DESEO) - RED; ESIKA Extreme Moisturizing SPF 16 (ROJO INTRIGANTE) - RED; ESIKA Extreme Moisturizing SPF 16 (ROJO LUJURIA) - RED; ESIKA Extreme Moisturizing SPF 16 (ROSA DIVA) - RED; ESIKA Extreme Moisturizing SPF 16 (ROSA DULZURA) - PINK; ESIKA Extreme Moisturizing SPF 16 (ROSA ENCANTO) - PINK; ESIKA Extreme Moisturizing SPF 16 (ROSA ESPLENDOR) - PINK; ESIKA Extreme Moisturizing SPF 16 (ROSA ROMANTICA) - PINK; ESIKA HYDRACOLOR 2 IN 1 HIGHLY MOISTURIZING AND Coloring SPF 25 (BORGONA SEXY EXOTIC) - PURPLE; ESIKA HYDRACOLOR 2 IN 1 HIGHLY MOISTURIZING AND Coloring SPF 25 (BORGONA SEXY) - PURPLE; ESIKA HYDRACOLOR 2 IN 1 HIGHLY MOISTURIZING AND Coloring SPF 25 (CANELA NUDE) - ORANGE; ESIKA HYDRACOLOR 2 IN 1 HIGHLY MOISTURIZING AND Coloring SPF 25 (CORAL CHIC EXOTIC) - ORANGE; ESIKA HYDRACOLOR 2 IN 1 HIGHLY MOISTURIZING AND Coloring SPF 25 (CORAL CHIC) - PINK; ESIKA HYDRACOLOR 2 IN 1 HIGHLY MOISTURIZING AND Coloring SPF 25 (CORAL CUARZO) - ORANGE; ESIKA HYDRACOLOR 2 IN 1 HIGHLY MOISTURIZING AND Coloring SPF 25 (CORAL INTENSE) - RED; ESIKA HYDRACOLOR 2 IN 1 HIGHLY MOISTURIZING AND Coloring SPF 25 (DORADO ESENCIAL) - YELLOW; ESIKA HYDRACOLOR 2 IN 1 HIGHLY MOISTURIZING AND Coloring SPF 25 (FRAMBUESA MANIA EXOTIC) - PINK; ESIKA HYDRACOLOR 2 IN 1 HIGHLY MOISTURIZING AND Coloring SPF 25 (FRAMBUESA MANIA) - RED; ESIKA HYDRACOLOR 2 IN 1 HIGHLY MOISTURIZING AND Coloring SPF 25 (FRESA COQUETA) - RED; ESIKA HYDRACOLOR 2 IN 1 HIGHLY MOISTURIZING AND Coloring SPF 25 (FUCSIA AMATISTA) - PINK; ESIKA HYDRACOLOR 2 IN 1 HIGHLY MOISTURIZING AND Coloring SPF 25 (FUCSIA CAUTIVANTE EXOTIC) - PINK; ESIKA HYDRACOLOR 2 IN 1 HIGHLY MOISTURIZING AND Coloring SPF 25 (FUCSIA CAUTIVANTE FEMME) - PINK; ESIKA HYDRACOLOR 2 IN 1 HIGHLY MOISTURIZING AND Coloring SPF 25 (FUCSIA CAUTIVANTE) - PINK; ESIKA HYDRACOLOR 2 IN 1 HIGHLY MOISTURIZING AND Coloring SPF 25 (FUCSIA PRISMA) - RED; ESIKA HYDRACOLOR 2 IN 1 HIGHLY MOISTURIZING AND Coloring SPF 25 (GRANATE SEDUCTOR FEMME) - PURPLE; ESIKA HYDRACOLOR 2 IN 1 HIGHLY MOISTURIZING AND Coloring SPF 25 (GRANATE SEDUCTOR) - PURPLE; ESIKA HYDRACOLOR 2 IN 1 HIGHLY MOISTURIZING AND Coloring SPF 25 (MARRON GLAMOUR EXOTIC) - BROWN; ESIKA HYDRACOLOR 2 IN 1 HIGHLY MOISTURIZING AND Coloring SPF 25 (MARRON GLAMOUR) - BROWN; ESIKA HYDRACOLOR 2 IN 1 HIGHLY MOISTURIZING AND Coloring SPF 25 (MARRON TOPACIO) - BROWN; ESIKA HYDRACOLOR 2 IN 1 HIGHLY MOISTURIZING AND Coloring SPF 25 (MORA GLAM) - BROWN; ESIKA HYDRACOLOR 2 IN 1 HIGHLY MOISTURIZING AND Coloring SPF 25 (NARANJA ESFERA) - ORANGE; ESIKA HYDRACOLOR 2 IN 1 HIGHLY MOISTURIZING AND Coloring SPF 25 (NARANJA PRIMAVERA) - ORANGE; ESIKA HYDRACOLOR 2 IN 1 HIGHLY MOISTURIZING AND Coloring SPF 25 (NUDE INFINITO) - BROWN; ESIKA HYDRACOLOR 2 IN 1 HIGHLY MOISTURIZING AND Coloring SPF 25 (NUDE PRISMA) - ORANGE; ESIKA HYDRACOLOR 2 IN 1 HIGHLY MOISTURIZING AND Coloring SPF 25 (PIMIENTA CALIENTE EXOTIC) - RED; ESIKA HYDRACOLOR 2 IN 1 HIGHLY MOISTURIZING AND Coloring SPF 25 (PIMIENTA CALIENTE FEMME) - RED; ESIKA HYDRACOLOR 2 IN 1 HIGHLY MOISTURIZING AND Coloring SPF 25 (PIMIENTA CALIENTE) - BROWN; ESIKA HYDRACOLOR 2 IN 1 HIGHLY MOISTURIZING AND Coloring SPF 25 (ROJO DESEO EXOTIC) - RED; ESIKA HYDRACOLOR 2 IN 1 HIGHLY MOISTURIZING AND Coloring SPF 25 (ROJO DESEO) - RED; ESIKA HYDRACOLOR 2 IN 1 HIGHLY MOISTURIZING AND Coloring SPF 25 (ROJO ESIKA) - RED; ESIKA HYDRACOLOR 2 IN 1 HIGHLY MOISTURIZING AND Coloring SPF 25 (ROJO INTRIGANTE FEMME) - RED; ESIKA HYDRACOLOR 2 IN 1 HIGHLY MOISTURIZING AND Coloring SPF 25 (ROJO INTRIGANTE) - RED; ESIKA HYDRACOLOR 2 IN 1 HIGHLY MOISTURIZING AND Coloring SPF 25 (ROJO LUJURIA) - RED; ESIKA HYDRACOLOR 2 IN 1 HIGHLY MOISTURIZING AND Coloring SPF 25 (ROSA DULZURA) - PINK; ESIKA HYDRACOLOR 2 IN 1 HIGHLY MOISTURIZING AND Coloring SPF 25 (ROSA ENCANTO EXOTIC) - PINK; ESIKA HYDRACOLOR 2 IN 1 HIGHLY MOISTURIZING AND Coloring SPF 25 (ROSA ENCANTO FEMME) - PINK; ESIKA HYDRACOLOR 2 IN 1 HIGHLY MOISTURIZING AND Coloring SPF 25 (ROSA ENCANTO) - PINK; ESIKA HYDRACOLOR 2 IN 1 HIGHLY MOISTURIZING AND Coloring SPF 25 (ROSA GEOMETRIC) - PINK; ESIKA HYDRACOLOR 2 IN 1 HIGHLY MOISTURIZING AND Coloring SPF 25 (ROSA ROMANTICA FEMME) - PINK; ESIKA HYDRACOLOR 2 IN 1 HIGHLY MOISTURIZING AND Coloring SPF 25 (ROSA ROMANTICA) - PINK; ESIKA HYDRACOLOR 2 IN 1 Highly Moisturizing and coloring SPF 25 (BORGONA SEXY) - PURPLE; ESIKA HYDRACOLOR 2 IN 1 Highly Moisturizing and coloring SPF 25 (CANELA NUDE) - ORANGE; ESIKA HYDRACOLOR 2 IN 1 Highly Moisturizing and coloring SPF 25 (CORAL CHIC) - PINK; ESIKA HYDRACOLOR 2 IN 1 Highly Moisturizing and coloring SPF 25 (CORAL INTENSE) - RED; ESIKA HYDRACOLOR 2 IN 1 Highly Moisturizing and coloring SPF 25 (FRAMBUESA MANIA) - RED; ESIKA HYDRACOLOR 2 IN 1 Highly Moisturizing and coloring SPF 25 (FRESA COQUETA) - RED; ESIKA HYDRACOLOR 2 IN 1 Highly Moisturizing and coloring SPF 25 (FUCSIA CAUTIVANTE FEMME) - PINK; ESIKA HYDRACOLOR 2 IN 1 Highly Moisturizing and coloring SPF 25 (FUCSIA CAUTIVANTE) - PINK; ESIKA HYDRACOLOR 2 IN 1 Highly Moisturizing and coloring SPF 25 (GRANATE SEDUCTOR FEMME) - PURPLE; ESIKA HYDRACOLOR 2 IN 1 Highly Moisturizing and coloring SPF 25 (GRANATE SEDUCTOR) - PURPLE; ESIKA HYDRACOLOR 2 IN 1 Highly Moisturizing and coloring SPF 25 (MARRON GLAMOUR) - BROWN; ESIKA HYDRACOLOR 2 IN 1 Highly Moisturizing and coloring SPF 25 (MORA GLAM) - BROWN; ESIKA HYDRACOLOR 2 IN 1 Highly Moisturizing and coloring SPF 25 (NARANJA PRIMAVERA) - ORANGE; ESIKA HYDRACOLOR 2 IN 1 Highly Moisturizing and coloring SPF 25 (PIMIENTA CALIENTE FEMME) - RED; ESIKA HYDRACOLOR 2 IN 1 Highly Moisturizing and coloring SPF 25 (PIMIENTA CALIENTE) - BROWN; ESIKA HYDRACOLOR 2 IN 1 Highly Moisturizing and coloring SPF 25 (ROJO DESEO) - RED; ESIKA HYDRACOLOR 2 IN 1 Highly Moisturizing and coloring SPF 25 (ROJO INTRIGANTE FEMME) - RED; ESIKA HYDRACOLOR 2 IN 1 Highly Moisturizing and coloring SPF 25 (ROJO INTRIGANTE) - RED; ESIKA HYDRACOLOR 2 IN 1 Highly Moisturizing and coloring SPF 25 (ROJO LUJURIA) - RED; ESIKA HYDRACOLOR 2 IN 1 Highly Moisturizing and coloring SPF 25 (ROSA DULZURA) - PINK; ESIKA HYDRACOLOR 2 IN 1 Highly Moisturizing and coloring SPF 25 (ROSA ENCANTO FEMME) - PINK; ESIKA HYDRACOLOR 2 IN 1 Highly Moisturizing and coloring SPF 25 (ROSA ENCANTO) - PINK; ESIKA HYDRACOLOR 2 IN 1 Highly Moisturizing and coloring SPF 25 (ROSA ROMANTICA FEMME) - PINK; ESIKA HYDRACOLOR 2 IN 1 Highly Moisturizing and coloring SPF 25 (ROSA ROMANTICA) - PINK; ESIKA Hydro-Nutrative Foundation SPF 13; ESIKA Maximum Color SPF 18; ESIKA NATURAL CARE CONCHA DE NACAR AND ROSA MOSQUETA facial FPS 15; ESIKA Perfect Match SPF 20 CEREZA DEEP; ESIKA Perfect Match SPF 20 CHERRY CLASS; ESIKA Perfect Match SPF 20 COFFEE SWEET; ESIKA Perfect Match SPF 20 CORAL SEDUCTION; ESIKA Perfect Match SPF 20 DURAZNO GLAM; ESIKA Perfect Match SPF 20 FUCSIA FEMME; ESIKA Perfect Match SPF 20 RED SUPREME; ESIKA Perfect Match SPF 20 ROSA BELLE; ESIKA Perfect Match SPF 20 ROSA CANDY; ESIKA Perfect Match SPF 20 VINO MIDNIGHT; ESIKA Perfect Sun Kids; ESIKA Ultra Softening SPF 15; ESTEE LAUDER MULTI-DEFENSE AQUA UV gel BROAD SPECTRUM SPF 50; EXTRASHADE Daily Defense Hydrating Sunscreen SPF 30; Ea Eight Hr Lip Sheer Tints; Ead; Easy Block Spray Lotion SPF 30+; Eco Lips Berry Sunscreen Lip Balm SPF 15; Eco Lips Lip Balm; Eco Lips Lip Balm SPF 30; Eco Lips Mint Sunscreen Lip Balm SPF 15; Eco Lips PlantPod Sunscreen Lip Balm Sport SPF 30; Eco SPF30 Sun Stick; Ecran Solaire Fps 30 Lot; Ecran Soleil; Effet Parfait Hydratess Long-lasting Intense Moisturizing SPF 20 (almond) - Brown; Effet Parfait Hydratess Long-lasting Intense Moisturizing SPF 20 (amour) - Red; Effet Parfait Hydratess Long-lasting Intense Moisturizing SPF 20 (cherry Blossom) - Red; Effet Parfait Hydratess Long-lasting Intense Moisturizing SPF 20 (chocolat) - Brown; Effet Parfait Hydratess Long-lasting Intense Moisturizing SPF 20 (frenesie) - Pink; Effet Parfait Hydratess Long-lasting Intense Moisturizing SPF 20 (fucsia) - Purple; Effet Parfait Hydratess Long-lasting Intense Moisturizing SPF 20 (lily Beige) - Pink; Effet Parfait Hydratess Long-lasting Intense Moisturizing SPF 20 (malve) - Red; Effet Parfait Hydratess Long-lasting Intense Moisturizing SPF 20 (mandarine) - Orange; Effet Parfait Hydratess Long-lasting Intense Moisturizing SPF 20 (marron Glace) - Brown; Effet Parfait Hydratess Long-lasting Intense Moisturizing SPF 20 (moka) - Pink; Effet Parfait Hydratess Long-lasting Intense Moisturizing SPF 20 (nude Intime) - Pink; Effet Parfait Hydratess Long-lasting Intense Moisturizing SPF 20 (nude) - Pink; Effet Parfait Hydratess Long-lasting Intense Moisturizing SPF 20 (red Extassy) - Red; Effet Parfait Hydratess Long-lasting Intense Moisturizing SPF 20 (riche Pink) - Red; Effet Parfait Hydratess Long-lasting Intense Moisturizing SPF 20 (romance) - Pink; Effet Parfait Hydratess Long-lasting Intense Moisturizing SPF 20 (rose Clasique) - Pink; Effet Parfait Hydratess Long-lasting Intense Moisturizing SPF 20 (rose Natural) - Pink; Effet Parfait Hydratess Long-lasting Intense Moisturizing SPF 20 (rouge Intense) - Red; Effet Parfait Hydratess Long-lasting Intense Moisturizing SPF 20 (soleil) - Orange; Effet Parfait Hydratess Long-lasting Intense Moisturizing SPF 20 (tea Rose) - Pink; Effet Parfait Hydratess Long-lasting Intense Moisturizing SPF 20 (terre) - Brown; Effet Parfait Hydratess Long-lasting Intense Moisturizing SPF 20 (tulip) - Pink; Effet Parfait Hydratess Long-lasting Intense Moisturizing SPF 20 (vin Amant) - Purple; Effet Parfait Hydratess Long-lasting Intense Moisturizing SPF 20 (vin) - Brown; Eight Hour Cream Intensive Daily Moisturizer For Face SPF 15; Eight Hour Cream Lip Protectant SPF 15; Eight Hour Cream Lip Protectant Sheer Tint SPF 15 Berry; Eight Hour Cream Lip Protectant Sheer Tint SPF 15 Blush; Eight Hour Cream Lip Protectant Sheer Tint SPF 15 Chestnut; Eight Hour Cream Lip Protectant Sheer Tint SPF 15 Honey; Eight Hour Cream Lip Protectant Sheer Tint SPF 15 Melon; Eight Hour Cream Lip Protectant Sheer Tint SPF 15 Plum; Eight Hour Cream Targeted Sun Defense SPF 50; Eight Hour Lip SPF 15; Elastology Age Blocker; Elastology Age Blocker Moisturizer and SPF 30 Sunscreen; Elastology Age Blocker SPF 25; Elemental Resestance Broad Spectrum SPF 50 Vertra; Elemental Resistance Broad Spectrum SPF 50 Vertra; Elf Bb SPF-20; Elf Tinted Moisturizer SPF-20; Elizabeth Arden Ceramide Plump Perfect Eye Moisture Cream-SPF 15; Elizabeth Arden Ceramide Plump Perfect Lip Moisture Cream-spf30; Elizabeth Arden Ceramide Plump Perfect Moisture Cream - SPF 15; Elizabeth Arden Extreme Conditioning Cream; Elizabeth Arden First Defense Protective Cream; Elizabeth Arden First Defense Protective Lotion; Elizabeth Arden Intervene Radiance Boosting Moisture Lotion SPF 15; Elizabeth Arden Let There Be Light Radiant Skin Lotion; Elizabeth Arden Lip Protectant Stick SPF 15; Elizabeth Arden Moisture Shield SPF 15; Elizabeth Arden Sheer Lights Illuminating Tinted Moisturizer; Emerita Day Face Cream SPF 15; Energizing Pomegranate Moisturizer SPF 15; Enlighten Ee Even Effect Skin Tone Corrector SPF Broad Spectrum SPF 30; Enriching Moisturizer 1; Environmental Defense Sunscreen SPF 50; Equaline Kids Continuous Sunscreen SPF 50; Equaline Sport Sunscreen SPF 30; Equate; Equate Baby Sunscreen; Equate Baby Sunscreen Lotion SPF/fps 60; Equate Beauty Daily Moisturizer SPF-30 Sunscreen; Equate Beauty Ultra Light SPF 100; Equate Beauty Ultra Light Sunscreen SPF 70; Equate Beauty Ultra Light Sunscreen SPF70 Broad spectrum; Equate Face; Equate Kids Sunscreen Lotion SPF/fps 60; Equate Moisture SPF 15 Lip Balm; Equate SPF 50 Sport Sunscreen; Equate SPF 70 Ultra Sunscreen; Equate Sport Sunscreen Continous Spray SPF/fps 15; Equate Sport Sunscreen Continuous Spray SPF/fps 60; Equate Sport Sunscreen Continuous Spray SPF/fps30; Equate Sport Sunscreen Lotion SPF/fps 30; Equate Sport Sunscreen Lotion SPF/fps 60; Equate Sunscreen Continuous Spray SPF/fps 15; Equate Sunscreen Lotion SPF/fps 30; Equate Sunscreen SPF 70 SPORT Broad spectrum; Equate Sunscreen SPF100 SPORT Broad Spectrum; Equate Sunscreen SPF70 ULTRA Broad spectrum; Equate Sunscreen SPORT SPF 100; Equate Ultra Light Sunscreen MIST SPF70; Equate beauty ultra light Suncreen SPF 55; Erno Laszlo Moisturizing Antioxidant Complex SPF 15; Erno Laszlo R.E.M. SPF 30; Esika 3-IN-1 Pro Make Up Foundation SPF 20 Base De Maquillaje Para Rostro 3-EN-1 Pro Fps 20 (beige 1) - Beige; Esika 3-IN-1 Pro Make Up Foundation SPF 20 Base De Maquillaje Para Rostro 3-EN-1 Pro Fps 20 (beige 2) - Beige; Esika 3-IN-1 Pro Make Up Foundation SPF 20 Base De Maquillaje Para Rostro 3-EN-1 Pro Fps 20 (beige 3) - Beige; Esika 3-IN-1 Pro Make Up Foundation SPF 20 Base De Maquillaje Para Rostro 3-EN-1 Pro Fps 20 (beige 4) - Beige; Esika 3-IN-1 Pro Make Up Foundation SPF 20 Base De Maquillaje Para Rostro 3-EN-1 Pro Fps 20 (beige 5) - Beige; Esika 3-IN-1 Pro Make Up Foundation SPF 20 Base De Maquillaje Para Rostro 3-EN-1 Pro Fps 20 (beige 6) - Beige; Esika 3-IN-1 Pro Make Up Foundation SPF 20 Base De Maquillaje Para Rostro 3-EN-1 Pro Fps 20 (rose 1) - Rose; Esika 3-IN-1 Pro Make Up Foundation SPF 20 Base De Maquillaje Para Rostro 3-EN-1 Pro Fps 20 (rose 2) - Rose; Esika 3-IN-1 Pro Make Up Foundation SPF 20 Base De Maquillaje Para Rostro 3-EN-1 Pro Fps 20 (rose 3) - Rose; Esika 3-IN-1 Pro Make Up Foundation SPF 20 Base De Maquillaje Para Rostro 3-EN-1 Pro Fps 20 (rose 4) - Rose; Esika 3-IN-1 Pro Make Up Foundation SPF 20 Base De Maquillaje Para Rostro 3-EN-1 Pro Fps 20 (rose 5) - Rose; Esika 3-IN-1 Pro Make Up Foundation SPF 20 Base De Maquillaje Para Rostro 3-EN-1 Pro Fps 20 (rose 6) - Rose; Esika Hydracolor 2 In 1 Highly Moisturizing And Coloring Spf 25; Esika Hydracolor 2 In 1 Highly Moisturizing and Coloring SPF 25; Esika Hydracolor 2 In 1 Highly Moisturizing and Coloring SPF 25 (borgona Sexy) - Purple; Esika Hydracolor 2 In 1 Highly Moisturizing and Coloring SPF 25 (coral Chic) - Pink; Esika Hydracolor 2 In 1 Highly Moisturizing and Coloring SPF 25 (frambuesa Mania) - Red; Esika Hydracolor 2 In 1 Highly Moisturizing and Coloring SPF 25 (fucsia Cautivante) - Pink; Esika Hydracolor 2 In 1 Highly Moisturizing and Coloring SPF 25 (granate Seductor) - Purple; Esika Hydracolor 2 In 1 Highly Moisturizing and Coloring SPF 25 (marron Glamour) - Brown; Esika Hydracolor 2 In 1 Highly Moisturizing and Coloring SPF 25 (naranja Primavera) - Orange; Esika Hydracolor 2 In 1 Highly Moisturizing and Coloring SPF 25 (pimienta Caliente) - Brown; Esika Hydracolor 2 In 1 Highly Moisturizing and Coloring SPF 25 (rojo Deseo) - Red; Esika Hydracolor 2 In 1 Highly Moisturizing and Coloring SPF 25 (rojo Intrigante) - Red; Esika Hydracolor 2 In 1 Highly Moisturizing and Coloring SPF 25 (rojo Lujuria) - Red; Esika Hydracolor 2 In 1 Highly Moisturizing and Coloring SPF 25 (rosa Dulzura) - Pink; Esika Hydracolor 2 In 1 Highly Moisturizing and Coloring SPF 25 (rosa Encanto) - Pink; Esika Hydracolor 2 In 1 Highly Moisturizing and Coloring SPF 25 (rosa Romantica) - Pink; Esika Hydracolor 2 In 1 SPF 25; Esika Hydracolor 2 In 1 SPF 25 (borgona Sexy Exotic) - Purple; Esika Hydracolor 2 In 1 SPF 25 (borgona Sexy) - Purple; Esika Hydracolor 2 In 1 SPF 25 (canela Nude) - Orange; Esika Hydracolor 2 In 1 SPF 25 (coral Chic Exotic) - Pink; Esika Hydracolor 2 In 1 SPF 25 (coral Chic) - Pink; Esika Hydracolor 2 In 1 SPF 25 (coral Intense) - Red; Esika Hydracolor 2 In 1 SPF 25 (coral Quarzo) - Orange; Esika Hydracolor 2 In 1 SPF 25 (dorado Esencial) - Yellow; Esika Hydracolor 2 In 1 SPF 25 (frambuesa Mania Exotic) - Red; Esika Hydracolor 2 In 1 SPF 25 (frambuesa Mania) - Red; Esika Hydracolor 2 In 1 SPF 25 (fresa Coqueta) - Red; Esika Hydracolor 2 In 1 SPF 25 (fucsia Amatista) - Red; Esika Hydracolor 2 In 1 SPF 25 (fucsia Cautivante Exotic) - Pink; Esika Hydracolor 2 In 1 SPF 25 (fucsia Cautivante Femme) - Pink; Esika Hydracolor 2 In 1 SPF 25 (fucsia Cautivante) - Pink; Esika Hydracolor 2 In 1 SPF 25 (fucsia Prisma) - Red; Esika Hydracolor 2 In 1 SPF 25 (granate Seductor Femme) - Purple; Esika Hydracolor 2 In 1 SPF 25 (granate Seductor) - Purple; Esika Hydracolor 2 In 1 SPF 25 (marron Glamor Exotic) - Brown; Esika Hydracolor 2 In 1 SPF 25 (marron Glamour) - Brown; Esika Hydracolor 2 In 1 SPF 25 (marron Topacio) - Brown; Esika Hydracolor 2 In 1 SPF 25 (mora Glam) - Brown; Esika Hydracolor 2 In 1 SPF 25 (naranja Esfera) - Orange; Esika Hydracolor 2 In 1 SPF 25 (naranja Primavera) - Orange; Esika Hydracolor 2 In 1 SPF 25 (nude Infinito) - Brown; Esika Hydracolor 2 In 1 SPF 25 (nude Prisma) - Beige; Esika Hydracolor 2 In 1 SPF 25 (pimienta Caliente Exotic) - Brown; Esika Hydracolor 2 In 1 SPF 25 (pimienta Caliente Femme) - Red; Esika Hydracolor 2 In 1 SPF 25 (pimienta Caliente) - Brown; Esika Hydracolor 2 In 1 SPF 25 (rojo Deseo Exotic) - Brown; Esika Hydracolor 2 In 1 SPF 25 (rojo Deseo) - Red; Esika Hydracolor 2 In 1 SPF 25 (rojo Esika) - Orange; Esika Hydracolor 2 In 1 SPF 25 (rojo Intrigante Femme) - Red; Esika Hydracolor 2 In 1 SPF 25 (rojo Intrigante) - Red; Esika Hydracolor 2 In 1 SPF 25 (rojo Lujuria) - Red; Esika Hydracolor 2 In 1 SPF 25 (rosa Dulzura) - Pink; Esika Hydracolor 2 In 1 SPF 25 (rosa Encanto Exotic) - Pink; Esika Hydracolor 2 In 1 SPF 25 (rosa Encanto Femme) - Pink; Esika Hydracolor 2 In 1 SPF 25 (rosa Encanto) - Pink; Esika Hydracolor 2 In 1 SPF 25 (rosa Geometric) - Pink; Esika Hydracolor 2 In 1 SPF 25 (rosa Romantica Femme) - Pink; Esika Hydracolor 2 In 1 SPF 25 (rosa Romantica) - Pink; Esika Natural Care; Esika Perfect Sun; Esika Pro Hydro-nutritive Foundation SPF 15 (beige 1) - Brown; Esika Pro Hydro-nutritive Foundation SPF 15 (beige 2) - Brown; Esika Pro Hydro-nutritive Foundation SPF 15 (beige 3) - Brown; Esika Pro Hydro-nutritive Foundation SPF 15 (beige 4) - Brown; Esika Pro Hydro-nutritive Foundation SPF 15 (beige 5) - Brown; Esika Pro Hydro-nutritive Foundation SPF 15 (beige 6) - Brown; Esika Pro Hydro-nutritive Foundation SPF 15 (rosa 1) - Pink; Esika Pro Hydro-nutritive Foundation SPF 15 (rosa 2) - Pink; Esika Pro Hydro-nutritive Foundation SPF 15 (rosa 3) - Pink; Esika Pro Hydro-nutritive Foundation SPF 15 (rosa 4) - Pink; Esika Pro Hydro-nutritive Foundation SPF 15 (rosa 5) - Pink; Esika Pro Hydro-nutritive Foundation SPF 15 (rosa 6) - Pink; Esika Protector Against Solar Rays for Children, Face and Body SPF 50; Esoterica Daytime with Moisturizers and Sunscreen; Esoterica Daytime with Sunscreen; Esoterica Facial Cream; Esoterica Scented-fortified With Sunscreen; Esoterica Sunscreen Fade Cream; Esoterica Unscented Fortified W.sun Screen; Essential Energy Day Cream; Essential Moisture Lip Conditioner SPF 15; Essential Shockeye and Lip; Essential-C Day Moisture Broad Spectrum SPF 30 Pa+++; Estee Lauder Body Shimmer Sunscreen SPF 15; Estee Lauder Clear Difference Bb Complexion Perfecting Bb CRème SPF 35; Estee Lauder Daywear Advanced Multi-protection Uv Defense SPF 50; Estee Lauder Daywear B.b Multi-perfecting Beauty Benefit CRème SPF 35; Estee Lauder Enlighten Ee Even Effect Skintone Corrector SPF 30; Estee Lauder Fast Tan Quick-dry Sunless Spray SPF 15; Estee Lauder Re-nutriv Intensive Lifting Hand Creme SPF 15; Estee Lauder Shimmering Shield for Lips and Face Sunscreen SPF 30; Estee Lauder Sun Performance SPF 30 Sunscreen Sun Care Multi-protection Sun Lotion for Body; Estee Lauder Sun Performance SPF 30 Sunscreen Sun Care Multi-protection Sun Lotion for Face; Estee Lauder Sunblock for Body SPF 15; Estee Lauder Sunblock for Body SPF 25; Estro-Lift Day Therapy; Estro-Lift Day Therapy Moisturizer and SPF 30 Sunscreen; Estée Lauder Sunblock for Face SPF 15; Eternal Spirit Beauty SPF 50Sunscreen; Eucerin Q10 Anti-Wrinkle Sensitive Skin; Eve Lom Daily Protection Broad Spectrum SPF 50 Sunscreen; Eve Lom Flawless Radiance Primer Broad Spectrum SPF 30 Sunscreen; Eve Lom Radiant Glow Cream Foundation Broad Spectrum SPF 30 Sunscreen; Every Man Jack Lip Balm SPF 15; Every Man Jack Sun Protection SPF 30 UVA and UVB; Exact Babies Sunscreen Lotion SPF Fps 45; Exact Babies Sunscreen Spray SPF Fps 45; Exact Clear Continuous Spray Sunscreen SPF/fps 30; Exact Cooling and Refreshing Clear Continuous Spray Sunscreen SPF/fps 45; Exact Kids Clear Continuous Spray Sunscreen SPF/fps 50; Exact Kids' Sunscreen Lotion SPF Fps 30; Exact Lip Balm Conditioning Formula; Exact Lip Balm Moisturizing; Exact Lip Balm Regular; Exact Lip Balm Year-round Protection; Exact SPF 15 Fps Fruit Flavours; Exact Sport Clear Continuous Spray Sunscreen SPF/fps 30; Exact Sunscreen Lotion SPF Fps 30; Excel Sport SPF 50; Exchange Select Baby Sunscreen SPF 50; Exchange Select Dark Tanning Sunscreen SPF 4; Exchange Select Kids Sunscreen SPF 50; Exchange Select Sheer Dry Touch Sunscreen SPF 70; Exchange Select Sport Sunscreen SPF 15; Exchange Select Sport Sunscreen SPF 30; Exchange Select Sport Sunscreen SPF 50; Exchange Select Sunscreen SPF 15; Exchange Select Sunscreen SPF 30; Exchange Select Sunscreen SPF 45; Exchange Select Sunscreen SPF 50; Exchange Select Sunscreen SPF 70; Exel; Exel Clarifying Line SPF 50; Exsel Sport SPF 30; Extra Repair Foundation Broad Spectrum SPF 25; Extra Repair Moisturing Balm SPF 25; Extra Repair Moisturizing Balm Broad Spectrum SPF 25; Extra Rich Day Defense SPF 30; Extreme Anti-Wrinkle Care SPF 30; Extreme Sport SPF 70; FEVANZON Isolation Sunscreen; Fabulous Face SPF 15; Face & Body Protector SPF 15; Face & Body Sunscreen Broad Spectrum SPF 30; Face Cream 50; Face Magic; Face Oasis Hydrating Face Oasis Hydrating SPF 30; Face Oasis Hydrating Lotion SPF 30; Face Oasis Plus Hydrating Fluid SPF 15; Face Protector Broad Spectrum SPF 40 Jafra; Face Protector SPF 40; Face SPF 50; Face Values Refreshing Cooling Body Mist Sunscreen SPF 45; Face Values SPF 15 Facial Moisturizer; Face Values Ultra Sport Active SPF 30 Sunscreen; Face Values Wet N Dry Wet Skin SPF 50 Sunscreen; Face Zone Sun Block 30 SPF; Face and Body Protective Lotion SPF 30; Face and Body SPF 15; Face and Body SPF 30; Face and Body Sunscreen SPF 35 Jafra; Face and Body Sunscreen Spray SPF 35; Face-zone Sun Block 15 SPF; Faces Sunscreen Lotion for Babies; Facescreen SPF 50; Facial Boosting Broad Spectrum SPF 15 Jafra; Facial Fuel Uv Guard; Facial Moisturizer SPF 15 Lotion; Facial Primer Protector SPF 50; Facial SPF 20/fps 20; Facial Sun Cream SPF 15; Facial Sunscreen SPF 20 Lotion; Facial Sunscreen with Zinc SPF 50 Daylogic; Fair BB Cream SPF15; Fair and Square Kids Broad Spectrum SPF 50; Fair and Square Sport Broad Spectrum SPF 30; Fair and Square Sport Broad Spectrum SPF 50; Fair and Square Sport Sunscreen SPF 30; Fair and Square Sport Sunscreen SPF 50; Fair and Square Ultra Protection Broad Spectrum SPF 15; Fair and Square Ultra Protection Broad Spectrum SPF 30; Family Sunscreen SPF 36; Fast-drying Sunscreen SPF 30; Fermitif Neck Renewal Cream Broad Spectrum SPF 15 Sunscreen US; Fin McMissie Sun Smacker SPF 24 Vroom Vroom Vanilla; Firmalift Firming and Lifting Cream SPF 30; Five Star Lip Protection; Flavored Lips SPF 30; Flawless Effect Liquid Foundation Broad Spectrum SPF 15; Flawless Effect Liquid Foundation SPF 15 Merle Norman; Flawless Future; Flawless Future Moisture; Flawless Future SPF 30; Flounder Sun Smacker SPF 24 Watermelon Wave; Fluid Body Sun Cream SPF 20; Fluide Desalterant Multi-hydratant SPF 15; Fluide Multi-confort Super Hydratant Spf15; Fluide Multi-regenerant Lift Jour - SPF 15; Fluide Protecteur Jeunesse Des Mains SPF 15; For Goodness Face Antioxidant Skin Moisturizing Lotion SPF 30; For Kids SPF 45 Sunscreen Lotion; For The Gardener Lip Balm SPF 30; Fore Play 15spf; Fote Block Up Kids SPF 50 Sunscreen; Fps 15 SPF Baume Pour Les Lèvres Lip Balm; Fresh Black Tea Age-Delay Broad Spectrum Sunscreen SPF 20; Fresh Cooling Body Mist Sunscreen SPF 30; Fresh Cooling Body Mist Sunscreen SPF 45; Fresh Cooling Sunblock Gel SPF 30; Fresh Cooling Sunblock Gel SPF 45; Fresh Essentials Daily Nourishing Moisturizer; Fresh Facial Cream SPF 15; Fresh Peony Brightening UV Shield Sunscreen SPF 50 Plus; Fresh Skin Effortless Beauty Balm Broad Spectrum SPF 35; Fresh Soy Moisturizing SPF 20; Fresh Suga(Red) Lip Treatment Sunscreen SPF 15; Fresh Sugar Honey Tinted Lip Treatment SPF15; Fresh Sugar Kisses Sugar Lip Treatment SPF 15 and Sugar Rose Tinted Lip Treatment SPF 15; Fresh Sugar Kisses Sugar Rose Tinted Lip Treatment SPF 15 and Sugar PlumTinted Lip Treatment SPF 15; Fresh Sugar Lip Treatment SPF 15; Fresh Sugar Plum Tinted Lip Treatment SPF 15; Fresh Sugar Rose Tinted Lip Treatment SPF 15; Fruit Flavours Lip Balm; Fruit Of The Earth Block Up Dry Sport Fps/SPF 30 Continuous Spray; Fruit Of The Earth Block Up Fps/SPF 30 Continuous Spray; Fruit Of The Earth Block Up! Baby SPF 30 Sunblock With Aloe; Fruit Of The Earth Block Up! Face SPF 30 Sunblock With Aloe; Fruit Of The Earth Block Up! Sport SPF 30 Sunblock With Aloe; Fruit Of The Earth Block Up! Sunblock SPF 30 With Aloe; Fruit Of The Earth Block-UP Kids SPF 30 Bug Repelling; Fruit Of The Earth Block-UP Kids SPF 30 Color Spray (purple); Fruit Of The Earth Block-UP Regular SPF 45; Fruit Of The Earth Block-UP Sport 15; Fruit Of The Earth Block-UP Sport 30 Bug Repelling; Fruit Of The Earth Kids SPF/fps 50; Fruit Of The Earth Moisturizing Aloe Baby SPF 45 Sunblock; Fruit Of The Earth Moisturizing Aloe Kids SPF 30 Sunblock; Fruit Of The Earth Moisturizing Aloe SPF 15 Sunblock; Fruit Of The Earth Moisturizing Aloe SPF 30 Sunblock; Fruit Of The Earth Moisturizing Aloe SPF 45 Sunblock; Fruit Of The Earth Moisturizing Aloe SPF 8 Sunscreen; Fruit Of The Earth Moisturizing Aloe Sport SPF 15 Sunblock; Fruit Of The Earth Moisturizing Aloe Sport SPF 30 Sunblock; Fruit Of The Earth Moisturizing Aloe Sport SPF 8 Sunscreen; Fruit Of The Earth SPF/fps 30; Fruit Of The Earth SPF/fps 30 Continuous Spray; Fruit Of The Earth SPF/fps 50; Fruit Of The Earth SPF/fps 50 Continuous Spray; Fruit Of The Earth Sport SPF/fps 15; Fruit Of The Earth Sport SPF/fps 15 Continuous Spray; Fruit Of The Earth Sport SPF/fps 30; Fruit Of The Earth Sport SPF/fps 30 Continuous Spray; Fruit Of The Earth Sport SPF/fps 50; Fruit Of The Earth Sport SPF/fps 50 Continuous Spray; Fruit Smoothies; Fruit of the Earth Block Up Broad Spectrum Baby SPF 50; Fruit of the Earth Block Up Broad Spectrum Sport SPF 50; Fruit of the Earth Block Up Dry Sport SPF 50 Continuous Sunscreen; Fruit of the Earth Block Up Kids SPF 50; Fruit of the Earth Block Up Kids SPF 50 Continuous Sunscreen; Fruit of the Earth Block Up Kids SPF 50 Moisturizing Sunscreen; Fruit of the Earth Block Up Lite Broad Spectrum SPF 15 Continuous Sunscreen; Fruit of the Earth Block Up Lite Broad Spectrum SPF 30 Continuous Sunscreen; Fruit of the Earth Block Up Lite Kids SPF 50 Continuous Sunscreen; Fruit of the Earth Block Up SPF 30 General Protection Sunscreen; Fruit of the Earth Block Up SPF 30 Sunscreen; Fruit of the Earth Block Up SPF 4 Dark Tanning; Fruit of the Earth Block Up SPF 50; Fruit of the Earth Block Up SPF 50 Full Spectrum Sunscreen; Fruit of the Earth Block Up SPF 70 General Protection Sunscreen; Fruit of the Earth Block Up Sport SPF 30 Continuous Sunscreen; Fruit of the Earth Block Up Sport SPF 30 Sunscreen; Fruit of the Earth Block Up Sport SPF 50 Continuous Sunscreen; Fruit of the Earth Block Up Sport SPF 50 Moisturizing Sunscreen; Fruit of the Earth Block Up Sport SPF 50 No Mess Sun; Fruit of the Earth Block Up Sport SPF 50 Sunscreen; Fruit of the Earth SPF 4 Moisturizing Tanning Sunscreen; Fruit of the Earth SPF 50 Kids Sunscreen; Fruit of the Earth SPF 50 Moisturizing Sunscreen; Fruit of the Earth SpaCology; Fruit of the Earth SpaCology Sport SPF 50; Fruit of the Earth Sport SPF 50; Fruit of the Earth Sport SPF 50 Sunscreen Continuous; Fruit of the Earth, Inc. Ultra SPF 50 Moisturizing Sunscreen; Full Service Sun Block 15 SPF; Full Service Sun Block 20 SPF; Full Spectrum Block SPF 15; Future Solution Lx Total Protective Cream E; Future Solution Lx Total Protective Emulsion E; Future Solution Lx Universal Defense; Future White SPF 40; G.Y. Protective Moisturizer; GAP Favorite Lip Balm Apple Pie SPF 18; GAP Favorite Lip Balm Berry Punch SPF 18; GAP Favorite Lip Balm Citrus Splash SPF 18; GAP Favorite Lip Balm Creamy Pomegranate SPF 18; GAP Favorite Lip Balm Juicy Pear SPF 18; GAP Favorite Lip Balm Pomegranate SPF 18; GAP Favorite Lip Balm Tropical Twist SPF 18; GAP Favorite Lip Balm Watermelon SPF; GAP favorite Lip Balm Green Apple SPF 18; GR CC Broad Spectrum SPF 30; GR SATIN SMOOTHING Fluid Foundation SPF 15; GUINOT Skin Defense SPF 15 Face; Gadis Lip Moisturizer SPF15; Gap Favorite Lip Balm Vanilla Mint SPF; Gap favorite Lip Balm Strawberry Kiwi; Gardeners Uv Shield SPF 15 Sunscreen; Garnier Ombrelle 60 Complete Dry Mist SPF 60 Water Resistant 80 Minutes; Garnier Ombrelle Kids Wet N Protect Hypoallergenic SPF 45 Mexoryl Technology; Garnier Ombrelle SPF 30 Kids Water Resistant; Garnier Ombrelle SPF 30 Sport Endurance Water Resistant; Garnier Ombrelle SPF 30 UVA UVB Kids Wet N Protect Sunscreen Protection Even on Wet Skin Hypoallergenic Water/sweat resistant 80 minutes Quick Absorption; Garnier Ombrelle SPF 45 Kids Hypoallergenic; Garnier Ombrelle SPF 60 UVA UVB Kids Wet N Protect Sunscreen Protection Even on Wet Skin Hypoallergenic Water/sweat resistant 80 minutes Quick Absorption; Garnier Ombrelle Sport 30; Garnier Ombrelle Sport Endurance 60; Garnier Ombrelle Sport Vaporisateur Broad Spectrum SPF 30 Sweat Resistant 80 Minutes; Garnier Ombrelle Ultra Light Advanced 30; Garnier Ombrelle Ultra Light Advanced 60; Garnier Ombrelle Ultra Light Advanced Broad Spectrum SPF 50 Plus Sunscreen Water Resistant 80 Minutes Weightless Body; Garnier SkinActive Moisture Bomb Broad Spectrum SPF 30 Sunscreen; Gel Bronzant Hydratant Fps 15; Gel Bronzant Hydratant Fps 8; Gel Bronzant Sport Fps 4; Gel Protecteur Bronzant No.44; Gel Solaire Bronzage Securite SPF 15; Gel Solaire Bronzage Securite SPF 15 Special Sport; Gelee Solaire Bronzage Tres Rapide Special Peaux Halees-spf6; Gelée Solaire Haute Protection SPF 15; Gentle Day Block SPF 30; Gentle Hydrating Day Broad Spectrum SPF 15 Jafra; Gentle Rejuvenation Fortified Sunscreen Broad Spectrum SPF 30 With Vitamin C; Gentle Rejuvenation System; Givenchy Multiprotective Luminescence Moisturizing Fluid SPF 30; Givenchy Photo Perfexion Evanescent Fluid Fondation SPF 10 Light 6; Givenchy Photo Perfexion Evanescent Fluid Fondation SPF 10 Light Amber 8; Givenchy Photo Perfexion Evanescent Fluid Fondation SPF 10 Light Beige 4; Givenchy Photo Perfexion Evanescent Fluid Fondation SPF 10 Light Ginger 7; Givenchy Photo Perfexion Evanescent Fluid Fondation SPF 10 Light Gold 5; Givenchy Photo Perfexion Evanescent Fluid Fondation SPF 10 Light Porcelain 1; Givenchy Photo Perfexion Evanescent Fluid Fondation SPF 10 Light Sand 3; Givenchy Photo Perfexion Evanescent Fluid Fondation SPF 10 Light Shell 2; Glamtox Active Daily Moisturizing Sunscreen; Glaxal Base Lotion SPF 15; Glazewear SPF/fps 15 Lip Gloss; Gliza Body Mist Sunscreen Broad Spectrum SPF 100; Glove Me Tender Hand Cream With Shea Butter SPF 15; Glow From Within Moisturizer SPF 15; Glow Radiant Moisturizer SPF 15; Gly-miracle Lip Balm; Gly-miracle Lip Balm SPF 30; Glycolic Day Cream SPF 30; Glymed Plus Age Management Skincare System Sun Protection Gel SPF 15; Glyquin Xm; Glytone Body; Glytone Clarifying SunVanish with Sunscreen; Glytone Daily Body; Glytone Retexturize Body; Glytone Retexturize Hand; Glytone SunVanish Skin Lightening; Goats Milk Lait de Chevre; Gold Dynamics Skin Boosting Moisturizer Broad Spectrum SPF 15 Sunscreen; Gold Dynamics Travel Kit Jafra; Golden Beauty - Summer Face SPF 15; Golden Tan Always Stay-on Makeup Broad Spectrum SPF 15 Jafra; Golfer Block Sunscreen for Golfers; Golfers Skin Broad Spectrum SPF 30 Plus Sunscreen; Golflinks Sunscreen SPF 15 Crm Top; Good Neighbor Pharmacy Kids Sunscreen Broad Spectrum SPF 50; Good Neighbor Pharmacy Sport Sunscreen SPF 30; GoodSense Sunscreen SPF 50; GoodSense Sunscreen SPF 70; Goofy Sun Smacker SPF 24 Berry Goal; Got The Goods Multi-benefit Foundation Lotion; Got To Glow Gradual Glow Body Moisturizer Lotion; Gr Bb SPF 25; Green Stick; Green Tea Antioxidant Broad Spectrum SPF 30 PAplusplusplus; Guerlain Success Future - Rich Day Care Wrinkle Minimizer Firming SPF 15; Guerlain Super Aqua-Day; Guerlain Super Aqua-Hands; H.E.B Solutions Sunscreen; H.E.B. Solutions Sunscreen; HAWAIIAN Tropic; HEB Solutions Sunscreen; HEB Solutions Sunscreen Ultra 30; HUGGIES Little Swimmers; HYDRALIFE BB CREME Enhancing Moisturizer For Immediate Beauty SPF 30; Hada Labo Tokyo Protecting Day SPF 30; Hampton Sun; Hand Care Day care Broad Spectrum SPF 15 Jafra; Hand Complex Broad Spectrum SPF 15 Jafra; Hand Cream Intensive Anti-ageing SPF 15; Hand Cream SPF 10; Hand and Décolleté Cream Sunscreen SPF 15; Harmon Face Values Break-out Free SPF 55 Sunscreen; Harmon Face Values Ultra Light Dry To The Touch SPF 30 Sunscreen; Harmon Face Values Ultra Light Dry to the Touch SPF 100 Sunscreen; Harmon Face Values Ultra Light Dry to the Touch Suncreen SPF 55; Harmon Face Values Ultra Light Dry to the Touch Sunscreen Broad Spectrum SPF 70; Harmon Revitalizing Facial Smoother Immediate Skin Smoothing Finishing Broad Spectrum SPF30 Sunscreen; Harmony Dynamics Facial Boosting SPF 15; Harmony Dynamics SPF 15; Hawaiian Tropic; Hawaiian Tropic 10 Plus Lotion; Hawaiian Tropic 10 Plus Sunscreen; Hawaiian Tropic 15 Plus Sunblock Lotion; Hawaiian Tropic 30 Plus Sunblock Lotion; Hawaiian Tropic 30 SPF; Hawaiian Tropic 45 Plus Sunblock Lotion; Hawaiian Tropic 45 SPF Sunblock; Hawaiian Tropic 45 SPF Sunblock Stick; Hawaiian Tropic 60 SPF Fps Sunscreen Lotion Ecran Solaire; Hawaiian Tropic Baby; Hawaiian Tropic Baby Faces 50 Sunblock Lot; Hawaiian Tropic Baby Faces Sunblock SPF 35; Hawaiian Tropic Baby Lotion Sunscreen Écran Solaire Pour Bébés 60; Hawaiian Tropic Bioshield Fac. Sunb.15spf Sn; Hawaiian Tropic Bioshield Fac.sunb.15spf Nor; Hawaiian Tropic CRème Continuous Flow Sunscreen Écran Solaire À Écoulement Continu 30 SPF/fps; Hawaiian Tropic Carrot Protective Oil SPF 30; Hawaiian Tropic Creme Continuous Flow Sunscreen Ecran Solaire A Ecoulement Continu 10; Hawaiian Tropic Creme Continuous Flow Sunscreen Ecran Solaire A Ecoulement Continu 50; Hawaiian Tropic Dry Oil Huile Sèche Sunscreen Spray Écran Solaire En Vaporisateur 10; Hawaiian Tropic Dry SPF 30; Hawaiian Tropic Herbal Aloe 45 SPF Lip Balm; Hawaiian Tropic Herbal Tanning Lotion 4 SPF; Hawaiian Tropic Island Sport Clear Sunscreen Spray Ecran Solaire Transparent En Vaporisateur 30; Hawaiian Tropic Island Sport SPF 30; Hawaiian Tropic Island Sport SPF 30 for Canada; Hawaiian Tropic Island Sport Sunscreen Lotion SPF 50; Hawaiian Tropic Island Sport Sunscreen Lotion Écran Solaire 30; Hawaiian Tropic Kids Lotion Sunscreen Écran Solaire Pour Enfants 60; Hawaiian Tropic Kids SPF 30; Hawaiian Tropic Kids Sunscreen Clear Spray Écran Solaire Incolore En Vaporisateur Pour Enfants 60; Hawaiian Tropic Kids Sunscreen Lotion SPF/fps 50+; Hawaiian Tropic Lip Balm 45 SPF-cherry; Hawaiian Tropic Lip Balm 45 SPF-coconut; Hawaiian Tropic Lip Balm 45 SPF-mint; Hawaiian Tropic Lip Balm Sunscreen Stick; Hawaiian Tropic Lip Balm Sunscreen Stick Broad Spectrum SPF 45; Hawaiian Tropic Oil Free Sport 30 SPF Sunblock; Hawaiian Tropic Oil Spray Huile En Vaporisateur Moisturizing Sunscreen Écran Solaire Hydratant 4 SPF/fps; Hawaiian Tropic Oil Spray Moisturizing Sunscreen SPF 4; Hawaiian Tropic Protective Tanning Dry Oil 8 SPF; Hawaiian Tropic Protective Tanning Spray Oil 12 SPF; Hawaiian Tropic SPF 45 Plus Uva/uvb Protection Sunblock Stick; Hawaiian Tropic Sensitive Skin Peau Sensible Face Visage Sunscreen Lotion Écran Solaire 30; Hawaiian Tropic Sensitive Skin Peau Sensible Lotion Sunscreen Spray Lotion Ecran Solaire En Vaporisateur 50; Hawaiian Tropic Sheer Touch; Hawaiian Tropic Sheer Touch SPF 30; Hawaiian Tropic Sheer Touch Toucher Soyeux Clear Sunscreen Spray Écran Solaire Transparent En Vaporisateur 30; Hawaiian Tropic Sheer Touch Toucher Soyeux Clear Sunscreen Spray Écran Solaire Transparent En Vaporisateur 60; Hawaiian Tropic Sheer Touch Toucher Soyeux Lotion Sunscreen Ecran Solaire 30; Hawaiian Tropic Sheer Touch Toucher Soyeux Lotion Sunscreen Écran Solaire 45; Hawaiian Tropic Sheer Touch Toucher Soyeux Lotion Sunscreen Écran Solaire 60; Hawaiian Tropic Sheer Touch Toucher Soyeux Oil-free Sunscreen Écran Solaire Sans Huile 15 SPF/fps; Hawaiian Tropic Sheer Touch Toucher Soyeux Oil-free Sunscreen Écran Solaire Sans Huile 30 SPF/fps; Hawaiian Tropic Sheer Touch Toucher Soyeux Oil-free Sunscreen Écran Solaire Sans Huile 45 SPF/fps; Hawaiian Tropic Sheer Touch Toucher Soyeux Oil-free Sunscreen Écran Solaire Sans Huile 60 SPF/fps; Hawaiian Tropic Sheer Touch Toucher Soyeux Oil-free Sunscreen Écran Solaire Sans Huile 85 SPF/fps; Hawaiian Tropic Shimmer Effect Oil-free Sunscreen Écran Solaire Sans Huile 15 SPF/fps; Hawaiian Tropic Shimmer Effect Oil-free Sunscreen Écran Solaire Sans Huile 30 SPF/fps; Hawaiian Tropic Silk Hydration Clear Sunscreen Broad Spectrum SPF 50; Hawaiian Tropic Silk Hydration Face Oil-free Sunscreen; Hawaiian Tropic Silk Hydration Sunscreen Lotion Écran Solaire 10 SPF/fps; Hawaiian Tropic Silk Hydration Sunscreen Lotion Écran Solaire 30 SPF/fps; Hawaiian Tropic Silk Hydration Sunscreen Lotion Écran Solaire 50 SPF/fps; Hawaiian Tropic Silk Hydration Weightless Clear Sunscreen Spray SPF 50 Plus; Hawaiian Tropic Splash 30 SPF Sunblock Spray; Hawaiian Tropic Sport 30 SPF Sunblock Spray; Hawaiian Tropic Sport 8 SPF Sunscreen; Hawaiian Tropic Sunblock Sport 30 Lot; Hawaiian Tropic Sunblock Stick Splash SPF 50; Hawaiian Tropic Sunscreen Lotion Écran Solaire 4; Hawaiian Tropic Sunscreen Lotion Écran Solaire 8; Hawaiian Tropic Tanning; Hawaiian Tropic Tanning Dry SPF 6; Hawaiian Tropic Total Sport Lotion 20 SPF; Healthy Defense Daily Moisturizer SPF 30; Healthy Defense Daily Moisturizer SPF 45; Healthy Defense Sunblock Lotion SPF 30; Healthy Defense Sunblock Lotion SPF 45; Healthy Skin Cc Cream SPF 30; Healthy Skin Facial Lotion SPF 15; Healthy Skin Lift & Firm; Heat Wave Sunblock SPF 30; Heb; Help Me Broad Spectrum SPF 30 Sunscreen Retinol Day Treatment Lotion; Hemp Lip Balm; Herbal Aloe Face and Body SPF 30; Herbal Day Creme SPF 15; Herbalife SKIN 7 Day Results Kit; Herbalife Skin Protective Moisturizer SPF 30; Herpecin; Herpecin L; Hf2; Hf3; Hidden Beauty Daytime Moisturizer Sunscreen SPF 15; High Performance Sunscreen Lotion SPF 15; High Performance Sunscreen Spray SPF 50; High Protection Suncare Oil SPF 30; Higher Education Make Out Ready Moisturizing Lip Balm SPF 15; Hill Country Essentials; Hissyfit Body Double Moisturizer; Hissyfit Handy Work; Honey Lip Care; Honey Stick Lip Balm; Hope In A Jar Broad Spectrum SPF 25 Sunscreen and Moisturizer for All Skin Types; Hope In A Jar For Dry Skin SPF broad spectrum spf 20 sunscreen and extra-rich moisturizer for normal to dry skin; Hope In A Jar SPF 25; Hope In A Tinted Moisturizer; Hope Oil Free Moisturizer SPF 30; House 99 By David Beckham Bold Statement Body Tattoo Moisturizing Broad Spectrum SPF 50 Sunscreen; Huile Solaire Bronzage Intensif SPF 3; Huile Solaire Bronzante; Hydra Advance Creme Autobronzante Fps 10-crm; Hydra Advance Solaire Ecran Total Fps 25; Hydra Advance Solaire Lait SPF 15; Hydra Advance Solaire Lait SPF 25; Hydra Advance Solaire Lait Solaire SPF 8; Hydra Bronze; Hydra Day SPF 20; Hydra Life Bb Creme; Hydra Life Water BB SPF 30 Shade 010; Hydra Life Water BB SPF 30 Shade 020; Hydra Life Water BB SPF 30 Shade 030; Hydra-C Radiance 24h + SPF 15 Fps Hydrating Lotion Lotion Hydratante; Hydra-C Radiance 24h + SPF 15 Fps Moisturizing Cream Dry Skin CRème Hydratante Peaux Sèches; Hydra-C/ Radiance 24h Plus SPF 15 Fps/ Moisturizing Cream Normal Skin/crème Hydratante Peaux Normales; Hydra-bronze (SPF 15); Hydra-firm Day Lotion SPF-15; Hydra-move Dynamic Moisture Booster SPF 10; Hydra-radiance Protecting Day Lotion Lotion De Jour Protectrice SPF/fps30; Hydra-seal SPF 25 / Hydra-scellante SPF 25; Hydraction Visible Defense Creme Legere Hydra-protectrice SPF 20; Hydraction Visible Defense Creme Riche Hydra-protectrice SPF 20; Hydralife Youth Essential Hydrating Essence-IN-base SPF 30; Hydramax + Active Teinté; Hydramax + Teinte Emulsion Source D'hydratation; Hydramax Active Teinte SPF 15; Hydramax Plus Active Teinte Active Moisture Tinted Sunscreen Broad Spectrum SPF 15, 15 Sunlit; Hydraplasty Face; Hydrating Day Creme SPF 15; Hydrating Dynamics Jafra; Hydrating Protection Sunscreen CVS; Hydrating Protection Sunscreen SPF 30 CVS; Hydrating Protection Sunscreen SPF 50 CVS; Hydrating Tinted Nourisher; Hydrating and Balancing Moisturizer SPF 15; Hydrating day moisture broad spectrum SPF15 Jafra; Hydration Dynamics Moisture Replenishment SPF 15; Hydration Dynamics SPF 15; Hydro Boost Water Gel Lotion Sunscreen SPF 50; Hydrofirming Lifting Day Cream SPF 15 Creme De Jour Lifting Fps 15; Hydrofirming-lift Day Cream SPF 15; Hydroquinone with sunscreens; Hydrosport Sunscreen Spray SPF 30; Hydrosport Sunscreen Spray SPF 50; I-max Excellence; IQ Derma Essentials Life Without Wrinkles SPF 25; IQ Derma regiMEN Hydrating UV Shield SPF 25; Ice Elements SPF 15 Moisturizer; Idc Fps/SPF 15; Idc Fps/SPF 30; Idc Fps/SPF 50; Ideal Flawless CC Color Corrector; Ideal Flawless Cc Color Corrector Cream; Illumikate Cc SPF 50; Illuminating Daily Moisturizer SPF 30; Iman Perfect Response Oil-free Hydrating Lotion; Iman Skin Tone Evener BB SPF 15; Iman Sun Defense Lotion SPF 25; Iman Time Control All Day Moisture Complex SPF 15; Iman Time Control Oil Free Moisture Complex SPF 15; In Transit Skin Defence; Industrial Lip Balm SPF 15; Industrial Strength Sunscreen; Infinity; Inspired by Color Lemon Lime SPF 30; Instant Dry Mist SPF 50 Sunscreen Spray; Instant Miracle Illusion Smoother SPF 30 CVS; Intensive 3-IN-1 Day Cream SPF 30; Intensive Lip Moisturizer SPF 15; Intervene Daily Moisture SPF 15 Oil Free; Intervene Radiance Boosting Moisture SPF 15; Introstem Stem Cell Active Defense; Invisible Protect SPF 50 Sheer Spray; Invisible Protect SPF 50+ Cool Gel; Iope Brightgen; Island Life; Island Sport Sunscreen Lotion SPF 30; Islander Spf6; Ivory Always color stay-on Makeup Broad Spectrum SPF 15 Jafra; Ivory Moisturizing Makeup Broad Spectrum SPF 15 Jafra; Ivory Oil Controlling Makeup Broad Spectrum SPF 15 Jafra; Ivory Silk's Whitening Essence for Day Use; Jacket SPF 50; Jane Seymour Natural Advantage AM SPF 15 All Day Moisture with AHAs; Jane Seymour Oil-Free Tinted Moisturizer with SPF 55; Jazzy Jellies - Lip Twist; Jergens Natural Glow; Jergens Natural Glow Daily Facial Moisturizer; Jouvalle Deep Nourishing Luminosity Day; Juicy Lip Balm SPF 15; Julep Everyday Hand SPF 30; Julep Lip Shade Sheer Lip Butter Almond Nude SPF 30; Julep Lip Shade Sheer Lip Butter Crimson SPF 30; Julep Lip Shade Sheer Lip Butter Currant SPF 30; Julep Lip Shade Sheer Lip Butter Dahlia SPF 30; Julep Lip Shade Sheer Lip Butter Lace SPF 30; Julep Lip Shade Sheer Lip Butter Macaroon SPF 30; Julep Lip Shade Sheer Lip Butter Petal SPF 30; Julep Lip Shade Sheer Lip Butter Plumeria SPF 30; Julep Lip Shade Sheer Lip Butter Poppy SPF 30; Julep Lip Shade Sheer Lip Butter Primrose SPF 30; Julep Lip Shade Sheer Lip Butter Raisin SPF 30; Julep daylight defense for hands and face SPF 30; Jungle Mania Sunblock Lotion SPF 15; Jurlique Sun Sunscreen SPF 30; Just Shine by Australian Gold Broad Spectrum SPF 50 Pink Glitter Sunscreen; Justice by Australian Gold Broad Spectrum SPF 50 Pink Glitter Sunscreen; KARA VITA Moisturizing Sunscreen with DNArescue; KINERASE SPF 30 Broad Spectrum UVA/UVB; KINESYS SPF 50 Funscreen Sunscreen for Kids; Kandesn 2000 Protective Eml SPF 25; Kara Vita Moisturizing Sunscreen SPF 15; Kara Vita SPF 29; Kara Vita SPF 30; Karavita Face Essential with SPF 15; Kelo-cote Uv SPF 30; Keri Daily Uvb/a Protection Lotion; Keri Skin Renewal; Key West Tan SPF15; Kid's SPF 30; Kid's Sun Screen; Kid's Sunscreen SPF 30 Lotion; Kid's Sunscreen SPF 46; Kid's Ultra Sunblock Lotion SPF 30; Kids (80 Minutes) Water Resistant Lotion SPF 30; Kids 30 SPF Sunblock Lotion; Kids 45 SPF Sunscreen Spray; Kids Disappearing Color SPF50 Broad Spectrum Suncreen Green Apple Scented; Kids Disappearing Color SPF50 Broad Spectrum Suncreen Pink Strawberry Scented; Kids Easy Block Spray SPF 30+; Kids Enfants Splash 30 SPF/fps; Kids Enfants Splash 50 SPF/fps Sunscreen Spray Ecran Solaire En Vaporisateur; Kids Lotion SPF 30; Kids Pour Enfants Sunscreen Lotion Écran Solaire SPF/fps 60; Kids Powder-dri Pour Enfants Sunscreen Lotion Ecran Solaire SPF/fps 30; Kids SPF 30 Spray; Kids SPF 30+ Sunscreen; Kids SPF 45 Sunscreen Spray; Kids SPF 50; Kids SPF 50 Sunscreen Spray; Kids Sprayable Sunscreen Lotion SPF 50; Kids Sunblock Lotion 30 SPF; Kids Sunscreen; Kids Sunscreen Continuous Spray; Kids Sunscreen Continuous Spray SPF/fps 60; Kids Sunscreen Lotion SPF 100; Kids Sunscreen Lotion SPF/fps 60; Kids Sunscreen SPF 50; Kids Sunscreen SPF 50 Meijer; Kids Sunscreen SPF 70; Kids Sunscreen SPF 70 Meijer; Kids Sunscreen Spray SPF 100; Kids Sunscreen Stick Écran Solaire En Bâtonnet Pour Enfants SPF Fps 50; Kids Sunscreen Vaporisateur Écran Solaire Spray 45 SPF.fps; Kids Ultra Sun Block Lotion SPF 30; Kids Wet & Dry Sunscreen SPF 60; Kids'sunscreen Broad Spectrum SPF 60 Spray; Kids/enfants SPF/fps 50; Kidsport; Kiehls Since 1851 Activated Sun Protector Broad Spectrum SPF 30 Sunscreen Water Resistant 80 MInutes; Kiehls Since 1851 Activated Sun Protector Broad Spectrum SPF 30 Sunscreen for Body; Kiehls Since 1851 Activated Sun Protector Broad Spectrum SPF 50 Sunscreen; Kiehls Since 1851 Activated Sun Protector Broad Spectrum SPF 50 Sunscreen Water Resistant 80 MInutes; Kiehls Since 1851 Activated Sun Protector For Body Broad Spectrum SPF 50 Sunscreen; Kiehls Since 1851 Activated Sun Protector for Face Broad Spectrum SPF 50 Sunscreen; Kiehls Since 1851 CrossTerrain UV Skin Protector Broad Spectrum SPF 50 Sunscreen Water Resistant 80 Minutes; Kiehls Since 1851 CrossTerrain UV Skin Protector SPF 50 Water and Swear Resistant Sunscreen; Kiehls Since 1851 Dermatologist Solutions Activated Sun Protector Sunscreen Broad Spectrum SPF 50 For Body; Kiehls Since 1851 Dermatologist Solutions Super Fluid UV Defense Ultra Light Sunscreen SPF 50 Plus; Kiehls Since 1851 Dermatologist Solutions SuperFluid UV Defense Broad Spectrum SPF 50 Plus Sunscreen; Kiehls Since 1851 Facial Fuel UV Guard Broad Spectrum SPF 50 Plus Sunscreen WR80; Kiehls Since 1851 Facial Fuel UV Guard Fast Absorbing Sunscreen for Men SPF 50 Plus; Kiehls Super Fluid Daily UV Defense SPF 50 plus Anti-Pollution Lightweight Formula for All Skin Types; Kinerase SPF 15 Cream; Kinesys SPF 30 Solid Sunscreen; Kinesys SPF 30 Sun Stick; Kinesys Sport SPF 30 Oilfree Sunscreen With Mango; Kinesys Sun Protection Stick - Stk; Kiss My Face Everyday Moisturizer SPF 15-lot; Kiss My Face SPF 18 Lip Balm; Kiss Therapy Lip Balm Baume Pour Les Lèvres SPF 15/ Fps 15; Kiss and Shield Lip Balm Lemon Lime SPF 30; Kiss of Hope Pink Tinted SPF 15; Kiss of Hope SPF 15; Klim Lip Balm Vanilla SPF-15; Korres Suncare Yoghurt Nourishing Milk Body Sunscreen Broad Spectrum SPF 44; Kroger Baby SPF 50; Kroger Baby SPF 50 Sunscreen; Kroger Baby Sunscreen SPF 70; Kroger Dry Touch Ultra Sheer SPF 100 Sunscreen; Kroger Dry Touch Ultra Sheer SPF 70 Sunscreen; Kroger Kids SPF 50 Sunscreen; Kroger Kids SPF 50 Sunstick; Kroger Kids Sunscreen SPF 70; Kroger Kroger Kids Sunscreen SPF 50; Kroger Moisture SPF 15 Lip Balm; Kroger Oil Free Sunscreen SPF 30; Kroger SPF 30 Sunscreen; Kroger SPF 50; Kroger Sheer Dry Touch Sunscreen SPF 55; Kroger Sheer Dry Touch Sunscreen SPF 70; Kroger Sheer dry-touch SFP 30; Kroger Sport SPF 15 Sunscreen; Kroger Sport SPF 30 Sunscreen; Kroger Sport SPF 50 Sunstick; Kroger Sport Sunscreen SPF 30; Kroger Sport Sunscreen SPF 50; Kroger Sport sunscreen SPF 50; Kroger Sunscreen SPF 30; Kroger Sunscreen SPF 8; Kroger Tanning SPF 15 Sunscreen; L.A. Tan SPF 4 Lotion Filtre Solaire; LA Bodies Eclipse Sunscreen SPF 30; LA Bodies Eclipse Sunscreen SPF 50; LA MER THE REPARATIVE BODY SUN Broad Spectrum SPF 30; LA MER THE REPARATIVE FACE SUN Broad Spectrum SPF 30; LA Mer The Broad Spectrum SPF 50 Uv Protecting Fluid; LA Mer The Reparative Body Sun Lotion SPF 30; LA Mer The Reparative Face Sun Lotion SPF 30; LA Mer The SPF 50 Uv Protecting Fluid; LASHappeal Eye Results with SPF 15; LBEL CLARITE Clarifying Effect Foundation SPF 30; LBEL CLARITE Clarifying Effect Foundation SPF 30 CLAIRE 1- BEIGE; LBEL CLARITE Clarifying Effect Foundation SPF 30 CLAIRE 2- BEIGE; LBEL CLARITE Clarifying Effect Foundation SPF 30 CLAIRE 3- BEIGE; LBEL CLARITE Clarifying Effect Foundation SPF 30 CLAIRE 4- BEIGE; LBEL CLARITE Clarifying Effect Foundation SPF 30 MEDIUM 5- BEIGE; LBEL CLARITE Clarifying Effect Foundation SPF 30 MEDIUM 6- BEIGE; LBEL CLARITE Clarifying Effect Foundation SPF 30 MEDIUM 7- BEIGE; LBEL CLARITE Clarifying Effect Foundation SPF 30 OBSCURE 8- BROWN; LBEL CLARITE Clarifying Effect Foundation SPF 30 OBSCURE 9- BROWN; LBEL COULEUR LUXE AMPLIFIER XP amplifying SPF 15; LBEL COULEUR LUXE AMPLIFIER XP amplifying SPF 15 - AMPLIFFIER AMANDIER; LBEL COULEUR LUXE AMPLIFIER XP amplifying SPF 15 - BOURGOGNE VIF; LBEL COULEUR LUXE AMPLIFIER XP amplifying SPF 15 - CAFE SUCCES; LBEL COULEUR LUXE AMPLIFIER XP amplifying SPF 15 - CARMINE; LBEL COULEUR LUXE AMPLIFIER XP amplifying SPF 15 - CHOCOLAT MAJESTIC; LBEL COULEUR LUXE AMPLIFIER XP amplifying SPF 15 - CORAIL MAXIMUM; LBEL COULEUR LUXE AMPLIFIER XP amplifying SPF 15 - DORE CHOCOLAT; LBEL COULEUR LUXE AMPLIFIER XP amplifying SPF 15 - FIANCEE; LBEL COULEUR LUXE AMPLIFIER XP amplifying SPF 15 - FUCSIA DESIR; LBEL COULEUR LUXE AMPLIFIER XP amplifying SPF 15 - FUCSIA SPLENDIDE; LBEL COULEUR LUXE AMPLIFIER XP amplifying SPF 15 - MALBEC; LBEL COULEUR LUXE AMPLIFIER XP amplifying SPF 15 - MARRON ILLIMITE; LBEL COULEUR LUXE AMPLIFIER XP amplifying SPF 15 - MER DE ROSES; LBEL COULEUR LUXE AMPLIFIER XP amplifying SPF 15 - MIEL ECHANTER; LBEL COULEUR LUXE AMPLIFIER XP amplifying SPF 15 - NATURAL PERSISTANT; LBEL COULEUR LUXE AMPLIFIER XP amplifying SPF 15 - NOBLESSE; LBEL COULEUR LUXE AMPLIFIER XP amplifying SPF 15 - ORANGE DELIRANT; LBEL COULEUR LUXE AMPLIFIER XP amplifying SPF 15 - ROMANCE; LBEL COULEUR LUXE AMPLIFIER XP amplifying SPF 15 - ROSE CHAMPAGNE; LBEL COULEUR LUXE AMPLIFIER XP amplifying SPF 15 - ROSE DAMOUR; LBEL COULEUR LUXE AMPLIFIER XP amplifying SPF 15 - ROSE DELICAT; LBEL COULEUR LUXE AMPLIFIER XP amplifying SPF 15 - ROSE FEMME; LBEL COULEUR LUXE AMPLIFIER XP amplifying SPF 15 - ROSE FORMIDABLE; LBEL COULEUR LUXE AMPLIFIER XP amplifying SPF 15 - ROSE FUCSIA; LBEL COULEUR LUXE AMPLIFIER XP amplifying SPF 15 - ROSE TENTATION; LBEL COULEUR LUXE AMPLIFIER XP amplifying SPF 15 - ROUGE GRANDOISE; LBEL COULEUR LUXE AMPLIFIER XP amplifying SPF 15 - ROUGE INTENSE; LBEL COULEUR LUXE AMPLIFIER XP amplifying SPF 15 - ROUGE PRODIGEUX; LBEL COULEUR LUXE AMPLIFIER XP amplifying SPF 15 - ROUGE PROVOCATION; LBEL COULEUR LUXE AMPLIFIER XP amplifying SPF 15 - ROUGE RUBI; LBEL COULEUR LUXE AMPLIFIER XP amplifying SPF 15 - SAUMON ESSENTIEL; LBEL COULEUR LUXE AMPLIFIER XP amplifying SPF 15 - SOBRIETE; LBEL COULEUR LUXE AMPLIFIER XP amplifying SPF 15 - VIOLET POURPRE; LBEL Couler Luxe Supreme XP Rosace, Excentrique, Harmonie; LBEL Couler Luxe Supreme XP Sublime, Orange, Sobriete; LBEL Couleur Luxe Rouge Amplifier XP amplifying SPF 15 (AMANDIER) - BROWN; LBEL Couleur Luxe Rouge Amplifier XP amplifying SPF 15 (BOURGOGNE VIF) - BROWN; LBEL Couleur Luxe Rouge Amplifier XP amplifying SPF 15 (CARMINE) - RED; LBEL Couleur Luxe Rouge Amplifier XP amplifying SPF 15 (CHOCOLAT MAJESTIC) - BROWN; LBEL Couleur Luxe Rouge Amplifier XP amplifying SPF 15 (CORAIL MAXIMUM) - ORANGE; LBEL Couleur Luxe Rouge Amplifier XP amplifying SPF 15 (DORE CHOCOLAT) - BROWN; LBEL Couleur Luxe Rouge Amplifier XP amplifying SPF 15 (FIANCEE) - PINK; LBEL Couleur Luxe Rouge Amplifier XP amplifying SPF 15 (FUCSIA DESIR) - MAGENTA; LBEL Couleur Luxe Rouge Amplifier XP amplifying SPF 15 (FUCSIA SPLENDIDE) - MAGENTA; LBEL Couleur Luxe Rouge Amplifier XP amplifying SPF 15 (MALBEC) - BROWN; LBEL Couleur Luxe Rouge Amplifier XP amplifying SPF 15 (MARRON ILLIMITE) - BROWN; LBEL Couleur Luxe Rouge Amplifier XP amplifying SPF 15 (MER DE ROSES) - PINK; LBEL Couleur Luxe Rouge Amplifier XP amplifying SPF 15 (MIEL ECHANTER) - ORANGE; LBEL Couleur Luxe Rouge Amplifier XP amplifying SPF 15 (NOBLESSE) - RED; LBEL Couleur Luxe Rouge Amplifier XP amplifying SPF 15 (ORANGE DELIRANT) - ORANGE; LBEL Couleur Luxe Rouge Amplifier XP amplifying SPF 15 (ROMANCE) - PINK; LBEL Couleur Luxe Rouge Amplifier XP amplifying SPF 15 (ROSE CHAMPAGNE) - PINK; LBEL Couleur Luxe Rouge Amplifier XP amplifying SPF 15 (ROSE DAMOUR) - PINK; LBEL Couleur Luxe Rouge Amplifier XP amplifying SPF 15 (ROSE DELICAT) - PINK; LBEL Couleur Luxe Rouge Amplifier XP amplifying SPF 15 (ROSE FEMME) - PINK; LBEL Couleur Luxe Rouge Amplifier XP amplifying SPF 15 (ROSE FUCSIA) - MAGENTA; LBEL Couleur Luxe Rouge Amplifier XP amplifying SPF 15 (ROSE TENTATION) - PINK; LBEL Couleur Luxe Rouge Amplifier XP amplifying SPF 15 (ROUGE GRANDOISE) - RED; LBEL Couleur Luxe Rouge Amplifier XP amplifying SPF 15 (ROUGE INTENSE) - RED; LBEL Couleur Luxe Rouge Amplifier XP amplifying SPF 15 (ROUGE PRODIGEUX) - RED; LBEL Couleur Luxe Rouge Amplifier XP amplifying SPF 15 (ROUGE PROVOCATION) - RED; LBEL Couleur Luxe Rouge Amplifier XP amplifying SPF 15 (ROUGE RUBI) - RED; LBEL Couleur Luxe Rouge Amplifier XP amplifying SPF 15 (SAUMON ESSENTIEL) - PINK; LBEL Couleur Luxe Rouge Amplifier XP amplifying SPF 15 (SOBRIETE) - BROWN; LBEL Couleur Luxe Rouge Amplifier XP amplifying SPF 15 (VIOLET POURPRE) - PURPLE; LBEL Couleur Luxe Supreme Laque; LBEL Couleur luxe rouge irresistible maximum hydration SPF 17 (CAPUCCINO) - PURPLE; LBEL Couleur luxe rouge irresistible maximum hydration SPF 17 (FUCHSIA BRILLANCE) - RED; LBEL Couleur luxe rouge irresistible maximum hydration SPF 17 (FUCHSIA INTENSE) - PURPLE; LBEL Couleur luxe rouge irresistible maximum hydration SPF 17 (MANDARINE) - PURPLE; LBEL Couleur luxe rouge irresistible maximum hydration SPF 17 (MOKA) - PINK; LBEL Couleur luxe rouge irresistible maximum hydration SPF 17 (ROJO VIF) - BROWN; LBEL Couleur luxe rouge irresistible maximum hydration SPF 17 (ROSE BRILLANCE) - RED; LBEL Couleur luxe rouge irresistible maximum hydration SPF 17 (ROSE CLASSIQUE) - RED; LBEL Couleur luxe rouge irresistible maximum hydration SPF 17 (ROSE NATURAL) - BROWN; LBEL Couleur luxe rouge irresistible maximum hydration SPF 17 (ROUGE BRILLANCE) - BROWN; LBEL Couleur luxe rouge irresistible maximum hydration SPF 17 (ROUGE INTENSE) - PURPLE; LBEL Couleur luxe rouge irresistible maximum hydration SPF 17 (VIN) - PURPLE; LBEL DEFENSE 365 Daily Protective Facial SPF 50; LBEL DEFENSE 365 oil-free daily protective facial SPF 50; LBEL DIVINE LIP GLOSS Lip gloss SPF 15 FM Brillo labial FPS 15 FM CARAMEL MELON - BROWN; LBEL DIVINE LIP GLOSS Lip gloss SPF 15 FM Brillo labial FPS 15 FM DOUCE - PINK; LBEL DIVINE LIP GLOSS Lip gloss SPF 15 FM Brillo labial FPS 15 FM GRAPE LUMIERE - PINK; LBEL DIVINE LIP GLOSS Lip gloss SPF 15 FM Brillo labial FPS 15 FM GROSEILLE - BROWN; LBEL DIVINE LIP GLOSS Lip gloss SPF 15 FM Brillo labial FPS 15 FM PECHE - BROWN; LBEL DIVINE LIP GLOSS Lip gloss SPF 15 FM Brillo labial FPS 15 FM SWEET FRAMBOISE - PINK; LBEL DIVINE LIP GLOSS Lip gloss SPF 15 FM Brillo labial FPS 15 FM VIN - BROWN; LBEL DIVINE LIP GLOSS Lip gloss SPF 15 FM Brillo labial FPS 15 FM VIN SENSUELLE - RED; LBEL Dermo Clarite; LBEL Dermo Clarite Clarifying and Moisturizing with SPF 30; LBEL Divine Lip Gloss SPF 15; LBEL EFET PARFAIT Spots Reducing Effect Foundation SPF 18 - CLAIRE 4; LBEL EFET PARFAIT Spots Reducing Effect Foundation SPF 18 - MEDIUM 5; LBEL EFFET PARFAIT HYDRATESS long-lasting intense moisturizing SPF 20 (ALMOND) - BROWN; LBEL EFFET PARFAIT HYDRATESS long-lasting intense moisturizing SPF 20 (AMOUR) - RED; LBEL EFFET PARFAIT HYDRATESS long-lasting intense moisturizing SPF 20 (CHERRY BLOSSOM) - PINK; LBEL EFFET PARFAIT HYDRATESS long-lasting intense moisturizing SPF 20 (CHOCOLAT) - BROWN; LBEL EFFET PARFAIT HYDRATESS long-lasting intense moisturizing SPF 20 (FRENESIE) - PINK; LBEL EFFET PARFAIT HYDRATESS long-lasting intense moisturizing SPF 20 (FUCSIA) - PINK; LBEL EFFET PARFAIT HYDRATESS long-lasting intense moisturizing SPF 20 (LILY BEIGE) - BEIGE; LBEL EFFET PARFAIT HYDRATESS long-lasting intense moisturizing SPF 20 (MALVE) - BROWN; LBEL EFFET PARFAIT HYDRATESS long-lasting intense moisturizing SPF 20 (MANDARINE) - ORANGE; LBEL EFFET PARFAIT HYDRATESS long-lasting intense moisturizing SPF 20 (MARRON GLACE) - BROWN; LBEL EFFET PARFAIT HYDRATESS long-lasting intense moisturizing SPF 20 (MOKA) - BROWN; LBEL EFFET PARFAIT HYDRATESS long-lasting intense moisturizing SPF 20 (NUDE INTIME) - PURPLE; LBEL EFFET PARFAIT HYDRATESS long-lasting intense moisturizing SPF 20 (NUDE) - PINK; LBEL EFFET PARFAIT HYDRATESS long-lasting intense moisturizing SPF 20 (RED EXTASSY) - RED; LBEL EFFET PARFAIT HYDRATESS long-lasting intense moisturizing SPF 20 (RICHE PINK) - PINK; LBEL EFFET PARFAIT HYDRATESS long-lasting intense moisturizing SPF 20 (ROJO CLASIQUE) - PINK; LBEL EFFET PARFAIT HYDRATESS long-lasting intense moisturizing SPF 20 (ROMANCE) - PINK; LBEL EFFET PARFAIT HYDRATESS long-lasting intense moisturizing SPF 20 (ROSE NATURAL) - PINK; LBEL EFFET PARFAIT HYDRATESS long-lasting intense moisturizing SPF 20 (ROUGE INTENSE) - RED; LBEL EFFET PARFAIT HYDRATESS long-lasting intense moisturizing SPF 20 (SOLEIL) - BROWN; LBEL EFFET PARFAIT HYDRATESS long-lasting intense moisturizing SPF 20 (TEA ROSE) - PINK; LBEL EFFET PARFAIT HYDRATESS long-lasting intense moisturizing SPF 20 (TERRE) - BROWN; LBEL EFFET PARFAIT HYDRATESS long-lasting intense moisturizing SPF 20 (TULIP) - PINK; LBEL EFFET PARFAIT HYDRATESS long-lasting intense moisturizing SPF 20 (VIN AMANT) - PURPLE; LBEL EFFET PARFAIT HYDRATESS long-lasting intense moisturizing SPF 20 (VIN) - PURPLE; LBEL EFFET PARFAIT Lip moisturizer SPF 18 FM Hidratante para labios FPS 18 FM; LBEL EFFET PARFAIT Loose extra-fine portable SPF 15 FM PORCELAINE- BEIGE; LBEL EFFET PARFAIT Loose extra-fine portable SPF 15 FM SANTE- BEIGE; LBEL EFFET PARFAIT Loose extra-fine portable SPF 15 FM TRANSLUCIDE- BEIGE; LBEL EFFET PARFAIT Spots Reducing Effect Foundation SPF 18 - CLAIRE 1; LBEL EFFET PARFAIT Spots Reducing Effect Foundation SPF 18 - CLAIRE 2; LBEL EFFET PARFAIT Spots Reducing Effect Foundation SPF 18 - CLAIRE 3; LBEL EFFET PARFAIT Spots Reducing Effect Foundation SPF 18 - CLAIRE 4; LBEL EFFET PARFAIT Spots Reducing Effect Foundation SPF 18 - MEDIUM 5; LBEL EFFET PARFAIT Spots Reducing Effect Foundation SPF 18 - MEDIUM 6; LBEL EFFET PARFAIT Spots Reducing Effect Foundation SPF 18 - MEDIUM 6A; LBEL EFFET PARFAIT Spots Reducing Effect Foundation SPF 18 - MEDIUM 6B; LBEL EFFET PARFAIT Spots Reducing Effect Foundation SPF 18 - MEDIUM 7; LBEL EFFET PARFAIT Spots Reducing Effect Foundation SPF 18 - OBSCURE 10; LBEL EFFET PARFAIT Spots Reducing Effect Foundation SPF 18 - OBSCURE 8; LBEL EFFET PARFAIT Spots Reducing Effect Foundation SPF 18 - OBSCURE 8A; LBEL EFFET PARFAIT Spots Reducing Effect Foundation SPF 18 - OBSCURE 8B; LBEL EFFET PARFAIT Spots Reducing Effect Foundation SPF 18 - OBSCURE 8C; LBEL HYDRA CALME SPF 15 Intensive Moisturizing Facial; LBEL HYDRATESS long-lasting intense moisturizing SPF 20 - ALMOND; LBEL HYDRATESS long-lasting intense moisturizing SPF 20 - AMOUR; LBEL HYDRATESS long-lasting intense moisturizing SPF 20 - CHOCOLAT; LBEL HYDRATESS long-lasting intense moisturizing SPF 20 - LILY BEIGE; LBEL HYDRATESS long-lasting intense moisturizing SPF 20 - MALVE; LBEL HYDRATESS long-lasting intense moisturizing SPF 20 - MANDARINE; LBEL HYDRATESS long-lasting intense moisturizing SPF 20 - MARRON GLACE; LBEL HYDRATESS long-lasting intense moisturizing SPF 20 - MOKA; LBEL HYDRATESS long-lasting intense moisturizing SPF 20 - NUDE; LBEL HYDRATESS long-lasting intense moisturizing SPF 20 - ROMANCE; LBEL HYDRATESS long-lasting intense moisturizing SPF 20 - ROSE CLASIQUE; LBEL HYDRATESS long-lasting intense moisturizing SPF 20 - ROSE NATURAL; LBEL HYDRATESS long-lasting intense moisturizing SPF 20 - ROUGE INTENSE; LBEL HYDRATESS long-lasting intense moisturizing SPF 20 - TULIP; LBEL HYDRATESS long-lasting intense moisturizing SPF 20 - VIN; LBEL Hydra Calme; LBEL Hydra Calme SPF 15; LBEL LEDERM 35 plus JOUR Facial against first signs of aging; LBEL LEDERM 35plus Jour SPF 15 Facial Treatment Against First Signs of Aging Day - Normal to Dry Skin; LBEL LEDERM 35plus Jour SPF 15 Facial Treatment Against First Signs of Aging Day - Oily Skin; LBEL LEDERM 45 plus JOUR Facial against noticeable signs of aging; LBEL LEDERM 45plus Jour SPF 15 Facial Treatment Against Noticeable Signs of Aging Day - Normal to Dry Skin; LBEL LEDERM 45plus Jour SPF 15 Facial Treatment Against Noticeable Signs of Aging Day - Oily Skin; LBEL LEDERM 55 plus JOUR Facial against advanced signs of aging; LBEL LEDERM 55plus Jour SPF 15 Facial Treatment Against Advanced Signs of Aging Day - All Skin Types; LBEL Lip Moisturizer SPF 18; LBEL REGRESSION JOUR Protective Complex With SPF 15 Facial Day Normal to Combination Skin; LBEL REGRESSION JOUR Protective Complex with SPF 15 Facial day normal to dry skin; LBEL RENOVANCE JOUR Daytime Face SPF 15 All Skin Types; LBEL SUPREMACIE NX JOUR Replenishing Daytime Face SPF 15 Normal To Oily Skin; LBEL SUPREMACIE NX JOUR Replenishing Treatment Daytime Face SPF 15 Normal To Dry Skin; LBEL SUPREMACIE NX JOUR Replenishing Treatment Daytime Face SPF 15 Normal To Oily Skin; LBEL divine lip gloss SPF 15 (CARAMEL MELON) - BROWN; LBEL divine lip gloss SPF 15 (DOUCE) - PINK; LBEL divine lip gloss SPF 15 (GRAPE LUMIERE) - MAGENTA; LBEL divine lip gloss SPF 15 (GROSEILLE) - BROWN; LBEL divine lip gloss SPF 15 (PECHE) - BROWN; LBEL divine lip gloss SPF 15 (SWEET FRAMBOISE) - PINK; LBEL divine lip gloss SPF 15 (VIN SENSUELLE) - RED; LBEL divine lip gloss SPF 15 (VIN) - BROWN; LBel Clarifique Dermo Radiance Mains SPF 15; LBel Couleur Luxe Rouge Amplifier XP; LBel Couleur Luxe Supreme XP; LBel EFFET PARFAIT; LBel EFFET PARFAIT Loose Extra-Fine Portable; LBel Effet Parfait Rouge Alissant; LBel Effet Parfait Rouge Volumesse; LBel Paris Regression Jour; LBel Paris Renovance Jour; LBel Protege Expert; LBel Supremacie Mains; LEDERM DAY SUNSCREEN BROAD SPECTRUM SPF 15 day facial SPF 15 against noticeable signs of aging all skin types; LIDL Dry Tanning Oil Sunscreen SPF 15; LIDL Sport SPF 50; LOreal Paris Advanced Suncare Invisible Protect Clear Cool 50 Plus Broad Spectrum SPF 50 Plus Sunscreen; LOreal Paris Advanced Suncare Invisible Protect Dry 50 Plus Broad Spectrum SPF 50 Plus Sunscreen; LOreal Paris Advanced Suncare Invisible Protect Sheer 50 Plus Broad Spectrum SPF 50 Plus; LOreal Paris Advanced Suncare Quick Dry Sheer Finish 50 Plus Broad Spectrum SPF 50 Plus Sunscreen; LOreal Paris Advanced Suncare Silky Sheer 30 Broad Spectrum SPF 30 Sunscreen; LOreal Paris Advanced Suncare Silky Sheer 50 Plus Broad Spectrum SPF 50 Plus Sunscreen; LOreal Paris Advanced Suncare Silky Sheer BB Face 50 Plus Broad Spectrum SPF 50 Plus Sunscreen; LOreal Paris Advanced Suncare Silky Sheer Face 30 Broad Spectrum SPF 30 Sunscreen; LOreal Paris Advanced Suncare Silky Sheer Face 50 Plus Broad Spectrum SPF 50 Plus Sunscreen; LOreal Paris Revitalift Miracle Blur Broad Spectrum SPF 30 Sunscreen; LOreal Paris Sublime Sun Advanced Sunscreen SPF 30; LOreal Paris Sublime Sun Advanced Sunscreen SPF 30 Hydra; LOreal Paris Sublime Sun Advanced Sunscreen SPF 50 Plus; LOreal Paris Sublime Sun Advanced Sunscreen SPF 50 Plus Crystal Clear Mist; LOreal Paris Sublime Sun Advanced Sunscreen SPF 50 Plus Hydra; LOreal Paris Sublime Sun Advanced Sunscreen SPF 50 Plus Silk Sunshield For Face; La Prairie Sun Protection Face; La Prairie Switzerland Anti-Wrinkle SunScreen SPF 30; La Roche Posay Anthelios 30 Ultralight Sunscreen; La Roche Posay Anthelios 60 Ultralight Sunscreen; La Roche Posay Anthelios Sunscreen SPF 60 Ultra light; La Roche Posay Laboratoire Dermatologique Anthelios 30 Cooling Water Broad Spectrum SPF 30 Sunscreen; La Roche Posay Laboratoire Dermatologique Anthelios 45 Ultra Light Sunscreen Fluid Broad Spectrum SPF 45 Sunscreen Water Resistant 40 Minutes; La Roche Posay Laboratoire Dermatologique Anthelios 45 Ultra Light Sunscreen Fluid Water Resistant 40; La Roche Posay Laboratoire Dermatologique Anthelios 50 Daily Antiaging Primer with Sunscreen; La Roche Posay Laboratoire Dermatologique Anthelios 60 Face Ultra Light Fluid Sunscreen Broad Spectrum SPF 60; La Roche Posay Laboratoire Dermatologique Anthelios 60 Face and Body Cooling Water Broad Spectrum SPF 60 Sunscreen Water Resistant 80 Minutes; La Roche Posay Laboratoire Dermatologique Anthelios 60 Melt In Sunscreen Milk Broad Spectrum SPF 60 Face and Body; La Roche Posay Laboratoire Dermatologique Anthelios 60 Melt In Sunscreen Milk Face and Body Broad Spectrum SPF 60 Water Resistant 80 Minutes; La Roche Posay Laboratoire Dermatologique Anthelios 60 Ultra Light Sunscreen Broad Spectrum SPF 60 Water Resistant 80 Minutes; La Roche Posay Laboratoire Dermatologique Anthelios 60 Ultra Light Sunscreen Fluid; La Roche Posay Laboratoire Dermatologique Anthelios AOX Daily Antioxidant Serum Broad Spectrum SPF 50 Sunscreen; La Roche-Posay Laboratoire Dermatologique Anthelios 45 Ultra Light Sunscreen Fluid SPF 45; La Roche-Posay Laboratoire Dermatologique Anthelios 60 Ultra Light Sunscreen Fluid; La Roche-Posay Laboratoire Pharmaceutique Anthelios 60 Melt In Sunscreen Milk SPF 60; La Roche-Posay Laboratoire Pharmaceutique Anthelios 60 Melt In Sunscreen SPF 60; Lab Series Day Rescue Defense Broad Spectrum SPF 35; Lab Series Skincare for Men Bb Tinted Moisturizer Broad Spectrum SPF 35; Lab Series Super Lift Off! Aha/bha Face Lotion SPF 15; Labello Active SPF 15 - Ont Top; Laboratoire Remede Translucent Uv Coat; Laboratoire Remede Translucent Uv Coat Tint 0; Laboratoire Remede Translucent Uv Coat Tint 1; Laboratoire Remede Translucent Uv Coat Tint 2; Laboratoire Remede Translucent Uv Coat Tint 3; Lait Auto-bronzant SPF 6 - Emulsion; Lait Bronzant Mer Et Tropiques; Lait Caresse Solaire No. 41; Lait De Chevre SPF 15; Lait De Soin Solaire Mer Et Tropiques Corps; Lait Solaire Bronzage Progressif SPF 10; Lait Solaire Bronzage Rapide SPF 6; Lait Solaire Corps Lotion Protectrice Corps Fps 30; Lait Solaire Corps Lotion Protectrice Corps Fps 50 Plus; Lait Solaire Haute Protection; Lait Solaire Protection Élevée Corps; Lancome Bienfait UV SPF 50 Plus Super Fluid Facial Sunscreen; Lancome Paris Bienfait UV 50 Plus Broad Spectrum SPF 50 Plus Water Resistant 80 Minutes Super Fluid Facial Sunscreen; Lancome UV Expert Aquagel Defense 50 Broad Spectrum SPF 50 with Antioxidant Vitamin E; Lancome-imanance SPF 8; Lancôme - Flash Bronzer SPF 15; Land Shark SPF 30; Land Shark SPF 45; Land Shark SPF 8; Lanocreme Hydrating Day Spf15; Large Ecran Uv; Lasting Results Moisturizer; Laura Mercier Flawless Skin Repair Day Broad Spectrum SPF 15 Sunscreen; Laura Mercier Flawless Skin Repair Day Creme Broad Spectrum SPF 15 Sunscreen; Laura Mercier Flawless Skin Repair Oil Free Day Broad Spectrum SPF 15; Laura Mercier Flawless Skin Repair Oil Free Day Broad Spectrum SPF 15 Sunscreen; Laura Mercier Flawless Skin Repair Oil-Free Day Broad Spectrum SPF 15; Laura Mercier Foundation Primer Protect Broad Spectrum SPF 30 Sunscreen; Laura Mercier Foundation Primer Protect SPF 30; Laura Mercier Pure Canvas Primer Protecting Broad Spectrum SPF 30 Sunscreen; Laura Mercier Tinted Moisturizer Broad Spectrum SPF 30 Sunscreen - 0N1 Petal; Laura Mercier Tinted Moisturizer Broad Spectrum SPF 30 Sunscreen - 0W1 Pearl; Laura Mercier Tinted Moisturizer Broad Spectrum SPF 30 Sunscreen - 1C1 Cameo; Laura Mercier Tinted Moisturizer Broad Spectrum SPF 30 Sunscreen - 1N1 Vanille; Laura Mercier Tinted Moisturizer Broad Spectrum SPF 30 Sunscreen - 1W1 Porcelain; Laura Mercier Tinted Moisturizer Broad Spectrum SPF 30 Sunscreen - 2C1 Blush; Laura Mercier Tinted Moisturizer Broad Spectrum SPF 30 Sunscreen - 2N1 Nude; Laura Mercier Tinted Moisturizer Broad Spectrum SPF 30 Sunscreen - 2W1 Natural; Laura Mercier Tinted Moisturizer Broad Spectrum SPF 30 Sunscreen - 3C1 Fawn; Laura Mercier Tinted Moisturizer Broad Spectrum SPF 30 Sunscreen - 3N1 Sand; Laura Mercier Tinted Moisturizer Broad Spectrum SPF 30 Sunscreen - 3W1 Bisque; Laura Mercier Tinted Moisturizer Broad Spectrum SPF 30 Sunscreen - 4C1 Almond; Laura Mercier Tinted Moisturizer Broad Spectrum SPF 30 Sunscreen - 4N1 Chai; Laura Mercier Tinted Moisturizer Broad Spectrum SPF 30 Sunscreen - 4W1 Tawny; Laura Mercier Tinted Moisturizer Broad Spectrum SPF 30 Sunscreen - 5C1 Nutmeg; Laura Mercier Tinted Moisturizer Broad Spectrum SPF 30 Sunscreen - 5N1 Walnut; Laura Mercier Tinted Moisturizer Broad Spectrum SPF 30 Sunscreen - 5W1 Tan; Laura Mercier Tinted Moisturizer Broad Spectrum SPF 30 Sunscreen - 6C1 Cacao; Laura Mercier Tinted Moisturizer Broad Spectrum SPF 30 Sunscreen - 6N1 Chestnut; Laura Mercier Tinted Moisturizer Broad Spectrum SPF 30 Sunscreen - 6W1 Mocha; Laura Mercier Tinted Moisturizer Natural Skin Perfector Broad Spectrum SPF 30 Sunscreen 0N1 Petal; Laura Mercier Tinted Moisturizer Natural Skin Perfector Broad Spectrum SPF 30 Sunscreen 0W1 Pearl; Laura Mercier Tinted Moisturizer Natural Skin Perfector Broad Spectrum SPF 30 Sunscreen 1C0 Cameo; Laura Mercier Tinted Moisturizer Natural Skin Perfector Broad Spectrum SPF 30 Sunscreen 1N2 Vanille; Laura Mercier Tinted Moisturizer Natural Skin Perfector Broad Spectrum SPF 30 Sunscreen 1W1 Porcelain; Laura Mercier Tinted Moisturizer Natural Skin Perfector Broad Spectrum SPF 30 Sunscreen 2C1 Blush; Laura Mercier Tinted Moisturizer Natural Skin Perfector Broad Spectrum SPF 30 Sunscreen 2N1 Nude; Laura Mercier Tinted Moisturizer Natural Skin Perfector Broad Spectrum SPF 30 Sunscreen 2W1 Natural; Laura Mercier Tinted Moisturizer Natural Skin Perfector Broad Spectrum SPF 30 Sunscreen 3C1 Fawn; Laura Mercier Tinted Moisturizer Natural Skin Perfector Broad Spectrum SPF 30 Sunscreen 3N1 Sand; Laura Mercier Tinted Moisturizer Natural Skin Perfector Broad Spectrum SPF 30 Sunscreen 3W1 Bisque; Laura Mercier Tinted Moisturizer Natural Skin Perfector Broad Spectrum SPF 30 Sunscreen 4C1 Almond; Laura Mercier Tinted Moisturizer Natural Skin Perfector Broad Spectrum SPF 30 Sunscreen 4N1 Wheat; Laura Mercier Tinted Moisturizer Natural Skin Perfector Broad Spectrum SPF 30 Sunscreen 4W1 Tawny; Laura Mercier Tinted Moisturizer Natural Skin Perfector Broad Spectrum SPF 30 Sunscreen 5C1 Nutmeg; Laura Mercier Tinted Moisturizer Natural Skin Perfector Broad Spectrum SPF 30 Sunscreen 5N1 Walnut; Laura Mercier Tinted Moisturizer Natural Skin Perfector Broad Spectrum SPF 30 Sunscreen 5W1 Tan; Laura Mercier Tinted Moisturizer Natural Skin Perfector Broad Spectrum SPF 30 Sunscreen 6C1 Cacao; Laura Mercier Tinted Moisturizer Natural Skin Perfector Broad Spectrum SPF 30 Sunscreen 6N1 Mocha; Laura Mercier Tinted Moisturizer Natural Skin Perfector Broad Spectrum SPF 30 Sunscreen 6W1 Ganache; Lavelier Divine Day Defense Broad Spectrum SPF 30; Lbel Couleur Luxe Rouge Irresistible; Lbel Defense 365 Daily Protective Facial SPF 50; Lbel Defense 365 Daily Protective SPF 50; Lbel Effet Parfait; Lbel Effet Parfait Mineral; Lbel Lederm Day Sunscreen Broad Spectrum SPF 15; Lbel Lip Moisturizer SPF 18; Lbel Protege Expert; Lbel Uv Defense 365; Lbio Block Spf50; Lbio Block Tinted 30spf; Leader Baby SPF 50; Leader Baby Sunscreen SPF 50; Leader Dark Tanning SPF 4; Leader GP SPF 15 CS; Leader General Protection SPF 30; Leader General Protection SPF 70; Leader General Protection Sunscreen SPF 30; Leader General Protection Sunscreen SPF 50; Leader Kids SPF 50 Sunscreen; Leader Kids SPF 90; Leader Moisture SPF 15 Lip Balm; Leader Sport SPF 30; Leader Sport SPF 50; Leader Sport Sunscreen SPF 50; Leader Ultra Sheer SPF 100 Sunscreen; Lecithin-aloe Moisture Cream; Lee Hands Free Lip-balm SPF 30; Leg Magic; Life Brand Baby Sunblock 30 SPF; Life Brand Kids & Babies Sunblock SPF 45; Life Brand Kids Sunblock 30 SPF; Life Brand Kids Sunscreen Clear Continuous Spray SPF/fps 60; Life Brand Kids Sunscreen Spray; Life Brand SPF 15 Sport Sunblock; Life Brand SPF 15 Sunblock; Life Brand SPF 30 Sport Sunblock; Life Brand SPF 30 Sunblock; Life Brand Shimmering Lotion Scintillante Oil Free Sunscreen Écran Solaire Sans Huile 15 SPF/fps Protection Uva/uvb Broad Spectrum À Large Spectre; Life Brand Sport Sunblock 15 SPF; Life Brand Sport Sunblock 30 SPF; Life Brand Sport Sunscreen Broad Spectrum Spray; Life Brand Sport Sunscreen Continuous Spray; Life Brand Sport Sunscreen Continuous Spray No Pumping Needed; Life Brand Sport Sunscreen Continuous Spray SPF 50+; Life Brand Sunblock 15 SPF; Life Brand Sunblock 30 SPF; Life Brand Sunblock 30 SPF - Lot Top; Life Brand Sunscreen Continuous Spray; Life Brand Sunscreen Continuous Spray Coconut Lime Scented SPF/fps 30; Life Brand Sunscreen Continuous Spray No Pumping Needed SPF/fps 85; Life Brand Sunscreen Continuous Spray Pomegranate Scented SPF/fps 30; Life Brand Sunscreen Continuous Spray SPF/fps 15; Life Brand Sunscreen Face Lotion SPF 50+; Life Brand Sunscreen Lotion Écran Solaire 30 SPF/fps; Life Brand Sunscreen Lotion Écran Solaire 45 SPF/fps; Life Brand Sunscreen Towelettes; Life Brand Sunthera 3 SPF/fps 30 Sun Protection Lotion Face; Life Brand Sunthera 3 SPF/fps 60 Sun Protection Lotion Face; Life Brand Sunthera3 Sport SPF/fps 60 Sun Protection Lotion Lotion Écran Solaire; Life Extension Sun Protection SPF 30; Life Skinplicity Day Facial Moisturizer With SPF 15; Life for Men Facial Moisturizer; Lifecell BROAD SPECTRUM SPF 50 BB SHEER; Lifeguard Sunscreen; Lift-me day cream with Anti-Ageing and Regenerative Silicium - UV Filters; Light Skin Defense Concealer Broad Spectrum SPF 15 Jafra; Light and Delicate Sunscreen Spf15; Light and Delicate Sunscreen Spf30; Lightful C SPF 30 With Radiance Booster Broad Spectrum SPF 30; Lightning McQueen Sun Smacker SPF 24 Revved Up Raspberry; Linea Jose Ignacio For Face Sunscreen Broad Spectrum SPF 30; Linea Jose Ignacio Sunscreen Broad Spectrum SPF30; Lingerie De Peau BB Beauty Booster Invisible Skin-Fusion Multi-Perfecting Makeup With Sunscreen Broad Spectrum SPF 30 LIGHT; Lingerie De Peau BB Beauty Booster Invisible Skin-Fusion Multi-Perfecting Makeup With Sunscreen Broad Spectrum SPF 30 MEDIUM; Lingerie De Peau Bb Invisible Skin-fusion Multi-perfecting Makeup With Sunscreen Broad Spectrum SPF 30 Bb 2 Light; Lingerie De Peau Bb Invisible Skin-fusion Multi-perfecting Makeup With Sunscreen Broad Spectrum SPF 30 Bb 3 Natural; Lingerie De Peau Bb Invisible Skin-fusion Multi-perfecting Makeup With Sunscreen Broad Spectrum SPF 30 Bb 4 Medium; Lingerie De Peau Bb Invisible Skin-fusion Multi-perfecting Makeup With Sunscreen Broad Spectrum SPF 30 Light; Lingerie De Peau Bb Invisible Skin-fusion Multi-perfecting Makeup With Sunscreen Broad Spectrum SPF 30 Medium; Lingerie De Peau Foundation and Concealer Moisturising, Invisible, Skin-Fusion SPF 20 PA Foundation Tint 01; Lingerie De Peau Foundation and Concealer Moisturising, Invisible, Skin-Fusion SPF 20 PA Foundation Tint 02; Lingerie De Peau Foundation and Concealer Moisturising, Invisible, Skin-Fusion SPF 20 PA Foundation Tint 03; Lingerie De Peau Foundation and Concealer Moisturising, Invisible, Skin-Fusion SPF 20 PA Foundation Tint 04; Lingerie De Peau Foundation and Concealer Moisturising, Invisible, Skin-Fusion SPF 20 PA Foundation Tint 05; Lingerie De Peau Foundation and Concealer Moisturising, Invisible, Skin-Fusion SPF 20 PA Foundation Tint 12; Lingerie De Peau Foundation and Concealer Moisturising, Invisible, Skin-Fusion SPF 20 PA Foundation Tint 13; Lingerie De Peau Foundation and Concealer Moisturising, Invisible, Skin-Fusion SPF 20 PA Foundation Tint 32; Lionesse Opal Sheer Shield SPF 30; Lip Balm; Lip Balm Apple Flavored; Lip Balm Asian Pear Flavored; Lip Balm Bacon Flavored; Lip Balm Banana Flavored; Lip Balm Baume Pour Les Lèvres SPF 30; Lip Balm Beer Flavored; Lip Balm Berry Flavor; Lip Balm Berry Flavored; Lip Balm Birthday Cake Flavored; Lip Balm Blue Raspberry Flavored; Lip Balm Blueberry Flavored; Lip Balm Bourbon Flavored; Lip Balm Bubble Gum; Lip Balm Bubble Gum Flavored; Lip Balm Cafe Latte; Lip Balm Cafe Latte Flavored; Lip Balm Camp Fire Smores; Lip Balm Campfire Smores Flavored; Lip Balm Caramel Apple Flavored; Lip Balm Carmel Apple Flavored; Lip Balm Cherry Cola Flavored; Lip Balm Cherry Flavored; Lip Balm Choc Strawberry; Lip Balm ChocPeppermint Flavored; Lip Balm Chocolate Flavored; Lip Balm Chocolate Peppermint Flavored; Lip Balm Chocolate Strawberry Flavored; Lip Balm Cinnamon Flavored; Lip Balm Citrus Flavored; Lip Balm Coconut Flavored; Lip Balm Coffee Flavored; Lip Balm Cola Flavored; Lip Balm Cotton Candy Flavored; Lip Balm Dreamsicle Flavored; Lip Balm Fps 15 SPF; Lip Balm Grape Flavored; Lip Balm Green Apple Flavored; Lip Balm Green Tea Flavored; Lip Balm Lemon Lime Flavor; Lip Balm Lemon Lime Flavored; Lip Balm Lemonade Flavored; Lip Balm Lime Flavored; Lip Balm Mango Flavored; Lip Balm Margaita Flavored; Lip Balm Margarita Flavored; Lip Balm Mint Flavored; Lip Balm Orange Crush Flavored; Lip Balm Peach Flavored; Lip Balm Peppermint Flavored; Lip Balm Pina Colada Flavored; Lip Balm Pinapple Flavored; Lip Balm Pineapple Flavored; Lip Balm Pink Grapefruit Flavored; Lip Balm Pomegranate Flavored; Lip Balm Pomegranite Flavored; Lip Balm Popcorn Flavored; Lip Balm Raspberry Flavored; Lip Balm Root Beer Flavored; Lip Balm SPF 15; Lip Balm SPF 15 Hue; Lip Balm SPF 20; Lip Balm SPF 30; Lip Balm SPF15; Lip Balm SPF15 Sunscreen SPF30 Combo; Lip Balm Spearmint Flavored; Lip Balm Strawberry Flavored; Lip Balm Tangerine Flavored; Lip Balm Tropical Punch Flavored; Lip Balm Unflavored; Lip Balm Vanilla Coffee Flavored; Lip Balm Vanilla Flavored; Lip Balm Vanilla Mint Flavored; Lip Balm Vanilla SPF-15; Lip Balm Watermelon Flavored; Lip Balm Wintergreen Flavored; Lip Balm With SPF 15; Lip Care Balm; Lip Care Plus SPF 15; Lip Care SPF 15 With Vitamin E; Lip Care SPF 20; Lip Clear Lysine Plus Coldstick; Lip Fx; Lip Healer; Lip Healer SPF 15; Lip Ice Natural Sunscreen SPF 15; Lip Love Ultimate Lip Rescue; Lip Massage; Lip Naturals Lip Balm; Lip Plumping Treatment; Lip Protector SPF 20; Lip Protector Sunscreen SPF15; Lip Protector Sunscreen SPF15 Lip Protector Sunscreen SPF15; Lip Rejuvenating Treatment SPF 20; Lip Relief French Vanilla; Lip Saver Sunscreen SPF 30; Lip Smacker SPF 24 Cool Strawberry Orange; Lip Smacker SPF 24 Kiwi Berry Crush; Lip Smacker SPF 24 Lemon Lime Rush; Lip Smacker SPF 24 Melon Extreme; Lip Smacker SPF 24 Power Punch; Lip Smacker SPF 24 Strawberry Scoop; Lip Smacker SPF 24 Vanilla Ice; Lip Smacker SPF 24 Watermelon Wave; Lip Smacker SPF Cherry Berry Ball; Lip Smacker Sport SPF Lip Balm; Lip Treatment Duo Lip Scrub and Lip Balm Sunscreen SPF 15; Lip Treatment SPF 15; Lip Vibrance; Lip-tech Lip Balm; Lipshield Lipbalm SPF 21; Lipshield SPF 21 Lipbalm-stk Top; Liquid Makeup SPF 16; Liquid Makeup SPF 16 Merle Norman; Liquid Spray Sunscreen; Lite-guard; London Drug Sport 30spf; London Drug Sunblock Lotion 15spf; London Drug Sunblock Lotion 30spf; London Drugs Kids 30 SPF Sunblock Lotion; London Drugs' Baby Sunblock SPF 30; London Drugs' Sport Sunblock SPF 15; London Drugs' Sport Sunblock SPF 30; London Drugs' Sunblock Lotion SPF 15; London Drugs' Sunblock Lotion SPF 30; London Drugs' Sunscreen Lotion SPF 8; Long-Lasting Oil-Free Moisturizer; Loreal Paris Revitalift Miracle Blur Instant Skin Smoother Original Opiblur Technology SPF 30; Lotion SPF 15; Lotion SPF 30; Lotion SPF 45; Lotion Solaire - 15; Lotion Solaire Fps 15; Lotion Solaire Fps 25; Lotion Solaire Fps 8; Lotion Solaire Haute Protection Fps 15; Lotion Solaire Protection Totale Fps 30; Lotion Solaire Protectrice Fps 8; Lotion Vapo Fps 15; Lotion Écran Solaire 30; Lotion Écran Solaire Universel Fps 15 Avec Dioxyde De Titane; Lotion Écran Solaire Universel Fps 30 Avec Dioxyde De Titane; Lubriderm; Lubriderm Daily Moisture Sunscreen Broad Spectrum SPF15; Lubriderm Daily Moisture with Sunscreen Broad Spectrum SPF15; Lubriderm Daily Moisturizer with Sunscreen SPF15; Lubriderm Skin Renewal Facial Lotion; Lubriderm Skin Renewal Hand Cream; Lubriderm Uv Moisture; Lubriderm Uv SPF 15; Lumene Bright Now Vitamin C Day SPF 15 Sunscreen Broad Spectrum; Lumene Bright Now Vitamin C Moisturizer; Lumene Premium Beauty Rejuvenating Day; Lumene Time Freeze Firming Day SPF 15; Lumene Time Freeze Targeted Dark Spot Corrector Sunscreen SPF 30; Lumene Valo Day Moisturizer SPF 15 Sunscreen Broad Spectrum SPF 15; Lumene Vitamin C Pure Radiance Day; Luminous Shield SPF 50; Lumipearl Perfect and Protect Day Broad Spectrum SPF 25 Sunscreen; Luxiva Preventage Hand Treatment for Dry Skin SPF 15; Luxiva Ultra Lipcolor SPF-15; Lycogel Breathable Balm; LypSyl Honeyberry; LypSyl Vanilla Plum Intense Protection; Lypsyl Extreme; Lypsyl Lip Balm Extreme Moisture; Lypsyl Moisture Burst SPF 15; Lypsyl Moisture Burst SPF-30; M.A.C. Prep + Prime Cc Colour Correct SPF 30; M.A.C. Prep+prime Bb Beauty Balm SPF 35; M.A.c Lightful C Marine-bright Formula SPF 30 Moisturizer; M.A.c Prep + Prime Bb Beauty Balm SPF 50; M.A.c Prep + Prime Face Protect Lotion SPF 50; MAC LIGHTFUL Cplus CORAL GRASS TINTED WITH RADIANCE BOOSTER BROAD SPECTRUM SPF030; MAX BLOCK SPF 30 Baby SUNSCREEN; MAX BLOCK SPF 30 kids SUNSCREEN; MEIJER Sport SPF 30; MK Men Advanced Facial Hydrator Sunscreen SPF 30; MKMen Advanced Facial Hydrator Sunscreen SPF 30; MKMen Moisturizer Sunscreen Broad Spectrum SPF 25; MKRS Broad Spectrum SPF50; Mac Lightful C + Coral Grass Tinted Cream SPF 30 With Radiance Booster; Mac Lightful C Marine Bright Formula Bs SPF 30 Moisturizer; Mac Lightful C Tinted Cream SPF 30 With Radiance Booster; Mac Prep and Prime Face Protect Broad Spectrum SPF 50; Macroantioxidant Sun Protection; Maketa Sunscreen with Aloe Vera SPF 30; Malin and Goetz SPF 30 Face Moisturizer; Manicure By Opi - Finishing Butter; Manicure By Opi Finishing Butter; Maracuja Miracle Foundation 12-Hour Foundation Broad Spectrum SPF 15 Sunscreen Beige; Maracuja Miracle Foundation 12-Hour Foundation Broad Spectrum SPF 15 Sunscreen Deep; Maracuja Miracle Foundation 12-Hour Foundation Broad Spectrum SPF 15 Sunscreen Fair; Maracuja Miracle Foundation 12-Hour Foundation Broad Spectrum SPF 15 Sunscreen Ivory; Maracuja Miracle Foundation 12-Hour Foundation Broad Spectrum SPF 15 Sunscreen Light; Maracuja Miracle Foundation 12-Hour Foundation Broad Spectrum SPF 15 Sunscreen Light-Medium; Maracuja Miracle Foundation 12-Hour Foundation Broad Spectrum SPF 15 Sunscreen Medium; Maracuja Miracle Foundation 12-Hour Foundation Broad Spectrum SPF 15 Sunscreen Medium-Tan; Maracuja Miracle Foundation 12-Hour Foundation Broad Spectrum SPF 15 Sunscreen Tan; Maracuja Miracle Foundation 12-Hour Foundation Broad Spectrum SPF 15 Sunscreen Warm Beige; Marc Jacobs Lip Lock Moisture BalmSPF 18 SPF 18; Marcelle / Hydra-C 24 H + SPF 15 Fps / Moisturizing Cream / Creme Hydratante All Skin Types / Tous Types De Peaux; Marcelle / New Age Precision / Anti-wrinkle and Firming / Anti-rides Et Fermeté / Moisturizing Lotion SPF 15 / Lotion Hydratante Fps 15; Marcelle CC Cream Complete Correction Sunscreen Broad Spectrum SPF 35; Marcelle Flawless Air Serum Foundation Sérum De Teint Peau Parfaite SPF 15 Fps; Marcelle Hydra-C 24 H + SPF 15 Fps Moisturizing Cream CRème Hydratante Dry Skin Peaux Sèches; Marcelle Revival Intense Anti-aging/anti-age Intense Moisturizing Lotion SPF 15/lotion Hydratante Fps 15; Marcelle Revival+ Skin Renewal Anti-aging Day Cream SPF 15; Marcelle Sheer Tint Moisturizer Hydratant Teinté Translucide SPF 30 Fps; Marcelle Sun Block Cream SPF 15; Marcelle Sun Block Cream SPF 20; Marcelle Sun Block Cream SPF 8; Marcelle Sun Block Lotion SPF 15; Marcelle Sun Block Lotion SPF 20; Marcelle Sun Block Lotion SPF 8; Marcelle True Radiance SPF 15 Fps; Marcelle/1st Wrinkles/1ères Rides/day Cream SPF 15/créme De Jour Fps 15; Marie dArgan Day Cream SPF15; Mario Badescu Aloe SPF; Mario Badescu Collagen SPF 15; Mario Badescu Skin Care Oil Free Moisturizer Broad Spectrum SPF 30 Sunscreen; Mario Badescu The Moisture Magnet SPF 15; Mark Got The Goods Multi-benefit Foundation; Mary Kay Botanical Effects SPF/fps 30; Mary Kay CC Cream Sunscreen Broad Spectrum SPF 15 Deep; Mary Kay CC Cream Sunscreen Broad Spectrum SPF 15 Light to Medium; Mary Kay CC Cream Sunscreen Broad Spectrum SPF 15 Medium to Deep; Mary Kay CC Cream Sunscreen Broad Spectrum SPF 15 Very Deep; Mary Kay CC Cream Sunscreen Broad Spectrum SPF 15 Very Light; Mary Kay Cc Cream; Mary Kay Day Solution SPF 15; Mary Kay Lip Protector Sunscreen SPF 15; Mary Kay SPF 30 Sunscreen; Mary Kay Sun Protector SPF 35; Mary Kay SunCare SPF 30 Sunscreen; Mary Kay Suncare SPF 50 Sunscreen; Mary Kay Suncare Sunscreen Broad Spectrum SPF 50; Mary Kay Suncare Sunscreen SPF 30; Mary Kay Suncare Sunscreen SPF 50; Mary Kay TimeWise Age Fighting Moisturizer SPF 30; Mary Kay TimeWise Age Minimize 3D Day Cream SPF 30 Broad Spectrum Sunscreen (Combo to Oily Skin); Mary Kay TimeWise Age Minimize 3D Day Cream SPF 30 Broad Spectrum Sunscreen (Normal to Dry Skin); Mary Kay TimeWise Body Hand and Decolette Cream SPF 15; Mary Kay TimeWise Day Solution SPF 30 Broad Spectrum; Mary Kay TimeWise Day Solution SPF 35; Mary Kay TimeWise Day Solution Sunscreen SPF 25; Mary Kay TimeWise Miracle Set 3D Sampler (Combo to Oily Skin); Mary Kay TimeWise Miracle Set 3D Sampler (Normal to Dry Skin); Mary Kay TimeWise Miracle Set 3D The Go Set (Combo to Oily Skin); Mary Kay TimeWise Miracle Set 3D The Go Set (Normal to Dry Skin); Mary Kay TimeWise Repair Volu-Firm Day Cream Broad Spectrum SPF 30; Mary Kay TimeWise Repair Volu-Firm Sampler Set; Mary Kay TimeWise Repair Volu-Firm Set; Mary Kay TimeWise Repair Volu-Firm The Go Set; Mary Kay TimeWise Repair VoluFirm Day Cream SPF 30; Mary Kay Timewise Day Solution With Sunscreen SPF 15; Mary Kay Timewise Sunscreen SPF 15; Mary Kay Tinted Lip Balm Sunscreen SPF 15; Mary Kay Tinted Lip Balm Sunscreen SPF 15 Apricot; Mary Kay Tinted Lip Balm Sunscreen SPF 15 Berry; Mary Kay Tinted Lip Balm Sunscreen SPF 15 Blush; Mary Kay Tinted Lip Balm Sunscreen SPF 15 Cherry; Mary Kay Tinted Lip Balm Sunscreen SPF 15 Fig; Mary Kay Tinted Lip Balm Sunscreen SPF 15 Mango; Mary Kay Tinted Lip Balm Sunscreen SPF 15 Natural; Mary Kay Tinted Lip Balm Sunscreen SPF 15 Peach; Mary Kay Tinted Lip Balm Sunscreen SPF 15 Peony; Mary Kay Tinted Lip Balm Sunscreen SPF 15 Poppy; Mary Kay Tinted Lip Balm Sunscreen SPF 15 Rose; Mary Kay Tinted Moisturizer Sunscreen SPF 20 Beige 1; Mary Kay Tinted Moisturizer Sunscreen SPF 20 Beige 1 (Drug Facts); Mary Kay Tinted Moisturizer Sunscreen SPF 20 Beige 2; Mary Kay Tinted Moisturizer Sunscreen SPF 20 Beige 2 (Drug Facts); Mary Kay Tinted Moisturizer Sunscreen SPF 20 Bronze 1; Mary Kay Tinted Moisturizer Sunscreen SPF 20 Bronze 1 (Drug Facts); Mary Kay Tinted Moisturizer Sunscreen SPF 20 Bronze 2; Mary Kay Tinted Moisturizer Sunscreen SPF 20 Bronze 2 (Drug Facts); Mary Kay Tinted Moisturizer Sunscreen SPF 20 Ivory 1; Mary Kay Tinted Moisturizer Sunscreen SPF 20 Ivory 1 (Drug Facts); Mary Kay Tinted Moisturizer Sunscreen SPF 20 Ivory 2; Mary Kay Tinted Moisturizer Sunscreen SPF 20 Ivory 2 (Drug Facts); Mary Kay Tinted Moisturizer With Sunscreen SPF 20; Mattifying Broad Spectrum SPF 15 Jafra; Mattifying Day Moisture Broad Spectrum SPF 15 Jafra; Max Block Maz Block SPF 30 Sport Sunscreen; Max Block Maz Block SPF 30 Sunscreen; Max Block Maz Block SPF 50 Kids Sunscreen; Max Block Maz Block SPF 50 Sunscreen; Max Block SPF 30 Sunscreen; Max Block SPF 30 Sunscreen Sport; Max Sheer All Day Moisture Defense; Max Sheer All Day Moisture Defense Lotion; Maxi Look Lips Gloss Stick SPF 15; Maybelline New York Dream Nude Air Foam AirInfused Foundation SPF 16; Mcblooms Moisturizing Sunscreen Spf15; Md Formulations Sun Protector 20; Meaningful Beauty BB Broad Spectrum SPF 15 (Light, Medium, Dark); Meaningful Beauty Cindy Crawford Anti-Aging Day Creme with Environmental Protection Broad Spectrum SPF 30; Meaningful Beauty Cindy Crawford Antioxidant SPF 20 UVA/UVB; Meaningful Beauty Cindy Crawford Environmental Protecting Moisturizer Broad Spectrum SPF 30 Sunscreen; Meaningful Beauty Cindy Crawford Maintenance 1plus Daily Moisture SPF 20 UVA/UVB; Meaningful Beauty Cindy Crawford Skin Brightening Decollete and Neck Treatment SPF 15; Meaningful Beauty Cindy Crawford Skin Brightening Décolleté and Neck Treatment SPF 15; Mederma; Mederma Scar Cream; MediChoice Lip Balm SPF 15; Medicated Flavored Lips SPF 30; Medicated Lip Balm; Medium Skin Defense Concealer Broad Spectrum SPF 15 Jafra; Mega Lip Color SPF 15; Meijer; Meijer Baby SPF 50; Meijer Broad Spectrum SPF 50 Sunscreen; Meijer Elements Long-Lasting Oil-Free; Meijer Family Sport 30; Meijer Oil Free 30; Meijer Oil Free Faces SPF 30; Meijer Oil Free SPF 15; Meijer Oil Free SPF 30; Meijer SPF 30; Meijer SPF 30 Face; Meijer SPF 30 Ultra Dry Sheer; Meijer SPF 70; Meijer SPF 8; Meijer Sheer SPF 15; Meijer Sheer SPF 30; Meijer Sheer SPF 55; Meijer Sport SPF 50; Meijer Sunscreen Broad Spectrum SPF 70 Sunscreen; Meijer Sunscreen SPF 15; Meijer Suscreen SPF 8; Meijer Tropical SPF 4; Members Mark Value Size SPORT SUNSCREEN BROAD SPECTRUM SPF 50; Men Dynamics Double Duty Face Protector SPF 15; Mentholatum Softlips French Vanilla Lip Protectant SPF 20; Merino Collagen SPF 30; Merle Norman Dual Spectrum SPF 30; Mesoestetic Sun Protection SPF 25; Mesoestetic Sun Protection SPF 50; Methode D'adaptation Creme No 1; Methode D'adaptation Creme No 2; Miami Beach Sea Sunscreen 30 Broad Spectrum SPF 30; Miami Beach Sport Sunscreen 50 Broad Spectrum SPF 50; Mickey Sun Smacker SPF 24 Classic Sherbet; Mickey Sun Smacker SPF 24 Classic Strawberry; Mickey Sun Smacker SPF 24 Classic Vanilla; Mickey Sun Smacker SPF 24 Home Run Star Fruit; Milani Prime Protect SPF 30 Face Primer; Milani SPF BFF 30 Primer; Mineral Protective Am SPF 15; Mint Glaze FX; Mint Sunscreen Lip Moisturizer; Miracle Skin Transformer Face Broad Spectrum SPF 20 Sunscreen; Miracle Worker Anti-aging Foundation SPF 30; Miracle Worker SPF 55; Mkmen Advanced Facial Hydrator Sunscreen Broad Spectrum SPF 30; Mkmen Moisturizer Sunscreen SPF 25; Moisture Boost Daily Restoring Complex Broad Spectrum SPF 30; Moisture Cream SPF 30; Moisture Lotion SPF-15; Moisture Melt; Moisture Oil-free SPF 30; Moisture Rich Sunless Tanning SPF 20; Moisture SPF 15 Sheer Tint Formula Crm; Moisture Therapy Daily Skin Defense Body; Moisture Therapy Intensive Body Lotion With SPF 15; Moisture Therapy Intensive Healing & Repair Dry Lip Ointment SPF 15; Moisture Therapy Intensive Healing & Repair Extra Dry Skin Body Lotion; Moisture Therapy Intensive Healing and Repair Body; Moisture Therapy Intensive Healing and Repair Lip; Moisture Therapy Intensive Treatment Moiturizing Lip Treatment SPF 15; Moisturising Sunscreen SPF15; Moisturizer; Moisturizer Long lasting, oil free; Moisturizer Maple Day Cream SPF 15; Moisturizer Maple day SPF15; Moisturizer SPF 15; Moisturizer SPF15; Moisturizing Antioxidant Day CRème SPF 20; Moisturizing Day Cream SPF 15; Moisturizing Day Creme With SPF 15; Moisturizing Day Lotion SPF 15; Moisturizing Day with Sunscreen and Dead Sea Mineral Broad Spectrum SPF 15; Moisturizing Face Shield; Moisturizing Facial Sunscreen; Moisturizing Lip Balm; Moisturizing Lip Balm SPF 15; Moisturizing Lip BalmSPF30; Moisturizing Lip Gloss Brillant A Levres Hydratant; Moisturizing Lotion SPF 15; Moisturizing Makeup SPF 15; Moisturizing Protector SPF 30; Moisturizing Sunscreen Cream; Moisturizing Sunscreen Lotion; Moisturizing Sunscreen Lotion Sun Bum Broad Spectrum SPF 15; Moisturizing Sunscreen Lotion Sun Bum Broad Spectrum SPF 30; Moisturizing Sunscreen Lotion Sun Bum Broad Spectrum SPF 50; Moisturizing Sunscreen Spf15; Moisturizing Tint SPF 30; Moisuture Replenishing Broad Spectrum SPF 15 Jafra; Moroccanoil SPF 30; Moroccanoil SPF 50; Moustisol Lot; Multi Active Hand Protector SPF 15; Multi-age Correction; Multiceutical Complex Oil Free Day Moisturizer Sunscreen SPF 15; Multiceutical Compound Oil Free Day Creme Sunscreen SPF 20; Multivitamin Bodyblock SPF 20; Murad - Age Reform - Perfecting Day SPF 30; Murad - Environmental Shield - Essential-C Day Moisture Broad Spectrum SPF 30; Muskol Insect Repellent With Sunblock SPF 15; Mv Body Defense SPF 20; My Favorite Sport Balm Mon Baume Sport Préféré SPF/fps 15; NARS SMOOTH and PROTECT PRIMER; NATURAL CARE CONCHA DE NACAR and ROSA MOSQUETA CREMA FACIAL FPS 15 PARA UNA APARIENCIA MAS CLARA FM; NEST Fragrances Bamboo and Jasmine; NEST Fragrances Ginger and Neroli; NEST Fragrances Grapefruit and Verbena; NEST Fragrances Ocean Mist and Coconut Water; NO-AD 30 Sunscreen; NO-AD 45 Sunscreen; NO-AD 60 Sunscreen; NO-AD 85 Sunscreen; NO-AD Kids 50 Sunscreen; NO-AD Kids SPF50 Continuous Mist Sunscreen; NO-AD SPF45 Continuous Mist Sunscreen; NO-AD Splash 30 Sunscreen; NO-AD Sport 50 Sunscreen; NO-AD Sport SPF30 Continuous Mist Sunscreen; NO-AD Suncare Ltn SPF 50; NOURISHING hydrator; NU-DERM SUNFADER Skin Lightener with Sunscreen (SPF 15) PABA FREE; Nars Pro-prime Multi-protect Primer; Native Tan Baby Care Sun Protection Lotion SPF 25; Native Tan SPF 30; Native Tan SPF 40; Native Tan SPF 50; Native Tan Sun Protection Lotion SPF 15; Native Tan Sun Protection Lotion SPF 8; Natural Advantage SPF 15 All Day Moisture with AHAs; Natural BB Cream SPF15; Natural Defense Color Enhancing Moisturizer; Natural Defense Finishing Powder; Natural FX; Natural Fx Water Based Foundation SPF 15; Natural Tan Always color stay-on Makeup Broad Spectrum SPF 15 Jafra; Natural Tan Moisturizing Makeup Broad Spectrum SPF 15 Jafra; Natural Tan Oil Controlling Makeup Broad Spectrum SPF 15 Jafra; Nature's Gate Aquablock Lotion Spf30; Nature's Gate SPF 15 Lotion; Nature's Gate SPF 30 Lotion; Nature's Gate SPF 8 Lotion; Natures Gate Aqua Block SPF 50 Sunscreen; Natures Gate Kids Block SPF 30 Sunscreen; Naturissima Vitaverde Sun High Protection SPF 50; Nearly Foundation; Neck + Chest Perfector; Nelly De Vuyst Bruxelles SPF 30 Broad Spectrum Sunscreen; Nelly de Vuyst SPF 30 Broad Spectrum Sunscreen; Neoderma Anti-wrinkle Day Cream; Neostrata Aha Daytime Rejuvenating Cream Sensitive Skin Formual SPF 15; Neostrata Aha Skin Smoothing Cream SPF 15; Neostrata Aha Smooth&moist Lotion Sens Spf15; Neostrata Aha Smoothing & Moist Lotion Spf15; Neostrata Canada Hq Plus Cream; Neostrata Daytime Hydra-rejuvenating Cream; Neostrata Daytime Matifying Renewal Fluid; Neostrata Daytime Moisture Infusion Cream; Neostrata Daytime Smoothing Cream Level 1; Neostrata Daytime Smoothing Cream Level 2; Neostrata Hq Plus Lightening Cream; Neostrata Intense CRème De Jour Réparides; Neostrata Intense Daytime Total Anti Age Complex; Neostrata Moisture Infusion Daytime Replenishing Cream; Neostrata Oil Free Daytime Smoothing Lotion Level 3; Neostrata Protective Lotion Broad Spectrum Uva/uvb Protection SPF 50+; Neostrata Ultra-light Sun Lotion Broad Spectrum Uva/uvb Protection SPF 50+; Neurogena Healthy Defense Moisturizer Sunscreen Broad Spectrum SPF50; Neutrogena Age Defense Anti Oxidant Daily Moisturizer SPF20; Neutrogena Age Defense Anti Oxidant Daily Moisturizer SPF20 Sheer Tint; Neutrogena Age Shield Anti Oxidant Face Sunscreen Broad Spectrum SPF70; Neutrogena Age Shield Face Oil Free Sunscreen Broad Spectrum SPF 110; Neutrogena Age Shield Face Oil Free Sunscreen Broad Spectrum SPF 70; Neutrogena Age Shield Face Oil Free Sunscreen Broad Spectrum SPF110; Neutrogena Age Shield Face SPF 110; Neutrogena Age Shield Face Sunscreen Broad Spectrum SPF70; Neutrogena Ageless Essentials Continuous Hydration Daily Moisturizer SPF25; Neutrogena Ageless Intensive Anti-Wrinkle Instant Radiance Daily Moisturizer SPF25; Neutrogena Ageless Intensives Anti Wrinkle Deep Wrinkle Daily Moisturizer Sunscreen Broad Spectrum SPF20; Neutrogena Ageless Intensives Tone Correcting Daily Moisturizer Broad Spectrum SPF30; Neutrogena Ageless Intensives Tone Correcting Tinted Daily Moisturizer SPF 30 Helioplex; Neutrogena Ageless Restoratives Anti-Oxidant Daily Moisturizer SPF 20 Helioplex; Neutrogena Anti-Wrinkle Deep Wrinkle Daily Moisturizer SPF 20 helioplex; Neutrogena Beach Defense Sunscreen Broad Spectrum SPF50 Plus; Neutrogena Beach Defense Water Plus Sun Protection Sunscreen Broad Spectrum SPF 70; Neutrogena Beach Defense Water Plus Sun Protection Sunscreen Broad Spectrum SPF100; Neutrogena Beach Defense Water Plus Sun Protection Sunscreen Broad Spectrum SPF30; Neutrogena Beach Defense Water Plus Sun Protection Sunscreen Broad Spectrum SPF50 Plus; Neutrogena Beach Defense Water Plus Sun Protection Sunscreen Broad Spectrum SPF70; Neutrogena Clear Face; Neutrogena Clear Face Break Out Free Sunscreen Broad Spectrum SPF30; Neutrogena Clear Face Break Out Free Sunscreen Broad Spectrum SPF55; Neutrogena Clear Face Break-Out Free Sunscreen SPF 30 Helioplex; Neutrogena Clear Face Break-Out Free Sunscreen SPF 55 Helioplex; Neutrogena Clear Face Breakout Free Oil Free Broad Spectrum SPF 55; Neutrogena Clinical Lifting Wrinkle Treatment System; Neutrogena Colour Boosting Sunscreen SPF 30; Neutrogena Complete Acne Therapy Solution; Neutrogena CoolDry Sport Sunscreen Broad Spectrum SPF 50; Neutrogena CoolDry Sport Sunscreen Broad Spectrum SPF100; Neutrogena CoolDry Sport Sunscreen Broad Spectrum SPF30; Neutrogena CoolDry Sport Sunscreen Broad Spectrum SPF70; Neutrogena CoolDry Sport Sunscreen SPF 50 with Micromesh; Neutrogena CoolDry Sport with Micromesh Face Oil free Sunscreen Broad Spectrum SPF 70; Neutrogena CoolDry Sport with Micromesh Sunscreen Broad Spectrum SPF 30; Neutrogena CoolDry Sport with Micromesh Sunscreen Broad Spectrum SPF 50; Neutrogena CoolDry Sport with Micromesh Sunscreen Broad Spectrum SPF 70; Neutrogena CoolDry Sport with Micromesh Sunscreen Broad Spectrum SPF30; Neutrogena CoolDry Sport with Micromesh Sunscreen Broad Spectrum SPF50 Plus; Neutrogena CoolDry Sport with Micromesh Sunscreen Broad Spectrum SPF70; Neutrogena Cooldry Sport Sunscreen Broad Spectrum SPF 50; Neutrogena Cooldry Sport Sunscreen Broad Spectrum SPF 50 Plus; Neutrogena Day Activating SPF 30; Neutrogena Fresh Cooling Body Mist Sunscreen SPF 60; Neutrogena Fresh Cooling Sunscreen Body Mist Broad Spectrum SPF45; Neutrogena Fresh Cooling Sunscreen Body Mist Broad Spectrum SPF70 Plus; Neutrogena Healthy Defense Daily Moisturizer SPF 50 with Helioplex; Neutrogena Healthy Defense Daily Moisturizer SPF30 with Helioplex; Neutrogena Healthy Defense Daily Moisturizer Sunscreen Broad Spectrum SPF 50; Neutrogena Healthy Defense Daily Moisturizer Sunscreen Broad Spectrum SPF30; Neutrogena Healthy Defense Daily Moisturizer Sunscreen Broad Spectrum SPF50; Neutrogena Healthy Defense Moisturizer SPF 50; Neutrogena Healthy Skin; Neutrogena Healthy Skin Anti Wrinkle Broad Spectrum SPF15; Neutrogena Healthy Skin Anti Wrinkle with sunscreen Broad Spectrum SPF15; Neutrogena Healthy Skin Anti-Wrinkle System; Neutrogena Healthy Skin Anti-wrinkle Cream SPF 15; Neutrogena Healthy Skin Compact Makeup SPF 55 Buff 30; Neutrogena Healthy Skin Compact Makeup SPF 55 Classic Ivory 10; Neutrogena Healthy Skin Compact Makeup SPF 55 Natural Beige 60; Neutrogena Healthy Skin Compact Makeup SPF 55 Warm Beige 90; Neutrogena Healthy Skin Compact Makeup SPF Nude 40; Neutrogena Healthy Skin Compact Makeup SPF55 Fresh Beige 70; Neutrogena Healthy Skin Compact Makeup SPF55 Natural Ivory 20; Neutrogena Healthy Skin Compact Makeup SPF55 Soft Beige 50; Neutrogena Healthy Skin Compact Makeup with sunscreen broad spectrum SPF 55 Buff 30; Neutrogena Healthy Skin Compact Makeup with sunscreen broad spectrum SPF 55 Classic Ivory 10; Neutrogena Healthy Skin Compact Makeup with sunscreen broad spectrum SPF 55 Natural Beige 60; Neutrogena Healthy Skin Compact Makeup with sunscreen broad spectrum SPF 55 Warm Beige 90; Neutrogena Healthy Skin Compact Makeup with sunscreen broad spectrum SPF Nude 40; Neutrogena Healthy Skin Compact Makeup with sunscreen broad spectrum SPF55 Fresh Beige 70; Neutrogena Healthy Skin Compact Makeup with sunscreen broad spectrum SPF55 Natural Ivory 20; Neutrogena Healthy Skin Compact Makeup with sunscreen broad spectrum SPF55 Soft Beige 50; Neutrogena Healthy Skin Face Broad Spectrum SPF15; Neutrogena Healthy Skin Face Lotion SPF 15; Neutrogena Healthy Skin Face Sunscreen Broad Spectrum SPF15; Neutrogena Healthy Skin Face Sunscreen SPF 15; Neutrogena Healthy Skin Firming Sunscreen Broad Spectrum SPF15; Neutrogena Healthy Skin Firms and Lifts SPF15; Neutrogena Healthy Skin Glow Sheers Illuminating Tinted Moisturizer - Fair to Light 20 Sunscreen Broad Spectrum SPF30; Neutrogena Healthy Skin Glow Sheers Illuminating Tinted Moisturizer - Ivory to Fair 10 Sunscreen Broad Spectrum SPF30; Neutrogena Healthy Skin Glow Sheers Illuminating Tinted Moisturizer - Light to Medium 30 Sunscreen Broad Spectrum SPF30; Neutrogena Healthy Skin Glow Sheers Illuminating Tinted Moisturizer - Medium to Tan 40 Sunscreen Broad Spectrum SPF30; Neutrogena Healthy Skin Radiant Tinted Moisturizer Sunscreen Broad Spectrum SPF 30, Sheer Fair 20; Neutrogena Healthy Skin Radiant Tinted Moisturizer Sunscreen Broad Spectrum SPF 30, Sheer Ivory 10; Neutrogena Healthy Skin Radiant Tinted Moisturizer Sunscreen Broad Spectrum SPF 30, Sheer Tan 30; Neutrogena Healthy Skin SPF 15 Face Lotion; Neutrogena HydroBoost Water Gel Sunscreen Broad Spectrum SPF 50; Neutrogena Kids Sunblock SPF 30; Neutrogena Men Active protect Face SPF 50 Plus; Neutrogena Men Age Fighter Face Broad Spectrum SPF15; Neutrogena Men Sensitive Skin Oil Free Moisture Sunscreen Broad Spectrum SPF30; Neutrogena Men Sensitive Skin Oil-free Moisture; Neutrogena Men Triple Protect Face Broad Spectrum SPF20; Neutrogena Men Triple Protect Face SPF20; Neutrogena Men Triple Protect Face With Sunscreen Broad Spectrum SPF 20; Neutrogena Moisture Oil-free; Neutrogena Moisture Oil-free SPF 15; Neutrogena Moisture SPF 15; Neutrogena Moisture SPF 15 - Crm; Neutrogena MoistureShine Lip Soother Sunscreen SPF20 - Glaze 60; Neutrogena MoistureShine Lip Soother Sunscreen SPF20 - Gleam 40; Neutrogena MoistureShine Lip Soother Sunscreen SPF20 - Glimmer 15; Neutrogena MoistureShine Lip Soother Sunscreen SPF20 - Glisten 20; Neutrogena MoistureShine Lip Soother Sunscreen SPF20 - Glow 70; Neutrogena MoistureShine Lip Soother Sunscreen SPF20 - Sheen 50; Neutrogena MoistureShine Lip Soother Sunscreen SPF20 - Shimmer 10; Neutrogena MoistureShine Lip Soother Sunscreen SPF20 - Shine 30; Neutrogena MoistureShine Lip Soother Sunscreen SPF20 - Sparkle 45; Neutrogena No-stick Sunblock SPF 30 - Lotion; Neutrogena Norwegian Formula Age Shield Hand SPF 30; Neutrogena Norwegian Formula Lip Moisturizer SPF15; Neutrogena Norwegian Formula Lip Moisturizer Sunscreen SPF15; Neutrogena OIl Free Moisture Sunscreen SPF 15; Neutrogena Oil Free Moisture Broad Spectrum SPF15; Neutrogena Oil-Free Moisture Sunscreen Broad Spectrum SPF 35; Neutrogena Oil-free Sunblock SPF 30; Neutrogena PROTECT PLUS TINT MEDIUM TO DEEP 50; Neutrogena PROTECT Plus TINT FAIR TO LIGHT 20; Neutrogena PROTECT Plus TINT IVORY TO FAIR 10; Neutrogena PROTECT Plus TINT LIGHT TO TAN 30; Neutrogena PROTECT Plus TINT TAN TO MEDIUM 40; Neutrogena Retinol Nx Concentrated Retinol Daily Moisturizer SPF 35 Tinted; Neutrogena Revitalizing Lip Balm SPF 20 - Fresh Plum 60; Neutrogena Revitalizing Lip Balm SPF 20 - Healthy Blush 20; Neutrogena Revitalizing Lip Balm SPF 20 - Petal Glow 40; Neutrogena Revitalizing Lip Balm SPF 20 - Sheeer Shimmer 10; Neutrogena Revitalizing Lip Balm SPF 20 - Sheer Shimmer 10; Neutrogena Revitalizing Lip Balm SPF 20 - Soft Caramel 50; Neutrogena Revitalizing Lip Balm SPF 20 - Sunny Berry 30; Neutrogena SPF 15; Neutrogena SPF 30; Neutrogena SPF 45; Neutrogena SPF 45 Healthy Defense; Neutrogena Spectrum + Advanced Moisture Body Lotion; Neutrogena Spectrum + Advanced Moisture Sunscreen Lotion SPF 100; Neutrogena Spectrum + Face Advanced Moisture Sunscreen Lotion SPF 100; Neutrogena Spectrum Plus Advanced Sunscreen Broad Spectrum SPF100 Plus; Neutrogena Spectrum Plus Face Advanced Oil Free Sunscreen Broad Spectrum SPF100 Plus; Neutrogena Spectrum plus Advanced Sunblock SPF 100 plus helioplex 360; Neutrogena Spectrum+ Advanced Moisture Sunscreen Lotion SPF 70; Neutrogena Spectrum+ Advanced Moisture Sunscreen Spray SPF 100; Neutrogena Sport Face Oil Free Sunscreen Broad Spectrum SPF 70 Plus; Neutrogena Sport Face Oil Free Sunscreen Broad Spectrum SPF70 Plus; Neutrogena Sport Face Sunblock SPF70plus; Neutrogena Ultimate Sport Sunblock SPF 100 Plus; Neutrogena Ultimate Sport Sunblock SPF 30 Helioplex; Neutrogena Ultimate Sport Sunblock SPF 70 Plus; Neutrogena Ultimate Sport Sunblock SPF70 Plus; Neutrogena Ultimate Sport Sunscreen Broad Spectrum SPF100 Plus; Neutrogena Ultimate Sport Sunscreen Broad Spectrum SPF30; Neutrogena Ultimate Sport Sunscreen Broad Spectrum SPF70 Plus; Neutrogena Ultra Sheer; Neutrogena Ultra Sheer Body Mist Sunscreen Broad Spectrum SPF 100 Plus; Neutrogena Ultra Sheer Body Mist Sunscreen Broad Spectrum SPF 30; Neutrogena Ultra Sheer Body Mist Sunscreen Broad Spectrum SPF 45; Neutrogena Ultra Sheer Body Mist Sunscreen Broad Spectrum SPF 70; Neutrogena Ultra Sheer Body Mist Sunscreen Broad Spectrum SPF30; Neutrogena Ultra Sheer Body Mist Sunscreen SPF 30; Neutrogena Ultra Sheer Body Mist Sunscreen SPF 45; Neutrogena Ultra Sheer Body Mist Sunscreen SPF 60; Neutrogena Ultra Sheer Daily Sun Protection SPF55; Neutrogena Ultra Sheer Dry Touch SPF55; Neutrogena Ultra Sheer Dry Touch Sunblock SPF 30 Helioplex; Neutrogena Ultra Sheer Dry Touch Sunblock SPF 45 with helioplex; Neutrogena Ultra Sheer Dry Touch Sunblock SPF70; Neutrogena Ultra Sheer Dry Touch Sunscreen Broad Spectrum SPF 30; Neutrogena Ultra Sheer Dry Touch Sunscreen Broad Spectrum SPF 55; Neutrogena Ultra Sheer Dry Touch Sunscreen Broad Spectrum SPF100 Plus; Neutrogena Ultra Sheer Dry Touch Sunscreen Broad Spectrum SPF45; Neutrogena Ultra Sheer Dry Touch Sunscreen Broad Spectrum SPF55; Neutrogena Ultra Sheer Dry Touch Sunscreen Broad Spectrum SPF70; Neutrogena Ultra Sheer Dry Touch Sunscreen Broad Spectrum SPF85 Plus; Neutrogena Ultra Sheer Dry-touch Sunscreen SPF 70; Neutrogena Ultra Sheer Dry-touch Sunscreen SPF 85; Neutrogena Ultra Sheer Face Sunscreen Broad Spectrum SPF 70; Neutrogena Ultra Sheer Face Sunscreen SPF 45; Neutrogena Ultra Sheer Face Sunscreen SPF 60; Neutrogena Ultra Sheer Face and Body Sunscreen Broad Spectrum SPF70; Neutrogena Ultra Sheer SPF 30; Neutrogena Ultra Sheer SPF 45; Neutrogena Ultra Sheer SPF 55 and SPF 70 Suncare Kit; Neutrogena Ultra Sheer Sunscreen Broad Spectrum SPF 70; Neutrogena Ultra Sheer Water Light; Neutrogena Ultra sheer Face and Body Sunscreen Broad Spectrum SPF70; Neutrogena Visibly Even BB Broad Spectrum SPF 30 Fair to Light; Neutrogena Visibly Even BB Broad Spectrum SPF 30 Light to Medium; Neutrogena Visibly Even Daily Moisturizer Sunscreen Broad Spectrum SPF30; Neutrogena Visibly Even Daily Moisturizer With Sunscreen Broad Spectrum SPF 30; Neutrogena Wet Guard Kids Beach and Pool; Neutrogena Wet Skin Kids Applies To Wet Or Dry Skin Sunscreen Stick; Neutrogena Wet Skin Kids Beach & Pool Sunscreen Lotion; Neutrogena Wet Skin Kids Beach and Pool Sunblock SPF 70; Neutrogena Wet Skin Kids Beach and Pool Sunblock SPF 70plus helioplex; Neutrogena Wet Skin Kids Beach and Pool Sunscreen Broad Spectrum SPF 70 Plus; Neutrogena Wet Skin Kids Beach and Pool Sunscreen Broad Spectrum SPF45 Plus; Neutrogena Wet Skin Kids Beach and Pool Sunscreen Broad Spectrum SPF70 Plus; Neutrogena Wet Skin Kids SPF 45 Plus; Neutrogena Wet Skin Kids Sunscreen Broad Spectrum SPF70 Plus; Neutrogena Wet Skin Swim Humidity Sweat Sunscreen Broad Spectrum SFP45 Plus; Neutrogena Wet Skin Swim Humidity Sweat Sunscreen Broad Spectrum SPF30; Neutrogena Wet Skin Swim Humidity Sweat Sunscreen Broad Spectrum SPF50; Neutrogena Wet Skin Swim Humidity Sweat Sunscreen Broad Spectrum SPF85 Plus; Neutrogena Wet Skin Swim-Humidity-Sweat Sunblock SPF 50 Helioplex; Neutrogena Wet Skin Swim-Humidity-Sweat Sunblock SPF 85Plus Helioplex; Neutrogena Wet Skin Swim-Humidity-Sweat Sunscreen SPF 30 Helioplex; New Hands SPF 15; New Hawaiian Tropic Sensitive Skin Lotion Sunscreen; NexGen Sunscreen Broad Spectrum SPF 36 Doc Martins; Nicole Miller Daytime Delivery; Nicole Miller Daytime Delivery Creme; Nicole Miller Daytime Delivery Moisturizing Creme; Nicole Miller Daytime Delivery Moisturizing Lotion; Nicole Miller Timeless Age-defying Hand Creme; Nivea A Kiss of Protection Lip Care; Nivea A Kiss of Protection Sun Protection Lip Care; Nivea For Men Protective; Nivea For Men Q10 Energy; Nivea Men - Lotion Protectrice Quotidienne SPF 15; Nivea Sun; Nivea Visage - Coenzyme Q10 Wrinkle Control Lotion; Nivea Visage Alpha Flavon Perfect Protection Cream; Nivea Visage Alpha Flavon Perfect Protection Lotion; Nivea Visage Coenzyme Q10 Plus Wrinkle Control Lotion; Nivea Visage Facial Moisturizing Creme Spf4; Nivea Visage Facial Moisturizing Lotion Spf4; Nivea Visage Moisturizing Lotion SPF 15; No Name Sunblock Lotion 15 SPF; No Name Sunblock Lotion 30 SPF; No Name Sunblock Lotion Kids 30 SPF; No Name Sunblock Lotion Sport 15 SPF; No name provided; No-AD Face SPF 30 6oz; No-AD Hawaiian Style Dark Tanning Oil SPF 4; No-AD Kids Sun Protection SPF 30; No-AD Quality Guaranteed SPF 15 Uva/uvb Sun Protection Lotion; No-AD SPF 45 Babies Sun Protection; No-AD SPF 45 Face Protection; No-AD SPF 45 Sun Protection; No-AD SPF 50 Sport Sun Protection; No-AD Spf30 5 Oz; No-AD Spf30 Ltn 16oz; No-Ad Sun Care Broad Spectrum SPF 30 Sunscreen; No-Ad Sun Care Broad Spectrum SPF 50 Baby Sunscreen; No-Ad Sun Care Broad Spectrum SPF 50 Kids; No-Ad Sun Care Broad Spectrum SPF 60 Sunscreen; Noad Sport SPF 50; Noella 24K Aged Defense SPF 30 Broad Spectrum; North Sunx SPF 30 Sunscreen Lotion; North Sunx SPF 30 Sunscreen Towelette; Norwegian Formula Ageless Hand Cream SPF 30; Norwegian Formula Lip Moisturizer SPF 15; Nova Bright Skin SPF 30; Nu Colour Moisturshade Liquid Finish SPF 15; Nu Colour Undeviating Lipstick SPF 15 - Stk; Nu Colour Undeviating Lipstick SPF 15(14 Cl); Nu Skin Nu Colour MoisturShade Finish SPF 15 Amber Mist; Nu Skin Nu Colour MoisturShade Finish SPF 15 Caramel; Nu Skin Nu Colour MoisturShade Finish SPF 15 Delicate Ivory; Nu Skin Nu Colour MoisturShade Finish SPF 15 Golden Beige; Nu Skin Nu Colour MoisturShade Finish SPF 15 Honey Beige; Nu Skin Nu Colour MoisturShade Finish SPF 15 Natural Beige; Nu Skin Nu Colour MoisturShade Finish SPF 15 Saffron Whisper; Nu Skin Nu Colour MoisturShade Finish SPF 15 Sandalwood; Nu Skin Nu Colour MoisturShade Finish SPF 15 Shell Rose; Nu Skin Nu Colour MoisturShade Finish SPF 15 Sunset Beige; Nu-derm Starter Set Normal-dry Skin Transformation System; Nu-derm Starter Set Normal-oily Skin Transformation System; NuCaraClinPAK; NuCaraRXPAK; Nuderm Sunfader; Nuquin Hp; Nurigene Nourishing Daytime SPF 15; Nurture & Nourish; Nutra Effects Ageless Day Cream SPF20; Nutra Effects Balance Day Cream SPF15; Nutra Effects Hydration Day Cream SPF15; Nutra Effects Radiance Day Cream SPF20; Nutra Suncare Ecran Solaire Nutra SPF 30; Nutri-metics Tinted Moisturizing Lipsticks With Spf15; Nutrimen C Re9 Reality Moisturizing Sunscreen SPF 8; Nutrimenc Re9 Reality Moisturizer With SPF 8; Nutrimin C Re9 Reality Spf8 Day Creme; Nutriminc Re9 Reality Day Creme With SPF 8; Nutrisun Lait Solaire Insectifuge SPF 16; Nutrisun Lait Solaire Insectifuge SPF 30; Nutrisun Lotion Solaire Insectifuge SPF 8; Nyakio Hydrating Face; OBAGI-C RX SYSTEM C-EXFOLIATING DAY with Vitamin C; OP Protect and Renew Body SPF 45; OP SPF 70 Anti Aging Sunscreen; OP spf45 Face Clear Zinc Potion; OP spf45 Lip Potion Clear Zinc; ORASER DAILY HAND REPAIR Broad-Spectrum SPF 20 Sunscreen; Oasis Daily Defense; Obagi; Obagi 360; Obagi 360 HydraFactor Moisturizing Broad Spectrum SPF 30 SUNSCREEN; Obagi Nu-Derm Sunfader; Obagi Skintrinsiq Antioxidant Protocol; Occulus Soloxide 30 Broad Spectrum SPF 30; Ocean Potion H2o Sport SPF 50 Sunscreen Lotion; Ocean Potion Instant Dry 70 Mist Sunscreen; Ocean Potion Instant Dry SPF 30 Mist H20 Sport Sunscreen; Ocean Potion Instant Dry SPF 30 Mist Sport; Ocean Potion Instant Dry SPF 50 Mist Kids; Ocean Potion Instant Dry SPF 50+ Mist; Ocean Potion Kids Sunscreen Lotion SPF 50; Ocean Potion Moisturizing Lip Potion 45; Ocean Potion Quick Dry SPF 70 Sunscreen; Ocean Potion Sport Xtreme Sunscreen Lotion SPF 30; Ocean Potion Sport Xtreme Sunscreen Lotion SPF 50; Ocean Potion Sunscreen Lotion SPF 30; Ocean Potion Sunscreen SPF 50+ Lotion; Off Skintastic 1 Insect Repell.with Sunscrn.; Oil Clearing Matte Moisturizer; Oil Control testers SPF 15; Oil Controlling Makeup SPF 15; Oil Daily Protect Sunscreen Moisturizer Broad Spectrum SPF 30; Oil Free Active Sunscreen Lotion SPF 15; Oil Free Faces 30 SPF Sunscreen; Oil Free Faces Sunscreen SPF 30 daylogic; Oil Free Matte SPF 30; Oil Free Matte Sunscreen SPF 30, - Zinc Oxide, Octinoxate, Octisalate, Oxybenzone; Oil Free Moisture; Oil Free SPF 30 Sunblock Lotion; Oil Free Sunscreen Lotion SPF 30; Oil-free Sun Block Liq SPF 15; Oil-free Sunscreen SPF 30; Oil-free Sunspray SPF 15; Oil-free Sunspray Spf10 Asp; Oil-free Tinted Nourisher; Olay Complete All Day Moisture With Sunscreen Broad Spectrum SPF 30 Normal; Olay Luminous Brightening & Protecting Lotion With Sunscreen Broad Spectrum SPF 30; Olay Luminous Brightening and Protecting with Sunscreen Broad Spectrum SPF 30; Olay Professional Pro-X Even Skin Tone Sheer Uv Protective Lotion; Olay Professional ProX Age Repair Broad Spectrum SPF 30; Olay Professional ProX Age Repair SPF 30; Olay Professional ProX Anti-Oxidant Sheer Daily Moisturizer Broad Spectrum SPF 35; Olay Professional ProX Tone Correcting Protocol; Olay Regenerist Advanced Anti-Aging; Olay Regenerist DNA Superstructure Broad Spectrum SPF 30; Olay Regenerist DNA Superstructure UV SPF 30; Olay Regenerist Regenerating Advanced Anti-Aging Moisturize Broad Spectrum SPF 50; Olay Regenerist Regenerating Broad Spectrum SPF 50; Olay Total Effects 7-IN-1 Anti-aging Moisturizer With Sunscreen Broad Spectrum SPF 30; Olay Total Effects Anti-Aging Moisturizer Broad Spectrum SPF 30; Ombrelle Kids Lotion Wet'n Protect; Ombrelle L'oreal Suncare Research Kids (SPF 30); Ombrelle L'oreal Suncare Research Kids (SPF 45); Ombrelle Lotion Extreme SPF 30; Ombrelle Lotion SPF 15; Ombrelle Sport Gel; Ombrelle Sport Spray; Ombrelle Spray SPF 15; Ombrelle Spray SPF 15 Liq; Ombrelle Vapo Sport SPF 15; Ombrelle-15 Lot; One Essential City Defense; Optimal Solution; Orange Mango Blast; Orchidee Double Defense Skin Shield; Orchidee Imperiale - Exceptional Complete Care - The Uv Beauty Protector With Sunscreen Broad Spectrum SPF 50 Universal Shade; Orchidee Imperiale Brightening Exceptional Complete Care The Brightening and Perfecting Uv Protector With Sunscreen Broad Spectrum SPF 50 Pollution; Original Lotion With Sunscreen; Origins Plantscription SPF 25 Anti-aging Cream; Origins Smarty Plants Cc SPF 20 Skin Complexion Corrector; Oscar de la Renta Moisturizing Sunscreen SPF 30; PETER ISLAND Continuous Sunscreen KIDS 50 BROAD SPECTRUM SPF 50 Water Resistant; PETER ISLAND Continuous Sunscreen Sport 50 BROAD SPECTRUM SPF 50 Water Resistant; PREP (plus) PRIME BEAUTY BALM SPF 35; Pacific Merchants Hollister California Lifeguard Lip Balm Baume A Levres Garde Cote De California; Palmer's Cocoa Butter Formula Body Lotion SPF 15; Panama Jack BOAD SPECTRUM SPF 30; Panama Jack BOAD SPECTRUM SPF 50; Panama Jack BROAD SPECTRUM SPF 50; Panama Jack BROAD SPECTRUM SPF30; Panama Jack Broad Spectrum SPF 100 Sport Sunscreen; Panama Jack Broad Spectrum SPF 100 Sunscreen; Panama Jack Broad Spectrum SPF 30; Panama Jack Broad Spectrum SPF 50; Panama Jack Broad Spectrum SPF 70; Panama Jack SPF 15; Panama Jack SPF 30; Panama Jack SPF 50; Panama Jack SPF 8; Panama Jack SPF 8 with instant bronzer; Panama Jack SPF 85 Sport Dry Touch Sunscreen; Parismist Day Cream; Parsol Suncare SPF 29; Patricia Wexler Intensive 3-in-1 Day Cream with Sunscreen Broad Spectrum SPF 28; Patricia Wexler Skin Brightening Daily Moisturizer with Sunscreen Broad Spectrum SPF 28; Patricia Wexler Universal Anti-Aging Moisturizer with Sunscreen Broad Spectrum SPF 28; Patrick Dempsey 2 Moisturizer; Patricks Sunscreen; Paula's Choice Pc4men Daytime Protect Broad Spectrum SPF 30; Paulas Choice Extra Care Non-Greasy Sunscreen SPF 50; Paulas Choice Moisture Boost Daily Restoring Complex; Paulas Choice PC4MEN Daytime Protect; Paulas Choice RESIST Skin Restoring Moisturizer SPF 50; Paulas Choice Ultra Sheer Daily Defense SPF 30; Pc SPF Fps 15 Sunscreen Continuous Spray; Pc SPF Fps 15 Sunscreen Lotion; Pc SPF Fps 30 Sport Sunscreen Continuous Spray; Pc SPF Fps 30 Sport Sunscreen Lotion; Pc SPF Fps 30 Sunscreen Continuous Spray; Pc SPF Fps 30 Sunscreen Lotion; Pc SPF Fps 50 Sunscreen Continuous Spray; Pc SPF Fps 50 Sunscreen Lotion; Pc SPF Fps 50+ Kids Sunscreen Continuous Spray; Pc SPF Fps 50+ Kids Sunscreen Lotion; Pc SPF Fps 50+ Sunscreen Lotion; Peppermint Lip Balm SPF 15; Peppermint SPF 30 Broad Spectrum Lip Balm; Perfect Balance Sunsafe Sunblock SPF 24; Perfect Sun Kids Sunscreen protector against solar rays for children, face and body SPF 50 FM; Perfectif Even Skin Tone Cream Broad Spectrum SPF 30 Sunscreen; Perfecting Day Cream Broad Spectrum SPF 30 Pa +++; Performance Moisturizer SPF 15; Performance Sunscreen SPF 45 Cream; Perrigo Hydroquinone with sunscreens; Peter Island Baby Sunscreen SPF 50; Peter Island Continous sunscreen SPF 50; Peter Island Continous sunscreen kids SPF 50; Peter Island Continuous Sport Sunscreen SPF 50; Peter Island Kids Sunscreen SPF 65; Peter Island Sunscreen SPF 30; Peter Island Sunscreen SPF 50; Peter Island Sunscreen SPF 70; Peter Island SunscreenSPF 50 SPF 50; Peter Island Ultimate Sheer Dry Touch Sunscreen SPF 70; Petroleum-Free Lip Balm; Pharma Plus Baby Sunblock Lotion 30 SPF; Pharma Plus Sport Sunblock 30 SPF; Pharma Plus Sport Sunblock Lotion 30 SPF; Pharma Plus Sunblock 30 SPF; Pharmasave Sport Sunscreen Continuous Spray SPF Fps 30; Phaze 6 + Hydrator Plus SPF 15; Phaze 7 Protecting Hydrator SPF 15; Phaze 8 Body Hydrator SPF 15; Phenomen-A Jour; Phineas and Ferb Sun Smacker SPF 24 Berry Busted; Phineas and Ferb Sun Smacker SPF 24 Secret Agent Strawberry; Phineas and Ferb Sun Smacker SPF 24 Vanilla Vacation; Photo Dynamic Therapy SPF 30; Photo Finish; Photo-age Sunscreen SPF 30; Photo-radiance Treatment Traitement Photo-éclat SPF/fps 15 Uva/uvb; Photoplex Plus Broad Spect.sunscr.lot SPF 15; Pineapple Sunscreen Lip Moisturizer; Pink Lemonade SPF 15 Lip Balmer; Pink Stick; Pixi Sun Serum SPF 30; Pl-1849; Plantscription Anti-aging Broad Spectrum SPF 25; Plénitude - Effaceur Rides SPF 15; Polysporin Lip Protectant; Pomegranate Lip Balm SPF 15; Pond's Age Defying Eye Cream With SPF 8; Pond's Prevent - Crm; Pond's Prevent SPF 15 Cream; Pond's Prevent SPF 15 Lotion; Porcelain Always color stay-on Makeup Broad Spectrum SPF 15 Jafra; Positively Ageless Daily Moisturizer; Positively Ageless Sunscreen Lotion SPF 60 Face; Positively Ageless Sunscreen Lotion SPF 85 Face; Positively Ageless Sunscreen Spray SPF 45; Positively Ageless Tinted Moisturizer; Positively Radiant Cc Cream SPF 30 Fair To Light; Positively Radiant Cc Cream SPF 30 Medium; Positively Radiant Daily Moisturizer; Powder Foundation SPF 20; PowerPatch Dark Spot Protector; Prebel Nude Protect SPF 70 Sunscreen; Prep (and) Prime Bb Beauty Balm SPF 35 Broad Spectrum Suncreen; Prep (and) Prime Cc Color Correct Spf30 Broad Spectrum; Prep and Prime Fortified Skin Enhancer Broad Spectrum SPF 35; Prep and Prime Fortified Skin Enhancer SPF 35; Prescriptives Anti-age Advanced Protection Eye Cream SPF 25; Prescriptives Anti-age Advanced Protection Lotion SPF 25; Prescriptives Anti-age Advanced Protection Moisturizer SPF 25; Prescriptives Sunsheen Custom Color Tinted Self Tanner Uva/uvb Sunscreen SPF 15 for Face and Body; President's Choice Sport Sunblock Lotion SPF 15; President's Choice Sport Sunblock Lotion SPF 30; President's Choice Sunblock Lotion SPF 15; President's Choice Sunblock Lotion SPF 30; President's Choice Sunblock Lotion for Babies SPF 45; President's Choice Sunblock Lotion for Children SPF 30; President's Choice Sunscreen Lotion SPF 8; Presidents Choice; Prestige Light Response; Presun 15 Cream Sunscreen; Presun 15 Creamy Lot; Presun 15 Lotion; Presun 29 Cream Sunscreen; Presun 29 Cream Sunscreen for Kids; Presun 29 Sunscreen Cream Spf29; Presun 29 Sunscreen for Kids Crm Spf29; Presun 30 Clear Gel Sunscreen; Presun 30 Cream Sunscreen; Presun 30 Cream Sunscreen for Kids; Presun 30 for Kids Cream Sunscreen; Presun 39 Sunscreen Crm Spf39; Presun 8 Creamy Lot; Presun Ultra 15 Cream; Presun Ultra 15 Gel; Presun Ultra 27 for Kids Spray; Presun Ultra 30 Cream; Presun Ultra 30 Gel; Presun Ultra 30 for Kids Cream; Prevage Anti Aging Eye Sunscreen SPF 15; Prevage Anti Aging Moisture Broad Spectrum Sunscreen SPF 30; Prevage Anti Agining Triple Defense Shield Broad Spectrum Sunscreen SPF 50; Prevage Anti-aging Moisture Cream; Prevage Anti-aging Moisture Cream SPF 30; Prevage Anti-aging Moisture Lotion SPF 30; Prevage Anti-aging Triple Defense SPF 50 Sunscreen Sheer Lotion; Prevage Anti-aging eye cream SPF 15; Prevage anti aging SPF 30; Preventage Hand Treatment Merle Norman; Primer Plus Radiance Broad Spectrum SPF 35; Principal Secret Reclaim Radiance Foundation SPF15 Light Medium; Principal Secret Reclaim Radiance Foundation SPF15 Medium; Principal Secret Reclaim Sunscreen For Face and Body SPF 30; Pro Hydro-nutritive Foundation SPF 15/ Base De Maquillaje Hidro - Nutritiva Fps 15 (beige 1) - Brown; Pro Hydro-nutritive Foundation SPF 15/ Base De Maquillaje Hidro - Nutritiva Fps 15 (beige 2) - Brown; Pro Hydro-nutritive Foundation SPF 15/ Base De Maquillaje Hidro - Nutritiva Fps 15 (beige 3) - Brown; Pro Hydro-nutritive Foundation SPF 15/ Base De Maquillaje Hidro - Nutritiva Fps 15 (beige 4) - Brown; Pro Hydro-nutritive Foundation SPF 15/ Base De Maquillaje Hidro - Nutritiva Fps 15 (beige 5) - Brown; Pro Hydro-nutritive Foundation SPF 15/ Base De Maquillaje Hidro - Nutritiva Fps 15 (beige 6) - Brown; Pro Hydro-nutritive Foundation SPF 15/ Base De Maquillaje Hidro - Nutritiva Fps 15 (rosa 1) - Pink; Pro Hydro-nutritive Foundation SPF 15/ Base De Maquillaje Hidro - Nutritiva Fps 15 (rosa 2) - Pink; Pro Hydro-nutritive Foundation SPF 15/ Base De Maquillaje Hidro - Nutritiva Fps 15 (rosa 3) - Pink; Pro Hydro-nutritive Foundation SPF 15/ Base De Maquillaje Hidro - Nutritiva Fps 15 (rosa 4) - Pink; Pro Hydro-nutritive Foundation SPF 15/ Base De Maquillaje Hidro - Nutritiva Fps 15 (rosa 5) - Pink; Pro Hydro-nutritive Foundation SPF 15/ Base De Maquillaje Hidro - Nutritiva Fps 15 (rosa 6) - Pink; Pro Laser Body; Pro Lumière; Pro SPF 15 Sport Lotion; Pro SPF 30 Sport Lotion; Pro Triple Protection Factor Face and Body Broad Spectrum SPF 30 Sunscreen; Pro-Care; Pro-Tect Sports Sunscreen SPF 20; Pro-Tect Sunscreen for Professionals; Pro-X By Olay Dermatological Anti-aging Age Protection Lotion Sunscreen Broad Spectrum SPF 30; Pro-tec Sport Lotion; Pro-tect Everyday Sunscreen SPF 15; Pro-tect Sports Sunscreen; Pro-tect Sunscreen for Professionals; ProX by Olay Dermatological Anti-Aging Intensive Wrinkle Protocol; Proactiv Sheer Tint Moisture SPF 15; Proactiv Solution BB Broad Spectrum SPF 15 (Light, Medium, Dark); Proactiv Solution Daily Protection Plus Sunscreen SPF 30; Professional-C Suncare Broad Spectrum SPF 30 Sunscreen; Propol-guard Lip Balm; Protect The Truth SPF 50 Ole Henriksen; Protect and Prime Broad Spectrum SPF30; Protecting SPF 30 Spray; Protecting Self-tan Lotion SPF 15; Protecting Sun Care Lotion SPF 15; Protecting Sun Care Lotion SPF 25; Protecting Suncare Lotion SPF 15 Prevention Soleil; Protective Day; Protective Day (UVA/UVB) SPF 25; Protective Moisture Lotion SPF 15; Protective Moisturizer Broad Spectrum SPF 30 Sunscreen; Protective Self Tan; Protective Self Tan SPF 15; Protective Sport Sunscreen Ecran Solaire 30 SPF/fps; Protective Sunscreen SPF/fps 10 Écran Solaire Protecteur Dry Oil/huile Sèche; Protector R Plus; Protector SPF 15 Jafra Sun; Publix Baby SPF 50; Publix Kids; Publix Kids SPF 50; Publix SPF 30; Publix SPF 50; Publix Sport SPF 50; Publix Sunscreen SPF 15; Pucker Up Lip Balm; Pura Vida Sunscreen; Pure Bright SPF 25; Pure Cashmere Skin Defense Makeup SPF 15 Jafra; Pure Champagne Skin Defense Makeup SPF 15 Jafra; Pure Defense Fluide SPF 15; Pure Ivory Skin Defense Makeup SPF 15 Jafra; Pure Porcelain Skin Defense Makeup SPF 15 Jafra; Pure Tan Skin Defense Makeup SPF 15 Jafra; Purple Stick; Purpose; Purpose Alpha Hydroxy Moisture Cream SPF 15; Purpose Alpha Hydroxy Moisture Lotion SPF 15; Purpose Dual Treatment Moisture Sunscreen SPF 15; Purpose Sunscreen; Quick Dry SPF 50 Sheer Finish Spray; Quick Fluid Week-end; Quiet Rose Always color stay-on Makeup Broad Spectrum SPF 15 Jafra; Quintessence Q-Sunshade Leave In Hair Conditioner and Scalp Protectant SPF 30; Quo Light Diffusing Makeup SPF 8; Quo Skin Tints; Quo Total Perfection Foundation With SPF 15; R.P. Sol; RAYDIANT by Australian Gold BROAD SPECTRUM SPF 50 Vitamin D; REPASKIN FACIAL SUNSCREEN BROAD-SPECTRUM SPF 30 50ml; RITUALS Miracle Foundation broad spectrum SPF 15 sunscreen Beige Pink; RITUALS Miracle Foundation broad spectrum SPF 15 sunscreen Bronzing Beige; RITUALS Miracle Foundation broad spectrum SPF 15 sunscreen Golden Beige; RITUALS Miracle Foundation broad spectrum SPF 15 sunscreen Golden Honey; RITUALS Miracle Foundation broad spectrum SPF 15 sunscreen Ivory; RITUALS Miracle Foundation broad spectrum SPF 15 sunscreen Ivory Beige; RITUALS Miracle Foundation broad spectrum SPF 15 sunscreen Mahogany; RITUALS Miracle Foundation broad spectrum SPF 15 sunscreen Pink Beige; RITUALS Miracle Foundation broad spectrum SPF 15 sunscreen Warm Almond; RITUALS Miracle Foundation broad spectrum SPF 15 sunscreen Warm Beige; RITUALS SMOOTH OPERATOR caring lip balm broad spectrum SPF15 sunscreen 4.8g; RR SPF30 Sun Stick; RadiaBlock; Radiant C Body Lotion SPF 15; Radiant C UVA/UVB Sunscreen; Rainbow Broad Spectrum SPF 30; Raspberry-lemonade Blast With SPF 15; Ray Defense Borad Spectrum SPF 30 sunscreen Biolements; Ray Defense Broad Spectrum SPF 30; Ray Defense SPF 30 Sunscreen; Raydiant By Australian Gold Vitamin D Broad Spectrum spf 30; Raydiant By Australian Gold Vitamin D Broad Spectrum spf 50; Raydiant by Australian Gold Broad Spectrum SPF 30 Vitamin D; Rayito de Sol SPF 35; Rayito de Sol Sunscreen SPF 18; Rayito de Sol Sunscreen SPF 6; Re Nutriv Radiant Uv Base Broad Spectrum SPF 50; ReCreate Foundation Beige; ReCreate Foundation Chestnut; ReCreate Foundation Cool Bisque; ReCreate Foundation Cool Sand; ReCreate Foundation Honey; ReCreate Foundation Ivory; ReCreate Foundation Natural; ReCreate Foundation Porcelain; ReCreate Foundation Walnut; ReCreate Foundation Warm Bisque; ReCreate Foundation Warm Sand; ReCreate Foundation Warm Walnut; ReVive Fermitif Neck Renewal Broad Spectrum SPF 15 Sunscreen; ReVive Fermitif Neck Renewal SPF 15; ReVive Perfectif Even Skin Tone Dark Spot Corrector Broad Spectrum SPF 30 Sunscreen; ReVive Sensitif Renewal Daily Cellular Protection Broad Spectrum SPF 30 Sunscreen; Real Deal Foundation DEEP; Real Deal Foundation FAIR; Real Deal Foundation LIGHT; Real Deal Foundation MEDIUM; Real Deal Foundation MEDIUM DEEP; Reclaim Revolutionary Anti-Aging Day SPF15; Red Element Daily Moisturizing Creme With SPF 15; Red Element Daily Moisturizing Lotion With SPF 15; Red Stick; Reef Babies SPF 50; Reef Kids SPF 30; Reef Kids SPF 40; Reef Safe SPF 15; Reef Safe SPF 30; Reef Safe SPF 36; Reef Safe SPF 40; Reef Safe SPF 45; Reef Safe SPF 50; Refreshing Sunscreen Mist Brumisateur D'écran Solaire Rafraîchissant; Refreshing Sunscreen Spray Vaporisateur D'écran Solaire Rafraîchissant; Regeneration Daily Protection Creme Broad Spectrum SPF 50; Rejuvaderm Medispa Body; Rejuvenating Face Moisturizer SPF 30; Renew Face Dry Touch Sun Protection Broad Spectrum Uva/uvb Sunscreen Lotion SPF 30; Repair & Protect Moisturizer Broad Spectrum SPF 30; Repair and Protect Moisturizer Broad Spectrum SPF30; Repel Lotion 20 Ipf Insect Block 15 SPF Sunb; Replenish Day Cream SPF 15; Replenishing Day Lotion Broad Spectrum SPF 20; Replenishing Moisture Lotion SPF 15; Replenishing Sunscreen SPF 36; Rescue Squad Broad Spectrum SPF 25; Resist Ultimate Hand Cream Broad Spectrum SPF 30; Retinol Day SPF 30 CVS; Retroactive + Day Youth Extending Cream SPF/fps 25 Uva/uvb; Revaleskin; Revaléskin Day Cream; Revelage Arbonne Brightening Moisture Face Cream With SPF 30; Revelage Arbonne Brightening Moisture Hand Cream With SPF 30; Revelage Brightening Moisture Face Cream With SPF 30; Revelage Brightening Moisture Hand Cream With SPF 30; Reversa Creme Contour Des Yeux Fps30; Reversa Creme Fps30; Reversa Uv Creme Visage Et Cou Fps 15; Reversa Uv Fluide Hydratant Non Gras Fps 15; Revitalizing Lotion With SPF 15; Revitalizing Moisturizer With SPF 15; Revitalizing Q10 Moisturizer; Revive; Revlon Kiss Balm; Revlon Kiss Balm SPF 20; Rexall 30 SPF Sunblock Lotion; Rexall Daily Sunblock Lotion SPF 15; Rexall Kids Daily Sunblock Lotion SPF 30; Rexall Oil Free SPF 30 Daily Sunblock Lotion; Rexall Sport 30 SPF Sunblock Lotion; Riche Creme: Soin Jeunesse Decollete Fps 8; Risarium Black Rice Extreme Age-defying Line Reducing Moisture Face Cream SPF 15; Rite Aid Baby Sunscreen; Rite Aid Dark Tanning SPF 4; Rite Aid Essential Defense SPF 45; Rite Aid Kids Sunscreen SPF 50; Rite Aid Oil Free Faces Sunscreen SPF 30; Rite Aid RENEWAL SPF 30; Rite Aid RENEWAL SPF 50; Rite Aid RENEWAL Sport SPF 30; Rite Aid RENEWAL essential defense SPF 50; Rite Aid RENEWAL kids SPF 50; Rite Aid RENEWAL oil free faces; Rite Aid RENEWALSPF 50 SPF 50; Rite Aid Sport SPF 50; Rite Aid Sport Sunscreen; Rite Aid Sport SunscreenSPF 30 SPF 30; Rite Aid Sport SunscreenSPF 50 SPF 50; Rite Aid Sunscreen; Rite Aid Sunscreen SPF 30; Rite Aid Sunscreen SPF 50; Rite Aid Ultimate Sheer; RoC Multi correxion Lift Anti Gravity Day Moisturizer SPF 30; RoC Multi correxion Lift Anti Gravity Day Moisturizer Sunscreen Broad Spectrum SPF30; RoC Retinol Correxion Deep Wrinkle Daily Moisturizer SPF30; RoC Retinol Correxion Deep Wrinkle Daily Moisturizer Sunscreen Broad Spectrum SPF30; Robanda Anti-Aging Hand; Roc Multi-correxion; Roc Retin-OL+ Day SPF 30; Roc Retinol Correxion Deep Wrinkle Daily Moisturizer Sunscreen Broad Spectrum SPF 30; Roccos Old School Sunscreen SPF 30; Rocky Mountain Broad Spectrum SPF 30; Rocky Mountain KIDS Broad Spectrum SPF 30; Rodan & Fields Proactiv + Daily Protection Moisturizer Broad Spectrum SPF 15; Rodan & Fields Proactiv Solution: Daily Protection Plus Sunscreen SPF 15; Rodan & Fields Proactiv Solution: Sheer Tint Moisture SPF 15 (sunbronze, Suntan, Sunlight); Rodan and Fields Essentials UVA/UVB; Rodial Broad Spectrum SPF 50 Drops Anti-Blue Light and Pollution; Royal Jelly Hand Complex Broad Spectrum SPF 15; Royal and Ancient Suncreen; Rugid Sunscreen; Ryan Sheckler's Orange Lip Balmer SPF 15; SARAH CHAPMAN London SKINESIS Dynamic Defence Anti-Ageing Day SPF 15; SARAH CHAPMAN London SKINESIS Dynamic Defence Concentrate Anti-Ageing Day Cream SPF 15; SAVONE Skin Therapy Age Essentials SPF 30 Sports Sunscreen; SCRUBS Solar Guard Sunscreen Wipe SCRUBS Solar Guard; SENSE Daytime Protective Broad Spectrum SPF 15; SEPHORA CC Care Color SPF 20 sunscreen; SEPHORA Sunscreen Body Mist Broad Spectrum SPF 30; SHEER SPF 55 Well at Walgreens; SHISEIDO CLEAR stick UV PROTECTOR; SImply Beige Always color stay-on Makeup Broad Spectrum SPF 15 Jafra; SLMD Moisturizer with SPF; SOLMATE Broad Spectrum SPF 30; SOLMATE Broad Spectrum SPF 4; SPF #15 Sunscreen Lotion; SPF #30 Sunscreen Lotion; SPF 15; SPF 15 Fps Lip Balm; SPF 15 Fps Lip Formula; SPF 15 Lip Balm; SPF 15 Lotion; SPF 15 Lotion W/bronzer; SPF 15 Oil Free Daytime Smoothing Lotion; SPF 15 Protective Balm with UVA/UVB Sunscreens; SPF 15 Self Tanner; SPF 15 Spray Gel; SPF 15 Spray Gel Sunscreen With Bronzer - Australian Gold; SPF 15 Spray Gel W/bronzer; SPF 15 Sunburn Protection Lotion; SPF 15 Sunscreen; SPF 15 Sunscreen Lotion - Australian Gold; SPF 15 face moisturizer; SPF 15 for Body; SPF 15.fps 15 Sunscreen Lip Balm Baume Solaire Pour Les Lèvres Watch Your Mouth; SPF 20 Sport; SPF 20 Sports Blend; SPF 20 Sunscreen UVAUVB Tinted Moisturizer Nude; SPF 20 Uva/uvb; SPF 25 Body Sunscreen Spray; SPF 25 Uva/uvb; SPF 30; SPF 30 Body Sunscreen; SPF 30 Body Sunscreen Fragrance Free; SPF 30 Broad Spectrum Lotion; SPF 30 Face Sunscreen Lotion; SPF 30 Fps Sport Spray; SPF 30 Fps Sunscreen Lotion; SPF 30 Kids Cream Sunscreen; SPF 30 Kids Sunscreen Lotion; SPF 30 Kids Wet'n Protect; SPF 30 Lip Balm; SPF 30 Mineral Sunscreen Face Neck; SPF 30 Oil Free Broad Spectrum Sunscreen Lotion; SPF 30 Oil Free Sunblock Cream; SPF 30 Performance Sunscreen Cream; SPF 30 Sheer Coverage Sunscreen Lotion - Australian Gold; SPF 30 Sport Broad Spectrum Sunscreen Lotion; SPF 30 Sport Continuous Spray Sunscreen; SPF 30 Sport Endurance; SPF 30 Sport Sunscreen CVS; SPF 30 Sport Sunscreen Lotion; SPF 30 Sport Sunscreen Spray; SPF 30 Spray Gel Sunscreen With Bronzer - Australian Gold; SPF 30 Stay Put Sunscreen; SPF 30 Sun Protection Lotion; SPF 30 Sun Protection for All Seasons; SPF 30 Sunburn Protection Lotion; SPF 30 Sunburn Protection Lotion for Kids; SPF 30 Sunscreen; SPF 30 Sunscreen Continuous Spray - Australian Gold; SPF 30 Sunscreen Continuous Spray Solution for Kids; SPF 30 Sunscreen Continuous Spray With Bronzer - Australian Gold; SPF 30 Sunscreen Lotion; SPF 30 Sunscreen Skier's Defense; SPF 30 Sunscreen Stick; SPF 30 Sunscreen Tottle; SPF 30 Sunscreen Tottle w Carabiner; SPF 30 Sunscreen Towelette; SPF 30 Sunscreen with Soybean; SPF 30 Ultra Light Advanced Weightless Face Lotion; SPF 30 Ultra Sport Sunscreen Lotion; SPF 30 Ultra Sunscreen Continuous Spray; SPF 30 Uva/uvb Continuous Spray No Pumping Needed Sun Protection; SPF 30 With Titanium Dioxide; SPF 30 face Moisturizer; SPF 30 tropical flavor sunscreen lip balm Ulta; SPF 30+ Sunscreen; SPF 32 Sunscreen Hawaiian; SPF 4; SPF 4 Spray Gel Sunscreen With Bronzer; SPF 40 Sport Spray; SPF 45; SPF 45 Body and Scalp Sunscreen Continuous Spray; SPF 45 Cream; SPF 45 Sunscreen Lotion; SPF 50 Broad Spectrum Sunscreen Continuous Spray; SPF 50 Broad Spectrum Ultrathon; SPF 50 Face Sunscreen Bioelements; SPF 50 Fps; SPF 50 Funscreen Spray-ON Sunscreen for Kids; SPF 50 Invisible Mist; SPF 50 Kids Continuous Spray Sunscreen; SPF 50 Kids Sunscreen Lotion; SPF 50 Stay Put Sunscreen; SPF 50 Sunburn Protection Lotion; SPF 50 Sunscreen; SPF 50 Sunscreen Continuous Spray Lotion; SPF 50 Sunscreen Lotion; SPF 50 Sunscreen Spray; SPF 50 Uva/uvb; SPF 50 with SOLAR SMART; SPF 50+ Baby Broad Spectrum Sunscreen Lotion; SPF 50+ Broad Spectrum Sunscreen Lotion; SPF 50+ Continuous Spray Sunscreen; SPF 50+ Kids Broad Spectrum Sunscreen Lotion; SPF 50+ Kids Sunscreen Continuous Spray; SPF 50+ Kids Sunscreen Lotion; SPF 50+ Sport Broad Spectrum Sunscreen Continuous Spray; SPF 50+ Sport Broad Spectrum Sunscreen Lotion; SPF 50+ Sport Sunscreen Lotion; SPF 50+ Sunscreen Lotion; SPF 50+ Ultra Light Advanced Weightless Body Lotion; SPF 55 Sport Stick CVS; SPF 55 Sport Sunstick Well at Walgreens; SPF 60; SPF 60 Baby Sunscreen Continuous Spray Lotion; SPF 60 Baby Sunscreen Lotion; SPF 60 Face Sunscreen Lotion; SPF 60 Kids Wet'n Protect; SPF 60 Sport Endurance; SPF 60 Sport Sunscreen Continuous Spray; SPF 60 Sport Sunscreen Lotion; SPF 60 Sunscreen Continuous Spray; SPF 60 Ultra Light Advanced Weightless Face Lotion; SPF 8 Lotion; SPF 8 Sun Protection for All Seasons; SPF 8 Sunscreen Continuous Spray With Bronzer; SPF 8 Sunscreen Lotion - Australian Gold; SPF 8 Sunscreen Uva/uvb Protection Lotion; SPF Fps 100 Sun Protection Lotion; SPF Fps 30 Sport Sunscreen Continuous Spray; SPF Fps 30 Sun Protection Lotion; SPF Fps 50 Baby Spray; SPF Fps 50 Kids Sunscreen; SPF Fps 50+ Sunscreen Lotion; SPF Fps 60 Sun Protection Lotion; SPF Rx - Anti-Aging Sunscreen SPF 30; SPF Rx - SPF 30 Mango Lip Balm; SPF-15 Daily Protection for Photosensitive Skin; SPF-20 Face Primer; SPF-20 Sunscreen; SPF-60; SPF/fps 15; SPF/fps 30; SPF/fps 30 Kids; SPF/fps 30 Lipbalm; SPF/fps 30 Oil Free Sunscreen Lotion; SPF/fps 30 Sport Eco Lips; SPF/fps 30 Sport Sunscreen Lotion; SPF/fps 30 Sunscreen Continuous Spray; SPF/fps 30 Sunscreen Lotion; SPF/fps 33 Dermatone Moisturizing Uva/uvb Sunscreen Creme; SPF/fps 45; SPF/fps 50; SPF/fps 50 Fragrance-free Spray Sunscreen; SPF/fps 50 Kids; SPF/fps 50 Sunscreen Continuous Spray; SPF/fps 50+ Sheer Sunscreen Lotion; SPF/fps 60; SPF/fps 60 Continuous Spray; SPF/fps 60 Sunscreen Lotion; SPF15 sunscreen; SPF30 SUNSCREEN and SPF15 LIP BALM Combo; SPF30 Sunscreen; SPF30 sunscreen; SPF50 Sunscreen; SSLT2 Sun Screen; SUN SHADES 15 Lip Balm Cherry Candy Cane; SUN SHADES 15 Lip Balm Cranberry Tangerine; SUN SHADES 15 Lip Balm Lemon Gum Drop; SUN Solar Defense Hydrating; SUN Solar Defense Oil-free Gel SPF 15; SUNLEYA Age minimizing sun care SPF 15; SUNZEN Broad Spectrum SPF 30; SUNZONE FAMILY SPF 60 Broad Spectrum; SUNZONE FAMILY SPF30 SUNSCREEN Broad Spectrum; SUNZONE FAMILY SUNSCREEN SPF 30 Broad Spectrum; SUNZONE KIDS SPF 60 Broad Spectrum; SUNZONE SPF 15 Broad Spectrum; SUNZONE SPF 30 Broad Spectrum; SUNZONE SPF 50 Broad Spectrum; SUNZONE SPF 60 Broad Spectrum; SUNZONE SPF30 SUNSCREEN Broad Spectrum; SUNZONE SPORT SUNSCREEN SPF 30 Broad Spectrum; SUPER CREME SOLAIRE CORPS Body sun care SPF 15; Safe Sea For Kids Sunscreen With Jellyfish Sting Protective SPF 30 Plus; Safe Sea Sunscreen With Jellyfish Sting Protective SPF 30; Safeway Signature Care Kids Continuous Sunscreen Broad Spectrum SPF 50; Safeway Signature Sport Continuous Sunscreen SPF 30; Sandy Beige Always color stay-on Makeup Broad Spectrum SPF 15 Jafra; Savex 15 Ont SPF-15; Savex Sunblock 15 Ont SPF 15; Savvy Plus Moisture Lipstick SPF 20; Sawyer SPF 30; Sayuki Anti-aging Daily Moisturizer SPF 30; Sayuki Broad Spectrum SPF 30 Anti-Aging Daily Moisturizer Sunscreen; Sb 10 SPF 30; Sbs Professional Sunscreen SPF 33 Crm; Scape SPF 30 Athlete Sunblock; Scape SPF 30 Lip Balm; Scape SPF 50 Athlete Sunblock; Scape SPF 50 Moisturizing Face; Scar Cream SPF 30; Scar with SPF 30 Walgreens; Screen; Scrubs Sunscreen; Sea & Ski All Day 30; Sea & Ski SPF 15 Advanced Sunblock; Sea & Ski SPF 30 Advanced Sunblock; Sea & Ski SPF 30 Sport Sunblock; Sea & Ski SPF 50 Advanced Sunblock; Sea & Ski SPF 50 Baby Sunblock; Sea & Ski SPF 50 Faces Sunblock; Sea & Ski SPF 50 Kids Sunblock; Sea & Ski SPF 50 Platinum Sunscreen; Sea & Ski Sport SPF 50; Sea Results Line Resolution Cream SPF 30; Sea Results Line Resolution Sea Results Line Resolution SPF30; Sea and Ski SPF 15 Sport Sunblock; Sebastian Sun Smacker SPF 24 Calypso Berry Beat; Sei Bella Daytime Delivery; Select Brand Baby Sunscreen; Select Brand Sport Sunscreen SPF 30; Select Brand Sunscreen; Self Defense Color Corrective Moisturiz. Lot; Self Defense Protective Moisturizing Lot-ntd; Self Defense Protective Moisturizing Lot-nto; Self Defining Sheer Foundation SPF 15; Self Tanner; SeneGence SeneSun Sunscreen SPF 30; SeneSun; Sensitif Renewal Cream Daily Protection SPF 30 Broad Spectrum UVA UVB Sunscreen; Sephora Super Lisseur Rides Age Defy; Sephora Super Lisseur Rides SPF 15 Age Defy Moisture; Sergio Garcia's Mint Lip Balmer SPF 15; Serious Skincare Daytech 30; Serious Skincare Serious C3 Plasma Bio Technology C Vitamin C Ester Protective Daytime Broad Spectrum Moisturizer SPF 30; Serious Skincare Serious-C3 Plasma Tm Bio Technology C Vitamin C Ester Protective Daytime Broad Spectrum Moisturizer SPF 30; Shade Spray; Shaklee Lip Protection Stick SPF 15; Shaklee Sunscreen Gel Spf30; Sheer Cover Nourishing Moisturizer SPF 15; Sheer Coverage Continuous Spray Sunscreen SPF 50; Sheer Coverage Faces Lotion SPF 45 Australian Gold; Sheer Lotion SPF 50; Sheer Lustre Day Moisture Broad Spectrum SPF 15 Pa+++; Sheer SPF 100 Well at Walgreens; Sheer SPF 30 Well at Walgreens; Sheer Sensations Lip Colour Spf15; Sheer Sunscreen SPF 30 Meijer; Sheer Tint Make-UP With Botanical Moisturisation; Sheer Tint Redness Relief SPF 15; Sheer Touch Sunscreen; Sheersatin Lip Sheen Lipstick SPF 15; Shelter; Shelter Tinted; Sheltered Broad Spectrum SPF 55 Sunscreen; Shimmer Make Up-foundation Stick SPF 8; Shimmer Make Up-light Diffusing Make Up SPF 8; Ships Ahoy Seashore Sunscreen Broad Spectrum SPF 30 Jafra; Shiseido Benefiance Daytime Protective Cream; Shiseido Benefiance Wrinkle Smoothing Day; Shiseido Benefiance Wrinkleresist24 Protective Hand Revitalizer; Shiseido Essential Energy Day; Shiseido Future Lx Universal Defense; Shiseido Future Solution LX Total Protective; Shiseido Future Solution LX Total Protective E; Shiseido Glow Enhancing Primer; Shiseido Ibuki Protective Moisturizer; Shiseido Sun Block Crm SPF 19; Shiseido Sun Block Face Cream; Shiseido Translucent Sun Block Stick; Shiseido Ultimate Sun Protection; Shiseido Uv Lip Color Splash Miami Pink; Shiseido Uv Lip Color Splash Nairobi Orange; Shiseido Uv Lip Color Splash Tahiti Blue; Shiseido Uv Lip Color Splash Uluru Red; Shiseido Vital-perfection Day Prot. Moist.; Shiseido White Lucent All Day Brightener N; Shopko Long Lasting Oil Free Moisturizer Broad Spectrum SPF15; Shopko Moisture SPF 15 Lip Balm; Sienna Always Color Stay-on Makeup Broad Spectrum SPF 15 Jafra; Signature Body Japanese Cherry Blossom SPF 15; Signature Body Moonlight Path SPF 15; Signature Body Sweet Pea SPF 15; Signature Body Twilight Woods SPF 15; Signature Body White Citrus SPF 15; Signature Care Sheer Face and Body SPF 70 Sunscreen; Signature Care Sport SPF 15 Clear; Signature Sunscreen Broad Spectrum SPF 25 Malibu Heat; Silk and Shine; Silkies Enriche Ageless Moisturizer; Silky CRème Soyeuse SPF/fps 2; Silky Sheer Bb Face Lotion SPF 50; Simple Essentials Protect; Sirface Hydrating Lotion With SPF 15; Sirface Sun Protector SPF 30; Skin Active Intensive Day; Skin Balancing Ultra Sheer Daily Defence SPF 30 Paulas Choice; Skin Balancing Ultra-sheer Daily Defense Broad Spectrum SPF 30; Skin Care Prescription; Skin Crave Broad Spectrum spf30; Skin Crave spf30 sunscreen; Skin Defense Concealer Broad Spectrum SPF 15 Jafra Cosmetics; Skin Defense Makeup SPF 15; Skin Defense Makeup SPF-15; Skin Effects by Dr. Jeffrey Dover Glycolic Day; Skin Management Conditioner; Skin Management Oil Controller; Skin Pharmacy Advanced Sun Therapy Broad Spectrum SPF 30 Sun; Skin Pro-tec II SPF-15; Skin Protector Sun Block Crm; Skin Renewal Complex SPF 20; Skin So Soft Bug Guard Plus IR3535 Cool N Fabulous Disappearing Color Insect Repellent Sunscreen; Skin So Soft Bug Guard Plus IR3535 Expedition Insect Repellent Sunscreen; Skin So Soft Bug Guard Plus IR3535 Gentle Breeze Insect Repellent Sunscreen; Skin So Soft DD Body; Skin So Soft Dd Firm & Restore Body Cream; Skin So Soft Firm and Restore Age Defying Corrective Neck and Chest; Skin So Soft Firm and Restore Neck and Chest Treatment; Skin So Soft Satin Glow Ultimate Body Moisturizing Lotion SPF 15; Skin Strong - Skin Equipment SPF 30 Sunscreen; Skin Strong - Skin Equipment SPF 55 Sunscreen; Skin Tint FX; SkinDog; SkinMedica Environmental Defense Sunscreen SPF 50; SkinPharmacy Advanced Anti-Aging Therapy Glycolic Day Moisturizer SPF 30; SkinPharmacy Advanced Anti-Aging Therapy Retinol Day Moisturizer SPF 30; SkinPharmacy Advanced Sun Therapy Broad Spectrum SPF 50 Face; SkinTx Sunscreen SPF 30; Skinborn Day Cream SPF 30 - for Dry Skin; Skinborn Day Lotion SPF 30 - for Oily/combination Skin; Skinborn Sunscreen Lotion SPF 30 - for Dry Skin; Skincare LdeL Retinol Day Broad Spectrum SPF 20; Skinceuticals Sport Uv Defense SPF 45; Skinprint Ultra Sheer SPF 20; Skinsimple Quench Your Thirst Skin Moisture Lotion SPF 15; Skintect Plus; Skintint Fx; Smartshield Sunscreen Lotion SPF 30; Smartshield Sunscreen SPF 30; Smarty Plants Cc Skin Complexion Corrector Broad Spectrum SPF 20; Smashbox Camera Ready 5 In 1 Beauty Balm SPF 35; Smashbox Camera Ready Bb Cream SPF 35; Smashbox Camera Ready Cc Cream SPF 30 Dark Spot Correcting; Smooth Minerals Avon Lip Gloss Gloss Levres SPF 15 Fps 15; Smooth Minerals Lipgloss; Smooth Mint Lip Balm; SnowSkin Sunscreen; Soft & Lush; Soft Beige Always color stay-on Makeup Broad Spectrum SPF 15 Jafra; Soft Ivory Always color stay-on Makeup Broad Spectrum SPF 15 Jafra; Soft Lips Crystal Ice; Soft Lips SPF 17 Stk; Softlips Berry; Softlips Birthday Cake; Softlips Cherry; Softlips Cherry Cordial, Maple Butter, Frosted Berry; Softlips Chocolate Bunny; Softlips Coconut; Softlips Coconut Cream; Softlips Cube Apple; Softlips Cube Chocolate Mint; Softlips Cube Coconut Cream; Softlips Cube Cupcake; Softlips Cube Fresh Mint; Softlips Cube Passion Fruit; Softlips Cube Peach Mango; Softlips Cube Pomegranate Blueberry; Softlips Cube Salted Caramel; Softlips Cube Strawberry; Softlips Cube Strawberry Banana; Softlips Cube Vanilla Bean; Softlips Flavor Fusions Blackberry Lemonade; Softlips Flavor Fusions Chocolate Mint Gelato; Softlips Flavor Fusions Pomegranate Blueberry; Softlips Flavor Fusions Strawberry Banana; Softlips Intense Moisture Berry Mint; Softlips Intense Moisture Citrus Mint; Softlips Intense Moisture Double Mint; Softlips Jack Frosting; Softlips Jelly Bean; Softlips Luxe Coconut Milk; Softlips Luxe Shea Moisture; Softlips Marshmallow Ghost; Softlips Mint with a hint of vanilla; Softlips Oasis Peach Mango; Softlips Oasis Pineapple Coconut; Softlips Oasis Pineapple Coconut, Peach Mango, Strawberry Kiwi; Softlips Oasis Strawberry Kiwi; Softlips Oasis Watermelon Blackberry; Softlips Peach Mango; Softlips Pearl Plus Vanilla; Softlips Peppermint; Softlips Peppermint Mocha, Apple Chai Cider, Orange Cranberry; Softlips Praline Brownie; Softlips Raspberry; Softlips Replenish; Softlips Salted Caramel; Softlips Salted Caramel, Candy Apple, Marshmallow Ghost; Softlips Slims; Softlips Strawberry; Softlips Sugar; Softlips Sugar Plum Berry; Softlips Sugar and Spice; Softlips Vanilla; Softlips Vanilla Watermelon; Softlips Vanilla, Watermelon, Cherry; Softlips Watermelon; Softlips Winter Mint; Soin Auto-bronzant Visage Bronzage Intense SPF 15; Soin Auto-bronzant Visage Bronzage Naturel SPF 15; Soin Teinte Auto-bronzant Haute Protection SPF 15; Soin Ultime Jeunesse Mains CRème Fps 30 Pure; SolMate BROAD SPECTRUM SPF 30; SolMate BROAD SPECTRUM SPF 50; SolMate BROAD SPECTRUM SPF 8; SolMate Baby Broad Spectrum SPF50; SolMate Broad Spectrum SPF 30; SolMate Broad Spectrum SPF 50; SolMate Kids BROAD SPECTRUM SPF 50; SolMate broad spectrum spf 8; SolScents Deep Love broad spectrum spf 30; SolScents flower blast broad spectrum spf 50; Solar Defense Wipes SPF 15; Solar Moisturizer SPF 30; Solar Protection Formula SPF 60 Tinted Concealer - (Beige) Sunscreen; Solar Protection Formula SPF 60 Tinted Concealer - (Blush) Sunscreen; Solar Protection Formula SPF 60 Tinted Concealer - (Honey) Sunscreen; Solar Protection Formula SPF 65 Sunscreen; Solar Sense Clear Zinc; Solar Sense Clear Zinc Baby; Solar Sense SPF 45 for Face, Nose and Lips; Solar Shield # 30; Solar Shield SPF 15 - Solid; Solarguard MD; Solbar Avo SPF35; Solbar Fifty SPF50; Solbar Pf15 Liquid; Solbar Pf50 Sunscreen Crm; Solbar Thirty SPF 30; Soleil Bronzant - Gel Top; Soleil De Peau; Soleil Enfants-crm Top; Soleil Et Rides - Crm Top; Soleil Expert Sun Care SPF 25 Face and Body Lotion; Soleil Expert Sun Care SPF 30 Face Creme; Soleil Extreme - Crm Top; Soleil Haute Protection - Crm Top; Soleil Protection Moderee - Crm Top; Soleil Protexion Invisible Touch SPF 30; Soleil Protexion Invisible Touch SPF 45; Soleil Satin - Eml Top; Soleil Smart Body Protection Moisturizer SPF 15; Soleil Suisse Cellular Anti-wrinkle Sun Cream SPF 30; Soleil Suisse Cellular Self Tan for The Body SPF 15; Soleil Suisse Cellular Self Tan for The Face SPF 15; Soleil Ultra Expert Sun Care SPF 40 Face and Body Lotion; Solimo General Protection SPF 50 Sunscreen; Solimo General Protection Sunscreen SPF 50; Solimo Kids Sunscreen SPF 50; Solimo Sport Sunscreen SPF 30; Solimo Sport Sunscreen SPF 50; Solimo Ultra Light Sunscreen Broad Spectrum SPF 70; Solmate BROAD SPECTRUM SPF 50 Sport Sunscreen; Solmate Broad Spectrum SPF 50 C/S Sunscreen; Solmate Sunscreen Broad Spectrum SPF 30; Solutions A.M. Ageless Results Day Cream; Solutions Ageless Results Day; Solutions Am Maximum Moisture Day Cream; Solutions Neck and Chest Perfector; Solutions Winter Enjoy The Day Cream Creme Nouveau Jour SPF/fps 15; Soothing Day Cream SPF 15; Soothing Day SPF 15; Sothy's Autobronzant Fps 4; Sothy's Creme Haute Protection Fps 15; Sothy's Creme Solaire Active SPF 4; Sothy's Ecran Total Fps 25; Sothy's Lait Bronzant Hydratant Fps 8; Sothy's Spray Soleil Actif Fps 4; Sothys Ecran Zones Exposees SPF 30; Sothys Emulsion Protectrice SPF 12; Spa Cology Sport Sunscreen SPF 30; Spa Cology Ultra Sheer Face and Body Sunscreen SPF 70; Spa Day Care for Hands Broad Spectrum SPF 15; Spa Sun - Sun Protection SPF 30 - Face and Body; Speak Out Citrus Lip Balm; Speak Out Vanilla Lip Balm; Spearmint Lip Balm; Spearmint Lip Balm Broad Spectrum Vertra; Spearmint SPF 30 Broad Spectrum Lip Balm; Specific Beauty Daily Hydrating SPF 30; Specific Rides Bronzante - Crm; Specter Capital Tropical Blend Broad Spectrum SPF 30 Sunscreen; Spf15 Lip Balm; Spf30 Sunscreen; Splash 50 SPF Sunblock Stick; Splash Kids 45 SPF/fps Sunscreen Lotion Écran Solaire; Sport 30 SPF Fps Continuous Spray; Sport 30 SPF Sunblock Spray; Sport 30 SPF/fps; Sport 50; Sport Dry Lotion SPF 15; Sport Lip Balm; Sport Lotion 50 SPF; Sport Lotion SPF 30; Sport Performance Powder-dri Sunscreen Lotion Ecran Solaire SPF/fps 30; Sport Performance Spray Sunscreen / Écran Solaire En Vaporisateur SPF/fps 60; Sport Performance Spray Sunscreen Ecran Solaire En Vaporisateur SPF Fps 30; Sport Performance Spray Sunscreen Ecran Solaire En Vaporisateur SPF/fps 15; Sport Performance Spray Sunscreen Écran Solaire En Vaporisateur SPF Fps 100; Sport Performance Spray Sunscreen Écran Solaire En Vaporisateur SPF/fps 60 Photostable; Sport Performance Spray Sunscreen/ecran Solaire En Vaporisateur SPF Fps 50; Sport Performance Sunscreen Lotion Ecran Solaire SPF/fps 30; Sport Performance Sunscreen Lotion Ecran Solaire SPF/fps 50; Sport Performance Sunscreen Lotion Lotion Écran Solaire SPF Fps 60; Sport Performance Sunscreen Lotion Lotion Écran Solaire SPF/fps 30 Photostable; Sport Performance Sunscreen Lotion Lotion Écran Solaire SPF/fps 60 Photostable; Sport Performance Sunscreen Lotion Écran Solaire SPF Fps 30 Technologie Avotriplex Technology; Sport Performance Sunscreen Lotion Écran Solaire SPF Fps 50 Technologie Avotriplex Technology; Sport Performance Sunscreen Stick Ecran Solaire En Bâtonnet SPF Fps 50; Sport Performance Sunscreen Stick/ecran Solaire En Batonnet SPF/fps 30; Sport Performance Sunscreen Écran Solaire SPF Fps 100; Sport SPF 15; Sport SPF 15 daylogic; Sport SPF 30; Sport SPF 30 Body and Scalp Quick Dry Spray; Sport SPF 30 CareOne; Sport SPF 30 Daylogic; Sport SPF 30 Sunblock Lotion; Sport SPF 50; Sport SPF 50 Sunscreen; Sport SPF 50 daylogic; Sport SPF 70; Sport SPF/fps 30 Sunscreen Spray Écran Solaire En Vaporisateur; Sport Sun Block Lotion SPF 15; Sport Sun Block Lotion SPF 30; Sport Sunblock 30 SPF; Sport Sunscreen Broad Spectrum SPF 15 Lotion; Sport Sunscreen Broad Spectrum SPF 15 Spray; Sport Sunscreen Broad Spectrum SPF 30 Lotion; Sport Sunscreen Broad Spectrum SPF 30 Spray; Sport Sunscreen Broad Spectrum SPF 60 Lotion; Sport Sunscreen Broad Spectrum SPF 60 Spray; Sport Sunscreen Gel SPF 30; Sport Sunscreen LiquidShade; Sport Sunscreen Lotion Écran Solaire 30 SPF/fps; Sport Sunscreen SPF 15 Meijer; Sport Sunscreen SPF 30; Sport Sunscreen SPF 30 CareOne; Sport Sunscreen SPF 30 Daylogic; Sport Sunscreen SPF 30 Exchange Select; Sport Sunscreen SPF 30 Lotion; Sport Sunscreen SPF 30 Meijer; Sport Sunscreen SPF 30 Quality Choice; Sport Sunscreen SPF 50; Sport Sunscreen SPF 50 Daylogic; Sport Sunscreen SPF 70; Sport Sunscreen Stick Broad Spectrum SPF 30; Sport Ultra Block Lotion SPF 30; Spray Auto-bronzant SPF 15; Spray De Traitement Des Intolérances Solaires; Spray Lotion Solaire Haute Protection SPF 15; Spray Pour Peaux Intolerantes Au Soleil; Spray Solaire Bronzage Securite Special Peaux A Tendance Grasse SPF 15; Spray Solaire Huile Embellissante Corps SPF 30; Spray Solaire Lotion Non Grasse Protection Moyenne Spécial Sports 15 SPF; Spray Solaire Protection Élevée SPF 50; Spray Soleil Intense SPF 4; Spray Sunscreen Écran Solaire En Vaporisateur SPF Fps 30; Spray Sunscreen Écran Solaire En Vaporisateur SPF Fps 60; Sprayable Sunscreen Lotion SPF 40; Spraygel; Spraygel With Instant Bronze Tint SPF 15; Spraygel With Instant Bronze Tint SPF 30; Spraygel With Instant Bronze Tint SPF/fps 15; Spritz Solaire Corps Fps 30; Stick Ecran Solaire Hydratant Spf19; Stick Solaire Haute Protection Special Zones Sensibles SPF 30; Stick Solaire Peaux Sensibles SPF 18; Stick Solaire Pour Zones Sensibles SPF 30; Stick Solaire Tres Haute Protection SPF 30; Stick Solaire Tres Haute Protection Special Zones Sensibles 30 SPF; Stila Oil Free Tinted Moisturizer Dark 01 SPF 30; Stila Oil Free Tinted Moisturizer Dark 02 SPF 30; Stila Oil Free Tinted Moisturizer Light 02 Bare SPF 30; Stila Oil Free Tinted Moisturizer Light 03 SPF 30; Stila Oil Free Tinted Moisturizer Medium 01 SPF 30; Stila Oil Free Tinted Moisturizer Medium 02 SPF 30; Stila Oil Free Tinted Moisturizer Medium 03 Dark SPF 30; Stila Oil Free tinted Moisurizer Light 01 Fair SPF 30; Stila SPF 30 Skin Visor Sunscreen; Stokoderm Sun Protect 30 PURE; Stokoderm Sunprotect 30 Pure; Stokoderm UV 30; Strawberry Sunscreen Lip Moisturizer; StriVectin Advanced Retinol Day Moisturizer Broad Spectrum SPF30; StriVectin-SH NIA-114 UVA UVB Shields SPF 30; Strivectin-AR Advanced Retinol Day Lotion SPF 30; Sublime Glow Face (SPF 15 Fair); Sublime Glow Face (SPF 15 Medium); Sublime Sun Lotion SPF 15; Sublime Sun Lotion SPF 30; Sublime Sun Lotion SPF 50; Sublime Sun Mousse SPF 50; Sublime Sun Oil Spray SPF 50; Sublime Sun Ultra Fluid Lotion SPF 30; Sublime Sun Ultra Fluid Lotion SPF 50; Sugar Candy Lip Treatment Sunscreen SPF 15; Summer Glow Daily Moisturizer SPF 20; Sun + Avon Sport Fresh Technologie Derma Plus Technology Sunscreen Lotion SPF/fps 50; Sun + Avon Sport Refresh Technologie Derma Plus Technology Sunscreen Lotion SPF/fps 30; Sun + Avon Technologie Derma Plus Technology Sunscreen Spray; Sun 30 SPF Water Resistant Alba Botanica; Sun Block; Sun Block + SPF 30 - Crm; Sun Block Lotion SPF 15; Sun Block SPF 25; Sun Block SPF 30; Sun Body Protector Sunscreen Broad Spectrum SPF 50; Sun Broad Spectrum SPF 30 Jafra; Sun Bum 50; Sun Defeated Sunscreen; Sun Defense Lip Block SPF 15; Sun Defense SPF 15; Sun Defense SPF 30; Sun Defense Sunblock SPF 25 - Liquid; Sun Defense Sunscreen SPF 8 - Liquid; Sun Diffusing Protector SPF 15 Bioelements; Sun Face Protector Sunscreen Broad Spectrum SPF 50; Sun Face Protector Sunscreen Broad Spectrum SPF 50 Jafra; Sun Facial Sunscreen 20 SPF for Sensitive Skin Alba Botanica; Sun Fragrance-free Sunscreen 15 SPF Water Resistant Alba Botanica; Sun Kids Sunscreen 32 SPF; Sun Lipcare SPF 18; Sun Lix; Sun Lotion SPF 15; Sun Management Extensive Protection Sunblock; Sun Management Intense Protection Sunblock SPF 20; Sun Management Lip Protection Sunblock SPF 15; Sun Management Sensible Protection Sunblock; Sun Of A Beach SPF 30; Sun Pacer Protective Sun Block Crm Spf30; Sun Pacer Protective Sun Screen Lot Spf15; Sun Pacer Protective Sun Screen Lot Spf8; Sun Pacer Protective Sun Screen Stk Spf15; Sun Pacer SPF 15; Sun Pacer SPF 30; Sun Pacer SPF 8; Sun Pacer Sunless Tanning Lotion SPF 15; Sun Potion 15 SPF/fps; Sun Premium Face 50 SPF; Sun Protection Body Sunscreen Broad Spectrum SPF 30; Sun Protection Body Sunscreen Broad Spectrum SPF 30 La Prairie; Sun Protection Cream SPF 35; Sun Protection Creme SPF 30 PLUS Exel Clarifying Line; Sun Protection Emulsion Face Broad Spectrum SPF 30 La Prairie Group; Sun Protection Emulsion Face la prairie; Sun Protection Face Sunscren Broad Spectrum SPF 30; Sun Protection Spray SPF-30; Sun Protection Stick SPF 15; Sun Protective Day Moisturizer Sunscreen; Sun Protector Lotion SPF 15; Sun Protector Lotion SPF 8; Sun Protector Lotion Spray for Body SPF 30; Sun Protector Lotion Spray for Body SPF 50; Sun Protector Weightless Lotion for Face and Body; Sun Protector Weightless Lotion for Face and Body SPF 30; Sun Screen; Sun Seekers Sun Blocking Lotion SPF 30 Lot; Sun Seekers Suntanning Lotion Spf4; Sun Seekers Tanning Lotion Spf8; Sun Shades; Sun Shades 15 Lip BAlm Brandied Pear; Sun Shades 15 Lip Balm Blueberry Cheesecake; Sun Shades Lip Balm Butter Rum; Sun Shades Lip Balm Caramel Toffee; Sun Shades Lip Balm Coconut Smoothie; Sun Shades Lip Balm Key Lime Pie; Sun Shades Lip Balm Mango Lime; Sun Shades Lip Balm Mountain Mint; Sun Shades Lip Balm Peach Mango; Sun Shades Lip Balm Pina Colada; Sun Shades Lip Balm Pineapple Paradise; Sun Shades Lip Balm Pink Grapefruit; Sun Shades Lip Balm Pomegranate SPF 15; Sun Shades Lip Balm STropical Fruit Sorbet; Sun Shades Lip Balm Strawberry Daiquiri; Sun Shades Lip Balm Strawberry Tart; Sun Shades Lip Balm Sugar and Spice; Sun Shades Lip Balm Vanilla Bean; Sun Shades Lip Balm Watermelon Lemon; Sun Shades Waterproof Sunblock SPF 30; Sun Shield Crm; Sun Smackers - Stk Top; Sun Smackers Cool Cover Up; Sun Smackers Cool Face Coverup SPF 24; Sun Smart Levres Fps 15; Sun Sport Sunscreen 32 SPF; Sun Spr SPF 50; Sun Swipes SPF 15; Sun Therape Face SPF-35; Sun Therape Face and Body SPF-35; Sun Therape Pro Sport Face and Body SPF-35; Sun Therape Pro Sport SPF-35; Sun Therape Sport SPF-35; Sun Trainer Creme De Soin Pour Soleil Intense; Sun Trainer Creme De Soin Pour Soleil Normal Ou Fort; Sun Trainer Lait De Soin Pour Soleil Intense; Sun Trainer Lait De Soin Pour Soleil Normal Ou Fort; Sun X Multi-Pack SPF 30 Thick; Sun XSPF 30 Broad Spectrum Sunscreen Lip Balm; Sun and Ski Stick SPF 15; Sun and Snow Sport Lotion SPF 30; Sun and Snow Sport SPF 15; Sun and Snow Sport Spray SPF 30; Sun protection body SPF 30; Sun+ Avon Technologie Derma Plus Technology Sunscreen Face Lotion; Sun+ Avon Technologie Derma Plus Technology Sunscreen Lotion; Sun-Kissed Lip Balm Lemon Lime SPF30; Sun-shades Lip Balm SPF 15 - Pina Colada Stk; Sun-shades Lip Balm SPF 15 - Vanilla Stk; Sun/soleil; SunBum SPF 15; SunBum SPF 30; SunBum SPF 50; SunBum SPF 70; SunScreen; SunScreen SPF 30; SunScreen SPF30; SunShades 15 Lip Balm Harvest Berry; SunShades 15 Lip Balm Mountain Mint; SunShades 15 Lip Balm Pina Colada; SunShades 15 Lip Balm Sugar and Spice; SunX SPF 30/BugX Wallmount; SunZone Family SPF 45 Broad Spectrum; SunZone Kids SPF 45 Broad Spectrum; SunZone SPF 45 Broad Spectrum; SunZone Sunscreen Family SPF 30 Broad Spectrum; SunZone Sunscreen Sport SPF 45 Broad Spectrum; Sunbalance; Sunbar SPF 15; Sunbar SPF 30; Sunblock 45 SPF/fps; Sunblock Lot SPF 30; Sunblock Lot. Spf15; Sunblock Lotion 15 SPF; Sunblock Lotion 30 SPF; Sunblock Lotion SPF 15; Sunblock Oil Free SPF/fps 30; Sunblock Oil Free SPF/fps 60; Sunblock Premium Formula SPF 45; Sunblock SPF 15 Fragrance-free Spray; Sunblock SPF 15 Scented Spray; Sunblock for Body SPF 15; Sunblock for Face SPF 30; Sunbrellas Goodbye Bugs Block SPF 26; Suncare By Vaseline Baby Lotion Spf25; Suncare By Vaseline Gel SPF 15; Suncare By Vaseline Kids Lotion Spf25; Suncare By Vaseline Lotion SPF 25; Suncare By Vaseline Spray SPF 15; Suncare Defense SPF 15, Mineral Moisturizer; Suncare Defense SPF 20 Mineral Moisturizer Spray; Suncare Defense SPF 25 Mineral Moisturizer Face & Body; Suncare Defense SPF 30 Mineral Moisturizer; Suncare Defense SPF 8 Oil Face & Body; Suncare Non-greasy Sunscreen Broad Spectrum SPF 50; Suncare SPF 50 Sunscreen; Suncreen Lotion SPF 30; Suncures Ultra Hydrating Sunscreen SPF 20; Sundays Sunscreen Cream SPF 30+; Sunfree Sunscreen; Sunfrog Ultra SPF 30 Lip Balm; Sungirl SPF 20; Sungirl SPF 30; Sunless Tanning Lotion SPF 15; Sunless Tanning SPF 15; Sunlogics SPF 8 Oil Free Tanning Mist; Sunlogics Sunscreen Lotion Broad Spectrum SPF 25 Water Resistant; Sunlotion Lotionsolaire SPF/fps 4; Sunright 15 - Lot; Sunright 23 Face & Hands - Lot; Sunright 28 - Lot; Sunright BodyBlock SPF15; Sunright Broad Spectrum SPF 30; Sunright Lip Balm SPF 15; Sunright SPF 15; Sunright SPF 30; Sunright Spray 13 - Asp Liq; Sunsation Stick Lip Balm SPF 15; Sunscreen; Sunscreen 30 SPF; Sunscreen 30 SPF Continuous Spray; Sunscreen Broad Spectrum SPF 30 Lotion; Sunscreen Broad Spectrum SPF 30 Spray; Sunscreen Broad Spectrum SPF 50 Jafra; Sunscreen Broad Spectrum SPF 60 Lotion; Sunscreen Broad Spectrum SPF 60 Spray; Sunscreen Continuous Spray; Sunscreen Continuous Spray No Pumping Needed; Sunscreen Continuous Spray SPF 30; Sunscreen Continuous Spray SPF 50; Sunscreen Continuous Spray SPF/fps 30; Sunscreen Continuous Spray SPF/fps 60; Sunscreen Cream SPF 30; Sunscreen Face Lotion; Sunscreen Face and Body Broad Spectrum SPF 30; Sunscreen Family SPF 30; Sunscreen Family SPF 50+; Sunscreen Kids SPF 50+; Sunscreen Lip Balm - Stk; Sunscreen Lip Balm Shopko; Sunscreen Lotion 15 SPF; Sunscreen Lotion 30 SPF; Sunscreen Lotion 45 SPF; Sunscreen Lotion Ecran Solaire 15; Sunscreen Lotion Ecran Solaire SPF/fps 30; Sunscreen Lotion Ecran Solaire SPF/fps 50+; Sunscreen Lotion Lotion Écran Solaire SPF Fps 30; Sunscreen Lotion Lotion Écran Solaire SPF Fps 60; Sunscreen Lotion SPF 15; Sunscreen Lotion SPF 25; Sunscreen Lotion SPF 30; Sunscreen Lotion SPF 39; Sunscreen Lotion SPF 45; Sunscreen Lotion SPF 50; Sunscreen Lotion SPF 8; Sunscreen Lotion SPF/fps 60; Sunscreen Lotion SPF/fps 70; Sunscreen Lotion Spf15; Sunscreen Lotion Spf30; Sunscreen Lotion With Skin Rejuvenating Green Tea Lotion Écran Solaire Au Thé Vert Revitalisant SPF Fps 8; Sunscreen Lotion for Babies; Sunscreen Lotion/lotion Écran Solaire SPF Fps 32; Sunscreen Lotion/lotion Écran Solaire SPF/fps 52; Sunscreen Mango and Coconut; Sunscreen Moisturizer SPF 30; Sunscreen Oil; Sunscreen SPF 15; Sunscreen SPF 25; Sunscreen SPF 30; Sunscreen SPF 30 CareOne; Sunscreen SPF 30 Daylogic; Sunscreen SPF 30 Jafra; Sunscreen SPF 30 Jafra Sun; Sunscreen SPF 30 Ulta; Sunscreen SPF 45; Sunscreen SPF 50; Sunscreen SPF 50 Plus Broad Spectrum UVA UVB protection; Sunscreen SPF 50+; Sunscreen SPF 70; Sunscreen SPF 70 Rocky Mountain; Sunscreen SPF 70 daylodic; Sunscreen SPF-30; Sunscreen SPF30; Sunscreen SPF50; Sunscreen Sheer SPF 70; Sunscreen Shrre SPF 70; Sunscreen Sport SPF 30; Sunscreen Sport SPF 50+; Sunscreen Spray 30 SPF; Sunscreen Spray 50 SPF; Sunscreen Spray SPF Fps 30; Sunscreen Spray for Babies; Sunscreen Stick SPF 50+; Sunscreen Stick With Moisturizing Aloe Vera; Sunscreen Stick Écran Solaire En Bâtonnet With Aloe Vera/avec Aloès; Sunscreen Water Resistant; Sunscreen Wipe KGP; Sunscreen for Body SPF 30; Sunscreen for Kids; Sunscreen stick; Sunscreen with Aloe Vera SPF 30; SunscreenSPF 30 SPF 30; Sunsect Insect Repellent Sunscreen; Sunseekers Sun Blocking Stick SPF 15 Stk; Sunshades 15 Lip Balm Vanilla Bean; Sunshield Liquid Makeup - Liq; Sunsorb SPF30; Sunspots Sunscreen Lotion SPF 15; Sunspots Sunscreen Lotion SPF 30; Sunstop 30 +; Sunstop SPF 15+ for Kids; Suntan Lotion; Sunthera3 Kids/enfants SPF/fps 50 Continuous Spray; Sunthera3 Sensitive Skin/peau Sensible SPF/fps 60; Sunthera3 Sport SPF/fps 30 Continuous Spray; Suntone Broad Spectrum SPF 4; Suntone Broad Spectrum SPF 50 Sunscreen; Suntone Broad Spectrum SPF 8; Suntone Fit for the Sun Sport Sunscreen Broad Spectrum SPF 30; Suntone Kids Broad Spectrum SPF 50 Sunscreen; Suntone SUNSCREEN BROAD SPECTRUM SPF 45; Suntone Sport Sunscreen Broad Spectrum SPF 50; Sunx SPF 30 Sunscreen Lotion; Sunx SPF 30 Sunscreen Towelette; Sunzen BROAD SPECTRUM SPF 30; Sunzen BROAD SPECTRUM SPF 8; Sunzen Broad Spectrum SPF 50; Sunzen Broad Spectrum SPF 8; Sunzone Family SPF 45; Sunzone Family SPF 50; Sunzone Kids SPF 45; Sunzone Kids SPF 50; Sunzone Sport SPF 45; Sunzone Sunscreen Sport SPF 60 Broad Spectrum; Sunzone Sunscreen Écran Solaire Spray Wet 60 SPF/fps; Super CC Color Correction Care Primer Stick SPF 30; Super CC Color-Corection Care All Over Blur Stick; Super Defense Superdefense Age Defense Moisturizer SPF 25 Dry Combination; Super Defense Superdefense Age Defense Moisturizer SPF 25 Very Dry Skin; Super Fluid Uv Defense SPF 50; Super Lysine Plus Coldstick; Super Lysine Plus Strawberry Lip Treatment; Super Lysine Plus Tangerine Lip Treatment; Super Shock Liquid Lip Shine; Superdefense Age Defense Moisturizer Broad Spectrum SPF 25 Very Dry To Dry; Supervalue Equaline Sport SPF 50; Supremacie NX Jour; Surface Sun Active Defense SPF 30 Sunscreen; Surface Sun Dry Touch SPF 30 Sunscreen; Surface Sun Dry Touch SPF 40 Sunscreen; Surface Sun Dry Touch SPF 70 Sunscreen; Surface Sun Sheer Touch SPF 30 Sunscreen; Surface Sun Sheer Touch SPF 50 Sunscreen; Surface Sun Wetskin Formula SPF 30 Sunscreen; Surfers Skin Sunscreen; Susan Lucci Youthful Essence Daily Protection Moisturizer Sunscreen SPF 15; Susan Lucci Youthful Essence For Eyes Instant Smoothing Day Treatment SPF 15; Sweatproof Sunscreen SPF 30; Swisstec Global Protect SPF 30; TC Enriched Professional Sunscreen SPF 30; TECHNIblock ULTRA SUNSCREEN; Tahitian Holiday Liquid Lip Balm Baume Liquide Pour Les Levres SPF/fps15; Tahitian Noni Lip Balm Berry SPF15; Tahitian Noni Lip Balm Pineapple SPF15; Tahitian Noni Original Lip Balm SPF15; Tahitian Noni Sunscreen; Tahitian Noni Sunscreen SPF 30; Tan BB Cream SPF15; Tan Express Dark Tanning Awesome Oil SPF 4; Tan Express Dark Tanning Blitz Spray Lotion Spf4; Tanning Dry Oil SPF 15 Dollar General; Target Up and Up Broad Spectrum SPF 55 Oil-Free; Target Up and Up Kids SPF 50 Clear; Target Up and Up Sport SPF 15 Clear; Target Up and Up Sport SPF 30 Clear Sport SPF 30 Clear; Target Up and Up Sport SPF 50; Tawny Beige Always Color Stay-on Makeup Broad Spectrum SPF 15 Jafra; Tea Tree Lip Balm, SPF 15; Teint Diaphane SPF/fps 30; Tender Moments Baby Sunscreen Broad Spectrum SPF 45 Jafra; Tender Moments Baby Sunscreen Broad Spectrum SPF 50 Jafra; Tender Moments SPF 45; Tensolift; Terrapin Outdoor Systems SPF 15 Lip Balm; Terrapin Outdoor Systems SPF 15 Sunscreen Lotion; Terrapin Outdoor Systems SPF 25 Spray On Sunscreen; Terrapin Outdoor Systems SPF 30 Sunscreen Lotion; Terrasport; The Fresh Market SPF 15 Lip Balm Broad Spectrum Acai Berry; The UV Protector Youth and Radiance With Sunscreen Blemish Balm Broad Spectrum SPF50; The Ultimate KORRES Sun Kit; The Youth As We Know It; Thermalab Daily Body SPF30 Broad Spectrum; Three step hand care Day Care SPF 15; Ti-uva-B; Time Repair Am SPF 15; Timeless Age Defying SPF 20 Merle Norman; Timeless Age-defying Makeup Broad Spectrum SPF 20; Timeless Anti-Aging BB Broad Spectrum SPF 30; Timeless Illuminating Makeup Broad Spectrum SPF 30; Timeless Illuminating Makeup SPF 30 Alabaster Beige Merle Norman; Timeless Illuminating Makeup SPF 30 Alabaster Merle Norman; Timeless Illuminating Makeup SPF 30 Creamy Beige Merle Norman; Timeless Illuminating Makeup SPF 30 Ivory Merle Norman; Timeless Illuminating Makeup SPF 30 Light Beige Merle Norman; Timeless Illuminating Makeup SPF 30 Porcelain Merle Norman; Timeless Illuminating Makeup SPF 30 Pure Beige Merle Norman; Timeless Illuminating Makeup SPF 30 Quiet Rose Merle Norman; Timeless Illuminating Makeup SPF 30 Rich Walnut Merle Norman; Timeless Illuminating Makeup SPF 30 Sandy Beige Merle Norman; Timeless Illuminating Makeup SPF 30 Sesame Merle Norman; Timeless Illuminating Makeup SPF 30 Simply Beige Merle Norman; Timeless Illuminating Makeup SPF 30 Soft Bisque Merle Norman; Timewise Day Solution Sunscreen SPF 25; Timewise Day Solution sunscreen SPF 35; Timewise Day Solution sunscreen SPF 35 14ml; Tinted Day (UVA/UVB) SPF 34; Tinted Moisturizer SPF 12 Fair-medium Eml; Tinted Moisturizer SPF 12 Medium-dark Eml; Tinted Moisturizer SPF 12-jarrah Lot; To Save Face SPF 30 Plus Facial Sunscreen; Toast Always color stay-on Makeup Broad Spectrum SPF 15 Jafra; Toffee Always color stay-on Makeup Broad Spectrum SPF 15 Jafra; Tolsom Skin Protective Lotion SPF 15; Tolsom Skin Protective SPF 15 Sunscreen; Tom Ford Face Protect Broad Spectrum SPF 50; Tone Correcting Daily Lotion; Too Faced Cosmetics Love Lisa Lip Balm SPF 15; TopCare Everyday Ultimate Sheer Sun Broad Spectrum SPF 70; Topcare Everyday Sport SPF 70 Sunscreen; Total Age Defy SPF 15 Sunscreen; Total Cover Sunblock 30spf Crm; Total Sun Protection; Total Sunblock Lotion SPF 45; Total Suncare Sunscreen SPF 15; Total Suncare Sunscreen SPF 30; Total Suncare Sunscreen SPF 50; Total Suncare Sunscreen SPF 50 Plus; Total Suncare Sunscreen SPF 70; Tourist Spf30; Tow Mater Sun Smacker SPF 24 Tow-Tally Orange; Traveler Spf15; Tree Hut Dry Oil Mist Daily Defense SPF8; Trienelle Skincare Daily Renewal Creme with Tocallure Restoration Complex Broad Spectrum SPF 15; Trienelle Skincare Instant Illusion Daily Renewal Creme; Triple Protect Face Lotion SPF 20; Triple Protection Moisture Lotion SPF 15; Tropical Lip Balm SPF 15; Tropical Pineapple Jumbo Lip Balm; Tropical Sunscreen; TruAge AGE Therapy Lip Balm SPF15; TruAge Lip Balm Pink Grapefruit SPF15; TruAge Lip Balm Pomegranate Mint SPF15; Trucco Identity Lipstick Sheer SPF 12; Trucco Tinted Moisturizer SPF 8; Trucco Triplicity SPF 15; True Beige Always color stay-on Makeup Broad Spectrum SPF 15 Jafra; True Blue Spa Cooling Sunscreen Mist Broad Spectrum SPF 25 Water Resistant (40 minutes) Monoi Oil; True Colors: Rouge Transparent Fps 8; Truecomfort Tm Lipcare SPF-25; Truffoire Truffle Brightening; Truist Sunscreen Moisturizer; Truth Revealed Super Creme With SPF 15; Truth Revealed super creme SPF 15 Ole Henriksen; Turf Screen Crew Broad Spectrum Sunscreen; ULTA Oil Free Sunscreen SPF30; ULTRASOL Sport Sunscreen; ULTRASOL Sunscreen; ULTRASOL Sunscreen Lotion SPF 45; ULTRASOL Sunscreen SPF45; Ulimate Sheer SPF 85 Rite Aid; Ulta Beauty Broad Spectrum SPF 30 Sunscreen; Ulta Beauty Broad Spectrum SPF 50 Sunscreen; Ulta Beauty SPF 30 Broad Spectrum Sunscreen; Ulta Beauty SPF 50 Broad Spectrum Sunscreen; Ulta Beauty SPF 50 Workout Sunscreen Face Mist with Rosewater; Ulta Broad Spectrum SPF 30; Ulta Broad Spectrum SPF 50; Ulta Broad Spectrum SPF 70; Ulta Broad Spectrum SUNSCREEN SPF80; Ulta Face SPF 30; Ulta SPF 50; Ulta SPF30; Ulta SUNSCREEN SPF 15; Ulta SUNSCREEN SPF 45; Ulta Sun Dry Touch SPF 55; Ulta Sun Dry Touch SPF 70; Ulta Sunscreen SPF 30; Ulta Sunscreen SPF 50; Ultimate Day Age Defying Cream Creme Defi-age SPF/fps 25; Ultimate Match Liquid Foundation SPF 15; Ultimate Seer Sunscreen SPF 55 daylogic; Ultimate Sheer SPF 55 body; Ultimate Sheer SPF 70; Ultimate Sheer Sunscreen SPF 100 Rite Aid; Ultimate Sheer Sunscreen SPF 30 daylogic; Ultimate Sheer Sunscreen SPF 70 Quality Choice; Ultimate Sheer Sunscreen SPF 70 daylogic; Ultimate Sheer Sunscreen SPF 70 exchange select; Ultimate Sheer Sunscreen SPF 85 Rite Aid; Ultimate Sheer Tinted Moisturizer SPF 15; Ultimate Sport Face Sunscreen Lotion; Ultimate Sport Sunscreen; Ultimate Sport Sunscreen Lotion; Ultimate Sport Sunscreen Lotion SPF 30; Ultimate Sport Sunscreen Spray SPF 30; Ultimate Sport Sunscreen Spray SPF 45; Ultimate Sport Sunscreen Spray SPF 60; Ultimate Sport Sunscreen Spray SPF 70; Ultimate Sport Sunscreen Spray SPF 85; Ultimate Transforming Hand and Nail Cream SPF 15; Ultra Care SPF 18 Day Lotion; Ultra Color Rich Lip Gloss Lèvres SPF/fps 15; Ultra Color Rich Mega Impact; Ultra Color Rich Mega Impact Lipstick SPF 15 Rouge A Levres Mega Impact Fps 15; Ultra Defense Spray Sunscreen / Écran Solaire En Vaporisateur SPF/fps 60; Ultra Defense Spray Sunscreen Ecran Solaire En Vaporisateur SPF/fps 30; Ultra Defense Spray Sunscreen Écran Solaire En Vaporisateur SPF Fps 100; Ultra Defense Spray Sunscreen Écran Solaire En Vaporisateur SPF/fps 60 Photostable; Ultra Defense Spray Sunscreen/ecran Solaire En Vaporisateur SPF/fps 50; Ultra Defense Sunscreen Lotion Ecran Solaire SPF/fps 15; Ultra Defense Sunscreen Lotion Ecran Solaire SPF/fps 30; Ultra Defense Sunscreen Lotion Lotion Écran Solaire SPF Fps 30 Photostable; Ultra Defense Sunscreen Lotion Lotion Écran Solaire SPF Fps 60; Ultra Defense Sunscreen Lotion Lotion Écran Solaire SPF Fps 60 Photostable; Ultra Defense Sunscreen Lotion Lotion Écran Solaire SPF/fps 15 Photostable; Ultra Defense Sunscreen Lotion Écran Solaire SPF Fps 15 Technologie Avotriplex Technology; Ultra Defense Sunscreen Lotion Écran Solaire SPF Fps 30 Technologie Avotriplex Technology; Ultra Defense Sunscreen Lotion Écran Solaire SPF Fps 50; Ultra Defense Sunscreen Lotion Écran Solaire SPF Fps 50 Technologie Avotriplex Technology; Ultra Defense Sunscreen Stick Écran Solaire En Bâtonnet SPF Fps 50; Ultra Defense Sunscreen Écran Solaire SPF Fps 100; Ultra Facial Moisturizer SPF 15; Ultra Light Sunscreen Broad Spectrum SPF 50; Ultra Light Sunscreen Broad Spectrum SPF 50 Merle Norman; Ultra Mist Banana Boat Kids Sunblock Lotion Ecran Solaire Pour Enfants Uva & Uvb SPF Fps 50; Ultra Mist Banana Boat Sport Clear Sunblock Ecran Solaire Incolore Uva & Uvb SPF Fps 30; Ultra Mist Banana Boat Ultra Clear Sunblock Ecran Solaire Incolore Uva & Uvb SPF Fps 30; Ultra Moisture Rich Sheer Lipstick Rouge A Levres Diaphane SPF/fps 15; Ultra Protection Eye Lip Nose Sunscreen Broad Spectrum SPF 40; Ultra Protection SPF 70; Ultra Protection Stick Broad Spectrum SPF 40 La Prairie Switzerland; Ultra Protection Water-based Sunscreen Lotion SPF 25; Ultra Protection stick La prarie Switerland; Ultra Protection stick SPF 40 La prairie Switzerland; Ultra Sheer Body Mist Sunscreen SPF 100; Ultra Sheer Body Mist Sunscreen SPF 85; Ultra Sheer Dry Touch Sunscreen SPF 30; Ultra Sheer Dry-touch Sunscreen SPF 100; Ultra Sheer Dry-touch Sunscreen SPF 110; Ultra Sheer Dry-touch Sunscreen SPF 45; Ultra Sheer Dry-touch Sunscreen SPF 55; Ultra Sheer Dry-touch Sunscreen SPF 60; Ultra Sheer Face & Body Stick SPF 60; Ultra Sheer Face & Body Stick Sunscreen SPF 50+; Ultra Sheer Face Sunscreen SPF 110; Ultra Sheer Face Sunscreen SPF 45; Ultra Sheer Face Sunscreen SPF 60; Ultra Sheer Face Sunscreen SPF 70; Ultra Sheer Foaming Lotion SPF 30; Ultra Sheer Foaming Lotion SPF 60; Ultra Sheer Sunscreen Lotion; Ultra Sheer Water Light; Ultra Soft Hydrating Sunblock SPF 30; Ultra Soft Hydrating Sunblock SPF 45; Ultra Sport Lotion 15 SPF; Ultra Sport Lotion 30 SPF; Ultra Sun Block Lotion SPF 30; Ultra Sun Protection Lotion Ti; Ultra Sun Protection Spray; Ultra Sunblock Lotion SPF 30; Ultra Sunscreen; Ultra-lift Glow Anti-wrinkle Firming Moisture Cream SPF 15; Ultra-light Lotion SPF 50; Ultra-light Refreshing Uv Lotion; Ultra-rich Hydration; Ultraplus Day Cream (with Sun Protection); Ultraquin 4% Hydroquinone Cream With Sunscreens; Ultrasol KIDS Sunscreen; Ultrasol Kids; Ultrasol OIL-FREE Sunscreen; Ultrasol Sport; Ultrasol nature BABY Sunscreen; UltrasolSunscreen Clear CONTINUOUS SPRAY SPF43; UltrasolSunscreen KIDS Clear CONTINUOUS SPRAY; UltrasolSunscreen KIDS Sunscreen Lotion; UltrasolSunscreen KIDS Sunscreen Lotion Continuous Spray SPF 45; UltrasolSunscreen KIDS Sunscreen Lotion SPF 34; UltrasolSunscreen KIDS Sunscreen Mousse; UltrasolSunscreen KIDS Sunscreen Spray Lotion SPF 30; UltrasolSunscreen Sport Clear CONTINUOUS SPRAY; UltrasolSunscreen Sport Sunscreen Lotion CONTINUOUS SPRAY SPF 45; UltrasolSunscreen Sunscreen Face Cream SPF 34; UltrasolSunscreen Sunscreen Lotion Continuous Spray SPF 45; UltrasolSunscreen Sunscreen Lotion SPF 34; UltrasolSunscreen Sunscreen Lotion SPF45; UltrasolSunscreen Sunscreen Spray Lotion SPF 15; UltrasolSunscreen nature BABY Sunscreen Face Cream SPF 45; Uncomplikated Makeup Setting SPF 50; Uncomplikated SPF; United Spirit of America (Warrior) Broad Spectrum SPF 30; United Spirit of America BROAD SPECTRUM SPF 30 Sunscreen; Universal Anti-aging Daily Moisturizing Cream SPF 30; Up and Up Sport Sunscreen Broad Spectrum SPF 50; Urban Active Creme SPF 15; Urban Active Fluide SPF 15; Urban Defense; Urban Outfitters Broad Spectrum SPF 30 Sunscreen; Urban Outfitters Sunscreen Shimmer Broad Spectrum SPF 30; Usana Sense Daytime Protective SPF 15; Usana Sunblock Lotion SPF 15; Utiliscreen Sunscreen; Uv 50 Ecran Multi-protection SPF 50; Uv 50 Ecran Teinté Multi-protection SPF 50; Uv Lip Color Splash; Uv Lip Color Splash Touche Couleur Lèvres Protection Uv Tahiti Blue; Uv Protect SPF 25; Uv Protectant SPF 15 Lot; Uv Stop - Lot; Uv-total Creme Ecran Solaire Fps 30; VIVITE Daily Facial Moisturizer with Sunscreen SPF 30; Vanilla Lip Balm SPF 15; Vanilla Mint Lip SPF 30 Balm; Vanilla SPF 30 Broad Spectrum Lip Balm; Vanilla Sunscreen Lip Moisturizer; Vapo Haute Protection Soleil Sun High Protection Spray Fps 30 SPF; Vaseline Aloe Fresh Hydrating + SPF Body Lotion; Vaseline Aloe Fresh Hydrating + SPF Body Lotion With Aloe and Sunscreen; Vaseline Br.der.fmla Uv Dly.deF.H.B.lotspf15; Vaseline Brand Int Care Sprt Sunsc Lot Spf15; Vaseline Brand Intens Care Sunblock Lot Spf15; Vaseline Brand Intens Care Sunblock Lot Spf25; Vaseline Brand Intensive Care Suntan Lot Spf4; Vaseline Brnd Intensv Care Sunblk Lot Spf35; Vaseline Intensive Care Aloe Fresh Protecting Body Lotion; Vaseline Intensive Care Lotion - Total Care SPF 15; Vaseline Lip Therapy Spf15 Gel; Veil Fluid Makeup Beige SPF 15; Veil Fluid Makeup Chestnut SPF 15; Veil Fluid Makeup Honey SPF 15; Veil Fluid Makeup Ivory SPF 15; Veil Fluid Makeup Light Beige SPF 15; Veil Fluid Makeup Nude SPF 15; Veil Fluid Makeup Porcelain SPF 15; Veil Fluid Makeup Sable SPF 15; Veil Fluid Makeup Sand SPF 15; Veil Fluid Makeup Walnut SPF 15; Veil Fluid Makeup Warm Beige SPF 15; Venofye Orchard Bee Brilliance SPF 30; Vertra Elemental Resistance Water Resistant Sunscreen; Vialprotection Age Defying Protective SPF 50; Vichy Laboratoire Capital Soleil SPF 30 Soft Sheer Sunscreen; Vichy Laboratoire Capital Soleil SPF 60 Soft Sheer Sunscreen; Vichy Laboratoires Capital Soleil 30 Broad Spectrum SPF 30 Sunscreen Luxurious Protective; Vichy Laboratoires Capital Soleil 30 Sunscreen Luxurious Protective; Vichy Laboratoires Capital Soleil SPF 50 Ultra Light Sunscreen; Vichy Laboratoires Ideal Capital Soleil 45 Sunscreen Broad Spectrum SPF 45 Water Resistant 80 Minutes; Vichy Laboratoires Ideal Capital Soleil 50 Sunscreen Broad Spectrum SPF 50 Water Resistant 40 Minutes; Vichy Laboratoires Ideal Capital Soleil 60 Sunscreen Broad Spectrum SPF 60 Water Resistant 40 Minutes; Vichy-ecran Total Multi Reflec Crm Spf20; Vichy-lait Solaire SPF 10; Victorias Secret Pink Broad Spectrum SPF 25 Sunscreen Sunkissed; Victorias Secret Sun Broad Spectrum SPF 25; Vine Vera Resveratrol Cabernet Replenishing Moisture; Vine Vera Resveratrol Zinfandel Radiance; Viquin Forte With Moisturizing Aha - Crm; Visage Envy Invisible Face Gel SPF50; Visible Difference Gentle Hydrating Broad Spectrum Sunscreen SPF 15; Visible Difference Gentle Hydrating Cream SPF 15; Visible Difference Multi Targeted Bb Cream Broad Spectrum Sunscreen SPF 30 Shade 1; Visible Difference Multi Targeted Bb Cream Broad Spectrum Sunscreen SPF 30 Shade 2; Visible Difference Multi Targeted Bb Cream Broad Spectrum Sunscreen SPF 30 Shade 3; Visible Difference Multi-targeted Bb Cream Broad Spectrum Sunscreen SPF 30; Visible Difference Skin Balancing Lotion SPF 15; Visible Difference Skin Balancing Sunscreen SPF 15; Vital Defense Lip Treatment - Stk; Vital Sun Protection SPF 30; Vital Sun Protection SPF 40; Vitamin C Suncare Broad Spectrum SPF 30 Sunscreen; Vivierskin Sunscreen SPF 30; Voile Solaire/sun Veil; Volu-firm Day Cream Sunscreen; Volu-firm Day Cream Sunscreen Broad Spectrum SPF 30; Volu-firm Day Cream With SPF 30; Voupre Age Defense; WILMA SCHUMANN Moisture Protektiv Day Cream SPF-20; Walgreen Clear Complexion; Walgreen Sport SPF 50; Walgreen Sport SPF 70 Sunscreen; Walgreens Anti-Sagging and Ultra Hydrating Day Broad Spectrum SPF15 Sunscreen; Walgreens Anti-Sagging and Ultra Hydrating Day Cream Broad Spectrum SPF15 Sunscreen; Walgreens Broad Spectrum SPF 110 Age Protection Sunscreen; Walgreens Broad Spectrum SPF 30 Dry Touch Sunscreen; Walgreens Broad Spectrum SPF 70 Sunscreen; Walgreens Chap Aid Moisturizer; Walgreens Clear Face; Walgreens Kids SPF 50; Walgreens SPF 50 Clear Complexion For Face; Walgreens SPF 50 Sport Faces; Walgreens SPF 55 Dry Touch; Walgreens SUNSCREEN Sport Broad Spectrum SPF 30; Walgreens Scar Cream w/SPF 30; Walgreens Sport Broad Spectrum SPF 50 Faces Sunscreen; Walgreens Sport Faces SPF 30; Walgreens Sport SPF 30; Walgreens Sport SPF 50; Walgreens Sunscreen Baby SPF 50; Walgreens Sunscreen SPF 15; Walgreens Sunscreen SPF 30; Walgreens Sunscreen SPF 50; Walgreens Sunscreen Sport SFP 70; Walgreens Sunscreen Sport SPF 30; Walgreens Sunscreen Sport SPF 50; Walgreens SunscreenSPF 70 SPF 70; Walmart Equate Beauty Ultra Light Sunscreen SPF 100; Warm Ginger Always color stay-on Makeup Broad Spectrum SPF 15 Jafra; Warm Honey Always Color Stay-on Makeup Broad Spectrum SPF 15 Jafra; Water Babies Sunblock Lot Spf15; Water Babies Uv Guard SPF-30 Lotion; Water Babies Uvguard SPF 15 Lotion; Water Resistant Fragrance Free Sun Block SPF 15; Water Resistant Natural Lavender Sun Block SPF 30; Waterblock Solar SPF 30; Waterblock Solar Spray SPF 30; Waterbright Radiating; Waterguard Kids; Waterguard Kids Sunscreen Clear Spray; Watermelon Facial Sunblock SPF 20 Stk; Watermelon Sun Block Unfragranced SPF 20; Watermelon Sun Lotion SPF 12; Watermelon Sun Spray SPF 6 Liq; Watermelon Sunblock SPF 20 Unfragranced Eml; Waterproof SPF-15 Sunblock Lotion; Waterproof Solar Spray SPF 25; Waterwhite Brightening Lotion SPF 15; Waterworld Sport Sun Block SPF 15; Watkins Aloe Vera Botanical Lip Balm; Webb Candy; Welcome Matte SPF 15; Well at Walgreens Kids Sunscreen Broad Spectrum SPF 50; Well at Walgreens Mist Sheer Broad Spectrum Broad Spectrum SPF 30; Western Family Baby Broad Spectrum Sunscreen SPF 50; Western Family Broad Spectrum Sunscreen SPF 70; Western Family Broad Spectrum SunscreenSPF 50 SPF 50; Western Family Oil Free Faces SPF 30; Western Family Sport Sunscreen SPF 30; Wet Guard Swim Humidity Sweat Sunscreen Lotion; Wet N Wild Coloricon Bronzer; Wet N Wild Juicy Lip Balm; Wet N Wild Megashield; Wet Skin Kids; Wet Skin SPF 30; Wet Skin SPF 45; Wet Skin SPF 60; Wet Skin Sunscreen Spray SPF 85; Wet Skin Swim Humidity Sweat Sunscreen Lotion; White Stick; WhiteWater Advanced Brightening WhiteWater Advanced Brightening SPF30; Winco Moisture SPF 15 Lip Balm; Wolf Daily Moisturizier SPF 15; Wonderblur Immediate Skin Smoothing Finishing Broad Spectrum SPF30; Wrinkle Corrector and Firming Moisturizer SPF 15; Wrinkle Repair Moisturizing Cc Cream SPF 30; Wrinkle Repair Moisturizing Cream SPF 30; XXL Demi Make Up SPF 50; XXL Sun Block SPF 50; Ymlabs; You Rebel; Youthful Look; ZERMAT Sunscreen Broad Spectrum SPF 50 For Daily Use Non-Water Resistant; ZERMAT Sunscreen SPF 50 For Daily Use; ZO SKIN HEALTH ORASER ANTI-AGING HAND CARE PROGRAM Correct, protect and prevent aging hands; Zep Sun Screen Towels; Zilactin-lip (regular and Cherry Flavour); Zinc Stick; Zinka Clear Zinc Oxide Sunscreen; Zinka Lemon Twist SPF 15 Lip Balm; Zinka Lip Protector SPF 30 Lip Balm; Zinka Passion Fruit SPF 15 Lip Balm; Zinka Watermelon SPF 15 Lip Balm; Zoom Protective Lip Cream; Zrii New Day Broad Spectrum SPF-30; anna lotan PRO Protective LIGHTENING CARE UVA/UVB SPF 15 For Sun Damaged Skin; bioCorneum plus SPF 30 advanced SCAR SUPERVISION; callyssee Beauty Faceguard Skin Protecting Facial Balm; celazome Moisturizing SPF 29 Active with DNArescue; celazome Moisturizing SPF 30 Active; coppertone Sunscreen Oil Free SFP 50; coppertone sport Sunscreen SPF 30; correcting cream Broad Spectrum SPF 15 asap; emilia Naked Sun; emilia Naked Sun Body Gel SPF30; emilia Naked Sun SPF 50 Invisible Face Gel; equate Age Guard Face Broad Spectrum SPF 110 Sunscreen; equate SPORT Sunscreen Broad Spectrum; esika Maximum Color Lipstick SPF 18; glo SKIN BEAUTY Balm Mint SPF 15; glo SKIN BEAUTY Cherry Mint SPF 15; glo SKIN BEAUTY Moisturizing Tint SPF 30; hello, sunshine moisturizer Broad Spectrum SPF 30 sunscreen; i Protect for HER SPF 15 ClearMist; i Protect for HER SPF 8 ClearMist; i Protect for HIM SPF 15 ClearMist; i Protect for HIM SPF 8 ClearMist; mally Poreless Perfection Glowing Foundation Fair; mally Poreless Perfection Glowing Foundation Light; mally Poreless Perfection Glowing Foundation Medium; mally Poreless Perfection Glowing Foundation Rich; mally Poreless Perfection Glowing Foundation Tan; mark Totally Balmed; mark. For Gooness Face Antioxidant Skin Moisturizing; mark. Get Defensive SPF 15 Eye; mark. Got to Glow Gradual Glow Body Moisturizer; mark. Lipclick SPF 15 Color Shine; mark. do the right thing Smoothing Body SPF 15; mesoestetic DERMATOLOGICAL SUN PROTECTION BROAD SPECTRUM; recover skin boosting moisturizer broad spectrum SPF 15 Jafra gold dynamics; superSHOCK Liquid Lip Shine; wet n wild Ultimate Match; wet n wild Ultimate Sheer; zermat MAXIMUM REPAIR INTENSIVE FIRMING FACIAL DAY SUNSCREEN SPF 30

$$$$
