1436
  Mrv0541 02231215292D          

 31 33  0  0  1  0            999 V2000
    1.6500   -3.9985    0.0000 O   0  0  0  0  0  0  0  0  0  0  0  0
    4.5080   -3.9985    0.0000 O   0  0  0  0  0  0  0  0  0  0  0  0
    4.5080    0.9517    0.0000 C   0  0  2  0  0  0  0  0  0  0  0  0
    5.2886    1.2030    0.0000 C   0  0  2  0  0  0  0  0  0  0  0  0
    4.5080    0.1266    0.0000 C   0  0  1  0  0  0  0  0  0  0  0  0
    5.7701    0.5391    0.0000 C   0  0  0  0  0  0  0  0  0  0  0  0
    5.2886   -0.1247    0.0000 C   0  0  0  0  0  0  0  0  0  0  0  0
    3.7935    1.3642    0.0000 C   0  0  0  0  0  0  0  0  0  0  0  0
    5.5449    1.9872    0.0000 C   0  0  1  0  0  0  0  0  0  0  0  0
    3.7935   -0.2859    0.0000 C   0  0  0  0  0  0  0  0  0  0  0  0
    4.5080    1.7767    0.0000 C   0  0  0  0  0  0  0  0  0  0  0  0
    3.0791    0.9517    0.0000 C   0  0  0  0  0  0  0  0  0  0  0  0
    3.0791    0.1266    0.0000 C   0  0  0  0  0  0  0  0  0  0  0  0
    6.3522    2.1574    0.0000 C   0  0  0  0  0  0  0  0  0  0  0  0
    4.9939    2.6013    0.0000 C   0  0  0  0  0  0  0  0  0  0  0  0
    3.7935   -1.1109    0.0000 C   0  0  0  0  0  0  0  0  0  0  0  0
    6.6086    2.9416    0.0000 C   0  0  0  0  0  0  0  0  0  0  0  0
    7.4158    3.1117    0.0000 C   0  0  0  0  0  0  0  0  0  0  0  0
    3.0791   -1.5234    0.0000 C   0  0  0  0  0  0  0  0  0  0  0  0
    7.6721    3.8959    0.0000 C   0  0  0  0  0  0  0  0  0  0  0  0
    3.0791   -2.3484    0.0000 C   0  0  0  0  0  0  0  0  0  0  0  0
    2.3645   -2.7609    0.0000 C   0  0  0  0  0  0  0  0  0  0  0  0
    3.7935   -2.7609    0.0000 C   0  0  0  0  0  0  0  0  0  0  0  0
    7.1211    4.5100    0.0000 C   0  0  0  0  0  0  0  0  0  0  0  0
    8.4794    4.0660    0.0000 C   0  0  0  0  0  0  0  0  0  0  0  0
    2.3645   -3.5859    0.0000 C   0  0  2  0  0  0  0  0  0  0  0  0
    3.7935   -3.5859    0.0000 C   0  0  2  0  0  0  0  0  0  0  0  0
    3.0791   -3.9985    0.0000 C   0  0  0  0  0  0  0  0  0  0  0  0
    4.5080   -2.3484    0.0000 C   0  0  0  0  0  0  0  0  0  0  0  0
    5.9406    1.3054    0.0000 H   0  0  0  0  0  0  0  0  0  0  0  0
    4.5779   -0.5297    0.0000 H   0  0  0  0  0  0  0  0  0  0  0  0
 26  1  1  6  0  0  0
 27  2  1  1  0  0  0
  3  4  1  0  0  0  0
  3  5  1  0  0  0  0
  3  8  1  0  0  0  0
  3 11  1  1  0  0  0
  4  6  1  0  0  0  0
  4  9  1  0  0  0  0
  4 30  1  6  0  0  0
  5  7  1  0  0  0  0
  5 10  1  0  0  0  0
  5 31  1  6  0  0  0
  6  7  1  0  0  0  0
  8 12  1  0  0  0  0
  9 14  1  0  0  0  0
  9 15  1  6  0  0  0
 10 13  1  0  0  0  0
 10 16  2  0  0  0  0
 12 13  1  0  0  0  0
 14 17  1  0  0  0  0
 16 19  1  0  0  0  0
 17 18  1  0  0  0  0
 18 20  1  0  0  0  0
 19 21  2  0  0  0  0
 20 24  1  0  0  0  0
 20 25  1  0  0  0  0
 21 22  1  0  0  0  0
 21 23  1  0  0  0  0
 22 26  1  0  0  0  0
 23 27  1  0  0  0  0
 23 29  2  0  0  0  0
 26 28  1  0  0  0  0
 27 28  1  0  0  0  0
M  END
> <DATABASE_ID>
DB01436

> <DATABASE_NAME>
drugbank

> <SMILES>
CC(C)CCC[C@@H](C)[C@@]1([H])CC[C@@]2([H])\C(CCC[C@]12C)=C\C=C1\C[C@@H](O)C[C@H](O)C1=C

> <INCHI_IDENTIFIER>
InChI=1S/C27H44O2/c1-18(2)8-6-9-19(3)24-13-14-25-21(10-7-15-27(24,25)5)11-12-22-16-23(28)17-26(29)20(22)4/h11-12,18-19,23-26,28-29H,4,6-10,13-17H2,1-3,5H3/b21-11+,22-12-/t19-,23-,24-,25+,26+,27-/m1/s1

> <INCHI_KEY>
OFHCOWSQAMBJIW-AVJTYSNKSA-N

> <FORMULA>
C27H44O2

> <MOLECULAR_WEIGHT>
400.6371

> <EXACT_MASS>
400.334130652

> <JCHEM_ACCEPTOR_COUNT>
2

> <JCHEM_ATOM_COUNT>
73

> <JCHEM_AVERAGE_NEUTRAL_MICROSPECIES_CHARGE>
-4.5387695859920767e-08

> <JCHEM_AVERAGE_POLARIZABILITY>
50.55982780805355

> <JCHEM_BIOAVAILABILITY>
1

> <JCHEM_DONOR_COUNT>
2

> <JCHEM_FORMAL_CHARGE>
0

> <JCHEM_GHOSE_FILTER>
0

> <JCHEM_IUPAC>
(1R,3S,5Z)-5-{2-[(1R,3aS,4E,7aR)-7a-methyl-1-[(2R)-6-methylheptan-2-yl]-octahydro-1H-inden-4-ylidene]ethylidene}-4-methylidenecyclohexane-1,3-diol

> <ALOGPS_LOGP>
6.68

> <JCHEM_LOGP>
5.821855681666667

> <ALOGPS_LOGS>
-5.39

> <JCHEM_MDDR_LIKE_RULE>
1

> <JCHEM_NEUTRAL_CHARGE>
0

> <JCHEM_NUMBER_OF_RINGS>
3

> <JCHEM_PHYSIOLOGICAL_CHARGE>
0

> <JCHEM_PKA>
15.288747760735944

> <JCHEM_PKA_STRONGEST_ACIDIC>
14.392873609845417

> <JCHEM_PKA_STRONGEST_BASIC>
-2.7596614720148134

> <JCHEM_POLAR_SURFACE_AREA>
40.46

> <JCHEM_REFRACTIVITY>
124.69639999999995

> <JCHEM_ROTATABLE_BOND_COUNT>
6

> <JCHEM_RULE_OF_FIVE>
0

> <ALOGPS_SOLUBILITY>
1.63e-03 g/l

> <JCHEM_TRADITIONAL_IUPAC>
biotin

> <JCHEM_VEBER_RULE>
0

> <DRUGBANK_ID>
DB01436

> <DRUG_GROUPS>
approved; nutraceutical

> <GENERIC_NAME>
Alfacalcidol

> <SYNONYMS>
(5Z,7E)-9,10-seco-5,7,10(19)-cholestatrien-1α,3β-diol; 1-hydroxycholecalciferol; 1alpha-hydroxycholecalciferol; 1α-hydroxy-vitamin D3; 1α-hydroxycholecalciferol; 1α-hydroxyvitamin D3; 9,10-secocholesta-5,7,10(19)-triene-1α,3β-diol; Alfacalcidol; Alfacalcidolum

> <PRODUCTS>
Alfacalcidol Capsules; One-alpha; One-alpha Sol 0.2mcg/ml

> <INTERNATIONAL_BRANDS>
Alsiodol; One Alpha

$$$$
