1447
  Mrv0541 02231215302D          

 13 14  0  0  1  0            999 V2000
    2.3888    0.5203    0.0000 O   0  0  0  0  0  0  0  0  0  0  0  0
    3.4687    1.3049    0.0000 N   0  0  0  0  0  0  0  0  0  0  0  0
    2.1587    1.9724    0.0000 N   0  0  0  0  0  0  0  0  0  0  0  0
    3.0562    0.0354    0.0000 C   0  0  0  0  0  0  0  0  0  0  0  0
    3.7236    0.5203    0.0000 C   0  0  0  0  0  0  0  0  0  0  0  0
    3.0562   -0.7896    0.0000 C   0  0  0  0  0  0  0  0  0  0  0  0
    4.5083    0.2653    0.0000 C   0  0  0  0  0  0  0  0  0  0  0  0
    2.6437    1.3049    0.0000 C   0  0  0  0  0  0  0  0  0  0  0  0
    3.7707   -1.2021    0.0000 C   0  0  0  0  0  0  0  0  0  0  0  0
    2.3417   -1.2021    0.0000 C   0  0  0  0  0  0  0  0  0  0  0  0
    3.7707   -2.0272    0.0000 C   0  0  0  0  0  0  0  0  0  0  0  0
    2.3417   -2.0272    0.0000 C   0  0  0  0  0  0  0  0  0  0  0  0
    3.0562   -2.4397    0.0000 C   0  0  0  0  0  0  0  0  0  0  0  0
  1  4  1  0  0  0  0
  1  8  1  0  0  0  0
  2  5  1  0  0  0  0
  2  8  2  0  0  0  0
  3  8  1  0  0  0  0
  4  5  1  0  0  0  0
  4  6  1  0  0  0  0
  5  7  1  0  0  0  0
  6  9  2  0  0  0  0
  6 10  1  0  0  0  0
  9 11  1  0  0  0  0
 10 12  2  0  0  0  0
 11 13  2  0  0  0  0
 12 13  1  0  0  0  0
M  END
> <DATABASE_ID>
DB01447

> <DATABASE_NAME>
drugbank

> <SMILES>
CC1N=C(N)OC1C1=CC=CC=C1

> <INCHI_IDENTIFIER>
InChI=1S/C10H12N2O/c1-7-9(13-10(11)12-7)8-5-3-2-4-6-8/h2-7,9H,1H3,(H2,11,12)

> <INCHI_KEY>
LJQBMYDFWFGESC-UHFFFAOYSA-N

> <FORMULA>
C10H12N2O

> <MOLECULAR_WEIGHT>
176.2151

> <EXACT_MASS>
176.094963016

> <JCHEM_ACCEPTOR_COUNT>
3

> <JCHEM_ATOM_COUNT>
25

> <JCHEM_AVERAGE_NEUTRAL_MICROSPECIES_CHARGE>
0.635284811565369

> <JCHEM_AVERAGE_POLARIZABILITY>
18.916204545587455

> <JCHEM_BIOAVAILABILITY>
1

> <JCHEM_DONOR_COUNT>
1

> <JCHEM_FORMAL_CHARGE>
0

> <JCHEM_GHOSE_FILTER>
1

> <JCHEM_IUPAC>
4-methyl-5-phenyl-4,5-dihydro-1,3-oxazol-2-amine

> <ALOGPS_LOGP>
1.47

> <JCHEM_LOGP>
1.8787306556666665

> <ALOGPS_LOGS>
-2.58

> <JCHEM_MDDR_LIKE_RULE>
0

> <JCHEM_NEUTRAL_CHARGE>
1

> <JCHEM_NUMBER_OF_RINGS>
2

> <JCHEM_PHYSIOLOGICAL_CHARGE>
1

> <JCHEM_PKA_STRONGEST_BASIC>
7.241014633931162

> <JCHEM_POLAR_SURFACE_AREA>
47.61

> <JCHEM_REFRACTIVITY>
50.16690000000001

> <JCHEM_ROTATABLE_BOND_COUNT>
1

> <JCHEM_RULE_OF_FIVE>
1

> <ALOGPS_SOLUBILITY>
4.68e-01 g/l

> <JCHEM_TRADITIONAL_IUPAC>
biotin

> <JCHEM_VEBER_RULE>
0

> <DRUGBANK_ID>
DB01447

> <DRUG_GROUPS>
experimental; illicit

> <GENERIC_NAME>
4-Methylaminorex

$$$$
