1467
  Mrv0541 02231215302D          

 16 16  0  0  1  0            999 V2000
    2.3645    0.2846    0.0000 O   0  0  0  0  0  0  0  0  0  0  0  0
    5.2224   -1.3654    0.0000 O   0  0  0  0  0  0  0  0  0  0  0  0
    4.5080    2.3472    0.0000 N   0  0  0  0  0  0  0  0  0  0  0  0
    3.7935    1.1096    0.0000 C   0  0  0  0  0  0  0  0  0  0  0  0
    3.7935    0.2846    0.0000 C   0  0  0  0  0  0  0  0  0  0  0  0
    4.5080    1.5222    0.0000 C   0  0  0  0  0  0  0  0  0  0  0  0
    3.7935   -1.3654    0.0000 C   0  0  0  0  0  0  0  0  0  0  0  0
    3.0791   -0.1279    0.0000 C   0  0  0  0  0  0  0  0  0  0  0  0
    4.5080   -0.1279    0.0000 C   0  0  0  0  0  0  0  0  0  0  0  0
    4.5080   -0.9529    0.0000 C   0  0  0  0  0  0  0  0  0  0  0  0
    3.0791   -0.9529    0.0000 C   0  0  0  0  0  0  0  0  0  0  0  0
    3.7935   -2.1904    0.0000 C   0  0  0  0  0  0  0  0  0  0  0  0
    5.2224    1.1096    0.0000 C   0  0  0  0  0  0  0  0  0  0  0  0
    3.0791   -2.6029    0.0000 C   0  0  0  0  0  0  0  0  0  0  0  0
    1.6500   -0.1279    0.0000 C   0  0  0  0  0  0  0  0  0  0  0  0
    5.9370   -0.9529    0.0000 C   0  0  0  0  0  0  0  0  0  0  0  0
  1  8  1  0  0  0  0
  1 15  1  0  0  0  0
  2 10  1  0  0  0  0
  2 16  1  0  0  0  0
  3  6  1  0  0  0  0
  4  5  1  0  0  0  0
  4  6  1  0  0  0  0
  5  8  2  0  0  0  0
  5  9  1  0  0  0  0
  6 13  1  0  0  0  0
  7 10  1  0  0  0  0
  7 11  2  0  0  0  0
  7 12  1  0  0  0  0
  8 11  1  0  0  0  0
  9 10  2  0  0  0  0
 12 14  1  0  0  0  0
M  END
> <DATABASE_ID>
DB01467

> <DATABASE_NAME>
drugbank

> <SMILES>
CCC1=CC(OC)=C(CC(C)N)C=C1OC

> <INCHI_IDENTIFIER>
InChI=1S/C13H21NO2/c1-5-10-7-13(16-4)11(6-9(2)14)8-12(10)15-3/h7-9H,5-6,14H2,1-4H3

> <INCHI_KEY>
HXJKWPGVENNMCC-UHFFFAOYSA-N

> <FORMULA>
C13H21NO2

> <MOLECULAR_WEIGHT>
223.3113

> <EXACT_MASS>
223.157228921

> <JCHEM_ACCEPTOR_COUNT>
3

> <JCHEM_ATOM_COUNT>
37

> <JCHEM_AVERAGE_NEUTRAL_MICROSPECIES_CHARGE>
0.9988398827947256

> <JCHEM_AVERAGE_POLARIZABILITY>
26.069457531161447

> <JCHEM_BIOAVAILABILITY>
1

> <JCHEM_DONOR_COUNT>
1

> <JCHEM_FORMAL_CHARGE>
0

> <JCHEM_GHOSE_FILTER>
1

> <JCHEM_IUPAC>
1-(4-ethyl-2,5-dimethoxyphenyl)propan-2-amine

> <ALOGPS_LOGP>
2.71

> <JCHEM_LOGP>
2.446898004666666

> <ALOGPS_LOGS>
-2.73

> <JCHEM_MDDR_LIKE_RULE>
0

> <JCHEM_NEUTRAL_CHARGE>
1

> <JCHEM_NUMBER_OF_RINGS>
1

> <JCHEM_PHYSIOLOGICAL_CHARGE>
1

> <JCHEM_PKA_STRONGEST_BASIC>
9.93499400616065

> <JCHEM_POLAR_SURFACE_AREA>
44.480000000000004

> <JCHEM_REFRACTIVITY>
66.2738

> <JCHEM_ROTATABLE_BOND_COUNT>
5

> <JCHEM_RULE_OF_FIVE>
1

> <ALOGPS_SOLUBILITY>
4.13e-01 g/l

> <JCHEM_TRADITIONAL_IUPAC>
tetrahydrofolic acid

> <JCHEM_VEBER_RULE>
0

> <DRUGBANK_ID>
DB01467

> <DRUG_GROUPS>
experimental; illicit

> <GENERIC_NAME>
2,5-Dimethoxy-4-ethylamphetamine

$$$$
