1498
  Mrv0541 02231215312D          

 23 24  0  0  1  0            999 V2000
    5.8950    0.7144    0.0000 O   0  0  0  0  0  0  0  0  0  0  0  0
    2.4253    0.2482    0.0000 N   0  0  0  0  0  0  0  0  0  0  0  0
    4.6575    0.0000    0.0000 C   0  0  0  0  0  0  0  0  0  0  0  0
    3.8325    0.0000    0.0000 C   0  0  0  0  0  0  0  0  0  0  0  0
    5.4825    0.0000    0.0000 C   0  0  1  0  0  0  0  0  0  0  0  0
    3.0572   -0.2822    0.0000 C   0  0  1  0  0  0  0  0  0  0  0  0
    4.6575    0.8250    0.0000 C   0  0  0  0  0  0  0  0  0  0  0  0
    4.6575   -0.8250    0.0000 C   0  0  0  0  0  0  0  0  0  0  0  0
    5.8950   -0.7144    0.0000 C   0  0  0  0  0  0  0  0  0  0  0  0
    2.9141   -1.0947    0.0000 C   0  0  0  0  0  0  0  0  0  0  0  0
    3.9430    1.2375    0.0000 C   0  0  0  0  0  0  0  0  0  0  0  0
    5.3720   -1.2375    0.0000 C   0  0  0  0  0  0  0  0  0  0  0  0
    5.3720    1.2375    0.0000 C   0  0  0  0  0  0  0  0  0  0  0  0
    3.9430   -1.2375    0.0000 C   0  0  0  0  0  0  0  0  0  0  0  0
    6.7200   -0.7144    0.0000 C   0  0  0  0  0  0  0  0  0  0  0  0
    1.6500   -0.0340    0.0000 C   0  0  0  0  0  0  0  0  0  0  0  0
    2.5686    1.0607    0.0000 C   0  0  0  0  0  0  0  0  0  0  0  0
    3.9430    2.0625    0.0000 C   0  0  0  0  0  0  0  0  0  0  0  0
    5.3720   -2.0625    0.0000 C   0  0  0  0  0  0  0  0  0  0  0  0
    5.3720    2.0625    0.0000 C   0  0  0  0  0  0  0  0  0  0  0  0
    3.9430   -2.0625    0.0000 C   0  0  0  0  0  0  0  0  0  0  0  0
    4.6575    2.4750    0.0000 C   0  0  0  0  0  0  0  0  0  0  0  0
    4.6575   -2.4750    0.0000 C   0  0  0  0  0  0  0  0  0  0  0  0
  5  1  1  6  0  0  0
  6  2  1  1  0  0  0
  2 16  1  0  0  0  0
  2 17  1  0  0  0  0
  3  4  1  0  0  0  0
  3  5  1  0  0  0  0
  3  7  1  0  0  0  0
  3  8  1  0  0  0  0
  4  6  1  0  0  0  0
  5  9  1  0  0  0  0
  6 10  1  0  0  0  0
  7 11  2  0  0  0  0
  7 13  1  0  0  0  0
  8 12  2  0  0  0  0
  8 14  1  0  0  0  0
  9 15  1  0  0  0  0
 11 18  1  0  0  0  0
 12 19  1  0  0  0  0
 13 20  2  0  0  0  0
 14 21  2  0  0  0  0
 18 22  2  0  0  0  0
 19 23  2  0  0  0  0
 20 22  1  0  0  0  0
 21 23  1  0  0  0  0
M  END
> <DATABASE_ID>
DB01498

> <DATABASE_NAME>
drugbank

> <SMILES>
CC[C@@H](O)C(C[C@@H](C)N(C)C)(C1=CC=CC=C1)C1=CC=CC=C1

> <INCHI_IDENTIFIER>
InChI=1S/C21H29NO/c1-5-20(23)21(16-17(2)22(3)4,18-12-8-6-9-13-18)19-14-10-7-11-15-19/h6-15,17,20,23H,5,16H2,1-4H3/t17-,20-/m1/s1

> <INCHI_KEY>
QIRAYNIFEOXSPW-YLJYHZDGSA-N

> <FORMULA>
C21H29NO

> <MOLECULAR_WEIGHT>
311.4611

> <EXACT_MASS>
311.224914555

> <JCHEM_ACCEPTOR_COUNT>
2

> <JCHEM_ATOM_COUNT>
52

> <JCHEM_AVERAGE_NEUTRAL_MICROSPECIES_CHARGE>
0.9973240327552653

> <JCHEM_AVERAGE_POLARIZABILITY>
36.896526070113744

> <JCHEM_BIOAVAILABILITY>
1

> <JCHEM_DONOR_COUNT>
1

> <JCHEM_FORMAL_CHARGE>
0

> <JCHEM_GHOSE_FILTER>
1

> <JCHEM_IUPAC>
(3R,6R)-6-(dimethylamino)-4,4-diphenylheptan-3-ol

> <ALOGPS_LOGP>
4.21

> <JCHEM_LOGP>
4.443643929666666

> <ALOGPS_LOGS>
-4.39

> <JCHEM_MDDR_LIKE_RULE>
0

> <JCHEM_NEUTRAL_CHARGE>
1

> <JCHEM_NUMBER_OF_RINGS>
2

> <JCHEM_PHYSIOLOGICAL_CHARGE>
1

> <JCHEM_PKA_STRONGEST_ACIDIC>
14.523448000838789

> <JCHEM_PKA_STRONGEST_BASIC>
9.571360351013027

> <JCHEM_POLAR_SURFACE_AREA>
23.47

> <JCHEM_REFRACTIVITY>
108.70610000000002

> <JCHEM_ROTATABLE_BOND_COUNT>
7

> <JCHEM_RULE_OF_FIVE>
1

> <ALOGPS_SOLUBILITY>
1.28e-02 g/l

> <JCHEM_TRADITIONAL_IUPAC>
biotin

> <JCHEM_VEBER_RULE>
1

> <DRUGBANK_ID>
DB01498

> <DRUG_GROUPS>
experimental; illicit

> <GENERIC_NAME>
Alphamethadol

> <SYNONYMS>
Alphamethadol

$$$$
