1502
  Mrv0541 02231215312D          

 24 25  0  0  1  0            999 V2000
    5.9370   -1.4438    0.0000 O   0  0  0  0  0  0  0  0  0  0  0  0
    3.0791    0.2063    0.0000 N   0  0  0  0  0  0  0  0  0  0  0  0
    4.5080   -1.4438    0.0000 N   0  0  0  0  0  0  0  0  0  0  0  0
    3.7935   -0.2063    0.0000 C   0  0  0  0  0  0  0  0  0  0  0  0
    3.7935   -1.0313    0.0000 C   0  0  0  0  0  0  0  0  0  0  0  0
    3.0791    1.0313    0.0000 C   0  0  0  0  0  0  0  0  0  0  0  0
    4.5080    0.2063    0.0000 C   0  0  0  0  0  0  0  0  0  0  0  0
    2.3645    1.4438    0.0000 C   0  0  0  0  0  0  0  0  0  0  0  0
    2.3645   -0.2063    0.0000 C   0  0  0  0  0  0  0  0  0  0  0  0
    4.5080   -2.2688    0.0000 C   0  0  0  0  0  0  0  0  0  0  0  0
    2.3645    2.2688    0.0000 C   0  0  0  0  0  0  0  0  0  0  0  0
    5.2224   -1.0313    0.0000 C   0  0  0  0  0  0  0  0  0  0  0  0
    5.2224   -0.2063    0.0000 C   0  0  0  0  0  0  0  0  0  0  0  0
    5.2224   -2.6813    0.0000 C   0  0  0  0  0  0  0  0  0  0  0  0
    3.7935   -2.6813    0.0000 C   0  0  0  0  0  0  0  0  0  0  0  0
    1.6500    2.6813    0.0000 C   0  0  0  0  0  0  0  0  0  0  0  0
    3.0791    2.6813    0.0000 C   0  0  0  0  0  0  0  0  0  0  0  0
    5.9370    0.2063    0.0000 C   0  0  0  0  0  0  0  0  0  0  0  0
    5.2224   -3.5063    0.0000 C   0  0  0  0  0  0  0  0  0  0  0  0
    3.7935   -3.5063    0.0000 C   0  0  0  0  0  0  0  0  0  0  0  0
    1.6500    3.5063    0.0000 C   0  0  0  0  0  0  0  0  0  0  0  0
    3.0791    3.5063    0.0000 C   0  0  0  0  0  0  0  0  0  0  0  0
    4.5080   -3.9188    0.0000 C   0  0  0  0  0  0  0  0  0  0  0  0
    2.3645    3.9188    0.0000 C   0  0  0  0  0  0  0  0  0  0  0  0
  1 12  2  0  0  0  0
  2  4  1  0  0  0  0
  2  6  1  0  0  0  0
  2  9  1  0  0  0  0
  3  5  1  0  0  0  0
  3 10  1  0  0  0  0
  3 12  1  0  0  0  0
  4  5  1  0  0  0  0
  4  7  1  0  0  0  0
  6  8  1  0  0  0  0
  8 11  1  0  0  0  0
 10 14  2  0  0  0  0
 10 15  1  0  0  0  0
 11 16  2  0  0  0  0
 11 17  1  0  0  0  0
 12 13  1  0  0  0  0
 13 18  1  0  0  0  0
 14 19  1  0  0  0  0
 15 20  2  0  0  0  0
 16 21  1  0  0  0  0
 17 22  2  0  0  0  0
 19 23  2  0  0  0  0
 20 23  1  0  0  0  0
 21 24  2  0  0  0  0
 22 24  1  0  0  0  0
M  END
> <DATABASE_ID>
DB01502

> <DATABASE_NAME>
drugbank

> <SMILES>
CCC(=O)N(CC(C)N(C)CCC1=CC=CC=C1)C1=CC=CC=C1

> <INCHI_IDENTIFIER>
InChI=1S/C21H28N2O/c1-4-21(24)23(20-13-9-6-10-14-20)17-18(2)22(3)16-15-19-11-7-5-8-12-19/h5-14,18H,4,15-17H2,1-3H3

> <INCHI_KEY>
RXTHKWVSXOIHJS-UHFFFAOYSA-N

> <FORMULA>
C21H28N2O

> <MOLECULAR_WEIGHT>
324.4598

> <EXACT_MASS>
324.220163528

> <JCHEM_ACCEPTOR_COUNT>
2

> <JCHEM_ATOM_COUNT>
52

> <JCHEM_AVERAGE_NEUTRAL_MICROSPECIES_CHARGE>
0.9821876969042789

> <JCHEM_AVERAGE_POLARIZABILITY>
38.344559811690885

> <JCHEM_BIOAVAILABILITY>
1

> <JCHEM_DONOR_COUNT>
0

> <JCHEM_FORMAL_CHARGE>
0

> <JCHEM_GHOSE_FILTER>
1

> <JCHEM_IUPAC>
N-{2-[methyl(2-phenylethyl)amino]propyl}-N-phenylpropanamide

> <ALOGPS_LOGP>
3.95

> <JCHEM_LOGP>
4.223911968333333

> <ALOGPS_LOGS>
-4.07

> <JCHEM_MDDR_LIKE_RULE>
0

> <JCHEM_NEUTRAL_CHARGE>
1

> <JCHEM_NUMBER_OF_RINGS>
2

> <JCHEM_PHYSIOLOGICAL_CHARGE>
1

> <JCHEM_PKA_STRONGEST_BASIC>
8.741474410755792

> <JCHEM_POLAR_SURFACE_AREA>
23.550000000000004

> <JCHEM_REFRACTIVITY>
100.46930000000003

> <JCHEM_ROTATABLE_BOND_COUNT>
8

> <JCHEM_RULE_OF_FIVE>
1

> <ALOGPS_SOLUBILITY>
2.76e-02 g/l

> <JCHEM_TRADITIONAL_IUPAC>
biotin

> <JCHEM_VEBER_RULE>
1

> <DRUGBANK_ID>
DB01502

> <DRUG_GROUPS>
experimental; illicit

> <GENERIC_NAME>
Diampromide

> <SYNONYMS>
Diampromide

$$$$
