1509
  Mrv0541 02231215322D          

 13 14  0  0  1  0            999 V2000
    6.4461    0.4081    0.0000 O   0  0  0  0  0  0  0  0  0  0  0  0
    6.4461   -0.9196    0.0000 O   0  0  0  0  0  0  0  0  0  0  0  0
    2.0930    0.5693    0.0000 N   0  0  0  0  0  0  0  0  0  0  0  0
    3.5220    0.5693    0.0000 C   0  0  0  0  0  0  0  0  0  0  0  0
    2.8075    0.1568    0.0000 C   0  0  0  0  0  0  0  0  0  0  0  0
    4.2365    0.1568    0.0000 C   0  0  0  0  0  0  0  0  0  0  0  0
    4.9509    0.5693    0.0000 C   0  0  0  0  0  0  0  0  0  0  0  0
    5.6655    0.1568    0.0000 C   0  0  0  0  0  0  0  0  0  0  0  0
    4.2365   -0.6683    0.0000 C   0  0  0  0  0  0  0  0  0  0  0  0
    5.6655   -0.6683    0.0000 C   0  0  0  0  0  0  0  0  0  0  0  0
    2.8075   -0.6683    0.0000 C   0  0  0  0  0  0  0  0  0  0  0  0
    4.9509   -1.0808    0.0000 C   0  0  0  0  0  0  0  0  0  0  0  0
    6.9276   -0.2558    0.0000 C   0  0  0  0  0  0  0  0  0  0  0  0
  1  8  1  0  0  0  0
  1 13  1  0  0  0  0
  2 10  1  0  0  0  0
  2 13  1  0  0  0  0
  3  5  1  0  0  0  0
  4  5  1  0  0  0  0
  4  6  1  0  0  0  0
  5 11  1  0  0  0  0
  6  7  2  0  0  0  0
  6  9  1  0  0  0  0
  7  8  1  0  0  0  0
  8 10  2  0  0  0  0
  9 12  2  0  0  0  0
 10 12  1  0  0  0  0
M  END
> <DATABASE_ID>
DB01509

> <DATABASE_NAME>
drugbank

> <SMILES>
CC(N)CC1=CC2=C(OCO2)C=C1

> <INCHI_IDENTIFIER>
InChI=1S/C10H13NO2/c1-7(11)4-8-2-3-9-10(5-8)13-6-12-9/h2-3,5,7H,4,6,11H2,1H3

> <INCHI_KEY>
NGBBVGZWCFBOGO-UHFFFAOYSA-N

> <FORMULA>
C10H13NO2

> <MOLECULAR_WEIGHT>
179.2157

> <EXACT_MASS>
179.094628665

> <JCHEM_ACCEPTOR_COUNT>
3

> <JCHEM_ATOM_COUNT>
26

> <JCHEM_AVERAGE_NEUTRAL_MICROSPECIES_CHARGE>
0.9990268808556068

> <JCHEM_AVERAGE_POLARIZABILITY>
19.500130371486193

> <JCHEM_BIOAVAILABILITY>
1

> <JCHEM_DONOR_COUNT>
1

> <JCHEM_FORMAL_CHARGE>
0

> <JCHEM_GHOSE_FILTER>
1

> <JCHEM_IUPAC>
1-(2H-1,3-benzodioxol-5-yl)propan-2-amine

> <ALOGPS_LOGP>
1.15

> <JCHEM_LOGP>
1.4274839493333333

> <ALOGPS_LOGS>
-1.80

> <JCHEM_MDDR_LIKE_RULE>
0

> <JCHEM_NEUTRAL_CHARGE>
1

> <JCHEM_NUMBER_OF_RINGS>
2

> <JCHEM_PHYSIOLOGICAL_CHARGE>
1

> <JCHEM_PKA_STRONGEST_BASIC>
10.011411157347462

> <JCHEM_POLAR_SURFACE_AREA>
44.480000000000004

> <JCHEM_REFRACTIVITY>
49.472100000000005

> <JCHEM_ROTATABLE_BOND_COUNT>
2

> <JCHEM_RULE_OF_FIVE>
1

> <ALOGPS_SOLUBILITY>
2.83e+00 g/l

> <JCHEM_TRADITIONAL_IUPAC>
biotin

> <JCHEM_VEBER_RULE>
0

> <DRUGBANK_ID>
DB01509

> <DRUG_GROUPS>
experimental; illicit

> <GENERIC_NAME>
Tenamfetamine

> <SYNONYMS>
3,4-methylenedioxyamphetamine; MDA; Methylenedioxyamphetamine; Tenamfetamina; Tenamfetamine; Tenamfetaminum

$$$$
