1514
  Mrv0541 02231215322D          

 28 32  0  0  1  0            999 V2000
    7.8449   -1.4339    0.0000 O   0  0  0  0  0  0  0  0  0  0  0  0
    1.5935    0.9073    0.0000 O   0  0  0  0  0  0  0  0  0  0  0  0
    2.0779    0.2394    0.0000 N   0  0  0  0  0  0  0  0  0  0  0  0
    2.0779    1.5752    0.0000 N   0  0  0  0  0  0  0  0  0  0  0  0
    6.4023    0.1051    0.0000 C   0  0  2  0  0  0  0  0  0  0  0  0
    6.4087   -0.7248    0.0000 C   0  0  1  0  0  0  0  0  0  0  0  0
    5.6773    0.5090    0.0000 C   0  0  1  0  0  0  0  0  0  0  0  0
    4.9873    0.1106    0.0000 C   0  0  1  0  0  0  0  0  0  0  0  0
    4.2973    0.5090    0.0000 C   0  0  2  0  0  0  0  0  0  0  0  0
    7.1959   -0.9716    0.0000 C   0  0  2  0  0  0  0  0  0  0  0  0
    5.6900   -1.1398    0.0000 C   0  0  0  0  0  0  0  0  0  0  0  0
    4.9745   -0.7192    0.0000 C   0  0  0  0  0  0  0  0  0  0  0  0
    4.2973    1.3057    0.0000 C   0  0  1  0  0  0  0  0  0  0  0  0
    7.1856    0.3640    0.0000 C   0  0  0  0  0  0  0  0  0  0  0  0
    5.6773    1.3057    0.0000 C   0  0  0  0  0  0  0  0  0  0  0  0
    7.6752   -0.3001    0.0000 C   0  0  0  0  0  0  0  0  0  0  0  0
    4.9873    1.7041    0.0000 C   0  0  0  0  0  0  0  0  0  0  0  0
    3.5850    0.0830    0.0000 C   0  0  0  0  0  0  0  0  0  0  0  0
    6.4149   -1.5215    0.0000 C   0  0  0  0  0  0  0  0  0  0  0  0
    4.2973   -0.2878    0.0000 C   0  0  0  0  0  0  0  0  0  0  0  0
    3.5850    1.7316    0.0000 C   0  0  0  0  0  0  0  0  0  0  0  0
    6.9569   -1.7316    0.0000 C   0  0  0  0  0  0  0  0  0  0  0  0
    2.8631    0.4923    0.0000 C   0  0  0  0  0  0  0  0  0  0  0  0
    2.8631    1.3223    0.0000 C   0  0  0  0  0  0  0  0  0  0  0  0
    6.4624    0.7397    0.0000 H   0  0  0  0  0  0  0  0  0  0  0  0
    6.2268    0.8319    0.0000 H   0  0  0  0  0  0  0  0  0  0  0  0
    4.4329   -0.2039    0.0000 H   0  0  0  0  0  0  0  0  0  0  0  0
    4.3022    1.9430    0.0000 H   0  0  0  0  0  0  0  0  0  0  0  0
 10  1  1  6  0  0  0
  2  3  1  0  0  0  0
  2  4  1  0  0  0  0
  3 23  2  0  0  0  0
  4 24  2  0  0  0  0
  5  6  1  0  0  0  0
  5  7  1  0  0  0  0
  5 14  1  0  0  0  0
  5 25  1  1  0  0  0
  6 10  1  0  0  0  0
  6 11  1  0  0  0  0
  6 19  1  6  0  0  0
  7  8  1  0  0  0  0
  7 15  1  0  0  0  0
  7 26  1  6  0  0  0
  8  9  1  0  0  0  0
  8 12  1  0  0  0  0
  8 27  1  1  0  0  0
  9 13  1  0  0  0  0
  9 18  1  0  0  0  0
  9 20  1  6  0  0  0
 10 16  1  0  0  0  0
 10 22  1  0  0  0  0
 11 12  1  0  0  0  0
 13 17  1  0  0  0  0
 13 21  1  0  0  0  0
 13 28  1  1  0  0  0
 14 16  1  0  0  0  0
 15 17  1  0  0  0  0
 18 23  1  0  0  0  0
 21 24  1  0  0  0  0
 23 24  1  0  0  0  0
M  END
> <DATABASE_ID>
DB01514

> <DATABASE_NAME>
drugbank

> <SMILES>
[H][C@@]12CC[C@](C)(O)[C@@]1(C)CC[C@@]1([H])[C@@]2([H])CC[C@@]2([H])CC3=NON=C3C[C@]12C

> <INCHI_IDENTIFIER>
InChI=1S/C20H30N2O2/c1-18-11-17-16(21-24-22-17)10-12(18)4-5-13-14(18)6-8-19(2)15(13)7-9-20(19,3)23/h12-15,23H,4-11H2,1-3H3/t12-,13+,14-,15-,18-,19-,20-/m0/s1

> <INCHI_KEY>
RGLLOUBXMOGLDQ-IVEVATEUSA-N

> <FORMULA>
C20H30N2O2

> <MOLECULAR_WEIGHT>
330.4644

> <EXACT_MASS>
330.230728214

> <JCHEM_ACCEPTOR_COUNT>
3

> <JCHEM_ATOM_COUNT>
54

> <JCHEM_AVERAGE_NEUTRAL_MICROSPECIES_CHARGE>
3.1098117206067e-08

> <JCHEM_AVERAGE_POLARIZABILITY>
37.94450060542858

> <JCHEM_BIOAVAILABILITY>
1

> <JCHEM_DONOR_COUNT>
1

> <JCHEM_FORMAL_CHARGE>
0

> <JCHEM_GHOSE_FILTER>
1

> <JCHEM_IUPAC>
(1S,2S,10S,13R,14S,17S,18S)-2,17,18-trimethyl-6-oxa-5,7-diazapentacyclo[11.7.0.0^{2,10}.0^{4,8}.0^{14,18}]icosa-4,7-dien-17-ol

> <ALOGPS_LOGP>
4.30

> <JCHEM_LOGP>
2.9658172606666664

> <ALOGPS_LOGS>
-4.08

> <JCHEM_MDDR_LIKE_RULE>
0

> <JCHEM_NEUTRAL_CHARGE>
0

> <JCHEM_NUMBER_OF_RINGS>
5

> <JCHEM_PHYSIOLOGICAL_CHARGE>
0

> <JCHEM_PKA_STRONGEST_BASIC>
-0.505480492300719

> <JCHEM_POLAR_SURFACE_AREA>
59.150000000000006

> <JCHEM_REFRACTIVITY>
93.05709999999999

> <JCHEM_ROTATABLE_BOND_COUNT>
0

> <JCHEM_RULE_OF_FIVE>
1

> <ALOGPS_SOLUBILITY>
2.77e-02 g/l

> <JCHEM_TRADITIONAL_IUPAC>
biotin

> <JCHEM_VEBER_RULE>
0

> <DRUGBANK_ID>
DB01514

> <DRUG_GROUPS>
illicit

> <GENERIC_NAME>
Furazabol

> <SYNONYMS>
Furazabol

> <INTERNATIONAL_BRANDS>
Miotolon

$$$$
