1537
  Mrv0541 02231215332D          

 14 14  0  0  0  0            999 V2000
    3.7935   -2.3967    0.0000 Br  0  0  0  0  0  0  0  0  0  0  0  0
    2.3645    0.0784    0.0000 O   0  0  0  0  0  0  0  0  0  0  0  0
    5.2224   -1.5717    0.0000 O   0  0  0  0  0  0  0  0  0  0  0  0
    4.5080    2.1409    0.0000 N   0  0  0  0  0  0  0  0  0  0  0  0
    3.7935    0.0784    0.0000 C   0  0  0  0  0  0  0  0  0  0  0  0
    3.7935    0.9034    0.0000 C   0  0  0  0  0  0  0  0  0  0  0  0
    3.0791   -0.3341    0.0000 C   0  0  0  0  0  0  0  0  0  0  0  0
    4.5080    1.3159    0.0000 C   0  0  0  0  0  0  0  0  0  0  0  0
    4.5080   -0.3341    0.0000 C   0  0  0  0  0  0  0  0  0  0  0  0
    4.5080   -1.1592    0.0000 C   0  0  0  0  0  0  0  0  0  0  0  0
    3.0791   -1.1592    0.0000 C   0  0  0  0  0  0  0  0  0  0  0  0
    3.7935   -1.5717    0.0000 C   0  0  0  0  0  0  0  0  0  0  0  0
    1.6500   -0.3341    0.0000 C   0  0  0  0  0  0  0  0  0  0  0  0
    5.9370   -1.1592    0.0000 C   0  0  0  0  0  0  0  0  0  0  0  0
  1 12  1  0  0  0  0
  2  7  1  0  0  0  0
  2 13  1  0  0  0  0
  3 10  1  0  0  0  0
  3 14  1  0  0  0  0
  4  8  1  0  0  0  0
  5  6  1  0  0  0  0
  5  7  1  0  0  0  0
  5  9  2  0  0  0  0
  6  8  1  0  0  0  0
  7 11  2  0  0  0  0
  9 10  1  0  0  0  0
 10 12  2  0  0  0  0
 11 12  1  0  0  0  0
M  END
> <DATABASE_ID>
DB01537

> <DATABASE_NAME>
drugbank

> <SMILES>
COC1=CC(Br)=C(OC)C=C1CCN

> <INCHI_IDENTIFIER>
InChI=1S/C10H14BrNO2/c1-13-9-6-8(11)10(14-2)5-7(9)3-4-12/h5-6H,3-4,12H2,1-2H3

> <INCHI_KEY>
YMHOBZXQZVXHBM-UHFFFAOYSA-N

> <FORMULA>
C10H14BrNO2

> <MOLECULAR_WEIGHT>
260.128

> <EXACT_MASS>
259.020791344

> <JCHEM_ACCEPTOR_COUNT>
3

> <JCHEM_ATOM_COUNT>
28

> <JCHEM_AVERAGE_NEUTRAL_MICROSPECIES_CHARGE>
0.9979023717264879

> <JCHEM_AVERAGE_POLARIZABILITY>
23.541857504424208

> <JCHEM_BIOAVAILABILITY>
1

> <JCHEM_DONOR_COUNT>
1

> <JCHEM_FORMAL_CHARGE>
0

> <JCHEM_GHOSE_FILTER>
1

> <JCHEM_IUPAC>
2-(4-bromo-2,5-dimethoxyphenyl)ethan-1-amine

> <ALOGPS_LOGP>
1.99

> <JCHEM_LOGP>
1.8410855510000004

> <ALOGPS_LOGS>
-3.12

> <JCHEM_MDDR_LIKE_RULE>
0

> <JCHEM_NEUTRAL_CHARGE>
1

> <JCHEM_NUMBER_OF_RINGS>
1

> <JCHEM_PHYSIOLOGICAL_CHARGE>
1

> <JCHEM_PKA_STRONGEST_BASIC>
9.677359526072586

> <JCHEM_POLAR_SURFACE_AREA>
44.480000000000004

> <JCHEM_REFRACTIVITY>
59.83560000000001

> <JCHEM_ROTATABLE_BOND_COUNT>
4

> <JCHEM_RULE_OF_FIVE>
1

> <ALOGPS_SOLUBILITY>
1.99e-01 g/l

> <JCHEM_TRADITIONAL_IUPAC>
biotin

> <JCHEM_VEBER_RULE>
0

> <DRUGBANK_ID>
DB01537

> <DRUG_GROUPS>
experimental; illicit

> <GENERIC_NAME>
4-Bromo-2,5-dimethoxyphenethylamine

> <SYNONYMS>
2C-B

$$$$
