1547
  Mrv0541 02231215332D          

 25 28  0  0  1  0            999 V2000
    6.7068    0.9949    0.0000 O   0  0  0  0  0  0  0  0  0  0  0  0
    6.0024   -1.9494    0.0000 O   0  0  0  0  0  0  0  0  0  0  0  0
    3.8357   -0.6834    0.0000 O   0  0  0  0  0  0  0  0  0  0  0  0
    2.3658    0.1501    0.0000 O   0  0  0  0  0  0  0  0  0  0  0  0
    5.6444    1.3999    0.0000 N   0  0  0  0  0  0  0  0  0  0  0  0
    5.2780    0.1700    0.0000 C   0  0  1  0  0  0  0  0  0  0  0  0
    5.9924    0.5825    0.0000 C   0  0  1  0  0  0  0  0  0  0  0  0
    5.9924    1.4074    0.0000 C   0  0  1  0  0  0  0  0  0  0  0  0
    5.2647   -0.6891    0.0000 C   0  0  0  0  0  0  0  0  0  0  0  0
    5.1105    0.4752    0.0000 C   0  0  0  0  0  0  0  0  0  0  0  0
    6.7431    0.1644    0.0000 C   0  0  0  0  0  0  0  0  0  0  0  0
    4.5635    0.5825    0.0000 C   0  0  0  0  0  0  0  0  0  0  0  0
    5.2780    1.8199    0.0000 C   0  0  0  0  0  0  0  0  0  0  0  0
    6.0055   -1.1245    0.0000 C   0  0  1  0  0  0  0  0  0  0  0  0
    5.0415    1.1316    0.0000 C   0  0  0  0  0  0  0  0  0  0  0  0
    6.7497   -0.6948    0.0000 C   0  0  0  0  0  0  0  0  0  0  0  0
    4.5635    1.4074    0.0000 C   0  0  0  0  0  0  0  0  0  0  0  0
    3.8261    0.1415    0.0000 C   0  0  0  0  0  0  0  0  0  0  0  0
    5.8158    2.2068    0.0000 C   0  0  0  0  0  0  0  0  0  0  0  0
    3.8261    1.8486    0.0000 C   0  0  0  0  0  0  0  0  0  0  0  0
    3.0787    0.5654    0.0000 C   0  0  0  0  0  0  0  0  0  0  0  0
    3.0787    1.4246    0.0000 C   0  0  0  0  0  0  0  0  0  0  0  0
    3.1261   -1.1042    0.0000 C   0  0  0  0  0  0  0  0  0  0  0  0
    1.6499    0.5598    0.0000 C   0  0  0  0  0  0  0  0  0  0  0  0
    6.3224    1.9789    0.0000 H   0  0  0  0  0  0  0  0  0  0  0  0
  7  1  1  1  0  0  0
 14  2  1  1  0  0  0
  3 18  1  0  0  0  0
  3 23  1  0  0  0  0
  4 21  1  0  0  0  0
  4 24  1  0  0  0  0
  5  8  1  0  0  0  0
  5 15  1  0  0  0  0
  5 19  1  0  0  0  0
  6  7  1  0  0  0  0
  6  9  1  6  0  0  0
  6 10  1  0  0  0  0
  6 12  1  0  0  0  0
  7  8  1  0  0  0  0
  7 11  1  0  0  0  0
  8 13  1  0  0  0  0
  8 25  1  6  0  0  0
  9 14  1  0  0  0  0
 10 15  1  0  0  0  0
 11 16  1  0  0  0  0
 12 17  2  0  0  0  0
 12 18  1  0  0  0  0
 13 17  1  0  0  0  0
 14 16  1  0  0  0  0
 17 20  1  0  0  0  0
 18 21  2  0  0  0  0
 20 22  2  0  0  0  0
 21 22  1  0  0  0  0
M  END
> <DATABASE_ID>
DB01547

> <DATABASE_NAME>
drugbank

> <SMILES>
[H][C@]12CC3=C(C(OC)=C(OC)C=C3)[C@@]3(CCN1C)C[C@H](O)CC[C@@]23O

> <INCHI_IDENTIFIER>
InChI=1S/C19H27NO4/c1-20-9-8-18-11-13(21)6-7-19(18,22)15(20)10-12-4-5-14(23-2)17(24-3)16(12)18/h4-5,13,15,21-22H,6-11H2,1-3H3/t13-,15+,18+,19-/m1/s1

> <INCHI_KEY>
LCAHPIFLPICNRW-OPGCRTJHSA-N

> <FORMULA>
C19H27NO4

> <MOLECULAR_WEIGHT>
333.422

> <EXACT_MASS>
333.194008357

> <JCHEM_ACCEPTOR_COUNT>
5

> <JCHEM_ATOM_COUNT>
51

> <JCHEM_AVERAGE_NEUTRAL_MICROSPECIES_CHARGE>
0.9875257559393026

> <JCHEM_AVERAGE_POLARIZABILITY>
36.18542669145242

> <JCHEM_BIOAVAILABILITY>
1

> <JCHEM_DONOR_COUNT>
2

> <JCHEM_FORMAL_CHARGE>
0

> <JCHEM_GHOSE_FILTER>
1

> <JCHEM_IUPAC>
(1R,9R,10S,13R)-3,4-dimethoxy-17-methyl-17-azatetracyclo[7.5.3.0^{1,10}.0^{2,7}]heptadeca-2(7),3,5-triene-10,13-diol

> <ALOGPS_LOGP>
1.61

> <JCHEM_LOGP>
1.0239459829999995

> <ALOGPS_LOGS>
-2.19

> <JCHEM_MDDR_LIKE_RULE>
0

> <JCHEM_NEUTRAL_CHARGE>
1

> <JCHEM_NUMBER_OF_RINGS>
4

> <JCHEM_PHYSIOLOGICAL_CHARGE>
1

> <JCHEM_PKA>
15.245804900425412

> <JCHEM_PKA_STRONGEST_ACIDIC>
13.643596413979788

> <JCHEM_PKA_STRONGEST_BASIC>
8.898542192408778

> <JCHEM_POLAR_SURFACE_AREA>
62.160000000000004

> <JCHEM_REFRACTIVITY>
91.993

> <JCHEM_ROTATABLE_BOND_COUNT>
2

> <JCHEM_RULE_OF_FIVE>
1

> <ALOGPS_SOLUBILITY>
2.15e+00 g/l

> <JCHEM_TRADITIONAL_IUPAC>
biotin

> <JCHEM_VEBER_RULE>
0

> <DRUGBANK_ID>
DB01547

> <DRUG_GROUPS>
experimental; illicit

> <GENERIC_NAME>
Drotebanol

> <SYNONYMS>
Drotebanol

$$$$
