1563
  Mrv0541 02231215342D          

  7  6  0  0  0  0            999 V2000
    1.6500   -0.8019    0.0000 Cl  0  0  0  0  0  0  0  0  0  0  0  0
    1.9520    0.3251    0.0000 Cl  0  0  0  0  0  0  0  0  0  0  0  0
    2.7770   -1.1039    0.0000 Cl  0  0  0  0  0  0  0  0  0  0  0  0
    3.7935   -0.3894    0.0000 O   0  0  0  0  0  0  0  0  0  0  0  0
    3.0791    0.8481    0.0000 O   0  0  0  0  0  0  0  0  0  0  0  0
    3.0791    0.0231    0.0000 C   0  0  0  0  0  0  0  0  0  0  0  0
    2.3645   -0.3894    0.0000 C   0  0  0  0  0  0  0  0  0  0  0  0
  1  7  1  0  0  0  0
  2  7  1  0  0  0  0
  3  7  1  0  0  0  0
  4  6  1  0  0  0  0
  5  6  1  0  0  0  0
  6  7  1  0  0  0  0
M  END
> <DATABASE_ID>
DB01563

> <DATABASE_NAME>
drugbank

> <SMILES>
OC(O)C(Cl)(Cl)Cl

> <INCHI_IDENTIFIER>
InChI=1S/C2H3Cl3O2/c3-2(4,5)1(6)7/h1,6-7H

> <INCHI_KEY>
RNFNDJAIBTYOQL-UHFFFAOYSA-N

> <FORMULA>
C2H3Cl3O2

> <MOLECULAR_WEIGHT>
165.403

> <EXACT_MASS>
163.919862461

> <JCHEM_ACCEPTOR_COUNT>
2

> <JCHEM_ATOM_COUNT>
10

> <JCHEM_AVERAGE_NEUTRAL_MICROSPECIES_CHARGE>
-0.0031525713134116493

> <JCHEM_AVERAGE_POLARIZABILITY>
11.882383768726884

> <JCHEM_BIOAVAILABILITY>
1

> <JCHEM_DONOR_COUNT>
2

> <JCHEM_FORMAL_CHARGE>
0

> <JCHEM_GHOSE_FILTER>
0

> <JCHEM_IUPAC>
2,2,2-trichloroethane-1,1-diol

> <ALOGPS_LOGP>
0.88

> <JCHEM_LOGP>
0.6923550136666667

> <ALOGPS_LOGS>
-0.58

> <JCHEM_MDDR_LIKE_RULE>
0

> <JCHEM_NEUTRAL_CHARGE>
0

> <JCHEM_NUMBER_OF_RINGS>
0

> <JCHEM_PHYSIOLOGICAL_CHARGE>
0

> <JCHEM_PKA>
11.47153111794237

> <JCHEM_PKA_STRONGEST_ACIDIC>
9.509396531155064

> <JCHEM_PKA_STRONGEST_BASIC>
-5.0687194371693485

> <JCHEM_POLAR_SURFACE_AREA>
40.46

> <JCHEM_REFRACTIVITY>
29.245699999999992

> <JCHEM_ROTATABLE_BOND_COUNT>
1

> <JCHEM_RULE_OF_FIVE>
1

> <ALOGPS_SOLUBILITY>
4.34e+01 g/l

> <JCHEM_TRADITIONAL_IUPAC>
biotin

> <JCHEM_VEBER_RULE>
0

> <DRUGBANK_ID>
DB01563

> <DRUG_GROUPS>
approved; illicit; investigational; vet_approved

> <GENERIC_NAME>
Chloral hydrate

> <SYNONYMS>
1,1,1-trichloro-2,2-dihydroxyethane; 1,1,1-trichloro-2,2-ethanediol; 2,2,2-trichloro-1,1-ethanediol; Chloral hydrate; chloral monohydrate; Chloralhydrat; Trichloracetaldehyd-hydrat; trichloroacetaldehyde hydrate

> <PRODUCTS>
Analgesic Balm; Apo-chloral Hydrate Syrup; Calmitol Itching Relief Ont; Chloral Hydrate Capsules 500mg; Chloral Hydrate Syrup Odan; Novo-chlorhydrate Cap 500mg; PMS-chloral Hydrate Capsules 500mg; PMS-chloral Hydrate Syrup 100mg/ml; Somnote

> <INTERNATIONAL_BRANDS>
Aquachloral Supprettes

$$$$
