1593
  Mrv0541 02231215352D          

  1  0  0  0  0  0            999 V2000
    2.0000    0.0000    0.0000 Zn  0  0  0  0  0  0  0  0  0  0  0  0
M  END
> <DATABASE_ID>
DB01593

> <DATABASE_NAME>
drugbank

> <SMILES>
[Zn]

> <INCHI_IDENTIFIER>
InChI=1S/Zn

> <INCHI_KEY>
HCHKCACWOHOZIP-UHFFFAOYSA-N

> <FORMULA>
Zn

> <MOLECULAR_WEIGHT>
65.409

> <EXACT_MASS>
63.929146578

> <JCHEM_ACCEPTOR_COUNT>
0

> <JCHEM_ATOM_COUNT>
1

> <JCHEM_AVERAGE_NEUTRAL_MICROSPECIES_CHARGE>
0.0

> <JCHEM_AVERAGE_POLARIZABILITY>
1.7784

> <JCHEM_BIOAVAILABILITY>
1

> <JCHEM_DONOR_COUNT>
0

> <JCHEM_FORMAL_CHARGE>
0

> <JCHEM_GHOSE_FILTER>
0

> <JCHEM_IUPAC>
zinc

> <JCHEM_LOGP>
0.156

> <JCHEM_MDDR_LIKE_RULE>
0

> <JCHEM_NEUTRAL_CHARGE>
0

> <JCHEM_NUMBER_OF_RINGS>
0

> <JCHEM_PHYSIOLOGICAL_CHARGE>
0

> <JCHEM_POLAR_SURFACE_AREA>
0.0

> <JCHEM_REFRACTIVITY>
0.0

> <JCHEM_ROTATABLE_BOND_COUNT>
0

> <JCHEM_RULE_OF_FIVE>
1

> <JCHEM_TRADITIONAL_IUPAC>
biotin

> <JCHEM_VEBER_RULE>
1

> <DRUGBANK_ID>
DB01593

> <DRUG_GROUPS>
approved; investigational

> <GENERIC_NAME>
Zinc

> <SYNONYMS>
Zinc, chelated; Zinc, elemental; Zincum metallicum; Zn

> <PRODUCTS>
24 Multivitamins + Minerals; 50 Plus Multiple Vitamins & Minerals; A + Zinc; A.B.C. Formula #1; A.R.T.H. Away Formula; A/o-26 - Caplet; Aces Caplet; Aces Tab; Acetabolan III Vitamin and Mineral Supplement; Acetabolan-II Vitamin and Mineral Supplement; Acti-ZN 25 Caplet; Acti-cal/mag 2:1 + Zinc and D Caplet; Acti-carotene + Zn Caplet; Acti-retinol & Zn Caplet; Actyform; Adult Formula 50+; Advanced B & T Formula; Alkadrenergy Tablets; Amd; Armax; B & J Formula Dietary Supplement; BabyO2; Beta Carotene Plus; Beta-carotene 25000 Plus Zinc Caplet; Beta-retinol + Zinc Caplet; Body Rox; Bseltzer; C-plus - Tab; C. Vit-min Formula; Cal & Mag Hvp Chel Plus C Potass & Zinc Tab; Cal Mag Plus - Tab; Cal-mag Citrate Zinc & Vitamin D Tablets; Cal-mag With Zinc & Vitamin D; Cal/mag 1:1 With Zinc and Vitamin D - Tablet; Calcemin; Calcium & Magnesium Citrate Plus D With Manganese, Potassium & Zinc; Calcium & Magnesium Plus Potassium & Zinc; Calcium & Magnesium Plus Potassium, Zinc, & Manganese; Calcium & Magnesium With Potassium & Zinc; Calcium & Magnesium With Potassium, Zinc, Manganese & Vitamin D; Calcium Complex High Grade; Calcium Et Magnesium Plus Vitamine D/fe/zn; Calcium With Mg Zn Mn Cu CR Si and Vit. C & D; Calcium and Magnesium 1:1 Plus Tablets; Calplus; Card-floe II Tab; Carti-aide Tab; Cavan-EC SOD DHA; Cell-wise; Cell-wise Natural Source; Cellular Formula; Chela Calmag-100 Plus Zinc D3; Chela Calmag-300 Plus Zinc D3; Chela Zinc Plus; Chelamins Plus Tab; Chelapro; Chelated Cal-mag(2:1)with Zn Vit.c and D; Chelated Cal/mag/zn With Vitamins; Chelated Zinc Hvp Chelate 50mg - Tab; Chelated Zinc Tab 10mg; Chelated Zinc Tab 25mg; Chelated Zinc Tablets; Chewable Adult Multivitamins With Minerals; Chewable Calcium Plus Magnesium and Minerals; Children's Chewable Tab; Chromagen; CitraNatal Assure; CitraNatal Essence; Classic Swiss One 10 Multivitamin and Mineral Tab; Coen.q10w.vit.c and E Beta-car.se Cu Zn Mn; Complete Multivitamins and Minerals Tablets Timed Release; Complete One A Day Tab; Complete One-A-day - Tab; Copper 3mg Plus Iron & Zinc Tab; Corvita 150; Cps Capsules; Daily Energy Brand Vitamin & Mineral Drink Mix; Db-7 Dietary Supplement; Defense Caplets; Diacomp - Cap; Doctor's Choice Brand for Men; E & I Formulae; Emuol V; Envirocomplex; Enviroflex - Tab; Escavite; Extra Once A Day; Fem Time Tab; Folcaps Care One; Folet One; Food Nutrition Inc. Men's Vitamin and Mineral Supplement; For-2; Formula 14 Dietary Supplement; Formula A.R.-th Dietary Supplement; Formula B; Formula Cn; Formula Cp Cap; Formula Csp With Vitamins A C and Zinc Loz; Formula Est'ro Tab Support; Formula F L W; Formula Gly; Formula Gm; Formula Hh; Formula Im-vitamins and Minerals Tab; Formula Inf; Formula Int; Formula Ma-vitamin E & Zinc Tab; Formula O-care Vitamin and Mineral Supplement; Formula O.C.; Formula R Mineral Supplement; Formula-4 Sx; Fortifi-plus; Ginsamin Power; Glyco Lite Ect; Glyco Plus Ect; Glyco-aide Tab; Grand Master Formula Tab; Guardyn Tab; Hi Potency B Complex W Chelated Minerals; Hi Potency Multi Tab; Hsn Formula; Hvp Chelated Cal/mag With Zinc and Vitamins C and D; Hypo Vites Tab; Hyporyl - Tab; IV-8 Formula; Icaps; Icaps Time Release; Imm Formula Cap; Immune Support; Innersource Tab; Iron W Zinc Chelated W Liver Tab; Isotonix Multitech Vitamin Mineral Supplemen; Itabs Plus; J.T. Formula; K.L. Vitamin-mineral; Kamu Jay Multi Complex Tab; Kanga-V Multivitamins & Minerals; Kolvac; L.G.I.T.; Liquid Opti-minplex +d; Longevit-E - Capsule; Luna Vitamin and Mineral Bar for Women; M-Natal Plus; Magnacal; Magnum-75 Vitamin and Mineral Supplement; Maintain Multiple Vitamin & Minerals; Master Key Multi Vitamin Multi Mineral Formula 2; MaxFe; Maximum Once A Day; Maxine Vitamin and Mineral Supplement; Maxum Multi-vite; Mega Balance; Mega Capsules; Mega Multiple Minerals; Mega Plex III - Pck; Mega Plex IV - Pck; Mega-vim 75 With Beta-carotene - Tablets; Men's; Men's 50+; Men's Biomultiple Vitamin and Mineral Supplement; Meth-X Vitamin and Mineral Supplement; Micro+6 Concentrate; Milltrium Senior Vitamin and Mineral Supplement; Mineral Support; Mineralex; Mte 4 Inj; Multi #2; Multi Cal Mag Liquid; Multi Flow Tablets; Multi II IV Vi Tab; Multi Mega Minerals With Vitamin D; Multi Mins Liquid; Multi Plex I - Tab; Multi Plex II - Tab; Multi Spectrum - Tablet; Multi Tabs; Multi Vitamin - Mineral; Multi Vitamins & Minerals; Multi-actin; Multi-mins Minerals; Multi-vitamins With Minerals; Multicaps; Multimineral Chelates; Multimineral Tablets; Multiminerals; Multipack II; Multiple Minerals; Multitabs; Multivitamin & Minerals (iron Free); Multivitamin & Multimineral; Multivitamins and Minerals Tablets; Multivitamins and Minerals With Betacarotene Tablets; Multivitamins and Minerals for Men; Multivitamins and Minerals for Women; Multra Plex; Multra With Iron; N.U.T. Complex; NESTABS ABC Prenatal Multi-vitamin/Mineral Supplement with DHA/EPA; Nata Komplete; Natural Liquid Mineral Supplement; Natural Source Spectrum With Beta Carotene; NicAzel; Nicazyme; Nicotinamide; Niferex; Nioxin Recharging Complex; Nitro Vites - Tab; Nutra Boost; Nutra-clear; Nutri-chem Calcium Magnesium With D and Zinc; Nutria; Nutrilite Double X; O-Cal FA multivitamin; O-Cal Prenatal Vitamin; Olympian Multi Vit Plus Minerals Tab; Onccor; Oncovite; One A Day Advance Adults; One A Day Advance Adults 50+; One A Day Multiple Vit W Minerals; One A Day Tab; One Daily Vitamin and Mineral Dietary Supplement; One Per Day Vitamin and Mineral Dietary Supplement; Only One - Tablet; Opti-zinc 25 Caplet; Osteo Factors; Osteo Formula; Osteo Regime; Osteo-force; P & Sp Special Formula; P.R.O. Complex; Port A Mins Super Zinc 15; Port A Mins Super Zinc 30; Powertech Vitamin and Mineral Supplement; PreNatal Vitamins Plus; Premium Prenatal; Premium Prenatal - Tablets; Prenara; Prenatal Formula Tab; Prenatal Vi-min; Prenatal Vitamins Plus Low Iron; Prim - Royal P.M.T.; PrimaCare; Pro Hers Vanilla; Pro His Mint; Pro Pcos Citrus; Prolynium Vitamin and Mineral Supplement; Proscare; Prost-10 Vitamin and Mineral Supplement; Protect Plus SO 60; Q.T. #4 Vitamin and Mineral Dietary Supplement; Q.T. Vitamin and Mineral Drink Mix; QBx (formerly known as PHI-5, K041059); RE FAC-x; Reaphirm Plant Source DHA; Remedient; Revit Multi-vitamins and Minerals; Revitalize Multi-vitamin and Mineral Complex; Right Choice P.M. Multi Formula - Caplet; Rocky Mountain Multiple Vit and Min Mega Tab; SPF Rx - SPF 50 Spearmint Lip Balm; SUEROLYTE Oral Electrolyte Solution Apple Flavor; SUEROLYTE Oral Electrolyte Solution Bubbe Gum Flavor; SUEROLYTE Oral Electrolyte Solution Cherry Flavor; SUEROLYTE Oral Electrolyte Solution Coconut Flavor; SUEROLYTE Oral Electrolyte Solution Grape Flavor; SUEROLYTE Oral Electrolyte Solution Horchate Flavor; SUEROLYTE Oral Electrolyte Solution Lemon-Lime Flavor; SUEROLYTE Oral Electrolyte Solution Mango Flavor; SUEROLYTE Oral Electrolyte Solution Orange Flavor; SUEROLYTE Oral Electrolyte Solution Peach Flavor; SUEROLYTE Oral Electrolyte Solution Pineapple Flavor; SUEROLYTE Oral Electrolyte Solution Strawberry Banana Flavor; SUEROLYTE Oral Electrolyte Solution Tropical Fruits Flavor; SUEROLYTE Oral Electrolyte Solution Unflavored Flavor; Select OB; Senior Multi One; Shen Min Vitamin and Mineral Supplement; Silexin; Solaray; Somavit Brand Vitamins and Minerals Complex; Spark Cap; Spectrum 2 Cap; Spectrum Performa Multivitamins and Minerals Tablets; Strovite Forte Caplet; Super Ao Formula; Super Cal Mag Plus; Super Multi; Super Vita Vim Multivitamins and Minerals; Super Vita-vim With Beta-carotene - Tab; Supplements De Vitamines Et Mineraux; Sweet Sixteen - Tab; Swical Extra-fort; Swical-energy 3e Age; Swiss One; Swiss One Multi Vit & Chel Min Tab; Swiss One Multivitamin and Mineral Caplet; Swiss Total One; T-PA Cap; T.S. Formula; TL-Fluorivite; Tar-end; Tianshi Vital Powder I; Tianshi Vital Powder II; Timed Release Vita-vim Srt; Tma Tab; Total Living Concepts Formula One - Tab; Trace Minerals Et/and B12 Tab; Tricare Prenatal 2-part Daily Prenatal Vitamin System; Tricare Prenatal Quick Dissolve; Twin G.F. Powder; Twin G.F. Powder Vanilla Flavor; Twin Opti Pwr; Udamin Sp; Ultimate Tab; Ultra Hr; Usana Multimineral Tablets; Usana Multimineral Tablets - Tab; V & M Vitamin and Mineral Supplement; V-V Dietary Supplement; Vc II; Vege 1 Daily Tab; Vege Swiss One Multivitamin W Chel Mins Tab; Vimeral Tab; Vita Balance 2000; Vita Day Tab; Vita Vim Multivitamins and Minerals Tab; Vita-vim - Tab; Vitafol Fe Plus; Vitafol OB Caplet; Vitafol One; Vitafol Plus; Vitafol-OB Plus DHA Prenatal Supplement Plus DHA; Vitalife - Capsule; Vitality Brand Calcium Plus Tab; Vitamin & Mineral Formula 1 Dietary Supplement; Vitamin C & Zinc Tab; Vitamin C and Zinc Lozenges; Vitamin E + 3 Extra Strength With Zinc; Vitamin E With Selenium and Zinc; Vp-zel; Vtb Vitamin and Mineral Supplement; Vyo Cylate - Pwr; Wilzin; Women's Biomultiple Vitamin and Mineral Supplement; Z Bec Tab; Z-force Vitamin and Mineral Supplement; Z-mass PM Vitamin and Mineral Supplement; Zinc - 25mg Tab; Zinc 50mg; Zinc Amino Acid Chelate Tab; Zinc C Lozenges; Zinc Chelate 20mg With Copper Chelate; Zinc Chelate Tab 15mg; Zinc Formula; Zinc Lozenges With Vitamin C; Zinc Lozenges With Vitamin C - Loz; Zinc Lozenges With Vitamin C Dietary Supplement; Zinc Lozenges With Vitamin C In A Nonmedicinal Base With Echinacea Lozenge; Zinc Plus Extra C; Zinc Plus Lozenges; Zinc Plus Vitamin B6 Tab; Zinc Tab 25mg Hvp Chelated; Zinc Tab 50mg Chelated; Zinc Tablets 25mg; Zinc With B-carotene Tab; Zinc With C - Loz; Zinc With C Lozenge; Zinc With C Lozenges; Zinc With Vitamin C Lozenge; Zinc With Vitamin C Lozenges; Zn

$$$$
