1620
  Mrv0541 02231215362D          

 18 19  0  0  1  0            999 V2000
    2.3645    1.6500    0.0000 N   0  0  0  0  0  0  0  0  0  0  0  0
    5.2224    0.0000    0.0000 N   0  0  0  0  0  0  0  0  0  0  0  0
    3.7935    0.0000    0.0000 C   0  0  0  0  0  0  0  0  0  0  0  0
    3.0791    0.4125    0.0000 C   0  0  0  0  0  0  0  0  0  0  0  0
    3.0791    1.2375    0.0000 C   0  0  0  0  0  0  0  0  0  0  0  0
    3.7935   -0.8250    0.0000 C   0  0  0  0  0  0  0  0  0  0  0  0
    4.5080    0.4125    0.0000 C   0  0  0  0  0  0  0  0  0  0  0  0
    4.5080   -1.2375    0.0000 C   0  0  0  0  0  0  0  0  0  0  0  0
    3.0791   -1.2375    0.0000 C   0  0  0  0  0  0  0  0  0  0  0  0
    4.5080    1.2375    0.0000 C   0  0  0  0  0  0  0  0  0  0  0  0
    2.3645    2.4751    0.0000 C   0  0  0  0  0  0  0  0  0  0  0  0
    1.6500    1.2375    0.0000 C   0  0  0  0  0  0  0  0  0  0  0  0
    4.5080   -2.0625    0.0000 C   0  0  0  0  0  0  0  0  0  0  0  0
    3.0791   -2.0625    0.0000 C   0  0  0  0  0  0  0  0  0  0  0  0
    5.2224    1.6500    0.0000 C   0  0  0  0  0  0  0  0  0  0  0  0
    3.7935   -2.4751    0.0000 C   0  0  0  0  0  0  0  0  0  0  0  0
    5.9370    0.4125    0.0000 C   0  0  0  0  0  0  0  0  0  0  0  0
    5.9370    1.2375    0.0000 C   0  0  0  0  0  0  0  0  0  0  0  0
  1  5  1  0  0  0  0
  1 11  1  0  0  0  0
  1 12  1  0  0  0  0
  2  7  1  0  0  0  0
  2 17  2  0  0  0  0
  3  4  1  0  0  0  0
  3  6  1  0  0  0  0
  3  7  1  0  0  0  0
  4  5  1  0  0  0  0
  6  8  2  0  0  0  0
  6  9  1  0  0  0  0
  7 10  2  0  0  0  0
  8 13  1  0  0  0  0
  9 14  2  0  0  0  0
 10 15  1  0  0  0  0
 13 16  2  0  0  0  0
 14 16  1  0  0  0  0
 15 18  2  0  0  0  0
 17 18  1  0  0  0  0
M  END
> <DATABASE_ID>
DB01620

> <DATABASE_NAME>
drugbank

> <SMILES>
CN(C)CCC(C1=CC=CC=C1)C1=CC=CC=N1

> <INCHI_IDENTIFIER>
InChI=1S/C16H20N2/c1-18(2)13-11-15(14-8-4-3-5-9-14)16-10-6-7-12-17-16/h3-10,12,15H,11,13H2,1-2H3

> <INCHI_KEY>
IJHNSHDBIRRJRN-UHFFFAOYSA-N

> <FORMULA>
C16H20N2

> <MOLECULAR_WEIGHT>
240.3434

> <EXACT_MASS>
240.16264865

> <JCHEM_ACCEPTOR_COUNT>
2

> <JCHEM_ATOM_COUNT>
38

> <JCHEM_AVERAGE_NEUTRAL_MICROSPECIES_CHARGE>
0.9974542765975958

> <JCHEM_AVERAGE_POLARIZABILITY>
28.409848442993223

> <JCHEM_BIOAVAILABILITY>
1

> <JCHEM_DONOR_COUNT>
0

> <JCHEM_FORMAL_CHARGE>
0

> <JCHEM_GHOSE_FILTER>
1

> <JCHEM_IUPAC>
dimethyl[3-phenyl-3-(pyridin-2-yl)propyl]amine

> <ALOGPS_LOGP>
2.85

> <JCHEM_LOGP>
2.9809062386666665

> <ALOGPS_LOGS>
-2.80

> <JCHEM_MDDR_LIKE_RULE>
0

> <JCHEM_NEUTRAL_CHARGE>
1

> <JCHEM_NUMBER_OF_RINGS>
2

> <JCHEM_PHYSIOLOGICAL_CHARGE>
1

> <JCHEM_PKA_STRONGEST_BASIC>
9.484963287532704

> <JCHEM_POLAR_SURFACE_AREA>
16.130000000000003

> <JCHEM_REFRACTIVITY>
76.04550000000002

> <JCHEM_ROTATABLE_BOND_COUNT>
5

> <JCHEM_RULE_OF_FIVE>
1

> <ALOGPS_SOLUBILITY>
3.77e-01 g/l

> <JCHEM_TRADITIONAL_IUPAC>
biotin

> <JCHEM_VEBER_RULE>
1

> <DRUGBANK_ID>
DB01620

> <DRUG_GROUPS>
approved

> <GENERIC_NAME>
Pheniramine

> <SYNONYMS>
Feniramina; Pheniramine; Pheniraminum

> <PRODUCTS>
Alahist D; Allergy Eye Drops; Antitussive Decong Antihistamine Syr; Bronchodex D Cap; Bronchodex Pediatrique; Bronchosirum Pour Enfants; CVS Pharmacy Cold and Sore Throat Lemon Flavor; Caldomine Dh Adulte; Caldomine Dh Enfant; Calmylin Ace; Care One Flu and Sore Throat; Centracol DM - Syr; Centracol Pediatrique - Syr; Citron Chaud Cumberland Pws; Citron Chaud DM Cumberland Pws; Citron Chaud DM Option + Pws; Citron Chaud Extra Fort; Citron Chaud RÃ©guliern DM; Cold & Flu; Cold & Flu Super Strength; Cold Decongestant Long Acting Cap; Cold Stix; Cold Stix - Hot Lemon, Sugar-free; Sweetened With Xylitol; Cold Stix Super Strength; Cold Stix-extra Strength; Cold Stix-regular Strength; Cold and Sore Throat; Colds & Coughs; Cough & Cold; Diopticon A Liq; Diorouge Liq; Dristan Mentholated Nasal Spray; Dristan Nasal Mist; Equaline Flu and Sore Throat; Equate Eye Allergy Relief Drops; Extra Strength Pharmacitron; Eye Allergy Relief; Flu and Sore Throat; Flu and Sore Throat Multi Symptom; Flu and Sore Throat Soothing Warm Relief; Flu-away-extra Strength; Flu-away-regular Strength; Good Neighbor Pharmacy Flu and Sore throat; Good Sense Flu and Sore Throat; Hot Lemon Cold & Sore Throat Night; Hot Lemon Cold and Flu Relief Extra Strength; Hot Lemon Cold and Flu Relief Regular Strength; Hot Lemon Cold and Flu Relief Super Strength; Hot Lemon Cough and Cold Relief DM; Hot Lemon Cough and Colds Relief DM; Hot Lemon Extra Strength; Hot Lemon Extra Strength Cold & Sinus Night; Hot Lemon Regular - Pwr; Hot Lemon Relief - Extra Strength; Hot Lemon Relief Extra Strength; Hot Lemon Relief Pck-pws; Hot Lemon Relief Powder; Hot Lemon Relief Powder Extra Strength; Hot Lemon Relief Powder Regular Strength; Hot Lemon Relief Regular Strength; Hot Lemon Relief for Cold Symptoms Ext Str; Hot Lemon Relief for Cold Symptoms Pws; Hot Lemon Relief for Symptoms Of Cold and Flu; Hot Lemon Relief for Symptoms Of Cold and Flu Extra Strength; Hot Lemon Relief for Symptoms Of Cold and Flu Forte; Hot Lemon Relief for Symptoms Of Cold and Flu Regular Strength; Hot Lemon Relief for Symptoms Of Cough and Cold; Hot Lemon Relief-extra Strength Pck-pws; Hot Lemon for Colds Powder; Hot Liquid Relief for Symptoms Of Cold and Cough; Hot Liquid Relief for Symptoms Of Flu and Sore Throat; Naphazoline HCI And Pheniramine Maleate; Naphazoline Hydrochloride and Pheniramine Maleate; Naphcon A; Neo Citran A Powder; Neo Citran Extra Strength; Neo Citran Nutrasweet; Neo Citran Powder; Neocitran Cold & Cough Night; Neocitran Cold & Sore Throat Night; Neocitran Extra Strength Cold & Sinus Night; Neocitran Extra Strength Cold & Sinus Night - Apple Cinnamon; NovexCold; Novexcold Extra Strength; Odan-vernacon; Opcon-A; Opti-tears Allergy; Pharmacitron; Pharmacol DM Syr; Pharminicol DM Syrup; Pulmorphan; Pulmorphan Pediatrique; Quality Choice Cold and Sore Throat Lemon Flavor; Reactine Eye Drops; Rhume Et De LA Grippe (extra-fort); Robitussin Ac; Robitussin Syrup With Codeine; Rx Act Flu and Sore Throat; Scot-Tussin Original Multi-Symptom Cold and Allergy Relief; Scot-Tussin Original SF Multi-Symptom; Soothe Allergy; Sore Throat & Cold Powder Night; Super Strength Sore Throat & Cold Powder; Tantacol DM Syr; TheraFlu Cold and Flu; Theraflu Cold and Sore Throat; Theraflu Flu and Sore Throat; Theraflu Nighttime Cold and Flu; Theraflu Sinus and Cold; Theraflu Sinus and Pain; Top Care Flu and Sore Throat; TopCare Cold and Sore Throat Lemon Flavor; Topcare Cold and Sore Throat Lemon Flavor; Triaminic Expectorant Dh Syrup; Triaminic Time Release Tab; Triaminicin Colds & Flu Caplets; Trisulfaminic Sus; Trisulfaminic Tab; Tussaminic C Forte Syrup; Tussaminic C Pediatric Syrup; Tussaminic Dh Forte Syrup; Tussaminic Dh Pediatric Syrup; Visine A Multi-Action Eye Allergy Relief; Visine Allergy Eye Relief Multi-Action; Visine for Allergy With Antihistamine; Wal Flu Flu and Sore Throat; Walgreens Wal-Flu Cold and Sore Throat Lemon Flavor

> <INTERNATIONAL_BRANDS>
AVIL

> <SALTS>
Pheniramine maleate

$$$$
