1621
  Mrv0541 02231215362D          

 32 35  0  0  0  0            999 V2000
    5.9361   -3.5410    0.0000 S   0  0  0  0  0  0  0  0  0  0  0  0
    8.8480   -1.8712    0.0000 S   0  0  0  0  0  0  0  0  0  0  0  0
    1.6498    3.0581    0.0000 O   0  0  0  0  0  0  0  0  0  0  0  0
    8.4328   -1.1584    0.0000 O   0  0  0  0  0  0  0  0  0  0  0  0
    9.2631   -2.5840    0.0000 O   0  0  0  0  0  0  0  0  0  0  0  0
    4.5073    0.5834    0.0000 N   0  0  0  0  0  0  0  0  0  0  0  0
    5.9361   -1.8912    0.0000 N   0  0  0  0  0  0  0  0  0  0  0  0
    9.5608   -1.4561    0.0000 N   0  0  0  0  0  0  0  0  0  0  0  0
    3.0786    1.4083    0.0000 C   0  0  0  0  0  0  0  0  0  0  0  0
    3.7929    1.8208    0.0000 C   0  0  0  0  0  0  0  0  0  0  0  0
    3.0786    0.5834    0.0000 C   0  0  0  0  0  0  0  0  0  0  0  0
    4.5073    1.4083    0.0000 C   0  0  0  0  0  0  0  0  0  0  0  0
    3.7929    0.1710    0.0000 C   0  0  0  0  0  0  0  0  0  0  0  0
    2.3641    1.8208    0.0000 C   0  0  0  0  0  0  0  0  0  0  0  0
    5.2216    0.1710    0.0000 C   0  0  0  0  0  0  0  0  0  0  0  0
    5.2216   -0.6539    0.0000 C   0  0  0  0  0  0  0  0  0  0  0  0
    2.3641    2.6456    0.0000 C   0  0  0  0  0  0  0  0  0  0  0  0
    5.9361   -1.0664    0.0000 C   0  0  0  0  0  0  0  0  0  0  0  0
    6.6504   -2.3037    0.0000 C   0  0  0  0  0  0  0  0  0  0  0  0
    5.2216   -2.3037    0.0000 C   0  0  0  0  0  0  0  0  0  0  0  0
    6.6504   -3.1286    0.0000 C   0  0  0  0  0  0  0  0  0  0  0  0
    5.2216   -3.1286    0.0000 C   0  0  0  0  0  0  0  0  0  0  0  0
    7.3878   -1.8626    0.0000 C   0  0  0  0  0  0  0  0  0  0  0  0
    8.1352   -2.2865    0.0000 C   0  0  0  0  0  0  0  0  0  0  0  0
    4.4843   -1.8626    0.0000 C   0  0  0  0  0  0  0  0  0  0  0  0
    7.3878   -3.5695    0.0000 C   0  0  0  0  0  0  0  0  0  0  0  0
    8.1352   -3.1457    0.0000 C   0  0  0  0  0  0  0  0  0  0  0  0
    4.4843   -3.5695    0.0000 C   0  0  0  0  0  0  0  0  0  0  0  0
    3.7368   -2.2865    0.0000 C   0  0  0  0  0  0  0  0  0  0  0  0
    3.7368   -3.1457    0.0000 C   0  0  0  0  0  0  0  0  0  0  0  0
   10.2767   -1.8657    0.0000 C   0  0  0  0  0  0  0  0  0  0  0  0
    9.5576   -0.6312    0.0000 C   0  0  0  0  0  0  0  0  0  0  0  0
  1 21  1  0  0  0  0
  1 22  1  0  0  0  0
  2  4  2  0  0  0  0
  2  5  2  0  0  0  0
  2  8  1  0  0  0  0
  2 24  1  0  0  0  0
  3 17  1  0  0  0  0
  6 12  1  0  0  0  0
  6 13  1  0  0  0  0
  6 15  1  0  0  0  0
  7 18  1  0  0  0  0
  7 19  1  0  0  0  0
  7 20  1  0  0  0  0
  8 31  1  0  0  0  0
  8 32  1  0  0  0  0
  9 10  1  0  0  0  0
  9 11  1  0  0  0  0
  9 14  1  0  0  0  0
 10 12  1  0  0  0  0
 11 13  1  0  0  0  0
 14 17  1  0  0  0  0
 15 16  1  0  0  0  0
 16 18  1  0  0  0  0
 19 21  2  0  0  0  0
 19 23  1  0  0  0  0
 20 22  1  0  0  0  0
 20 25  2  0  0  0  0
 21 26  1  0  0  0  0
 22 28  2  0  0  0  0
 23 24  2  0  0  0  0
 24 27  1  0  0  0  0
 25 29  1  0  0  0  0
 26 27  2  0  0  0  0
 28 30  1  0  0  0  0
 29 30  2  0  0  0  0
M  END
> <DATABASE_ID>
DB01621

> <DATABASE_NAME>
drugbank

> <SMILES>
CN(C)S(=O)(=O)C1=CC2=C(SC3=CC=CC=C3N2CCCN2CCC(CCO)CC2)C=C1

> <INCHI_IDENTIFIER>
InChI=1S/C24H33N3O3S2/c1-25(2)32(29,30)20-8-9-24-22(18-20)27(21-6-3-4-7-23(21)31-24)14-5-13-26-15-10-19(11-16-26)12-17-28/h3-4,6-9,18-19,28H,5,10-17H2,1-2H3

> <INCHI_KEY>
JOMHSQGEWSNUKU-UHFFFAOYSA-N

> <FORMULA>
C24H33N3O3S2

> <MOLECULAR_WEIGHT>
475.667

> <EXACT_MASS>
475.196333317

> <JCHEM_ACCEPTOR_COUNT>
5

> <JCHEM_ATOM_COUNT>
65

> <JCHEM_AVERAGE_NEUTRAL_MICROSPECIES_CHARGE>
0.9863077164374837

> <JCHEM_AVERAGE_POLARIZABILITY>
53.30208664380321

> <JCHEM_BIOAVAILABILITY>
1

> <JCHEM_DONOR_COUNT>
1

> <JCHEM_FORMAL_CHARGE>
0

> <JCHEM_GHOSE_FILTER>
0

> <JCHEM_IUPAC>
10-{3-[4-(2-hydroxyethyl)piperidin-1-yl]propyl}-N,N-dimethyl-10H-phenothiazine-2-sulfonamide

> <ALOGPS_LOGP>
3.94

> <JCHEM_LOGP>
3.1296137433333326

> <ALOGPS_LOGS>
-4.57

> <JCHEM_MDDR_LIKE_RULE>
1

> <JCHEM_NEUTRAL_CHARGE>
1

> <JCHEM_NUMBER_OF_RINGS>
4

> <JCHEM_PHYSIOLOGICAL_CHARGE>
1

> <JCHEM_PKA_STRONGEST_ACIDIC>
17.086569164709193

> <JCHEM_PKA_STRONGEST_BASIC>
8.857536507071535

> <JCHEM_POLAR_SURFACE_AREA>
64.09

> <JCHEM_REFRACTIVITY>
134.1231

> <JCHEM_ROTATABLE_BOND_COUNT>
7

> <JCHEM_RULE_OF_FIVE>
1

> <ALOGPS_SOLUBILITY>
1.27e-02 g/l

> <JCHEM_TRADITIONAL_IUPAC>
biotin

> <JCHEM_VEBER_RULE>
0

> <DRUGBANK_ID>
DB01621

> <DRUG_GROUPS>
approved; investigational

> <GENERIC_NAME>
Pipotiazine

> <SYNONYMS>
Piportil; Pipothiazine; Pipotiazina; Pipotiazine; Pipotiazinum

> <PRODUCTS>
Piportil L4

> <SALTS>
Pipotiazine palmitate

$$$$
