166
  Mrv0541 02241213022D          

 31 33  0  0  0  0            999 V2000
   -1.2632   -0.3390    0.0000 C   0  0  0  0  0  0  0  0  0  0  0  0
   -1.8033    0.2847    0.0000 C   0  0  0  0  0  0  0  0  0  0  0  0
   -2.6134    0.1288    0.0000 C   0  0  0  0  0  0  0  0  0  0  0  0
   -3.1535    0.7524    0.0000 C   0  0  0  0  0  0  0  0  0  0  0  0
   -3.9637    0.5965    0.0000 C   0  0  0  0  0  0  0  0  0  0  0  0
   -4.5038    1.2201    0.0000 N   0  0  0  0  0  0  0  0  0  0  0  0
   -4.2337   -0.1830    0.0000 N   0  0  0  0  0  0  0  0  0  0  0  0
   -0.7231    1.2201    0.0000 O   0  0  0  0  0  0  0  0  0  0  0  0
    0.6271    0.7524    0.0000 O   0  0  0  0  0  0  0  0  0  0  0  0
   -0.8601   -1.9311    0.0000 O   0  0  0  0  0  0  0  0  0  0  0  0
    0.0870   -0.8067    0.0000 C   0  0  1  0  0  0  0  0  0  0  0  0
    1.2299   -1.4963    0.0000 C   0  0  0  0  0  0  0  0  0  0  0  0
    0.9090   -0.7363    0.0000 C   0  0  0  0  0  0  0  0  0  0  0  0
   -0.1001   -1.6102    0.0000 C   0  0  2  0  0  0  0  0  0  0  0  0
    0.6063   -2.0364    0.0000 C   0  0  0  0  0  0  0  0  0  0  0  0
    1.4067   -0.0784    0.0000 C   0  0  0  0  0  0  0  0  0  0  0  0
    2.2254   -0.1804    0.0000 C   0  0  0  0  0  0  0  0  0  0  0  0
    2.5463   -0.9404    0.0000 C   0  0  0  0  0  0  0  0  0  0  0  0
    2.0486   -1.5984    0.0000 C   0  0  0  0  0  0  0  0  0  0  0  0
    2.7231    0.4775    0.0000 C   0  0  0  0  0  0  0  0  0  0  0  0
    2.4022    1.2375    0.0000 C   0  0  0  0  0  0  0  0  0  0  0  0
    2.8999    1.8955    0.0000 C   0  0  0  0  0  0  0  0  0  0  0  0
    3.7185    1.7934    0.0000 C   0  0  0  0  0  0  0  0  0  0  0  0
    4.0395    1.0334    0.0000 C   0  0  0  0  0  0  0  0  0  0  0  0
    3.5418    0.3755    0.0000 C   0  0  0  0  0  0  0  0  0  0  0  0
    4.2163    2.4514    0.0000 O   0  0  0  0  0  0  0  0  0  0  0  0
   -0.4531   -0.1830    0.0000 C   0  0  2  0  0  0  0  0  0  0  0  0
   -0.1830    0.5965    0.0000 C   0  0  0  0  0  0  0  0  0  0  0  0
    0.3068   -0.2657    0.0000 H   0  0  0  0  0  0  0  0  0  0  0  0
   -0.5467   -1.2340    0.0000 H   0  0  0  0  0  0  0  0  0  0  0  0
   -0.6442   -0.7348    0.0000 H   0  0  0  0  0  0  0  0  0  0  0  0
  1  2  1  0  0  0  0
  1 27  1  0  0  0  0
  2  3  1  0  0  0  0
  3  4  1  0  0  0  0
  4  5  1  0  0  0  0
  5  6  1  0  0  0  0
  5  7  2  0  0  0  0
  8 28  2  0  0  0  0
  9 28  1  0  0  0  0
 14 10  1  6  0  0  0
 11 13  1  0  0  0  0
 11 14  1  0  0  0  0
 11 27  1  1  0  0  0
 11 29  1  6  0  0  0
 12 13  2  0  0  0  0
 12 15  1  0  0  0  0
 12 19  1  0  0  0  0
 13 16  1  0  0  0  0
 14 15  1  0  0  0  0
 14 30  1  1  0  0  0
 16 17  2  0  0  0  0
 17 18  1  0  0  0  0
 17 20  1  0  0  0  0
 18 19  2  0  0  0  0
 20 21  2  0  0  0  0
 20 25  1  0  0  0  0
 21 22  1  0  0  0  0
 22 23  2  0  0  0  0
 23 24  1  0  0  0  0
 23 26  1  0  0  0  0
 24 25  2  0  0  0  0
 27 28  1  6  0  0  0
 27 31  1  6  0  0  0
M  END
> <DATABASE_ID>
DB06865

> <DATABASE_NAME>
drugbank

> <SMILES>
[H][C@](CCCCC(N)=N)(C(O)=O)[C@@]1([H])C2=C(C[C@]1([H])O)C=CC(=C2)C1=CC=C(O)C=C1

> <INCHI_IDENTIFIER>
InChI=1S/C22H26N2O4/c23-20(24)4-2-1-3-17(22(27)28)21-18-11-14(5-6-15(18)12-19(21)26)13-7-9-16(25)10-8-13/h5-11,17,19,21,25-26H,1-4,12H2,(H3,23,24)(H,27,28)/t17-,19+,21+/m1/s1

> <INCHI_KEY>
ZSRRBAKATXAISL-LMNJBCLMSA-N

> <FORMULA>
C22H26N2O4

> <MOLECULAR_WEIGHT>
382.4528

> <EXACT_MASS>
382.18925733

> <JCHEM_ACCEPTOR_COUNT>
6

> <JCHEM_ATOM_COUNT>
54

> <JCHEM_AVERAGE_NEUTRAL_MICROSPECIES_CHARGE>
0.0027475959725491187

> <JCHEM_AVERAGE_POLARIZABILITY>
42.39786055459609

> <JCHEM_BIOAVAILABILITY>
1

> <JCHEM_DONOR_COUNT>
5

> <JCHEM_FORMAL_CHARGE>
0

> <JCHEM_GHOSE_FILTER>
1

> <JCHEM_IUPAC>
(2R)-6-carbamimidoyl-2-[(1S,2S)-2-hydroxy-6-(4-hydroxyphenyl)-2,3-dihydro-1H-inden-1-yl]hexanoic acid

> <ALOGPS_LOGP>
2.12

> <JCHEM_LOGP>
1.0450280014097126

> <ALOGPS_LOGS>
-4.06

> <JCHEM_MDDR_LIKE_RULE>
1

> <JCHEM_NEUTRAL_CHARGE>
0

> <JCHEM_NUMBER_OF_RINGS>
3

> <JCHEM_PHYSIOLOGICAL_CHARGE>
0

> <JCHEM_PKA>
9.90309244211829

> <JCHEM_PKA_STRONGEST_ACIDIC>
4.222690516001636

> <JCHEM_PKA_STRONGEST_BASIC>
12.875129552509836

> <JCHEM_POLAR_SURFACE_AREA>
127.63000000000001

> <JCHEM_REFRACTIVITY>
117.524

> <JCHEM_ROTATABLE_BOND_COUNT>
8

> <JCHEM_RULE_OF_FIVE>
1

> <ALOGPS_SOLUBILITY>
3.32e-02 g/l

> <JCHEM_TRADITIONAL_IUPAC>
biotin

> <JCHEM_VEBER_RULE>
0

> <DRUGBANK_ID>
DB06865

> <DRUG_GROUPS>
experimental

> <GENERIC_NAME>
6-CARBAMIMIDOYL-2-[2-HYDROXY-6-(4-HYDROXY-PHENYL)-INDAN-1-YL]-HEXANOIC ACID

$$$$
