173
  Mrv0541 02231214292D          

 10 11  0  0  0  0            999 V2000
    3.8596    0.1235    0.0000 N   0  0  0  0  0  0  0  0  0  0  0  0
    3.8596   -1.2043    0.0000 N   0  0  0  0  0  0  0  0  0  0  0  0
    2.3645   -1.3654    0.0000 N   0  0  0  0  0  0  0  0  0  0  0  0
    1.6500   -0.1279    0.0000 N   0  0  0  0  0  0  0  0  0  0  0  0
    2.3645    1.1096    0.0000 N   0  0  0  0  0  0  0  0  0  0  0  0
    3.0790   -0.1279    0.0000 C   0  0  0  0  0  0  0  0  0  0  0  0
    3.0790   -0.9529    0.0000 C   0  0  0  0  0  0  0  0  0  0  0  0
    2.3645    0.2846    0.0000 C   0  0  0  0  0  0  0  0  0  0  0  0
    4.3411   -0.5404    0.0000 C   0  0  0  0  0  0  0  0  0  0  0  0
    1.6500   -0.9529    0.0000 C   0  0  0  0  0  0  0  0  0  0  0  0
  1  6  1  0  0  0  0
  1  9  1  0  0  0  0
  2  7  1  0  0  0  0
  2  9  2  0  0  0  0
  3  7  2  0  0  0  0
  3 10  1  0  0  0  0
  4  8  1  0  0  0  0
  4 10  2  0  0  0  0
  5  8  1  0  0  0  0
  6  7  1  0  0  0  0
  6  8  2  0  0  0  0
M  END
> <DATABASE_ID>
DB00173

> <DATABASE_NAME>
drugbank

> <SMILES>
NC1=C2NC=NC2=NC=N1

> <INCHI_IDENTIFIER>
InChI=1S/C5H5N5/c6-4-3-5(9-1-7-3)10-2-8-4/h1-2H,(H3,6,7,8,9,10)

> <INCHI_KEY>
GFFGJBXGBJISGV-UHFFFAOYSA-N

> <FORMULA>
C5H5N5

> <MOLECULAR_WEIGHT>
135.1267

> <EXACT_MASS>
135.054495185

> <JCHEM_ACCEPTOR_COUNT>
4

> <JCHEM_ATOM_COUNT>
15

> <JCHEM_AVERAGE_NEUTRAL_MICROSPECIES_CHARGE>
0.003668342970086882

> <JCHEM_AVERAGE_POLARIZABILITY>
12.291219062634639

> <JCHEM_BIOAVAILABILITY>
1

> <JCHEM_DONOR_COUNT>
2

> <JCHEM_FORMAL_CHARGE>
0

> <JCHEM_GHOSE_FILTER>
0

> <JCHEM_IUPAC>
7H-purin-6-amine

> <ALOGPS_LOGP>
-0.38

> <JCHEM_LOGP>
-0.5734702306666666

> <ALOGPS_LOGS>
-1.07

> <JCHEM_MDDR_LIKE_RULE>
0

> <JCHEM_NEUTRAL_CHARGE>
0

> <JCHEM_NUMBER_OF_RINGS>
2

> <JCHEM_PHYSIOLOGICAL_CHARGE>
0

> <JCHEM_PKA_STRONGEST_ACIDIC>
10.293436398909257

> <JCHEM_PKA_STRONGEST_BASIC>
3.6642393509726103

> <JCHEM_POLAR_SURFACE_AREA>
80.48

> <JCHEM_REFRACTIVITY>
38.2195

> <JCHEM_ROTATABLE_BOND_COUNT>
0

> <JCHEM_RULE_OF_FIVE>
1

> <ALOGPS_SOLUBILITY>
1.15e+01 g/l

> <JCHEM_TRADITIONAL_IUPAC>
tetrahydrofolic acid

> <JCHEM_VEBER_RULE>
0

> <DRUGBANK_ID>
DB00173

> <SECONDARY_ACCESSION_NUMBERS>
NUTR00012; EXPT00520

> <DRUG_GROUPS>
approved; nutraceutical

> <GENERIC_NAME>
Adenine

> <SYNONYMS>
6-Aminopurine; Adenin; Adenine; Vitamin B4

> <PRODUCTS>
ADSOL Red Cell Preservation Solution System in Plastic Container (PL 146 Plastic); Additive Formula 3; Additive Solution Formula 3 As-3; Additive Solution Sodium Adenine Glucose Mannitol (sagm); Adsol Red Cell Preservation; Anticoagulant Cit Phos Dex Adenine Sol USP; As 3; As-3; CPD/ADSOL Red Cell Preservation Solution System (PL 2209); CPDA-1 Blood Collection System; Cpd Adenine Cpda 1; Cpd/adsol; Cpda-1; Haemonetics Additive Solution Formula 3 (AS-3); IMUFLEX WB-RP Blood Bag System with Integral Whole Blood Leukocyte Reduction Filter (Removing Platelets) with Diversion Blood Sampling Arm Anticoagulant Citrate Phosphate Dextrose (CPD) AND OPTISOL (AS-5) Red Cell Preservative; IMUFLEX WB-SP Blood Bag System with Integral Whole Blood Leukocyte Reduction Filter (Saving Platelets) with Diversion Blood Sampling Arm Anticoagulant Citrate Phosphate Dextrose (CPD) and OPTISOL (AS-5) Red Cell Preservative; Leucoflex CGP; Leukotrap; Leukotrap - AS-3; Leukotrap - AS-3 Solution; Leukotrap WB System; Leukotrap WB System - AS3; MTL1 Leucoflex; Nutricel Additive Solution - AS-3; Rejuvesol; Sag-M; Sag-mannitol Solution; TERUFLEX Blood Bag System Anticoagulant Citrate Phosphate Dextrose (CPD) AND OPTISOL Red Cell Preservative; TERUFLEX Blood Bag System Anticoagulant Citrate Phosphate Dextrose Adenine (CPDA-1); TERUFLEX Blood Bag System with Blood Sampling Arm Anticoagulant Citrate Phosphate Dextrose (CPD) AND OPTISOL (AS-5) Red Cell Preservative; TERUFLEX Blood Bag System with Diversion Blood Sampling Arm Anticoagulant Citrate Phosphate Dextrose (CPD) AND OPTISOL (AS-5) Red Cell Preservative

> <INTERNATIONAL_BRANDS>
Leuco-4

> <SALTS>
Adenine hydrochloride; Adenine sulfate

$$$$
