186
  Mrv0541 02231215442D          

 32 33  0  0  0  0            999 V2000
   -1.3702    0.8056    0.0000 O   0  0  0  0  0  0  0  0  0  0  0  0
   -1.3702   -0.0194    0.0000 C   0  0  0  0  0  0  0  0  0  0  0  0
   -2.0847   -0.4319    0.0000 O   0  0  0  0  0  0  0  0  0  0  0  0
   -2.7991   -0.0194    0.0000 C   0  0  0  0  0  0  0  0  0  0  0  0
   -3.5136   -0.4319    0.0000 C   0  0  0  0  0  0  0  0  0  0  0  0
   -3.5136   -1.2569    0.0000 C   0  0  0  0  0  0  0  0  0  0  0  0
   -4.2281   -1.6694    0.0000 C   0  0  0  0  0  0  0  0  0  0  0  0
   -4.9426   -1.2569    0.0000 C   0  0  0  0  0  0  0  0  0  0  0  0
   -4.9426   -0.4319    0.0000 C   0  0  0  0  0  0  0  0  0  0  0  0
   -4.2281   -0.0194    0.0000 C   0  0  0  0  0  0  0  0  0  0  0  0
   -0.6557   -0.4319    0.0000 N   0  0  0  0  0  0  0  0  0  0  0  0
    0.0587   -0.0194    0.0000 C   0  0  2  0  0  0  0  0  0  0  0  0
    0.0587    0.8056    0.0000 C   0  0  0  0  0  0  0  0  0  0  0  0
    0.7732    1.2181    0.0000 C   0  0  0  0  0  0  0  0  0  0  0  0
    0.7732    2.0431    0.0000 C   0  0  0  0  0  0  0  0  0  0  0  0
    1.4877    2.4556    0.0000 C   0  0  0  0  0  0  0  0  0  0  0  0
    2.2021    2.0431    0.0000 C   0  0  0  0  0  0  0  0  0  0  0  0
    2.2021    1.2181    0.0000 C   0  0  0  0  0  0  0  0  0  0  0  0
    1.4877    0.8056    0.0000 C   0  0  0  0  0  0  0  0  0  0  0  0
    0.7732   -0.4319    0.0000 C   0  0  0  0  0  0  0  0  0  0  0  0
    0.7732   -1.2569    0.0000 O   0  0  0  0  0  0  0  0  0  0  0  0
    1.4877   -0.0194    0.0000 N   0  0  0  0  0  0  0  0  0  0  0  0
    2.2021   -0.4319    0.0000 C   0  0  1  0  0  0  0  0  0  0  0  0
    2.2021   -1.2569    0.0000 C   0  0  0  0  0  0  0  0  0  0  0  0
    2.9166   -0.0194    0.0000 C   0  0  0  0  0  0  0  0  0  0  0  0
    3.6311   -0.4319    0.0000 C   0  0  0  0  0  0  0  0  0  0  0  0
    4.3456   -0.0194    0.0000 C   0  0  0  0  0  0  0  0  0  0  0  0
    4.3456    0.8056    0.0000 O   0  0  0  0  0  0  0  0  0  0  0  0
    5.0600   -0.4319    0.0000 C   0  0  0  0  0  0  0  0  0  0  0  0
    5.7745   -0.0194    0.0000 O   0  0  0  0  0  0  0  0  0  0  0  0
   -0.4470    0.2726    0.0000 H   0  0  0  0  0  0  0  0  0  0  0  0
    1.6965   -0.7238    0.0000 H   0  0  0  0  0  0  0  0  0  0  0  0
  1  2  2  0  0  0  0
  2  3  1  0  0  0  0
  2 11  1  0  0  0  0
  3  4  1  0  0  0  0
  4  5  1  0  0  0  0
  5  6  2  0  0  0  0
  5 10  1  0  0  0  0
  6  7  1  0  0  0  0
  7  8  2  0  0  0  0
  8  9  1  0  0  0  0
  9 10  2  0  0  0  0
 12 11  1  6  0  0  0
 12 13  1  0  0  0  0
 12 20  1  0  0  0  0
 12 31  1  1  0  0  0
 13 14  1  0  0  0  0
 14 15  2  0  0  0  0
 14 19  1  0  0  0  0
 15 16  1  0  0  0  0
 16 17  2  0  0  0  0
 17 18  1  0  0  0  0
 18 19  2  0  0  0  0
 20 21  2  0  0  0  0
 20 22  1  0  0  0  0
 22 23  1  0  0  0  0
 23 24  1  6  0  0  0
 23 25  1  0  0  0  0
 23 32  1  1  0  0  0
 25 26  2  0  0  0  0
 26 27  1  0  0  0  0
 27 28  2  0  0  0  0
 27 29  1  0  0  0  0
 29 30  2  0  0  0  0
M  END
> <DATABASE_ID>
DB01810

> <DATABASE_NAME>
drugbank

> <SMILES>
[H][C@@](C)(NC(=O)[C@@]([H])(CC1=CC=CC=C1)NC(=O)OCC1=CC=CC=C1)\C=C\C(=O)C=O

> <INCHI_IDENTIFIER>
InChI=1S/C23H24N2O5/c1-17(12-13-20(27)15-26)24-22(28)21(14-18-8-4-2-5-9-18)25-23(29)30-16-19-10-6-3-7-11-19/h2-13,15,17,21H,14,16H2,1H3,(H,24,28)(H,25,29)/b13-12+/t17-,21+/m0/s1

> <INCHI_KEY>
NOXVWFAAXREWMI-GURWAVDKSA-N

> <FORMULA>
C23H24N2O5

> <MOLECULAR_WEIGHT>
408.4471

> <EXACT_MASS>
408.168521888

> <JCHEM_ACCEPTOR_COUNT>
4

> <JCHEM_ATOM_COUNT>
54

> <JCHEM_AVERAGE_NEUTRAL_MICROSPECIES_CHARGE>
-3.816451110413708e-07

> <JCHEM_AVERAGE_POLARIZABILITY>
42.64771798211567

> <JCHEM_BIOAVAILABILITY>
1

> <JCHEM_DONOR_COUNT>
2

> <JCHEM_FORMAL_CHARGE>
0

> <JCHEM_GHOSE_FILTER>
1

> <JCHEM_IUPAC>
benzyl N-[(1R)-1-{[(2S,3E)-5,6-dioxohex-3-en-2-yl]carbamoyl}-2-phenylethyl]carbamate

> <ALOGPS_LOGP>
2.49

> <JCHEM_LOGP>
3.650218784

> <ALOGPS_LOGS>
-5.38

> <JCHEM_MDDR_LIKE_RULE>
0

> <JCHEM_NEUTRAL_CHARGE>
0

> <JCHEM_NUMBER_OF_RINGS>
2

> <JCHEM_PHYSIOLOGICAL_CHARGE>
0

> <JCHEM_PKA>
14.999346707691664

> <JCHEM_PKA_STRONGEST_ACIDIC>
13.429877766585138

> <JCHEM_PKA_STRONGEST_BASIC>
-4.016880917373528

> <JCHEM_POLAR_SURFACE_AREA>
101.57

> <JCHEM_REFRACTIVITY>
112.81970000000001

> <JCHEM_ROTATABLE_BOND_COUNT>
11

> <JCHEM_RULE_OF_FIVE>
1

> <ALOGPS_SOLUBILITY>
1.70e-03 g/l

> <JCHEM_TRADITIONAL_IUPAC>
tetrahydrofolic acid

> <JCHEM_VEBER_RULE>
0

> <DRUGBANK_ID>
DB01810

> <SECONDARY_ACCESSION_NUMBERS>
EXPT00058

> <DRUG_GROUPS>
experimental

> <GENERIC_NAME>
[1-(1-Methyl-4,5-Dioxo-Pent-2-Enylcarbamoyl)-2-Phenyl-Ethyl]-Carbamic Acid Benzyl Ester

$$$$
