186
  Mrv1718010241721492D          

 21 23  0  0  1  0            999 V2000
    2.5467   -2.3783    0.0000 Cl  0  0  0  0  0  0  0  0  0  0  0  0
    3.6080   -1.4841    0.0000 Cl  0  0  0  0  0  0  0  0  0  0  0  0
    3.8811    2.3401    0.0000 O   0  0  0  0  0  0  0  0  0  0  0  0
    2.3403    2.3401    0.0000 O   0  0  0  0  0  0  0  0  0  0  0  0
    2.1838    0.9518    0.0000 N   0  0  0  0  0  0  0  0  0  0  0  0
    4.0375    0.9518    0.0000 N   0  0  0  0  0  0  0  0  0  0  0  0
    3.1106   -0.2105    0.0000 C   0  0  0  0  0  0  0  0  0  0  0  0
    3.8540    0.1475    0.0000 C   0  0  0  0  0  0  0  0  0  0  0  0
    2.3674    0.1475    0.0000 C   0  0  0  0  0  0  0  0  0  0  0  0
    4.4989   -0.3669    0.0000 C   0  0  0  0  0  0  0  0  0  0  0  0
    3.5231    1.5968    0.0000 C   0  0  0  0  0  0  0  0  0  0  0  0
    3.1881   -1.0663    0.0000 C   0  0  0  0  0  0  0  0  0  0  0  0
    2.6981    1.5968    0.0000 C   0  0  0  0  0  0  0  0  0  0  0  0
    1.6500   -0.3256    0.0000 C   0  0  0  0  0  0  0  0  0  0  0  0
    2.4818   -1.5559    0.0000 C   0  0  0  0  0  0  0  0  0  0  0  0
    1.7076   -1.1830    0.0000 C   0  0  0  0  0  0  0  0  0  0  0  0
    4.3760   -1.1827    0.0000 C   0  0  0  0  0  0  0  0  0  0  0  0
    5.2669   -0.0655    0.0000 C   0  0  0  0  0  0  0  0  0  0  0  0
    5.0210   -1.6971    0.0000 C   0  0  0  0  0  0  0  0  0  0  0  0
    5.9120   -0.5799    0.0000 C   0  0  0  0  0  0  0  0  0  0  0  0
    5.7890   -1.3956    0.0000 C   0  0  0  0  0  0  0  0  0  0  0  0
  1 15  1  0  0  0  0
  2 17  1  0  0  0  0
  3 11  1  0  0  0  0
  4 13  2  0  0  0  0
  5  9  1  0  0  0  0
  5 13  1  0  0  0  0
  6  8  2  0  0  0  0
  6 11  1  0  0  0  0
  7  8  1  0  0  0  0
  7  9  2  0  0  0  0
  7 12  1  0  0  0  0
  8 10  1  0  0  0  0
  9 14  1  0  0  0  0
 10 17  1  0  0  0  0
 10 18  2  0  0  0  0
 11 13  1  0  0  0  0
 12 15  2  0  0  0  0
 14 16  2  0  0  0  0
 15 16  1  0  0  0  0
 17 19  2  0  0  0  0
 18 20  1  0  0  0  0
 19 21  1  0  0  0  0
 20 21  2  0  0  0  0
M  END
> <DATABASE_ID>
DB00186

> <DATABASE_NAME>
drugbank

> <SMILES>
OC1N=C(C2=CC=CC=C2Cl)C2=C(NC1=O)C=CC(Cl)=C2

> <INCHI_IDENTIFIER>
InChI=1S/C15H10Cl2N2O2/c16-8-5-6-12-10(7-8)13(19-15(21)14(20)18-12)9-3-1-2-4-11(9)17/h1-7,15,21H,(H,18,20)

> <INCHI_KEY>
DIWRORZWFLOCLC-UHFFFAOYSA-N

> <FORMULA>
C15H10Cl2N2O2

> <MOLECULAR_WEIGHT>
321.158

> <EXACT_MASS>
320.011932988

> <JCHEM_ACCEPTOR_COUNT>
3

> <JCHEM_ATOM_COUNT>
31

> <JCHEM_AVERAGE_POLARIZABILITY>
30.334841156311175

> <JCHEM_BIOAVAILABILITY>
1

> <JCHEM_DONOR_COUNT>
2

> <JCHEM_FORMAL_CHARGE>
0

> <JCHEM_GHOSE_FILTER>
1

> <JCHEM_IUPAC>
7-chloro-5-(2-chlorophenyl)-3-hydroxy-2,3-dihydro-1H-1,4-benzodiazepin-2-one

> <ALOGPS_LOGP>
2.98

> <JCHEM_LOGP>
3.527325488

> <ALOGPS_LOGS>
-4.26

> <JCHEM_MDDR_LIKE_RULE>
0

> <JCHEM_NUMBER_OF_RINGS>
3

> <JCHEM_PHYSIOLOGICAL_CHARGE>
0

> <JCHEM_PKA>
12.461590649872107

> <JCHEM_PKA_STRONGEST_ACIDIC>
10.606301472079005

> <JCHEM_PKA_STRONGEST_BASIC>
-2.236353065972286

> <JCHEM_POLAR_SURFACE_AREA>
61.69

> <JCHEM_REFRACTIVITY>
82.6992

> <JCHEM_ROTATABLE_BOND_COUNT>
1

> <JCHEM_RULE_OF_FIVE>
1

> <ALOGPS_SOLUBILITY>
1.76e-02 g/l

> <JCHEM_TRADITIONAL_IUPAC>
lorazepam

> <JCHEM_VEBER_RULE>
0

> <DRUGBANK_ID>
DB00186

> <SECONDARY_ACCESSION_NUMBERS>
APRD00116

> <DRUG_GROUPS>
approved

> <GENERIC_NAME>
Lorazepam

> <SYNONYMS>
Loracepam; Lorazepam; o-Chlorooxazepam; o-Chloroxazepam

> <PRODUCTS>
Apo-lorazepam Tab 0.5mg; Apo-lorazepam Tab 1mg; Apo-lorazepam Tab 2mg; Ativan; Ativan Inj 4mg/ml; Ativan Injection Liq 4mg/ml; Ativan Subl Tab 0.5mg; Ativan Subl Tab 1mg; Ativan Tab 0.5mg; Ativan Tab 1mg; Ativan Tab 2mg; Dom-lorazepam; Lorazepam; Lorazepam Injection USP; Lorazepam Sublingual; Loreev XR; Ntp-lorazepam; Nu-loraz Tab 0.5mg; Nu-loraz Tab 1mg; Nu-loraz Tab 2mg; PHL-lorazepam; PMS-lorazepam; Pro-lorazepam; Riva-lorazepam 0.5 Mg Tablets; Riva-lorazepam 1 Mg Tablets; Riva-lorazepam 2mg Tablets; Teva-lorazepam

> <INTERNATIONAL_BRANDS>
Almazine; Anxiedin; Idalprem; Lorabenz; Lorsilan; Somagerol; Temesta; Wypax

$$$$
