201
  Mrv0541 02231214312D          

 14 15  0  0  0  0            999 V2000
    3.0791    1.6500    0.0000 O   0  0  0  0  0  0  0  0  0  0  0  0
    1.6500   -0.8250    0.0000 O   0  0  0  0  0  0  0  0  0  0  0  0
    3.0791   -0.8250    0.0000 N   0  0  0  0  0  0  0  0  0  0  0  0
    4.5741    0.6639    0.0000 N   0  0  0  0  0  0  0  0  0  0  0  0
    2.3645    0.4125    0.0000 N   0  0  0  0  0  0  0  0  0  0  0  0
    4.5741   -0.6639    0.0000 N   0  0  0  0  0  0  0  0  0  0  0  0
    3.7935    0.4125    0.0000 C   0  0  0  0  0  0  0  0  0  0  0  0
    3.7935   -0.4125    0.0000 C   0  0  0  0  0  0  0  0  0  0  0  0
    3.0791    0.8250    0.0000 C   0  0  0  0  0  0  0  0  0  0  0  0
    2.3645   -0.4125    0.0000 C   0  0  0  0  0  0  0  0  0  0  0  0
    5.0556    0.0000    0.0000 C   0  0  0  0  0  0  0  0  0  0  0  0
    3.0791   -1.6500    0.0000 C   0  0  0  0  0  0  0  0  0  0  0  0
    4.8305    1.4482    0.0000 C   0  0  0  0  0  0  0  0  0  0  0  0
    1.6500    0.8250    0.0000 C   0  0  0  0  0  0  0  0  0  0  0  0
  1  9  2  0  0  0  0
  2 10  2  0  0  0  0
  3  8  1  0  0  0  0
  3 10  1  0  0  0  0
  3 12  1  0  0  0  0
  4  7  1  0  0  0  0
  4 11  1  0  0  0  0
  4 13  1  0  0  0  0
  5  9  1  0  0  0  0
  5 10  1  0  0  0  0
  5 14  1  0  0  0  0
  6  8  1  0  0  0  0
  6 11  2  0  0  0  0
  7  8  2  0  0  0  0
  7  9  1  0  0  0  0
M  END
> <DATABASE_ID>
DB00201

> <DATABASE_NAME>
drugbank

> <SMILES>
CN1C=NC2=C1C(=O)N(C)C(=O)N2C

> <INCHI_IDENTIFIER>
InChI=1S/C8H10N4O2/c1-10-4-9-6-5(10)7(13)12(3)8(14)11(6)2/h4H,1-3H3

> <INCHI_KEY>
RYYVLZVUVIJVGH-UHFFFAOYSA-N

> <FORMULA>
C8H10N4O2

> <MOLECULAR_WEIGHT>
194.1906

> <EXACT_MASS>
194.080375584

> <JCHEM_ACCEPTOR_COUNT>
3

> <JCHEM_ATOM_COUNT>
24

> <JCHEM_AVERAGE_NEUTRAL_MICROSPECIES_CHARGE>
6.938589332763208e-09

> <JCHEM_AVERAGE_POLARIZABILITY>
18.9549309213843

> <JCHEM_BIOAVAILABILITY>
1

> <JCHEM_DONOR_COUNT>
0

> <JCHEM_FORMAL_CHARGE>
0

> <JCHEM_GHOSE_FILTER>
0

> <JCHEM_IUPAC>
1,3,7-trimethyl-2,3,6,7-tetrahydro-1H-purine-2,6-dione

> <ALOGPS_LOGP>
-0.24

> <JCHEM_LOGP>
-0.5456455916666669

> <ALOGPS_LOGS>
-1.25

> <JCHEM_MDDR_LIKE_RULE>
0

> <JCHEM_NEUTRAL_CHARGE>
0

> <JCHEM_NUMBER_OF_RINGS>
2

> <JCHEM_PHYSIOLOGICAL_CHARGE>
0

> <JCHEM_PKA_STRONGEST_BASIC>
-1.1587287861082745

> <JCHEM_POLAR_SURFACE_AREA>
58.440000000000005

> <JCHEM_REFRACTIVITY>
49.8312

> <JCHEM_ROTATABLE_BOND_COUNT>
0

> <JCHEM_RULE_OF_FIVE>
1

> <ALOGPS_SOLUBILITY>
1.10e+01 g/l

> <JCHEM_TRADITIONAL_IUPAC>
tetrahydrofolic acid

> <JCHEM_VEBER_RULE>
0

> <DRUGBANK_ID>
DB00201

> <SECONDARY_ACCESSION_NUMBERS>
APRD00673

> <DRUG_GROUPS>
approved

> <GENERIC_NAME>
Caffeine

> <SYNONYMS>
1-methyltheobromine; 1,3,7-trimethyl-2,6-dioxopurine; 1,3,7-trimethylpurine-2,6-dione; 1,3,7-trimethylxanthine; 3,7-Dihydro-1,3,7-trimethyl-1H-purin-2,6-dion; 7-methyltheophylline; Anhydrous caffeine; Cafeína; Caféine; Caffeine; Caffeinum; Coffein; Coffeinum; Guaranine; Koffein; Mateína; Methyltheobromine; Teína; Thein; Theine

> <PRODUCTS>
(extra Strength) Acetaminophen, Caffeine & 8mg Codeine Phosphate Caplets; 217; 217 Strong Tab; 222 Tablets; 282 Mep Tab; 282 Tab; 282 Tablets; 292 Tab; 292 Tablets; 357 Super Magnum; 4229 First Aid Kit; 4248 First Aid Kit; 4346 First Aid Kit; 692 Tab; 692 Tablet; 7 Select Migraine Formula; 999 GANMAOLING Cold; A & C Tablets With Codeine 15mg; A & C Tablets With Codeine 30mg; A.C. & C 8mg Tab; A.C. & C. 8 mg; A.C. & C. 8mg; A.C.& C Tablets; Ac and C Tab 1/8gr; Ac&c Tablets; Acet 2; Acet 3; Acetaminophen 250mg Aspirin 250mg Caffeine 65mg; Acetaminophen 300mg, Caffeine & Codeine; Acetaminophen 325 C & C; Acetaminophen 325 Mg Caffeine and Codeine; Acetaminophen 325 Mg With 15 Mg Caffeine and 8 Mg Codeine Phosphate; Acetaminophen 500 Mg Compound Tablets With Codeine; Acetaminophen 500 Mg With 15 Mg Caffeine and 8 Mg Codeine Phosphate; Acetaminophen 500mg Caffeine 60mg Pyrilamine maleate 15mg; Acetaminophen 500mg Caffeine 65mg; Acetaminophen 500mg and Caffeine 65mg; Acetaminophen 500mg, Caffeine and 8mg Codeine Phosphate; Acetaminophen Aspirin Caffeine; Acetaminophen Aspirin and Caffeine; Acetaminophen Caffeine & 8mg Cod Phos Tab; Acetaminophen Caffeine & 8mg Cod. Phos. Tab; Acetaminophen Compound Tablets With Codeine 8mg; Acetaminophen Headache Ultra Relief; Acetaminophen Relief Regular Strength; Acetaminophen Ultra Relief Extra Strength; Acetaminophen W Codeine Tab; Acetaminophen With Codeine - Caplet; Acetaminophen, Aspirin and Caffeine; Acetaminophen, Aspirin, Caffeine; Acetaminophen, Butalbital and Caffeine; Acetaminophen, Caffeine & 8mg Codeine Phosphate; Acetaminophen, Caffeine & 8mg Codeine Phosphate Tablets; Acetaminophen, Caffeine & Codeine; Acetaminophen, Caffeine & Codeine Tablets; Acetaminophen, Caffeine and 8 Mg Of Codeine Phosphate Tablets; Acetaminophen, Caffeine and Codeine Phosphate Tablets; Acetaminophen, Caffeine and Dihydrocodeine Bitartrate; Acetaminophen, Caffeine, Dihydrocodeine Bitartrate; Acetaminophen, Caffeine, and 8mg Of Codeine Phosphate Tablets; Acetaminophen,Caffeine and Pyrilamine Maleate; Acetaminophen-caffeine-codeine; Acetaminophene Codeine Et Cafeine Caplets; Acetaminophene Codeine Et Cafeine Fort; Acetylsalicylic Acid, Caffeine & 8 Mg Codeine Phosphate Tablets; Acetylsalicylic Acid, Caffeine and 8 Mg Codeine Phosphate; Ache and Pain Relief to Go; Added Strength Pain Reliever; Adults Acetaminophen and Caffeine Pain Reliever Fever Reducer; Advanced Pain Reliever; Alagesic LQ; Alert; Alert Aid; Alert Aid Caffeine Capsules 175mg; Alert Aid Caffeine Tablets 175mg; Alert Alertness Aid; Alert Tab 100mg; Alertness Aid; Alertness Aid Maximum Strength; Alertness Aid Stay Awake; Alka-Seltzer Hangover Relief; Alka-seltzer Morning Relief; Allertness Aid; Ana-dent; Anacin; Anacin AF; Anacin Caplets; Anacin ES; Anacin Extra Strength; Anacin Extra Strength Caplets; Anacin Extra Strength Tablet; Anacin Tablet; Anacin With Codeine Tab; Antidol Tablets; Apo-acetaco #1; Ara Menstrual Complete; Aramark Back Relief; Aramark Pain Free; Aramark Pain-Free Extra Strength; Arco Pain Tab; Arthriten Inflammatory Pain Formula; Arthriten Joint Pain Relief; Arthriten Max; Artrifin 24 Caplets; Asa and Caffeine; Asa, Caffeine & 8mg Codeine Phosphate; Asa-caffeine-codeine; Ascomp with Codeine; Aspirin Rapid Relief; Aspirin, Caffeine, and Dihydrocodeine Bitartrate; Atasol 15; Atasol 30; Atasol 8; Awake Maximum Strength; BC Arthritis; BC Cherry; Back and Body Extra Strength; BackAid Inflammatory Pain Formula; Backprin; Basic Care Headache Relief; Basic Care Migraine Relief; Bayer AM extra stength; Bayer Back and Body Extra Strength; Bayer Headache; Bayer Headache Relief; Bayer Migraine Formula; Bc; Bc Cherry; Bc Max; Berkley and Jensen Migraine Formula; Berkley and Jensen Migraine Relief; Best Choice Pain Relief Powder; Bi Electro Extra Strength; BioElectro Day; BioElectro Extra Strength Daytime Pain Relief; Blowfish; Buscapina; Butalbita,Acetaminophen and Caffeine; Butalbital Acetaminophen and Caffeine; Butalbital Compound; Butalbital, Acetaminophen and Caffeine; Butalbital, Acetaminophen and Caffeine Plus; Butalbital, Acetaminophen and Caffeine with Codeine Phosphate; Butalbital, Acetaminophen, Caffeine; Butalbital, Acetaminophen, Caffeine and Codeine Phosphate; Butalbital, Acetaminophen, Caffeine, and Codeine Phosphate; Butalbital, Acetaminophen, and Caffeine; Butalbital, Acetominophen and Caffeine; Butalbital, Aspirin and Caffeine; Butalbital, Aspirin, Caffeine and Codeine Phosphate; Butalbital, Aspirin, Caffeine, and Codeine Phosphate; Butalbital, Aspirin, and Caffeine; Butalbital, aspirin, and caffeine; C T Acetylsalicylic Acid Codeine and Caf Tab; C-2 Buffered With Codeine; C2 Buffered Tab; C2 Buffered With Codeine Tab; C2 Tab With Codeine; Cafcit; Cafergot; Cafergot Pb Sup; Cafergot Pb Tab; Cafergot Sup; Cafergot Tab; Caffeine; Caffeine 200 mg; Caffeine Citrate; Caffeine Citrate Injection USP; Caffeine Citrate Oral Solution; Caffeine Citrate Oral Solution USP; Caffeine Maximum Strength; Caffeine and Sodium Benzoate; Calmine Tab; Capacet; Care One headache relief added strength; Care One migraine relief; Careline Perfect Care BB; Careone Stay Awake; Caring Mill Migraine Relief; Circle K Headache Relief; Circle K Headache Relief Extra Strength; Circle K NoSnooze; Citramon; Cl Light; Cold Remedy Gan Mao Ling; Comfort-Time; Complete Menstrual Relief; ConRx Alert; ConRx pain Reliever; Corytab; Cotabs; Cove Migraine Relief; Crane Safety XS Pain Relief; DG Health migraine relief; Darvon N Compound Pulvule 405; Destim - Tab 200mg; Dg Health Headache Relief; Dg Health Headache Relief Added Strength; Dg Health Migraine Relief; Dihydrocodeine Bitartrate, Acetaminophen and Caffeine; Diurette Water Pills; Diurex Ultimate; Diurex Ultra; Diurex Water Pills; Diurex Water Pills XPL; Diurex WaterCaps; Dolex Fem; Dolex Forte; Dolgic Plus; Dollar General Headache Powders; Dolodol; Dolomine 37; Dristan Capsules; Drowz Away Maximum strength; Dvorah; EXCEDRIN MIGRAINE acetaminophen, aspirin (nsaid) and caffeine; EXCEDRIN Tension Headache; Elevate Hair Regrowth Foam; Emercidin D Tab; Emertabs Tab; Equaline Stay Awake; Equaline headache formula added strength; Equaline migraine formula; Equate Migraine Relief; Ercaf; Ergodryl Cap; Ergotamine; Ergotamine Tartrate and Caffeine; Ergotamine Tartrate, Caffeine; Esgic; Esgic-Plus; Exaprin; Excedrin; Excedrin Extra Strength; Excedrin Extra Strength Caplets; Excedrin Extra Strength Geltabs; Excedrin Extra Strength Pain Reliever; Excedrin Extra Strength and Excedrin Tension Headache; Excedrin Menstrual Complete; Excedrin Migraine; Excedrin Migraine Geltabs; Excedrin Mild Headache Caplets; Excedrin PM Triple Action Caplets and Excedrin Extra Strength Pain Reliever; Excedrin PM Triple Action Caplets and Excedrin Tension Headache; Excedrin Tension Headache; Excedrin Tension Headache Pain Reliever; Excinol Migraine (Acetaminophen); Exdol 15tab; Exdol 30tab; Exdol 8 Tab; Exdol-15; Exdol-30; Exdol-8; Extra Pain Relief; Extra Pain Relief Acetaminophen, Aspirin (NSAID) and Caffeine; Extra Pain Reliever; Extra Strenght Headache Relief; Extra Strength Back and Body; Extra Strength Contac Plus Cold Nasal Congestion; Extra Strength Headach Relief; Extra Strength Headache; Extra Strength Headache Relief; Extra Strength Headache, Circle K; Extra Strength Menstrual Complete; Extra Strength Midol; Extra Strength Midol Relief; Extra Strength Pain Aid; Extra Strength Pain Relief; Extra Strength Pain Reliever; Extra Strength Tylenol Total Cough, Cold & Flu; Extraprin; FLO PMS Complete; Fairfield Health Products Extra Strength; Family Wellness Migraine; Family Wellness Migraine Relief; Fioricet; Fioricet with Codeine; Fiorinal; Fiorinal Tab; Fiorinal with Codeine; Fiorinal-C 1/2; Fiorinal-C 1/4; First Aid Direct Backache and Muscle Relief; First Aid Shot Therapy Hangover Relief; First Aid Shot Therapy Pain Relief; First Aid Shot Therapy Pain relief; Formu Care pain reliever added strength; GOODYS Extra Strength Headache Mixed Fruit Blast; GOODYS Hangover; Ganmaoling 999; GenCare Headache Relief; Gencebok; Geworin; Good Neighbor Pharmacy Headache Relief; Good Neighbor Pharmacy Migraine Relief; Good Neighbor Pharmacy Stay Awake; Good Neighbor Pharmacy headache relief; Good Sense Headache Relief; Good Sense Migraine Formula; Good Sense Stay Awake; Good Sense headache formula added strength; Goodys; Goodys Cool Orange; Goodys Cool Orange Headache; Goodys Extra Strength; Goodys Headache Relief Shot; Goodys Migraine Relief; Goodys PM Pain Reliever; Gravergol Capsules; Green Guard Extra Strength Pain Relief; Green Guard Pain and Ache Relief; Handy Solutions Headache Pain Relief; Harris Teeter Migraine Relief; Headache Formula Added Strength; Headache Formula Extra Strength; Headache Pain Reliever; Headache Relief; Headache Relief Added Strength; Headache Relief Extra Strength; Headache Relief Mild; Headache Relief To Go; Headache Relief to Go; Headache relief Extra Strength; Headache, Circle K; Health Mart Migraine Formula; Health Mart Migraine Relief; Health Mart Stay Awake; Healthy Accents Stay Awake; Healthy Accents headache relief added strength; Healthy Accents migraine formula; Herbopyrine Tab 325mg; Instantine - Tablets; Instantine Tab; Isometheptene Mucate, Caffeine, Acetaminophen; Isometheptene Mucate, Caffeine, and Acetaminophen; JET ALERT Double Strength; JET ALERT Regular Strength; Kirkland Signature Migraine Headache Relief; Kirkland Signature Migraine Relief; Leader Alertness Aid; Leader Headache Formula Added Strength; Leader Migraine Relief; Leader migraine formula; Lil Drug Store Headache Relief Extra Strength; Lil Drug Store NoSnooz Maximum Strength; Lil Drug Store NoSnooze; MEDIQUE Back Pain Off; Madelon; Margesic; Maximum Strength Menstrual Complete; Medi First Pain Ache; Medi First Pain Relief; Medi First Plus Pain Ache; Medi First Plus Pain Zapper; Medique Pain Off; Megral Tabs; Menstrual Complete; Menstrual Complete Maximum Strength; Menstrual Complete Pain Relief; Menstrual Pain Relief; Menstrual Relief; Menstrual Relief Extra Strength; Menstrual Relief Maximum Strength; Midol; Midol Complete; Midol Complete Gelcaps; Midol Extra Strength Gelcaps; Midol Extra Strength Menstrual; Midol Multi-symptom Caplets Extra Strength; Midol Multi-symptom Gelcap Extra Strength; Midol One; Midol Regular; Migergot; MigraTen; Migraine Formula; Migraine Relief; Migrenol; Nano Ppc; Neo Tigol Tab; Nervine; Nervine Tab; New Hanbang Col Cap; NoDoz Alertness Aid; NoDoz Alertness Aid Maximum Strength; NoDoz MAXIMUM STRENGTH ALERTNESS AID; NoSnooze Circle K; Norgesic; Norgesic Forte; Norgesic Forte Tab; Norgesic Tab; Novo Ac and C 8mg Tab; Novo-gesic C15; Novo-gesic C30; Novo-gesic-C8; Novo-propoxyn Compound Cap; Nu-acetaco #1; Only For FIRST AID MEDICINE; Only For HEADACHE; Only for Headache; Oradrine 2 Tab; Oradrine Tablets; Orbivan; Orphenadrine Citrate Aspirin Caffeine; Orphenadrine Citrate, Aspirin and Caffeine; Orphengesic Forte; PANADOL Extra; PMS-pharnal Capsules; PMS-pharnal Tablets; PMS-pharnal-C 1/4 Capsules; PMS-pharnal-C1/2 Capsules; Pain Aid; Pain Aid ESF; Pain Away Plus; Pain Free; Pain Free Plus; Pain Relief Added Strength; Pain Relief Extra Strength; Pain Relief Maximum Strength; Pain Reliever; Pain Reliever 2; Pain Reliever Added Strength; Pain Reliever Extra Strength; Pain Reliever Plus; Pain Stopper Extra; Pain Stoppers; Pain Stoppers EX; Pain Stoppers Extra; Pain Stoppers Regular; Painex Tab 0.25gr; Painex Tab 0.5gr; Pamprin Max Menstrual Pain Relief; Pancold S; Panlor; Panlor SS; Penzal Q; Pep-Back Peak Performance; Pep-Back Ultra; Peyona; Phenfree Caffeine 100mg Capsules; Phrenilin; Phrenilin Forte; Physicians Care Extra Strength Pain Reliever; PhysiciansCare Extra Stregth Pain Reliever; Powerbooster Mild; Powerbooster Original; Powerbooster original; Prodrin; Pronal - C1/2 Capsules; Pronal C1/4 Capsules; Pronal Capsules; Pronal Tablets; Quality Choice Pain Relief Powder; Re-action E; Reese Headache Powders; Regular Strength Aspirin; Ru-21 Hangover Relief; Rx Act headache formula added strength; SMITH BROS WILD CHERRY DAY TIME with Caffeine Soothing Drops; Saridon - A; Scot-Tussin Original SF Multi-Symptom; Sed-max; Sedal3x; Sedalmex; Sedalmex Pain Reliever; Seedalmerk; ShopRite Migraine Formula; Signature Care Migraine Relief; Sinugex 38; Smart Sense Migraine Formula; Smart Sense Stay Awake; Smart Sense migraine relief; SohMed Alertness Aid; SohMed Pain Reliever; Sound Body Migraine Relief; Spirit (chewable Squares); Splizz Pain Reliever - Grapefruit-flavored; Splizz Pain Reliever - Orange-flavored; Stanback; Stay Alert Aid; Stay Alert Alertness Aid; Stay Awake; Stay Awake Maximum Strength; Stay Awake Maximum strength; Sugarloaf Spring Caffeine, Caffeinated Spring Water; Sunmark Headache Relief; Sunmark Migraine Relief; Sunmark Tension Headache; Sunmark migraine relief; Sunmark stay awake; Synalgos; Tamicode Tablets; Teen Midol Complete; Teen Pms Relief Complete Caplets; Tension Headache; Tension Headache Aspirin Free; Tension Headache Aspirin-Free; Tension Headache Relief; Tension Headache Relief Aspirin Free; Teva-lenoltec No. 1; Teva-lenoltec No. 2; Teva-lenoltec No. 3; Teva-tecnal; Teva-tecnal C 1/2; Teva-tecnal C 1/4; Texaclear Pain Reliever; Thompson XS Pain Ache; Thrulife Extra Strength Headache Relief; Topcare Headache Formula; Topcare Headache Relief; Topcare Migraine Formula; Topcare Migraine Relief; Topcare Pain Reliever Simple Relief; Topcare Stay Awake Maximum Strength; Topcare stay awake maximum strength; Trezix; Triaminicin Colds & Flu Caplets; Trianal Capsules; Trianal C¼; Trianal C½; Trianal Tablet; Triatec Fort/strong Ultra Efficace/ultra Relief; Triatec-8; Triatec-8 Fort; Truemed Group LLC; Tylenol Advanced Headache; Tylenol No 1 Tab; Tylenol No.1 Caplets; Tylenol No.1 Forte Caplets; Tylenol No1 Forte Tablets With Codeine; Tylenol Ultra Relief; Tylenol W Codeine No2 Tab; Tylenol W Codeine No3 Tab; Tylenol With Codeine No. 2 - Tab; Tylenol With Codeine No. 3 - Tab; Tylo Migraine (Acetaminophen); Ultra Headache Relief; Unishield Back Pain Off; Unishield Pain Ache; Unishield Pain Zapper; Up and Up Migraine Relief; Uricalm Intensive; Valumeds Maximum Strength Stay Awake; Vanapain; Vanatol LQ; Vanatol S; Vanquish; Vanquish Digital Headache; Vivarin; Vtol LQ; Walgreens Pain Relief Powder; Wampole-acetaminophen/codeine/caffeine; Wigraine Suppositories; Wigraine Tab; Xpect Pain Away; Zebutal; Zee Painaid Back Relief Formula; dihydrocodeine bitartrate and aspirin and caffeine DC; jet-Alert Maximum Strength Alertness Aid; pain relief back and body EXTRA STRENGTH

> <INTERNATIONAL_BRANDS>
Caffedrine; Dexitac; Durvitan; Enerjets; No-Doz; Pep-Back; Quick Pep; Wake-Up

> <SALTS>
Caffeine citrate

$$$$
