219090
  Mrv0541 02241212492D          

 41 44  0  0  1  0            999 V2000
    8.5947   -3.9756    0.0000 P   0  0  0  0  0  0  0  0  0  0  0  0
    3.0790   -2.2299    0.0000 F   0  0  0  0  0  0  0  0  0  0  0  0
    1.6500    1.0702    0.0000 F   0  0  0  0  0  0  0  0  0  0  0  0
    2.7770    0.7682    0.0000 F   0  0  0  0  0  0  0  0  0  0  0  0
    1.9520    2.1972    0.0000 F   0  0  0  0  0  0  0  0  0  0  0  0
    3.7935    4.7828    0.0000 F   0  0  0  0  0  0  0  0  0  0  0  0
    4.6185    3.9578    0.0000 F   0  0  0  0  0  0  0  0  0  0  0  0
    2.9685    3.9578    0.0000 F   0  0  0  0  0  0  0  0  0  0  0  0
    6.6515    0.6577    0.0000 O   0  0  0  0  0  0  0  0  0  0  0  0
    5.2224    0.6577    0.0000 O   0  0  0  0  0  0  0  0  0  0  0  0
    9.4922   -2.4212    0.0000 O   0  0  0  0  0  0  0  0  0  0  0  0
    8.9303   -4.7293    0.0000 O   0  0  0  0  0  0  0  0  0  0  0  0
    9.3484   -3.6401    0.0000 O   0  0  0  0  0  0  0  0  0  0  0  0
    7.8411   -4.3112    0.0000 O   0  0  0  0  0  0  0  0  0  0  0  0
    6.6515   -0.9923    0.0000 N   0  0  0  0  0  0  0  0  0  0  0  0
    7.4521   -3.0504    0.0000 N   0  0  0  0  0  0  0  0  0  0  0  0
    8.1197   -1.8943    0.0000 N   0  0  0  0  0  0  0  0  0  0  0  0
    8.2592   -3.2219    0.0000 N   0  0  0  0  0  0  0  0  0  0  0  0
    5.9370   -0.5798    0.0000 C   0  0  2  0  0  0  0  0  0  0  0  0
    5.9370    0.2452    0.0000 C   0  0  2  0  0  0  0  0  0  0  0  0
    7.3659   -0.5798    0.0000 C   0  0  0  0  0  0  0  0  0  0  0  0
    7.3659    0.2452    0.0000 C   0  0  0  0  0  0  0  0  0  0  0  0
    6.6515   -1.8173    0.0000 C   0  0  0  0  0  0  0  0  0  0  0  0
    5.2224   -0.9923    0.0000 C   0  0  0  0  0  0  0  0  0  0  0  0
    5.2224    1.4827    0.0000 C   0  0  1  0  0  0  0  0  0  0  0  0
    7.3659   -2.2299    0.0000 C   0  0  0  0  0  0  0  0  0  0  0  0
    4.5080   -0.5798    0.0000 C   0  0  0  0  0  0  0  0  0  0  0  0
    5.2224   -1.8173    0.0000 C   0  0  0  0  0  0  0  0  0  0  0  0
    4.5080    1.8952    0.0000 C   0  0  0  0  0  0  0  0  0  0  0  0
    5.9370    1.8952    0.0000 C   0  0  0  0  0  0  0  0  0  0  0  0
    3.7935   -0.9923    0.0000 C   0  0  0  0  0  0  0  0  0  0  0  0
    4.5080   -2.2299    0.0000 C   0  0  0  0  0  0  0  0  0  0  0  0
    4.5080    2.7202    0.0000 C   0  0  0  0  0  0  0  0  0  0  0  0
    3.7935    1.4827    0.0000 C   0  0  0  0  0  0  0  0  0  0  0  0
    3.7935   -1.8173    0.0000 C   0  0  0  0  0  0  0  0  0  0  0  0
    8.6717   -2.5074    0.0000 C   0  0  0  0  0  0  0  0  0  0  0  0
    3.7935    3.1328    0.0000 C   0  0  0  0  0  0  0  0  0  0  0  0
    3.0790    1.8952    0.0000 C   0  0  0  0  0  0  0  0  0  0  0  0
    3.0790    2.7202    0.0000 C   0  0  0  0  0  0  0  0  0  0  0  0
    2.3645    1.4827    0.0000 C   0  0  0  0  0  0  0  0  0  0  0  0
    3.7935    3.9578    0.0000 C   0  0  0  0  0  0  0  0  0  0  0  0
  1 12  1  0  0  0  0
  1 13  1  0  0  0  0
  1 14  2  0  0  0  0
  1 18  1  0  0  0  0
  2 35  1  0  0  0  0
  3 40  1  0  0  0  0
  4 40  1  0  0  0  0
  5 40  1  0  0  0  0
  6 41  1  0  0  0  0
  7 41  1  0  0  0  0
  8 41  1  0  0  0  0
  9 20  1  0  0  0  0
  9 22  1  0  0  0  0
 20 10  1  1  0  0  0
 25 10  1  1  0  0  0
 11 36  2  0  0  0  0
 15 19  1  0  0  0  0
 15 21  1  0  0  0  0
 15 23  1  0  0  0  0
 16 18  1  0  0  0  0
 16 26  1  0  0  0  0
 17 26  2  0  0  0  0
 17 36  1  0  0  0  0
 18 36  1  0  0  0  0
 19 20  1  0  0  0  0
 19 24  1  1  0  0  0
 21 22  1  0  0  0  0
 23 26  1  0  0  0  0
 24 27  2  0  0  0  0
 24 28  1  0  0  0  0
 25 29  1  0  0  0  0
 25 30  1  0  0  0  0
 27 31  1  0  0  0  0
 28 32  2  0  0  0  0
 29 33  2  0  0  0  0
 29 34  1  0  0  0  0
 31 35  2  0  0  0  0
 32 35  1  0  0  0  0
 33 37  1  0  0  0  0
 34 38  2  0  0  0  0
 37 39  2  0  0  0  0
 37 41  1  0  0  0  0
 38 39  1  0  0  0  0
 38 40  1  0  0  0  0
M  END
> <DATABASE_ID>
DB06717

> <DATABASE_NAME>
drugbank

> <SMILES>
C[C@@H](O[C@H]1OCCN(CC2=NC(=O)N(N2)P(O)(O)=O)[C@H]1C1=CC=C(F)C=C1)C1=CC(=CC(=C1)C(F)(F)F)C(F)(F)F

> <INCHI_IDENTIFIER>
InChI=1S/C23H22F7N4O6P/c1-12(14-8-15(22(25,26)27)10-16(9-14)23(28,29)30)40-20-19(13-2-4-17(24)5-3-13)33(6-7-39-20)11-18-31-21(35)34(32-18)41(36,37)38/h2-5,8-10,12,19-20H,6-7,11H2,1H3,(H,31,32,35)(H2,36,37,38)/t12-,19+,20-/m1/s1

> <INCHI_KEY>
BARDROPHSZEBKC-OITMNORJSA-N

> <FORMULA>
C23H22F7N4O6P

> <MOLECULAR_WEIGHT>
614.4066

> <EXACT_MASS>
614.116518403

> <JCHEM_ACCEPTOR_COUNT>
9

> <JCHEM_ATOM_COUNT>
63

> <JCHEM_AVERAGE_NEUTRAL_MICROSPECIES_CHARGE>
-1.99080729647566

> <JCHEM_AVERAGE_POLARIZABILITY>
49.921103919661995

> <JCHEM_BIOAVAILABILITY>
1

> <JCHEM_DONOR_COUNT>
3

> <JCHEM_FORMAL_CHARGE>
0

> <JCHEM_GHOSE_FILTER>
0

> <JCHEM_IUPAC>
(3-{[(2R,3S)-2-[(1R)-1-[3,5-bis(trifluoromethyl)phenyl]ethoxy]-3-(4-fluorophenyl)morpholin-4-yl]methyl}-5-oxo-2,5-dihydro-1H-1,2,4-triazol-1-yl)phosphonic acid

> <ALOGPS_LOGP>
2.89

> <JCHEM_LOGP>
2.4650714059338186

> <ALOGPS_LOGS>
-4.99

> <JCHEM_MDDR_LIKE_RULE>
1

> <JCHEM_NEUTRAL_CHARGE>
-2

> <JCHEM_NUMBER_OF_RINGS>
4

> <JCHEM_PHYSIOLOGICAL_CHARGE>
-2

> <JCHEM_PKA>
3.0491480624728773

> <JCHEM_PKA_STRONGEST_ACIDIC>
1.0519781263121721

> <JCHEM_PKA_STRONGEST_BASIC>
4.002562992726108

> <JCHEM_POLAR_SURFACE_AREA>
123.92999999999999

> <JCHEM_REFRACTIVITY>
138.63040000000004

> <JCHEM_ROTATABLE_BOND_COUNT>
9

> <JCHEM_RULE_OF_FIVE>
0

> <ALOGPS_SOLUBILITY>
6.32e-03 g/l

> <JCHEM_TRADITIONAL_IUPAC>
biotin

> <JCHEM_VEBER_RULE>
0

> <DRUGBANK_ID>
DB06717

> <DRUG_GROUPS>
approved

> <GENERIC_NAME>
Fosaprepitant

> <SYNONYMS>
FosaprÃ©pitant; Fosaprepitant; Fosaprepitantum

> <PRODUCTS>
Emend; Emend IV; Fosaprepitant; Fosaprepitant Dimeglumine; Ivemend; Truemed Group LLC

> <SALTS>
Fosaprepitant dimeglumine

$$$$
