243
  Mrv0541 02231214322D          

 31 33  0  0  1  0            999 V2000
    5.9370    2.0625    0.0000 O   0  0  0  0  0  0  0  0  0  0  0  0
    7.3659    2.8876    0.0000 O   0  0  0  0  0  0  0  0  0  0  0  0
    4.5080   -2.0625    0.0000 O   0  0  0  0  0  0  0  0  0  0  0  0
    8.7949    2.0625    0.0000 O   0  0  0  0  0  0  0  0  0  0  0  0
    5.9370    0.4125    0.0000 N   0  0  0  0  0  0  0  0  0  0  0  0
    4.5080   -0.4125    0.0000 N   0  0  0  0  0  0  0  0  0  0  0  0
    3.0791   -2.0625    0.0000 N   0  0  0  0  0  0  0  0  0  0  0  0
    5.9370   -0.4125    0.0000 C   0  0  0  0  0  0  0  0  0  0  0  0
    5.2224    0.8250    0.0000 C   0  0  0  0  0  0  0  0  0  0  0  0
    5.2224   -0.8250    0.0000 C   0  0  0  0  0  0  0  0  0  0  0  0
    4.5080    0.4125    0.0000 C   0  0  0  0  0  0  0  0  0  0  0  0
    6.6515    0.8250    0.0000 C   0  0  0  0  0  0  0  0  0  0  0  0
    3.7935   -0.8250    0.0000 C   0  0  0  0  0  0  0  0  0  0  0  0
    6.6515    1.6500    0.0000 C   0  0  0  0  0  0  0  0  0  0  0  0
    7.3659    2.0625    0.0000 C   0  0  0  0  0  0  0  0  0  0  0  0
    3.7935   -1.6500    0.0000 C   0  0  0  0  0  0  0  0  0  0  0  0
    3.0791   -2.8876    0.0000 C   0  0  0  0  0  0  0  0  0  0  0  0
    8.0804    3.3001    0.0000 C   0  0  0  0  0  0  0  0  0  0  0  0
    3.7935   -3.3001    0.0000 C   0  0  0  0  0  0  0  0  0  0  0  0
    2.3645   -3.3001    0.0000 C   0  0  0  0  0  0  0  0  0  0  0  0
    3.7935   -4.1251    0.0000 C   0  0  0  0  0  0  0  0  0  0  0  0
    2.3645   -4.1251    0.0000 C   0  0  0  0  0  0  0  0  0  0  0  0
    8.7949    2.8876    0.0000 C   0  0  0  0  0  0  0  0  0  0  0  0
    4.5080   -2.8876    0.0000 C   0  0  0  0  0  0  0  0  0  0  0  0
    1.6500   -2.8876    0.0000 C   0  0  0  0  0  0  0  0  0  0  0  0
    8.0804    4.1251    0.0000 C   0  0  0  0  0  0  0  0  0  0  0  0
    3.0791   -4.5376    0.0000 C   0  0  0  0  0  0  0  0  0  0  0  0
    9.5094    3.3001    0.0000 C   0  0  0  0  0  0  0  0  0  0  0  0
    8.7949    4.5376    0.0000 C   0  0  0  0  0  0  0  0  0  0  0  0
    9.5094    4.1251    0.0000 C   0  0  0  0  0  0  0  0  0  0  0  0
    9.5094    1.6500    0.0000 C   0  0  0  0  0  0  0  0  0  0  0  0
  1 14  1  0  0  0  0
  2 15  1  0  0  0  0
  2 18  1  0  0  0  0
  3 16  2  0  0  0  0
  4 23  1  0  0  0  0
  4 31  1  0  0  0  0
  5  8  1  0  0  0  0
  5  9  1  0  0  0  0
  5 12  1  0  0  0  0
  6 10  1  0  0  0  0
  6 11  1  0  0  0  0
  6 13  1  0  0  0  0
  7 16  1  0  0  0  0
  7 17  1  0  0  0  0
  8 10  1  0  0  0  0
  9 11  1  0  0  0  0
 12 14  1  0  0  0  0
 13 16  1  0  0  0  0
 14 15  1  0  0  0  0
 17 19  2  0  0  0  0
 17 20  1  0  0  0  0
 18 23  1  0  0  0  0
 18 26  2  0  0  0  0
 19 21  1  0  0  0  0
 19 24  1  0  0  0  0
 20 22  2  0  0  0  0
 20 25  1  0  0  0  0
 21 27  2  0  0  0  0
 22 27  1  0  0  0  0
 23 28  2  0  0  0  0
 26 29  1  0  0  0  0
 28 30  1  0  0  0  0
 29 30  2  0  0  0  0
M  END
> <DATABASE_ID>
DB00243

> <DATABASE_NAME>
drugbank

> <SMILES>
COC1=CC=CC=C1OCC(O)CN1CCN(CC(=O)NC2=C(C)C=CC=C2C)CC1

> <INCHI_IDENTIFIER>
InChI=1S/C24H33N3O4/c1-18-7-6-8-19(2)24(18)25-23(29)16-27-13-11-26(12-14-27)15-20(28)17-31-22-10-5-4-9-21(22)30-3/h4-10,20,28H,11-17H2,1-3H3,(H,25,29)

> <INCHI_KEY>
XKLMZUWKNUAPSZ-UHFFFAOYSA-N

> <FORMULA>
C24H33N3O4

> <MOLECULAR_WEIGHT>
427.5365

> <EXACT_MASS>
427.247106559

> <JCHEM_ACCEPTOR_COUNT>
6

> <JCHEM_ATOM_COUNT>
64

> <JCHEM_AVERAGE_NEUTRAL_MICROSPECIES_CHARGE>
0.350177573140099

> <JCHEM_AVERAGE_POLARIZABILITY>
47.218140247643774

> <JCHEM_BIOAVAILABILITY>
1

> <JCHEM_DONOR_COUNT>
2

> <JCHEM_FORMAL_CHARGE>
0

> <JCHEM_GHOSE_FILTER>
1

> <JCHEM_IUPAC>
N-(2,6-dimethylphenyl)-2-{4-[2-hydroxy-3-(2-methoxyphenoxy)propyl]piperazin-1-yl}acetamide

> <ALOGPS_LOGP>
2.08

> <JCHEM_LOGP>
2.832460428666666

> <ALOGPS_LOGS>
-3.59

> <JCHEM_MDDR_LIKE_RULE>
1

> <JCHEM_NEUTRAL_CHARGE>
1

> <JCHEM_NUMBER_OF_RINGS>
3

> <JCHEM_PHYSIOLOGICAL_CHARGE>
0

> <JCHEM_PKA>
14.254037801185007

> <JCHEM_PKA_STRONGEST_ACIDIC>
13.600030093035787

> <JCHEM_PKA_STRONGEST_BASIC>
6.765347301557836

> <JCHEM_POLAR_SURFACE_AREA>
74.27000000000001

> <JCHEM_REFRACTIVITY>
123.46040000000002

> <JCHEM_ROTATABLE_BOND_COUNT>
9

> <JCHEM_RULE_OF_FIVE>
1

> <ALOGPS_SOLUBILITY>
1.10e-01 g/l

> <JCHEM_TRADITIONAL_IUPAC>
tetrahydrofolic acid

> <JCHEM_VEBER_RULE>
0

> <DRUGBANK_ID>
DB00243

> <SECONDARY_ACCESSION_NUMBERS>
APRD01300

> <DRUG_GROUPS>
approved; investigational

> <GENERIC_NAME>
Ranolazine

> <SYNONYMS>
Ranolazina; Ranolazine

> <PRODUCTS>
Aspruzyo Sprinkle; Corzyna; Ranexa; Ranolazine

> <SALTS>
Ranolazine hydrochloride

$$$$
