246
  Mrv0541 02231214322D          

 28 32  0  0  0  0            999 V2000
    5.8073    3.0921    0.0000 Cl  0  0  0  0  0  0  0  0  0  0  0  0
    1.6500   -1.3068    0.0000 S   0  0  0  0  0  0  0  0  0  0  0  0
   10.0379    2.2671    0.0000 O   0  0  0  0  0  0  0  0  0  0  0  0
    5.0928    0.2045    0.0000 N   0  0  0  0  0  0  0  0  0  0  0  0
    3.6638   -0.6205    0.0000 N   0  0  0  0  0  0  0  0  0  0  0  0
    2.2004   -0.6988    0.0000 N   0  0  0  0  0  0  0  0  0  0  0  0
    8.7314    2.9310    0.0000 N   0  0  0  0  0  0  0  0  0  0  0  0
    5.0928   -0.6205    0.0000 C   0  0  0  0  0  0  0  0  0  0  0  0
    4.3783    0.6170    0.0000 C   0  0  0  0  0  0  0  0  0  0  0  0
    4.3783   -1.0330    0.0000 C   0  0  0  0  0  0  0  0  0  0  0  0
    3.6638    0.2045    0.0000 C   0  0  0  0  0  0  0  0  0  0  0  0
    5.8073    0.6170    0.0000 C   0  0  0  0  0  0  0  0  0  0  0  0
    5.8073    1.4420    0.0000 C   0  0  0  0  0  0  0  0  0  0  0  0
    2.9494   -1.0330    0.0000 C   0  0  0  0  0  0  0  0  0  0  0  0
    6.5218    1.8546    0.0000 C   0  0  0  0  0  0  0  0  0  0  0  0
    2.8643   -1.8488    0.0000 C   0  0  0  0  0  0  0  0  0  0  0  0
    7.9507    1.8546    0.0000 C   0  0  0  0  0  0  0  0  0  0  0  0
    7.2362    1.4420    0.0000 C   0  0  0  0  0  0  0  0  0  0  0  0
    7.9507    2.6796    0.0000 C   0  0  0  0  0  0  0  0  0  0  0  0
    6.5218    2.6796    0.0000 C   0  0  0  0  0  0  0  0  0  0  0  0
    8.7314    1.6031    0.0000 C   0  0  0  0  0  0  0  0  0  0  0  0
    2.0570   -2.0189    0.0000 C   0  0  0  0  0  0  0  0  0  0  0  0
    7.2362    3.0921    0.0000 C   0  0  0  0  0  0  0  0  0  0  0  0
    9.2129    2.2671    0.0000 C   0  0  0  0  0  0  0  0  0  0  0  0
    3.4153   -2.4628    0.0000 C   0  0  0  0  0  0  0  0  0  0  0  0
    1.8007   -2.8031    0.0000 C   0  0  0  0  0  0  0  0  0  0  0  0
    3.1590   -3.2470    0.0000 C   0  0  0  0  0  0  0  0  0  0  0  0
    2.3517   -3.4171    0.0000 C   0  0  0  0  0  0  0  0  0  0  0  0
  1 20  1  0  0  0  0
  2  6  1  0  0  0  0
  2 22  1  0  0  0  0
  3 24  2  0  0  0  0
  4  8  1  0  0  0  0
  4  9  1  0  0  0  0
  4 12  1  0  0  0  0
  5 10  1  0  0  0  0
  5 11  1  0  0  0  0
  5 14  1  0  0  0  0
  6 14  2  0  0  0  0
  7 19  1  0  0  0  0
  7 24  1  0  0  0  0
  8 10  1  0  0  0  0
  9 11  1  0  0  0  0
 12 13  1  0  0  0  0
 13 15  1  0  0  0  0
 14 16  1  0  0  0  0
 15 18  1  0  0  0  0
 15 20  2  0  0  0  0
 16 22  1  0  0  0  0
 16 25  2  0  0  0  0
 17 18  2  0  0  0  0
 17 19  1  0  0  0  0
 17 21  1  0  0  0  0
 19 23  2  0  0  0  0
 20 23  1  0  0  0  0
 21 24  1  0  0  0  0
 22 26  2  0  0  0  0
 25 27  1  0  0  0  0
 26 28  1  0  0  0  0
 27 28  2  0  0  0  0
M  END
> <DATABASE_ID>
DB00246

> <DATABASE_NAME>
drugbank

> <SMILES>
ClC1=C(CCN2CCN(CC2)C2=NSC3=CC=CC=C23)C=C2CC(=O)NC2=C1

> <INCHI_IDENTIFIER>
InChI=1S/C21H21ClN4OS/c22-17-13-18-15(12-20(27)23-18)11-14(17)5-6-25-7-9-26(10-8-25)21-16-3-1-2-4-19(16)28-24-21/h1-4,11,13H,5-10,12H2,(H,23,27)

> <INCHI_KEY>
MVWVFYHBGMAFLY-UHFFFAOYSA-N

> <FORMULA>
C21H21ClN4OS

> <MOLECULAR_WEIGHT>
412.936

> <EXACT_MASS>
412.112459711

> <JCHEM_ACCEPTOR_COUNT>
4

> <JCHEM_ATOM_COUNT>
49

> <JCHEM_AVERAGE_NEUTRAL_MICROSPECIES_CHARGE>
0.5504238668549063

> <JCHEM_AVERAGE_POLARIZABILITY>
44.95709596111414

> <JCHEM_BIOAVAILABILITY>
1

> <JCHEM_DONOR_COUNT>
1

> <JCHEM_FORMAL_CHARGE>
0

> <JCHEM_GHOSE_FILTER>
1

> <JCHEM_IUPAC>
5-{2-[4-(1,2-benzothiazol-3-yl)piperazin-1-yl]ethyl}-6-chloro-2,3-dihydro-1H-indol-2-one

> <ALOGPS_LOGP>
4.64

> <JCHEM_LOGP>
4.304046458666667

> <ALOGPS_LOGS>
-4.76

> <JCHEM_MDDR_LIKE_RULE>
0

> <JCHEM_NEUTRAL_CHARGE>
1

> <JCHEM_NUMBER_OF_RINGS>
5

> <JCHEM_PHYSIOLOGICAL_CHARGE>
0

> <JCHEM_PKA>
17.045017804258517

> <JCHEM_PKA_STRONGEST_ACIDIC>
12.207718072306207

> <JCHEM_PKA_STRONGEST_BASIC>
7.087852920368588

> <JCHEM_POLAR_SURFACE_AREA>
48.470000000000006

> <JCHEM_REFRACTIVITY>
116.72480000000002

> <JCHEM_ROTATABLE_BOND_COUNT>
4

> <JCHEM_RULE_OF_FIVE>
1

> <ALOGPS_SOLUBILITY>
7.18e-03 g/l

> <JCHEM_TRADITIONAL_IUPAC>
biotin

> <JCHEM_VEBER_RULE>
0

> <DRUGBANK_ID>
DB00246

> <SECONDARY_ACCESSION_NUMBERS>
APRD00540

> <DRUG_GROUPS>
approved

> <GENERIC_NAME>
Ziprasidone

> <SYNONYMS>
Ziprasidona; Ziprasidone; Ziprasidonum

> <PRODUCTS>
Auro-ziprasidone; Gd-ziprasidone; Geodon; Mylan-ziprasidone; Truemed Group LLC; Zeldox; Ziprasidone; Ziprasidone Capsules; Ziprasidone Hydrochloride; Ziprasidone Mesylate; Ziprasidone hydrochloride

> <SALTS>
Ziprasidone hydrochloride; Ziprasidone mesylate trihydrate

$$$$
