251
  Mrv1909 09192218172D          

 36 40  0  0  0  0            999 V2000
    2.7922   -0.4533    0.0000 C   0  0  1  0  0  0  0  0  0  0  0  0
    3.6427   -0.4408    0.0000 C   0  0  0  0  0  0  0  0  0  0  0  0
    2.9798    0.3501    0.0000 C   0  0  0  0  0  0  0  0  0  0  0  0
    1.9917   -0.2031    0.0000 O   0  0  0  0  0  0  0  0  0  0  0  0
    2.4764    0.9849    0.0000 N   0  0  0  0  0  0  0  0  0  0  0  0
    1.3133    1.7571    0.0000 N   0  0  0  0  0  0  0  0  0  0  0  0
    2.7922   -1.2382    0.0000 O   0  0  0  0  0  0  0  0  0  0  0  0
   -3.1079   -1.5790    0.0000 N   0  0  0  0  0  0  0  0  0  0  0  0
    4.0585   -1.1318    0.0000 C   0  0  0  0  0  0  0  0  0  0  0  0
    2.7327    1.7948    0.0000 N   0  0  0  0  0  0  0  0  0  0  0  0
   -4.7964   -1.5914    0.0000 N   0  0  0  0  0  0  0  0  0  0  0  0
    2.0167    2.2855    0.0000 C   0  0  0  0  0  0  0  0  0  0  0  0
    1.5883    0.9693    0.0000 C   0  0  0  0  0  0  0  0  0  0  0  0
    4.0679    0.2438    0.0000 C   0  0  0  0  0  0  0  0  0  0  0  0
    4.8339   -1.1318    0.0000 C   0  0  0  0  0  0  0  0  0  0  0  0
   -2.2700   -1.5790    0.0000 C   0  0  0  0  0  0  0  0  0  0  0  0
    1.4476   -0.8379    0.0000 C   0  0  1  0  0  0  0  0  0  0  0  0
   -3.5332   -2.2855    0.0000 C   0  0  0  0  0  0  0  0  0  0  0  0
   -3.5457   -0.8723    0.0000 C   0  0  0  0  0  0  0  0  0  0  0  0
   -4.3836   -2.2855    0.0000 C   0  0  0  0  0  0  0  0  0  0  0  0
   -4.3836   -0.8723    0.0000 C   0  0  0  0  0  0  0  0  0  0  0  0
    2.0012   -1.5227    0.0000 C   0  0  0  0  0  0  0  0  0  0  0  0
   -1.8603   -2.2732    0.0000 C   0  0  0  0  0  0  0  0  0  0  0  0
   -1.8823   -0.9004    0.0000 C   0  0  0  0  0  0  0  0  0  0  0  0
    5.3467   -0.4627    0.0000 C   0  0  0  0  0  0  0  0  0  0  0  0
   -5.6594   -1.5914    0.0000 C   0  0  0  0  0  0  0  0  0  0  0  0
    3.6332   -1.8510    0.0000 Cl  0  0  0  0  0  0  0  0  0  0  0  0
    0.2563   -1.5790    0.0000 O   0  0  0  0  0  0  0  0  0  0  0  0
    4.9059    0.2189    0.0000 C   0  0  0  0  0  0  0  0  0  0  0  0
   -0.5940   -1.5665    0.0000 C   0  0  0  0  0  0  0  0  0  0  0  0
    0.6692   -0.8379    0.0000 C   0  0  0  0  0  0  0  0  0  0  0  0
   -1.0536   -0.9004    0.0000 C   0  0  0  0  0  0  0  0  0  0  0  0
   -1.0067   -2.2732    0.0000 C   0  0  0  0  0  0  0  0  0  0  0  0
    6.0721   -0.4971    0.0000 Cl  0  0  0  0  0  0  0  0  0  0  0  0
   -6.0596   -2.2855    0.0000 C   0  0  0  0  0  0  0  0  0  0  0  0
   -6.0721   -0.8879    0.0000 C   0  0  0  0  0  0  0  0  0  0  0  0
  1  2  1  6  0  0  0
  1  3  1  1  0  0  0
  4  1  1  0  0  0  0
  5  3  1  0  0  0  0
  6 13  2  0  0  0  0
  7  1  1  0  0  0  0
  8 16  1  0  0  0  0
  9  2  2  0  0  0  0
 10  5  1  0  0  0  0
 11 21  1  0  0  0  0
 12 10  2  0  0  0  0
 13  5  1  0  0  0  0
 14  2  1  0  0  0  0
 15  9  1  0  0  0  0
 16 23  2  0  0  0  0
 17  4  1  0  0  0  0
 18  8  1  0  0  0  0
 19  8  1  0  0  0  0
 20 18  1  0  0  0  0
 21 19  1  0  0  0  0
 22  7  1  0  0  0  0
 23 33  1  0  0  0  0
 24 32  2  0  0  0  0
 25 29  1  0  0  0  0
 26 11  1  0  0  0  0
 27  9  1  0  0  0  0
 28 31  1  0  0  0  0
 29 14  2  0  0  0  0
 30 28  1  0  0  0  0
 17 31  1  1  0  0  0
 32 30  1  0  0  0  0
 33 30  2  0  0  0  0
 34 25  1  0  0  0  0
 35 26  1  0  0  0  0
 36 26  1  0  0  0  0
 22 17  1  0  0  0  0
 12  6  1  0  0  0  0
 25 15  2  0  0  0  0
 24 16  1  0  0  0  0
 20 11  1  0  0  0  0
M  END
> <DATABASE_ID>
DB00251

> <DATABASE_NAME>
drugbank

> <SMILES>
CC(C)N1CCN(CC1)C1=CC=C(OC[C@@H]2CO[C@](CN3C=NC=N3)(O2)C2=C(Cl)C=C(Cl)C=C2)C=C1

> <INCHI_IDENTIFIER>
InChI=1S/C26H31Cl2N5O3/c1-19(2)31-9-11-32(12-10-31)21-4-6-22(7-5-21)34-14-23-15-35-26(36-23,16-33-18-29-17-30-33)24-8-3-20(27)13-25(24)28/h3-8,13,17-19,23H,9-12,14-16H2,1-2H3/t23-,26-/m1/s1

> <INCHI_KEY>
BLSQLHNBWJLIBQ-ZEQKJWHPSA-N

> <FORMULA>
C26H31Cl2N5O3

> <MOLECULAR_WEIGHT>
532.47

> <EXACT_MASS>
531.1803953

> <JCHEM_ACCEPTOR_COUNT>
7

> <JCHEM_ATOM_COUNT>
67

> <JCHEM_AVERAGE_NEUTRAL_MICROSPECIES_CHARGE>
0.9625076353883271

> <JCHEM_AVERAGE_POLARIZABILITY>
56.59416123916844

> <JCHEM_BIOAVAILABILITY>
0

> <JCHEM_DONOR_COUNT>
0

> <JCHEM_FORMAL_CHARGE>
0

> <JCHEM_GHOSE_FILTER>
0

> <JCHEM_IUPAC>
1-(4-{[(2S,4R)-2-(2,4-dichlorophenyl)-2-[(1H-1,2,4-triazol-1-yl)methyl]-1,3-dioxolan-4-yl]methoxy}phenyl)-4-(propan-2-yl)piperazine

> <ALOGPS_LOGP>
4.58

> <JCHEM_LOGP>
5.374220876333333

> <ALOGPS_LOGS>
-4.66

> <JCHEM_MDDR_LIKE_RULE>
1

> <JCHEM_NEUTRAL_CHARGE>
1

> <JCHEM_NUMBER_OF_RINGS>
5

> <JCHEM_PHYSIOLOGICAL_CHARGE>
1

> <JCHEM_PKA_STRONGEST_BASIC>
8.409370367927888

> <JCHEM_POLAR_SURFACE_AREA>
64.88000000000001

> <JCHEM_REFRACTIVITY>
153.18939999999998

> <JCHEM_ROTATABLE_BOND_COUNT>
8

> <JCHEM_RULE_OF_FIVE>
0

> <ALOGPS_SOLUBILITY>
1.16e-02 g/l

> <JCHEM_TRADITIONAL_IUPAC>
6-cyclopropaneamido-N-[hydroxy(2H2)methyl]-4-{[2-methoxy-3-(1-methyl-1,2,4-triazol-3-yl)phenyl]amino}pyridazine-3-carboxamide

> <JCHEM_VEBER_RULE>
0

> <DRUGBANK_ID>
DB00251

> <SECONDARY_ACCESSION_NUMBERS>
APRD00659

> <DRUG_GROUPS>
approved

> <GENERIC_NAME>
Terconazole

> <SYNONYMS>
Terconazole

> <PRODUCTS>
Taro-terconazole; Terazol 3; Terazol 3 Dual Pak; Terazol 3 Vaginal Cream 0.8%; Terazol 3 Vaginal Ovules 80mg; Terazol 7; Terazol 7 Vaginal Cream 0.4%; Terconazole; Terconazole Vaginal Cream 0.8%; Zazole

> <INTERNATIONAL_BRANDS>
Terazol

$$$$
