257
  Mrv0541 02231214332D          

 25 28  0  0  0  0            999 V2000
    2.6961   -1.4598    0.0000 Cl  0  0  0  0  0  0  0  0  0  0  0  0
    4.1251    1.0153    0.0000 N   0  0  0  0  0  0  0  0  0  0  0  0
    4.5376    2.2848    0.0000 N   0  0  0  0  0  0  0  0  0  0  0  0
    4.1251    0.1902    0.0000 C   0  0  0  0  0  0  0  0  0  0  0  0
    4.1251   -0.6348    0.0000 C   0  0  0  0  0  0  0  0  0  0  0  0
    3.3001    0.1902    0.0000 C   0  0  0  0  0  0  0  0  0  0  0  0
    4.9501    0.1902    0.0000 C   0  0  0  0  0  0  0  0  0  0  0  0
    3.4106   -1.0473    0.0000 C   0  0  0  0  0  0  0  0  0  0  0  0
    4.8396   -1.0473    0.0000 C   0  0  0  0  0  0  0  0  0  0  0  0
    2.8876    0.9047    0.0000 C   0  0  0  0  0  0  0  0  0  0  0  0
    5.3626    0.9047    0.0000 C   0  0  0  0  0  0  0  0  0  0  0  0
    2.8876   -0.5242    0.0000 C   0  0  0  0  0  0  0  0  0  0  0  0
    5.3626   -0.5242    0.0000 C   0  0  0  0  0  0  0  0  0  0  0  0
    3.4577    1.5002    0.0000 C   0  0  0  0  0  0  0  0  0  0  0  0
    4.7925    1.5002    0.0000 C   0  0  0  0  0  0  0  0  0  0  0  0
    3.7126    2.2848    0.0000 C   0  0  0  0  0  0  0  0  0  0  0  0
    3.4106   -1.8723    0.0000 C   0  0  0  0  0  0  0  0  0  0  0  0
    4.8396   -1.8723    0.0000 C   0  0  0  0  0  0  0  0  0  0  0  0
    2.0625    0.9047    0.0000 C   0  0  0  0  0  0  0  0  0  0  0  0
    6.1876    0.9047    0.0000 C   0  0  0  0  0  0  0  0  0  0  0  0
    2.0625   -0.5242    0.0000 C   0  0  0  0  0  0  0  0  0  0  0  0
    6.1876   -0.5242    0.0000 C   0  0  0  0  0  0  0  0  0  0  0  0
    4.1251   -2.2848    0.0000 C   0  0  0  0  0  0  0  0  0  0  0  0
    1.6500    0.1902    0.0000 C   0  0  0  0  0  0  0  0  0  0  0  0
    6.6001    0.1902    0.0000 C   0  0  0  0  0  0  0  0  0  0  0  0
  1  8  1  0  0  0  0
  2  4  1  0  0  0  0
  2 14  1  0  0  0  0
  2 15  1  0  0  0  0
  3 15  2  0  0  0  0
  3 16  1  0  0  0  0
  4  5  1  0  0  0  0
  4  6  1  0  0  0  0
  4  7  1  0  0  0  0
  5  8  1  0  0  0  0
  5  9  2  0  0  0  0
  6 10  2  0  0  0  0
  6 12  1  0  0  0  0
  7 11  2  0  0  0  0
  7 13  1  0  0  0  0
  8 17  2  0  0  0  0
  9 18  1  0  0  0  0
 10 19  1  0  0  0  0
 11 20  1  0  0  0  0
 12 21  2  0  0  0  0
 13 22  2  0  0  0  0
 14 16  2  0  0  0  0
 17 23  1  0  0  0  0
 18 23  2  0  0  0  0
 19 24  2  0  0  0  0
 20 25  2  0  0  0  0
 21 24  1  0  0  0  0
 22 25  1  0  0  0  0
M  END
> <DATABASE_ID>
DB00257

> <DATABASE_NAME>
drugbank

> <SMILES>
ClC1=CC=CC=C1C(N1C=CN=C1)(C1=CC=CC=C1)C1=CC=CC=C1

> <INCHI_IDENTIFIER>
InChI=1S/C22H17ClN2/c23-21-14-8-7-13-20(21)22(25-16-15-24-17-25,18-9-3-1-4-10-18)19-11-5-2-6-12-19/h1-17H

> <INCHI_KEY>
VNFPBHJOKIVQEB-UHFFFAOYSA-N

> <FORMULA>
C22H17ClN2

> <MOLECULAR_WEIGHT>
344.837

> <EXACT_MASS>
344.108026261

> <JCHEM_ACCEPTOR_COUNT>
1

> <JCHEM_ATOM_COUNT>
42

> <JCHEM_AVERAGE_NEUTRAL_MICROSPECIES_CHARGE>
0.15504181520026977

> <JCHEM_AVERAGE_POLARIZABILITY>
36.24884289807099

> <JCHEM_BIOAVAILABILITY>
1

> <JCHEM_DONOR_COUNT>
0

> <JCHEM_FORMAL_CHARGE>
0

> <JCHEM_GHOSE_FILTER>
0

> <JCHEM_IUPAC>
1-[(2-chlorophenyl)diphenylmethyl]-1H-imidazole

> <ALOGPS_LOGP>
5.48

> <JCHEM_LOGP>
5.8394516706666675

> <ALOGPS_LOGS>
-5.37

> <JCHEM_MDDR_LIKE_RULE>
0

> <JCHEM_NEUTRAL_CHARGE>
0

> <JCHEM_NUMBER_OF_RINGS>
4

> <JCHEM_PHYSIOLOGICAL_CHARGE>
0

> <JCHEM_PKA_STRONGEST_BASIC>
6.263613627211556

> <JCHEM_POLAR_SURFACE_AREA>
17.82

> <JCHEM_REFRACTIVITY>
103.76450000000004

> <JCHEM_ROTATABLE_BOND_COUNT>
4

> <JCHEM_RULE_OF_FIVE>
0

> <ALOGPS_SOLUBILITY>
1.47e-03 g/l

> <JCHEM_TRADITIONAL_IUPAC>
tetrahydrofolic acid

> <JCHEM_VEBER_RULE>
1

> <DRUGBANK_ID>
DB00257

> <SECONDARY_ACCESSION_NUMBERS>
APRD00244

> <DRUG_GROUPS>
approved; vet_approved

> <GENERIC_NAME>
Clotrimazole

> <SYNONYMS>
1-((2-Chlorophenyl)diphenylmethyl)-1H-imidazole; 1-(o-Chloro-α,α-diphenylbenzyl)imidazole; 1-(o-Chlorotrityl)imidazole; 1-(α-(2-Chlorophenyl)benzhydryl)imidazole; Clotrimazol; Clotrimazole; Clotrimazolum

> <PRODUCTS>
1MED Clotrimazole 1% Antifungal Cream; Akin Anti-fungal; Alevazol; Anti Fungal; Anti-Fungal; Anti-Fungal Cream; Antifungal; Antifungal Cream; Antifungal Foot; Aptrimazole 1.0% Antifungal Cream; Aspiera Anti-Fungal; Astonea Clotrimazole 1% Athletes Foot; Athlete Foot Cream with Clotrimazole; Athlete s Foot Afac; Athletes Foot; Athletes Foot Antifungal Antifungal; Atopalm Clotrimazole Antifungal; Au Kah Chuen Antifungal; Best Choice Clotrimazole; Betamethasone Clotrimazole; Blossom Pharmaceuticals Antifungal; Botanimedix TineaRX Antifungal Drying Emulsion; Budpak Antifungal Clotrimazole; CAREALL Clotrimazole; CAREONE Clotrimazole; CVS Antifungal Ringworm; CVS Clotrimazole Maximum Strength; CVS Pharmacy Clotrimazole 3; CVS Pharmacy ITCH RELIEF ANTIFUNGAL; CVSHealth Antifungal; Canesoral Combi; Canesoral Combi 1 Day; Canesten 1 Day Internal Cream; Canesten 1 Vaginal Tablet Combi-pak; Canesten 1% Topical Cream; Canesten 1% Topical Solution; Canesten 100mg Vaginal Inserts; Canesten 2% Vaginal Cream; Canesten 200 Mg Vaginal Inserts; Canesten 3 Day Internal Cream; Canesten 3 Vaginal Tablet Combi-pak; Canesten 6 Day Internal Cream; Canesten Combi 1 Day; Canesten Combi 1 Day Internal + External Creams; Canesten Combi 3 Day; Canesten Combi-pak 1 Day Therapy; Canesten Comfortab 1; Canesten Comfortab 3; Canesten Crm 1% Top; Canesten Crm 1% Vag; Canesten External Antifungal Cream; Canesten External Cream; Canesten Extra Strength External Antifungal Cream; Canesten Liq 1%; Canesten V; Canesten Vaginal Inserts 100mg; Ciclomazole; Clotrimaderm External Cream; Clotrimaderm Topical; Clotrimaderm Topical Solution 1% USP; Clotrimaderm Vaginal 3; Clotrimaderm Vaginal 6; Clotrimaderm-fluconazole Combi-pack; ClotrimazOil Antifungal; Clotrimazol; Clotrimazol Dual; Clotrimazole; Clotrimazole 1%; Clotrimazole 1% Athletes Foot; Clotrimazole 1% Topical Antifungal Cream; Clotrimazole Antifungal; Clotrimazole Athletes Foot; Clotrimazole Cream 1%; Clotrimazole External Antifungal Cream; Clotrimazole External Cream; Clotrimazole Extra Strength External Antifungal Cream; Clotrimazole Jock Itch; Clotrimazole Topical; Clotrimazole Topical Solution 1%; Clotrimazole Topical Solution USP, 1%; Clotrimazole Vaginal 3; Clotrimazole Vaginal 6; Clotrimazole and Betamethasone Dipropionate; Clotrimazole-fluconazole Combi; Cura Hongo Antifungal; DermacinRx Therazole Pak; Dermatin Antifungal; Desenex; Dr Sheffield Athletes Foot; Dynarex Antifungal; Equaline Antifungal Cream; Equaline Clotrimazole Antifungal; Equate Jock Itch; Exchange Select Atheletes foot; Extra Strength Clotrimazole Extra Fort -fluconazole Combi; Family Care Antifungal; Family Care Clotrimazole Anti-Fungal Cream 1%; Family Care Clotrimazole Antifungal; Family Wellness Antifungal; Fastrin Anti - Fungal Skin Care; Femmesil; First Aid Research Antifungal .5oz; First Aid Research Antifungal Cream 1oz; Foot Care Clotrimazole; Footlogix; Footlogix Intensive Care Diabetic Formula; Forticept Antifungal Cooling; Forticept Antifungal Foot Cream; Fortinia; Fortinia OF; FungaZoil Advanced; Fungicure Intensive; Fungicure Liquid Gel; Fungicure Manicure Pedicure; Fungicure Manicure Pedicure Anti Fungal; Fungicure Manicure Pedicure Liquid Gel; Fungicure Pumpspray; Fungistat Max; Gehwol Fusskraft Nail and Skin Protection; Gehwol Nail Protection Pen; Gehwol med Foot; Gerlasan Hand; Good Neighbor Pharmacy Clotrimazole; Good Neighbor Pharmacy Clotrimazole 3; Good Sense Athletes Foot antifungal; Goodsense Athletes Foot; Gyne-Lotrimin 3; Gyne-Lotrimin 7; HEB Antifungal; Healthy Accents Antifungal; Hua Tuo Xian Gao; Hua Tuo Xian Gao Antifungal; JiDeSheng; Jock Itch; Jock Itch Antifungal; Jock Itch Clotrimazole Antifungal; Jock Itch Cream with Clotrimazole; Jock-eze; Kerasal foot and toe; Kleer-Plex Fungistat Athlete Foot Cure; Kleer-Plex Fungistat Fungus Cure; Kroger ATHLETES FOOT; Kroger Jock Itch; Lakesia; Leader Athletes Foot Clotrimazole; Leader Clotrimazole Anti-Fungal; Live Better Antifungal; Lotriderm; Lotrimin; Lotrimin Antifungal; Lotrisone; Lucky SuperSoft Athletes Foot; Major Clotrimazole; MakeSense; Meijer Athletes Foot Cream AF; Meijer Clotrimazole Antifungal; Micotrin AC; Mycelex; Myclo Crm 10mg; Myclo Crm 50mg; Myclo Solution; Myclo Tab 100mg; Myclo-derm Cream 1%; Myclo-derm Solution 1%; Myclo-gyne Cream 1%; Myclo-gyne Inserts; Mycozyl AC; Neo-zol Cream 1%; Neo-zol Vaginal Cream 1%; Neo-zol Vaginal Cream 2%; Occulus SKIN HYDRATING TOPICAL FOAM CLO-1 ANTIFUNGAL FOAM; Occulus Skin Hydrating Topical Foam CLO-1; Olp Clotrimazole; Our Family Athletes Foot; PMS-clotrimazole-betamethasone; PRO-EX Anti Fungal; Pedesil; Pedesil Maximum Strength; PerfectHeal Antifungal; Protective Nail and skin; Protective and Moisturizing Skin; Publix athletic foot; Quality Choice Athletes Foot; Quality Choice Clotrimazole; Rexall Athletes Foot; Rexall Jock Itch; Ringworm; Rite Aid antifungal ringworm; Rugby Antifungal Clotrimazole; Rugby Clotrimazole Antifungal Cream; S-Cream CLOTRIMAZOLE Cream 1%; SIMPLY VITAL Antifungal Cream; Scheinpharm Clotrimazole 1%; Shield and Protect Anti-Fungal; ShopRite antifungal; Shopko Athletes Foot; Signature Care Antifungal; Signature Care Athletes Foot; Signature Care Jock Itch; Silka Ringworm; Skin Repair; Smart Sense Athletes Foot Antifungal; Smooth Gator Fungus Eliminator; Soothing Antifungal Cream; SoundBody Clotrimazole Antifungal; Sunmark Clotrimazole; Taro-clotrimazole/betamethasone Dipropionate; Terbinafine HCl Chlortimazole and Tolnaftate; Terrasil Anti-Fungal Treatment; Terrasil Anti-Fungal Treatment MAX; Terrasil Anti-fungal Treatment; Terrasil Antifungal Cream Maximum Strength; Terrasil Athletes Foot AntiFungal Treatment Max; Terrasil Foot and Nail Anti-Fungal; Terrasil Foot and Nail Anti-Fungal Maximum Strength; Terrasil Jock Itch Treatment Maximum Strength; Terrasil Jock-Itch Treatment MAX; Terrasil JockItch Treatment Maximum Strength; Terrasil Rapid-Clear Anti-Fungal; Terrasil Ringworm Treatment MAX; Terrasil Tinea Treatment MAX; Terrasil Tinea Treatment Maximum Strength; Thera plus Antifungal Clotrimazole; TheraPlus Plus; TopCare Antifungal; TopCare Clotrimazole 3; Topcare Athletes Foot; Up and Up Athletes Foot; Up and Up Jock Itch Relief; UpandUp Clotrimazole; Walgreens Clotrimazole; Walgreens Clotrimazole 3; Walgreens Clotrimazole Antifungal; Walgreens Jock Itch; Western Family Athletes Foot; WinCo Antifungal; WinCo Foods Antifungal; Zapotol Clotrimazole; meijer Athletes Foot; meijer Clotrimazole 3; sunmark Clotrimazole 3

> <INTERNATIONAL_BRANDS>
Canesten; Canifug; Clotrimaderm; Empecid; FemCare; Fungicip; Gyne-Lotrimin; Myclo-Derm; Myclo-Gyne

$$$$
