2C7
  Mrv0541 02241213062D          

 24 26  0  0  0  0            999 V2000
   -1.6469   -1.1445    0.0000 C   0  0  0  0  0  0  0  0  0  0  0  0
   -1.8901   -1.9328    0.0000 C   0  0  0  0  0  0  0  0  0  0  0  0
   -2.6580   -2.2342    0.0000 C   0  0  0  0  0  0  0  0  0  0  0  0
   -3.3725   -1.8217    0.0000 C   0  0  0  0  0  0  0  0  0  0  0  0
   -3.4955   -1.0060    0.0000 C   0  0  0  0  0  0  0  0  0  0  0  0
   -2.9343   -0.4012    0.0000 C   0  0  0  0  0  0  0  0  0  0  0  0
   -2.1116   -0.4628    0.0000 C   0  0  0  0  0  0  0  0  0  0  0  0
   -1.6991    0.2516    0.0000 C   0  0  0  0  0  0  0  0  0  0  0  0
   -0.8741    0.2516    0.0000 C   0  0  0  0  0  0  0  0  0  0  0  0
   -0.3892   -0.4158    0.0000 C   0  0  0  0  0  0  0  0  0  0  0  0
   -0.3892    0.9191    0.0000 S   0  0  0  0  0  0  0  0  0  0  0  0
   -1.1037    1.3316    0.0000 O   0  0  0  0  0  0  0  0  0  0  0  0
   -0.0536    1.6727    0.0000 O   0  0  0  0  0  0  0  0  0  0  0  0
    0.3954    0.6641    0.0000 C   0  0  0  0  0  0  0  0  0  0  0  0
    1.1099    1.0766    0.0000 C   0  0  0  0  0  0  0  0  0  0  0  0
    0.3954   -0.1609    0.0000 C   0  0  0  0  0  0  0  0  0  0  0  0
    1.1099   -0.5734    0.0000 C   0  0  0  0  0  0  0  0  0  0  0  0
    1.8244   -0.1609    0.0000 C   0  0  0  0  0  0  0  0  0  0  0  0
    1.8244    0.6641    0.0000 C   0  0  0  0  0  0  0  0  0  0  0  0
    2.5388    1.0766    0.0000 O   0  0  0  0  0  0  0  0  0  0  0  0
    2.5388    1.9016    0.0000 S   0  0  0  0  0  0  0  0  0  0  0  0
    2.5388    2.7266    0.0000 O   0  0  0  0  0  0  0  0  0  0  0  0
    3.3638    1.9016    0.0000 O   0  0  0  0  0  0  0  0  0  0  0  0
    1.7138    1.9016    0.0000 N   0  0  0  0  0  0  0  0  0  0  0  0
  1  2  1  0  0  0  0
  1  7  1  0  0  0  0
  2  3  1  0  0  0  0
  3  4  1  0  0  0  0
  4  5  1  0  0  0  0
  5  6  1  0  0  0  0
  6  7  1  0  0  0  0
  7  8  1  0  0  0  0
  8  9  1  0  0  0  0
  9 10  2  0  0  0  0
  9 11  1  0  0  0  0
 10 16  1  0  0  0  0
 11 12  2  0  0  0  0
 11 13  2  0  0  0  0
 11 14  1  0  0  0  0
 14 15  2  0  0  0  0
 14 16  1  0  0  0  0
 15 19  1  0  0  0  0
 16 17  2  0  0  0  0
 17 18  1  0  0  0  0
 18 19  2  0  0  0  0
 19 20  1  0  0  0  0
 20 21  1  0  0  0  0
 21 22  2  0  0  0  0
 21 23  2  0  0  0  0
 21 24  1  0  0  0  0
M  END
> <DATABASE_ID>
DB06954

> <DATABASE_NAME>
drugbank

> <SMILES>
NS(=O)(=O)OC1=CC=C2C=C(CC3CCCCCC3)S(=O)(=O)C2=C1

> <INCHI_IDENTIFIER>
InChI=1S/C16H21NO5S2/c17-24(20,21)22-14-8-7-13-10-15(23(18,19)16(13)11-14)9-12-5-3-1-2-4-6-12/h7-8,10-12H,1-6,9H2,(H2,17,20,21)

> <INCHI_KEY>
BIASYWBGUYOWJR-UHFFFAOYSA-N

> <FORMULA>
C16H21NO5S2

> <MOLECULAR_WEIGHT>
371.472

> <EXACT_MASS>
371.086114167

> <JCHEM_ACCEPTOR_COUNT>
5

> <JCHEM_ATOM_COUNT>
45

> <JCHEM_AVERAGE_NEUTRAL_MICROSPECIES_CHARGE>
-0.00029791312131417254

> <JCHEM_AVERAGE_POLARIZABILITY>
37.60818326856147

> <JCHEM_BIOAVAILABILITY>
1

> <JCHEM_DONOR_COUNT>
1

> <JCHEM_FORMAL_CHARGE>
0

> <JCHEM_GHOSE_FILTER>
1

> <JCHEM_IUPAC>
2-(cycloheptylmethyl)-1,1-dioxo-1lambda6-benzothiophen-6-yl sulfamate

> <ALOGPS_LOGP>
3.08

> <JCHEM_LOGP>
2.691933238

> <ALOGPS_LOGS>
-4.14

> <JCHEM_MDDR_LIKE_RULE>
0

> <JCHEM_NEUTRAL_CHARGE>
0

> <JCHEM_NUMBER_OF_RINGS>
3

> <JCHEM_PHYSIOLOGICAL_CHARGE>
0

> <JCHEM_PKA_STRONGEST_ACIDIC>
10.525780966955324

> <JCHEM_PKA_STRONGEST_BASIC>
-6.008551336357764

> <JCHEM_POLAR_SURFACE_AREA>
103.53

> <JCHEM_REFRACTIVITY>
92.81789999999998

> <JCHEM_ROTATABLE_BOND_COUNT>
4

> <JCHEM_RULE_OF_FIVE>
1

> <ALOGPS_SOLUBILITY>
2.68e-02 g/l

> <JCHEM_TRADITIONAL_IUPAC>
biotin

> <JCHEM_VEBER_RULE>
0

> <DRUGBANK_ID>
DB06954

> <DRUG_GROUPS>
experimental

> <GENERIC_NAME>
2-(cycloheptylmethyl)-1,1-dioxido-1-benzothiophen-6-yl sulfamate

$$$$
