321
  Mrv0541 02231214362D          

 21 23  0  0  0  0            999 V2000
    2.5995   -1.7286    0.0000 N   0  0  0  0  0  0  0  0  0  0  0  0
    3.6160    2.5536    0.0000 C   0  0  0  0  0  0  0  0  0  0  0  0
    4.4410    2.5536    0.0000 C   0  0  0  0  0  0  0  0  0  0  0  0
    4.0285    0.7464    0.0000 C   0  0  0  0  0  0  0  0  0  0  0  0
    3.1016    1.9086    0.0000 C   0  0  0  0  0  0  0  0  0  0  0  0
    4.9554    1.9086    0.0000 C   0  0  0  0  0  0  0  0  0  0  0  0
    3.2852    1.1043    0.0000 C   0  0  0  0  0  0  0  0  0  0  0  0
    4.7718    1.1043    0.0000 C   0  0  0  0  0  0  0  0  0  0  0  0
    4.0285   -0.0786    0.0000 C   0  0  0  0  0  0  0  0  0  0  0  0
    3.3140   -0.4911    0.0000 C   0  0  0  0  0  0  0  0  0  0  0  0
    2.2844    2.1745    0.0000 C   0  0  0  0  0  0  0  0  0  0  0  0
    5.7725    2.1745    0.0000 C   0  0  0  0  0  0  0  0  0  0  0  0
    2.6643    0.5102    0.0000 C   0  0  0  0  0  0  0  0  0  0  0  0
    5.3926    0.5102    0.0000 C   0  0  0  0  0  0  0  0  0  0  0  0
    3.3139   -1.3161    0.0000 C   0  0  0  0  0  0  0  0  0  0  0  0
    1.6500    1.5950    0.0000 C   0  0  0  0  0  0  0  0  0  0  0  0
    6.4070    1.5949    0.0000 C   0  0  0  0  0  0  0  0  0  0  0  0
    1.8412    0.7571    0.0000 C   0  0  0  0  0  0  0  0  0  0  0  0
    6.2157    0.7571    0.0000 C   0  0  0  0  0  0  0  0  0  0  0  0
    2.5995   -2.5536    0.0000 C   0  0  0  0  0  0  0  0  0  0  0  0
    1.8850   -1.3161    0.0000 C   0  0  0  0  0  0  0  0  0  0  0  0
  1 15  1  0  0  0  0
  1 20  1  0  0  0  0
  1 21  1  0  0  0  0
  2  3  1  0  0  0  0
  2  5  1  0  0  0  0
  3  6  1  0  0  0  0
  4  7  1  0  0  0  0
  4  8  1  0  0  0  0
  4  9  2  0  0  0  0
  5  7  1  0  0  0  0
  5 11  2  0  0  0  0
  6  8  1  0  0  0  0
  6 12  2  0  0  0  0
  7 13  2  0  0  0  0
  8 14  2  0  0  0  0
  9 10  1  0  0  0  0
 10 15  1  0  0  0  0
 11 16  1  0  0  0  0
 12 17  1  0  0  0  0
 13 18  1  0  0  0  0
 14 19  1  0  0  0  0
 16 18  2  0  0  0  0
 17 19  2  0  0  0  0
M  END
> <DATABASE_ID>
DB00321

> <DATABASE_NAME>
drugbank

> <SMILES>
CN(C)CCC=C1C2=CC=CC=C2CCC2=CC=CC=C12

> <INCHI_IDENTIFIER>
InChI=1S/C20H23N/c1-21(2)15-7-12-20-18-10-5-3-8-16(18)13-14-17-9-4-6-11-19(17)20/h3-6,8-12H,7,13-15H2,1-2H3

> <INCHI_KEY>
KRMDCWKBEZIMAB-UHFFFAOYSA-N

> <FORMULA>
C20H23N

> <MOLECULAR_WEIGHT>
277.4033

> <EXACT_MASS>
277.183049741

> <JCHEM_ACCEPTOR_COUNT>
1

> <JCHEM_ATOM_COUNT>
44

> <JCHEM_AVERAGE_NEUTRAL_MICROSPECIES_CHARGE>
0.9982681571160853

> <JCHEM_AVERAGE_POLARIZABILITY>
33.739384032500624

> <JCHEM_BIOAVAILABILITY>
1

> <JCHEM_DONOR_COUNT>
0

> <JCHEM_FORMAL_CHARGE>
0

> <JCHEM_GHOSE_FILTER>
1

> <JCHEM_IUPAC>
dimethyl(3-{tricyclo[9.4.0.0^{3,8}]pentadeca-1(15),3,5,7,11,13-hexaen-2-ylidene}propyl)amine

> <ALOGPS_LOGP>
5.10

> <JCHEM_LOGP>
4.8095349149999995

> <ALOGPS_LOGS>
-4.79

> <JCHEM_MDDR_LIKE_RULE>
0

> <JCHEM_NEUTRAL_CHARGE>
1

> <JCHEM_NUMBER_OF_RINGS>
3

> <JCHEM_PHYSIOLOGICAL_CHARGE>
1

> <JCHEM_PKA_STRONGEST_BASIC>
9.76073872870795

> <JCHEM_POLAR_SURFACE_AREA>
3.24

> <JCHEM_REFRACTIVITY>
101.50720000000001

> <JCHEM_ROTATABLE_BOND_COUNT>
3

> <JCHEM_RULE_OF_FIVE>
1

> <ALOGPS_SOLUBILITY>
4.50e-03 g/l

> <JCHEM_TRADITIONAL_IUPAC>
tetrahydrofolic acid

> <JCHEM_VEBER_RULE>
1

> <DRUGBANK_ID>
DB00321

> <SECONDARY_ACCESSION_NUMBERS>
APRD00227

> <DRUG_GROUPS>
approved

> <GENERIC_NAME>
Amitriptyline

> <SYNONYMS>
10,11-dihydro-5-(γ-dimethylaminopropylidene)-5H-dibenzo(a,d)cycloheptene; 10,11-dihydro-N,N-dimethyl-5H-dibenzo(a,d)heptalene-Δ5,γ-propylamine; 3-(10,11-dihydro-5H-dibenzo(a,d)cyclohepten-5-ylidene)-N,N-dimethyl-1-propanamine; 3-(10,11-dihydro-5H-dibenzo[a,d]cyclohepten-5-ylidene)-N,N-dimethylpropan-1-amine; 5-(3-dimethylaminopropylidene)-10,11-dihydro-5H-dibenzo(a,d)cycloheptatriene; 5-(3-dimethylaminopropylidene)-10,11-dihydro-5H-dibenzo(a,d)cycloheptene; 5-(γ-dimethylaminopropylidene)-5H-dibenzo[a,d][1,4]cycloheptadiene; Amitriptilina; Amitriptylin; Amitriptyline; Amitriptylinum

> <PRODUCTS>
Ag-amitriptyline; Amitriptyline; Amitriptyline 10 Tab; Amitriptyline 25 Tab; Amitriptyline HCL; Amitriptyline HCl Tab 25mg; Amitriptyline HCl Tab 50mg; Amitriptyline Hydrochloride; Amitriptyline Hydrochloride Tablets USP; Amitriptyline Tablets B.p 25mg; Amitriptyline hcl; Amitriptyline hydrochloride; Amitriptyline-10; Amitriptyline-25; Amitriptyline-50; Apo Peram Tab 2-25; Apo Peram Tab 3-15; Apo-amitriptyline; Bio-amitriptyline; Chlordiazepoxide and Amitriptyline HCl; Chlordiazepoxide and Amitriptyline Hydrochloride; Dom-amitriptyline; Elavil; Elavil 25 mg; Elavil Pamoate Syr 10mg/5ml; Elavil Plus Tab; Elavil Tablet 10mg; Elavil Tablet 25mg; Elavil Tablet 50mg; Elavil Tablet 75mg; Equipto - Amitriptyline External Cream Compounding Kit; Etrafon 2 10; Etrafon A Tab; Etrafon D Tab; Etrafon F Tab; Ipg-amitriptyline; Jamp-amitriptyline; Jamp-amitriptyline Tablets; Levate; Limbitrol; Limbitrol DS; Mar-amitriptyline; Novo-triptyn Tab 10mg; Novo-triptyn Tab 25mg; Novo-triptyn Tab 50mg; Nu-amitriptyline Tablets; PMS-amitriptyline; PMS-levazine 2/25 Tab; PMS-levazine 3/15 Tab; PMS-levazine 4/25 Tab; Perphenazine and Amitriptyline Hydrochloride; Priva-amitriptyline; Proavil Tab; Sentravil PM-25; Teva-amitriptyline; Triavil Tab; Zyvodol

> <INTERNATIONAL_BRANDS>
Adepril; Amitryp; Conmitrip; Endep; Fiorda; Kamitrin; Laroxyl; Latilin; Maxitrip; Redomex; Saroten; Sarotex; Sarotex Retard; Syneudon; Tryptanol; Tryptizol; Uxen Retard

> <SALTS>
Amitriptyline hydrochloride; Amitriptyline pamoate

$$$$
