322
  Mrv0541 02231214362D          

 17 18  0  0  1  0            999 V2000
    4.5079    1.9573    0.0000 F   0  0  0  0  0  0  0  0  0  0  0  0
    3.7464   -1.0026    0.0000 O   0  0  0  0  0  0  0  0  0  0  0  0
    2.1816   -2.4547    0.0000 O   0  0  0  0  0  0  0  0  0  0  0  0
    4.7969   -2.3685    0.0000 O   0  0  0  0  0  0  0  0  0  0  0  0
    1.6500    0.3073    0.0000 O   0  0  0  0  0  0  0  0  0  0  0  0
    3.0790    2.7823    0.0000 O   0  0  0  0  0  0  0  0  0  0  0  0
    3.0790    0.3073    0.0000 N   0  0  0  0  0  0  0  0  0  0  0  0
    2.3645    1.5448    0.0000 N   0  0  0  0  0  0  0  0  0  0  0  0
    2.6665   -1.7873    0.0000 C   0  0  1  0  0  0  0  0  0  0  0  0
    3.0790   -0.5177    0.0000 C   0  0  1  0  0  0  0  0  0  0  0  0
    2.4115   -1.0026    0.0000 C   0  0  0  0  0  0  0  0  0  0  0  0
    3.4915   -1.7873    0.0000 C   0  0  1  0  0  0  0  0  0  0  0  0
    3.9764   -2.4547    0.0000 C   0  0  0  0  0  0  0  0  0  0  0  0
    2.3645    0.7198    0.0000 C   0  0  0  0  0  0  0  0  0  0  0  0
    3.7935    0.7198    0.0000 C   0  0  0  0  0  0  0  0  0  0  0  0
    3.7935    1.5448    0.0000 C   0  0  0  0  0  0  0  0  0  0  0  0
    3.0790    1.9573    0.0000 C   0  0  0  0  0  0  0  0  0  0  0  0
  1 16  1  0  0  0  0
  2 10  1  0  0  0  0
  2 12  1  0  0  0  0
  9  3  1  1  0  0  0
  4 13  1  0  0  0  0
  5 14  2  0  0  0  0
  6 17  2  0  0  0  0
 10  7  1  6  0  0  0
  7 14  1  0  0  0  0
  7 15  1  0  0  0  0
  8 14  1  0  0  0  0
  8 17  1  0  0  0  0
  9 11  1  0  0  0  0
  9 12  1  0  0  0  0
 10 11  1  0  0  0  0
 12 13  1  6  0  0  0
 15 16  2  0  0  0  0
 16 17  1  0  0  0  0
M  END
> <DATABASE_ID>
DB00322

> <DATABASE_NAME>
drugbank

> <SMILES>
OC[C@H]1O[C@H](C[C@@H]1O)N1C=C(F)C(=O)NC1=O

> <INCHI_IDENTIFIER>
InChI=1S/C9H11FN2O5/c10-4-2-12(9(16)11-8(4)15)7-1-5(14)6(3-13)17-7/h2,5-7,13-14H,1,3H2,(H,11,15,16)/t5-,6+,7+/m0/s1

> <INCHI_KEY>
ODKNJVUHOIMIIZ-RRKCRQDMSA-N

> <FORMULA>
C9H11FN2O5

> <MOLECULAR_WEIGHT>
246.1924

> <EXACT_MASS>
246.065199677

> <JCHEM_ACCEPTOR_COUNT>
5

> <JCHEM_ATOM_COUNT>
28

> <JCHEM_AVERAGE_NEUTRAL_MICROSPECIES_CHARGE>
-0.07701125512411913

> <JCHEM_AVERAGE_POLARIZABILITY>
20.949961641295644

> <JCHEM_BIOAVAILABILITY>
1

> <JCHEM_DONOR_COUNT>
3

> <JCHEM_FORMAL_CHARGE>
0

> <JCHEM_GHOSE_FILTER>
0

> <JCHEM_IUPAC>
5-fluoro-1-[(2R,4S,5R)-4-hydroxy-5-(hydroxymethyl)oxolan-2-yl]-1,2,3,4-tetrahydropyrimidine-2,4-dione

> <ALOGPS_LOGP>
-1.15

> <JCHEM_LOGP>
-1.3151611686666662

> <ALOGPS_LOGS>
-0.78

> <JCHEM_MDDR_LIKE_RULE>
0

> <JCHEM_NEUTRAL_CHARGE>
0

> <JCHEM_NUMBER_OF_RINGS>
2

> <JCHEM_PHYSIOLOGICAL_CHARGE>
0

> <JCHEM_PKA>
13.907877654313866

> <JCHEM_PKA_STRONGEST_ACIDIC>
8.078643056854242

> <JCHEM_PKA_STRONGEST_BASIC>
-2.9780835982375358

> <JCHEM_POLAR_SURFACE_AREA>
99.09999999999998

> <JCHEM_REFRACTIVITY>
51.2578

> <JCHEM_ROTATABLE_BOND_COUNT>
2

> <JCHEM_RULE_OF_FIVE>
1

> <ALOGPS_SOLUBILITY>
4.08e+01 g/l

> <JCHEM_TRADITIONAL_IUPAC>
biotin

> <JCHEM_VEBER_RULE>
0

> <DRUGBANK_ID>
DB00322

> <SECONDARY_ACCESSION_NUMBERS>
APRD00692

> <DRUG_GROUPS>
approved

> <GENERIC_NAME>
Floxuridine

> <SYNONYMS>
1-(2-Deoxy-beta-D-ribofuranosyl)-5-fluorouracil; 1-beta-D-2'-Deoxyribofuranosyl-5-flurouracil; 1beta-D-2'-Deoxyribofuranosyl-5-flurouracil; 2'-Deoxy-5-fluorouridine; 5-Fluoro-2-desoxyuridine; 5-fluoro-2'-deoxyuridine; 5-Fluorodeoxyuridine; 5-Fluorouracil 2'-deoxyriboside; 5-Fluorouracil deoxyriboside; 5FDU; beta-5-Fluoro-2'-deoxyuridine; Deoxyfluorouridine; FdU; Floxiridina; Floxuridin; Floxuridine; Floxuridinum; Fluorodeoxyuridine; Fluoruridine deoxyribose

> <PRODUCTS>
Fdur; Floxuridine

> <INTERNATIONAL_BRANDS>
FUDR

$$$$
