3516
  Mrv0541 02231216592D          

 10 10  0  0  0  0            999 V2000
    2.8075   -0.9034    0.0000 O   0  0  0  0  0  0  0  0  0  0  0  0
    5.6655   -0.9034    0.0000 O   0  0  0  0  0  0  0  0  0  0  0  0
    4.2365   -0.9034    0.0000 N   0  0  0  0  0  0  0  0  0  0  0  0
    4.9509    0.3341    0.0000 N   0  0  0  0  0  0  0  0  0  0  0  0
    3.5220    0.3341    0.0000 C   0  0  0  0  0  0  0  0  0  0  0  0
    3.5220   -0.4909    0.0000 C   0  0  0  0  0  0  0  0  0  0  0  0
    4.2365    0.7466    0.0000 C   0  0  0  0  0  0  0  0  0  0  0  0
    4.9509   -0.4909    0.0000 C   0  0  0  0  0  0  0  0  0  0  0  0
    2.8075    0.7466    0.0000 C   0  0  0  0  0  0  0  0  0  0  0  0
    2.0930    1.1592    0.0000 C   0  0  0  0  0  0  0  0  0  0  0  0
  1  6  2  0  0  0  0
  2  8  2  0  0  0  0
  3  6  1  0  0  0  0
  3  8  1  0  0  0  0
  4  7  1  0  0  0  0
  4  8  1  0  0  0  0
  5  6  1  0  0  0  0
  5  7  2  0  0  0  0
  5  9  1  0  0  0  0
  9 10  3  0  0  0  0
M  END
> <DATABASE_ID>
DB03516

> <DATABASE_NAME>
drugbank

> <SMILES>
O=C1NC=C(C#C)C(=O)N1

> <INCHI_IDENTIFIER>
InChI=1S/C6H4N2O2/c1-2-4-3-7-6(10)8-5(4)9/h1,3H,(H2,7,8,9,10)

> <INCHI_KEY>
JOZGNYDSEBIJDH-UHFFFAOYSA-N

> <FORMULA>
C6H4N2O2

> <MOLECULAR_WEIGHT>
136.1082

> <EXACT_MASS>
136.027277382

> <JCHEM_ACCEPTOR_COUNT>
2

> <JCHEM_ATOM_COUNT>
14

> <JCHEM_AVERAGE_NEUTRAL_MICROSPECIES_CHARGE>
-0.028077866599048873

> <JCHEM_AVERAGE_POLARIZABILITY>
12.048430934118677

> <JCHEM_BIOAVAILABILITY>
1

> <JCHEM_DONOR_COUNT>
2

> <JCHEM_FORMAL_CHARGE>
0

> <JCHEM_GHOSE_FILTER>
0

> <JCHEM_IUPAC>
5-ethynyl-1,2,3,4-tetrahydropyrimidine-2,4-dione

> <ALOGPS_LOGP>
-0.91

> <JCHEM_LOGP>
-0.8223266093333331

> <ALOGPS_LOGS>
-2.73

> <JCHEM_MDDR_LIKE_RULE>
0

> <JCHEM_NEUTRAL_CHARGE>
0

> <JCHEM_NUMBER_OF_RINGS>
1

> <JCHEM_PHYSIOLOGICAL_CHARGE>
0

> <JCHEM_PKA>
13.426471584177147

> <JCHEM_PKA_STRONGEST_ACIDIC>
8.539273385932486

> <JCHEM_PKA_STRONGEST_BASIC>
-6.405892433723945

> <JCHEM_POLAR_SURFACE_AREA>
58.2

> <JCHEM_REFRACTIVITY>
33.389

> <JCHEM_ROTATABLE_BOND_COUNT>
0

> <JCHEM_RULE_OF_FIVE>
1

> <ALOGPS_SOLUBILITY>
2.54e-01 g/l

> <JCHEM_TRADITIONAL_IUPAC>
biotin

> <JCHEM_VEBER_RULE>
0

> <DRUGBANK_ID>
DB03516

> <SECONDARY_ACCESSION_NUMBERS>
EXPT03299

> <DRUG_GROUPS>
investigational

> <GENERIC_NAME>
Eniluracil

> <SYNONYMS>
5-Ethynyluracil; Eniluracil

$$$$
