373
  Mrv0541 02241213092D          

 29 33  0  0  0  0            999 V2000
   -4.5134   -1.4249    0.0000 C   0  0  0  0  0  0  0  0  0  0  0  0
   -4.9259   -2.1394    0.0000 C   0  0  0  0  0  0  0  0  0  0  0  0
   -5.7509   -2.1394    0.0000 C   0  0  0  0  0  0  0  0  0  0  0  0
   -6.1634   -1.4249    0.0000 C   0  0  0  0  0  0  0  0  0  0  0  0
   -5.7509   -0.7105    0.0000 C   0  0  0  0  0  0  0  0  0  0  0  0
   -4.9259   -0.7105    0.0000 C   0  0  0  0  0  0  0  0  0  0  0  0
   -4.5134    0.0040    0.0000 N   0  0  0  0  0  0  0  0  0  0  0  0
   -3.6884    0.0040    0.0000 C   0  0  0  0  0  0  0  0  0  0  0  0
   -3.2759   -0.7105    0.0000 C   0  0  0  0  0  0  0  0  0  0  0  0
   -3.6884   -1.4249    0.0000 C   0  0  0  0  0  0  0  0  0  0  0  0
   -2.4509   -0.7105    0.0000 C   0  0  0  0  0  0  0  0  0  0  0  0
   -1.9660   -0.0430    0.0000 N   0  0  0  0  0  0  0  0  0  0  0  0
   -1.1814   -0.2980    0.0000 C   0  0  0  0  0  0  0  0  0  0  0  0
   -1.1814   -1.1230    0.0000 C   0  0  0  0  0  0  0  0  0  0  0  0
   -1.9660   -1.3779    0.0000 C   0  0  0  0  0  0  0  0  0  0  0  0
   -0.4669    0.1145    0.0000 C   0  0  0  0  0  0  0  0  0  0  0  0
    0.2476   -0.2980    0.0000 C   0  0  0  0  0  0  0  0  0  0  0  0
    0.2476   -1.1230    0.0000 C   0  0  0  0  0  0  0  0  0  0  0  0
   -0.4669   -1.5355    0.0000 C   0  0  0  0  0  0  0  0  0  0  0  0
    0.9620   -1.5355    0.0000 C   0  0  0  0  0  0  0  0  0  0  0  0
    0.9620   -2.3605    0.0000 N   0  0  0  0  0  0  0  0  0  0  0  0
    1.6765   -2.7730    0.0000 C   0  0  0  0  0  0  0  0  0  0  0  0
    1.6765   -3.5980    0.0000 C   0  0  0  0  0  0  0  0  0  0  0  0
    0.9620   -4.0105    0.0000 C   0  0  0  0  0  0  0  0  0  0  0  0
    0.2476   -3.5980    0.0000 C   0  0  0  0  0  0  0  0  0  0  0  0
    0.2476   -2.7730    0.0000 C   0  0  0  0  0  0  0  0  0  0  0  0
    0.9620   -4.8355    0.0000 C   0  0  0  0  0  0  0  0  0  0  0  0
    1.6765   -5.2480    0.0000 N   0  0  0  0  0  0  0  0  0  0  0  0
   -3.2759    0.7185    0.0000 O   0  0  0  0  0  0  0  0  0  0  0  0
  1  6  1  0  0  0  0
  1 10  1  0  0  0  0
  1  2  2  0  0  0  0
  2  3  1  0  0  0  0
  3  4  2  0  0  0  0
  4  5  1  0  0  0  0
  5  6  2  0  0  0  0
  6  7  1  0  0  0  0
  7  8  1  0  0  0  0
  8 29  2  0  0  0  0
  8  9  1  0  0  0  0
  9 11  1  0  0  0  0
  9 10  2  0  0  0  0
 11 12  1  0  0  0  0
 11 15  2  0  0  0  0
 12 13  1  0  0  0  0
 13 16  1  0  0  0  0
 13 14  2  0  0  0  0
 14 19  1  0  0  0  0
 14 15  1  0  0  0  0
 16 17  2  0  0  0  0
 17 18  1  0  0  0  0
 18 20  1  0  0  0  0
 18 19  2  0  0  0  0
 20 21  1  0  0  0  0
 21 22  1  0  0  0  0
 21 26  1  0  0  0  0
 22 23  1  0  0  0  0
 23 24  1  0  0  0  0
 24 27  1  0  0  0  0
 24 25  1  0  0  0  0
 25 26  1  0  0  0  0
 27 28  1  0  0  0  0
M  END
> <DATABASE_ID>
DB07025

> <DATABASE_NAME>
drugbank

> <SMILES>
NCC1CCN(CC2=CC3=C(NC(=C3)C3=CC4=CC=CC=C4NC3=O)C=C2)CC1

> <INCHI_IDENTIFIER>
InChI=1S/C24H26N4O/c25-14-16-7-9-28(10-8-16)15-17-5-6-22-19(11-17)13-23(26-22)20-12-18-3-1-2-4-21(18)27-24(20)29/h1-6,11-13,16,26H,7-10,14-15,25H2,(H,27,29)

> <INCHI_KEY>
KBIHHEGEALBUMT-UHFFFAOYSA-N

> <FORMULA>
C24H26N4O

> <MOLECULAR_WEIGHT>
386.4894

> <EXACT_MASS>
386.210661474

> <JCHEM_ACCEPTOR_COUNT>
3

> <JCHEM_ATOM_COUNT>
55

> <JCHEM_AVERAGE_NEUTRAL_MICROSPECIES_CHARGE>
1.9931182701824124

> <JCHEM_AVERAGE_POLARIZABILITY>
45.429455634414275

> <JCHEM_BIOAVAILABILITY>
1

> <JCHEM_DONOR_COUNT>
3

> <JCHEM_FORMAL_CHARGE>
0

> <JCHEM_GHOSE_FILTER>
1

> <JCHEM_IUPAC>
3-(5-{[4-(aminomethyl)piperidin-1-yl]methyl}-1H-indol-2-yl)-1,2-dihydroquinolin-2-one

> <ALOGPS_LOGP>
3.41

> <JCHEM_LOGP>
2.772640223332192

> <ALOGPS_LOGS>
-4.74

> <JCHEM_MDDR_LIKE_RULE>
0

> <JCHEM_NEUTRAL_CHARGE>
2

> <JCHEM_NUMBER_OF_RINGS>
5

> <JCHEM_PHYSIOLOGICAL_CHARGE>
2

> <JCHEM_PKA>
14.882079176153765

> <JCHEM_PKA_STRONGEST_ACIDIC>
11.763617336727602

> <JCHEM_PKA_STRONGEST_BASIC>
10.26222358569745

> <JCHEM_POLAR_SURFACE_AREA>
74.15

> <JCHEM_REFRACTIVITY>
119.43779999999997

> <JCHEM_ROTATABLE_BOND_COUNT>
4

> <JCHEM_RULE_OF_FIVE>
1

> <ALOGPS_SOLUBILITY>
7.09e-03 g/l

> <JCHEM_TRADITIONAL_IUPAC>
biotin

> <JCHEM_VEBER_RULE>
0

> <DRUGBANK_ID>
DB07025

> <DRUG_GROUPS>
experimental

> <GENERIC_NAME>
3-(5-{[4-(AMINOMETHYL)PIPERIDIN-1-YL]METHYL}-1H-INDOL-2-YL)QUINOLIN-2(1H)-ONE

$$$$
