382
  Mrv0541 02231217472D          

 33 37  0  0  0  0            999 V2000
    2.2841   -3.5613    0.0000 C   0  0  0  0  0  0  0  0  0  0  0  0
    1.5697   -3.1488    0.0000 C   0  0  0  0  0  0  0  0  0  0  0  0
    1.5697   -2.3238    0.0000 N   0  0  0  0  0  0  0  0  0  0  0  0
    2.2841   -1.9113    0.0000 C   0  0  2  0  0  0  0  0  0  0  0  0
    2.9986   -2.3238    0.0000 C   0  0  0  0  0  0  0  0  0  0  0  0
    2.9986   -3.1488    0.0000 C   0  0  0  0  0  0  0  0  0  0  0  0
    2.2841   -1.0863    0.0000 C   0  0  0  0  0  0  0  0  0  0  0  0
    3.1091   -1.0863    0.0000 F   0  0  0  0  0  0  0  0  0  0  0  0
    1.4591   -1.0863    0.0000 F   0  0  0  0  0  0  0  0  0  0  0  0
    2.2841   -0.2613    0.0000 C   0  0  0  0  0  0  0  0  0  0  0  0
    1.5697    0.1512    0.0000 N   0  0  0  0  0  0  0  0  0  0  0  0
    1.5697    0.9762    0.0000 C   0  0  0  0  0  0  0  0  0  0  0  0
    0.8552    1.3887    0.0000 C   0  0  0  0  0  0  0  0  0  0  0  0
    0.8552    2.2137    0.0000 C   0  0  0  0  0  0  0  0  0  0  0  0
    1.5697    2.6262    0.0000 C   0  0  0  0  0  0  0  0  0  0  0  0
    2.2841    2.2137    0.0000 C   0  0  0  0  0  0  0  0  0  0  0  0
    2.2841    1.3887    0.0000 N   0  0  0  0  0  0  0  0  0  0  0  0
    0.0706    1.1338    0.0000 N   0  0  0  0  0  0  0  0  0  0  0  0
   -0.4143    1.8012    0.0000 C   0  0  0  0  0  0  0  0  0  0  0  0
    0.0706    2.4687    0.0000 O   0  0  0  0  0  0  0  0  0  0  0  0
   -1.2393    1.8012    0.0000 C   0  0  0  0  0  0  0  0  0  0  0  0
   -1.6518    1.0868    0.0000 C   0  0  0  0  0  0  0  0  0  0  0  0
   -1.2393    0.3723    0.0000 C   0  0  0  0  0  0  0  0  0  0  0  0
   -1.6518   -0.3422    0.0000 C   0  0  0  0  0  0  0  0  0  0  0  0
   -2.4768   -0.3422    0.0000 C   0  0  0  0  0  0  0  0  0  0  0  0
   -2.8893    0.3723    0.0000 C   0  0  0  0  0  0  0  0  0  0  0  0
   -2.4768    1.0868    0.0000 C   0  0  0  0  0  0  0  0  0  0  0  0
   -2.8893    1.8012    0.0000 N   0  0  0  0  0  0  0  0  0  0  0  0
   -3.7098    1.8875    0.0000 N   0  0  0  0  0  0  0  0  0  0  0  0
   -3.8814    2.6944    0.0000 C   0  0  0  0  0  0  0  0  0  0  0  0
   -3.1669    3.1069    0.0000 N   0  0  0  0  0  0  0  0  0  0  0  0
   -2.5538    2.5549    0.0000 C   0  0  0  0  0  0  0  0  0  0  0  0
    1.7784   -1.6193    0.0000 H   0  0  0  0  0  0  0  0  0  0  0  0
  1  2  1  0  0  0  0
  1  6  1  0  0  0  0
  2  3  1  0  0  0  0
  3  4  1  0  0  0  0
  4  5  1  0  0  0  0
  4  7  1  1  0  0  0
  4 33  1  6  0  0  0
  5  6  1  0  0  0  0
  7  8  1  0  0  0  0
  7  9  1  0  0  0  0
  7 10  1  0  0  0  0
 10 11  1  0  0  0  0
 11 12  1  0  0  0  0
 12 13  1  0  0  0  0
 12 17  2  0  0  0  0
 13 14  2  0  0  0  0
 13 18  1  0  0  0  0
 14 15  1  0  0  0  0
 14 20  1  0  0  0  0
 15 16  2  0  0  0  0
 16 17  1  0  0  0  0
 18 19  2  0  0  0  0
 19 20  1  0  0  0  0
 19 21  1  0  0  0  0
 21 22  1  0  0  0  0
 22 23  2  0  0  0  0
 22 27  1  0  0  0  0
 23 24  1  0  0  0  0
 24 25  2  0  0  0  0
 25 26  1  0  0  0  0
 26 27  2  0  0  0  0
 27 28  1  0  0  0  0
 28 29  1  0  0  0  0
 28 32  1  0  0  0  0
 29 30  2  0  0  0  0
 30 31  1  0  0  0  0
 31 32  2  0  0  0  0
M  END
> <DATABASE_ID>
DB04591

> <DATABASE_NAME>
drugbank

> <SMILES>
[H][C@@]1(CCCCN1)C(F)(F)CNC1=NC=CC2=C1N=C(CC1=CC=CC=C1N1C=NC=N1)O2

> <INCHI_IDENTIFIER>
InChI=1S/C22H23F2N7O/c23-22(24,18-7-3-4-9-26-18)12-28-21-20-17(8-10-27-21)32-19(30-20)11-15-5-1-2-6-16(15)31-14-25-13-29-31/h1-2,5-6,8,10,13-14,18,26H,3-4,7,9,11-12H2,(H,27,28)/t18-/m1/s1

> <INCHI_KEY>
VYJOAYZRCNHDNG-GOSISDBHSA-N

> <FORMULA>
C22H23F2N7O

> <MOLECULAR_WEIGHT>
439.4611

> <EXACT_MASS>
439.193214803

> <JCHEM_ACCEPTOR_COUNT>
6

> <JCHEM_ATOM_COUNT>
55

> <JCHEM_AVERAGE_NEUTRAL_MICROSPECIES_CHARGE>
0.5344660171888114

> <JCHEM_AVERAGE_POLARIZABILITY>
44.437720304120866

> <JCHEM_BIOAVAILABILITY>
1

> <JCHEM_DONOR_COUNT>
2

> <JCHEM_FORMAL_CHARGE>
0

> <JCHEM_GHOSE_FILTER>
1

> <JCHEM_IUPAC>
N-{2,2-difluoro-2-[(2R)-piperidin-2-yl]ethyl}-2-{[2-(1H-1,2,4-triazol-1-yl)phenyl]methyl}-[1,3]oxazolo[4,5-c]pyridin-4-amine

> <ALOGPS_LOGP>
2.81

> <JCHEM_LOGP>
2.7725045529999996

> <ALOGPS_LOGS>
-3.63

> <JCHEM_MDDR_LIKE_RULE>
1

> <JCHEM_NEUTRAL_CHARGE>
1

> <JCHEM_NUMBER_OF_RINGS>
5

> <JCHEM_PHYSIOLOGICAL_CHARGE>
0

> <JCHEM_PKA_STRONGEST_ACIDIC>
14.354412566189444

> <JCHEM_PKA_STRONGEST_BASIC>
7.058462088150426

> <JCHEM_POLAR_SURFACE_AREA>
93.69

> <JCHEM_REFRACTIVITY>
116.9765

> <JCHEM_ROTATABLE_BOND_COUNT>
7

> <JCHEM_RULE_OF_FIVE>
1

> <ALOGPS_SOLUBILITY>
1.03e-01 g/l

> <JCHEM_TRADITIONAL_IUPAC>
biotin

> <JCHEM_VEBER_RULE>
0

> <DRUGBANK_ID>
DB04591

> <DRUG_GROUPS>
experimental

> <GENERIC_NAME>
N-{2,2-DIFLUORO-2-[(2R)-PIPERIDIN-2-YL]ETHYL}-2-[2-(1H-1,2,4-TRIAZOL-1-YL)BENZYL][1,3]OXAZOLO[4,5-C]PYRIDIN-4-AMINE

$$$$
