388
  Mrv0541 02231214382D          

 12 12  0  0  1  0            999 V2000
    2.3645    1.0808    0.0000 O   0  0  0  0  0  0  0  0  0  0  0  0
    1.6500   -1.8068    0.0000 O   0  0  0  0  0  0  0  0  0  0  0  0
    3.7935    1.9058    0.0000 N   0  0  0  0  0  0  0  0  0  0  0  0
    3.0791    0.6683    0.0000 C   0  0  1  0  0  0  0  0  0  0  0  0
    3.7935    1.0808    0.0000 C   0  0  0  0  0  0  0  0  0  0  0  0
    3.0791   -0.1568    0.0000 C   0  0  0  0  0  0  0  0  0  0  0  0
    2.3645   -0.5693    0.0000 C   0  0  0  0  0  0  0  0  0  0  0  0
    3.7935   -0.5693    0.0000 C   0  0  0  0  0  0  0  0  0  0  0  0
    2.3645   -1.3943    0.0000 C   0  0  0  0  0  0  0  0  0  0  0  0
    3.7935   -1.3943    0.0000 C   0  0  0  0  0  0  0  0  0  0  0  0
    3.0791   -1.8068    0.0000 C   0  0  0  0  0  0  0  0  0  0  0  0
    4.5080    2.3183    0.0000 C   0  0  0  0  0  0  0  0  0  0  0  0
  4  1  1  1  0  0  0
  2  9  1  0  0  0  0
  3  5  1  0  0  0  0
  3 12  1  0  0  0  0
  4  5  1  0  0  0  0
  4  6  1  0  0  0  0
  6  7  2  0  0  0  0
  6  8  1  0  0  0  0
  7  9  1  0  0  0  0
  8 10  2  0  0  0  0
  9 11  2  0  0  0  0
 10 11  1  0  0  0  0
M  END
> <DATABASE_ID>
DB00388

> <DATABASE_NAME>
drugbank

> <SMILES>
CNC[C@H](O)C1=CC(O)=CC=C1

> <INCHI_IDENTIFIER>
InChI=1S/C9H13NO2/c1-10-6-9(12)7-3-2-4-8(11)5-7/h2-5,9-12H,6H2,1H3/t9-/m0/s1

> <INCHI_KEY>
SONNWYBIRXJNDC-VIFPVBQESA-N

> <FORMULA>
C9H13NO2

> <MOLECULAR_WEIGHT>
167.205

> <EXACT_MASS>
167.094628665

> <JCHEM_ACCEPTOR_COUNT>
3

> <JCHEM_ATOM_COUNT>
25

> <JCHEM_AVERAGE_NEUTRAL_MICROSPECIES_CHARGE>
0.9881946875676657

> <JCHEM_AVERAGE_POLARIZABILITY>
18.1996347550983

> <JCHEM_BIOAVAILABILITY>
1

> <JCHEM_DONOR_COUNT>
3

> <JCHEM_FORMAL_CHARGE>
0

> <JCHEM_GHOSE_FILTER>
1

> <JCHEM_IUPAC>
3-[(1R)-1-hydroxy-2-(methylamino)ethyl]phenol

> <ALOGPS_LOGP>
-0.69

> <JCHEM_LOGP>
-0.07016072310749853

> <ALOGPS_LOGS>
-0.88

> <JCHEM_MDDR_LIKE_RULE>
0

> <JCHEM_NEUTRAL_CHARGE>
1

> <JCHEM_NUMBER_OF_RINGS>
1

> <JCHEM_PHYSIOLOGICAL_CHARGE>
1

> <JCHEM_PKA>
14.239851398869074

> <JCHEM_PKA_STRONGEST_ACIDIC>
9.067801130196546

> <JCHEM_PKA_STRONGEST_BASIC>
9.687080513614072

> <JCHEM_POLAR_SURFACE_AREA>
52.49

> <JCHEM_REFRACTIVITY>
47.2494

> <JCHEM_ROTATABLE_BOND_COUNT>
3

> <JCHEM_RULE_OF_FIVE>
1

> <ALOGPS_SOLUBILITY>
2.20e+01 g/l

> <JCHEM_TRADITIONAL_IUPAC>
biotin

> <JCHEM_VEBER_RULE>
0

> <DRUGBANK_ID>
DB00388

> <SECONDARY_ACCESSION_NUMBERS>
APRD00365

> <DRUG_GROUPS>
approved

> <GENERIC_NAME>
Phenylephrine

> <SYNONYMS>
(−)-m-hydroxy-α-(methylaminomethyl)benzyl alcohol; Fenilefrina; l-(3-Hydroxyphenyl)-N-methylethanolamine; Phenylephrine; Phenylephrinum; R(-)-Phenylephrine

> <PRODUCTS>
24/7 Life Cold and Flu DayTime Severe; 4 Way Fast Acting; 4248 First Aid Kit; 4356 First Aid Kit; 4390 First Aid Kit; 4392 First Aid Kit; 7 Select Cold and Allergy Childrens; 7 Select Day Time Relief; 7 Select Hemorrhoidal Original Strength; 7 Select Nasal Decongestant PE; 7 Select Night Time Severe Cold Cough and Flu; 7 Select Night Time severe cold, cough and flu; A-Tan 12X Suspension; ACETAMINOPHEN DEXTROMETHORPHAN HYDROBROMIDE and PHENYLEPHRINE HYDROCHLORIDE; ACETAMINOPHEN, DEXTROMETHORPHAN HBr, GUAILFENESIN,PHENLYEPHRINE HCL; ACETAMINOPHEN, DEXTROMETHORPHAN HYDROBROMIDE, and PHENYLEPHRINE HYDROCHLORIDE; ALKA SELTZER PLUS Cold Day and Night Effervescent; ANTIGRIP Daytime; ANTIGRIP Nighttime; AP-Hist DM; ASP Daytime PE; ASP Nighttime Max; ATOPALM Hemorrhoidal; ATOPALM Hemorrhoidal Pain Relieving; AXIM DayTime; AXIM DayTime - Night Time 48 Softgels; AXIM DayTime - Night Time 72 Softgels; AXIM Sinux Severe Mucus; AccuHist; AccuHist PDX; AcetaFlu DayTime; AcetaFlu DayTime Effervescent; AcetaFlu NightTime; AcetaFlu NightTime Effervescent; Acetaminophen 500mg, Dextromethorphan HBr 10mg, Guaifenesin 200mg, Phenylephrine HCl 5mg; Acetaminophen Congestion and Pain; Acetaminophen Dextromethorphan HBr Doxylamine succinate Phenylephrine HCl; Acetaminophen Dextromethorphan HBr Guaifenesin Phenylephrine HCl; Acetaminophen Dextromethorphan Hydrobromide Doxylamine Succinate Phenylephrine Hydrochloride; Acetaminophen Dextromethorphan Hydrobromide Doxylamine Succinate Phenylephrine hydrochloride; Acetaminophen Dextromethorphan Hydrobromide Phenylephrine Hydrochloride; Acetaminophen Phenylephrine HCl; Acetaminophen Sinus Congestion and Pain A P J Coated; Acetaminophen Sinus Congestion and Pain Daytime; Acetaminophen, Chlorpheniramine Maleate, Dextromethorphan Hydrobromide, Phenylephrine Hydrochloride; Acetaminophen, Chlorpheniramine Maleate, Phenylephrine HCl; Acetaminophen, Chlorpheniramine Maleate, Phenylephrine Hydrochloride; Acetaminophen, Dextromethorphan HBr, Phenylephrine HCl, Doxylamine Succinate; Acetaminophen, Dextromethorphan Hydrobromide, Guaifenesin, Phenylephrine Hydrochloride; Acetaminophen, Dextromethorphan Hydrobromide, Phenylephrine Hydrochloride; Acetaminophen, Diphenhydramine Hydrochloride, Phenylephrine Hydrochloride; Acetaminophen, Diphenhydramine Hyhrochloride, Phenylephrine Hydrochloride; Acetaminophen, Guaifenesin, Dextromethorphan HBr, Phenylephrine HCl; Acetaminophen, Phenylephrine Hydrochloride; Acetaminophen, Phenylephrine Hydrochloride, Chlorpheniramine Maleate; Acetaminophen,Dextromethorphan,Phenylephrine; Acta Tabs PE; Acti PE; Actidom Da; Actidom Dmx; Actifed PE; Actifed PE Plus; Actinel DM; Activcin; Adult CF Cough; Adult Cold, Flu and Sore Throat; Adult Severe Congestion and Cough; Adult Tussin CF Multi-Symptom Cold; Adult Tussin Cough and Cold CF; Adult tussin Peak Cold Multi-Symptom Cold; Advil Allergy Congestion Relief; Advil Allergy and Congestion Relief; Advil Cold & Sinus PE; Advil Congestion Relief; Advil Multi-Symptom Cold and Flu; Advil Sinus Congestion and Pain; Advil Sinus Congestion and Pain Relief; Airacof; Ala-hist Ac; Ala-hist PE; Alahist CF; Alahist D; Alahist DM; Alahist LQ; Alahist PE; Aldex CT; Aldex D; Algidol Flu; Alka Seltzer Plus 1s Blister Pack; Alka Seltzer Plus 2s Blister Pack; Alka Seltzer Plus Cold; Alka Seltzer Plus Maximum Strength Sinus, Allergy And Cough Power Max Gels; Alka Seltzer Plus Severe Cold and Flu PowerFast Fizz; Alka-Seltzer Plus; Alka-Seltzer Plus Cold Day and Night; Alka-Seltzer Plus Cold Day and Night PowerMax gels; Alka-Seltzer Plus Cold Formula (Cherry Burst); Alka-Seltzer Plus Cold Formula (Orange Zest); Alka-Seltzer Plus Cold Medicine Sparkling Original; Alka-Seltzer Plus Cold Night; Alka-Seltzer Plus Cold Orange Zest; Alka-Seltzer Plus Cold Sparkling Original; Alka-Seltzer Plus Cold Sparkling Original PowerFast Fizz; Alka-Seltzer Plus Cold and Cough; Alka-Seltzer Plus Cold and Cough Cool Menthol; Alka-Seltzer Plus Cold and Cough Formula; Alka-Seltzer Plus Cold and Flu; Alka-Seltzer Plus Cough, Mucus and Congestion Day and Night Powermax; Alka-Seltzer Plus Day Cold and Flu; Alka-Seltzer Plus Day Non Drowsy Cold Medicine Citrus; Alka-Seltzer Plus Day Non-Drowsy Cold and Flu Formula; Alka-Seltzer Plus Day Severe Cold Plus Flu; Alka-Seltzer Plus Day Severe Cold, Cough And Flu; Alka-Seltzer Plus Day and Night Cold; Alka-Seltzer Plus Day and Night Cold and Flu Formula; Alka-Seltzer Plus Day and Night Multi-Symptom Cold and Flu Formula; Alka-Seltzer Plus Day and Night Severe Cold and Flu; Alka-Seltzer Plus Fast Crystals Packs Cold Formula; Alka-Seltzer Plus Fast Packs Cold and Flu Formula; Alka-Seltzer Plus Flu Formula; Alka-Seltzer Plus Maximum Strength Cold and Cough; Alka-Seltzer Plus Maximum Strength Cold and Cough Liquid Gels with Cool Menthol Flavor Liquid Gels; Alka-Seltzer Plus Maximum Strength Cold and Cough Power Max Gels; Alka-Seltzer Plus Maximum Strength Cough, Mucus and Congestion Day and Night; Alka-Seltzer Plus Maximum Strength Cough, Mucus and Congestion Powermax; Alka-Seltzer Plus Maximum Strength Day Cold and Flu; Alka-Seltzer Plus Maximum Strength Day Cold and Flu PowerMax Gels; Alka-Seltzer Plus Maximum Strength Day and Night Cold and Flu; Alka-Seltzer Plus Maximum Strength Day and Night Cold and Flu PowerMax Gels; Alka-Seltzer Plus Maximum Strength Night Cold and Flu; Alka-Seltzer Plus Maximum Strength Night Cold and Flu PowerMax Gels; Alka-Seltzer Plus Maximum Strength Severe Sinus Congestion and Cough Day and Night; Alka-Seltzer Plus Maximum Strength Severe Sinus, Allergy and Cough; Alka-Seltzer Plus Maximum Strength Sinus Congestion and Pain PowerFast Fizz; Alka-Seltzer Plus Maximum Strength Sinus, Congestion and Pain Power Max Gels; Alka-Seltzer Plus Multi-Smptom Cold and Flu Night; Alka-Seltzer Plus Multi-Symptom Cold Day and Night; Alka-Seltzer Plus Multi-Symptom Cold Night; Alka-Seltzer Plus Multi-Symptom Cold and Cough; Alka-Seltzer Plus Multi-Symptom Cold and Flu Day Liquid Gels; Alka-Seltzer Plus Multi-Symptom Cold and Flu Day and Night Liquid Gels; Alka-Seltzer Plus Night Cold Formula (Lemon); Alka-Seltzer Plus Night Cold Medicine; Alka-Seltzer Plus Night Cold and Flu Formula; Alka-Seltzer Plus Night Severe Cold and Flu; Alka-Seltzer Plus Night Severe Cold, Cough And Flu; Alka-Seltzer Plus Severe Allergy Sinus Congestion And Headache Formula; Alka-Seltzer Plus Severe Cold And Flu Formula; Alka-Seltzer Plus Severe Cold Night PowerFast Fizz; Alka-Seltzer Plus Severe Cold PowerFast Fizz; Alka-Seltzer Plus Severe Cold PowerFast Fizz Day and Night; Alka-Seltzer Plus Severe Cold PowerFast Fizz Non Drowsy; Alka-Seltzer Plus Severe Cold PowerFast Fizz Orange Zest; Alka-Seltzer Plus Severe Cold Powerfast Fizz Night; Alka-Seltzer Plus Severe Cold and Cough PowerFast Fizz; Alka-Seltzer Plus Severe Cold and Flu; Alka-Seltzer Plus Severe Cold and Flu PowerFast Fizz; Alka-Seltzer Plus Severe Cold, Mucus and Congestion; Alka-Seltzer Plus Severe Cough Mucus and Congestion Day and Night; Alka-Seltzer Plus Severe Cough Mucus and Congestion Liquid Gels; Alka-Seltzer Plus Severe Cough and Cold Day and Night; Alka-Seltzer Plus Severe Sinus Cold and Cough Liquid Gels; Alka-Seltzer Plus Severe Sinus Congestion Allergy and Cough; Alka-Seltzer Plus Severe Sinus Congestion and Cough; Alka-Seltzer Plus Severe Sinus Congestion and Cough Day and Night; Alka-Seltzer Plus Severe Sinus Congestion and Cough Liquid Gels; Alka-Seltzer Plus Severe Sinus Congestion and Cough Liquid Gels Day; Alka-Seltzer Plus Severe Sinus Congestion and Cough Liquid Gels Night; Alka-Seltzer Plus Severe Sinus Congestion, Allergy and Cough; Alka-Seltzer Plus Severe Sinus Cough and Cold; Alka-Seltzer Plus Severe Sinus and Cold; Alka-seltzer Plus Cold and Flu; AlleRx Dose Pack; AlleRx Dose Pack PE; Allerest PE; Allerfed; Allerfed Cold and Allergy; Allerfed Cold and Allergy PE; Allergie Extra Fort; Allergy; Allergy + Sinus Relief Extra Strength Tablets PE; Allergy D; Allergy DN PE; Allergy Multi Symptom; Allergy Multi symptom; Allergy Multi-Symptom; Allergy Multi-symptom; Allergy MultiSymptom; Allergy Multisymptom; Allergy Pain Relief; Allergy Plus Cold; Allergy Plus Congestion; Allergy Plus Congestion Relief; Allergy Plus Severe Sinus Headache; Allergy Plus Sinus Headache; Allergy Plus Sinus Relief; Allergy Relief; Allergy Relief Multi-Symptom; Allergy Relief Multisymptom; Allergy Relief Plus Congestion; Allergy Relief Plus Sinus Headache; Allergy Sinus Medication; Allergy Sinus PE Pain Relief; Allergy and Cold; Allergy and Cold PE; Allergy and Cold Relief; Allergy and Cough; Allergy and Pain Relief Multi-Symptom; Allergy and Sinus Headache; Allergy and Sinus Headache Relief Complete; Allergy and Sinus PE Maximum Strength; Allergy and Sinus Relief Extra Strength; Allergy and Stuffy Nose; Allergy plus Sinus Headache; Alticotron; Altidec A; Altidesp; Altidome DMX; Altilan CL; Altipres; Altipres Pediatric; Altipres-B; Anti Hemorrhoidal H Suppository; Antiflu; Antiflu Des Cough and Flu; Antiflu powder; Antigrip; Anu-Med; Aphedrid Cold and Allergy; Apj Hemorrhoidal; Apz Hemorrhoidal Suppositories; Aquanaz; Aramark Fedrin; Aramark Multi-Symptom Cold Relief; Aspire Day Congestion and Headache Softgel; Aspire Daytime Mucus and Sinus Softgel; Aspire Night Cold and Flu Softgel; Aspirin Free Cold Head Congestion Day Time; Assured Childrens Cold and Cough; Assured Day time Cold and Cough; Assured Maximum Strength Mucus Relief; Assured Maximum Strength Nasal Decongestant; Assured Night time Cold and Cough; Atrohist Pediatric; Auro Mucus - Childrens Cold, Cough and Sore Throat; Auro Tap Childrens Cold and Allergy; AuroFlu Day Time Severe Cold and Cough Warming Relief; AuroFlu Flu and Sore Throat Warming Relief; AuroFlu Night Time Severe Cold and Cough; AuroFlu Night Time Severe Cold and Cough Warming Relief; AuroMucus - Childrens Multi-Symptom Cold; AuroMucus - Childrens Stuffy Nose and Cold; AuroMucus - Fast Maximum Cold and Sinus; AuroMucus - Fast Maximum Cold, Flu and Sore Throat Relief; AuroMucus - Fast Maximum Severe Congestion and Cough; AuroMucus Fast Maximum Night Time Cold and Flu; AuroQuil COLD and FLU Day Time Multi-Symptom Relief; AuroQuil Severe Cold and Flu Daytime Relief; AuroQuil Severe Cold and Flu Nighttime Relief; Auroflu Day Time Severe Cold and Cough; Auromine Childrens Cold and Allergy; Aurophen Cold Multi Symptom; Aurophen Cold Multi-Symptom Severe; Aurophen Cold and Flu Severe; Aurotussin Peak Cold Maximum Strength Multi-Symptom Cold; Aurotussin Peak Cold Multi-Symptom Cold; Avedana HEMORRHOIDAL COOLING Gel; Avedana Hemorrhoidal; Avedana Hemorrhoidal Maximum Strength; Avedana Hemorrhoidal Pain Relief; BC Daytime Multi-Symptom; BC Sinus Congestion and Pain; BPM Mal Phenyleph HCl DM HBr; Bactimicina Cough and Cold; Baczol Cold Medicine; Baczol Expectorant; Balahist DM Syrup; Balamine DM Syrup; Basic Care Childrens Cold Plus Flu; Basic Care Childrens Cold and Cough; Basic Care Childrens Mucus Relief; Basic Care Day Time Cold and Flu Night Time Cold and Flu; Basic Care Day Time Night Time Cold and Flu; Basic Care Daytime; Basic Care Daytime Cold and Flu; Basic Care Daytime Cold and Flu Nighttime Cold and Flu; Basic Care Daytime Cold and Flu Severe; Basic Care Daytime Nighttime Cold and Flu; Basic Care Daytime Nighttime Severe Cold and Flu; Basic Care Daytime Severe Cold Nighttime Cold and Flu; Basic Care Daytime Severe Cold and Flu; Basic Care Daytime Severe Cold and Flu Nighttime Cold and Flu; Basic Care Daytime Severe Cold and Flu Nighttime Severe Cold and Flu; Basic Care Daytime Severe Cold and Flu Nighttime Severe Cold, Cough and Flu; Basic Care Hemorrhoidal; Basic Care Mucus Relief Cold Flu and Sore Throat; Basic Care Mucus Relief Severe Congestion and Cough; Basic Care Nasal; Basic Care Nighttime Cold and Flu; Basic Care Nighttime Cold and Flu Severe; Basic Care Nighttime Severe Cold and Flu; Basic Care Severe Cold and Flu; Basic Care Sinus PE; Basic Care Sinus Plus Headahce; Basic Care Tussin CF Severe; Basic Care daytime nighttime severe cold and flu; Basic Care severe cold and cough; Benadryl Allergy & Sinus; Benadryl Allergy Plus Cold; Benadryl Allergy Plus Congestion; Benadryl Allergy Rapid Release; Benadryl Allergy Sinus Headache; Benadryl PE Total Extra Strength; Benadryl PE Total Regular Strength; Benadryl-D Allergy and Sinus; Benylin All-IN-one Cold & Flu Daytime; Benylin All-IN-one Cold & Flu Nighttime; Benylin All-IN-one Cold and Flu Night PE Caplets; Benylin All-IN-one Cold and Flu PE Caplets; Benylin Cold Strips; Benylin Cold and Sinus Night Caplets; Benylin D for Infants; Benylin DM-D; Benylin DM-D Soft Chews With Menthactin; Benylin DM-D for Children; Benylin DM-D for Infants; Benylin DM-D-E; Benylin Extra Strength All-IN-one Cold and Flu; Benylin Extra Strength All-IN-one Cold and Flu Nightime; Benylin Extra Strength Cold & Sinus Day; Benylin Extra Strength Cold & Sinus Night; Benylin Extra Strength Cold & Sinus Plus; Benylin Extra Strength With Menthactin; Berkley and Jensen Nasal Decongestant PE Non-Drowsy Maximum Strength; Best Choice Daytime Severe Cold and Cough Berry infused with Menthol and Green Tea flavors; Best Choice Effervescent Cold Relief; Best Choice Nighttime Severe Cold and Cough Honey Lemon infused with Chamomile and White Tea Flavors; Betr Cold and Flu Daytime Relief; Betr Cold and Flu Nighttime Relief; Better Living; Bio T Pres-B; Bio-B Kids; Bio-G-Tuss Pediatric Drops; Bio-S-Pres DX; Bio-rytuss; BioGtuss; BioGtuss NF; BioTPres; BioTPres Pediatric; Biobron DX; Biobron SF; Biocof; Biocotron PED; Biocotron-D; Biodesp DM; Biodesp DM NF; Biogtuss TR; Biohisdex DM Decongestant; Biohisdine DM Decongestant; Bionatuss DXP; Biophex TR; Biorphen; Bliss GVS Hemorrhoidal; Bpm-DM-phen; BranTussin DM; Brohist D; Brom Mal Phenyl HCl Dex HBr; Brom Tapp; Brom Tapp DM; Bromhist PDX; Brompheniramine Phenylephrine DM; Bronco-Flu Plus; Broncochem Allergy Control; Broncochem Cold and Flu Caplets; Broncochem Expectorant II; Broncochem Kids Cold and Flu; Broncofin; Broncolin Cold and Flu Relief; Broncomar; Broncomar EXPECTORANT; Broncotron D; Broncotron PED; Bronkids; Brontuss DX; Brontuss SF; Brontuss SF-NR; Brotapp PE Liquid; Brotapp PE-DM Cough and Cold; BroveX PEB; BroveX PEB DM; Bubbles R Better Effervescent Cold Relief; Buckley's Complete Cough, Cold & Flu Day; Buckley's Complete Cough, Cold & Flu Night; Buckley's Complete Relief; Buckley's Complete Relief + Mucus; Budpak Hemorrhoid Anesthetic; C-Tanna 12D Suspension; CAREALL Hemorrhoidal; COLD FLU and SORE THROAT RELIEF; COLD and FLU; COLD and FLU DAYTIME MAXIMUM STRENGTH NON-DROWSY SEVERE; COLD and FLU Day Time Multi-Symptom Relief; COLD and FLU SEVERE; COLD, Flu and Sore Throat; COLDTAC Plus; COMTREX Maximum Strength Cold and Cough Non-Drowsy; COMTREX Maximum Strength Day / Night Severe Cold and Sinus; CVS - Childrens Mucus Relief Cough, Cold and Sore Throat; CVS - Childrens Stuffy Nose and Cold; CVS Chest Congestion Relief PE; CVS Childrens Cold and Allergy; CVS Daytime COLD and FLU RELIEF and Nighttime COLD and FLU RELIEF; CVS Daytime Severe Cold and Flu Relief Softgels; CVS Daytime Severe Cough and Cold; CVS Daytime and Nighttime Severe Cold and Flu Relief Bundle; CVS Health; CVS Health Chest Congestion Relief PE; CVS Health Daytime Severe Cold and Flu Relief; CVS Health Extra Strength Sinus Relief Nasal Decongestant; CVS Health Four Actions Nasal Decongestant; CVS Health Hemorrhoidal Cream; CVS Health Maximum Strength Non Drowsy Day and Night Cold and Flu Max Softgels Minis; CVS Health Multi Symptom Severe Cold MULTI SYMPTOM SEVERE COLD; CVS Health Nighttime Severe Cough and Cold Nighttime Severe Cold and Cough; CVS Health Non Drowsy DAY Cold and Flu Plus and NIGHTTIME Cold and Flu Plus; CVS Health Non Drowsy Daytime Cold and Flu Relief And Nighttime Cold and Flu Relief Day and Night Twin Pack; CVS Health Non-Drowsy Daytime Cold and Flu Relief Single Serve Cups Daytime; CVS Hemorrhoidal; CVS Maximum Strength Cold and Flu Relief; CVS Maximum Strength Severe Congestion and Cough; CVS Maximum Strength Severe Congestion and Cough Overnight Cold and Flu Clear and cool; CVS Nighttime Severe Cold and Flu Relief; CVS Overnight Cold and Flu Clear and Cool; CVS Pharmacy Cold and Sore Throat Lemon Flavor; CVS Pharmacy Daytime Nighttime Severe Cold and Cough Kit; CVS Pharmacy Daytime Severe Cough and Cold Berry infused with Menthol and Green Tea flavors; CVS Pharmacy Nighttime Severe Cough and Cold honey lemon infused with chamomile and white tea flavors; CVS Severe Congestion and Pain Relief; CVS cough and severe cold night time honey lemon infused with chamomile and white tea flavors; CVS day time cough and severe cold berry infused with menthol and green tea flavors; Cabinet Nasal Decongestant; Calmadol Plus; CapCof; Carbaphen CH; Carbaphen Ped CH; Carbatuss; Carbetaplex; Cardec; Cardec DM; Care One Cold Head Congestion; Care One Cold Head Congestion daytime non-drowsy; Care One Cold Multi Symptom; Care One Cold Mutli Symptom; Care One Cold and Allergy; Care One Flu and Severe Cold Daytime; Care One Flu and Severe Cold and Cough Daytime; Care One Flu and Severe Cold and Cough Nighttime; Care One Flu and Sore Throat; Care One Hemorrhoidal; Care One Nasal Decongestant PE Maximum Strength Non Drowsy; Care One Nasal Four; Care One Nose Drops; Care One Sinus; Care One Sinus Congestion and Pain; Care One Sinus and Allergy PE; Care One cold head congestion; CareOne Adult Tussin CF; CareOne Childrens Cold and Allergy; CareOne Childrens Cold and Cough; CareOne Childrens Cold and Flu; CareOne Childrens Mucus Relief; CareOne Cold Flu and sore throat; CareOne Cold and Sinus; CareOne Cold plus Flu Severe; CareOne Day Time Severe Cold Night Time Cold and Flu; CareOne DayTime Cold and Flu; CareOne Daytime Cold Flu Relief; CareOne Daytime Nighttime Cold Flu Relief; CareOne Daytime Nighttime Cold and Flu; CareOne Daytime Severe Cold and Cough Berry infused with Menthol and Green Tea flavors; CareOne Fast Acting Nasal; CareOne Hemorrhoidal; CareOne Mucus Relief; CareOne Mucus Relief Cold and Sinus; CareOne Mucus Relief Severe Congestion and Cold; CareOne Nighttime Severe Cold and Cough; CareOne Nighttime Severe Cold and Flu; CareOne Nitetime Severe Cold Flu Relief; CareOne Severe Cold; CareOne Sinus Plus Headache; CareOne Sinus Relief Severe; CareOne Sinus plus Headache; CareOne Triacting Night Time Cold and Cough Childrens; CareOne Tussin CF Multi Symptom Cold; CareOne sinus relief day time sinus relief night time; Careone Allergy and Cough Severe Sinus Congestion; Careone Childrens Multi Symptom Fever and Cold; Careone Cold Max; Careone Day Cold and Flu Night Cold and Flu; Careone Day Severe Cold Night Cold and Flu; Careone Daytime Nighttime Severe Cold and Flu; Careone Daytime Severe Cold Flu Relief; Careone Daytime Severe Cold and Cough; Careone Hemorrhoidal; Careone Severe Sinus Congestion; Careone Severe Sinus Congestion and Pain; Careone Sinus Relief Day Time Night Time; Careone Sinus Sever Congestion Relief; Careone daytime severe cold and flu; Careone night time severe cold and cough honey lemon infused with chamomile and white tea flavors; Caring Mill Childrens Cold and Cough; Caring Mill Childrens Mucus Relief; Caring Mill Daytime; Caring Mill Daytime Cold and Flu; Caring Mill Nasal Four; Centussin Dhc; Ceron; Ceron DM; Certi-sine; Cetafen Cough and Cold; Children's Benadryl-D Syrup; Children's Coltalin Fruit Flavor Chewable Cold Tablets; Children's Tylenol Cold; Children's Tylenol Cold and Cough; Children's Tylenol Decongestant; Childrens Allergy Plus Congestion; Childrens Allergy Plus Congestion Relief; Childrens Aurotussin Cough and Cold CF; Childrens Benadryl Allergy Plus Congestion; Childrens Benadryl-D ALLERGY and SINUS; Childrens Cold and Allergy; Childrens Cold and Allergy Relief; Childrens Cold and Cough; Childrens Cold and Cough Nighttime; Childrens Cold and Cough Relief; Childrens Cold and Flu; Childrens Cold, Cough and Sore Throat; Childrens Coltalin; Childrens Cough and Cold; Childrens Cough and Cold CF; Childrens Cough and Cold Nighttime; Childrens Day Time Cold and Cough; Childrens Daytime Cold and Cough; Childrens Delsym Cough Plus Chest Congestion DM and Delsym Cough Plus Cold Night Time; Childrens Delsym Cough Plus Cold Day Time; Childrens Delsym Cough Plus Cold Night Time; Childrens Dibromm Cold and Allergy; Childrens Dibromm Cold and Cough; Childrens Dimetapp Cold and Allergy; Childrens Dimetapp Cold and Cough; Childrens Dimetapp Multi-Symptom Cold Relief Dye-Free; Childrens Dimetapp Multi-Symptom Cold and Flu; Childrens Dimetapp Multisymptom Cold and Flu; Childrens Dimetapp Nighttime Cold and Congestion; Childrens Flu Relief; Childrens Metapp Daytime; Childrens Mucinex Cold, Cough and Sore Throat; Childrens Mucinex Congestion and Cough; Childrens Mucinex Multi Symptom Cold and Childrens Mucinex Night Time Multi Symptom Cold; Childrens Mucinex Multi-Symptom Cold; Childrens Mucinex Multi-Symptom Cold and Fever; Childrens Mucinex Night Time Multi-Symptom Cold; Childrens Mucinex Stuffy Nose and Cold; Childrens Mucus Relief; Childrens Mucus Relief Cough, Cold and Sore Throat; Childrens Mucus Relief Multi Symptom Cold; Childrens Multi Symptom Cold; Childrens Multi Symptom Fever and Cold; Childrens Multi-Symptom Cold; Childrens Multi-Symptom Cold Plus Dye-Free; Childrens Multi-Symptom Cold and Fever Relief; Childrens Multi-symptom Cold; Childrens Multi-symptom Cold and Fever Liquid; Childrens Night Time COUGH and COLD RELIEF; Childrens Night Time Cold and Cough; Childrens Nighttime Cold and Cough; Childrens Pain Relief Cold and Flu; Childrens Pain Relief Plus Multi Symptom Cold; Childrens Plus Cold; Childrens Plus Cold Grape; Childrens Plus Flu; Childrens Plus Flu with PE; Childrens Plus Multi Symptom Cold; Childrens Plus Multi Symptom Cold DYE FREE; Childrens Plus Multi Symptom Cold Dye Free; Childrens Plus Multi-Symptom Cold Grape with PE; Childrens Plus Multi-Symptom Grape with PE; Childrens Plus Multi-Symptom with PE; Childrens Robitussin Cough and Cold CF; Childrens SUDAFED PE Cold plus Cough; Childrens Stuffy Nose and Cold; Childrens Sudafed PE NASAL DECONGESTANT; Childrens TYLENOL COLD Plus FLU; Childrens Triacting; Childrens Triacting Night Time Cold and Cough; Childrens Triacting Nighttime Cold and Cough; Childrens Triacting Nighttime Cold and Cough ReadyInCase; Childrens Tukol Multi-Symptom Cold and Flu; Childrens Tussnex; Childrens Tussnex Multi-symptom cold; Childrens Tylenol Plus Cold and Allergy; Childrens Tylenol Plus Flu; Childrens Tylenol Plus Multi-Symptom Cold; Childrens Wal Dryl PE; Childrens Wal Tap DM; Childrens Wal Tap DM Cough and Cold; Childrens Wal Tap Elixer Cold and Allergy; Childrens mucus relief; Childrens mucus relief multi-symptom cold; Chlo Tuss; Chlor-Tan A 12 Suspension; Chloresin; Chlorpheniramine Maleate, Phenylephrine Hydrochloride; Chlorphenylcaine; Circle K Cold; Circle K Daytime Cold and Flu; Circle K Multi-Symptom Sinus Relief; Citron Chaud Cumberland Pws; Citron Chaud DM Cumberland Pws; Citron Chaud DM Option + Pws; Citron Chaud Extra Fort; Citron Chaud Réguliern DM; Clear Eyes; Clear Eyes Pure Relief Multisymptom; ClearTime; Cleartime; Clophed; Cocoa Butter, Phenylephrine Hydrochloride; Cocoa Butter, Phenylephrine Hydrochloride, Shark Liver Oil; Codituss DM; Cold; Cold & Allergy Relief - Liq; Cold & Flu; Cold & Flu Super Strength; Cold & Stuffy Nose; Cold Allergy; Cold Chest Congestion PE Regular Strength; Cold Childrens, Multi Symptom; Cold DayTime, Multi-Symptom, Non-drowsy; Cold Daytime; Cold FAid; Cold Flu Relief Daytime; Cold Flu Severe; Cold Flu Severe Day Night; Cold Flu Sore Throat; Cold Flu and Sore Throat; Cold Flu and Sore Throat Maximum Strength; Cold Flu and Sore Throat Relief Maximum Strength; Cold Formula Daytime Nighttime, Non-Aspirin, Multi-Symptom; Cold Head Congestion; Cold Head Congestion Daytime; Cold Head Congestion Daytime / Nighttime; Cold Head Congestion Daytime Non-Drowsy; Cold Head Congestion Night Time; Cold Head Congestion Nighttime; Cold Head Congestion Non-Drowsy; Cold Head Congestion Severe; Cold Liquid; Cold Liquid Grape Flavour; Cold MULTI-SYMPTOM, DAYTIME / NIGHTTIME; Cold Max; Cold Max Day and Night; Cold Max Daytime; Cold Max Multi Symptom; Cold Max Multi Symptom Nighttime; Cold Max Multi Symptom Severe; Cold Max Nighttime; Cold Max Severe; Cold Medication Daytime Relief; Cold Medication Regular Nighttime Tablets PE; Cold Medicine; Cold Medicine XL-3 for Children; Cold Medicine XL3; Cold Medicine XL3 FORTE; Cold Multi Symptom; Cold Multi Symptom Daytime Nighttime; Cold Multi Symptom Nighttime; Cold Multi Symptom Relief; Cold Multi Symptom Severe; Cold Multi-Symptom; Cold Multi-Symptom Day-time; Cold Multi-Symptom Daytime; Cold Multi-Symptom Daytime Nighttime; Cold Multi-Symptom Daytime Non-Drowsy; Cold Multi-Symptom Daytime and Nighttime; Cold Multi-Symptom Night-time; Cold Multi-Symptom Nighttime; Cold Multi-Symptom Non-Drowsy, Daytime; Cold Multi-Symptom Severe; Cold Multi-Symptom Severe Day Time; Cold Multi-Symptom, Daytime; Cold PE; Cold Pain Relief; Cold Plus Head Congestion Day and Night; Cold Plus Head Congestion Daytime; Cold Plus Head Congestion Nighttime; Cold Plus Head Congestion Severe; Cold Preparation; Cold Preparation For Cough and Sinus Relief; Cold Relief; Cold Relief Cold and Flu Severe; Cold Relief Daytime; Cold Relief Head Congestion; Cold Relief Head Congestion Daytime Non-Drowsy; Cold Relief Head Congestion Severe; Cold Relief Maximum Strength / Day Time; Cold Relief Multi Symptom; Cold Relief Multi Symptom Nighttime; Cold Relief Multi Symptom Severe; Cold Relief Multi-Symptom; Cold Relief Multi-Symptom Daytime; Cold Relief Multi-Symptom Severe; Cold Relief Multi-Symptom, Daytime, Nighttime, Non-drowsy; Cold Relief Multi-symptom; Cold Relief Multi-symptom Daytime; Cold Relief Multi-symptom, Daytime; Cold Relief Non Drowsy; Cold Relief Severe; Cold Relief Severe Head Congestion; Cold Relief Severe Pain Cough; Cold Relief Severe, Multi-symptom; Cold Severe Congestion; Cold Sinus; Cold Stix; Cold Stix - Hot Lemon, Sugar-free; Sweetened With Xylitol; Cold Stix Super Strength; Cold Stix-extra Strength; Cold Stix-regular Strength; Cold Syrup; Cold Tabs II; Cold Terminator Max; Cold and Allergy; Cold and Allergy Childrens; Cold and Allergy Maximum Strength; Cold and Allergy Maximum strength; Cold and Allergy PE; Cold and Allergy Relief; Cold and Allergy childrens; Cold and Chest Congestion Relief; Cold and Congestion Childrens Nighttime; Cold and Cough; Cold and Cough Childrens; Cold and Cough DM; Cold and Cough Day Time Childrens; Cold and Cough MULTI-SYMPTOM DAYTIME / NIGHTTIME; Cold and Cough PE; Cold and Cough Relief children; Cold and Cough childrens; Cold and Flu; Cold and Flu All In One; Cold and Flu Day; Cold and Flu Day Night; Cold and Flu Day Time Multi-Symptom Relief; Cold and Flu Day, Night; Cold and Flu DayTime; Cold and Flu DayTime Relief; Cold and Flu DayTime, NightTime Severe; Cold and Flu Daytime; Cold and Flu Daytime Nighttime; Cold and Flu Daytime Relief; Cold and Flu Daytime Severe; Cold and Flu Daytime Severe, Nighttime Severe; Cold and Flu Daytime, Nighttime; Cold and Flu Daytime, Nighttime, Maximum Strength; Cold and Flu Daytime, Nighttime, Multi-Symptom; Cold and Flu Daytime-nighttime; Cold and Flu Daytime/Multi-Symptom/Non-Drowsy; Cold and Flu Daytime/Nightime; Cold and Flu Daytime/Nighttime; Cold and Flu Multi-Symptom Daytime Nighttime; Cold and Flu Multi-Symptom Daytime/Nighttime Severe; Cold and Flu Multi-Symptom Nighttime Severe; Cold and Flu Multi-symptom Relief/cold and Flu Nighttime Relief; Cold and Flu Night; Cold and Flu Nighttime; Cold and Flu Nighttime Severe; Cold and Flu Non Drowsy Day Relief and Night Relief; Cold and Flu Non Drowsy Daytime and Nighttime; Cold and Flu Non-Drowsy, DayTime; Cold and Flu Non-Drowsy, Daytime; Cold and Flu Plus; Cold and Flu Relief; Cold and Flu Relief DayTime; Cold and Flu Relief Daytime; Cold and Flu Relief Daytime Multi Symptom; Cold and Flu Relief Daytime Nighttime; Cold and Flu Relief Daytime Non Drowsy; Cold and Flu Relief Daytime, Multi-Symptom; Cold and Flu Relief Daytime, Nighttime; Cold and Flu Relief Daytime/Nighttime; Cold and Flu Relief Multi symptom; Cold and Flu Relief Multi-Symptom; Cold and Flu Relief Multi-Symptom, Day, Night; Cold and Flu Relief Multi-Symptom, DayTime; Cold and Flu Relief Non-Drowsy / Daytime Severe / Nighttime Severe; Cold and Flu Relief Non-Drowsy, DayTime, Multi-Symptom; Cold and Flu Relief Severe; Cold and Flu Relief Severe Daytime; Cold and Flu Severe; Cold and Flu Severe Day Time / Night Time; Cold and Flu Severe Daytime; Cold and Flu Severe Daytime Nighttime; Cold and Flu Severe Daytime and Nighttime; Cold and Flu Severe Daytime/Nighttime; Cold and Flu Severe Night; Cold and Flu Severe Nighttime; Cold and Flu Severe, Day and Nighttime; Cold and Flu Severe, Day, Night; Cold and Flu Severe, Daytime, Nighttime; Cold and Flu Severe, Nighttime, Maximum Strength; Cold and Flu daytime; Cold and Flu maximum strength; Cold and Flu severe; Cold and Head Congestion Relief Severe; Cold and Head Congestion Severe; Cold and Head Congestion Severe/Daytime; Cold and Sinus; Cold and Sinus Maximum Strength; Cold and Sinus Maximum Strength, Multi-Symptom; Cold and Sinus Maxium Strength; Cold and Sinus PE Pressure, Pain and Cold Non-Drowsy; Cold and Sinus Pain Relief; Cold and Sore Throat; Cold plus Flu Severe; Cold plus Head Congestion; Cold plus Head Congestion Severe; Cold relief; Cold, Flu and Sore Throat; Cold, Flu and Sore Throat Maximum Strength; Cold, Flu and Sore Throat Maximum Strength, Multi-Symptom; Cold, Flu and Sore Throat Maxium Strength; Cold, Flu and Sore Throat Multi-Symptom; Cold, Flu and Sore Throat Relief Maximum Strength, Multi Symptom; Cold, Flu, and Sore Throat; Cold-EEZE Childrens Nighttime Cold and Cough Relief; Cold-EEZE Daytime Cold and Flu; Cold-EEZE Nighttime Cold and Flu; Cold-Flu Relief Multi Symptom; Cold/Flu Multi-Symptom Relief Daytime/Nighttime; ColdaeWon Nose A; ColdaeWon Nose A Syrup; Coldcough PD; Colds & Coughs; Coldtac Ultra; Coltalin; Coltalin Cold & Allergy Tablets; Coltalin-DM; Coltalin-ND; Complete Allergy and Sinus Multi Symptom; Complete Cold & Flu Relief; Complete Cold Relief; Complete One Cold and Flu PE Night; Comtrex Cough and Cold Day/Night; ConRX DayTime; ConRX Pain Reliever Sinus Headache; ConRx Allergy Sinus; ConRx Allergy Sinus Multi-Symptoms; ConRx Cold; ConRx Sinus; Congestaid II; Congestion PE; Congestion Relief; Congestion and Cough Childrens; Congestion and Headache; Contac; Contac Cold & Sinus Extra Strength; Contac Cold & Sinus Hot Medicated Drink; Contac Cold Chest Congestion; Contac Cold Nasal Congestion; Contac Cold and Flu Day; Contac Cold and Flu Day Night; Contac Cold and Flu Maximum Strength; Contac Cold and Flu Night; Contac Gold; Cooling Hemorrhoidal; Cooling Severe Daytime; Cooling Severe Daytime Cooling Severe Nighttime; Cooling Severe Nighttime; Core Values Tussin CF; Corfen DM; Coristine-DH Liq; Corzall PE; Cough & Cold; Cough & Cold Relief; Cough Cold and Sore Throat Childrens; Cough Formula Cough and Cold; Cough Multi Symptom; Cough Syrup; Cough Syrup DM Decongestant; Cough Syrup DM Decongestant and Expectorant With Acetaminophen; Cough Syrup DM Decongestant and Expectorant With Acetaminophen Extra Strength; Cough Syrup DM Decongestant for Children; Cough Syrup DM-decongestant Expectorant; Cough Syrup DM-decongestant-expectorant Extra Strength; Cough Tussin; Cough and Cold Berry & Green Tea Flavor Extra Strength; Cough and Cold Nighttime; Cough and Cold XL3 Xtra; Cough and Cold plus; Cough and Sinus PE Pressure, Pain and Cough Non-Drowsy; Cough, Cold & Allergy Relief; CounterAct Day; CounterAct Night; Covideze; Crane Safety Cold Relief; Crane Safety Sinus Decongestant; Crantex; Cvs; Cvs Children Decongestant Nose Drops; Cvs Health Hemorrhoidal Cooling Hemorrhoidal; Cvs Hemorrhoidal Cooling; Cyclomydril; D - Time; D Time Sinus; DAY Cold and Flu Plus and NIGHTTIME Cold and Flu Plus; DAY TIME COLD and FLU FORMULA; DAY TIME Cold Flu Medicine; DAY TIME and NIGHT TIME COLD and FLU FORMULA; DAY-TIME Cold and Flu; DAYTIME COLD AND FLU Maximum Strength; DAYTIME COLD and FLU; DAYTIME NIGHTTIME Cold and Flu; DAYTIME NIGHTTIME SEVERE COLD AND FLU Maximum Strength; DAYTIME SEVERE COLD and COUGH NIGHTTIME SEVERE COLD and COUGH; DAYTIME and NIGHTTIME SEVERE COLD AND FLU DAYTIME NON DROWSY NIGHTTIME; DAYTIME and Nighttime Cold and Flu; DAYTIME and Nighttime Sinus Relief; DAYTIME cold and flu relief; DDM Day time and Nite time cold and flu; DEXTROMETHORPHAN HYDROBROMIDE, GUAIFENESIN, and PHENYLEPHRINE HYDROCHLORIDE; DEXTROMETHORPHAN HYDROBROMIDE, Guaifenesin, and PHENYLEPHRINE HYDROCHLORIDE; DG Day Time Cold and Flu Formula and Night Time Cold and Flu Formula; DG Health Childrens Cold and Cough; DG Health Cold Head Congestion; DG Health Cold Max; DG Health Cold and Allergy; DG Health Cold and Flu Relief; DG Health Cold and Flu Relief Daytime; DG Health Fast Acting Mucus Relief Severe Cold; DG Health Fast Acting Mucus Relief Severe Congestion and Cold; DG Health Hemorrhoidal; DG Health Mucus Relief; DG Health Pain Relief Cold Night Time; DG Health Sinus PE; DG Health Triacting Childrens; DG Health Tussin; DG Health adult tussin multi symptom cold; DG Health cold multi symptom nite time; DG Health cold multi symptom severe; DG Health nasal decongestant pe maximum strength; DG Health tussin cf adult cough and cold; DG health allergy multi symptom; DIBROMM with PE; DM Cough and Cold Liquid; DM Cough and Cold Liquid Cherry Flavour; DM Cough and Cold Relief; DM Cough and Cold Syrup; DS Never Cold S; Dallergy; Dallergy DROPS; Dallergy PE; Dallergy PE SYRUP; Day & Night Combo Pack; Day Cold and Flu Night Cold and Flu; Day Cold and Flu Relief; Day Maximum Strength Cold and Flu Relief; Day Night Cold and Flu; Day Relief Night Relief Free; Day Relief Night Relief Sinus PE; Day Relief PE; Day Relief Sinus PE; Day Severe Cold Night Cold and Flu; Day Severe Cold and Night Cold and Flu Maximum Strength; Day Time; Day Time COLD and FLU non-drowsy; Day Time Cold Flu Relief; Day Time Cold Head Congestion Severe; Day Time Cold Multi-Symptom; Day Time Cold Multi-Symptom Cool Blast; Day Time Cold and Flu; Day Time Cold and Flu Multi-Symptom Relief; Day Time Cold and Flu Non Drowsy ReadyInCase; Day Time Cold and Flu Non drowsy; Day Time Cold and Flu Relief; Day Time Cold and Flu Relief non drowsy; Day Time Cold and Flu Severe; Day Time Cold and Flu cold and flu multi symptom relief; Day Time Cold and Flu non drowsy; Day Time Cold non drowsy cold and Flu Relief; Day Time Cold/Flu Relief; Day Time Gelcap; Day Time Multi-Symptom Cold/Flu Relief; Day Time Multi-Symptom Flu Cold Medicine; Day Time Night Time; Day Time Night Time Cold and Flu; Day Time Night Time Severe Cold and Flu; Day Time Night Time Sinus Relief; Day Time Non Drowsy; Day Time Non-Drowsy Cold - Flu Relief; Day Time PE cold and flu relief; Day Time Severe; Day Time Severe Cold and Cough; Day Time Sinus; Day Time Sinus Pain Reliever, Nasal Decongestant; Day Time Sinus Relief; Day Time Softgels; Day Time and Night Time Sinus and Congestion; Day Time with PE; Day and Night Cold; Day and Night Cold PE; Day and Night Cold and Flu Formula; Day and Night Severe Sinus Congestion and Cough Maximum Strength; Day and Night Sinus; Day and Night Sinus Maximum Strength; Day and Night Sinus Relief Maximum Strength; Day time cold and flu; Day-Time NON-DROWSY COLD/FLU RELIEF; Day-Time Night-Time; Day-night Cold and Flu; Day-night Severe Cold and Flu; DayClear COUGH COLD AND FLU; DayClear SINUS PAIN AND PRESSURE; DayQuil Cold and Flu; DayQuil Severe; DayQuil Severe Cold and Flu; DayQuil Severe Plus VapoCOOL Cold And Flu; DayQuil Severe Plus Vicks Vapocool Cold and Flu; DayQuil Severe VapoCool; DayQuil Severe plus Vicks VapoCool; DayQuil Severe plus Vicks VapoCool Cold and Flu; DayQuil VapoCOOL SEVERE COLD and FLU plus CONGESTION; DayQuil and Nyquil Severe plus Vicks VapoCool Cold and Flu; DayRelief Multi symptom; DayRelief NON DROWSY MULTI SYMPTOM COLD FLU; DayTime; DayTime Cold Flu Non Drowsy; DayTime Cold Flu Non-Drowsy; DayTime Cold and Cough Childrens; DayTime Cold and Flu; DayTime Cold and Flu Non Drowsy; DayTime Cold and Flu Relief; DayTime Cold and Flu Severe and NightTime Cold and Flu Severe; DayTime Maximum Strength Cold and Flu; DayTime Mucus Relief Severe Cold and Nighttime Cold and Flu Maximum Strength; DayTime Multi-Symptom; DayTime Multi-Symptom Flu Cold Medicine; DayTime NightTime Cold and Flu; DayTime NightTime Cold and Flu Relief; DayTime NightTime Cold/Flu; DayTime NightTime Sinus Relief; DayTime Nighttime; DayTime Nighttime multi symptom cold and flu relief; DayTime NiteTime Cold Flu Relief; DayTime NiteTime Cold and Flu; DayTime NiteTime Severe; DayTime Nitetime Sinus Relief; DayTime Nitetime cold and flu relief; DayTime Severe Cold and Flu Relief; DayTime Severe Congestion Relief and Nighttime Severe Cough and Congestion Relief Maximum Strength; DayTime Sinus; DayTime Sinus Relief; DayTime and NiteTime; DayTime/NiteTime Severe Cold and Flu Maximum Strength; Daycap Cold & Flu Liquid Gels; Daycap Cold and Flu Liquid Gels; Daycap Sinus Liquid Gels; Dayquil Cold & Flu; Dayquil Complete; Dayquil Complete + Vicks Vapocool; Dayquil Complete + Vicks Vapocool Cold & Flu Liquid; Dayquil Cough DM + Congestion; Dayquil Sinus Liquicaps; Dayrelief PE; Daytime; Daytime Cold; Daytime Cold & Flu Relief; Daytime Cold Cough Childrens; Daytime Cold Flu; Daytime Cold Flu Non Drowsy; Daytime Cold Flu Relief; Daytime Cold Flu multi Symptom; Daytime Cold Relief Extra Strength; Daytime Cold Relief Extra Strength Tablets PE; Daytime Cold Relief Multi Symptom; Daytime Cold and Cough and NightTime Cold and Congestion Childrens; Daytime Cold and Flu; Daytime Cold and Flu Lil Drug Store Products; Daytime Cold and Flu Liquid Gels; Daytime Cold and Flu Multi Symptom; Daytime Cold and Flu Multi symptom relief; Daytime Cold and Flu Multi-symptom Relief; Daytime Cold and Flu Nighttime Cold and Flu; Daytime Cold and Flu Nitetime Cold and Flu; Daytime Cold and Flu Non Drowsy; Daytime Cold and Flu Non drowsy; Daytime Cold and Flu Relief; Daytime Cold and Flu Relief Multi-Symptom; Daytime Cold and Flu Relief Non Drowsy; Daytime Cold and Flu Relief Plus; Daytime Cold and Flu and Nighttime Cold and Flu; Daytime Cold and Flu multi symptom; Daytime Cold and Flu relief; Daytime Cold and Pain Relief; Daytime Cold, Nighttime Cold multi-symptom; Daytime Cold/Flu Relief Softgels; Daytime Cold/flu Medicine; Daytime Complete; Daytime Congestion Pressure and Pain; Daytime Congestion and Pain Sinus Relief; Daytime Cough; Daytime Cough & Cold; Daytime Cough And Cold; Daytime Cough Cold & Flu Liquid Gels; Daytime Cough and Cold; Daytime Fast Severe Cold Relief Nitetime Fast Cold and Flu Relief; Daytime Flu Relief Therapy; Daytime Flu Relief Therapy Severe Cough and Cold; Daytime Flu and Severe; Daytime Liquid Caps; Daytime Mucus Relief Nighttime Cold and Flu; Daytime Mucus Relief Severe Cold Nighttime Cold and Flu Maximum Strength; Daytime Mucus Relief Severe Cold and Nighttime Cold and Flu Maximum Strength; Daytime Mucus Relief Severe Cold/Nighttime Mucus Relief Cold and Flu; Daytime Mucus Relief Severe Congestion and Cough and Nighttime Cold and Flu Maximum Strength; Daytime Multi-Symptom Cold Relief; Daytime Multi-Symptom Cold/Flu Relief; Daytime Multi-Symptom Non-Drowsy Cold and Flu; Daytime Multi-symptom Cold Relief; Daytime Nightime Severe Cold; Daytime Nighttime; Daytime Nighttime ClearTime; Daytime Nighttime Cold Flu Relief; Daytime Nighttime Cold Flu Relief Multi Symptom; Daytime Nighttime Cold and Cough; Daytime Nighttime Cold and Cough Childrens; Daytime Nighttime Cold and Flu; Daytime Nighttime Cold and Flu Relief; Daytime Nighttime Cold and Flu Relief Combo Pack; Daytime Nighttime Cold and Flu Relief Multi-Symptom; Daytime Nighttime Cold/Flu; Daytime Nighttime Cold/flu; Daytime Nighttime Cold/flu Relief A P J; Daytime Nighttime Multi Symptom Cold Childrens; Daytime Nighttime Multi Symptom Cold Flu Relief; Daytime Nighttime Multi Symptom Cold and Flu Relief; Daytime Nighttime Severe Cold; Daytime Nighttime Severe Cold Cough and Flu Relief; Daytime Nighttime Severe Cold and Flu; Daytime Nighttime Severe Cold and Flu Relief; Daytime Nighttime Severe Cough and Cold; Daytime Nighttime Sinus Relief; Daytime Nighttime Sinus Relief Maximum Strength; Daytime Nighttime cold and flu relief; Daytime Nite Time; Daytime NiteTime; Daytime Nitetime; Daytime Nitetime Cold and Flu; Daytime Nitetime Sinus; Daytime Non Drows Cold and Flu and Nighttime Cold and; Daytime Non Drowsy; Daytime Non-Drowsy COLD/FLU; Daytime Non-Drowsy Cold and Flu; Daytime PE; Daytime PE Nitetime; Daytime PE Non Drowsy; Daytime Relief Severe Cold and Flu; Daytime SEVERE COLD and FLU; Daytime Severe; Daytime Severe Cold And Cough; Daytime Severe Cold And Flu Relief Maximum strength; Daytime Severe Cold Multi-symptom; Daytime Severe Cold Nighttime Cold and Flu; Daytime Severe Cold and Cough; Daytime Severe Cold and Cough Relief; Daytime Severe Cold and Cough and Nighttime Severe Cold and Cough; Daytime Severe Cold and Flu; Daytime Severe Cold and Flu Maximum Strength; Daytime Severe Cold and Flu Nighttime Severe Cold, Cough and Flu; Daytime Severe Cold and Flu Relief; Daytime Severe Cold and Flu Relief Maximum Strength; Daytime Severe Cold and Flu Relief Softgels; Daytime Sinus; Daytime Sinus Nighttime Sinus Maximum Strength; Daytime Sinus Non-Drowsy; Daytime Sinus Pain and Congestion Relief; Daytime Sinus Relief; Daytime Sinus Relief Extra Strength Tablet; Daytime Sinus Relief Extra Strength Tablets PE; Daytime Sinus Relief Non Drowsy; Daytime Sinus Relief and Nighttime Sinus Relief; Daytime Sinus Severe; Daytime Sinus and Congestion; Daytime Symptom Relief Extra Strength for Symptoms Of Cold and Cough; Daytime and Nighttime Cold and Flu; Daytime and Nighttime Cold and Flu Maximum Strength; Daytime and Nighttime Cold and Flu Relief; Daytime and Nighttime Cold and Flu Relief Plus; Daytime and Nighttime Cold/Flu Relief; Daytime and Nighttime Sinus Congestion PE; Daytime and Nighttime Sinus Relief; Daytime cold and flu non drowsy; Daytime cold and flu relief; Daytime sinus; Daytime sinus Non Drowsy; Daytime, Nighttime Severe Cold and Flu Relief; Daytime- Nighttime Cold and Flu; Daytime-nighttime Severe Cold and Flu; Daytime/Nighttime Cold and Flu Multi-Symptom Relief; Dcp; De-Chlor DM; Deconex; Deconex DM; Deconex DMX; Deconex Dmx; Deconex IR; Deconex Ir; Decongestant Antihistaminic Syrup; Decongestant II; Decongestant PE; Decongestant PE Non Drowsy; Deconsal CT; Deconsal DM; Defensol D; Defensol D (Multi Symptom Effervescent Tablets); Defensol-ito; Defensolito; Dehistine; Delsym Childrens Night Time Cough and Cold; Delsym Cough Plus Chest Congestion DM and Delsym Cough Plus Cold Night Time; Delsym Cough Plus Cold Day Time; Delsym Cough Plus Cold Day Time and Delsym Cough Plus Cold Night Time; Delsym Cough Plus Cold Night Time; Delsym Night Time Cough and Cold; Delsym Night Time Multi Symptom; Desenfriol-D; Desgen DM; Desgen Pediatric; Despec; Despec DM; Despec EDA Drops; Despec NR; Dexbrompheniramine Maleate and Phenylephrine Hydrochloride; Dexchlorpheniramine Maleate, Phenylephrine HCl; Dexphen w/ Codeine; Dextro Phenyl Pyril; Dextromethorphan Hydrobromide, Guaifenesin, Phenylephrine Hydrochloride; Dextromethorphan Tannate, Phenylephrine Tannate, Dexchlorpheniramine Tannate; Dg Health Childrens Mucus Relief; Dg Health Cold Head Congestion Severe Day Time; Dg Health Cold Plus Flu Relief; Dg Health Cold and Allergy Childrens; Dg Health Cold and Flu; Dg Health Cold and Flu Relief; Dg Health Cold and Flu Severe; Dg Health Day Time Severe Cold and Flu; Dg Health Day Time Severe Cold and Flu Relief; Dg Health Day Time Severe Cold and Flu Relief Night Time Severe Cold and Flu Relief; Dg Health Flu and Severe Cold and Cough; Dg Health Hemorrhoidal; Dg Health Mucus Relief; Dg Health Multi Symptom Severe Cold; Dg Health Nasal Four; Dg Health Night Time Severe Cold and Flu Relief; Dg Health Sinus Congestion and Pain; Dg Health Triacting Night Time Cold and Cough; DiBromm DM; DiBromm with PE; Dibromm Cold and Allergy Childrens; Dibromm Cold and Allergy Relief childrens; Dibromm Cold and Cough Childrens; Dibromm DM; Dibucaine HCl 0.5% / Lidocaine 15% / Phenylephrine HCl 1% / Prilocaine 5%; Dihydrocodeine BPM Phenyleph HCl; Dihydrocodeine/ BPM/ Phenyleph HCl; Dilotab II; Dimacol; Dimaphen; Dimaphen DM; Dimetane Expectorant C; Dimetane Expectorant Dc; Dimetane Expectorant Liq; Dimetane Expectorant-C Syr; Dimetane Expectorant-DC Syr; Dimetapp; Dimetapp Chewables for Kids; Dimetapp Cold & Sinus; Dimetapp Cold and Allergy; Dimetapp Cold and Cough; Dimetapp Cold and Cough and Dimetapp Nighttime Cold and Congestion; Dimetapp Cold and Cough and Nighttime Cold and Congestion; Dimetapp DM Cough & Cold; Dimetapp DM Elixir; Dimetapp DM Tab; Dimetapp Elixir; Dimetapp Extentabs; Dimetapp Extra Strength; Dimetapp Extra Strength DM Cough & Cold; Dimetapp Multi-Symptom Cold and Flu; Dimetapp Nighttime Cold Extra Strength Caplets; Dimetapp Nighttime Cold Tablets; Dimetapp Nighttime Cold and Congestion; Dimetapp Oral Infant Cold Drops; Dimetapp Oral Infant Cold and Fever Drops; Dimetapp Oral Infant Drops; Dimetapp Tab; Dimetapp-C; Dimetapp-C Syr; Diophenyl-T Solution; Diorouge Liq; Diphen; DiphenMax; Doc in the Box All Day Supply; Doctor Manzanilla Allergy and Decongestant Relief; Doctor Manzanilla Cough Suppressant and Nasal Decongestant; Doctor Manzanilla Cough and Cold; Dollar General; Dollar General Effervescent Cold Relief; DoloMax Cold Cough; Dometuss; Dometuss-DA; Dometuss-G; Dometuss-NR; Dometuss-dmx; Donatuss DC; Donatussin; Donatussin DM Drops DM; Donatussin DROPS; Dover Coldonyl; Dover Sudanyl PE; Doxylamine Succinate and Phenylephrine Hydrochloride; Dr Cocoa Day Night Combo; Dr Manzanilla DM; Dr Manzanilla PE; Dr. Butler Hemorrhoid Treatment; Dr. Cocoa Daytime Cough and Cold; Dr. Cocoa Mucus Relief; Dr. Cocoa Nighttime Cough and Cold; Dr. Cocoa for Children Daytime Cough + Cold; Dr. Cocoa for Children Nighttime Cough + Cold; DrKids Children Multi Symptom Cold and Flu; DrKids Childrens Multi Symptom Cold Cough and Congestion DM; DrKids Childrens Muti Symptom Cold Flu and Sore Throat Nighttime; DriHist SR; Dristan Cold Multisymptom; Dristan Extra Strength Caplets; Dristan Mentholated Nasal Spray; Dristan Nasal Mist; Dristan Tablets; Drs. pharmacy HEMORRHOIDAL COOLING; DryMax AF; Duo-Medihaler; Duohist DH; Duradryl; Duravent DM; Duravent PE; Dye Free Cold and Flu; Eb306 Nasal Decongestant; Ed A-hist; Ed A-hist DM; Ed Bron Gp; Ed Chlorped D; Ed-A-hist DM; Effervescent Cold Relief; Effervescent Cold Relief - Orange; Effervescent Orange Cold Relief; End-A-flu Multi-symptom Severe Cold and Cough Nighttime Formula; End-A-flu Multi-symptom Severe Cold and Cough Non Drowsy Daytime Formula; EndaCof DH; EndaCof DM; EndaCof Drops; Endacon; Endal CD; Entex LQ; Entex Lq; Entre-B; Ephrine Nose Drops; Ephrine Nose Extra Strength; Equaline Childrens Cold; Equaline Childrens Cold and Cough; Equaline Childrens Mucus Relief; Equaline Cold and Flu Relief; Equaline Daytime Cold Multi Symptom; Equaline Daytime Cold and Flu Fast Relief Nighttime Cold and Flu Fast Relief; Equaline Daytime Cold and Flu Relief; Equaline Daytime Nighttime Cold and Flu Relief; Equaline Daytime Severe Cold Fast Relief Nighttime Cold and Flu Fast Relief; Equaline Daytime Severe Cold and Flu Relief; Equaline Daytime and Nighttime Cold; Equaline Daytime and Nighttime Cold and Flu Relief; Equaline Effervescent Cold Relief; Equaline Fast Acting; Equaline Flu and Severe Cold and Cough; Equaline Flu and Sore Throat; Equaline Hemorrhoidal; Equaline Mucus Relief; Equaline Multi Symptom Flu and Severe Cold Daytime; Equaline Nasal; Equaline Nasal Decongestant PE Non Drowsy Maximum Strength; Equaline Night Time Cold and Cough Childrens; Equaline Nighttime Severe Cold and Flu; Equaline Sinus Congestion and Pain Daytime; Equaline Tussin Cough and Cold; Equaline Tussin Multi Symptom; Equaline congestion relief; Equaline hemorrhoial; Equaline hemorrhoidal cooling; Equaline mucus relief; Equaline nighttime cold multi symptom; Equate Childrens Cold and Cough; Equate Childrens Multi Symptom Cold; Equate Childrens Multi symptom Cold Nighttime; Equate Day time cold and flu multi symptom relief; Equate DayTime NiteTime; Equate DayTime NiteTime Severe; Equate DayTime Severe; Equate Daytime; Equate Daytime Cold and Flu; Equate Daytime Cold and Flu Nighttime Cold and Flu; Equate Daytime Nighttime Cold and Flu; Equate Daytime Nitetime; Equate Daytime Severe; Equate Daytime Vapor Ice Cold and Flu; Equate Effervescent Cold Relief; Equate Flu and Severe Cold and Cough; Equate Health Non Drowsy DAY Cold and Flu Plus and NIGHTTIME Cold and Flu Plus; Equate Hemorrhodial Suppositories; Equate Hemorrhoidal; Equate Nasal; Equate Nasal Decongestant PE Maximum Strength; Equate Night Time Cold and Cough Childrens; Equate Nighttime Cold and Flu; Equate Nighttime Vapor Ice Cold and Flu; Equate NiteTime DayTime; Equate Nitetime Severe; Equate Severe Cold Multi Symptom; Equate Sinus Day Time; Equate Sinus Night Time; Equate Suphedrine PE; Equate Tussin CF; Equate Vapor Ice Cold and Flu; Equate daytime severe vaporice cold and flu nighttime severe vapor ice cold and flu; Equate hemorrhoidal; Exactuss Total Release; Exchange Select Hemorrhoidal; Expectorant-decongestant Syrup; Extra Fast Coltalin; Extra Strength Cold Liquid; Extra Strength Cold Medication Day Time Relief; Extra Strength Cold Medication Night Time Relief; Extra Strength Cold Syrup; Extra Strength Contac Cold & Sinus Hot Medicated Drink; Extra Strength Contac Cold & Sore Throat; Extra Strength Contac Complete Cough, Cold & Flu; Extra Strength Contac Plus Cold Nasal Congestion; Extra Strength DM Cough and Cold Liquid; Extra Strength DM Cough and Cold Syrup; Extra Strength Daytime Cold Relief PE; Extra Strength Daytime Flu PE; Extra Strength Multi-symptom Relief Sugar Free; Extra Strength Nasal; Extra Strength Neocitran Cold Syrup With Mucus Relief; Extra Strength Neocitran Flu Syrup; Extra Strength Neocitran Total Symptom Relief - Sugar Free; Extra Strength Neocitran Total Syrup; Extra Strength Nighttime Cold Relief PE; Extra Strength Nighttime Flu PE; Extra Strength Pharmacitron; Extra Strength Sinus Congestion and Headache Day Time Relief; Extra Strength Sinus Relief Nasal Decongestant; Extra Strength Total Symptom Relief Sugar-free; Extra Strength Tylenol Allergy; Extra Strength Tylenol Cold Daytime; Extra Strength Tylenol Cold Nighttime; Extra Strength Tylenol Cold and Flu Daytime; Extra Strength Tylenol Cold and Flu Nighttime; Extra Strength Tylenol Flu Daytime; Extra Strength Tylenol Flu Nighttime; Extra Strength Tylenol Sinus Daytime; Extra Strength Tylenol Sinus Nighttime; FLONASE Headache and Allergy Relief; FLU-MED DAYTIME SEVERE COLD and COUGH non drowsy formula; FLU-MED NIGHTTIME SEVERE COLD and COUGH; Facol Cold and Flu Day; Facol Cold and Flu Day and Night; Facol Cold and Flu Night; Family Care Childrens Decongestant Nose Drops; Family Care Cold and Flu Multi Symptom; Family Care Cold and Flu Multi Symptom Relief SGC Daytime; Family Care Hemorrhoidal; Family Care Multi Symptom Cold; Family Dollar Multi-Symptom Severe Cold Green Tea and Honey Lemon flavors; Family Dollar Nighttime Severe Cold and Cough honey lemon infused with chamomile and white tea flavors; Family Wellness; Family Wellness Effervescent Cold Relief Orange; Family Wellness Effervescent Cold Relief Original; Family Wellness Hemorrhoidal; Family Wellness Multi Symptom Severe Cold; Family Wellness Severe Cold and Cough; Family Wellness flu and severe cold and cough nighttime; Family wellness; Family wellness hemorrhoidal; Fargelin Hemorrhoidal; Fast Acting Cold, Flu and Sore Throat Relief; Fast Acting Mucus Relief Maximum Strength Severe Cough and Congestion; Fast Cold and Flu Relief; Fast Dissolving Daytime - Nighttime Cold and Flu; Fast Maximum Night Time Cold and Flu; Fast Maximum Severe Congestion and Cough; Fast Mucus Relief; Fast Mucus Relief Cold Flu and Sore Throat Maximum Strength Multi-Symptom; Father Johns Cough Medicine Plus; Febrix Kids PLUS; Fedrin; First Aid Shot Therapy Cold Relief; Fleet; Flu Multi Symptom Relief; Flu Relief Childrens; Flu Relief Cold and Chest Congestion; Flu Relief Therapy; Flu Relief Therapy Day Time; Flu Relief Therapy Daytime; Flu Relief Therapy Daytime Severe Cold; Flu Relief Therapy Night Time; Flu Relief Therapy Nighttime; Flu Relief Therapy Nighttime Severe Cold; Flu Relief Therapy Severe Cough and Cold Nighttime; Flu and Severe Cold; Flu and Severe Cold Daytime Relief; Flu and Severe Cold Nighttime Relief; Flu and Severe Cold and Cough; Flu and Severe Cold and Cough Daytime; Flu and Severe Cold and Cough Night Time; Flu and Severe Cold and Cough Nighttime; Flu and Severe Cold and Cough daytime; Flu and Sore Throat; Flu and Sore Throat Multi Symptom; Flu and Sore Throat Relief; Flu and Sore Throat Soothing Warm Relief; Flu and severe cold daytime nighttime; Flu, Cough and Sore Throat; Flu-away-extra Strength; Flu-away-regular Strength; Fluact; Formu Care Flu and Severe Cold and Cough Night Time; Formulation R; Formulation R Hemorrhoidal Ointment; Formulation R Hemorrhoidal Suppositories; Freds Hemorrhoidal; Fresh Clear; Fulton Street Market Cold; Fulton Street Market Nighttime Flu and Severe Cold and Cough; G-P-tuss Dxp; G-Supress DX; G-bronco-D; G-tron Ped; G-tron Pediatric Drops; G-tusicof; GNP Hemorrhoidal; GNP Mucus Relief PE; Gencontuss; Gilphex; Gilphex TR; Giltuss; Giltuss Allergy Plus; Giltuss Allergy Plus Cough and Congestion; Giltuss Childrens Allergy Plus Cough and Congestion; Giltuss Childrens Cough and Cold; Giltuss Childrens MultiSymptom Cold and Flu; Giltuss Cough and Cold; Giltuss D Allergy and Congestion; Giltuss MultiSymptom Cold and Flu; Giltuss Pediatric; Giltuss Sinus and Chest Congestion; Giltuss TR; Giltuss Total Release; Glen PE; Glenmax PEB; Glenmax PEB DM; Glenmax PEB DM FORTE; Glycerin, Lidocaine, Petrolatum, and Phenylephrine Hydrochloride; Glycerin, Phenylephrine Hydrochloride, Pramoxine, White Petrolatum; Good Neighbor Pharmacy Allergy Multi Symptom; Good Neighbor Pharmacy Childrens Mucus Relief; Good Neighbor Pharmacy Cleartime; Good Neighbor Pharmacy Cold; Good Neighbor Pharmacy Cold Head Congestion; Good Neighbor Pharmacy Cold Multi Symptom; Good Neighbor Pharmacy Cold Plus Multi Symptom; Good Neighbor Pharmacy Cold Severe; Good Neighbor Pharmacy Cold and Allergy Childrens; Good Neighbor Pharmacy Cold and Allergy PE; Good Neighbor Pharmacy Cold and Cough; Good Neighbor Pharmacy Cold and Flu Night Time; Good Neighbor Pharmacy Congestion Relief; Good Neighbor Pharmacy Day Time; Good Neighbor Pharmacy Day Time Cold and Flu; Good Neighbor Pharmacy Day Time Severe; Good Neighbor Pharmacy Fast Acting Nasal; Good Neighbor Pharmacy Flu and Severe Cold Daytime; Good Neighbor Pharmacy Flu and Severe Cold and Cough; Good Neighbor Pharmacy Flu and Severe Cold and Cough Nighttime; Good Neighbor Pharmacy Flu and Sore throat; Good Neighbor Pharmacy Hemorrhoidal; Good Neighbor Pharmacy Mucus Relief PE PE; Good Neighbor Pharmacy Mucus Relief Severe Cold; Good Neighbor Pharmacy Mucus Relief Severe Cold Cold and Flu Night Time; Good Neighbor Pharmacy Mucus Relief Severe Congestion and Cold; Good Neighbor Pharmacy Mucus Relief cold and sinus; Good Neighbor Pharmacy Nasal Decongestant PE Non Drowsy; Good Neighbor Pharmacy Nasal Four; Good Neighbor Pharmacy Night Time; Good Neighbor Pharmacy Night Time Severe; Good Neighbor Pharmacy Nose; Good Neighbor Pharmacy Severe Cold; Good Neighbor Pharmacy Severe Day Time; Good Neighbor Pharmacy Severe Night Time; Good Neighbor Pharmacy Severe Sinus Congestion; Good Neighbor Pharmacy Sinus; Good Neighbor Pharmacy Sinus Congestion and Pain; Good Neighbor Pharmacy Sinus Relief; Good Neighbor Pharmacy Sinus Relief Day Time Night Time; Good Neighbor Pharmacy Sinus and Allergy PE; Good Neighbor Pharmacy Tussin CF; Good Neighbor Pharmacy Tussin CF Max; Good Neighbor pharmacy severe night time; Good Sense Allergy Multi Symptom; Good Sense Childrens Cold and Allergy; Good Sense Childrens Cold and Cough; Good Sense Childrens Mucus Relief; Good Sense Cold; Good Sense Cold Head Congestion; Good Sense Cold Head Congestion Severe; Good Sense Cold Max; Good Sense Cold and Allergy; Good Sense Cold and Flu Severe; Good Sense Day Time Night Time Cold and Flu; Good Sense Daytime; Good Sense Daytime non drowsy cold and flu; Good Sense Effervescent Cold Relief; Good Sense Flu and Severe Cold and Cough; Good Sense Flu and Severe Cold and Cough Daytime; Good Sense Flu and Severe Cold and Cough Nighttime; Good Sense Flu and Sore Throat; Good Sense Hemorrhoidal; Good Sense Hemorrhoidal Maximum Strength Pain Relief; Good Sense Mucus Relief Cold Flu and Sore Throat; Good Sense Mucus Relief Cold and Sinus; Good Sense Mucus Relief Severe Congestion and Cold; Good Sense Mucus Relief cold flu and sore throat; Good Sense Multi Symptom Flu and Severe Cold; Good Sense Nasal Decongestant PE; Good Sense Nasal Four; Good Sense NightTime DayTime Cold and Flu; Good Sense Severe Cold; Good Sense Severe Day Time Cold and Flu; Good Sense Severe Daytime Cold and Flu; Good Sense Severe Daytime Cold and Flu Severe Nighttime Cold and Flu; Good Sense Severe NightTime; Good Sense Severe NightTime Cold and Flu; Good Sense Severe Sinus Congestion; Good Sense Severe Tussin CF Max; Good Sense Sinus Congestion and Pain; Good Sense Sinus Relief; Good Sense Sinus and Allergy PE; Good Sense Sinus plus Headache; Good Sense Tussin CF; Good Sense Tussin CF Cough and Cold; Good Sense Tussin CF Max; Good Sense cold multi symptom; Good Sense hemorrhoidal; Good neighbor pharmacy mucus relief; Goyescas 7 Syrups Alcohol and Sugar Free Cough and Cold; Goyescas 7 Syrups Original Cough and Cold; Goyescas 7 Syrups with Bee Honey Cough and Cold; Goyescas Broncovac 1 Cough and Cold; Goyescas Broncovac 2 Cough and Cold; Goyescas Broncovac 3 Cough and Cold; Green Guard Advanced Sinus Relief; Green Guard Allergy 2 Relief; Green Guard Cough and Cold Relief; Grippe Extra Fort Jour; Grippe Extra Fort Nuit; Guaifenesin Phenylephrine Dextromethorphan; Guaifenesin, Phenylephrine Hydrochloride; Guiatex PE; H E B MAX SEVERE CONGESTION and COUGH Maxium Strength; HEB DayTime Flu And Severe Cold And Cough; HEB HEMORRHOIDAL COOLING Gel; HEB Hemorrhoidal; HEB Maximum Strength Pain Relief Hemorrhoidal; HEMORRHOIDALCREAMPro; Handy Solutions Cold Relief; Handy Solutions Sinus Congestion and Pain Relief; Harmon Face Values Tussin CF; Harris Teeter Day Time; Harris Teeter DayTime; Harris Teeter DayTime NightTime; Harris Teeter Hemorrhoidal; Harris Teeter Sinus Relief; Harris Teeter Tussin; Head Congestion; Head Congestion Cold Relief; Head Congestion Cold Relief Severe Non-Drowsy; Head Congestion Daytime and Nighttime Cold; Head Congestion Flu Severe PE; Head Congestion Mucus PE; Head Congestion Plus Flu Severe PE; Head Congestion Plus Mucus PE; Head Congestion and Cold Relief Daytime; Head Congestion and Flu Severe; Head Congestion and Flu Severe Relief; Head Congestion and Mucus; Head Congestion plus Flu Severe; Head Congestion plus Flu Severe PE; Head Congestion plus Mucus PE; Head and Cold; Health Mart Adult Tussin; Health Mart Childrens Allergy Plus Congestion; Health Mart Childrens Cold and Flu; Health Mart Cold and Allergy Childrens; Health Mart Cold and Cough childrens; Health Mart Day Time Cold and Flu Night Time Cold and Flu; Health Mart Daytime; Health Mart Hemorrhoidal; Health Mart Nasal Decongestant PE; Health Mart Nose; Health Mart Severe Cold Cough and Flu; Health Mart Severe Cold and Flu; Health Mart daytime; Health Mart severe cold cough and flu; HealthMart Mucus Relief FM; Healthy Accents Allergy Multi Symptom; Healthy Accents Childrens Cold and Cough; Healthy Accents Childrens Multi Symptom Fever and Cold; Healthy Accents Cleartime; Healthy Accents Cold; Healthy Accents Cold Head Congestion; Healthy Accents Cold and Allergy Childrens; Healthy Accents Cold and Flu; Healthy Accents Congestion Relief; Healthy Accents Day Time Night Time; Healthy Accents Daytime; Healthy Accents Daytime Cold and Flu; Healthy Accents Daytime Nighttime Cold and Flu; Healthy Accents Hemorrhoidal; Healthy Accents Mucus Relief Severe Cold; Healthy Accents Mucus Relief Severe Congestion and Cold; Healthy Accents Mucus Relief cold and sinus; Healthy Accents Mucus Relief cold flu and sore throat; Healthy Accents Multi Symptom Cold; Healthy Accents Nasal; Healthy Accents Nasal Decongestant Maximum Strength; Healthy Accents Severe Cold; Healthy Accents Severe Cold Daytime; Healthy Accents Sinus; Healthy Accents Sinus Congestion and Pain Day Time; Healthy Accents Sinus Day Time; Healthy Accents Sinus Relief; Healthy Accents Tussin CF; Healthy Accents cold head congestion daytime non drowsy; Healthy Accents hemorrhoidal; Healthy accents hemorrhoidal; Heb Nasal; Help I Have a Stuffy Nose; Help I Have the Sniffles; Hem Rid; HemAway; Hemorrhoid Anesthetic; Hemorrhoid Master Hemorrhoid and Fissure; Hemorrhoid Relief; Hemorrhoid and Fissure Dr. Butler; Hemorrhoidal; Hemorrhoidal Anesthetic; Hemorrhoidal Cooling; Hemorrhoidal Cooling Gel; Hemorrhoidal Cream; Hemorrhoidal Cream with Aloe; Hemorrhoidal Maximum Strength Pain Relief; Hemorrhoidal Ointment; Hemorrhoidal Rectal; Hemorrhoidal Relief; Hemorrhoidal Relief Cream; Hemorrhoidal Relief Ointment; Hemorrhoidal Soothing Well at Walgreens; Hemorrhoidal Suppositories; Hemorrhoidal With Lidocaine; Hemorrhoidal cooling; Hemorrhoidal-Ointment; HemorrhoidalOintment; Hemorrhoidalcreamprocure; Hemorrodil; Hemorroidal Cooling gel; Histenol Forte II; Histenol II; Histex Ac; Histex-DM; Histex-PE; Hot Lemon Cold & Sore Throat Night; Hot Lemon Cold and Flu Relief Extra Strength; Hot Lemon Cold and Flu Relief Regular Strength; Hot Lemon Cold and Flu Relief Super Strength; Hot Lemon Cough and Cold Relief DM; Hot Lemon Cough and Colds Relief DM; Hot Lemon Extra Strength; Hot Lemon Extra Strength Cold & Congestion; Hot Lemon Extra Strength Cold & Sinus Night; Hot Lemon Extra Strength Total Cold Night; Hot Lemon Regular - Pwr; Hot Lemon Relief - Extra Strength; Hot Lemon Relief Extra Strength; Hot Lemon Relief Pck-pws; Hot Lemon Relief Powder; Hot Lemon Relief Powder Extra Strength; Hot Lemon Relief Powder Regular Strength; Hot Lemon Relief Regular Strength; Hot Lemon Relief for Cold Symptoms Ext Str; Hot Lemon Relief for Cold Symptoms Pws; Hot Lemon Relief for Symptoms Of Cold and Flu; Hot Lemon Relief for Symptoms Of Cold and Flu Extra Strength; Hot Lemon Relief for Symptoms Of Cold and Flu Forte; Hot Lemon Relief for Symptoms Of Cold and Flu Regular Strength; Hot Lemon Relief for Symptoms Of Cough and Cold; Hot Lemon Relief-extra Strength Pck-pws; Hot Lemon Total Cold Extra Strength; Hot Lemon for Colds Powder; Hot Liquid Relief for Symptoms Of Cold and Cough; Hot Liquid Relief for Symptoms Of Flu and Sore Throat; Humana Pharmacy Daytime Cold and Flu Relief; Humana Pharmacy Hemorrhoidal; Humana Pharmacy Nasal Decongestant PE; Humana Pharmacy Sinus Relief; Humana Pharmacy Tussin Multi Symptom Cold; HyVee Health Effervescent Cold Relief; Hycomine; Hycomine-S; Igualtuss; J-max; Jack & Jill Bedtime Cough & Cold; Jack & Jill Complete; Jack & Jill Cough & Cold; Junior Strength Tylenol Cold and Cough; KMart - Fast Maximum Cold and Sinus; KMart - Fast Maximum Cold, Flu and Sore Throat Relief; KMart - Fast Maximum Severe Congestion and Cough; Kids Cold Chewable Tablets; Kids-EEZE Cough and Cold; Kirkland Signature Cold; Klernaz; Kroger Cough Cold and Flu; Kroger DayTime Flu plus Severe Cold and Cough; Kroger Daytime Cold and Flu Softgel; Kroger Daytime and Nighttime Cold and Flu Softgel; Kroger Effervescent Cold Relief; Kroger Maximum Strength Severe Congestion and Cough; Kroger NiteTime Cold and Flu; Kroger NiteTime Flu plus Severe Cold and Cough; Kroger Sinus Pain and Pressure; L-Oral COLD AND FLU RELIEF Syrup; LEADER Chest Congestion Relief PE; LIDL Daytime Cold and Flu Relief Multi Symptom; Leader; Leader Allergy Multi Symptom; Leader Childrens Cold and Allergy; Leader Childrens Cold and Cough; Leader Childrens Mucus Relief; Leader Childrens Mucus Relief Multi Symptom Cold; Leader Cold Head Congestion; Leader Cold Relief; Leader Cold and Allergy; Leader Cold and Flu; Leader Congestion Relief; Leader Day Time; Leader Day Time Multi Symptom Cold Flu Relief; Leader Day time Cough and Cold Childrens; Leader Daytime Cold and Flu; Leader Daytime Severe Cold and Flu; Leader Flu and Severe Cold and Cough; Leader Hemorrhoidal; Leader Hemorrholidal; Leader Mucus Relief; Leader Mucus Relief Cold Flu and Sore Throat; Leader Mucus Relief Cold and Sinus; Leader Mucus Relief Sever Cold; Leader Mucus Relief Severe Congestion and Cold; Leader Nasal Decongestant PE; Leader Nasal Decongestant PE Maximum Strength; Leader Night Time Cough and Cold Childrens Triacting; Leader Nighttime Sever Cold and Flu; Leader Nighttime Severe Cold and Flu; Leader Nite Time Severe Cold and Flu; Leader Nose; Leader Severe Cold and Cough; Leader Severe Cold and Flu; Leader Severe Sinus Congestion; Leader Sinus Congestion and Pain Daytime Non Drowsy; Leader Sinus Relief; Leader Sinus and Allergy PE; Leader Tussin; Leader Tussin CF; Leader Tussin CF Max; Leader mucus relief cold and sinus; Leader multi symptom flu and severe cold; Leader severe cold and flu; Leader sinus relief; Lemon Time; Lil Drug Store Allergy Sinus Relief; Lil Drug Store Cold Relief; Lil Drug Store Multi-Symptom Sinus Relief; Lil Drug Store Multi-Symptom Sinus Severe Congestion; Lil Drug Store NyQuil Severe Cold and Flu, Max Strength; Lil Drug Store Tylenol Cold plus Flu Severe; Lil Drug Store Tylenol Sinus Severe; Liquibid D-R; Liquibid PD-R; Little Colds Decongestant Plus Cough; Little Colds Multi Symptom Cold; Little Colds Multi Symptom Cold plus Fever; Little Colds Multi-symptom Cold Formula; Little Noses Decongestant Nose Drops; Little Remedies Decongestant Nasal Drops; Little Remedies Decongestant Nose Drops; LoHist; LoHist DM; LoHist PEB; LoHist PEB DM; Lucky SuperSoft; Lucky SuperSoft Hemorrhoidal; Lusair; M-Hist DM; M-end PE; MAX Cold, Flu, and Sore Throat; MAXIUM STRENGTH SEVERE CONGESTION and COUGH MAX; Major Prep Hemorrhoidal; Makesense; Mapap Sinus Congestion and Pain Maximum Strength; Maxi-Tuss CD; Maxi-Tuss Jr; Maxi-Tuss PE; Maxi-Tuss PE Jr; Maxi-Tuss PE Max; Maxichlor PEH DM; Maximum Allergy Relief; Maximum Strenght Day Cold and Flu Formula; Maximum Strength Cold Flu and Sore Throat; Maximum Strength Cold and Flu; Maximum Strength Cold, Flu and Sore Throat; Maximum Strength Congestion and Headache; Maximum Strength Day-night Cold and Flu Formula; Maximum Strength Daytime - Nighttime Cold and Flu Cold and Flu; Maximum Strength Daytime Cold/Flu Relief; Maximum Strength Daytime Nighttime Cold and Flu; Maximum Strength Daytime Nighttime Sinus Relief; Maximum Strength Daytime Non Drowsy Severe Cold and Flu; Maximum Strength Mucinex Fast-Max Cold and Flu; Maximum Strength Mucinex Fast-Max Cold and Flu and Mucinex NightShift Severe Cold and Flu; Maximum Strength Mucinex Fast-Max Day Cold and Flu and Night Cold and Flu; Maximum Strength Mucinex Fast-Max Day Time Cold and Flu and Maximum Strength Mucinex Fast-Max Night Time Cold and Flu; Maximum Strength Mucinex Fast-Max Day Time Cold and Flu and Night Time Cold and Flu; Maximum Strength Mucinex Fast-Max Night Time Cold and Flu; Maximum Strength Mucinex Sinus-Max Pressure, Pain and Cough; Maximum Strength Mucinex Sinus-Max Severe Congestion and Pain; Maximum Strength Mucinex Sinus-Max Severe Congestion and Pain Clear and Cool; Maximum Strength Mucinex Sinus-Max Severe Congestion and Pain and Mucinex Nightshift Sinus; Maximum Strength Mucus Relief Cold Flu and Sore Throat; Maximum Strength Mucus Relief Cold,Flu and Sore Throat; Maximum Strength Mucus Relief Severe Congestion and Cough; Maximum Strength Mucus Relief Severe Congestion and Cough Cooling Menthol; Maximum Strength Nasal Decongestant; Maximum Strength Night Time Cold and Flu Relief; Maximum Strength Nighttime Cold and Flu; Maximum Strength Nighttime Cold/Flu Relief; Maximum Strength Nighttime Sever Cold and Flu; Maximum Strength Non Drowsy Day and Night Cold and Flu; Maximum Strength Non Drowsy Daytime Severe Cold and Flu; Maximum Strength Severe Congestion Relief; Maximum Strength Severe Congestion and Cough; Maximum Strength Severe Sinus Pressure, Pain and Cough Relief; Maximum Strenth Night Cold and Flu Formula; Maxiphen; Maxiphen DM; Mayinglong Bezornil Hemorrhoidal; McKesson Phenylephrine HCl; McKesson Sinus Pain and Pressure Relief; Medi First Plus Sinus Pain and Pressure; Medi First Sinus Pain and Pressure; Medi-First Cold Relief; Medi-First Cough Cold; Medi-First Plus Cold Relief; Medi-First Plus Cough Cold; Medi-First Plus Sinus Decongestant; Medi-First Sinus Decongestant; MediGummies Allergy and Sinus; MediGummies Cold and Sinus; Medicated Hemorrhoidal CVS; Medique CCP Caffeine Free; Medique Cold Cough Product; Medique Decorel Forte; Medique Decorel Forte Plus; Medique Medi-Phenyl; Medique Medicidin D; Medique Onset Forte; Medique at Home Cold Relief; Medique at Home Decorel Forte; Meds on the Go; Meijer Daytime Severe Cold and Cough Berry infused with Menthol and Green Tea flavors; Meijer Effervescent Cold Relief; Meijer Maximum Strength Severe Congestion and Cough; Meijer Multi-Symptom Severe Cold Green Tea and Honey Lemon flavors; Meijer Nighttime Severe Cold and Cough Honey Lemon infused with Chamomile and White Tea Flavors; Members Mark Allergy; Miclara DM; Mineral Oil, Petrolatum and Phenylephrine HCl; Mineral Oil, Petrolatum, Phenylephrine Hydrochloride, Shark Liver Oil; Minims Phenylephrine Hydrochloride; Mintuss DR; Moore Medical MooreBrand Severe Cold Relief; Moore Medical Sinus Pain and Pressure Relief; MooreBrand Phenylephrine; MucaphEd; Mucinar Kids PLUS; Mucinar PLUS; Mucinex Childrens Cold and Flu; Mucinex Childrens Cough and Congestion; Mucinex Childrens Day Time Multi-Symptom Cold and Mucinex Childrens Night Time Multi-Symptom Cold Triple Pack; Mucinex Childrens Day Time Multi-Symptom Cold and Night Time Multi-Symptom Cold; Mucinex Childrens FreeFrom Multi-Symptom Cold and Flu Nighttime; Mucinex Childrens FreeFrom Multi-Symptom Cold and Stuffy Nose; Mucinex Childrens FreeFrom Multi-Symptom Cold, Flu and Sore Throat; Mucinex Childrens FreeFrom Multi-Symptom Cold, Flu and Sore Throat and Mucinex Childrens FreeFrom Multi-Symptom Cold and Flu Nighttime; Mucinex Childrens Multi-Symptom Cold; Mucinex Childrens Multi-Symptom Cold and Sore Throat; Mucinex Childrens Multi-Symptom Cough, Cold and Fever; Mucinex Childrens Night Time Multi-Symptom Cold; Mucinex Childrens Stuffy Nose and Chest Congestion; Mucinex Fast Max Day Time Severe Congestion and Cough and Night Time Cold and Flu; Mucinex Fast-Max Cold and Flu; Mucinex Fast-Max Cold and Flu Arctic Burst Maximum Strength; Mucinex Fast-Max Cold and Flu Maximum Strength; Mucinex Fast-Max Cold and Flu and Mucinex NightShift Cold and Flu; Mucinex Fast-Max Cold and Sinus; Mucinex Fast-Max Cold, Flu and Sore Throat; Mucinex Fast-Max Cold, Flu and Sore Throat Clear and Cool; Mucinex Fast-Max Cold, Flu and Sore Throat Maximum Strength; Mucinex Fast-Max Cold, Flu and Sore Throat and Mucinex NightShift Cold and Flu; Mucinex Fast-Max Congestion and Headache; Mucinex Fast-Max Congestion and Headache Clear and Cool; Mucinex Fast-Max Congestion and Headache Maximum Strength; Mucinex Fast-Max Day Cold and Flu and Mucinex Nightshift Night Severe Cold and Flu Maximum Strength; Mucinex Fast-Max Day Cold and Flu and Night Cold and Flu Maximum Strength; Mucinex Fast-Max Day Severe Cold and Night Cold and Flu; Mucinex Fast-Max Day Severe Congestion and Cough and Mucinex Nightshift Night Cold and Flu Maximum Strength; Mucinex Fast-Max Day Severe Congestion and Cough and Night Cold and Flu; Mucinex Fast-Max Day Time Cold and Flu and Night Time Cold and Flu; Mucinex Fast-Max Day Time Severe Cold and Mucinex Fast-Max Night Time Cold and Flu Maximum Strength; Mucinex Fast-Max Day Time Severe Congestion and Cough - Mucinex Fast-Max Night Time Cold and Flu Maximum Strength; Mucinex Fast-Max Day Time Severe Congestion and Cough and Mucinex Fast-Max Night Time Cold and Flu Maximum Strength; Mucinex Fast-Max Night Time Cold and Flu; Mucinex Fast-Max Night Time Cold and Flu Clear and Cool; Mucinex Fast-Max SEVERE COLD; Mucinex Fast-Max Severe Cold; Mucinex Fast-Max Severe Cold and Sinus; Mucinex Fast-Max Severe Congestion and Cold; Mucinex Fast-Max Severe Congestion and Cough; Mucinex Fast-Max Severe Congestion and Cough Arctic Burst Maximum Strength; Mucinex Fast-Max Severe Congestion and Cough Clear and Cool; Mucinex Fast-Max Severe Congestion and Cough Clear and Cool and Maximum Strength Mucinex Nightshift Cold and Flu Clear and Cool; Mucinex Fast-Max Severe Congestion and Cough Clear and Cool and Mucinex Fast-Max Night Time Cold and Flu Clear and Cool; Mucinex Fast-Max Severe Congestion and Cough Liquid Pouches; Mucinex Fast-Max Severe Congestion and Cough and Mucinex Nightshift Cold and Flu; Mucinex FreeFrom Cold and Flu Daytime; Mucinex FreeFrom Cold and Flu Daytime and Mucinex FreeFrom Cold and Flu Nighttime; Mucinex FreeFrom Cold and Flu Nighttime; Mucinex FreeFrom Cold, Flu and Congestion; Mucinex FreeFrom Severe Congestion and Cough; Mucinex Junior Cold and Flu; Mucinex Multi-action Cold & Sinus Liquid; Mucinex Multi-action Congestion & Cold Caplets; Mucinex Multi-action Congestion, Cold & Cough; Mucinex Multi-action Congestion, Cold & Cough Solution; Mucinex Multi-action Congestion, Cold & Flu; Mucinex Multi-action Congestion, Stuffy Nose & Cough Liquid; Mucinex Nightshift Cold and Flu Clear and Cool; Mucinex Nightshift Severe Cold and Flu; Mucinex Nightshift Severe Cold and Flu Arctic Burst; Mucinex Nightshift Severe Cold and Flu Maximum Strength; Mucinex Nightshift Sinus; Mucinex Nightshift Sinus Clear and Cool; Mucinex Nightshift Sinus Maximum Strength; Mucinex Sinus - Max Day / Night; Mucinex Sinus-Max Day Night; Mucinex Sinus-Max Day Night Maximum Strength; Mucinex Sinus-Max Day Pressure, Pain and Cough and Mucinex Nightshift Night Sinus Maximum Strength; Mucinex Sinus-Max Day Time Severe Congestion Relief and Mucinex Sinus-Max Night Time Congestion and Cough Maximum Strength; Mucinex Sinus-Max Day and Night Maximum Strength; Mucinex Sinus-Max Night Time Congestion And Cough; Mucinex Sinus-Max Pressure and Pain; Mucinex Sinus-Max Pressure, Pain and Cough; Mucinex Sinus-Max Pressure, Pain and Cough Maximum Strength; Mucinex Sinus-Max Pressure, Pain and Cough and Mucinex Sinus-Max Severe Congestion Relief Clear and Cool; Mucinex Sinus-Max Severe Congestion Relief; Mucinex Sinus-Max Severe Congestion Relief Clear and Cool; Mucinex Sinus-Max Severe Congestion Relief Maximum Strength; Mucinex Sinus-Max Severe Congestion and Pain; Mucinex Sinus-Max Severe Congestion and Pain Maximum Strength; Mucinex Sinus-Max Severe Congestion and Pain, Maximum Strength; Mucinex Sinus-action Complete Congestion and Sinus Pain; Mucinex Sinus-action Pressure, Pain & Congestion; Mucus Congestion and Cough Relief Childrens; Mucus Multi Symptom Cold Relief Childrens; Mucus Relief; Mucus Relief All In One Cold and Flu; Mucus Relief All In One Daytime Nighttime Cold Flu Maximum Strength; Mucus Relief All in One Maximum Strength; Mucus Relief Cold Flu Sore Throat; Mucus Relief Cold Flu Sore Throat Maximum Strength; Mucus Relief Cold Flu and Sore Throat; Mucus Relief Cold Flu and Sore Throat Max Maximum Strength; Mucus Relief Cold Flu and Sore Throat Maximum Strength; Mucus Relief Cold and Flu; Mucus Relief Cold and Flu All In One; Mucus Relief Cold and Flu All in One; Mucus Relief Cold and Flu all in one; Mucus Relief Cold and SInus Max Maximum Strength; Mucus Relief Cold and Sinus; Mucus Relief Cold and Sinus Maximum Strength; Mucus Relief Cold, Flu and Sore Throat; Mucus Relief Cold, Flu and Sore Throat Maximum Strength; Mucus Relief Cold, Flu, Sore Throat Maximum Strength; Mucus Relief Cold, Flu, and Sore Throat Maximum Strength; Mucus Relief Complete; Mucus Relief Congestion Cough Maximum Strength Severe Congestion and Cough; Mucus Relief Congestion and Cough Maximum Strength; Mucus Relief Congestion and Headache Maximum Strength; Mucus Relief D Immediate Release; Mucus Relief DM MAX Maximum Strength; Mucus Relief Day Time and Night Time; Mucus Relief Daytime Severe Cold Nighttime Cold and Flu Maximum Strength; Mucus Relief Daytime/Nighttime; Mucus Relief Daytime/Nighttime/Maximum Strength; Mucus Relief MAXIMUM STRENGTH; Mucus Relief Maximum Strength; Mucus Relief Maximum Strength Multi Symptom Relief; Mucus Relief Maximum Strength Severe Congestion and Cough; Mucus Relief Maximum StrengthCold Flu and Sore Throat; Mucus Relief Nighttime Cold Flu Maximum StrengthCold Flu and Sore Throat; Mucus Relief Nighttime Congestion Cough Maximum Strength; Mucus Relief PE; Mucus Relief PE Sinus Congestion; Mucus Relief Plus; Mucus Relief Severe Cold; Mucus Relief Severe Cold Daytime Cold and Flu Nighttime; Mucus Relief Severe Cold Daytime Maximum Strength; Mucus Relief Severe Congestion Cough Maximum Strength; Mucus Relief Severe Congestion Cough Night Time Cold and Flu Maximum Strength; Mucus Relief Severe Congestion and Cold; Mucus Relief Severe Congestion and Cold Max Maximum Strength; Mucus Relief Severe Congestion and Cough; Mucus Relief Severe Congestion and Cough Maximum Strength; Mucus Relief Severe Congestion and Cough Multi Symptom Relief; Mucus Relief Severe Congestion and Sinus; Mucus Relief Severe Cough and Congestion; Mucus Relief Severe Sinus Congestion; Mucus Relief Severe Sinus Congestion Maximum Strength; Mucus Relief Sinus; Mucus Relief Sinus Congestion Daytime Nighttime Maximum Strength; Mucus Relief Sinus Day and Night; Mucus Relief Sinus Pressure Pain and Cough; Mucus Relief Sinus Pressure and Pain; Mucus Relief Sinus Pressure, Pain and Cough; Mucus Relief Sinus Severe Congestion Relief; Mucus Relief Sinus Severe Congestion and Pain; Mucus Relief cold and flu Daytime/Nighttime; Mucus Relief cold and sinus; Mucus Relief cold flu and sore throat; Mucus Relief, Cold, Flu and Sore Throat Maximum Strength, Multi-Symptom; Mucus Sinus Relief Day and Night; Mucus and Sinus PE; Multi Symptom Cold; Multi Symptom Cold Allergy Tabs; Multi Symptom Cold CF; Multi Symptom Cold CF Adult; Multi Symptom Cold Childrens; Multi Symptom Cold Childrens Plus; Multi Symptom Cold Double Max Power; Multi Symptom Cold Plus Childrens; Multi Symptom Cold Plus Childrens Pain Relief; Multi Symptom Cold Relief CF Non Drowsy; Multi Symptom Cold Relief Childrens; Multi Symptom Cold and Multi Symptom Nighttime Cold Childrens; Multi Symptom Daytime; Multi Symptom Fever and Cold Childrens; Multi Symptom NightTime Cold; Multi Symptom Severe Cold; Multi Symptom Severe Cold PE; Multi Symptom Severe Cold and Nighttime Severe Cold and Cough; Multi Symptom Sinus Relief Pain and Congestion Daytime Nighttime; Multi Symptom Wal Flu Severe Cold; Multi Sympton Cold Day Night; Multi- Symptom Relief DayTime; Multi-Symptom Allergy; Multi-Symptom Cold; Multi-Symptom Cold Daytime; Multi-Symptom Cold Flu and Sore Throat Maximum Strength; Multi-Symptom Cold Relief; Multi-Symptom Cold Relief Daytime; Multi-Symptom Cold Relief Daytime, Nighttime; Multi-Symptom Cold Severe, Non-Drowsy, Daytime; Multi-Symptom Cold Warming Effect Daytime; Multi-Symptom Cold and Cough Daytime Nighttime; Multi-Symptom Cold and Fever Childrens; Multi-Symptom Cold and Flu DayTime; Multi-Symptom Cold and Sinus Maximum Strength; Multi-Symptom Daytime Cold; Multi-Symptom Daytime Cold Rapid Release; Multi-Symptom Daytime and Nighttime Cold and Flu Relief Plus; Multi-Symptom Mapap Cold Formula; Multi-Symptom Nighttime Cold; Multi-Symptom Nighttime Sinus Relief; Multi-Symptom Relief Cold and Flu Multi-Symptom Relief; Multi-Symptom Severe Cold; Multi-Symptom Sinus Severe Congestion; Multi-symptom Cold and Flu Relief Daytime; Multi-symptom Cold and Flu Relief Daytime Nighttime; Multi-symptom Daytime; MyHist DM; Mydfrin; Mydriatic-3; Mydriatic-4; N - Time Sinus; NASAL DECONGESTANT PE 10mg; NASAL and SINUS DECONGESTANT; NEXT COLD and FLU DAYTIME; NEXT Severe Cold, Flu and Sore Throate Night Max Strength; NIGHT TIME COLD and FLU FORMULA; NIGHTTIME COLD AND FLU Maximum Strength; NIGHTTIME Cold and Flu Max Softgels MAXIMUM STRENGTH; NON-DROWSY DAYTIME Cold and Flu Max Softgels MAXIMUM STRENGTH; Nasal; Nasal + Sinus Cold Formula; Nasal Decongestant; Nasal Decongestant Maximum Strength; Nasal Decongestant Non-Drowsy; Nasal Decongestant PE; Nasal Decongestant PE Maximum Strength; Nasal Decongestant PE Maximum Strength Non Drowsy; Nasal Decongestant PE Maximum Strength Non-Drowsy; Nasal Decongestant PE Non Drowsy; Nasal Decongestant PE Non Drowsy Maximum Strength; Nasal Decongestant PE Non-Drowsy Maximum Strength; Nasal Decongestant PE Sinus Congestion Relief Non-Drowsy / Maximum Strength; Nasal Decongestant PE and Pain Relief Maximum Strength; Nasal Decongestant PE and Pain Relief Plus Mucus Relief; Nasal Decongestant PE, Non-Drowsy; Nasal Decongestant Rhinall; Nasal Four; Nasal and Sinus Decongestant; Nasohist DM Pediatric; Nasohist Pediatric; Nasopen PE; Nasotuss; Natureplex Hemorrhoidal; Neo Citran A Powder; Neo Citran Extra Strength; Neo Citran Nutrasweet; Neo Citran Powder; Neo DM DROPS DM; Neo Synephrine Nasal Drop 1%; Neo Synephrine Nasal Spray; Neo Tuss Syr; Neo-Synephrine; Neo-Synephrine Cold and Sinus Extra Strength; Neo-Synephrine Cold and Sinus Mild Strength; Neo-Synephrine Cold and Sinus Regular Strength; Neo-Synephrine Extra Strength; Neo-Synephrine Hydrochloride; Neo-Synephrine Maximum; Neo-Synephrine Mild; Neo-Synephrine Mild Strength; Neo-Synephrine Regular; Neo-Synephrine Regular Strength; Neo-synephrine Inj Liq 10mg/ml; Neo-synephrine Liq 1%; Neo-synephrine Nasal Drop 1%; Neo-synephrine Nasal Spray; Neocitran Cold & Cough Night; Neocitran Cold & Sore Throat Night; Neocitran Extra Strength Cold & Congestion; Neocitran Extra Strength Cold & Sinus Night; Neocitran Extra Strength Cold & Sinus Night - Apple Cinnamon; Neocitran Extra Strength Total Cold; Neocitran Extra Strength Total Cold Night; Neocitran Thin Strips Daytime Cough and Cold; Neocitran Thin Strips Nighttime Cough and Cold; Neocitran Total Cold; Neocitran Total Cold Night; Neogen-D; Next Day Time Non drowsy Cold and Flue; Next Night Severe Cold, Flu and Sore Throat; Nezger Tab; Night Cold Flu Cough and Allergy; Night Cold and Flu Relief; Night Relief sinus; Night Time Cold & Flu Liquid; Night Time Cold Max; Night Time Cold Multi-Symptom; Night Time Cold and Cough Childrens; Night Time Cold and Flu; Night Time Cold and Flu Severe; Night Time Cough and Cold Relief; Night Time Severe Cold and Cough; Night Time Severe Cold and Cough Relief; Night Time Severe Cold and Flu; Night Time Severe Cold and Flu Relief; Night Time Sinus; Night Time Sinus Congestion and Pain; Night Time Sinus Relief; Night Time Sinus and Congestion; Night time Multi Sympton Cold Max; Night time sinus; NightRelief DayRelief; NightTime Cold; NightTime Cold and Cough Children; NightTime Cold and Flu; NightTime DayTime Severe Cold and Flu; NightTime Maximum Strength Cold and Flu; NightTime Relief Severe Cold and Flu; NightTime Severe Cold and Flu; NightTime Sinus; NightTime Sinus Relief; Nighttime; Nighttime Cold; Nighttime Cold & Flu Relief Liquid Gels; Nighttime Cold Head Congestion; Nighttime Cold Max; Nighttime Cold Medicine; Nighttime Cold Multi-Symptom Cool Blast; Nighttime Cold Relief Extra Strength Tablets PE; Nighttime Cold and Cough Childrens; Nighttime Cold and Cough Sugar-Free; Nighttime Cold and Cough childrens; Nighttime Cold and Flu; Nighttime Cold and Flu Maximum Strength; Nighttime Cold and Flu Relief Plus; Nighttime Cold and Flu Relief Therapy; Nighttime Complete; Nighttime Extra Strength Contac Cold & Sore Throat; Nighttime Extra Strength Contac Complete Cough, Cold & Flu; Nighttime Extra Strength Contac Complete Cough, Cold & Flu Plus Vitamin C; Nighttime Flu Relief Therapy Severe Cold; Nighttime Flu and Severe; Nighttime Multi-Symptom Cold; Nighttime Regular Strength Contac Cold Nasal Congestion; Nighttime SEVERE COLD and FLU; Nighttime Severe; Nighttime Severe Cold and Cough; Nighttime Severe Cold and Flu; Nighttime Severe Cold and Flu Relief; Nighttime Severe Cough and Cold; Nighttime Severe cold cough and flu relief; Nighttime Sinus Multi symptom; Nighttime Sinus Relief; Nighttime Sinus and Congestion Relief; Nighttime Symptom Relief Extra Strength for Symptoms Of Cold and Cough; Nighttime Wal Flu Severe Cold and Cough; Nighttime severe; Nighttime sinus; Nikzon Hemorrhoidal; Nite Time Cold and Cough; Nite Time Cold and Flu; Nite Time Day Time; Nite time Severe Cold and Flu Maximum Strength; NiteTime DayTime Cold and Flu; NiteTime Sinus; NiteTime Sinus Relief; Nitecap Sinus Liquid Gels; Niteclear Cold and Flu Relief; Nitetime Cold Relief Extra Strength; Nitetime Cold and Flu; Nitetime Severe Cold and Flu Relief; Nitetime Sinus Relief; Niva-Hist DM; Nivanex DMX; NoHist; NoHist DM; NoHist LQ; Non Drowsy Cold and Cough PE; Non Drowsy DAY Cold and Flu Plus and NIGHTTIME Cold and Flu Plus; Non Drowsy DAYTIME and NIGHTTIME Sinus Congestion and Cough Relief; Non Drowsy Day Time cold and Flu Relief; Non Drowsy Daytime Cold and Flu Softgel; Non Drowsy Severe Daytime and Nighttime Cold and Flu Relief; Non-Drowsy DayTime Cold and Flu Multi-Symptom Relief; Non-Drowsy Daytime Multi Symptom Cold and Flu Relief; Non-Drowsy Daytime Multi-Symptom Cold and Flu; Non-Drowsy Daytime Severe Cold Multi-Symptom; Non-Drowsy Daytime Severe Sinus Congestion and Pain; Non-Drowsy Max Cold; Non-Drowsy Nasal Decongestant PE; Non-Drowsy Sinus Daytime; Non-Drowsy Sinus Severe, Circle K; Non-Drowsy Suphedrine PE Congestion; Non-Drowsy Wal-Phed PE Triple Relief; Non-Drying Sinus PE; Non-drowsy Day Time; Non-drowsy Daytime Sinus Relief; Norel AD; Norel SR; NorelCS CS; North Sinus Decongestant; Nose; Notuss PE; Novahistex C; Novahistex Dh; Novahistex Dh Expectorant; Novahistine Decon Liq 5mg/5ml; Novahistine Decongestant - Liq 5mg/5ml; Novahistine Dh; Novalgina Children Cough and Cold; NovexCold; Novexcold Extra Strength; Nu-copd; Numb520; NyQuil Severe; NyQuil Severe Cold and Flu; NyQuil Severe Plus VapoCOOL Cold and Flu; NyQuil Severe Plus Vicks Vapocool Cold and Flu; NyQuil Severe VapoCool; NyQuil Severe plus Vicks VapoCool; NyQuil Severe plus Vicks VapoCool Cold and Flu; NyQuil VapoCOOL SEVERE COLD and FLU plus CONGESTION; Nyquil Complete; Nyquil Complete + Vicks Vapocool; Nyquil Complete + Vicks Vapocool Cold & Flu Liquid; Nyquil Cough DM + Congestion; Nyquil Kids; Nyquil Sinus Liquicaps; Occu-cal Drops; Occu-cal Lotion; Odan-phenylephrine; Odan-vernacon; Olp Hemorrhoidal Cooling; Omidria; Omidria Intraocular Irrigation; Only For COLD AND FLU COUGH SUPPRESSANT; Oral Infant Cold Drops; Ortizol Otic Solution; Otis Clapp Emagrin Forte; Otis Clapp Mygrex; Otis Clapp Valihist; Our Family day time severe cold and Cough berry infused with menthol and green tea flavors; Our Family night time severe cold and cough honey lemon infused with chamomile and white tea flavors; PE Hist DM; PE Sinus Congestion; PE multi-stymptom cold and cough relief; PREPARATION H Maximum Strength; PRESSURE plus PAIN plus MUCUS; PSEUDO-FREE PE Maximum Strength, Non-Drowsy; Pain Relief; Pain Relief Cold; Pain Relief Cold Multi Symptom; Pain Relief Non Drowsy Daytime; Pain Relief Non-Drowsy, Daytime; Pain Relief Plus; Pain Relief Plus Multi Symptom Cold Childrens; Pain Reliever Fever Reducer; Pain and Sinus Reliever; Palagrip; Panadol; Panadol Cold and Flu NonDrowsy; Panatuss DXP; Panatuss Pediatric Drops DXP; PediaCare Childrens Allergy and Cold; PediaCare Childrens MultiSymptom Cold; PediaCare Childrens Nighttime Multi Symptom Cold; PediaCare Childrens Plus Flu; PediaCare Childrens Plus Multisymptom Cold; PediaCare Multi Symptom Cold; PediaCare Plus Multisymptom Cold; Pentrexcilina; Pentrexcilina Daytime; Pharbinex-PE; Pharmacitron; Pharmetapp Elixir; Phenagil; Phenagil CH; Phenyl-Lido; Phenylephrine; Phenylephrine Carbetapentane Potassium Guaiacolsulfonate; Phenylephrine Complex; Phenylephrine Guaifenesin; Phenylephrine HCl; Phenylephrine HCl Maximum Strength; Phenylephrine Hci; Phenylephrine Hydrochloride; Phenylephrine Hydrochloride Injection; Phenylephrine Hydrochloride Injection USP; Phenylephrine Hydrochloride Injection USP 1%; Phenylephrine Hydrochloride Ophthalmic; Phenylephrine Hydrochloride Phenylephrine Hydrochloride; Phenylephrine Hydrochloride, Chlorpheniramine Maleate; Phenylephrine hydrochloride; Phenylephrine/hydroxyethylcellulose; Phenyltrope Oph Soln; Physicians Care Allergy; Physicians Care Allergy Plus; Physicians Care Cold Cough; Physicians Care Cold and Cough; Physicians Care Non-Drowsy Sinus; Physicians Care Sinus; PhysiciansCare Allergy Multi-Symptom Relief; PhysiciansCare Cold and Cough Non-Drowsy; PhysiciansCare Sinus Non-Drowsy; Pluratuss; Plus Multi Symptom Cold Childrens Pain Relief; Poly Hist Dhc; Poly Hist Forte; Poly Hist Pd; Poly-Hist DM; Poly-Tussin AC; Poly-tussin DM; Poly-tussin EX; Polytussin DM; Preferred Plus Chest Congestion Relief PE; Preferred Plus Childrens Mucus Relief Multi Symptom Cold; Preferred Plus Cold and Flu Night Time; Preferred Plus Congestion Relief; Preferred Plus Day Time Cold and Flu; Preferred Plus Hemorrhoid; Preferred Plus Hemorrhoidal; Preferred Plus Mucus Relief; Preferred Plus Mucus Relief Cold and Sinus; Preferred Plus Severe Cold; Preferred Plus Severe Cold Cough and Flu; Preferred Plus Severe Cold Day Time Cold and Flu Night Time; Preferred Plus Severe Day Time; Preferred Plus Severe Nite Time; Preferred Plus Severe Sinus Congestion; Preferred Plus Sinus Relief; Preferred Plus Sinus Relief Day Tiime Night Time; Prefrin A Liq; Prefrin Liq 0.12%; Premier Value Chest and Sinus Congestion relief; Premier Value Hemorrhoidal; Premier Value Multi-Symptom Severe Cold Green Tea and Honey Lemon flavors; Premier Value day time severe cold and cough berry infused with menthol and green tea flavors; Premier Value night time severe cold and cough honey lemon infused with chamomile and white tea flavors; Preparation H; Preparation H Cooling Gel; Preparation H Rapid Relief; Preparation H Totables Burning Relief; Preparation H Totables Pain Relief; Preparation H-PE Gel; Presgen; Presgen B; Presgen Pediatric; Pressure Pain; Pressure Pain Cold; Pressure Pain Cold PE; Pressure Pain Cough PE; Pressure Pain Mucus; Pressure Pain Mucus PE; Pressure Pain PE; Pressure Pain and Cold Suphedrine PE; Pressure Plus Pain PE; Pressure Plus Pain PE Plus Cold; Pressure Plus Pain PE Plus Cough; Pressure Plus Pain PE Plus Mucus; Pressure and Pain; Pressure and Pain PE; Pressure and Pain PE Plus Cold; Pressure and Pain PE Plus Mucus; Pressure and Pain PE plus Cough; Pressure and Pain Plus Cold PE; Pressure and Pain Plus Cough PE; Pressure and Pain Plus Mucus PE; Pressure and Pain and Cold; Pressure plus Pain PE; Pressure plus Pain PE plus Cough; Pressure plus Pain PE plus Mucus; Pressure plus Pain plus Mucus Non-Drowsy; Primary Health - Fast Maximum Cold, Flu and Sore Throat Relief; Pro-chlo; Pro-red Ac; Promethazine HCl, Phenylephrine HCl and Codeine Phosphate; Promethazine HCl, Phenylephrine HCl, Codeine Phosphate; Promethazine Hydrochloride Phenylephrine Hydrochloride and Codeine Phosphate; Promethazine Hydrochloride and Phenylephrine Hydrochloride; Promethazine Hydrochloride, Phenylephrine Hydrochloride and Codeine Phosphate; Promethazine VC; Promethazine VC With Codeine; Promethazine VC with Codeine; Promethazine VC with Codeine Oral Solution; Promethazine Vc; Promethazine Vc With Codeine; Promethazine Vc With Codine; Promethazine hydrochloride and phenylephrine hydrochloride; Pseudo Time PE; Publix; Pulmo Calcio; Pulmorphan; Pulmorphan Pediatrique; Pyrichlor PE; Pyril D; Pyril DM; Pyril Mal Phenyl HCl; Pyril Mal Phenyl HCl Dex HBr; Pyrilamine Maleate and Phenylephrine Hydrochloride; Pyrilamine-Phenylephrine; Quality Choice; Quality Choice Cold and Sore Throat Lemon Flavor; Quality Choice Daytime Severe Cold and Cough Berry infused with Menthol and Green Tea flavors; Quality Choice Effervescent Cold Relief - Orange; Quality Choice Effervescent Cold Relief Plus; Quality Choice Hemorrhoidal; Quality Choice Mucus Relief PE PE; Quality Choice Multi-Symptom, Non-Drowsy DayTime Cold and Flu; Quality Choice Nighttime Severe Cold and Cough Honey Lemon infused with Chamomile and White Tea Flavors; Quality Choice Severe Cold and Cough Nighttime; Quality Choice day time severe cold and cough berry infused with menthol and green tea flavors; Quality Choice night time severe cold and cough honey lemon infused with chamomile and white tea flavors; Quartuss; Quartuss DM; R-Tanna; R-Tanna Pediatric Suspension; Rapid Action Cold; Rapid Max Maximum Strength Cool and Clear - Cold, Flu and Sore throat; Rapid Max Maximum Strength Cool and Clear - Cold, Severe Congestion and Cough; Rapid Release Multi-Symptom Allergy Relief; Ratio-coristex-DH; Re Dcp Drops; Re Drylex; Rectalin Hemorrhoidal Suppositories; RectiCare Complete; Recticare Advanced; Reese ONETAB Congestion and cough; Reeses Onetab Allergy and Sinus; Reeses Onetab Cold and Flu; Refenesen Chest Congestion Relief PE; Refenesen Chest Congestion Relief pe; Reformulated Rynatan Pediatric; Refresh Redness Relief; Regular Strength Tylenol Cold Daytime; Regular Strength Tylenol Cold Nighttime; Regular Strength Tylenol Sinus Daytime; RelCof DM; RelCof IR; Relhist BP; Relhist DMX; Relief-PE; Reme Hist DM; Rescon; Rescon GG; Rescon Jr; Rescon MX; Rexall Daytime Nighttime Cold Flu; Rexall Daytime Nighttime Cold and Flu; Rexall Hemorrhoidal; Rexall Hemorrhoidal Cooling; Rexall Hemorrhoidal Cooling Gel; Rexall Maximum Strength Hemorrhoidal; Rhume Et De LA Grippe (extra-fort); Rhume Extra Fort Jour; Rhume Extra Fort Nuit; Rite Aid Daytime Severe Cold and Cough Relief; Rite Aid Nighttime Severe Cold and Cough Relief; Rite Aid day time severe cold and cough berry infused with menthol and green tea flavors; Rite Aid night time severe cold and cough honey lemon with chamomile and white tea flavors; Riteaid Hemorrhoidal Cooling; Robafen CF Cough and cold; Robitussin Children's Cold; Robitussin Children's Cough & Cold Bedtime; Robitussin Complete Daytime; Robitussin Cough and Cold CF; Robitussin Cough and Cold CF Max; Robitussin Direct Stuffy Nose; Robitussin Night Time Cough and Cold; Robitussin Night Time Cough, Cold and Flu; Robitussin Peak Cold Daytime Cold Plus Flu; Robitussin Peak Cold Maximum Strength Multi-symptom Cold; Robitussin Peak Cold Multi-Symptom Cold; Robitussin Peak Cold Nasal Relief; Robitussin Peak Cold Nighttime Multi-symptom Cold; Robitussin Peak Cold Nighttime Nasal Relief; Robitussin Severe Multi-Symptom Cough Cold Flu; Robitussin Severe Multi-Symptom Cough Cold Flu Nighttime; Robitussin To Go Cough and Cold CF; Rompe Pecho CF; Rompe Pecho Max Multi Symptoms; Rompe Pecho Nighttime; Rompe Pecho SF FLU; Ru-Hist D; Ru-hist Plus; Ru-hist-D; Rugby Chest Congestion Relief PE; Rugby Congestion Relief; Rugby Hemorrhoidal; Runny Nose and Cough; Rx Act Cold Head Congestion; Rx Act Cold and Allergy Childrens; Rx Act Flu and Severe Cold and Cough Nighttime; Rx Act Flu and Sore Throat; Rx Act Flu and severe cold and cough daytime; Rx Act Hemorrhoidal; Rx Act Nasal Decongestant PE Non Drowsy Maximum Strength; Rx Act Tussin CF Cough and Cold; Rx Act nasal four; Rx Act sinus and allergy PE; Rx Act sinus congestion and pain; Rycontuss Cherry Flavor; Rymed; Ryna -12; Ryna -12 S; Rynatan; Rynatan Chewable Pediatric; Rynatuss; Rynesa 12S Suspension; Rynex DM; SECONDARY NUMB Lidocaine Phenylephrine Gel; SEVERE COLD AND FLU DAYTIME NON DROWSY and NIGHTTIME; SEVERE COLD DAY COLD and FLU NIGHT; SEVERE DAYTIME COLD and FLU DAYTIME MAXIMUM STRENGTH NON-DROWSY SEVERE; SIMPLE PROMISE Simple H Hemorrhoid Relief Cream; SINUS PAIN AND CONGESTION Nighttime; SINUS PRESSURE Maximum Strength; SINUS RELIEF Maximum Strength Daytime and Nighttime Sinus Pain; SMITH BROS NIGHT TIME COUGH and CONGESTION; SMITH BROS NON-DROWSY DAY TIME COLD and FLU; SMITH BROS NON-DROWSY MULTI-SYMPTOM COLD and FLU; SU PHEDRINE PE Non-Drowsy, Maximum Strength; SUDAFED PE Head Congestion Plus Flu Severe; SUDAFED PE Head Congestion Plus Mucus; SUDAFED PE Pressure PLUS Pain PLUS Mucus; SUDAFED PE Pressure Plus Pain; SUPRESS-PE Pediatric; Safetussin CD; Safeway Daytime Cold and Flu Relief; SanaTos COLD Multi-Symptom; SanaTos Day and Night Multi Symptom; SanaTos Multi Symptom; SanaTos Severe Cold and Cough Day Time; SanaTos Severe Cold and Cough Nighttime; SanaTos Turbo Max Strength; SanaTos X; Sanaflu Xtra; Sanatos; Sanatos Day; Sanatos Multi Symptom Daytime; Scot-Tussin Original Multi-Symptom Cold and Allergy Relief; Scot-Tussin Original SF Multi-Symptom; Sedalmex XL Flu; Select Brand Hemorrhoid; Select Brand Mucus Relief PE; Sever Daytime Cold and Flu and Sever Nighttime Cold and Flu; Severe Allergy And Sinus Headache; Severe Allergy And Sinus Headache Maximum Strength; Severe Allergy Plus Sinus Headache; Severe Allergy Plus Sinus Headache Maximum Strength; Severe Allergy Relief Plus Sinus Headache; Severe Cold; Severe Cold Cough and Flu; Severe Cold Cough and Flu Relief Daytime; Severe Cold Cough and Flu Relief Nighttime; Severe Cold Daytime; Severe Cold Daytime Cold and Flu Nighttime; Severe Cold Daytime Multi-Symptom Non-Drowsy; Severe Cold Head Congestion; Severe Cold Maximum Strength, Multi-Symptom; Severe Cold Multi Symptom; Severe Cold Multi-Symptom; Severe Cold PE; Severe Cold PE Multi-Symptom; Severe Cold Plus Flu Daytime Nighttime; Severe Cold Relief; Severe Cold Relief PE; Severe Cold and Cough Daytime; Severe Cold and Cough Night Time; Severe Cold and Cough Nighttime; Severe Cold and Cough Relief Daytime; Severe Cold and Cough Relief Nighttime; Severe Cold and Flu; Severe Cold and Flu Daytime; Severe Cold and Flu Daytime Non Drowsy Nighttime; Severe Cold and Flu Daytime/nighttime; Severe Cold and Flu Maximum Strength, Daytime, Non-Drowsy; Severe Cold and Flu Night time; Severe Cold and Flu Nighttime Daytime; Severe Cold and Flu Relief; Severe Cold and Flu Relief Daytime; Severe Cold and Flu Relief Daytime/Nighttime; Severe Cold and Flu Relief Nighttime; Severe Cold and Flu nighttime; Severe Cold and Mucus; Severe Cold, Cold and Flu Daytime, Nighttime, Maximum Strength; Severe Cold, Cold and Flu Maximum Strength, Daytime, Nightime; Severe Cold, Flu and Cough; Severe Congestion; Severe Congestion Relief; Severe Congestion Relief Maximum Strength Sinus; Severe Congestion and Cold Maximum Strength; Severe Congestion and Cold Maximum Strength/ Multi-Symptom; Severe Congestion and Cold Relief Maximum Strength, Multi Symptom; Severe Congestion and Cough; Severe Congestion and Cough MAX Maxium Strength; Severe Congestion and Cough Multi-Symptom Maximum Strength; Severe Congestion and Cough Relief; Severe Congestion and Cough Relief Maximum Strength; Severe Congestion and Cough, Cold and Flu Daytime and Nighttime; Severe Congestion and Cough, Cold and Flu Daytime, Nighttime; Severe Congestion and Cough/ Cold and Flu Daytime/nighttime; Severe Congestion and Cough/Cold and Flu Daytime/Nighttime/Maximum Strength; Severe Congestion and Pain; Severe Congestion and Sinus Relief Maximum Strength; Severe Congestion, Cough, Cold and Flu Relief Maximum Strength, Nighttime; Severe Cough and Cold; Severe Cough and Congestion; Severe Cough and Congestion Maximum Strength; Severe Cough and Congestion and Cold and Flu Daytime, Nighttime; Severe DayTime NightTime Cold and Flu Relief Max Strength; Severe Daytime; Severe Multi-Symptom Cold; Severe Nighttime; Severe Nighttime Cold and Flu; Severe Nighttime Cold and Flu Relief; Severe Nighttime Severe Daytime; Severe Sinus; Severe Sinus Congestion; Severe Sinus Congestion Allergy and Cough Formula; Severe Sinus Congestion Relief; Severe Sinus Congestion and Cough Daytime Non-drowsy / Nightime; Severe Sinus Congestion and Pain; Severe Sinus Congestion and Pain Daytime; Severe Sinus Congestion and Pain Maximum Strength; Severe Sinus Congestion and Pain Non-Drowsy, Daytime; Severe Sinus Daytime, Non-Drowsy; Severe Sinus Pain and Congestion Daytime; Severe Tussin CF; Severe Vapor Ice Cold and Flu Relief; Severe Wal Tussin CF Max; Severe cold and cough relief; Severe cold and flu Nighttime; Severe sinus Congestion Relief; ShopRight Childrens Nighttime Cold and Cough; ShopRite Adult Tussin; ShopRite Allergy; ShopRite Childrens Cold and Allergy; ShopRite Childrens Cold and Cough; ShopRite Childrens Multi Symptom Cold Relief; ShopRite Cold Multi Symptom; ShopRite Day Calm; ShopRite Day Calm Severe; ShopRite DayTime Flu Plus Severe Cold And Cough; ShopRite Hemorrhoidal; ShopRite Nasal Decongestant PE; ShopRite Nighttime Flu Plus Severe Cold and Cough; ShopRite Severe Cold; Shopko Hemorrhoidal; Shoprite Congestion and Pain; Shoprite Day Calm Severe; Shoprite Hemorrhoidal; Shoprite Nasal Four; Shoprite Ni Calm; Shoprite Sinus Congestion and Pain; Signature Care Childrens Cold and Cough; Signature Care Childrens Multi Symptom Cold; Signature Care Daytime Severe Cold; Signature Care Daytime Severe Cold and Flu Relief; Signature Care Hemorrhoidal; Signature Care Hemorrhoidal Cream (with applicator); Signature Care Nighttime Severe Cold and Flu Relief; Signature Care Non drowsy Daytime Severe Cold and Flu Relief; Signature Care daytime nighttime severe cold and flu relief; Signature Care severe cold cough and flu Nighttime; Sildec PE; Sildec PE DM; Sine Off Maximum Strength; Sine Off Sinus/cold Medicine; Sine-EEz; Sinex; Sinex Congestion & Headache; Sinex Nighttime Sinus; Sinex Severe plus Vicks VapoCool; Sinu-Phen; Sinu-Phen Plus; Sinus; Sinus Congestion; Sinus Congestion And Pain Daytime; Sinus Congestion PE; Sinus Congestion PE Maximum Strength; Sinus Congestion Relief; Sinus Congestion and Pain; Sinus Congestion and Pain Day, Non-Drowsy; Sinus Congestion and Pain Daytime; Sinus Congestion and Pain Daytime Nighttime; Sinus Congestion and Pain Daytime Non Drowsy; Sinus Congestion and Pain Daytime Non-Drowsy; Sinus Congestion and Pain Daytime Non-Drowsy Severe; Sinus Congestion and Pain Daytime, Non-drowsy; Sinus Congestion and Pain Daytime/Nighttime; Sinus Congestion and Pain Maximum Strength; Sinus Congestion and Pain Nighttime; Sinus Congestion and Pain Non Drowsy; Sinus Congestion and Pain Non-Drowsy; Sinus Congestion and Pain Non-Drowsy, Daytime; Sinus Congestion and Pain Relief; Sinus Congestion and Pain Relief Non-Drowsy; Sinus Congestion and Pain Relief Non-Drowsy, Daytime; Sinus Congestion and Pain Relief Non-Drowsy/Daytime; Sinus Congestion and Pain Severe; Sinus Congestion and Pain Severe Daytime,Non-Drowsy; Sinus Congestion and Pain daytime nighttime; Sinus Daytime; Sinus Decongestant; Sinus Extra Fort Jour; Sinus Extra Fort Nuit; Sinus Headache; Sinus Headache Day Night; Sinus Headache Maximum Strength; Sinus Headache PE; Sinus Headache PE Maximum Strength; Sinus Headache PE Non- Drowsy Maximum Strength; Sinus Headache PEMaximum Strength Non-Drowsy Maximum Strength Non-Drowsy; Sinus Headache and Pain Day, Non-drowsy; Sinus Max Relief Day and Night; Sinus Medication; Sinus Medication Day Regular Tablets PE; Sinus Nighttime; Sinus PE Congestion; Sinus PE Decongestant; Sinus PE Decongestant Maximum Strength; Sinus PE Head Congestion and Flu Severe; Sinus PE Head Congestion and Mucus; Sinus PE Pressure plus Pain MAXIMUM STRENGTH; Sinus PE Pressure, Pain and Cold Daytime, Non-Drowsy; Sinus PE Pressure, Pain and Mucus; Sinus PE Pressure, Pain plus Cough Multi-Symptom; Sinus PE and Allergy; Sinus PE plus Allergy; Sinus PE plus Allergy Maximum Strength; Sinus Pain; Sinus Pain and Congestion; Sinus Pain and Congestion Daytime; Sinus Plus Headache; Sinus Plus Headache Day and Night; Sinus Pressure Pain Maximum Strength, Non-Drowsy; Sinus Pressure Pain and Cough; Sinus Pressure and Congestion Relief; Sinus Pressure and Congestion Relief PE Maximum Strength; Sinus Pressure and Pain; Sinus Pressure and Pain Daytime Nighttime Maximum Strength; Sinus Pressure and Pain Maximum Strength; Sinus Pressure and Pain PE; Sinus Pressure and Pain PE Maximum Strength; Sinus Pressure and Pain Relief maximum strength; Sinus Pressure and Pain and Cough; Sinus Pressure plus Pain; Sinus Pressure plus Pain PE; Sinus Pressure, Pain and Cough; Sinus Relief; Sinus Relief Congestion and Cough Maximum Strength; Sinus Relief Congestion and Pain - Daytime and Nighttime; Sinus Relief Congestion and Pain Daytime; Sinus Relief Congestion and Pain Nighttime; Sinus Relief Congestion and Pain Severe; Sinus Relief Day Night; Sinus Relief Day and Night; Sinus Relief Daytime; Sinus Relief Daytime Nighttime; Sinus Relief Daytime, Nighttime; Sinus Relief Daytime, Nighttime, Maximum Strength; Sinus Relief Headache Nasal; Sinus Relief MAXIMUM STRENGTH; Sinus Relief Maximum Strength; Sinus Relief Non Drowsy; Sinus Relief Non-Drowsy Daytime; Sinus Relief PE Maximum Strength; Sinus Relief Pressure and Pain; Sinus Relief Pressure, Pain and Cough; Sinus Relief Severe Congestion; Sinus Relief Severe Congestion Maximum Strength; Sinus Relief Severe Congestion and Pain; Sinus Severe; Sinus Severe Cold Multi-Symptom; Sinus Severe Daytime; Sinus Sevre; Sinus and Allergy; Sinus and Allergy Maximum Strength; Sinus and Allergy PE; Sinus and Allergy PE Maximum Strength; Sinus and Allergy PE maximum strength; Sinus and Allergy Releif PE; Sinus and Allergy Relief; Sinus and Allergy Relief PE; Sinus and Congestion Relief Daytime; Sinus and Headache; Sinus and Headache Day Night; Sinus and Headache Daytime; Sinus and Headache Daytime Non-Drowsy; Sinus and Headache Daytime, Non-Drowsy; Sinus plus Headache; Sinus plus Headache Day and Night; Sinus plus Headache Daytime and Nighttime; Sinutab PE Extra Strength; Sinutab PE Nd Extra Strength; Sinutab PE Nd Regular Strength; Sinutab PE Nightime; Sinutab PE Sinus and Allergy; Sinutab Sinus MAXIMUM STRENGTH; Skopko Chest Congestion Relief PE PE; Smart Sense Adults Tussin CF Multi Symptom Cold; Smart Sense Childrens Multi Symptom Cold Relief; Smart Sense Childrens Nighttime Cold and Cough; Smart Sense Cold and Allergy Childrens; Smart Sense Cold and Cough; Smart Sense DayTime; Smart Sense Daytime; Smart Sense Daytime Nighttime Cold and Flu; Smart Sense Effervescent Cold Relief; Smart Sense Flu and Severe Cold and Cough Daytime; Smart Sense Flu and Severe Cold and Cough Nighttime; Smart Sense Hemorrhoidal; Smart Sense Multi Symptom Cold; Smart Sense Multi Symptom Fever and Cold Childrens; Smart Sense NightTime DayTime; Smart Sense Severe Cold; Smart Sense Severe Cold and Flu NightTime; Smart Sense Sinus; Smart Sense Sinus PE; Smart Sense Sinus Relief; Smart Sense Sinus and Headache; Smart Sense Triacting; Smart Sense Tussin CF Adult; Smart Sense cold flu and sore throat; Smart Sense daytime cold and flu; Smart Sense nasal decongestant pe maximum strength; Smart Sense nighttime cold and flu; Smart Sense sinus plus headache; Smart sense Nighttime Severe Cold and Cough Honey Lemon infused with Chamomile and White Tea Flavors; Soframycin Nasal Spray; SohMed Allergy Sinus; SohMed Cold Relief; SohMed Sinus; Sonahist; Sonahist DM; Sore Throat & Cold Powder Night; Sound Body Cold and Flu Relief; Sound Body Cold and Flu Relief DayTime; Sound Body Daytime Cold and Flu Relief Nighttime Cold and Flu Relief; Sound Body Severe Cold and Flu; Sound Body Tussin CF; Stahist Tp; Stona; Stona Cough; Stona-S; Stonarhini; Sudafed PE Cold and Cough; Sudafed PE Cold and Flu Caplets; Sudafed PE Congestion; Sudafed PE Day Plus Night Sinus Congestion; Sudafed PE Extra Strength; Sudafed PE Head Cold & Sinus; Sudafed PE Head Congestion Plus Pain; Sudafed PE Non-Drowsy Sinus Headache MAXIMUM STRENGTH; Sudafed PE Pressure Plus Pain Plus Cold; Sudafed PE Pressure Plus Pain Plus Cough Day; Sudafed PE Pressure plus Pain plus Cough; Sudafed PE Regular Strength; Sudafed PE Sinus Congestion; Sudafed PE Sinus Pressure Plus Pain; Sudafed PE Total; Sudafed Total Cold and Flu Rapid Release; Sudo-Tab PE; Sudogest PE; Sunmark Allergy Multi Symptom; Sunmark Chest Congestion Relief PE PE; Sunmark Cold Head Congestion; Sunmark Cold and Allergy; Sunmark Cold and Allergy Childrens; Sunmark Cold and Cough DM Childrens; Sunmark Cold and Flu Severe; Sunmark Day Time Cold and Cough Childrens Triacting Formula; Sunmark Day time cold and flu; Sunmark Hemorrhoidal; Sunmark Nasal Decongestant PE Maximum Strength; Sunmark Nasal Fast Relief; Sunmark Nose; Sunmark Severe Day Time; Sunmark Severe Nite Time Cold and Flu; Sunmark Sinus and Allergy PE Maximum Strength; Sunmark Tussin CF; Sunmark cold head congestion; Sunmark sinus congestion and pain; Super Strength Cold & Congestion Powder; Super Strength Complete Cold Powder; Super Strength Contac Cold & Sinus Hot Medicated Drink; Super Strength Sore Throat & Cold Powder; Suphedrine PE; Suphedrine PE Congestion; Suphedrine PE Congestion Non-Drowsy; Suphedrine PE Pressure plus Pain Maximum Strength, Non-Drowsy; Suphedrine PE Sinus Congestion Non-Drowsy; Suphedrine PE Sinus Pressure Plus Pain; Suphedrine PE Sinus plus Allergy; Supress A; Supress DX Pediatric Drops; Swift Sinus Pain; TRIAMINIC Childrens Cold and Allergy; TRIAMINIC Childrens Night Time Cold and Cough; TRIAMINIC Night Time Cold and Cough; TUSSIN CF NIGHTTIME COUGH and COLD; TYLENOL COLD Cough and Severe Congestion; TYLENOL COLD Multi-Symptom; TYLENOL Cold Max Day; TYLENOL Cold Multi-Symptom Daytime; TYLENOL Cold Multi-Symptom Severe; TYLENOL Cold Plus Flu Severe; TYLENOL Cold Plus Flu Severe and TYLENOL COLD MAX CoPack; TYLENOL Cold Plus Mucus Severe; TYLENOL Cold plus Flu plus Cough Day; TYLENOL SINUS Congestion and Pain; TYLENOL Sinus Congestion And Pain Severe; Tabcin 500; Tannate; Tantapp Elixir; Target Maximum Strength Cold Flu and Sore Throat; Target Maximum Strength Cold Flu and Sore Throat Overnight Cold and Flu; Terpacan; TexaClear Kids Cold Relief; TexaClear Kids Congestion Stuffy Nose; TexaClear Kids Cough and Cold; TexaClear Kids Sinus Relief; Texaclear Congestion and Pain Sinus Relief; Texaclear Daytime Cough Cold/flu; Texaclear Night Time Cough Cold/flu; TheraFlu Cold and Flu; TheraPlus Plus; Theraflu Cold and Sore Throat; Theraflu Daytime Cold and Flu; Theraflu Daytime Severe Cold and Cough; Theraflu ExpressMax Daytime Nighttime Value Pack; Theraflu ExpressMax Daytime Severe Cold and Cough; Theraflu ExpressMax Flu, Cough, and Sore Throat; Theraflu ExpressMax Nighttime Severe Cold and Cough; Theraflu ExpressMax Severe Cold and Flu Caplets; Theraflu ExpressMax Severe Cold and Flu Syrup; Theraflu Expressmax Daytime Severe Cold and Cough and Theraflu Expressmax Nighttime Severe Cold and Cough; Theraflu Flu and Sore Throat; Theraflu Multi-Symptom Severe Cold and Theraflu Nighttime Severe Cold and Cough; Theraflu Multi-symptom Severe Cold; Theraflu Nighttime Cold and Flu; Theraflu Nighttime Multi-Symptom Severe Cold Powder; Theraflu Nighttime Severe Cold and Cough; Theraflu PowerPods Daytime Severe Cold; Theraflu Powerpods Nighttime Severe Cold; Theraflu Sinus and Cold; Theraflu Sinus and Pain; Theraflu Sugar Free Nightime Severe Cold and Cough; Theraflu Warming Relief Cold and Chest Congestion; Theraflu Warming Relief Daytime Multi-Symptom Cold Caplets; Theraflu Warming Relief Daytime Severe Cold And Cough; Theraflu Warming Relief Flu and Sore Throat; Theraflu Warming Relief Nighttime Multi-Symptom Cold Caplets; Theraflu Warming Relief Nighttime Severe Cold And Cough; Thompson Cough and Cold Multi-Symptom Relief; Tl-hist CD; Tl-hist DM; Toa Syrup Adult; Top Care Day Time Multi Symptom Relief; Top Care Flu and Sore Throat; Top Value Effervescent Cold Relief; Top Value Effervescent Cold Relief - Orange; TopCare Cold Max; TopCare Cold NightTime Multi Symptom; TopCare Cold and Sore Throat Lemon Flavor; TopCare Day Time Nite Time Cold and Flu Relief; TopCare Daytime Severe Cold and Cough Berry infused with Menthol and Green Tea flavors; TopCare Health Non Drowsy Daytime Cold and Flu Relief And Nighttime Cold and Flu Relief Day and Night Combo Pack; TopCare Mucus Relief and Cold and Flu; TopCare Multi Symptom Severe Cold; TopCare Nasal Decongestant PE; TopCare Nighttime Cold and Flu Simple Relief; TopCare Nighttime Severe Cold and Cough honey lemon infused with chamomile and white tea flavors; TopCare Pain Relief Cold Nightttime; TopCare Sinus and Allergy PE Maximum Strength; TopCare day time severe cold and cough berry infused with menthol and green tea flavors; TopCare night time severe cold and cough honey lemon infused with chamomile and white tea flavors; Topcare Allergy Multi Symptom; Topcare Chest Congestion and Sinus Congestion Relief PE; Topcare Childrens Cold and Allergy; Topcare Childrens Cold and Flu; Topcare Childrens Mucus Relief Multi Symptom Cold; Topcare Childrens Night Time Cold and Cough; Topcare Childrens Triacting Nightime Cold and Cough; Topcare Clear Time; Topcare Cold; Topcare Cold Head Congestion; Topcare Cold Head Congestion Nighttime; Topcare Cold Head Congestion Severe; Topcare Cold Multi Symptom; Topcare Cold Multi Symptom Severe; Topcare Cold and Allergy; Topcare Cold and Cough; Topcare Cold and Flu; Topcare Cold and Flu Night Time; Topcare Cold and Sore Throat Lemon Flavor; Topcare Congestion Relief; Topcare Cough Cold and Flu Simple Relief; Topcare Day Night; Topcare Day Time; Topcare Day Time Cold and Flu; Topcare Day Time Cold and Flu Relief Multi Symptom Relief; Topcare Day Time Cold and Flu Severe; Topcare Day Time Nite Time; Topcare Day Time Nite Time Cold and Flu; Topcare Day Time Nite Time Cold and Flu Relief; Topcare Day time cold and flu relief; Topcare DayTime; Topcare Daytime Nighttime Clear Time; Topcare Daytime Nitetime Multi Symptom Relief; Topcare Flu and Severe Cold and Cough; Topcare Flu and Severe Cold and Cough Daytime; Topcare Hemorrhoidal; Topcare Hemorrhoidal Cooling; Topcare Mucus Relief; Topcare Mucus Relief Cold Flu and Sore Throat; Topcare Mucus Relief Cold and Flu; Topcare Mucus Relief Severe Congestion and Cold; Topcare Mucus Relief cold and sinus; Topcare Nasal Four; Topcare Nite Time Cold and Flu; Topcare Nite Time Day Time Cold and Flu; Topcare Nite Time Day Time Cold and Flu Relief; Topcare Nose Drops; Topcare Severe Sinus Congestion; Topcare Sinus Congestion and Pain; Topcare Sinus Relief; Topcare Sinus Relief Day Time Night Time; Topcare Tussin CF; Topcare Tussin CF Max; Topcare childrens cold and cough; Topcare hemorrhoidal; Topcare mucus relief; Topcare mucus relief cold flu and sore throat; Topcare sinus relief pressure and pain; Topco tussin cf max; Total Cold; Total Cold Hot Lemon Relief; Total Cold Night; Trexbrom; Tri-dex PE; Triacting Day Time Cold and Cough Childrens; Triacting Day Time with PE; Triacting Daytime Cold Cough Childrens; Triacting Night Time; Triacting Night Time Cold and Cough; Triaminic Chest and Nasal Congestion; Triaminic Cold and Allergy; Triaminic Day - Night Club Pack; Triaminic Day Time Cold and Cough; Triaminic Day Time Cold and Cough and Night Time Cold and Cough; Triaminic Daytime Cough & Cold; Triaminic Multi-Symptom Fever and Cold; Triaminic Nighttime Cough and Cold; Triaminic Thin Strips Cold & Cough; Triaminic Thin Strips Nasal Congestion; Triaminic Thin Strips Nighttime Cold & Cough; Triaminic Toddler Congestion Thin Strips; Triaminic Toddler Cough and Cold Thin Strips; Trigofen; Trigofen DM; Triplex DM; Triponel; Trital DM; Trital SR; Tukol A; Tukol Children Cough and Congestion; Tukol Cough And Cold Honey Flavor; Tukol Cough and Congestion; Tukol Honey Children Cough and Congestion; Tukol Honey Daytime Cold and Flu; Tukol Honey Daytime and Nighttime Value Pack; Tukol MAX ACTION Cold, Sore Throat and Cough; Tukol MAX ACTION Severe Congestion and Cough; Tukol Max Action Cold Sore Throat and Cough; Tukol Max Action Cold, Flu and Sore Throat; Tukol Max Action Severe Congestion and Cough; Tukol Max Action Sinus Caplets; Tukol Max Action Sinus Liquid; Tukol Multi Symptom Cold; Tukol X-Pecto Miel Multi Symptom Cold; Tusdec DM; Tusicof; Tusnel DM; Tusnel Pediatric DM; Tusnel Pediatric Drops; Tusnel-DM Pediatric; Tusscough DHC; Tussi Pres; Tussi Pres B; Tussi Pres Pediatric; Tussin; Tussin CF; Tussin CF Adult; Tussin CF Adult Cough and Cold; Tussin CF Adult Maximum Strength; Tussin CF Adult Multi Symptom Cold; Tussin CF Adult Non Drowsy; Tussin CF Cough and Cold; Tussin CF Dextromethorphan HBr, Guaifenesin, Phenylephrine HCL; Tussin CF Max; Tussin CF Maximum Strength; Tussin CF Multi Symptom Cold Adult; Tussin CF Multi-Symptom Cold; Tussin CF Non Drowsy; Tussin CF Non Drowsy Multi Symptom; Tussin Maximum Strength; Tussin Multi Symptom; Tussin Multi Symptom Cold CF; Tussin Multi Symptom Cold CF Adult; Tusslin; Tusslin Pediatric; Tusslin TR; Tussnex FM Cold and Sinus; Tussnex FM Cold, Flu and Sore Throat; Tussnex FM Severe cough and congestion; Twkof Adult; Twkof Children; Tylenol Allergy; Tylenol Allergy Multi-Symptom; Tylenol Allergy Multi-Symptom Nighttime; Tylenol Cold Head Congestion Severe; Tylenol Cold Max Day; Tylenol Cold Max Night; Tylenol Cold Multi-Symptom; Tylenol Cold Multi-symptom; Tylenol Cold Multi-symptom Daytime; Tylenol Cold Nightime Rapid Release; Tylenol Cold Plus Flu Severe; Tylenol Cold Plus Flu Severe Day and Tylenol Cold Plus Flu Plus Cough Night 2-pack; Tylenol Cold Plus Flu Severe Day and Tylenol Cold Plus Flu Plus Cough Night 3-Pack; Tylenol Cold Plus Flu Severe Day/night; Tylenol Cold Plus Flu Severe Severe; Tylenol Cold Plus Head Congestion Severe; Tylenol Cold Rapid Release; Tylenol Cold and Flu; Tylenol Cold and Flu Daytime; Tylenol Cold and Flu Nighttime; Tylenol Cold plus Flu Severe and Tylenol Cold Max; Tylenol Cold plus Flu plus Cough Night; Tylenol Complete Cold, Cough & Flu Daytime; Tylenol Complete Cold, Cough & Flu Nighttime; Tylenol Flu Daytime; Tylenol Flu Nighttime; Tylenol Sinus Congestion and Pain; Tylenol Sinus Congestion and Pain Daytime; Tylenol Sinus Congestion and Pain Severe; Tylenol Sinus Daytime; Tylenol Sinus Nighttime; Tylenol Sinus Plus Headache Day; Tylenol Sinus Severe; Tylenol Sinus and Allergy Severe; Tylo Cold and Flu Day; Uline Sinus and Congestion; Unishield Cold Relief; Unishield Cough and Cold; Unishield Sinus Decongestant; Up and Up Adult Cough and Cold; Up and Up Childrens Cold and Cough; Up and Up Childrens Cold and Cough Relief; Up and Up Childrens Multi Symptom Cold Pain Relief Plus; Up and Up Cold Flu Relief; Up and Up Cold Flu Relief Day Night; Up and Up Cold Flu Relief Multi Symptom Day; Up and Up Cold Relief; Up and Up Cold and Flu Relief Multi Symptom Day and Night Combo Pack; Up and Up Cold and Head Congestion; Up and Up Daytime Cold and Flu; Up and Up Daytime Multi Symptom Severe Cold Nighttime Severe Cold and Cough; Up and Up Daytime Nighttime Cold and Flu; Up and Up Daytime Severe Cold Nighttime Cold and Flu; Up and Up Daytime Vapor Ice Cold and Flu Nighttime Vapor Ice Cold and Flu; Up and Up Fast Mucus Relief Severe Cold; Up and Up Flu and Severe Cold and Cough Relief; Up and Up Hemorrhoidal; Up and Up Mucus Relief; Up and Up Mucus Relief Cold Flu and Sore Throat; Up and Up Mucus Relief Cold and Sinus; Up and Up Mucus Relief Severe Congestion and Cold; Up and Up Nighttime Daytime Cold and Flu; Up and Up Nighttime Flu and Severe Cold and Cough; Up and Up Nighttime Severe Cold and Flu; Up and Up Nighttime Vapor Ice Cold and Flu; Up and Up Sinus Congestion and Pain; Up and Up Sinus PE; Up and Up Tussin Multi Symptom Cold Maximum Strength; Up and Up maximum Strength fast mucus relief Severe Congestion and Cough; Up and Up mucus relief cold, flu and sore throat; Up and Up mucus relief severe congestion and cough; Up and Up nasal decongestant PE; Up and Up severe cold and flu; Up and Up severe cold and flu daytime; V-Hist; V-cof; VIcks Flu Therapy Severe Cold and Flu Day; VIcks Flu Therapy Severe Cold and Flu Night; VanaTab DM; Vanacof Ape; Vanacof DM; Vanacof DMX; Vanacof Gpe; Vapor Chill Cold and Flu Daytime/nighttime; Vapor Ice Daytime and Nitetime Cold and Flu; Vasosulf Oph Soln; Vazculep; Vazobid-PD; Vicks 44 D; Vicks Childrens Cold Multi Symptom; Vicks Cough and Cold Severe; Vicks Cough and Congestion DM; Vicks Cough and Congestion PM; Vicks Custom Care Nasal Congestion/cough; Vicks DayQuil COLD and FLU; Vicks DayQuil Cold and Flu; Vicks DayQuil Cold and Flu Multi-Symptom Relief; Vicks DayQuil Cough DM plus Congestion; Vicks DayQuil Kids Cold Cough plus Mucus; Vicks DayQuil Nature Fusion Cold and Flu; Vicks DayQuil NyQuil Severe Cold and Flu combo; Vicks DayQuil Severe Cold and Flu; Vicks DayQuil Severe Hot Remedy Cold and Flu plus Congestion; Vicks DayQuil Severe and Vicks NyQuil Severe Cold and Flu; Vicks DayQuil Sinex Daytime Sinus Relief; Vicks DayQuil Sinus; Vicks DayQuil VapoCOOL SEVERE COLD and FLU plus CONGESTION; Vicks DayQuil and Vicks NyQuil Cherry Cold and Flu; Vicks DayQuil and Vicks NyQuil Cold and Flu; Vicks DayQuil and Vicks NyQuil Cold and Flu Multi-Symptom Relief/Cold and Flu Nighttime Relief; Vicks DayQuil and Vicks NyQuil Severe Cold and Flu; Vicks Dayquil Cold & Flu Multi-symptom Relief Liquicaps; Vicks Dayquil Complete Cold & Flu Caplets; Vicks Dayquil Complete Cold & Flu Liquicaps; Vicks Dayquil Complete Cold & Flu Liquid; Vicks Dayquil Hot Remedy; Vicks Formula 44 Cough and Congestion Severe Daytime and Nighttime; Vicks Formula 44 Cough and Head Congestion; Vicks Formula 44 VapoCool Cough and Chest Congestion; Vicks Formula 44 VapoCool Sever Cough and Congestion; Vicks Formula 44 VapoCool Severe Nighttime Cough and Cold; Vicks NyQuil Cough DM plus Congestion; Vicks NyQuil Kids Honey Cold Cough Congestion; Vicks NyQuil Severe Cold and Flu; Vicks NyQuil Severe Hot Remedy Cold and Flu plus Congestion; Vicks NyQuil Sinex; Vicks NyQuil Sinus; Vicks NyQuil VapoCOOL Severe COLD and FLU plus CONGESTION; Vicks Nyquil Complete Cold & Flu; Vicks Nyquil Complete Cold & Flu Caplets; Vicks Nyquil Complete Cold & Flu Liquicaps; Vicks Nyquil Hot Remedy; Vicks QlearQuil Daytime Sinus and Congestion; Vicks QlearQuil Daytime Sinus and Congestion and Nighttime Sinus and Congestion; Vicks QlearQuil Nighttime Sinus and Congestion; Vicks Severe Cold and Flu; Vicks Sinex; Vicks Sinex Decongestant Nasal; Vicks Sinex Pressure & Pain; Vicks Sinex Severe All in One Sinus; Vicks Sinex Severe All in One Sinus Mucus; Vicks Sinex Severe Congestion; Vicks Sinex Severe Pressure and Pain; Vicks Sinex Ultra Fine Mist; Vicks Sinex VapoSpray; Vicks VapoSyrup; Vicks childrens Cough Congestion; Vicks childrens Cough Congestion Night; Virdec DM Drops; Virdec Drops; Wal Flu Flu and Sore Throat; Wal Flu Severe; Wal Flu Severe Cold; Wal Flu Severe Cold and Cough; Wal Flu Severe Cold and Cough Daytime; Wal Flu Severe Cold and Cough Daytime Nighttime; Wal Four; Wal Tap Childrens; Wal Tussin Adult Cough and Cold; Wal Tussin CF Cough and Cold; Wal Tussin CF Max; Wal Tussin CF Max Multi Symptom Cough Cold and Flu; Wal-Dryl Allergy Plus Cold; Wal-Dryl Maximum Strength; Wal-Dryl PE ALLERGY PLUS CONGESTION; Wal-Dryl PE Allergy and Sinus; Wal-Dryl-D; Wal-Phed HEAD CONGESTION AND MUCUS PE; Wal-Phed PE; Wal-Phed PE Daytime / Nighttime; Wal-Phed PE Maximum Strength; Wal-Phed PE Maximum Strength, Non-Drowsy; Wal-Phed PE Multi Symptom; Wal-Phed PE Non-Drying Sinus; Wal-Phed PE Pressure plus Pain Maximum Strength Non-Drowsy; Wal-Phed PE Pressure plus Pain plus Cold Daytime, Nighttime, Multi-Symptom; Wal-Phed PE, Multi-Symptom; Wal-Phed PE, Multi-Symptom, Daytime, Nighttime; Wal-Phed PE, Multi-Symptom, Non-Drowsy; Walgreen Day Time NightTime Cold and Flu Relief; Walgreen Day Time Nighttime Cold and Flu Relief Honey Flavor; Walgreen DayTime Cold and Flu Relief; Walgreen Nighttime Cold and Flu; Walgreen Severe Multi-Symptom Cough Cold Flu; Walgreens; Walgreens Daytime Nighttime Wal-Flu Severe Cold and Cough Kit; Walgreens Daytime Non-Drowsy Cold and Flu; Walgreens Daytime Wal-Flu Severe Cold and Cough Berry infused with Menthol and Green Tea flavors; Walgreens Daytime non-drowsy cold multi-symptom for adults; Walgreens Effervescent Cold Relief Plus; Walgreens Hemorrhoidal; Walgreens Maximum Strength Hemorrhoidal; Walgreens Maximum Strength Non Drowsy Day and Night Cold and Flu; Walgreens Maximum Strength Non-Drowsy Day and Night Sinus and Cold; Walgreens Severe Cold Multi-Symptom For Adults; Walgreens Severe Warming Cold and Flu For Adults; Walgreens Sugar Free Nighttime Wal-Flu severe cold and cough Natural honey lemon flavor; Walgreens Wal-Flu Cold and Sore Throat Lemon Flavor; Walgreens night time wal-flu severe cold and cough honey lemon flavor infused with chamomile and white tea flavors; Walprofen Congestion Relief and Pain; Welby Day Time Cold and Flu; Well At Walgreens Multi-Symptom Severe Cold Green Tea and Honey Lemon flavors; Well at Walgreens Multi-Symptom Wal-Flu Severe Cold and Nighttime Wal-Flu Severe Cold and Cough Kit; WellBid-D Sustained-Release; WesTussin DM; Western Family Daytime Severe Cold and Cough Berry infused with Menthol and Green Tea flavors; Western Family Hemorrhoidal; Western Family Nighttime Severe Cold and Cough honey lemon infused with chamomile and white tea flavors; WinCo Foods Daytime Severe Cold and Cough Berry infused with Menthol and Green Tea flavors; WinCo Foods Effervescent Cold Relief; WinCo Foods Nighttime Severe Cold and Cough honey lemon infused with chamomile and white tea flavors; Winco Foods Childrens Multi Symptom Cold; Winco Foods Multi-Symptom Severe Cold Green Tea and Honey Lemon flavors; Winco Hemorrhoidal; XL-3 Cold; XL-3 Cold Medicine; XL-3 Day Time; XL-3 Xtra; Xl3 Xtra; Xpect Cold Relief; Xpect Decongestant; Xpect Sinus Relief; Xpecto soothing relief; Xyralid Hemorrhoidal; Xyralid Hemorrhoidal Suppositories; Y-Cof DMX; Z-dex; Zicam; Zincfrin; ZoDEN; ZoDen DM; ZoDen PD; Zotex-C; allergy and sinus PE; allergy sinus PE; caring mill Sinus PE; childrens Multi Symptom Fever and Cold; cold and cough sinus relief PE NON-DROWSY; cold and sinus PE; cough and sinus PE; diaCare Childrens Decongestant; good neighbor pharmacy tussin CF Max; good sense DayTime Night Time; guaifenesin and phenylephrine hydrochloride Sustained-Release; head congestion plus flu severe PE; head congestion plus mucus PE; healthy accents cold and cough DM; hybrid CF; lidoForte Hemorrhoidal; multi-symptom cold relief Daytime, Nighttime; nasal decongestant PE; pressure and pain PE; pressure and pain sinus relief PE NON-DROWSY; severe cold and sinus relief PE; severe cold, cold and flu Daytime/Nighttime; severe sinus congestion relief Maximum Strength; shop rite Day Severe Cold Night Cold and Flu; sinus PE; sinus plus allergy PE maximum strength; sinus pressure and pain PE; sunmark Cold; topcare Hemorrhoidal; topcare tussin CF; tussin severe multi symptom cough cold plus flu CF MAX

> <INTERNATIONAL_BRANDS>
AK-Dilate; AK-Nefrin; Alconefrin; Mesatone; Minims Phenylephrine; Neofrin; Ocugestrin; Phenoptic; Phenylephrine Minims; Prefrin; Rhinall; Spersaphrine; Visadron

> <SALTS>
Phenylephrine bitartrate; Phenylephrine hydrochloride; Phenylephrine tannate

$$$$
