393
  Mrv0541 02231214392D          

 30 31  0  0  1  0            999 V2000
    3.0791   -0.9818    0.0000 O   0  0  0  0  0  0  0  0  0  0  0  0
    7.3659   -0.9818    0.0000 O   0  0  0  0  0  0  0  0  0  0  0  0
    3.7935    0.2558    0.0000 O   0  0  0  0  0  0  0  0  0  0  0  0
    6.6515    0.2558    0.0000 O   0  0  0  0  0  0  0  0  0  0  0  0
    9.5094   -0.5693    0.0000 O   0  0  0  0  0  0  0  0  0  0  0  0
    6.6515    2.7308    0.0000 O   0  5  0  0  0  0  0  0  0  0  0  0
    7.3659    1.4933    0.0000 O   0  0  0  0  0  0  0  0  0  0  0  0
    5.2224   -2.2193    0.0000 N   0  0  0  0  0  0  0  0  0  0  0  0
    6.6515    1.9058    0.0000 N   0  3  0  0  0  0  0  0  0  0  0  0
    5.2224   -0.5693    0.0000 C   0  0  0  0  0  0  0  0  0  0  0  0
    4.5080   -0.9818    0.0000 C   0  0  0  0  0  0  0  0  0  0  0  0
    5.9370   -0.9818    0.0000 C   0  0  0  0  0  0  0  0  0  0  0  0
    5.2224    0.2558    0.0000 C   0  0  0  0  0  0  0  0  0  0  0  0
    4.5080   -1.8068    0.0000 C   0  0  0  0  0  0  0  0  0  0  0  0
    5.9370   -1.8068    0.0000 C   0  0  0  0  0  0  0  0  0  0  0  0
    3.7935   -0.5693    0.0000 C   0  0  0  0  0  0  0  0  0  0  0  0
    5.9370    0.6683    0.0000 C   0  0  0  0  0  0  0  0  0  0  0  0
    6.6515   -0.5693    0.0000 C   0  0  0  0  0  0  0  0  0  0  0  0
    4.5080    0.6683    0.0000 C   0  0  0  0  0  0  0  0  0  0  0  0
    3.7935   -2.2193    0.0000 C   0  0  0  0  0  0  0  0  0  0  0  0
    6.6515   -2.2193    0.0000 C   0  0  0  0  0  0  0  0  0  0  0  0
    5.9370    1.4933    0.0000 C   0  0  0  0  0  0  0  0  0  0  0  0
    4.5080    1.4933    0.0000 C   0  0  0  0  0  0  0  0  0  0  0  0
    2.3645   -0.5693    0.0000 C   0  0  0  0  0  0  0  0  0  0  0  0
    5.2224    1.9058    0.0000 C   0  0  0  0  0  0  0  0  0  0  0  0
    8.0804   -0.5693    0.0000 C   0  0  0  0  0  0  0  0  0  0  0  0
    1.6500   -0.9818    0.0000 C   0  0  0  0  0  0  0  0  0  0  0  0
    2.3645    0.2558    0.0000 C   0  0  0  0  0  0  0  0  0  0  0  0
    8.7949   -0.9818    0.0000 C   0  0  0  0  0  0  0  0  0  0  0  0
   10.2239   -0.9818    0.0000 C   0  0  0  0  0  0  0  0  0  0  0  0
  1 16  1  0  0  0  0
  1 24  1  0  0  0  0
  2 18  1  0  0  0  0
  2 26  1  0  0  0  0
  3 16  2  0  0  0  0
  4 18  2  0  0  0  0
  5 29  1  0  0  0  0
  5 30  1  0  0  0  0
  6  9  1  0  0  0  0
  7  9  2  0  0  0  0
  8 14  1  0  0  0  0
  8 15  1  0  0  0  0
  9 22  1  0  0  0  0
 10 11  1  0  0  0  0
 10 12  1  0  0  0  0
 10 13  1  0  0  0  0
 11 14  2  0  0  0  0
 11 16  1  0  0  0  0
 12 15  2  0  0  0  0
 12 18  1  0  0  0  0
 13 17  2  0  0  0  0
 13 19  1  0  0  0  0
 14 20  1  0  0  0  0
 15 21  1  0  0  0  0
 17 22  1  0  0  0  0
 19 23  2  0  0  0  0
 22 25  2  0  0  0  0
 23 25  1  0  0  0  0
 24 27  1  0  0  0  0
 24 28  1  0  0  0  0
 26 29  1  0  0  0  0
M  CHG  2   6  -1   9   1
M  END
> <DATABASE_ID>
DB00393

> <DATABASE_NAME>
drugbank

> <SMILES>
COCCOC(=O)C1=C(C)NC(C)=C(C1C1=CC(=CC=C1)[N+]([O-])=O)C(=O)OC(C)C

> <INCHI_IDENTIFIER>
InChI=1S/C21H26N2O7/c1-12(2)30-21(25)18-14(4)22-13(3)17(20(24)29-10-9-28-5)19(18)15-7-6-8-16(11-15)23(26)27/h6-8,11-12,19,22H,9-10H2,1-5H3

> <INCHI_KEY>
UIAGMCDKSXEBJQ-UHFFFAOYSA-N

> <FORMULA>
C21H26N2O7

> <MOLECULAR_WEIGHT>
418.4403

> <EXACT_MASS>
418.174001196

> <JCHEM_ACCEPTOR_COUNT>
6

> <JCHEM_ATOM_COUNT>
56

> <JCHEM_AVERAGE_NEUTRAL_MICROSPECIES_CHARGE>
-1.0093353844780579e-10

> <JCHEM_AVERAGE_POLARIZABILITY>
43.06642850850174

> <JCHEM_BIOAVAILABILITY>
1

> <JCHEM_DONOR_COUNT>
1

> <JCHEM_FORMAL_CHARGE>
0

> <JCHEM_GHOSE_FILTER>
1

> <JCHEM_IUPAC>
3-(2-methoxyethyl) 5-propan-2-yl 2,6-dimethyl-4-(3-nitrophenyl)-1,4-dihydropyridine-3,5-dicarboxylate

> <ALOGPS_LOGP>
3.41

> <JCHEM_LOGP>
2.541901752666668

> <ALOGPS_LOGS>
-4.54

> <JCHEM_MDDR_LIKE_RULE>
0

> <JCHEM_NEUTRAL_CHARGE>
0

> <JCHEM_NUMBER_OF_RINGS>
2

> <JCHEM_PHYSIOLOGICAL_CHARGE>
0

> <JCHEM_PKA_STRONGEST_ACIDIC>
16.964282680319084

> <JCHEM_PKA_STRONGEST_BASIC>
-4.115736041594248

> <JCHEM_POLAR_SURFACE_AREA>
117.00000000000001

> <JCHEM_REFRACTIVITY>
111.3714

> <JCHEM_ROTATABLE_BOND_COUNT>
10

> <JCHEM_RULE_OF_FIVE>
1

> <ALOGPS_SOLUBILITY>
1.20e-02 g/l

> <JCHEM_TRADITIONAL_IUPAC>
biotin

> <JCHEM_VEBER_RULE>
0

> <DRUGBANK_ID>
DB00393

> <SECONDARY_ACCESSION_NUMBERS>
APRD00612

> <DRUG_GROUPS>
approved; investigational

> <GENERIC_NAME>
Nimodipine

> <SYNONYMS>
2,6-dimethyl-4-(3'-nitrophenyl)-1,4-dihydropyridine-3,5-dicarboxylic acid 3-Î²-methoxyethyl ester 5-isopropyl ester; isopropyl 2-methoxyethyl 1,4-dihydro-2,6-dimethyl-4-(3-nitrophenyl)-3,5-pyridinedicarboxylate; isopropyl 2-methoxyethyl 1,4-dihydro-2,6-dimethyl-4-(m-nitrophenyl)-3,5-pyridinedicarboxylate; Nimodipine; Nimodipino; Nimodipinum

> <PRODUCTS>
Nimodipine; Nimotop; Nimotop - Cap 30mg; Nimotop Cap 30mg; Nimotop I.V.-0.2mg/ml; Nimotop IV 0.2mg/ml; Nymalize

> <INTERNATIONAL_BRANDS>
Periplum

$$$$
