3A3
  Mrv0541 02241213092D          

 25 27  0  0  0  0            999 V2000
    4.7191    0.9358    0.0000 O   0  0  0  0  0  0  0  0  0  0  0  0
    4.1670    0.3227    0.0000 C   0  0  0  0  0  0  0  0  0  0  0  0
    4.4220   -0.4619    0.0000 O   0  0  0  0  0  0  0  0  0  0  0  0
    3.3601    0.4942    0.0000 C   0  0  0  0  0  0  0  0  0  0  0  0
    2.8080   -0.1189    0.0000 O   0  0  0  0  0  0  0  0  0  0  0  0
    2.0011    0.0527    0.0000 C   0  0  0  0  0  0  0  0  0  0  0  0
    1.4490   -0.5604    0.0000 C   0  0  0  0  0  0  0  0  0  0  0  0
    1.7461    0.8373    0.0000 C   0  0  0  0  0  0  0  0  0  0  0  0
    0.9391    1.0088    0.0000 C   0  0  0  0  0  0  0  0  0  0  0  0
    0.3871    0.3957    0.0000 C   0  0  0  0  0  0  0  0  0  0  0  0
    0.6420   -0.3889    0.0000 C   0  0  0  0  0  0  0  0  0  0  0  0
   -0.0254   -0.8738    0.0000 C   0  0  0  0  0  0  0  0  0  0  0  0
   -0.0254   -1.6988    0.0000 N   0  0  0  0  0  0  0  0  0  0  0  0
   -0.7399   -2.1113    0.0000 O   0  0  0  0  0  0  0  0  0  0  0  0
   -0.6928   -0.3889    0.0000 C   0  0  0  0  0  0  0  0  0  0  0  0
   -1.4998   -0.5604    0.0000 C   0  0  0  0  0  0  0  0  0  0  0  0
   -0.4379    0.3957    0.0000 C   0  0  0  0  0  0  0  0  0  0  0  0
   -0.9899    1.0088    0.0000 C   0  0  0  0  0  0  0  0  0  0  0  0
   -1.7969    0.8373    0.0000 C   0  0  0  0  0  0  0  0  0  0  0  0
   -2.0518    0.0527    0.0000 C   0  0  0  0  0  0  0  0  0  0  0  0
   -2.8588   -0.1189    0.0000 O   0  0  0  0  0  0  0  0  0  0  0  0
   -3.1137   -0.9035    0.0000 C   0  0  0  0  0  0  0  0  0  0  0  0
   -3.9207   -1.0750    0.0000 C   0  0  0  0  0  0  0  0  0  0  0  0
   -4.1757   -1.8596    0.0000 O   0  0  0  0  0  0  0  0  0  0  0  0
   -4.4727   -0.4619    0.0000 O   0  0  0  0  0  0  0  0  0  0  0  0
  1  2  1  0  0  0  0
  2  3  2  0  0  0  0
  2  4  1  0  0  0  0
  4  5  1  0  0  0  0
  5  6  1  0  0  0  0
  6  7  2  0  0  0  0
  6  8  1  0  0  0  0
  7 11  1  0  0  0  0
  8  9  2  0  0  0  0
  9 10  1  0  0  0  0
 10 11  2  0  0  0  0
 10 17  1  0  0  0  0
 11 12  1  0  0  0  0
 12 13  2  0  0  0  0
 12 15  1  0  0  0  0
 13 14  1  0  0  0  0
 15 16  2  0  0  0  0
 15 17  1  0  0  0  0
 16 20  1  0  0  0  0
 17 18  2  0  0  0  0
 18 19  1  0  0  0  0
 19 20  2  0  0  0  0
 20 21  1  0  0  0  0
 21 22  1  0  0  0  0
 22 23  1  0  0  0  0
 23 24  1  0  0  0  0
 23 25  2  0  0  0  0
M  END
> <DATABASE_ID>
DB07034

> <DATABASE_NAME>
drugbank

> <SMILES>
ON=C1C2=CC(OCC(O)=O)=CC=C2C2=C1C=C(OCC(O)=O)C=C2

> <INCHI_IDENTIFIER>
InChI=1S/C17H13NO7/c19-15(20)7-24-9-1-3-11-12-4-2-10(25-8-16(21)22)6-14(12)17(18-23)13(11)5-9/h1-6,23H,7-8H2,(H,19,20)(H,21,22)

> <INCHI_KEY>
VOKATEXROYSXDW-UHFFFAOYSA-N

> <FORMULA>
C17H13NO7

> <MOLECULAR_WEIGHT>
343.2876

> <EXACT_MASS>
343.069201775

> <JCHEM_ACCEPTOR_COUNT>
8

> <JCHEM_ATOM_COUNT>
38

> <JCHEM_AVERAGE_NEUTRAL_MICROSPECIES_CHARGE>
-2.9412461261552476

> <JCHEM_AVERAGE_POLARIZABILITY>
34.20083196232708

> <JCHEM_BIOAVAILABILITY>
1

> <JCHEM_DONOR_COUNT>
3

> <JCHEM_FORMAL_CHARGE>
0

> <JCHEM_GHOSE_FILTER>
1

> <JCHEM_IUPAC>
2-{[7-(carboxymethoxy)-9-(hydroxyimino)-9H-fluoren-2-yl]oxy}acetic acid

> <ALOGPS_LOGP>
1.47

> <JCHEM_LOGP>
1.569383795500876

> <ALOGPS_LOGS>
-3.62

> <JCHEM_MDDR_LIKE_RULE>
1

> <JCHEM_NEUTRAL_CHARGE>
-3

> <JCHEM_NUMBER_OF_RINGS>
3

> <JCHEM_PHYSIOLOGICAL_CHARGE>
-3

> <JCHEM_PKA>
3.5523306975250146

> <JCHEM_PKA_STRONGEST_ACIDIC>
2.956263165712888

> <JCHEM_PKA_STRONGEST_BASIC>
1.5583443456855373

> <JCHEM_POLAR_SURFACE_AREA>
125.65

> <JCHEM_REFRACTIVITY>
84.62899999999999

> <JCHEM_ROTATABLE_BOND_COUNT>
6

> <JCHEM_RULE_OF_FIVE>
1

> <ALOGPS_SOLUBILITY>
8.29e-02 g/l

> <JCHEM_TRADITIONAL_IUPAC>
biotin

> <JCHEM_VEBER_RULE>
0

> <DRUGBANK_ID>
DB07034

> <DRUG_GROUPS>
experimental

> <GENERIC_NAME>
2,2'-{[9-(HYDROXYIMINO)-9H-FLUORENE-2,7-DIYL]BIS(OXY)}DIACETIC ACID

$$$$
