3EA
  Mrv0541 02241213102D          

 34 37  0  0  0  0            999 V2000
   -2.4684   -2.3713    0.0000 C   0  0  0  0  0  0  0  0  0  0  0  0
   -2.4684   -1.5463    0.0000 C   0  0  0  0  0  0  0  0  0  0  0  0
   -3.1829   -1.1338    0.0000 C   0  0  0  0  0  0  0  0  0  0  0  0
   -3.1829   -0.3088    0.0000 C   0  0  0  0  0  0  0  0  0  0  0  0
   -3.8974    0.1037    0.0000 C   0  0  0  0  0  0  0  0  0  0  0  0
   -4.6820   -0.1512    0.0000 O   0  0  0  0  0  0  0  0  0  0  0  0
   -5.1669    0.5162    0.0000 N   0  0  0  0  0  0  0  0  0  0  0  0
   -4.6820    1.1836    0.0000 C   0  0  0  0  0  0  0  0  0  0  0  0
   -4.9369    1.9683    0.0000 C   0  0  0  0  0  0  0  0  0  0  0  0
   -5.1919    2.7529    0.0000 F   0  0  0  0  0  0  0  0  0  0  0  0
   -5.7215    1.7133    0.0000 F   0  0  0  0  0  0  0  0  0  0  0  0
   -4.1523    2.2232    0.0000 F   0  0  0  0  0  0  0  0  0  0  0  0
   -3.8974    0.9287    0.0000 C   0  0  0  0  0  0  0  0  0  0  0  0
   -3.1829    1.3412    0.0000 C   0  0  0  0  0  0  0  0  0  0  0  0
   -2.4684    0.9287    0.0000 C   0  0  0  0  0  0  0  0  0  0  0  0
   -2.4684    0.1037    0.0000 C   0  0  0  0  0  0  0  0  0  0  0  0
   -1.7540   -0.3088    0.0000 O   0  0  0  0  0  0  0  0  0  0  0  0
   -1.0395    0.1037    0.0000 C   0  0  0  0  0  0  0  0  0  0  0  0
   -0.3250   -0.3088    0.0000 C   0  0  0  0  0  0  0  0  0  0  0  0
    0.3895    0.1037    0.0000 C   0  0  0  0  0  0  0  0  0  0  0  0
    1.1039   -0.3088    0.0000 O   0  0  0  0  0  0  0  0  0  0  0  0
    1.8184    0.1037    0.0000 C   0  0  0  0  0  0  0  0  0  0  0  0
    1.8184    0.9287    0.0000 C   0  0  0  0  0  0  0  0  0  0  0  0
    2.5329   -0.3088    0.0000 C   0  0  0  0  0  0  0  0  0  0  0  0
    3.2473    0.1037    0.0000 C   0  0  0  0  0  0  0  0  0  0  0  0
    3.2473    0.9287    0.0000 C   0  0  0  0  0  0  0  0  0  0  0  0
    2.5329    1.3412    0.0000 C   0  0  0  0  0  0  0  0  0  0  0  0
    2.7044    2.1482    0.0000 C   0  0  0  0  0  0  0  0  0  0  0  0
    3.5249    2.2344    0.0000 C   0  0  0  0  0  0  0  0  0  0  0  0
    3.8604    1.4807    0.0000 N   0  0  0  0  0  0  0  0  0  0  0  0
    4.6674    1.3092    0.0000 C   0  0  0  0  0  0  0  0  0  0  0  0
    4.9223    0.5246    0.0000 C   0  0  0  0  0  0  0  0  0  0  0  0
    5.7293    0.3530    0.0000 O   0  0  0  0  0  0  0  0  0  0  0  0
    4.3703   -0.0885    0.0000 O   0  0  0  0  0  0  0  0  0  0  0  0
  1  2  1  0  0  0  0
  2  3  1  0  0  0  0
  3  4  1  0  0  0  0
  4  5  2  0  0  0  0
  4 16  1  0  0  0  0
  5  6  1  0  0  0  0
  5 13  1  0  0  0  0
  6  7  1  0  0  0  0
  7  8  2  0  0  0  0
  8  9  1  0  0  0  0
  8 13  1  0  0  0  0
  9 10  1  0  0  0  0
  9 11  1  0  0  0  0
  9 12  1  0  0  0  0
 13 14  2  0  0  0  0
 14 15  1  0  0  0  0
 15 16  2  0  0  0  0
 16 17  1  0  0  0  0
 17 18  1  0  0  0  0
 18 19  1  0  0  0  0
 19 20  1  0  0  0  0
 20 21  1  0  0  0  0
 21 22  1  0  0  0  0
 22 23  2  0  0  0  0
 22 24  1  0  0  0  0
 23 27  1  0  0  0  0
 24 25  2  0  0  0  0
 25 26  1  0  0  0  0
 26 27  2  0  0  0  0
 26 30  1  0  0  0  0
 27 28  1  0  0  0  0
 28 29  2  0  0  0  0
 29 30  1  0  0  0  0
 30 31  1  0  0  0  0
 31 32  1  0  0  0  0
 32 33  1  0  0  0  0
 32 34  2  0  0  0  0
M  END
> <DATABASE_ID>
DB07053

> <DATABASE_NAME>
drugbank

> <SMILES>
CCCC1=C2ON=C(C2=CC=C1OCCCOC1=CC2=C(C=C1)N(CC(O)=O)C=C2)C(F)(F)F

> <INCHI_IDENTIFIER>
InChI=1S/C24H23F3N2O5/c1-2-4-17-20(8-6-18-22(17)34-28-23(18)24(25,26)27)33-12-3-11-32-16-5-7-19-15(13-16)9-10-29(19)14-21(30)31/h5-10,13H,2-4,11-12,14H2,1H3,(H,30,31)

> <INCHI_KEY>
TWVYNPULGKGJOS-UHFFFAOYSA-N

> <FORMULA>
C24H23F3N2O5

> <MOLECULAR_WEIGHT>
476.445

> <EXACT_MASS>
476.155906471

> <JCHEM_ACCEPTOR_COUNT>
5

> <JCHEM_ATOM_COUNT>
57

> <JCHEM_AVERAGE_NEUTRAL_MICROSPECIES_CHARGE>
-0.9990966022900114

> <JCHEM_AVERAGE_POLARIZABILITY>
46.021809933120075

> <JCHEM_BIOAVAILABILITY>
0

> <JCHEM_DONOR_COUNT>
1

> <JCHEM_FORMAL_CHARGE>
0

> <JCHEM_GHOSE_FILTER>
1

> <JCHEM_IUPAC>
2-[5-(3-{[7-propyl-3-(trifluoromethyl)-1,2-benzoxazol-6-yl]oxy}propoxy)-1H-indol-1-yl]acetic acid

> <ALOGPS_LOGP>
5.30

> <JCHEM_LOGP>
5.369686070000001

> <ALOGPS_LOGS>
-4.59

> <JCHEM_MDDR_LIKE_RULE>
1

> <JCHEM_NEUTRAL_CHARGE>
-1

> <JCHEM_NUMBER_OF_RINGS>
4

> <JCHEM_PHYSIOLOGICAL_CHARGE>
-1

> <JCHEM_PKA_STRONGEST_ACIDIC>
3.9562715325081785

> <JCHEM_PKA_STRONGEST_BASIC>
-2.575430672931872

> <JCHEM_POLAR_SURFACE_AREA>
86.72

> <JCHEM_REFRACTIVITY>
117.62119999999999

> <JCHEM_ROTATABLE_BOND_COUNT>
11

> <JCHEM_RULE_OF_FIVE>
0

> <ALOGPS_SOLUBILITY>
1.22e-02 g/l

> <JCHEM_TRADITIONAL_IUPAC>
biotin

> <JCHEM_VEBER_RULE>
0

> <DRUGBANK_ID>
DB07053

> <DRUG_GROUPS>
experimental

> <GENERIC_NAME>
2-{5-[3-(7-PROPYL-3-TRIFLUOROMETHYLBENZO[D]ISOXAZOL-6-YLOXY)PROPOXY]INDOL-1-YL}ETHANOIC ACID

$$$$
