419
  Mrv0541 02231214402D          

 15 15  0  0  1  0            999 V2000
    4.9509   -1.5222    0.0000 O   0  0  0  0  0  0  0  0  0  0  0  0
    3.5220   -2.3472    0.0000 O   0  0  0  0  0  0  0  0  0  0  0  0
    2.0930   -1.5222    0.0000 O   0  0  0  0  0  0  0  0  0  0  0  0
    4.9509    0.9529    0.0000 O   0  0  0  0  0  0  0  0  0  0  0  0
    3.5220    0.1279    0.0000 N   0  0  0  0  0  0  0  0  0  0  0  0
    4.2365   -0.2846    0.0000 C   0  0  1  0  0  0  0  0  0  0  0  0
    4.2365   -1.1096    0.0000 C   0  0  2  0  0  0  0  0  0  0  0  0
    3.5220   -1.5222    0.0000 C   0  0  1  0  0  0  0  0  0  0  0  0
    2.8075   -1.1096    0.0000 C   0  0  2  0  0  0  0  0  0  0  0  0
    2.8075   -0.2846    0.0000 C   0  0  0  0  0  0  0  0  0  0  0  0
    3.5220    0.9529    0.0000 C   0  0  0  0  0  0  0  0  0  0  0  0
    4.9509    0.1279    0.0000 C   0  0  0  0  0  0  0  0  0  0  0  0
    2.8075    1.3654    0.0000 C   0  0  0  0  0  0  0  0  0  0  0  0
    2.8075    2.1904    0.0000 C   0  0  0  0  0  0  0  0  0  0  0  0
    2.0930    2.6029    0.0000 C   0  0  0  0  0  0  0  0  0  0  0  0
  7  1  1  1  0  0  0
  8  2  1  6  0  0  0
  9  3  1  1  0  0  0
  4 12  1  0  0  0  0
  5  6  1  0  0  0  0
  5 10  1  0  0  0  0
  5 11  1  0  0  0  0
  6  7  1  0  0  0  0
  6 12  1  6  0  0  0
  7  8  1  0  0  0  0
  8  9  1  0  0  0  0
  9 10  1  0  0  0  0
 11 13  1  0  0  0  0
 13 14  1  0  0  0  0
 14 15  1  0  0  0  0
M  END
> <DATABASE_ID>
DB00419

> <DATABASE_NAME>
drugbank

> <SMILES>
CCCCN1C[C@H](O)[C@@H](O)[C@H](O)[C@H]1CO

> <INCHI_IDENTIFIER>
InChI=1S/C10H21NO4/c1-2-3-4-11-5-8(13)10(15)9(14)7(11)6-12/h7-10,12-15H,2-6H2,1H3/t7-,8+,9-,10-/m1/s1

> <INCHI_KEY>
UQRORFVVSGFNRO-UTINFBMNSA-N

> <FORMULA>
C10H21NO4

> <MOLECULAR_WEIGHT>
219.278

> <EXACT_MASS>
219.147058165

> <JCHEM_ACCEPTOR_COUNT>
5

> <JCHEM_ATOM_COUNT>
36

> <JCHEM_AVERAGE_NEUTRAL_MICROSPECIES_CHARGE>
0.9688627787786115

> <JCHEM_AVERAGE_POLARIZABILITY>
23.948790194729046

> <JCHEM_BIOAVAILABILITY>
1

> <JCHEM_DONOR_COUNT>
4

> <JCHEM_FORMAL_CHARGE>
0

> <JCHEM_GHOSE_FILTER>
0

> <JCHEM_IUPAC>
(2R,3R,4R,5S)-1-butyl-2-(hydroxymethyl)piperidine-3,4,5-triol

> <ALOGPS_LOGP>
-1.14

> <JCHEM_LOGP>
-1.178796231

> <ALOGPS_LOGS>
0.18

> <JCHEM_MDDR_LIKE_RULE>
0

> <JCHEM_NEUTRAL_CHARGE>
1

> <JCHEM_NUMBER_OF_RINGS>
1

> <JCHEM_PHYSIOLOGICAL_CHARGE>
1

> <JCHEM_PKA>
14.032374880430774

> <JCHEM_PKA_STRONGEST_ACIDIC>
12.902158855063018

> <JCHEM_PKA_STRONGEST_BASIC>
8.49299815256285

> <JCHEM_POLAR_SURFACE_AREA>
84.16

> <JCHEM_REFRACTIVITY>
55.7427

> <JCHEM_ROTATABLE_BOND_COUNT>
4

> <JCHEM_RULE_OF_FIVE>
1

> <ALOGPS_SOLUBILITY>
3.31e+02 g/l

> <JCHEM_TRADITIONAL_IUPAC>
tetrahydrofolic acid

> <JCHEM_VEBER_RULE>
0

> <DRUGBANK_ID>
DB00419

> <SECONDARY_ACCESSION_NUMBERS>
APRD01118

> <DRUG_GROUPS>
approved

> <GENERIC_NAME>
Miglustat

> <SYNONYMS>
BuDNJ; Butyldeoxynojirimycin; Miglustat; Miglustatum; N-(n-Butyl)deoxynojirimycin; n-Butyl deoxynojirimycin; N-butyl-1-deoxynojirimycin; N-Butylmoranoline; NB-DNJ

> <PRODUCTS>
Miglustat; Miglustat Dipharma; Miglustat Gen.orph; Sandoz Miglustat; Yargesa; Zavesca

> <SALTS>
Miglustat hydrochloride

$$$$
