422
  Mrv0541 02231214402D          

 17 18  0  0  1  0            999 V2000
    3.0791   -1.0313    0.0000 O   0  0  0  0  0  0  0  0  0  0  0  0
    4.5080   -1.0313    0.0000 O   0  0  0  0  0  0  0  0  0  0  0  0
    5.2224    0.2063    0.0000 N   0  0  0  0  0  0  0  0  0  0  0  0
    4.5080    0.6188    0.0000 C   0  0  0  0  0  0  0  0  0  0  0  0
    4.5080    1.4438    0.0000 C   0  0  0  0  0  0  0  0  0  0  0  0
    3.7935    0.2063    0.0000 C   0  0  0  0  0  0  0  0  0  0  0  0
    5.2224    1.8563    0.0000 C   0  0  0  0  0  0  0  0  0  0  0  0
    5.9370    1.4438    0.0000 C   0  0  0  0  0  0  0  0  0  0  0  0
    5.9370    0.6188    0.0000 C   0  0  0  0  0  0  0  0  0  0  0  0
    3.0791    0.6188    0.0000 C   0  0  0  0  0  0  0  0  0  0  0  0
    3.7935   -0.6188    0.0000 C   0  0  0  0  0  0  0  0  0  0  0  0
    2.3645    0.2063    0.0000 C   0  0  0  0  0  0  0  0  0  0  0  0
    3.0791    1.4438    0.0000 C   0  0  0  0  0  0  0  0  0  0  0  0
    1.6500    0.6188    0.0000 C   0  0  0  0  0  0  0  0  0  0  0  0
    2.3645    1.8563    0.0000 C   0  0  0  0  0  0  0  0  0  0  0  0
    1.6500    1.4438    0.0000 C   0  0  0  0  0  0  0  0  0  0  0  0
    3.0791   -1.8563    0.0000 C   0  0  0  0  0  0  0  0  0  0  0  0
  1 11  1  0  0  0  0
  1 17  1  0  0  0  0
  2 11  2  0  0  0  0
  3  4  1  0  0  0  0
  3  9  1  0  0  0  0
  4  5  1  0  0  0  0
  4  6  1  0  0  0  0
  5  7  1  0  0  0  0
  6 10  1  0  0  0  0
  6 11  1  0  0  0  0
  7  8  1  0  0  0  0
  8  9  1  0  0  0  0
 10 12  2  0  0  0  0
 10 13  1  0  0  0  0
 12 14  1  0  0  0  0
 13 15  2  0  0  0  0
 14 16  2  0  0  0  0
 15 16  1  0  0  0  0
M  END
> <DATABASE_ID>
DB00422

> <DATABASE_NAME>
drugbank

> <SMILES>
COC(=O)C(C1CCCCN1)C1=CC=CC=C1

> <INCHI_IDENTIFIER>
InChI=1S/C14H19NO2/c1-17-14(16)13(11-7-3-2-4-8-11)12-9-5-6-10-15-12/h2-4,7-8,12-13,15H,5-6,9-10H2,1H3

> <INCHI_KEY>
DUGOZIWVEXMGBE-UHFFFAOYSA-N

> <FORMULA>
C14H19NO2

> <MOLECULAR_WEIGHT>
233.3062

> <EXACT_MASS>
233.141578857

> <JCHEM_ACCEPTOR_COUNT>
2

> <JCHEM_ATOM_COUNT>
36

> <JCHEM_AVERAGE_NEUTRAL_MICROSPECIES_CHARGE>
0.9919155984854046

> <JCHEM_AVERAGE_POLARIZABILITY>
25.91177347809127

> <JCHEM_BIOAVAILABILITY>
1

> <JCHEM_DONOR_COUNT>
1

> <JCHEM_FORMAL_CHARGE>
0

> <JCHEM_GHOSE_FILTER>
1

> <JCHEM_IUPAC>
methyl 2-phenyl-2-(piperidin-2-yl)acetate

> <ALOGPS_LOGP>
1.47

> <JCHEM_LOGP>
2.254935081666666

> <ALOGPS_LOGS>
-3.11

> <JCHEM_MDDR_LIKE_RULE>
0

> <JCHEM_NEUTRAL_CHARGE>
1

> <JCHEM_NUMBER_OF_RINGS>
2

> <JCHEM_PHYSIOLOGICAL_CHARGE>
1

> <JCHEM_PKA_STRONGEST_BASIC>
9.088826845099911

> <JCHEM_POLAR_SURFACE_AREA>
38.33

> <JCHEM_REFRACTIVITY>
66.72820000000002

> <JCHEM_ROTATABLE_BOND_COUNT>
4

> <JCHEM_RULE_OF_FIVE>
1

> <ALOGPS_SOLUBILITY>
1.82e-01 g/l

> <JCHEM_TRADITIONAL_IUPAC>
tetrahydrofolic acid

> <JCHEM_VEBER_RULE>
1

> <DRUGBANK_ID>
DB00422

> <SECONDARY_ACCESSION_NUMBERS>
APRD00657

> <DRUG_GROUPS>
approved; investigational

> <GENERIC_NAME>
Methylphenidate

> <SYNONYMS>
Methyl phenidylacetate; methyl phenyl(piperidin-2-yl)acetate; methyl α-phenyl-α-(2-piperidyl)acetate; methyl α-phenyl-α-2-piperidinylacetate; Methylphenidan; Methylphenidate; Methylphenidatum; Metilfenidato; MPH; α-phenyl-2-piperidineacetic acid methyl ester

> <PRODUCTS>
Act Methylphenidate ER; Adhansia XR; Apo-methylphenidate; Apo-methylphenidate ER; Apo-methylphenidate SR; Aptensio XR; Bar-methylphenidate HCl CR; Biphentin; Concerta; Cotempla XR-ODT; Daytrana; Foquest; JORNAY PM Extended-Release; Metadate; Metadate CD; Metadate ER; Methylin; Methylin ER; Methylphenidate; Methylphenidate HCl; Methylphenidate Hydrochloride; Methylphenidate Hydrochloride (CD); Methylphenidate Hydrochloride (LA); Methylphenidate Hydrochloride ER; Methylphenidate Hydrochloride Extended Release; Methylphenidate Hydrochloride Extended-Release; Methylphenidate Hydrochloride SR; Methylphenidate Tab 10mg; Methylphenidate Tab 20mg; Methylphenidate hydrochloride; Novo-methylphenidate; Ntp-methylphenidate ER-C; PHL-methylphenidate; PMS-methylphenidate; PMS-methylphenidate ER; QuilliChew ER; Quillivant XR; Ratio-methylphenidate; Relexxii; Ritalin; Ritalin 10mg; Ritalin 20mg; Ritalin LA; Ritalin SR; Ritalin-SR; Ritalin-SR Tab 20mg; Sandoz Methylphenidate; Sandoz Methylphenidate SR; Teva-methylphenidate ER-C; methylphenidate Hydrochloride; methylphenidate hydrochloride CD

> <INTERNATIONAL_BRANDS>
Equasym XL; Medikinet XL; Quillivant; Riphenidate; Rubifen SR

> <SALTS>
Methylphenidate hydrochloride

$$$$
