426
  Mrv0541 02231214402D          

 23 24  0  0  0  0            999 V2000
    6.0423    1.6137    0.0000 O   0  0  0  0  0  0  0  0  0  0  0  0
    7.4005    1.1698    0.0000 O   0  0  0  0  0  0  0  0  0  0  0  0
    4.6840    2.0577    0.0000 O   0  0  0  0  0  0  0  0  0  0  0  0
    8.7588    0.7258    0.0000 O   0  0  0  0  0  0  0  0  0  0  0  0
    5.0170   -1.5230    0.0000 N   0  0  0  0  0  0  0  0  0  0  0  0
    5.0170   -2.8509    0.0000 N   0  0  0  0  0  0  0  0  0  0  0  0
    3.5220   -1.3619    0.0000 N   0  0  0  0  0  0  0  0  0  0  0  0
    2.8075   -2.5994    0.0000 N   0  0  0  0  0  0  0  0  0  0  0  0
    2.0930   -1.3619    0.0000 N   0  0  0  0  0  0  0  0  0  0  0  0
    6.3370    0.2155    0.0000 C   0  0  0  0  0  0  0  0  0  0  0  0
    6.0806   -0.5687    0.0000 C   0  0  0  0  0  0  0  0  0  0  0  0
    5.2734   -0.7389    0.0000 C   0  0  0  0  0  0  0  0  0  0  0  0
    5.7859    0.8295    0.0000 C   0  0  0  0  0  0  0  0  0  0  0  0
    7.1442    0.3856    0.0000 C   0  0  0  0  0  0  0  0  0  0  0  0
    4.2364   -1.7744    0.0000 C   0  0  0  0  0  0  0  0  0  0  0  0
    5.4985   -2.1869    0.0000 C   0  0  0  0  0  0  0  0  0  0  0  0
    4.2364   -2.5994    0.0000 C   0  0  0  0  0  0  0  0  0  0  0  0
    3.5220   -3.0119    0.0000 C   0  0  0  0  0  0  0  0  0  0  0  0
    5.4913    2.2278    0.0000 C   0  0  0  0  0  0  0  0  0  0  0  0
    8.2078    1.3399    0.0000 C   0  0  0  0  0  0  0  0  0  0  0  0
    2.8075   -1.7744    0.0000 C   0  0  0  0  0  0  0  0  0  0  0  0
    5.7476    3.0119    0.0000 C   0  0  0  0  0  0  0  0  0  0  0  0
    8.4641    2.1241    0.0000 C   0  0  0  0  0  0  0  0  0  0  0  0
  1 13  1  0  0  0  0
  1 19  1  0  0  0  0
  2 14  1  0  0  0  0
  2 20  1  0  0  0  0
  3 19  2  0  0  0  0
  4 20  2  0  0  0  0
  5 12  1  0  0  0  0
  5 15  1  0  0  0  0
  5 16  1  0  0  0  0
  6 16  2  0  0  0  0
  6 17  1  0  0  0  0
  7 15  2  0  0  0  0
  7 21  1  0  0  0  0
  8 18  1  0  0  0  0
  8 21  2  0  0  0  0
  9 21  1  0  0  0  0
 10 11  1  0  0  0  0
 10 13  1  0  0  0  0
 10 14  1  0  0  0  0
 11 12  1  0  0  0  0
 15 17  1  0  0  0  0
 17 18  2  0  0  0  0
 19 22  1  0  0  0  0
 20 23  1  0  0  0  0
M  END
> <DATABASE_ID>
DB00426

> <DATABASE_NAME>
drugbank

> <SMILES>
CC(=O)OCC(CCN1C=NC2=CN=C(N)N=C12)COC(C)=O

> <INCHI_IDENTIFIER>
InChI=1S/C14H19N5O4/c1-9(20)22-6-11(7-23-10(2)21)3-4-19-8-17-12-5-16-14(15)18-13(12)19/h5,8,11H,3-4,6-7H2,1-2H3,(H2,15,16,18)

> <INCHI_KEY>
GGXKWVWZWMLJEH-UHFFFAOYSA-N

> <FORMULA>
C14H19N5O4

> <MOLECULAR_WEIGHT>
321.3318

> <EXACT_MASS>
321.143704121

> <JCHEM_ACCEPTOR_COUNT>
6

> <JCHEM_ATOM_COUNT>
42

> <JCHEM_AVERAGE_NEUTRAL_MICROSPECIES_CHARGE>
0.0044658162041475965

> <JCHEM_AVERAGE_POLARIZABILITY>
32.822540306674185

> <JCHEM_BIOAVAILABILITY>
1

> <JCHEM_DONOR_COUNT>
1

> <JCHEM_FORMAL_CHARGE>
0

> <JCHEM_GHOSE_FILTER>
0

> <JCHEM_IUPAC>
2-[(acetyloxy)methyl]-4-(2-amino-9H-purin-9-yl)butyl acetate

> <ALOGPS_LOGP>
0.13

> <JCHEM_LOGP>
-0.4836860169999998

> <ALOGPS_LOGS>
-2.39

> <JCHEM_MDDR_LIKE_RULE>
0

> <JCHEM_NEUTRAL_CHARGE>
0

> <JCHEM_NUMBER_OF_RINGS>
2

> <JCHEM_PHYSIOLOGICAL_CHARGE>
0

> <JCHEM_PKA_STRONGEST_ACIDIC>
16.67717889134422

> <JCHEM_PKA_STRONGEST_BASIC>
3.652855459362169

> <JCHEM_POLAR_SURFACE_AREA>
122.22

> <JCHEM_REFRACTIVITY>
81.53530000000002

> <JCHEM_ROTATABLE_BOND_COUNT>
9

> <JCHEM_RULE_OF_FIVE>
1

> <ALOGPS_SOLUBILITY>
1.32e+00 g/l

> <JCHEM_TRADITIONAL_IUPAC>
biotin

> <JCHEM_VEBER_RULE>
0

> <DRUGBANK_ID>
DB00426

> <SECONDARY_ACCESSION_NUMBERS>
APRD00600

> <DRUG_GROUPS>
approved; investigational

> <GENERIC_NAME>
Famciclovir

> <SYNONYMS>
2-(2-(2-amino-9H-purin-9-yl)ethyl)-1,3-propanediol diacetate; 9-[4-acetoxy-3-(acetoxymethyl)but-1-yl]-2-aminopurine; acetic acid 2-acetoxymethyl-4-(2-amino-purin-9-yl)-butyl ester; Famciclovir; Famciclovirum; FCV

> <PRODUCTS>
Act Famciclovir; Apo-famciclovir; Auro-famciclovir; Ava-famciclovir; Dom-famciclovir; Famciclovir; Famvir; Novo-famciclovir; PHL-famciclovir; PMS-famciclovir; Sandoz Famciclovir

> <INTERNATIONAL_BRANDS>
Ezovir; Fambir; Famcino; Famcir; Famvir Once; Fanclomax; Fanle; Microvir; Oravir; Pentavir; Penvir; Pixin; Virovir; Wan Qi; Weike

$$$$
