445
  Mrv0541 02231214412D          

 39 43  0  0  1  0            999 V2000
    4.9345    0.4160    0.0000 O   0  0  0  0  0  0  0  0  0  0  0  0
    3.5056    0.4325    0.0000 O   0  0  0  0  0  0  0  0  0  0  0  0
    3.7677   -2.4082    0.0000 O   0  0  0  0  0  0  0  0  0  0  0  0
    2.0959    2.0989    0.0000 O   0  0  0  0  0  0  0  0  0  0  0  0
    6.3769    0.3875    0.0000 O   0  0  0  0  0  0  0  0  0  0  0  0
    6.3769   -2.9125    0.0000 O   0  0  0  0  0  0  0  0  0  0  0  0
    2.9372   -0.9825    0.0000 O   0  0  0  0  0  0  0  0  0  0  0  0
    2.1178   -2.4146    0.0000 O   0  0  0  0  0  0  0  0  0  0  0  0
    7.8193    0.4160    0.0000 O   0  0  0  0  0  0  0  0  0  0  0  0
    7.8193   -2.9410    0.0000 O   0  0  0  0  0  0  0  0  0  0  0  0
    9.3351    0.4516    0.0000 O   0  0  0  0  0  0  0  0  0  0  0  0
    3.5343    2.9074    0.0000 N   0  0  0  0  0  0  0  0  0  0  0  0
    4.9250   -0.4089    0.0000 C   0  0  1  0  0  0  0  0  0  0  0  0
    4.1774   -1.6921    0.0000 C   0  0  2  0  0  0  0  0  0  0  0  0
    4.1774   -0.8328    0.0000 C   0  0  0  0  0  0  0  0  0  0  0  0
    4.9250   -2.1161    0.0000 C   0  0  0  0  0  0  0  0  0  0  0  0
    5.6624   -0.8500    0.0000 C   0  0  0  0  0  0  0  0  0  0  0  0
    5.6624   -1.6750    0.0000 C   0  0  0  0  0  0  0  0  0  0  0  0
    4.2248    0.8368    0.0000 C   0  0  2  0  0  0  0  0  0  0  0  0
    4.2344    1.6617    0.0000 C   0  0  0  0  0  0  0  0  0  0  0  0
    3.5247    2.0824    0.0000 C   0  0  1  0  0  0  0  0  0  0  0  0
    2.8056    1.6782    0.0000 C   0  0  2  0  0  0  0  0  0  0  0  0
    2.7960    0.8533    0.0000 C   0  0  2  0  0  0  0  0  0  0  0  0
    6.3769   -0.4375    0.0000 C   0  0  0  0  0  0  0  0  0  0  0  0
    3.3524   -1.6954    0.0000 C   0  0  0  0  0  0  0  0  0  0  0  0
    6.3769   -2.0875    0.0000 C   0  0  0  0  0  0  0  0  0  0  0  0
    7.0914   -0.8500    0.0000 C   0  0  0  0  0  0  0  0  0  0  0  0
    7.0914   -1.6750    0.0000 C   0  0  0  0  0  0  0  0  0  0  0  0
    2.0768    0.4490    0.0000 C   0  0  0  0  0  0  0  0  0  0  0  0
    2.9427   -2.4114    0.0000 C   0  0  0  0  0  0  0  0  0  0  0  0
    7.8289   -0.4089    0.0000 C   0  0  0  0  0  0  0  0  0  0  0  0
    7.8289   -2.1161    0.0000 C   0  0  0  0  0  0  0  0  0  0  0  0
    8.5764   -0.8328    0.0000 C   0  0  0  0  0  0  0  0  0  0  0  0
    8.5764   -1.6921    0.0000 C   0  0  0  0  0  0  0  0  0  0  0  0
    9.3445   -0.3734    0.0000 C   0  0  0  0  0  0  0  0  0  0  0  0
    9.3445   -2.1516    0.0000 C   0  0  0  0  0  0  0  0  0  0  0  0
   10.1232   -0.8149    0.0000 C   0  0  0  0  0  0  0  0  0  0  0  0
   10.1232   -1.7100    0.0000 C   0  0  0  0  0  0  0  0  0  0  0  0
   10.0446    0.8723    0.0000 C   0  0  0  0  0  0  0  0  0  0  0  0
 13  1  1  6  0  0  0
 19  1  1  6  0  0  0
  2 19  1  0  0  0  0
  2 23  1  0  0  0  0
 14  3  1  6  0  0  0
 22  4  1  6  0  0  0
  5 24  1  0  0  0  0
  6 26  1  0  0  0  0
  7 25  2  0  0  0  0
  8 30  1  0  0  0  0
  9 31  2  0  0  0  0
 10 32  2  0  0  0  0
 11 35  1  0  0  0  0
 11 39  1  0  0  0  0
 21 12  1  1  0  0  0
 13 15  1  0  0  0  0
 13 17  1  0  0  0  0
 14 15  1  0  0  0  0
 14 16  1  0  0  0  0
 14 25  1  0  0  0  0
 16 18  1  0  0  0  0
 17 18  2  0  0  0  0
 17 24  1  0  0  0  0
 18 26  1  0  0  0  0
 19 20  1  0  0  0  0
 20 21  1  0  0  0  0
 21 22  1  0  0  0  0
 22 23  1  0  0  0  0
 23 29  1  1  0  0  0
 24 27  2  0  0  0  0
 25 30  1  0  0  0  0
 26 28  2  0  0  0  0
 27 28  1  0  0  0  0
 27 31  1  0  0  0  0
 28 32  1  0  0  0  0
 31 33  1  0  0  0  0
 32 34  1  0  0  0  0
 33 34  2  0  0  0  0
 33 35  1  0  0  0  0
 34 36  1  0  0  0  0
 35 37  2  0  0  0  0
 36 38  2  0  0  0  0
 37 38  1  0  0  0  0
M  END
> <DATABASE_ID>
DB00445

> <DATABASE_NAME>
drugbank

> <SMILES>
COC1=CC=CC2=C1C(=O)C1=C(O)C3=C(C[C@](O)(C[C@@H]3O[C@H]3C[C@H](N)[C@@H](O)[C@H](C)O3)C(=O)CO)C(O)=C1C2=O

> <INCHI_IDENTIFIER>
InChI=1S/C27H29NO11/c1-10-22(31)13(28)6-17(38-10)39-15-8-27(36,16(30)9-29)7-12-19(15)26(35)21-20(24(12)33)23(32)11-4-3-5-14(37-2)18(11)25(21)34/h3-5,10,13,15,17,22,29,31,33,35-36H,6-9,28H2,1-2H3/t10-,13-,15-,17-,22-,27-/m0/s1

> <INCHI_KEY>
AOJJSUZBOXZQNB-VTZDEGQISA-N

> <FORMULA>
C27H29NO11

> <MOLECULAR_WEIGHT>
543.5193

> <EXACT_MASS>
543.174060775

> <JCHEM_ACCEPTOR_COUNT>
12

> <JCHEM_ATOM_COUNT>
68

> <JCHEM_AVERAGE_NEUTRAL_MICROSPECIES_CHARGE>
0.9074815744635404

> <JCHEM_AVERAGE_POLARIZABILITY>
54.620989311351025

> <JCHEM_BIOAVAILABILITY>
0

> <JCHEM_DONOR_COUNT>
6

> <JCHEM_FORMAL_CHARGE>
0

> <JCHEM_GHOSE_FILTER>
0

> <JCHEM_IUPAC>
(8S,10S)-10-{[(2R,4S,5R,6S)-4-amino-5-hydroxy-6-methyloxan-2-yl]oxy}-6,8,11-trihydroxy-8-(2-hydroxyacetyl)-1-methoxy-5,7,8,9,10,12-hexahydrotetracene-5,12-dione

> <ALOGPS_LOGP>
1.41

> <JCHEM_LOGP>
0.5427175132460227

> <ALOGPS_LOGS>
-2.67

> <JCHEM_MDDR_LIKE_RULE>
0

> <JCHEM_NEUTRAL_CHARGE>
1

> <JCHEM_NUMBER_OF_RINGS>
5

> <JCHEM_PHYSIOLOGICAL_CHARGE>
1

> <JCHEM_PKA>
9.41094501738068

> <JCHEM_PKA_STRONGEST_ACIDIC>
8.009651985429558

> <JCHEM_PKA_STRONGEST_BASIC>
10.028287439881966

> <JCHEM_POLAR_SURFACE_AREA>
206.07

> <JCHEM_REFRACTIVITY>
134.59369999999996

> <JCHEM_ROTATABLE_BOND_COUNT>
5

> <JCHEM_RULE_OF_FIVE>
0

> <ALOGPS_SOLUBILITY>
1.18e+00 g/l

> <JCHEM_TRADITIONAL_IUPAC>
biotin

> <JCHEM_VEBER_RULE>
0

> <DRUGBANK_ID>
DB00445

> <SECONDARY_ACCESSION_NUMBERS>
APRD00361

> <DRUG_GROUPS>
approved

> <GENERIC_NAME>
Epirubicin

> <SYNONYMS>
4'-Epiadriamycin; Epiadriamycin; Epirubicin; Epirubicina; Epirubicine; Epirubicinum; Pidorubicina; Pidorubicine; Pidorubicinum

> <PRODUCTS>
Ellence; Epirubicin Hydrochloride; Epirubicin Hydrochloride Injection; Epirubicin Hydrochloride for Injection; Epirubicin for Injection; Epirubicin hydrochloride; PMS-epirubicin; Pharmorubicin PFS; Pharmorubicin Rdf; Pharmorubicin Rdf Inj 50mg/vial; Truemed Group LLC

> <INTERNATIONAL_BRANDS>
Epirubicin Ebewe; Pharmorubicin

> <SALTS>
Epirubicin hydrochloride

$$$$
