455
  Mrv0541 02231214412D          

 27 30  0  0  0  0            999 V2000
    1.6500    2.6662    0.0000 Cl  0  0  0  0  0  0  0  0  0  0  0  0
    5.5304   -2.1411    0.0000 O   0  0  0  0  0  0  0  0  0  0  0  0
    4.1014   -2.1411    0.0000 O   0  0  0  0  0  0  0  0  0  0  0  0
    4.8159   -0.9036    0.0000 N   0  0  0  0  0  0  0  0  0  0  0  0
    6.1801    1.3352    0.0000 N   0  0  0  0  0  0  0  0  0  0  0  0
    4.8159    0.7464    0.0000 C   0  0  0  0  0  0  0  0  0  0  0  0
    5.5304    0.3339    0.0000 C   0  0  0  0  0  0  0  0  0  0  0  0
    4.1014    0.3339    0.0000 C   0  0  0  0  0  0  0  0  0  0  0  0
    4.8159    1.5714    0.0000 C   0  0  0  0  0  0  0  0  0  0  0  0
    5.5304   -0.4911    0.0000 C   0  0  0  0  0  0  0  0  0  0  0  0
    4.1014   -0.4911    0.0000 C   0  0  0  0  0  0  0  0  0  0  0  0
    4.0727    1.9294    0.0000 C   0  0  0  0  0  0  0  0  0  0  0  0
    5.5592    1.9294    0.0000 C   0  0  0  0  0  0  0  0  0  0  0  0
    3.8890    2.7337    0.0000 C   0  0  0  0  0  0  0  0  0  0  0  0
    4.4034    3.3787    0.0000 C   0  0  0  0  0  0  0  0  0  0  0  0
    5.2284    3.3787    0.0000 C   0  0  0  0  0  0  0  0  0  0  0  0
    5.7428    2.7337    0.0000 C   0  0  0  0  0  0  0  0  0  0  0  0
    3.4518    1.3352    0.0000 C   0  0  0  0  0  0  0  0  0  0  0  0
    4.8159   -1.7286    0.0000 C   0  0  0  0  0  0  0  0  0  0  0  0
    3.0718    2.9996    0.0000 C   0  0  0  0  0  0  0  0  0  0  0  0
    6.5600    2.9996    0.0000 C   0  0  0  0  0  0  0  0  0  0  0  0
    2.6286    1.5822    0.0000 C   0  0  0  0  0  0  0  0  0  0  0  0
    2.4374    2.4200    0.0000 C   0  0  0  0  0  0  0  0  0  0  0  0
    7.1944    2.4199    0.0000 C   0  0  0  0  0  0  0  0  0  0  0  0
    7.0032    1.5821    0.0000 C   0  0  0  0  0  0  0  0  0  0  0  0
    5.5304   -2.9662    0.0000 C   0  0  0  0  0  0  0  0  0  0  0  0
    6.2448   -3.3787    0.0000 C   0  0  0  0  0  0  0  0  0  0  0  0
  1 23  1  0  0  0  0
  2 19  1  0  0  0  0
  2 26  1  0  0  0  0
  3 19  2  0  0  0  0
  4 10  1  0  0  0  0
  4 11  1  0  0  0  0
  4 19  1  0  0  0  0
  5 13  1  0  0  0  0
  5 25  2  0  0  0  0
  6  7  1  0  0  0  0
  6  8  1  0  0  0  0
  6  9  2  0  0  0  0
  7 10  1  0  0  0  0
  8 11  1  0  0  0  0
  9 12  1  0  0  0  0
  9 13  1  0  0  0  0
 12 14  2  0  0  0  0
 12 18  1  0  0  0  0
 13 17  2  0  0  0  0
 14 15  1  0  0  0  0
 14 20  1  0  0  0  0
 15 16  1  0  0  0  0
 16 17  1  0  0  0  0
 17 21  1  0  0  0  0
 18 22  2  0  0  0  0
 20 23  2  0  0  0  0
 21 24  2  0  0  0  0
 22 23  1  0  0  0  0
 24 25  1  0  0  0  0
 26 27  1  0  0  0  0
M  END
> <DATABASE_ID>
DB00455

> <DATABASE_NAME>
drugbank

> <SMILES>
CCOC(=O)N1CCC(CC1)=C1C2=C(CCC3=C1N=CC=C3)C=C(Cl)C=C2

> <INCHI_IDENTIFIER>
InChI=1S/C22H23ClN2O2/c1-2-27-22(26)25-12-9-15(10-13-25)20-19-8-7-18(23)14-17(19)6-5-16-4-3-11-24-21(16)20/h3-4,7-8,11,14H,2,5-6,9-10,12-13H2,1H3

> <INCHI_KEY>
JCCNYMKQOSZNPW-UHFFFAOYSA-N

> <FORMULA>
C22H23ClN2O2

> <MOLECULAR_WEIGHT>
382.883

> <EXACT_MASS>
382.144805697

> <JCHEM_ACCEPTOR_COUNT>
2

> <JCHEM_ATOM_COUNT>
50

> <JCHEM_AVERAGE_NEUTRAL_MICROSPECIES_CHARGE>
0.0021512051239645164

> <JCHEM_AVERAGE_POLARIZABILITY>
41.675132935182525

> <JCHEM_BIOAVAILABILITY>
1

> <JCHEM_DONOR_COUNT>
0

> <JCHEM_FORMAL_CHARGE>
0

> <JCHEM_GHOSE_FILTER>
1

> <JCHEM_IUPAC>
ethyl 4-{13-chloro-4-azatricyclo[9.4.0.0^{3,8}]pentadeca-1(11),3(8),4,6,12,14-hexaen-2-ylidene}piperidine-1-carboxylate

> <ALOGPS_LOGP>
4.80

> <JCHEM_LOGP>
4.554579307

> <ALOGPS_LOGS>
-4.46

> <JCHEM_MDDR_LIKE_RULE>
0

> <JCHEM_NEUTRAL_CHARGE>
0

> <JCHEM_NUMBER_OF_RINGS>
4

> <JCHEM_PHYSIOLOGICAL_CHARGE>
0

> <JCHEM_PKA_STRONGEST_BASIC>
4.333617086511285

> <JCHEM_POLAR_SURFACE_AREA>
42.43

> <JCHEM_REFRACTIVITY>
116.9769

> <JCHEM_ROTATABLE_BOND_COUNT>
2

> <JCHEM_RULE_OF_FIVE>
1

> <ALOGPS_SOLUBILITY>
1.34e-02 g/l

> <JCHEM_TRADITIONAL_IUPAC>
biotin

> <JCHEM_VEBER_RULE>
0

> <DRUGBANK_ID>
DB00455

> <SECONDARY_ACCESSION_NUMBERS>
APRD00384

> <DRUG_GROUPS>
approved; investigational

> <GENERIC_NAME>
Loratadine

> <SYNONYMS>
Loratadina; Loratadine; Loratadinum

> <PRODUCTS>
12 Hour Allergy and Congestion; 24 / 7 Life Non-Drowsy Allergy Relief; 24 Hour Allergy Relief; 24 Hour Allergy Remedy; 7 Select Allergy Relief; ALLERCLEAR-D 24 Hour; ALLERGY RELIEF 10 mg; ALLERGY RELIEF 10mg; Alavert Allergy; Alavert Allergy Sinus D-12; Alavert Allergy and Congestion D-12 hour; All Day Allergy Relief; Allegy Relief 24 hour non drowsy; Allergy; Allergy Childrens; Allergy Relief; Allergy Relief 24 hour; Allergy Relief Childrens; Allergy Relief D; Allergy Relief D 12; Allergy Relief D 12 Hour; Allergy Relief D 24 Hour; Allergy Relief Medication; Allergy Relief Non Drowsy; Allergy Relief Non drowsy; Allergy Relief d 12; Allergy Relief-D; Allergy Relief-D 24 Hour; Allergy Relief-D 24 Hour 24 Hour; Allergy Relief-D24 Hour 24 Hour; Allergy Remedy; Allergy and Congestion Relief; Allergy and Congestion Relief Non Drowsy; Allergy and congestion relief; Allergy relief; Allertin; Allertin Tablets 10mg; Allervarx; AlloPAX; Apo-loratadine; Assured Allergy Relief; Bactimicina Allergy; Basic Care Allergy Relief; Basic Care Childrens Allergy Relief; Basic Care allergy relief; Being Well Allergy Relief; Berkley and Jensen Allergy Relief; Berkley and Jensen Childrens Allergy Relief; Berkley and Jensen Loratadine Non Drowsy; Best Choice Childrens Loratadine; Best Choice Childrens Loratadine Sugar Free; CAREALL Loratadine; Care One Childrens Loratadine; CareOne Allergy Relief 24 Hour; CareOne Allergy and congestion relief; Careone Allergy Relief; Careone Allergy and Congestion Relief; Careone Childrens Allergy Relief; Caring Mill Allergy Relief; Children Claritin Allergy; Childrens 24 hour allergy; Childrens Allergy; Childrens Allergy Dye Free; Childrens Allergy Relief; Childrens Dimetapp Non-drowsy Allergy ODT; Childrens Loratadine; Childrens Loratadine ODT; Childrens Loratadine Oral; Childrens Loratadine Sugar Free; Childrens Non-Drowsy 24-Hour Allergy Relief; Childrens Non-Drowsy Allergy Relief 24-Hour; Childrens Wal-itin; Childrens Walitin; Childrens allergy relief; Chlor-tripolon Nd Srt; Claritin; Claritin Allergy; Claritin Allergy + Sinus; Claritin Allergy + Sinus Extra Strength; Claritin Chewable Cool Mint Flavor; Claritin Kids; Claritin Kids Rapid Dissolve; Claritin Liqui-Gels; Claritin Liquid Capsules; Claritin Rapid Dissolve; Claritin Reditabs; Claritin Syrup 1mg/ml; Claritin-D 12 Hour; Claritin-D 24 Hour; Cleartime; Core Values Allergy Relief; CounterAct Allergy; Crane Safety Allergy Relief; Curist Allergy Relief; Dg Health Allergy Relief; Dg Health Childrens Allergy; Dg Health Childrens Allergy Relief; Diphen; Dye-Free Childrens Loratadine; Dye-free Childrens Loratadine; Equaline Allergy Relief; Equaline Allergy and Congestion Relief; Equaline Allergy relief non drowsy; Equaline Childrens Allergy Relief; Equate Allergy Relief; Equate Allergy and Congestion Relief; Equate Childrens Allergy; Exchange Select Allergy Relief; Fad First Aid Direct Allergy Relief; Family Dollar Allergy Relief; Family Wellness Allergy Relief; First Aid Direct Allergy Relief; FormuCare Allergy Relief; Good Neighbor Pharmacy Allergy Relief; Good Neighbor Pharmacy Childrens Loratadine; Good Neighbor Pharmacy Cleartime; Good Neighbor Pharmacy Loratadine; Good Neighbor Pharmacy Loratadine D; Good Neighbor Pharmacy loratadine d 24 hour; Good Sense Allergy Relief; Good Sense Allergy and Congestion Relief; Good Sense Allergy and Congestion Relief Non Drowsy 24 Hour; Good Sense Childrens Allergy Relief; Good Sense Childrens Loratadine; Good Sense childrens allergy relief; Guardian Loratadine; Handy Solutions 24 Hour Allergy; Harmon Face Values Allergy Relief; Harris Teeter Allergy Relief; Harris Teeter Allergy and Congestion Relief; Health Mart Allergy Relief; Health Mart Allergy and Congestion; Health Mart Childrens Allergy Relief; Health Mart Loratadine; Health Mart Pharmacy Childrens Loratadine; HealthMart Childrens Loratadine; HealthMart Loratadine ODT; Healthy Accents Allergy and Congestion Relief 24 Hour Non Drowsy; Healthy accents allergy relief; Help I have allergies; Humana Pharmacy Allergy Relief; Hy-Vee Childrens Loratadine; Indoor Outdoor Allergy Relief; KIRKLAND SIGNATURE ALLERCLEAR D 24 HR Extended Release; Kirkland Signature AllerClear D 12 hr; Kirkland Signature Allerclear; Kirkland Signature Allerclear D 12 Hr; Kirkland Signature Allerclear D 24hr; LEADER Loratadine; LORATADINE ALLERGY RELIEF 10mg; Leader Allergy Relief; Leader Allergy Relief D-24; Leader Allergy Relief D12; Leader Childrens Allergy Relief; Leader allergy relief; Liberator; Lil Drug Store Claritin Non-Drowsy, 24 Hour; Live Better Loratadine; Loratadine; Loratadine Allergy Relief; Loratadine Antihistamine; Loratadine D; Loratadine D 24 Hour; Loratadine Non drowsy; Loratadine OD; Loratadine ODT; Loratadine Soft Gel Capsules; Loratadine Soft Gelatin Capsules; Loratadine Softgels; Loratadine Tablets 10mg; Loratadine and Pseudoephedrine; Loratadine and Pseudoephedrine Sulfate; Loratadine antihistamine; Loratadineantihistamine antihistamine; MEDIQUE Loradamed; McKesson Loratadine; Medi First Plus Allergy Relief; Medicine Shoppe Allergy Relief D24; Medicine Shoppe Loratadine Allergy Relief; Members Mark Aller-itin; Members Mark Loratadine; Moore Medical Loratadine; Nazirex Compounding Kit; Non Drowsy Allergy Relief; Novo-loratadine; Perrigo Allergy D; Picnic Antihistamine; Picnic Nasal Decongestant and Antihistamine; Preferred Plus (Kinray) Childrens Loratadine; Preferred Plus Allergy Relief; Preferred Plus Allergy and Congestion Relief; Premier Value Childrens Loratadine; Quality Choice Childrens Allergy Relief; Rexall Allergy Relief Non Drowsy; ShopRite Allergy Relief; Shoprite Allergy and Congestion Relief; Signature Care Allergy Relief; Signature Care Allergy and Congestion Relief; Simply Right Loratadine; Smart Sense Allergy Relief non drowsy; Smart Sense Allergy and Congestion Relief; Smart Sense Allergy and Congestion Relief D; Smart Sense Allergy and Congestion Relief-D; Smart Sense allergy and congestion relief indoor and outdoor allergies; Sound Body Allergy Relief; Sunmark Allergy Relief; Sunmark Childrens Loratadine Srp Sf Grape; Sunmark Loratadine; Sunmark Loratadine D; Sunmark Loratadine ODT; Sunmark Loratadine allergy relief; Sunmark childrens loratadine; Taro-loratadine; TopCare Allergy Relief 24 hour; TopCare Allergy Relief D; TopCare Childrens Loratadine; Topcare Allergy Relief; Topcare Allergy Relief D; Topcare Allergy and Congestion Relief; Topcare Childrens Allergy; Topcare Childrens Allergy Relief; Topcare Clear Time; Topcare childrens allergy relief 24 hour non drowsy; Up and Up Allergy Plus Congestion Relief D; Up and Up Allergy Relief; Up and Up Childrens Allergy Relief; Up and Up allergy and congestion relief; Vicks QlearQuil All Day And All Night 24 Hour Allergy Relief; Wal Itin; Wal Itin D; Wal Itin D Non Drowsy; Wal Itin D Non Drowsy 24 Hour Allergy and Congestion; Wal itin; Wal itin D; Wal itin D 12 hour allergy and congestion; Wal itin D non drowsy; Wal-itin; Wal-itin Allergy Relief; Wal-itin D 24 Hour; Welby All Day Allergy Relief; Welby Childrens Allergy Relief; Welby health allergy relief; Western Family Childrens Allergy Relief; childrens allergy Sugar Free; equaline Childrens Loratadine; equate Childrens Allergy Relief; loratadine D; meijer Childrens 24 Hour Allergy; sunmark Childrens Loratadine

> <INTERNATIONAL_BRANDS>
Aerotina; Alavert; Biloina; Civeran; Fristamin; Histaloran; Lomilan; Loracert; Loradex; Loranox; Lorastine; Loratyne; Loritine; Nularef; Restamine; Roletra; Sensibit

$$$$
