481
  Mrv0541 02231214422D          

 34 38  0  0  0  0            999 V2000
    4.5741   -3.8233    0.0000 S   0  0  0  0  0  0  0  0  0  0  0  0
    2.6265    0.7450    0.0000 O   0  0  0  0  0  0  0  0  0  0  0  0
    5.6378   -1.5411    0.0000 O   0  0  0  0  0  0  0  0  0  0  0  0
    1.6500   -3.9843    0.0000 O   0  0  0  0  0  0  0  0  0  0  0  0
    8.3557   -3.1593    0.0000 O   0  0  0  0  0  0  0  0  0  0  0  0
    2.5882    2.9275    0.0000 N   0  0  0  0  0  0  0  0  0  0  0  0
    3.3954    3.0976    0.0000 C   0  0  0  0  0  0  0  0  0  0  0  0
    2.0371    3.5416    0.0000 C   0  0  0  0  0  0  0  0  0  0  0  0
    3.6517    3.8818    0.0000 C   0  0  0  0  0  0  0  0  0  0  0  0
    2.2935    4.3257    0.0000 C   0  0  0  0  0  0  0  0  0  0  0  0
    3.1007    4.4959    0.0000 C   0  0  0  0  0  0  0  0  0  0  0  0
    2.3318    2.1433    0.0000 C   0  0  0  0  0  0  0  0  0  0  0  0
    2.8828    1.5293    0.0000 C   0  0  0  0  0  0  0  0  0  0  0  0
    3.1775    0.1309    0.0000 C   0  0  0  0  0  0  0  0  0  0  0  0
    4.5741   -2.4954    0.0000 C   0  0  0  0  0  0  0  0  0  0  0  0
    3.7935   -2.7468    0.0000 C   0  0  0  0  0  0  0  0  0  0  0  0
    5.0556   -3.1593    0.0000 C   0  0  0  0  0  0  0  0  0  0  0  0
    3.7935   -3.5718    0.0000 C   0  0  0  0  0  0  0  0  0  0  0  0
    4.2795   -1.0972    0.0000 C   0  0  0  0  0  0  0  0  0  0  0  0
    4.8305   -1.7113    0.0000 C   0  0  0  0  0  0  0  0  0  0  0  0
    2.9212   -0.6532    0.0000 C   0  0  0  0  0  0  0  0  0  0  0  0
    3.9848    0.3011    0.0000 C   0  0  0  0  0  0  0  0  0  0  0  0
    3.4722   -1.2673    0.0000 C   0  0  0  0  0  0  0  0  0  0  0  0
    4.5358   -0.3129    0.0000 C   0  0  0  0  0  0  0  0  0  0  0  0
    5.8806   -3.1593    0.0000 C   0  0  0  0  0  0  0  0  0  0  0  0
    3.0791   -2.3343    0.0000 C   0  0  0  0  0  0  0  0  0  0  0  0
    3.0791   -3.9843    0.0000 C   0  0  0  0  0  0  0  0  0  0  0  0
    2.3645   -2.7468    0.0000 C   0  0  0  0  0  0  0  0  0  0  0  0
    2.3645   -3.5718    0.0000 C   0  0  0  0  0  0  0  0  0  0  0  0
    6.2932   -2.4449    0.0000 C   0  0  0  0  0  0  0  0  0  0  0  0
    6.2932   -3.8738    0.0000 C   0  0  0  0  0  0  0  0  0  0  0  0
    7.1182   -2.4449    0.0000 C   0  0  0  0  0  0  0  0  0  0  0  0
    7.1182   -3.8738    0.0000 C   0  0  0  0  0  0  0  0  0  0  0  0
    7.5307   -3.1593    0.0000 C   0  0  0  0  0  0  0  0  0  0  0  0
  1 17  1  0  0  0  0
  1 18  1  0  0  0  0
  2 13  1  0  0  0  0
  2 14  1  0  0  0  0
  3 20  2  0  0  0  0
  4 29  1  0  0  0  0
  5 34  1  0  0  0  0
  6  7  1  0  0  0  0
  6  8  1  0  0  0  0
  6 12  1  0  0  0  0
  7  9  1  0  0  0  0
  8 10  1  0  0  0  0
  9 11  1  0  0  0  0
 10 11  1  0  0  0  0
 12 13  1  0  0  0  0
 14 21  2  0  0  0  0
 14 22  1  0  0  0  0
 15 16  1  0  0  0  0
 15 17  2  0  0  0  0
 15 20  1  0  0  0  0
 16 18  2  0  0  0  0
 16 26  1  0  0  0  0
 17 25  1  0  0  0  0
 18 27  1  0  0  0  0
 19 20  1  0  0  0  0
 19 23  2  0  0  0  0
 19 24  1  0  0  0  0
 21 23  1  0  0  0  0
 22 24  2  0  0  0  0
 25 30  2  0  0  0  0
 25 31  1  0  0  0  0
 26 28  2  0  0  0  0
 27 29  2  0  0  0  0
 28 29  1  0  0  0  0
 30 32  1  0  0  0  0
 31 33  2  0  0  0  0
 32 34  2  0  0  0  0
 33 34  1  0  0  0  0
M  END
> <DATABASE_ID>
DB00481

> <DATABASE_NAME>
drugbank

> <SMILES>
OC1=CC=C(C=C1)C1=C(C(=O)C2=CC=C(OCCN3CCCCC3)C=C2)C2=C(S1)C=C(O)C=C2

> <INCHI_IDENTIFIER>
InChI=1S/C28H27NO4S/c30-21-8-4-20(5-9-21)28-26(24-13-10-22(31)18-25(24)34-28)27(32)19-6-11-23(12-7-19)33-17-16-29-14-2-1-3-15-29/h4-13,18,30-31H,1-3,14-17H2

> <INCHI_KEY>
GZUITABIAKMVPG-UHFFFAOYSA-N

> <FORMULA>
C28H27NO4S

> <MOLECULAR_WEIGHT>
473.583

> <EXACT_MASS>
473.166079047

> <JCHEM_ACCEPTOR_COUNT>
5

> <JCHEM_ATOM_COUNT>
61

> <JCHEM_AVERAGE_NEUTRAL_MICROSPECIES_CHARGE>
0.9453546581357355

> <JCHEM_AVERAGE_POLARIZABILITY>
52.5450564731479

> <JCHEM_BIOAVAILABILITY>
1

> <JCHEM_DONOR_COUNT>
2

> <JCHEM_FORMAL_CHARGE>
0

> <JCHEM_GHOSE_FILTER>
0

> <JCHEM_IUPAC>
2-(4-hydroxyphenyl)-3-{4-[2-(piperidin-1-yl)ethoxy]benzoyl}-1-benzothiophen-6-ol

> <ALOGPS_LOGP>
5.45

> <JCHEM_LOGP>
5.464713654231378

> <ALOGPS_LOGS>
-5.97

> <JCHEM_MDDR_LIKE_RULE>
1

> <JCHEM_NEUTRAL_CHARGE>
1

> <JCHEM_NUMBER_OF_RINGS>
5

> <JCHEM_PHYSIOLOGICAL_CHARGE>
1

> <JCHEM_PKA>
9.589455143458157

> <JCHEM_PKA_STRONGEST_ACIDIC>
9.000313028143191

> <JCHEM_PKA_STRONGEST_BASIC>
8.420766832870981

> <JCHEM_POLAR_SURFACE_AREA>
70.0

> <JCHEM_REFRACTIVITY>
135.48000000000002

> <JCHEM_ROTATABLE_BOND_COUNT>
7

> <JCHEM_RULE_OF_FIVE>
0

> <ALOGPS_SOLUBILITY>
5.12e-04 g/l

> <JCHEM_TRADITIONAL_IUPAC>
biotin

> <JCHEM_VEBER_RULE>
0

> <DRUGBANK_ID>
DB00481

> <SECONDARY_ACCESSION_NUMBERS>
APRD00400

> <DRUG_GROUPS>
approved; investigational

> <GENERIC_NAME>
Raloxifene

> <SYNONYMS>
(2-(4-Hydroxyphenyl)-6-hydroxybenzo(b)thien-3-yl)(4-(2-(1-piperidinyl)ethoxy)phenyl)methanone; Raloxifene; RaloxifÃ¨ne; Raloxifeno; Raloxifenum

> <PRODUCTS>
Act Raloxifene; Apo-raloxifene; Evista; Evista (60mg); Optruma; PMS-raloxifene; Raloxifene; Raloxifene Hydrochloride; Raloxifene Teva; Raloxifene hydrochloride; Teva-raloxifene

> <INTERNATIONAL_BRANDS>
Keoxifene

> <SALTS>
Raloxifene Hydrochloride

$$$$
