482
  Mrv0541 02231214432D          

 26 28  0  0  0  0            999 V2000
    3.2149   -2.4119    0.0000 S   0  0  0  0  0  0  0  0  0  0  0  0
    1.6500    2.3402    0.0000 F   0  0  0  0  0  0  0  0  0  0  0  0
    2.9849    3.3101    0.0000 F   0  0  0  0  0  0  0  0  0  0  0  0
    1.8325    3.4926    0.0000 F   0  0  0  0  0  0  0  0  0  0  0  0
    4.0399   -2.4119    0.0000 O   0  0  0  0  0  0  0  0  0  0  0  0
    2.3899   -2.4119    0.0000 O   0  0  0  0  0  0  0  0  0  0  0  0
    3.2149    0.8882    0.0000 N   0  0  0  0  0  0  0  0  0  0  0  0
    2.5475    1.3731    0.0000 N   0  0  0  0  0  0  0  0  0  0  0  0
    3.2149   -3.2369    0.0000 N   0  0  0  0  0  0  0  0  0  0  0  0
    3.8824    1.3731    0.0000 C   0  0  0  0  0  0  0  0  0  0  0  0
    3.2149    0.0632    0.0000 C   0  0  0  0  0  0  0  0  0  0  0  0
    4.6670    1.1181    0.0000 C   0  0  0  0  0  0  0  0  0  0  0  0
    3.6274    2.1578    0.0000 C   0  0  0  0  0  0  0  0  0  0  0  0
    2.8024    2.1578    0.0000 C   0  0  0  0  0  0  0  0  0  0  0  0
    3.9294   -0.3493    0.0000 C   0  0  0  0  0  0  0  0  0  0  0  0
    2.5005   -0.3493    0.0000 C   0  0  0  0  0  0  0  0  0  0  0  0
    3.2149   -1.5868    0.0000 C   0  0  0  0  0  0  0  0  0  0  0  0
    4.8386    0.3112    0.0000 C   0  0  0  0  0  0  0  0  0  0  0  0
    5.2801    1.6702    0.0000 C   0  0  0  0  0  0  0  0  0  0  0  0
    3.9294   -1.1743    0.0000 C   0  0  0  0  0  0  0  0  0  0  0  0
    2.5005   -1.1743    0.0000 C   0  0  0  0  0  0  0  0  0  0  0  0
    6.2363    0.6083    0.0000 C   0  0  0  0  0  0  0  0  0  0  0  0
    5.6232    0.0563    0.0000 C   0  0  0  0  0  0  0  0  0  0  0  0
    6.0648    1.4152    0.0000 C   0  0  0  0  0  0  0  0  0  0  0  0
    2.3175    2.8252    0.0000 C   0  0  0  0  0  0  0  0  0  0  0  0
    7.0209    0.3534    0.0000 C   0  0  0  0  0  0  0  0  0  0  0  0
  1  5  2  0  0  0  0
  1  6  2  0  0  0  0
  1  9  1  0  0  0  0
  1 17  1  0  0  0  0
  2 25  1  0  0  0  0
  3 25  1  0  0  0  0
  4 25  1  0  0  0  0
  7  8  1  0  0  0  0
  7 10  1  0  0  0  0
  7 11  1  0  0  0  0
  8 14  2  0  0  0  0
 10 12  1  0  0  0  0
 10 13  2  0  0  0  0
 11 15  2  0  0  0  0
 11 16  1  0  0  0  0
 12 18  2  0  0  0  0
 12 19  1  0  0  0  0
 13 14  1  0  0  0  0
 14 25  1  0  0  0  0
 15 20  1  0  0  0  0
 16 21  2  0  0  0  0
 17 20  2  0  0  0  0
 17 21  1  0  0  0  0
 18 23  1  0  0  0  0
 19 24  2  0  0  0  0
 22 23  2  0  0  0  0
 22 24  1  0  0  0  0
 22 26  1  0  0  0  0
M  END
> <DATABASE_ID>
DB00482

> <DATABASE_NAME>
drugbank

> <SMILES>
CC1=CC=C(C=C1)C1=CC(=NN1C1=CC=C(C=C1)S(N)(=O)=O)C(F)(F)F

> <INCHI_IDENTIFIER>
InChI=1S/C17H14F3N3O2S/c1-11-2-4-12(5-3-11)15-10-16(17(18,19)20)22-23(15)13-6-8-14(9-7-13)26(21,24)25/h2-10H,1H3,(H2,21,24,25)

> <INCHI_KEY>
RZEKVGVHFLEQIL-UHFFFAOYSA-N

> <FORMULA>
C17H14F3N3O2S

> <MOLECULAR_WEIGHT>
381.372

> <EXACT_MASS>
381.075882012

> <JCHEM_ACCEPTOR_COUNT>
3

> <JCHEM_ATOM_COUNT>
40

> <JCHEM_AVERAGE_NEUTRAL_MICROSPECIES_CHARGE>
-0.00025026846617957573

> <JCHEM_AVERAGE_POLARIZABILITY>
35.20020126143592

> <JCHEM_BIOAVAILABILITY>
1

> <JCHEM_DONOR_COUNT>
1

> <JCHEM_FORMAL_CHARGE>
0

> <JCHEM_GHOSE_FILTER>
1

> <JCHEM_IUPAC>
4-[5-(4-methylphenyl)-3-(trifluoromethyl)-1H-pyrazol-1-yl]benzene-1-sulfonamide

> <ALOGPS_LOGP>
3.99

> <JCHEM_LOGP>
4.009441774333333

> <ALOGPS_LOGS>
-4.88

> <JCHEM_MDDR_LIKE_RULE>
0

> <JCHEM_NEUTRAL_CHARGE>
0

> <JCHEM_NUMBER_OF_RINGS>
3

> <JCHEM_PHYSIOLOGICAL_CHARGE>
0

> <JCHEM_PKA_STRONGEST_ACIDIC>
10.601417756077923

> <JCHEM_PKA_STRONGEST_BASIC>
-0.41074077454076713

> <JCHEM_POLAR_SURFACE_AREA>
77.98

> <JCHEM_REFRACTIVITY>
92.23420000000002

> <JCHEM_ROTATABLE_BOND_COUNT>
4

> <JCHEM_RULE_OF_FIVE>
1

> <ALOGPS_SOLUBILITY>
5.03e-03 g/l

> <JCHEM_TRADITIONAL_IUPAC>
biotin

> <JCHEM_VEBER_RULE>
0

> <DRUGBANK_ID>
DB00482

> <SECONDARY_ACCESSION_NUMBERS>
APRD00373

> <DRUG_GROUPS>
approved; investigational

> <GENERIC_NAME>
Celecoxib

> <SYNONYMS>
Celecoxib; Célécoxib; Celecoxibum; p-(5-p-Tolyl-3-(trifluoromethyl)pyrazol-1-yl)benzenesulfonamide

> <PRODUCTS>
Accel-celecoxib; Act Celecoxib; Ag-celecoxib; Apo-celecoxib; Auro-celecoxib; Bio-celecoxib; Capxib; CeleXib 100-EZS; Celebrex; Celecoxib; Celecoxib 100 mg; Celecoxib 200 mg; Celecoxib 400 mg; Celecoxib 50 mg; Consensi; Dom-celecoxib; ELYXYB - celecoxib; Elyxyb; Gd-celecoxib; Generic drug; Ipg-celecoxib; Jamp-celecoxib; LidoXib; Lupin-celecoxib; M-celecoxib; Mar-celecoxib; Mint-celecoxib; Mylan-celecoxib; Nra-celecoxib; NuDroxiPAK; Onsenal; PMS-celecoxib; Pmsc-celecoxib; Priva-celecoxib; Rbx-celecoxib; Riva-celecox; Riva-celecoxib; Sandoz Celecoxib; Sdz Celecoxib; Seglentis; Taro-celecoxib; Teva-celecoxib

> <INTERNATIONAL_BRANDS>
Articox; Articoxib; Artiflex; Artilog; Artix; Artrixib; Blockten; Caditar; Cefinix; Celact; Celebra; Valdyne

$$$$
