4842
  Mrv0541 02231217572D          

 35 39  0  0  1  0            999 V2000
    1.6500   -0.7962    0.0000 F   0  0  0  0  0  0  0  0  0  0  0  0
    6.6001   -3.6542    0.0000 F   0  0  0  0  0  0  0  0  0  0  0  0
    9.3052   -0.8193    0.0000 O   0  0  0  0  0  0  0  0  0  0  0  0
    9.5601    1.3002    0.0000 N   0  0  0  0  0  0  0  0  0  0  0  0
    7.4252    0.6328    0.0000 N   0  0  0  0  0  0  0  0  0  0  0  0
   10.3447    0.2203    0.0000 N   0  0  0  0  0  0  0  0  0  0  0  0
    9.0752    0.6328    0.0000 C   0  0  0  0  0  0  0  0  0  0  0  0
    8.6627   -0.0817    0.0000 C   0  0  0  0  0  0  0  0  0  0  0  0
    8.6627    1.3473    0.0000 C   0  0  0  0  0  0  0  0  0  0  0  0
    7.8377   -0.0817    0.0000 C   0  0  0  0  0  0  0  0  0  0  0  0
    7.8377    1.3473    0.0000 C   0  0  0  0  0  0  0  0  0  0  0  0
    9.5601   -0.0347    0.0000 C   0  0  0  0  0  0  0  0  0  0  0  0
   10.3447    1.0453    0.0000 C   0  0  0  0  0  0  0  0  0  0  0  0
    6.6001    0.6328    0.0000 C   0  0  0  0  0  0  0  0  0  0  0  0
    9.3052    2.0849    0.0000 C   0  0  0  0  0  0  0  0  0  0  0  0
    6.1876   -0.0817    0.0000 C   0  0  0  0  0  0  0  0  0  0  0  0
    5.3626   -0.0817    0.0000 C   0  0  0  0  0  0  0  0  0  0  0  0
    4.9501   -0.7962    0.0000 C   0  0  0  0  0  0  0  0  0  0  0  0
    8.4982    2.2564    0.0000 C   0  0  0  0  0  0  0  0  0  0  0  0
    9.8572    2.6980    0.0000 C   0  0  0  0  0  0  0  0  0  0  0  0
    4.1251   -0.7962    0.0000 C   0  0  0  0  0  0  0  0  0  0  0  0
    5.3626   -1.5107    0.0000 C   0  0  0  0  0  0  0  0  0  0  0  0
    8.2433    3.0410    0.0000 C   0  0  0  0  0  0  0  0  0  0  0  0
    9.6023    3.4826    0.0000 C   0  0  0  0  0  0  0  0  0  0  0  0
    8.7953    3.6542    0.0000 C   0  0  0  0  0  0  0  0  0  0  0  0
    3.7126   -1.5107    0.0000 C   0  0  0  0  0  0  0  0  0  0  0  0
    6.1876   -1.5107    0.0000 C   0  0  0  0  0  0  0  0  0  0  0  0
    3.7126   -0.0817    0.0000 C   0  0  0  0  0  0  0  0  0  0  0  0
    4.9501   -2.2252    0.0000 C   0  0  0  0  0  0  0  0  0  0  0  0
    2.8876   -1.5107    0.0000 C   0  0  0  0  0  0  0  0  0  0  0  0
    6.6001   -2.2252    0.0000 C   0  0  0  0  0  0  0  0  0  0  0  0
    2.8876   -0.0817    0.0000 C   0  0  0  0  0  0  0  0  0  0  0  0
    5.3626   -2.9396    0.0000 C   0  0  0  0  0  0  0  0  0  0  0  0
    2.4751   -0.7962    0.0000 C   0  0  0  0  0  0  0  0  0  0  0  0
    6.1876   -2.9396    0.0000 C   0  0  0  0  0  0  0  0  0  0  0  0
  1 34  1  0  0  0  0
  2 35  1  0  0  0  0
  3 12  2  0  0  0  0
  4  7  1  0  0  0  0
  4 13  1  0  0  0  0
  4 15  1  0  0  0  0
  5 10  1  0  0  0  0
  5 11  1  0  0  0  0
  5 14  1  0  0  0  0
  6 12  1  0  0  0  0
  6 13  1  0  0  0  0
  7  8  1  0  0  0  0
  7  9  1  0  0  0  0
  7 12  1  0  0  0  0
  8 10  1  0  0  0  0
  9 11  1  0  0  0  0
 14 16  1  0  0  0  0
 15 19  2  0  0  0  0
 15 20  1  0  0  0  0
 16 17  1  0  0  0  0
 17 18  1  0  0  0  0
 18 21  1  0  0  0  0
 18 22  1  0  0  0  0
 19 23  1  0  0  0  0
 20 24  2  0  0  0  0
 21 26  2  0  0  0  0
 21 28  1  0  0  0  0
 22 27  2  0  0  0  0
 22 29  1  0  0  0  0
 23 25  2  0  0  0  0
 24 25  1  0  0  0  0
 26 30  1  0  0  0  0
 27 31  1  0  0  0  0
 28 32  2  0  0  0  0
 29 33  2  0  0  0  0
 30 34  2  0  0  0  0
 31 35  2  0  0  0  0
 32 34  1  0  0  0  0
 33 35  1  0  0  0  0
M  END
> <DATABASE_ID>
DB04842

> <DATABASE_NAME>
drugbank

> <SMILES>
FC1=CC=C(C=C1)C(CCCN1CCC2(CC1)N(CNC2=O)C1=CC=CC=C1)C1=CC=C(F)C=C1

> <INCHI_IDENTIFIER>
InChI=1S/C29H31F2N3O/c30-24-12-8-22(9-13-24)27(23-10-14-25(31)15-11-23)7-4-18-33-19-16-29(17-20-33)28(35)32-21-34(29)26-5-2-1-3-6-26/h1-3,5-6,8-15,27H,4,7,16-21H2,(H,32,35)

> <INCHI_KEY>
QOYHHIBFXOOADH-UHFFFAOYSA-N

> <FORMULA>
C29H31F2N3O

> <MOLECULAR_WEIGHT>
475.5727

> <EXACT_MASS>
475.243519039

> <JCHEM_ACCEPTOR_COUNT>
3

> <JCHEM_ATOM_COUNT>
66

> <JCHEM_AVERAGE_NEUTRAL_MICROSPECIES_CHARGE>
0.9951389596601625

> <JCHEM_AVERAGE_POLARIZABILITY>
50.87928975181174

> <JCHEM_BIOAVAILABILITY>
1

> <JCHEM_DONOR_COUNT>
1

> <JCHEM_FORMAL_CHARGE>
0

> <JCHEM_GHOSE_FILTER>
0

> <JCHEM_IUPAC>
8-[4,4-bis(4-fluorophenyl)butyl]-1-phenyl-1,3,8-triazaspiro[4.5]decan-4-one

> <ALOGPS_LOGP>
5.18

> <JCHEM_LOGP>
5.778034304

> <ALOGPS_LOGS>
-5.45

> <JCHEM_MDDR_LIKE_RULE>
1

> <JCHEM_NEUTRAL_CHARGE>
1

> <JCHEM_NUMBER_OF_RINGS>
5

> <JCHEM_PHYSIOLOGICAL_CHARGE>
1

> <JCHEM_PKA_STRONGEST_ACIDIC>
11.987692739635305

> <JCHEM_PKA_STRONGEST_BASIC>
9.312082745538273

> <JCHEM_POLAR_SURFACE_AREA>
35.580000000000005

> <JCHEM_REFRACTIVITY>
135.26750000000004

> <JCHEM_ROTATABLE_BOND_COUNT>
7

> <JCHEM_RULE_OF_FIVE>
0

> <ALOGPS_SOLUBILITY>
1.67e-03 g/l

> <JCHEM_TRADITIONAL_IUPAC>
biotin

> <JCHEM_VEBER_RULE>
1

> <DRUGBANK_ID>
DB04842

> <DRUG_GROUPS>
approved; investigational

> <GENERIC_NAME>
Fluspirilene

> <SYNONYMS>
Fluspirilene; Fluspirileno; Fluspirilenum

> <PRODUCTS>
Imap Forte Inj 10mg/ml; Imap Inj 2mg/ml

> <INTERNATIONAL_BRANDS>
Imap; lmap; Redeptin

$$$$
