489
  Mrv0541 02231214432D          

 18 18  0  0  1  0            999 V2000
    4.5080    2.7366    0.0000 S   0  0  0  0  0  0  0  0  0  0  0  0
    4.5080   -1.3885    0.0000 O   0  0  0  0  0  0  0  0  0  0  0  0
    4.9205    2.0221    0.0000 O   0  0  0  0  0  0  0  0  0  0  0  0
    4.0955    3.4511    0.0000 O   0  0  0  0  0  0  0  0  0  0  0  0
    3.0791   -2.2135    0.0000 N   0  0  0  0  0  0  0  0  0  0  0  0
    3.7935    2.3241    0.0000 N   0  0  0  0  0  0  0  0  0  0  0  0
    3.7935   -0.9760    0.0000 C   0  0  0  0  0  0  0  0  0  0  0  0
    3.0791   -1.3885    0.0000 C   0  0  0  0  0  0  0  0  0  0  0  0
    2.3645   -2.6260    0.0000 C   0  0  0  0  0  0  0  0  0  0  0  0
    3.7935   -0.1510    0.0000 C   0  0  0  0  0  0  0  0  0  0  0  0
    3.0791    0.2615    0.0000 C   0  0  0  0  0  0  0  0  0  0  0  0
    4.5080    0.2615    0.0000 C   0  0  0  0  0  0  0  0  0  0  0  0
    2.3645   -3.4511    0.0000 C   0  0  0  0  0  0  0  0  0  0  0  0
    1.6500   -2.2135    0.0000 C   0  0  0  0  0  0  0  0  0  0  0  0
    3.7935    1.4991    0.0000 C   0  0  0  0  0  0  0  0  0  0  0  0
    3.0791    1.0865    0.0000 C   0  0  0  0  0  0  0  0  0  0  0  0
    4.5080    1.0865    0.0000 C   0  0  0  0  0  0  0  0  0  0  0  0
    5.2224    3.1491    0.0000 C   0  0  0  0  0  0  0  0  0  0  0  0
  1  3  2  0  0  0  0
  1  4  2  0  0  0  0
  1  6  1  0  0  0  0
  1 18  1  0  0  0  0
  2  7  1  0  0  0  0
  5  8  1  0  0  0  0
  5  9  1  0  0  0  0
  6 15  1  0  0  0  0
  7  8  1  0  0  0  0
  7 10  1  0  0  0  0
  9 13  1  0  0  0  0
  9 14  1  0  0  0  0
 10 11  2  0  0  0  0
 10 12  1  0  0  0  0
 11 16  1  0  0  0  0
 12 17  2  0  0  0  0
 15 16  2  0  0  0  0
 15 17  1  0  0  0  0
M  END
> <DATABASE_ID>
DB00489

> <DATABASE_NAME>
drugbank

> <SMILES>
CC(C)NCC(O)C1=CC=C(NS(C)(=O)=O)C=C1

> <INCHI_IDENTIFIER>
InChI=1S/C12H20N2O3S/c1-9(2)13-8-12(15)10-4-6-11(7-5-10)14-18(3,16)17/h4-7,9,12-15H,8H2,1-3H3

> <INCHI_KEY>
ZBMZVLHSJCTVON-UHFFFAOYSA-N

> <FORMULA>
C12H20N2O3S

> <MOLECULAR_WEIGHT>
272.364

> <EXACT_MASS>
272.119463206

> <JCHEM_ACCEPTOR_COUNT>
4

> <JCHEM_ATOM_COUNT>
38

> <JCHEM_AVERAGE_NEUTRAL_MICROSPECIES_CHARGE>
0.9949497172109021

> <JCHEM_AVERAGE_POLARIZABILITY>
29.340749451033123

> <JCHEM_BIOAVAILABILITY>
1

> <JCHEM_DONOR_COUNT>
3

> <JCHEM_FORMAL_CHARGE>
0

> <JCHEM_GHOSE_FILTER>
1

> <JCHEM_IUPAC>
N-(4-{1-hydroxy-2-[(propan-2-yl)amino]ethyl}phenyl)methanesulfonamide

> <ALOGPS_LOGP>
0.85

> <JCHEM_LOGP>
-0.3950640027108308

> <ALOGPS_LOGS>
-2.54

> <JCHEM_MDDR_LIKE_RULE>
0

> <JCHEM_NEUTRAL_CHARGE>
1

> <JCHEM_NUMBER_OF_RINGS>
1

> <JCHEM_PHYSIOLOGICAL_CHARGE>
1

> <JCHEM_PKA>
14.100645593387325

> <JCHEM_PKA_STRONGEST_ACIDIC>
10.069402607110717

> <JCHEM_PKA_STRONGEST_BASIC>
9.42821539663018

> <JCHEM_POLAR_SURFACE_AREA>
78.42999999999999

> <JCHEM_REFRACTIVITY>
71.1191

> <JCHEM_ROTATABLE_BOND_COUNT>
5

> <JCHEM_RULE_OF_FIVE>
1

> <ALOGPS_SOLUBILITY>
7.82e-01 g/l

> <JCHEM_TRADITIONAL_IUPAC>
biotin

> <JCHEM_VEBER_RULE>
0

> <DRUGBANK_ID>
DB00489

> <SECONDARY_ACCESSION_NUMBERS>
APRD01230

> <DRUG_GROUPS>
approved

> <GENERIC_NAME>
Sotalol

> <SYNONYMS>
4'-(1-hydroxy-2-(isopropylamino)ethyl)methane sulfonanilide; Sotalol; Sotalolo; Sotalolum; Î²-cardone

> <PRODUCTS>
Apo-sotalol; Ava-sotalol; Betapace; Betapace AF; Co Sotalol; Dom-sotalol; Ftp-sotalol; Gen-sotalol 240mg; Jamp-sotalol; Linsotalol - Tab 80mg; Linsotalol -tab 160mg; Med Sotalol; Mylan-sotalol; Novo-sotalol Tab 160mg; Novo-sotalol Tab 80mg; PHL-sotalol; PMS-sotalol - 160 mg; PMS-sotalol - 240 mg; PMS-sotalol - 80 mg; Pro-sotalol; Ratio-sotalol; Rho-sotalol; Rhoxal-sotalol; Riva-sotalol; Rylosol; Sandoz Sotalol; Sorine; Sotacor Tab 160mg; Sotacor Tab 240mg; Sotacor Tab 80mg; Sotalol; Sotalol Hydrochloride; Sotalol Hydrochloride AF; Sotalol hydrochloride; Sotalol-160 - Tab 160mg; Sotalol-80 - Tab 80mg; Sotamol; Sotylize

> <INTERNATIONAL_BRANDS>
Biosotal; Cardol; Darob; Darob mite; Hipecor; Loritmik; Rytmobeta; Sotacor; Sotagard; Sotalex; Sotapor; Talozin; Tan Shi; Xi An Lin

> <SALTS>
Sotalol hydrochloride

$$$$
