496
  Mrv0541 02231214432D          

 32 36  0  0  1  0            999 V2000
    3.2716    1.3928    0.0000 O   0  0  0  0  0  0  0  0  0  0  0  0
   10.5908   -1.4435    0.0000 O   0  0  0  0  0  0  0  0  0  0  0  0
    6.2378    0.0455    0.0000 N   0  0  0  0  0  0  0  0  0  0  0  0
    4.3609    1.8109    0.0000 N   0  0  0  0  0  0  0  0  0  0  0  0
    4.9320    0.3230    0.0000 C   0  0  2  0  0  0  0  0  0  0  0  0
    4.1116    0.2368    0.0000 C   0  0  0  0  0  0  0  0  0  0  0  0
    5.3446    1.0375    0.0000 C   0  0  0  0  0  0  0  0  0  0  0  0
    5.4841   -0.2902    0.0000 C   0  0  0  0  0  0  0  0  0  0  0  0
    6.1515    0.8659    0.0000 C   0  0  0  0  0  0  0  0  0  0  0  0
    6.9523   -0.3671    0.0000 C   0  0  0  0  0  0  0  0  0  0  0  0
    3.2910    0.1505    0.0000 C   0  0  0  0  0  0  0  0  0  0  0  0
    4.1978   -0.5838    0.0000 C   0  0  0  0  0  0  0  0  0  0  0  0
    4.0253    1.0573    0.0000 C   0  0  0  0  0  0  0  0  0  0  0  0
    7.6667    0.0455    0.0000 C   0  0  0  0  0  0  0  0  0  0  0  0
    2.8061    0.8179    0.0000 C   0  0  0  0  0  0  0  0  0  0  0  0
    3.5303   -1.0687    0.0000 C   0  0  0  0  0  0  0  0  0  0  0  0
    2.9555   -0.6032    0.0000 C   0  0  0  0  0  0  0  0  0  0  0  0
    4.9514   -0.9193    0.0000 C   0  0  0  0  0  0  0  0  0  0  0  0
    8.3812   -0.3671    0.0000 C   0  0  0  0  0  0  0  0  0  0  0  0
    1.9856    0.7317    0.0000 C   0  0  0  0  0  0  0  0  0  0  0  0
    3.6165   -1.8892    0.0000 C   0  0  0  0  0  0  0  0  0  0  0  0
    2.1350   -0.6894    0.0000 C   0  0  0  0  0  0  0  0  0  0  0  0
    5.0377   -1.7398    0.0000 C   0  0  0  0  0  0  0  0  0  0  0  0
    9.0957    0.0455    0.0000 C   0  0  0  0  0  0  0  0  0  0  0  0
    8.3812   -1.1921    0.0000 C   0  0  0  0  0  0  0  0  0  0  0  0
    1.6500   -0.0219    0.0000 C   0  0  0  0  0  0  0  0  0  0  0  0
    4.3703   -2.2247    0.0000 C   0  0  0  0  0  0  0  0  0  0  0  0
    9.8102   -0.3671    0.0000 C   0  0  0  0  0  0  0  0  0  0  0  0
    9.8102   -1.1921    0.0000 C   0  0  0  0  0  0  0  0  0  0  0  0
   10.5908   -0.1157    0.0000 C   0  0  0  0  0  0  0  0  0  0  0  0
    9.0957   -1.6046    0.0000 C   0  0  0  0  0  0  0  0  0  0  0  0
   11.0723   -0.7796    0.0000 C   0  0  0  0  0  0  0  0  0  0  0  0
  1 13  2  0  0  0  0
  2 29  1  0  0  0  0
  2 32  1  0  0  0  0
  3  8  1  0  0  0  0
  3  9  1  0  0  0  0
  3 10  1  0  0  0  0
  4 13  1  0  0  0  0
  5  6  1  6  0  0  0
  5  7  1  0  0  0  0
  5  8  1  0  0  0  0
  6 11  1  0  0  0  0
  6 12  1  0  0  0  0
  6 13  1  0  0  0  0
  7  9  1  0  0  0  0
 10 14  1  0  0  0  0
 11 15  2  0  0  0  0
 11 17  1  0  0  0  0
 12 16  2  0  0  0  0
 12 18  1  0  0  0  0
 14 19  1  0  0  0  0
 15 20  1  0  0  0  0
 16 21  1  0  0  0  0
 17 22  2  0  0  0  0
 18 23  2  0  0  0  0
 19 24  2  0  0  0  0
 19 25  1  0  0  0  0
 20 26  2  0  0  0  0
 21 27  2  0  0  0  0
 22 26  1  0  0  0  0
 23 27  1  0  0  0  0
 24 28  1  0  0  0  0
 25 31  2  0  0  0  0
 28 29  2  0  0  0  0
 28 30  1  0  0  0  0
 29 31  1  0  0  0  0
 30 32  1  0  0  0  0
M  END
> <DATABASE_ID>
DB00496

> <DATABASE_NAME>
drugbank

> <SMILES>
NC(=O)C([C@@H]1CCN(CCC2=CC3=C(OCC3)C=C2)C1)(C1=CC=CC=C1)C1=CC=CC=C1

> <INCHI_IDENTIFIER>
InChI=1S/C28H30N2O2/c29-27(31)28(23-7-3-1-4-8-23,24-9-5-2-6-10-24)25-14-17-30(20-25)16-13-21-11-12-26-22(19-21)15-18-32-26/h1-12,19,25H,13-18,20H2,(H2,29,31)/t25-/m1/s1

> <INCHI_KEY>
HXGBXQDTNZMWGS-RUZDIDTESA-N

> <FORMULA>
C28H30N2O2

> <MOLECULAR_WEIGHT>
426.55

> <EXACT_MASS>
426.230728214

> <JCHEM_ACCEPTOR_COUNT>
3

> <JCHEM_ATOM_COUNT>
62

> <JCHEM_AVERAGE_NEUTRAL_MICROSPECIES_CHARGE>
0.9992208404879951

> <JCHEM_AVERAGE_POLARIZABILITY>
48.62484781012939

> <JCHEM_BIOAVAILABILITY>
1

> <JCHEM_DONOR_COUNT>
1

> <JCHEM_FORMAL_CHARGE>
0

> <JCHEM_GHOSE_FILTER>
1

> <JCHEM_IUPAC>
2-[(3S)-1-[2-(2,3-dihydro-1-benzofuran-5-yl)ethyl]pyrrolidin-3-yl]-2,2-diphenylacetamide

> <ALOGPS_LOGP>
4.35

> <JCHEM_LOGP>
4.540284133666668

> <ALOGPS_LOGS>
-6.16

> <JCHEM_MDDR_LIKE_RULE>
1

> <JCHEM_NEUTRAL_CHARGE>
1

> <JCHEM_NUMBER_OF_RINGS>
5

> <JCHEM_PHYSIOLOGICAL_CHARGE>
1

> <JCHEM_PKA_STRONGEST_ACIDIC>
16.212146603505996

> <JCHEM_PKA_STRONGEST_BASIC>
10.108034786798411

> <JCHEM_POLAR_SURFACE_AREA>
55.56

> <JCHEM_REFRACTIVITY>
128.37470000000002

> <JCHEM_ROTATABLE_BOND_COUNT>
7

> <JCHEM_RULE_OF_FIVE>
1

> <ALOGPS_SOLUBILITY>
2.98e-04 g/l

> <JCHEM_TRADITIONAL_IUPAC>
biotin

> <JCHEM_VEBER_RULE>
0

> <DRUGBANK_ID>
DB00496

> <SECONDARY_ACCESSION_NUMBERS>
APRD00903

> <DRUG_GROUPS>
approved; investigational

> <GENERIC_NAME>
Darifenacin

> <SYNONYMS>
(S)-1-(2-(2,3-dihydro-5-benzofuranyl)ethyl)-α,α-diphenyl-3-pyrrolidineacetamide; Darifenacin; Darifenacina; Darifénacine; Darifenacinum

> <PRODUCTS>
Apo-darifenacin; Darifenacin; Darifenacin 15 mg; Darifenacin 7.5 mg; Darifenacin Hydrobromide Extended-Release; Emselex; Enablex; Jamp Darifenacin

> <INTERNATIONAL_BRANDS>
Emselex; Xelena

> <SALTS>
Darifenacin hydrobromide

$$$$
