525
  Mrv0541 02231214452D          

 22 24  0  0  0  0            999 V2000
    5.2224    0.8107    0.0000 S   0  0  0  0  0  0  0  0  0  0  0  0
    5.9370   -0.4268    0.0000 O   0  0  0  0  0  0  0  0  0  0  0  0
    4.5080   -0.4268    0.0000 N   0  0  0  0  0  0  0  0  0  0  0  0
    8.0804   -0.0143    0.0000 C   0  0  0  0  0  0  0  0  0  0  0  0
    8.0804    0.8107    0.0000 C   0  0  0  0  0  0  0  0  0  0  0  0
    3.7935   -0.0143    0.0000 C   0  0  0  0  0  0  0  0  0  0  0  0
    6.6515   -0.0143    0.0000 C   0  0  0  0  0  0  0  0  0  0  0  0
    7.3659   -0.4268    0.0000 C   0  0  0  0  0  0  0  0  0  0  0  0
    3.0791   -0.4268    0.0000 C   0  0  0  0  0  0  0  0  0  0  0  0
    2.3645   -0.0143    0.0000 C   0  0  0  0  0  0  0  0  0  0  0  0
    7.3659    1.2233    0.0000 C   0  0  0  0  0  0  0  0  0  0  0  0
    6.6515    0.8107    0.0000 C   0  0  0  0  0  0  0  0  0  0  0  0
    8.8180   -0.4554    0.0000 C   0  0  0  0  0  0  0  0  0  0  0  0
    3.7935    0.8107    0.0000 C   0  0  0  0  0  0  0  0  0  0  0  0
    8.8180    1.2518    0.0000 C   0  0  0  0  0  0  0  0  0  0  0  0
    5.2224   -0.0143    0.0000 C   0  0  0  0  0  0  0  0  0  0  0  0
    2.3645    0.8107    0.0000 C   0  0  0  0  0  0  0  0  0  0  0  0
    3.0791    1.2233    0.0000 C   0  0  0  0  0  0  0  0  0  0  0  0
    4.5080   -1.2518    0.0000 C   0  0  0  0  0  0  0  0  0  0  0  0
    9.5654   -0.0314    0.0000 C   0  0  0  0  0  0  0  0  0  0  0  0
    9.5654    0.8279    0.0000 C   0  0  0  0  0  0  0  0  0  0  0  0
    1.6500   -0.4268    0.0000 C   0  0  0  0  0  0  0  0  0  0  0  0
  1 16  2  0  0  0  0
  2  7  1  0  0  0  0
  2 16  1  0  0  0  0
  3  6  1  0  0  0  0
  3 16  1  0  0  0  0
  3 19  1  0  0  0  0
  4  5  1  0  0  0  0
  4  8  1  0  0  0  0
  4 13  2  0  0  0  0
  5 11  1  0  0  0  0
  5 15  2  0  0  0  0
  6  9  1  0  0  0  0
  6 14  2  0  0  0  0
  7  8  2  0  0  0  0
  7 12  1  0  0  0  0
  9 10  2  0  0  0  0
 10 17  1  0  0  0  0
 10 22  1  0  0  0  0
 11 12  2  0  0  0  0
 13 20  1  0  0  0  0
 14 18  1  0  0  0  0
 15 21  1  0  0  0  0
 17 18  2  0  0  0  0
 20 21  2  0  0  0  0
M  END
> <DATABASE_ID>
DB00525

> <DATABASE_NAME>
drugbank

> <SMILES>
CN(C(=S)OC1=CC2=CC=CC=C2C=C1)C1=CC=CC(C)=C1

> <INCHI_IDENTIFIER>
InChI=1S/C19H17NOS/c1-14-6-5-9-17(12-14)20(2)19(22)21-18-11-10-15-7-3-4-8-16(15)13-18/h3-13H,1-2H3

> <INCHI_KEY>
FUSNMLFNXJSCDI-UHFFFAOYSA-N

> <FORMULA>
C19H17NOS

> <MOLECULAR_WEIGHT>
307.409

> <EXACT_MASS>
307.103084861

> <JCHEM_ACCEPTOR_COUNT>
1

> <JCHEM_ATOM_COUNT>
39

> <JCHEM_AVERAGE_NEUTRAL_MICROSPECIES_CHARGE>
1.188612890515966e-07

> <JCHEM_AVERAGE_POLARIZABILITY>
34.22480823447255

> <JCHEM_BIOAVAILABILITY>
1

> <JCHEM_DONOR_COUNT>
0

> <JCHEM_FORMAL_CHARGE>
0

> <JCHEM_GHOSE_FILTER>
0

> <JCHEM_IUPAC>
N-methyl-N-(3-methylphenyl)-1-(naphthalen-2-yloxy)methanethioamide

> <ALOGPS_LOGP>
4.87

> <JCHEM_LOGP>
5.745039567000001

> <ALOGPS_LOGS>
-5.75

> <JCHEM_MDDR_LIKE_RULE>
0

> <JCHEM_NEUTRAL_CHARGE>
0

> <JCHEM_NUMBER_OF_RINGS>
3

> <JCHEM_PHYSIOLOGICAL_CHARGE>
0

> <JCHEM_PKA_STRONGEST_BASIC>
0.0750404874955417

> <JCHEM_POLAR_SURFACE_AREA>
12.47

> <JCHEM_REFRACTIVITY>
94.92040000000004

> <JCHEM_ROTATABLE_BOND_COUNT>
3

> <JCHEM_RULE_OF_FIVE>
0

> <ALOGPS_SOLUBILITY>
5.46e-04 g/l

> <JCHEM_TRADITIONAL_IUPAC>
biotin

> <JCHEM_VEBER_RULE>
1

> <DRUGBANK_ID>
DB00525

> <SECONDARY_ACCESSION_NUMBERS>
APRD01607

> <DRUG_GROUPS>
approved; investigational; vet_approved

> <GENERIC_NAME>
Tolnaftate

> <SYNONYMS>
2-Naphthyl N-methyl-N-(3-tolyl)thionocarbamate; m,N-Dimethylthiocarbanilic acid O-2-naphthyl ester; Methyl (3-methylphenyl)carbamothioic acid O-2-naphthalenyl ester; N-methyl-N-(3-methylphenyl)-1-(naphthalen-2-yloxy)methanethioamide; O-2-Naphthyl m,N-dimethylthiocarbanilate; Tolnaftate; Tolnaftato; Tolnaftatum; Tolnaphthate

> <PRODUCTS>
ANTIFUNGAL For Athletes Foot; AVON HeXashield Athletes Foot Cream; Absorbine Antifungal Powder 1%; Absorbine Jr Antifungal Liq; Absorbine Jr Antifungal Liquid; Aftate Athlete Foot Cream; Anti-Fungal; Antifungal; Antifungal Athlete's Foot Powder Spray; Antifungal Cream; Antifungal Cream Tolnaftate 1%; Antifungal Foot Care; Antifungal Tincture; Athlete's Foot Cream; Athlete's Foot Gel 1%; Athlete's Foot Spray Power; Athletes Foot; Athletes Foot Antifungal; Athletes Foot Dr Foot; Athletes Foot Medicated Antifungal; Athletes Foot Quinsana; Atopalm Tolnaftate Antifungal; Avon Foot Works Therapeutic Antifungal Foot Cream; Avon Footworks Antifungal Foot Spray; Avon Footworks Antifungal and Deodorant Powder; Barielle Fungus Rx Maximum Strength Anti-Fungal; Barielle Professional Maximum Strength Fungus Rx Antifungal PRO; Bengama - Tolnaftate; Bengama Antifungal; Bio-Scriptives Extreme AF; Blistex Odor-Eaters Powder; CAREALL Tolnaftate; CIDACIN Antifungal Treatment; CLARUS AC Antifungal Solution; CLARUS Antifungal; CR-371059 Tolnaftate 1%; CR-371059 Tolnaftate 1% Cream; CRYSTAL FLUSH Maximum Strength Anti-Fungal Formula; CVS Athletes Foot Cream .5oz; CVS Health Antifungal Anthletes Foot; CVS Health Athletes Foot; Canespies; Canesten Powder; Clear 50 Nail Gel; Clixit Airport Security Foot Wipes; Clixit Foot Wipes 3 Pack; Conazol antifungal; Cvs Athletes Foot Tolnaftate; DERMATOOL Fungal Nail Solution; DG Health Athletes Foot; Defense Antifungal Medicated Bar; DermaTAF Antifungal Treatment; Derman Antifungal Powder Tolnaftate; Derman antifungal cream; Dg Athletes Foot; Dr CANUSO fungal nail eraser; Dr. Canuso foot repair serum; Dr. Gs Clear Nail; Dr. Scholl's Athlete's Foot Powder - 1%; Dr. Scholl's Athlete's Foot Spray Powder; Dr. Scholls Instant Cool Athletes Foot Wipes; Dr. Scholls Instant Cool Athletes foot treatment with Menthol; Dr. Scholls Odor-X Foot and Sneaker; Equaline Antifungal Cream; Equaline Athletes Foot; Equaline Tolnaftate Antifungal; Equate Athletes Foot; Equate Athletes Foot Powder; Equate Liquid Foot; Ez Clear; Family Care Antifungal; Family Care Tolnaftate; Family Wellness Antifungal; First Aid Antifungal Medicated; First Aid Antifungal Medicated Cream 0.5 oz; First Aid Antifungal Medicated Cream 1oz; Flexitol Medicated Anti-fungal Cream; Flexitol Medicated Foot; Foot Care Foam; Foot Odor Control Powder; Foot Works Healthy Antifungal; Footlogix Anti Fungal Mousse Formula; Footrenew; Footshield Plus; Footworks Healthy Antifungal Powder for Athlete's Foot; Footworks Healthy Antifungal Spray for Athlete's Foot; Formucare Athletes Foot Maximum Strength; Formula 3; Formula 7 - The Solution; Formula 7 THEGEL; Forticept Antifungal Balm; FungaBlend 10; Fungi Nail Anti-Fungal Pen; Fungi Nail Toe and Foot; FungiFoam; Fungicure; Fungicure Anti-Fungal Liquid; Fungicure Anti-fungal Pump Spray; Fungicure Athlete's Foot Cream; Fungicure Athletes Foot; Fungicure Gel; Fungifoam Antifungal; Funginix AF; Funginix Jock Itch Treatment; Fungisolve Tolnaftate Antifungal; Fungoid-D; Fungus Md; Fungus Relief; Gadaderm Antifungal; Gold Mountain Beauty Fungal Nail Eliminator; Gold Mountain Beauty Intensive Repair Serum; Good Neighbor Pharmacy Athletes foot relief; Good Neighbor Pharmacy Maximum Strength Athletes Foot Relief Antifungal; Good Neighbor Pharmacy athletes foot relief; Good Sense Athletes Foot; Good Sense Jock Itch; GoodSense Athletes Foot Antifungal; GoodSense Powder Jock Itch Antifungal; HC Max Anti Fungal; HC Max Anti-Fungal; HC Max For Athletes Foot; HC Max Hongo Cura; HC Max for Jock Itch; Healthy Accents athletes foot antifungal; Heeltastic; Hi Vetic; HomeHealth Antifungal; Hongo Cura Maximum Strength Anti-Fungal; Hongo Killer; Hongo Killer Antifungal; Hongosan Dsp; Joch Itch Antifungal Quinsana; Jock Itch; Jock Itch Relief; KERACTIL Plus; Kaiser Permanente Tolnaftate; Kerasal Athletes Foot powder; Kerasal for Athletes Foot Silky Clear; Kiss Fungi-Gone Anti-fungal Treatment; LUCKY SUPER SOFT ANTIFUNGAL For Athletes Foot; Lamisil AF Defense; Lamisil AF Defense Shake; Lamisl AF Defense; Leader Antifungal Tolnaftate; Leader Medicated; Lotrimin Daily Prevention; Lotrimin Daily Prevention Deo; Luxury; Maximum Strength Anti Fungal Liquid; Maximum Strength Anti Fungal Tolnaftate 1%; Maximum Strength Antifungal Liquid; Meijer Antifungal; Meijer Antifungal Tolnaftate Cream; Meijer Maximum Strength Anthletes foot Antifungal; Meijer Maximum Strength Athletes Foot Antifungal; Meijer Maximum Strength Jock Itch Relief Antifungal; Meijer Tolnaftate; Miconatate; Micotrin AL; Miracle Plus Anti-Fungal; Miracle Plus Anti-Fungal Foot Relief; Miracure; Molecular AF; Mycozyl AL; Nail Active Daytime Anti-fungal; Nail MD; Nail Renew; Nailene Antifungal Treatment; Natouch Antifungal Antiseptic Wipes; Natouch Antifungal Wipes Plus; Natural Fusion Anti-fungal Medi-Gel; Natureplex Tolnaftate Antifungal; Odor Control Tolnaftate; Odor Eaters Foot and Sneaker; Odor-eaters; Ongo - Fin; Opti-Nail 2-in-1; Personal Care Antifungal; Phytozine Ringworm Treatment Maximum Strength; Pitrex Crm 1%; Premier Solutions Antifungal Tolnaftate Liquid; Premier Solutions Antifungal Tolnaftate Powder; Premier Value Tolnaftate Antifungal; ProClearz Fungi-Cide PM; ProClearz Maximum Strength Anti-fungal Pen; ProClearz Maximum Strength Fungal Shield Brush-on Antifungal; Proclearz Anti-fungal Pen; Proclearz Antifungal Liquid; Proclearz Maximum Strength Fungal Shield Brush-ON Antifungal; Quality Choice Antifungal; Quality Choice Tolnaftate Antifungal; Quinsana Athletes Foot Anti Fungal; Relispray Antifungal Liquid; Rite Aid Athletes Foot; Rugby Tolnaftate 1% Powder; S-Cream TOLNAFTATE 1%; Sanafitil; Sanafitil Crema; Signature Athletes Foot Antifungal; Signature Black Bottle Tea Tree Antifungal Foot and Body Wash; Signature Care Antifungal; Signature Care Antifungal Cream Tolnaftate 1%; Signature Care Athletes Foot; Signature Care Athletes Foot Antifungal; Signature Care Athletes foot; Silka Antifungal; Skinheal Antifungal; Smart Sense Athletes Foot; Smart Sense Athletes Foot Relief; Smart Sense Tolnaftate Antifungal; Smart Sense Tolnftate Antifungal; SmartSense Maximum Strength Athletes Foot Relief antifungal; Smooth AF; Snap Stiks Athlete's Foot Relief Swabs With Tolnaftate; Snap-stiks Senior's Foot Fungus Relief Swabs With Tolnaftate; SoundBody Tolnaftate Antifungal; Sunmark Antifungal; Sunmark athletes foot; Sunmark athletes foot powder; Swabplus Athlete's Foot Relief Swabs With Tolnaftate; Swabplus Fungus Relief Swabs With Tolnaftate; Target antifungal; Terbinafine HCl Chlortimazole and Tolnaftate; Terpenicol Antifungal Solution; Thera plus Antifungal Tolnaftate; TheraCare Antifungal Cream; Tinactin; Tinactin Aerosol Powder; Tinactin Antifungal; Tinactin Chill Deodorant Powder Spray; Tinactin Chill Liquid Spray; Tinactin Jock Itch Crm 10mg/gm; Tinactin Jock Itch Top Aer Pwr 10mg/gm; Tinactin Liquid Aerosol 0.72mg/gm; Tinactin Plus Areosol Powder 1%; Tinactin Plus Powder 1%; Tinactin Powder; Tinactin Pump Spray; Tinactin Sol 10mg/ml; Tinactin Super Absorbent; Tineacide; Ting; Tolcylen Antifungal Cream; Tolcylen Antifungal Solution; Tolnafate; Tolnaftate; Tolnaftate Antifungal; Tolnaftate Antifungal Cream; Tolnaftate Cream 1%; Tolnaftate Cream 1% ANTIFUNGAL; Tolnaftate Cream USP 1% for Athlete's Foot; Tolnaftate Cream USP, 1%; Tolnaftate D; TopCare Tolnaftate Antifungal; Up and Up Antifungal; Up and Up Soothing Antifungal; Villimed Antifungal; Walgreens Athletes Foot; Walgreens Maximum Strength Jock Itch Antifungal; Walgreens Medicated Antifungal Athletes Foot; Walgreens Tolnaftate; Western Family Antifungal; Wick Storm Tea Tree Antifungal Foot Body Wash; Winco Antifungal; Winco Foods Tolnaftate; Woodwards Mycocide Clinical NS; XtraCare Antifungal Foot; Zeasorb AF; equate Athletes Foot; fulton street market Athletes Foot

> <INTERNATIONAL_BRANDS>
Aftate; Dr. Scholl's athlete's foot spray; Genaspor; Lamisil AF; NP-27; Odor Eaters; Pitrex; Separin; Tinaderm

$$$$
