540
  Mrv0541 02231214452D          

 20 22  0  0  0  0            999 V2000
    2.5991   -1.7284    0.0000 N   0  0  0  0  0  0  0  0  0  0  0  0
    4.4402    2.5532    0.0000 C   0  0  0  0  0  0  0  0  0  0  0  0
    3.6154    2.5532    0.0000 C   0  0  0  0  0  0  0  0  0  0  0  0
    4.9546    1.9082    0.0000 C   0  0  0  0  0  0  0  0  0  0  0  0
    3.1010    1.9082    0.0000 C   0  0  0  0  0  0  0  0  0  0  0  0
    4.0279    0.7462    0.0000 C   0  0  0  0  0  0  0  0  0  0  0  0
    4.7710    1.1041    0.0000 C   0  0  0  0  0  0  0  0  0  0  0  0
    3.2845    1.1041    0.0000 C   0  0  0  0  0  0  0  0  0  0  0  0
    4.0279   -0.0786    0.0000 C   0  0  0  0  0  0  0  0  0  0  0  0
    5.7715    2.1741    0.0000 C   0  0  0  0  0  0  0  0  0  0  0  0
    2.2840    2.1741    0.0000 C   0  0  0  0  0  0  0  0  0  0  0  0
    5.3918    0.5102    0.0000 C   0  0  0  0  0  0  0  0  0  0  0  0
    2.6639    0.5102    0.0000 C   0  0  0  0  0  0  0  0  0  0  0  0
    3.3134   -0.4911    0.0000 C   0  0  0  0  0  0  0  0  0  0  0  0
    6.4059    1.5947    0.0000 C   0  0  0  0  0  0  0  0  0  0  0  0
    1.6498    1.5948    0.0000 C   0  0  0  0  0  0  0  0  0  0  0  0
    3.3133   -1.3159    0.0000 C   0  0  0  0  0  0  0  0  0  0  0  0
    6.2147    0.7569    0.0000 C   0  0  0  0  0  0  0  0  0  0  0  0
    1.8408    0.7569    0.0000 C   0  0  0  0  0  0  0  0  0  0  0  0
    2.5991   -2.5532    0.0000 C   0  0  0  0  0  0  0  0  0  0  0  0
  1 17  1  0  0  0  0
  1 20  1  0  0  0  0
  2  3  1  0  0  0  0
  2  4  1  0  0  0  0
  3  5  1  0  0  0  0
  4  7  1  0  0  0  0
  4 10  2  0  0  0  0
  5  8  1  0  0  0  0
  5 11  2  0  0  0  0
  6  7  1  0  0  0  0
  6  8  1  0  0  0  0
  6  9  2  0  0  0  0
  7 12  2  0  0  0  0
  8 13  2  0  0  0  0
  9 14  1  0  0  0  0
 10 15  1  0  0  0  0
 11 16  1  0  0  0  0
 12 18  1  0  0  0  0
 13 19  1  0  0  0  0
 14 17  1  0  0  0  0
 15 18  2  0  0  0  0
 16 19  2  0  0  0  0
M  END
> <DATABASE_ID>
DB00540

> <DATABASE_NAME>
drugbank

> <SMILES>
CNCCC=C1C2=CC=CC=C2CCC2=CC=CC=C12

> <INCHI_IDENTIFIER>
InChI=1S/C19H21N/c1-20-14-6-11-19-17-9-4-2-7-15(17)12-13-16-8-3-5-10-18(16)19/h2-5,7-11,20H,6,12-14H2,1H3

> <INCHI_KEY>
PHVGLTMQBUFIQQ-UHFFFAOYSA-N

> <FORMULA>
C19H21N

> <MOLECULAR_WEIGHT>
263.3767

> <EXACT_MASS>
263.167399677

> <JCHEM_ACCEPTOR_COUNT>
1

> <JCHEM_ATOM_COUNT>
41

> <JCHEM_AVERAGE_NEUTRAL_MICROSPECIES_CHARGE>
0.9996625227714572

> <JCHEM_AVERAGE_POLARIZABILITY>
31.874590393492106

> <JCHEM_BIOAVAILABILITY>
1

> <JCHEM_DONOR_COUNT>
1

> <JCHEM_FORMAL_CHARGE>
0

> <JCHEM_GHOSE_FILTER>
1

> <JCHEM_IUPAC>
methyl(3-{tricyclo[9.4.0.0^{3,8}]pentadeca-1(15),3,5,7,11,13-hexaen-2-ylidene}propyl)amine

> <ALOGPS_LOGP>
4.65

> <JCHEM_LOGP>
4.426486977666667

> <ALOGPS_LOGS>
-5.48

> <JCHEM_MDDR_LIKE_RULE>
0

> <JCHEM_NEUTRAL_CHARGE>
1

> <JCHEM_NUMBER_OF_RINGS>
3

> <JCHEM_PHYSIOLOGICAL_CHARGE>
1

> <JCHEM_PKA_STRONGEST_BASIC>
10.471608936862953

> <JCHEM_POLAR_SURFACE_AREA>
12.03

> <JCHEM_REFRACTIVITY>
96.21250000000003

> <JCHEM_ROTATABLE_BOND_COUNT>
3

> <JCHEM_RULE_OF_FIVE>
1

> <ALOGPS_SOLUBILITY>
8.74e-04 g/l

> <JCHEM_TRADITIONAL_IUPAC>
tetrahydrofolic acid

> <JCHEM_VEBER_RULE>
1

> <DRUGBANK_ID>
DB00540

> <SECONDARY_ACCESSION_NUMBERS>
APRD00602

> <DRUG_GROUPS>
approved

> <GENERIC_NAME>
Nortriptyline

> <SYNONYMS>
10,11-dihydro-N-methyl-5H-dibenzo[a,d]cycloheptene-Δ5,γ-propylamine; 3-(10,11-dihydro-5H-dibenzo[a,d]cyclohepten-5-ylidene)-N-methyl-1-propanamine; Demethylamitriptyline; Desmethylamitriptyline; Nortriptylina; Nortriptyline; Nortriptylinum

> <PRODUCTS>
Apo-nortriptyline - Cap 10mg; Apo-nortriptyline - Cap 25mg; Ava-nortriptyline; Aventyl; Dom-nortriptyline 10mg Capsules; Dom-nortriptyline 25mg Capsules; Gen-nortriptyline Capsules 10mg; Gen-nortriptyline Capsules 25mg; Nortriptyline; Nortriptyline HCL; Nortriptyline Hci; Nortriptyline Hydrochloride; Nortriptyline-10; Nortriptyline-25; Norventyl; PMS-nortriptyline; Pamelor; Ratio-nortriptyline; Teva-nortriptyline

> <INTERNATIONAL_BRANDS>
Allegron; Ateben; Avantyl; Noritren; Norpress; Nortrilen; Psychostyl; Sensaval; Sensoval

> <SALTS>
Nortriptyline hydrochloride

$$$$
