544
  Mrv0541 02231214452D          

  9  9  0  0  0  0            999 V2000
    4.5080    1.0808    0.0000 F   0  0  0  0  0  0  0  0  0  0  0  0
    4.5080   -0.5693    0.0000 O   0  0  0  0  0  0  0  0  0  0  0  0
    1.6500   -0.5693    0.0000 O   0  0  0  0  0  0  0  0  0  0  0  0
    3.0791   -0.5693    0.0000 N   0  0  0  0  0  0  0  0  0  0  0  0
    2.3645    0.6683    0.0000 N   0  0  0  0  0  0  0  0  0  0  0  0
    3.7935   -0.1568    0.0000 C   0  0  0  0  0  0  0  0  0  0  0  0
    2.3645   -0.1568    0.0000 C   0  0  0  0  0  0  0  0  0  0  0  0
    3.7935    0.6683    0.0000 C   0  0  0  0  0  0  0  0  0  0  0  0
    3.0791    1.0808    0.0000 C   0  0  0  0  0  0  0  0  0  0  0  0
  1  8  1  0  0  0  0
  2  6  2  0  0  0  0
  3  7  2  0  0  0  0
  4  6  1  0  0  0  0
  4  7  1  0  0  0  0
  5  7  1  0  0  0  0
  5  9  1  0  0  0  0
  6  8  1  0  0  0  0
  8  9  2  0  0  0  0
M  END
> <DATABASE_ID>
DB00544

> <DATABASE_NAME>
drugbank

> <SMILES>
FC1=CNC(=O)NC1=O

> <INCHI_IDENTIFIER>
InChI=1S/C4H3FN2O2/c5-2-1-6-4(9)7-3(2)8/h1H,(H2,6,7,8,9)

> <INCHI_KEY>
GHASVSINZRGABV-UHFFFAOYSA-N

> <FORMULA>
C4H3FN2O2

> <MOLECULAR_WEIGHT>
130.0772

> <EXACT_MASS>
130.017855555

> <JCHEM_ACCEPTOR_COUNT>
2

> <JCHEM_ATOM_COUNT>
12

> <JCHEM_AVERAGE_NEUTRAL_MICROSPECIES_CHARGE>
-0.40012700331500595

> <JCHEM_AVERAGE_POLARIZABILITY>
9.45943734046829

> <JCHEM_BIOAVAILABILITY>
1

> <JCHEM_DONOR_COUNT>
2

> <JCHEM_FORMAL_CHARGE>
0

> <JCHEM_GHOSE_FILTER>
0

> <JCHEM_IUPAC>
5-fluoro-1,2,3,4-tetrahydropyrimidine-2,4-dione

> <ALOGPS_LOGP>
-0.58

> <JCHEM_LOGP>
-0.6558480899999999

> <ALOGPS_LOGS>
-1.35

> <JCHEM_MDDR_LIKE_RULE>
0

> <JCHEM_NEUTRAL_CHARGE>
0

> <JCHEM_NUMBER_OF_RINGS>
1

> <JCHEM_PHYSIOLOGICAL_CHARGE>
-1

> <JCHEM_PKA>
12.009826118281222

> <JCHEM_PKA_STRONGEST_ACIDIC>
7.17587932808474

> <JCHEM_PKA_STRONGEST_BASIC>
-7.973676798194867

> <JCHEM_POLAR_SURFACE_AREA>
58.2

> <JCHEM_REFRACTIVITY>
26.1722

> <JCHEM_ROTATABLE_BOND_COUNT>
0

> <JCHEM_RULE_OF_FIVE>
1

> <ALOGPS_SOLUBILITY>
5.86e+00 g/l

> <JCHEM_TRADITIONAL_IUPAC>
biotin

> <JCHEM_VEBER_RULE>
0

> <DRUGBANK_ID>
DB00544

> <SECONDARY_ACCESSION_NUMBERS>
APRD00516; EXPT03204

> <DRUG_GROUPS>
approved

> <GENERIC_NAME>
Fluorouracil

> <SYNONYMS>
5-Fluoracil; 5-Fluoropyrimidine-2,4-dione; 5-Fluorouracil; 5-Fluracil; 5-FU; Fluoro Uracil; Fluorouracil; Fluorouracilo; Fluorouracilum; Fluouracil

> <PRODUCTS>
Actikerall; Adrucil; Adrucil Inj 50mg/ml; Carac; Efudex; Fluorac; Fluoroplex; Fluoroplex Cream 1%; Fluorouracil; Fluorouracil Cream; Fluorouracil Inj 50mg/ml; Fluorouracil Injection; Fluorouracil Injection USP; Tolak; Verrunex

> <INTERNATIONAL_BRANDS>
Carzonal; Efudix; Efurix; Ftoruracil

> <SALTS>
Fluorouracil sodium

$$$$
