576
  Mrv0541 02231214472D          

 17 18  0  0  0  0            999 V2000
    2.4751    0.6631    0.0000 S   0  0  0  0  0  0  0  0  0  0  0  0
    3.9433    1.5651    0.0000 S   0  0  0  0  0  0  0  0  0  0  0  0
    1.6500    0.6631    0.0000 O   0  0  0  0  0  0  0  0  0  0  0  0
    3.3001    0.6631    0.0000 O   0  0  0  0  0  0  0  0  0  0  0  0
    2.4751    1.4882    0.0000 N   0  0  0  0  0  0  0  0  0  0  0  0
    3.2758    2.7212    0.0000 N   0  0  0  0  0  0  0  0  0  0  0  0
    2.4751   -2.6369    0.0000 N   0  0  0  0  0  0  0  0  0  0  0  0
    4.0828    2.8927    0.0000 N   0  0  0  0  0  0  0  0  0  0  0  0
    2.4751   -0.1619    0.0000 C   0  0  0  0  0  0  0  0  0  0  0  0
    1.7606   -0.5744    0.0000 C   0  0  0  0  0  0  0  0  0  0  0  0
    3.1895   -0.5744    0.0000 C   0  0  0  0  0  0  0  0  0  0  0  0
    2.4751   -1.8119    0.0000 C   0  0  0  0  0  0  0  0  0  0  0  0
    1.7606   -1.3994    0.0000 C   0  0  0  0  0  0  0  0  0  0  0  0
    3.1895   -1.3994    0.0000 C   0  0  0  0  0  0  0  0  0  0  0  0
    3.1895    1.9007    0.0000 C   0  0  0  0  0  0  0  0  0  0  0  0
    4.4953    2.1782    0.0000 C   0  0  0  0  0  0  0  0  0  0  0  0
    5.3158    2.0920    0.0000 C   0  0  0  0  0  0  0  0  0  0  0  0
  1  3  2  0  0  0  0
  1  4  2  0  0  0  0
  1  5  1  0  0  0  0
  1  9  1  0  0  0  0
  2 15  1  0  0  0  0
  2 16  1  0  0  0  0
  5 15  1  0  0  0  0
  6  8  1  0  0  0  0
  6 15  2  0  0  0  0
  7 12  1  0  0  0  0
  8 16  2  0  0  0  0
  9 10  2  0  0  0  0
  9 11  1  0  0  0  0
 10 13  1  0  0  0  0
 11 14  2  0  0  0  0
 12 13  2  0  0  0  0
 12 14  1  0  0  0  0
 16 17  1  0  0  0  0
M  END
> <DATABASE_ID>
DB00576

> <DATABASE_NAME>
drugbank

> <SMILES>
CC1=NN=C(NS(=O)(=O)C2=CC=C(N)C=C2)S1

> <INCHI_IDENTIFIER>
InChI=1S/C9H10N4O2S2/c1-6-11-12-9(16-6)13-17(14,15)8-4-2-7(10)3-5-8/h2-5H,10H2,1H3,(H,12,13)

> <INCHI_KEY>
VACCAVUAMIDAGB-UHFFFAOYSA-N

> <FORMULA>
C9H10N4O2S2

> <MOLECULAR_WEIGHT>
270.331

> <EXACT_MASS>
270.024516964

> <JCHEM_ACCEPTOR_COUNT>
5

> <JCHEM_ATOM_COUNT>
27

> <JCHEM_AVERAGE_NEUTRAL_MICROSPECIES_CHARGE>
-0.662211335445503

> <JCHEM_AVERAGE_POLARIZABILITY>
26.264209134603565

> <JCHEM_BIOAVAILABILITY>
1

> <JCHEM_DONOR_COUNT>
2

> <JCHEM_FORMAL_CHARGE>
0

> <JCHEM_GHOSE_FILTER>
1

> <JCHEM_IUPAC>
4-amino-N-(5-methyl-1,3,4-thiadiazol-2-yl)benzene-1-sulfonamide

> <ALOGPS_LOGP>
0.53

> <JCHEM_LOGP>
0.21434596466666644

> <ALOGPS_LOGS>
-2.65

> <JCHEM_MDDR_LIKE_RULE>
0

> <JCHEM_NEUTRAL_CHARGE>
-1

> <JCHEM_NUMBER_OF_RINGS>
2

> <JCHEM_PHYSIOLOGICAL_CHARGE>
-1

> <JCHEM_PKA_STRONGEST_ACIDIC>
6.707642187543112

> <JCHEM_PKA_STRONGEST_BASIC>
1.951757408153643

> <JCHEM_POLAR_SURFACE_AREA>
97.97

> <JCHEM_REFRACTIVITY>
66.8358

> <JCHEM_ROTATABLE_BOND_COUNT>
2

> <JCHEM_RULE_OF_FIVE>
1

> <ALOGPS_SOLUBILITY>
6.11e-01 g/l

> <JCHEM_TRADITIONAL_IUPAC>
tetrahydrofolic acid

> <JCHEM_VEBER_RULE>
0

> <DRUGBANK_ID>
DB00576

> <SECONDARY_ACCESSION_NUMBERS>
APRD00684

> <DRUG_GROUPS>
approved; investigational; vet_approved

> <GENERIC_NAME>
Sulfamethizole

> <SYNONYMS>
Sulfamethizol; SulfamÃ©thizol; Sulfamethizole; Sulfamethizolum; Sulfamethylthiadiazole; Sulfametizol

> <PRODUCTS>
Urobiotic

> <INTERNATIONAL_BRANDS>
Lucosil; Rufol; Thiosulfil; Thiosulfil Forte

$$$$
