578
  Mrv0541 02241213142D          

 33 34  0  0  0  0            999 V2000
   -4.5931    0.6060    0.0000 C   0  0  0  0  0  0  0  0  0  0  0  0
   -5.3391    0.2537    0.0000 C   0  0  0  0  0  0  0  0  0  0  0  0
   -5.4069   -0.5686    0.0000 C   0  0  0  0  0  0  0  0  0  0  0  0
   -4.7287   -1.0384    0.0000 C   0  0  0  0  0  0  0  0  0  0  0  0
   -3.9828   -0.6860    0.0000 C   0  0  0  0  0  0  0  0  0  0  0  0
   -3.9150    0.1362    0.0000 C   0  0  0  0  0  0  0  0  0  0  0  0
   -3.1690    0.4886    0.0000 C   0  0  0  0  0  0  0  0  0  0  0  0
   -2.4909    0.0187    0.0000 O   0  0  0  0  0  0  0  0  0  0  0  0
   -1.7449    0.3711    0.0000 C   0  0  0  0  0  0  0  0  0  0  0  0
   -1.6771    1.1933    0.0000 O   0  0  0  0  0  0  0  0  0  0  0  0
   -1.0667   -0.0987    0.0000 N   0  0  0  0  0  0  0  0  0  0  0  0
   -0.3208    0.2537    0.0000 C   0  0  1  0  0  0  0  0  0  0  0  0
   -0.2530    1.0759    0.0000 C   0  0  0  0  0  0  0  0  0  0  0  0
   -0.9311    1.5457    0.0000 C   0  0  0  0  0  0  0  0  0  0  0  0
    0.4930    1.4282    0.0000 C   0  0  0  0  0  0  0  0  0  0  0  0
    0.3574   -0.2162    0.0000 P   0  0  2  0  0  0  0  0  0  0  0  0
   -0.1125   -0.8943    0.0000 O   0  0  0  0  0  0  0  0  0  0  0  0
    0.8272    0.4620    0.0000 O   0  0  0  0  0  0  0  0  0  0  0  0
    1.0355   -0.6860    0.0000 O   0  0  0  0  0  0  0  0  0  0  0  0
    1.7815   -0.3336    0.0000 C   0  0  2  0  0  0  0  0  0  0  0  0
    1.8493    0.4886    0.0000 C   0  0  0  0  0  0  0  0  0  0  0  0
    1.1711    0.9584    0.0000 O   0  0  0  0  0  0  0  0  0  0  0  0
    2.5952    0.8409    0.0000 O   0  0  0  0  0  0  0  0  0  0  0  0
    2.4596   -0.8035    0.0000 C   0  0  0  0  0  0  0  0  0  0  0  0
    3.2056   -0.4511    0.0000 C   0  0  0  0  0  0  0  0  0  0  0  0
    2.3918   -1.6257    0.0000 C   0  0  0  0  0  0  0  0  0  0  0  0
    3.0699   -2.0955    0.0000 C   0  0  0  0  0  0  0  0  0  0  0  0
    3.8159   -1.7431    0.0000 C   0  0  0  0  0  0  0  0  0  0  0  0
    3.8837   -0.9209    0.0000 C   0  0  0  0  0  0  0  0  0  0  0  0
    4.6297   -0.5686    0.0000 C   0  0  0  0  0  0  0  0  0  0  0  0
    4.6975    0.2537    0.0000 N   0  0  0  0  0  0  0  0  0  0  0  0
   -0.8008    0.5862    0.0000 H   0  0  0  0  0  0  0  0  0  0  0  0
    1.7335   -0.9156    0.0000 H   0  0  0  0  0  0  0  0  0  0  0  0
  1  6  1  0  0  0  0
  1  2  2  0  0  0  0
  2  3  1  0  0  0  0
  3  4  2  0  0  0  0
  4  5  1  0  0  0  0
  5  6  2  0  0  0  0
  6  7  1  0  0  0  0
  7  8  1  0  0  0  0
  8  9  1  0  0  0  0
  9 11  1  0  0  0  0
  9 10  2  0  0  0  0
 12 11  1  1  0  0  0
 12 13  1  0  0  0  0
 12 16  1  0  0  0  0
 12 32  1  6  0  0  0
 13 15  1  0  0  0  0
 13 14  1  0  0  0  0
 16 17  2  0  0  0  0
 16 19  1  6  0  0  0
 16 18  1  1  0  0  0
 20 19  1  6  0  0  0
 20 24  1  0  0  0  0
 20 21  1  0  0  0  0
 20 33  1  1  0  0  0
 21 22  2  0  0  0  0
 21 23  1  0  0  0  0
 24 25  2  0  0  0  0
 24 26  1  0  0  0  0
 25 29  1  0  0  0  0
 26 27  2  0  0  0  0
 27 28  1  0  0  0  0
 28 29  2  0  0  0  0
 29 30  1  0  0  0  0
 30 31  1  0  0  0  0
M  END
> <DATABASE_ID>
DB07157

> <DATABASE_NAME>
drugbank

> <SMILES>
[H][C@](NC(=O)OCC1=CC=CC=C1)(C(C)C)[P@@](O)(=O)O[C@]([H])(C(O)=O)C1=CC(CN)=CC=C1

> <INCHI_IDENTIFIER>
InChI=1S/C21H27N2O7P/c1-14(2)19(23-21(26)29-13-15-7-4-3-5-8-15)31(27,28)30-18(20(24)25)17-10-6-9-16(11-17)12-22/h3-11,14,18-19H,12-13,22H2,1-2H3,(H,23,26)(H,24,25)(H,27,28)/t18-,19+/m0/s1

> <INCHI_KEY>
RTFGEFWZCFCODU-RBUKOAKNSA-N

> <FORMULA>
C21H27N2O7P

> <MOLECULAR_WEIGHT>
450.422

> <EXACT_MASS>
450.15558774

> <JCHEM_ACCEPTOR_COUNT>
6

> <JCHEM_ATOM_COUNT>
58

> <JCHEM_AVERAGE_NEUTRAL_MICROSPECIES_CHARGE>
-1.0052234854467543

> <JCHEM_AVERAGE_POLARIZABILITY>
45.13327640885224

> <JCHEM_BIOAVAILABILITY>
1

> <JCHEM_DONOR_COUNT>
4

> <JCHEM_FORMAL_CHARGE>
0

> <JCHEM_GHOSE_FILTER>
1

> <JCHEM_IUPAC>
(2S)-2-[3-(aminomethyl)phenyl]-2-({[(1R)-1-{[(benzyloxy)carbonyl]amino}-2-methylpropyl](hydroxy)phosphoryl}oxy)acetic acid

> <ALOGPS_LOGP>
0.33

> <JCHEM_LOGP>
1.6125871737024478

> <ALOGPS_LOGS>
-3.91

> <JCHEM_MDDR_LIKE_RULE>
0

> <JCHEM_NEUTRAL_CHARGE>
-1

> <JCHEM_NUMBER_OF_RINGS>
2

> <JCHEM_PHYSIOLOGICAL_CHARGE>
-1

> <JCHEM_PKA>
3.5015780400892327

> <JCHEM_PKA_STRONGEST_ACIDIC>
0.9986758511337124

> <JCHEM_PKA_STRONGEST_BASIC>
9.250915169133652

> <JCHEM_POLAR_SURFACE_AREA>
148.18

> <JCHEM_REFRACTIVITY>
113.20779999999998

> <JCHEM_ROTATABLE_BOND_COUNT>
11

> <JCHEM_RULE_OF_FIVE>
1

> <ALOGPS_SOLUBILITY>
5.52e-02 g/l

> <JCHEM_TRADITIONAL_IUPAC>
biotin

> <JCHEM_VEBER_RULE>
0

> <DRUGBANK_ID>
DB07157

> <DRUG_GROUPS>
experimental

> <GENERIC_NAME>
(5R,6S,8S)-8-[3-(AMINOMETHYL)PHENYL]-6-HYDROXY-5-ISOPROPYL-3-OXO-1-PHENYL-2,7-DIOXA-4-AZA-6-PHOSPHANONAN-9-OIC ACID 6-OXIDE

$$$$
