610
  Mrv0541 02231214482D          

 12 12  0  0  1  0            999 V2000
    2.3645    1.1592    0.0000 O   0  0  0  0  0  0  0  0  0  0  0  0
    1.6500   -1.7284    0.0000 O   0  0  0  0  0  0  0  0  0  0  0  0
    3.7935    1.9842    0.0000 N   0  0  0  0  0  0  0  0  0  0  0  0
    3.0791    0.7466    0.0000 C   0  0  1  0  0  0  0  0  0  0  0  0
    3.7935    1.1592    0.0000 C   0  0  2  0  0  0  0  0  0  0  0  0
    3.0791   -0.0784    0.0000 C   0  0  0  0  0  0  0  0  0  0  0  0
    4.5080    0.7466    0.0000 C   0  0  0  0  0  0  0  0  0  0  0  0
    2.3645   -0.4909    0.0000 C   0  0  0  0  0  0  0  0  0  0  0  0
    3.7935   -0.4909    0.0000 C   0  0  0  0  0  0  0  0  0  0  0  0
    2.3645   -1.3159    0.0000 C   0  0  0  0  0  0  0  0  0  0  0  0
    3.7935   -1.3159    0.0000 C   0  0  0  0  0  0  0  0  0  0  0  0
    3.0791   -1.7284    0.0000 C   0  0  0  0  0  0  0  0  0  0  0  0
  4  1  1  1  0  0  0
  2 10  1  0  0  0  0
  5  3  1  1  0  0  0
  4  5  1  0  0  0  0
  4  6  1  0  0  0  0
  5  7  1  0  0  0  0
  6  8  2  0  0  0  0
  6  9  1  0  0  0  0
  8 10  1  0  0  0  0
  9 11  2  0  0  0  0
 10 12  2  0  0  0  0
 11 12  1  0  0  0  0
M  END
> <DATABASE_ID>
DB00610

> <DATABASE_NAME>
drugbank

> <SMILES>
C[C@H](N)[C@H](O)C1=CC(O)=CC=C1

> <INCHI_IDENTIFIER>
InChI=1S/C9H13NO2/c1-6(10)9(12)7-3-2-4-8(11)5-7/h2-6,9,11-12H,10H2,1H3/t6-,9-/m0/s1

> <INCHI_KEY>
WXFIGDLSSYIKKV-RCOVLWMOSA-N

> <FORMULA>
C9H13NO2

> <MOLECULAR_WEIGHT>
167.205

> <EXACT_MASS>
167.094628665

> <JCHEM_ACCEPTOR_COUNT>
3

> <JCHEM_ATOM_COUNT>
25

> <JCHEM_AVERAGE_NEUTRAL_MICROSPECIES_CHARGE>
0.9935010398214349

> <JCHEM_AVERAGE_POLARIZABILITY>
17.842232110142366

> <JCHEM_BIOAVAILABILITY>
1

> <JCHEM_DONOR_COUNT>
3

> <JCHEM_FORMAL_CHARGE>
0

> <JCHEM_GHOSE_FILTER>
1

> <JCHEM_IUPAC>
3-[(1R,2S)-2-amino-1-hydroxypropyl]phenol

> <ALOGPS_LOGP>
-0.59

> <JCHEM_LOGP>
-0.045079756811210875

> <ALOGPS_LOGS>
-1.12

> <JCHEM_MDDR_LIKE_RULE>
0

> <JCHEM_NEUTRAL_CHARGE>
1

> <JCHEM_NUMBER_OF_RINGS>
1

> <JCHEM_PHYSIOLOGICAL_CHARGE>
1

> <JCHEM_PKA>
14.006501188697202

> <JCHEM_PKA_STRONGEST_ACIDIC>
9.03157879634259

> <JCHEM_PKA_STRONGEST_BASIC>
9.67903155053189

> <JCHEM_POLAR_SURFACE_AREA>
66.48

> <JCHEM_REFRACTIVITY>
46.893600000000006

> <JCHEM_ROTATABLE_BOND_COUNT>
2

> <JCHEM_RULE_OF_FIVE>
1

> <ALOGPS_SOLUBILITY>
1.28e+01 g/l

> <JCHEM_TRADITIONAL_IUPAC>
tetrahydrofolic acid

> <JCHEM_VEBER_RULE>
0

> <DRUGBANK_ID>
DB00610

> <SECONDARY_ACCESSION_NUMBERS>
APRD00555

> <DRUG_GROUPS>
approved; investigational

> <GENERIC_NAME>
Metaraminol

> <SYNONYMS>
(-)-Erythro-metaraminol; 1-(m-Hydroxyphenyl)-2-amino-1-propanol; 1-Metaraminol; 2-Amino-1-(m-hydroxyphenyl)-1-propanol; 3-Hydroxyphenylisopropanolamine; alpha-(1-Aminoethyl)-3-hydroxybenzenemethanol; alpha-(m-Hydroxyphenyl)-beta-aminopropanol; Hydroxynorephedrine; L-Metaraminol; m-Hydroxy norephedrine; m-Hydroxyphenylpropanolamine; m-Hydroxypropadrine; Metaraminol; MÃ©taraminol; Metaraminolum

> <INTERNATIONAL_BRANDS>
Aramine; Metaramin; Pressonex

> <SALTS>
Metaraminol bitartrate

$$$$
