616
  Mrv0541 02231217152D          

 30 31  0  0  0  0            999 V2000
    0.6548    2.2429    0.0000 O   0  0  0  0  0  0  0  0  0  0  0  0
    0.6548    1.4179    0.0000 C   0  0  0  0  0  0  0  0  0  0  0  0
    1.3693    1.0054    0.0000 C   0  0  1  0  0  0  0  0  0  0  0  0
    2.0838    1.4179    0.0000 C   0  0  0  0  0  0  0  0  0  0  0  0
    2.0838    2.2429    0.0000 C   0  0  0  0  0  0  0  0  0  0  0  0
    2.7982    1.0054    0.0000 C   0  0  0  0  0  0  0  0  0  0  0  0
    1.3693    0.1804    0.0000 C   0  0  1  0  0  0  0  0  0  0  0  0
    2.0367   -0.3045    0.0000 C   0  0  2  0  0  0  0  0  0  0  0  0
    2.8214   -0.0496    0.0000 N   0  0  0  0  0  0  0  0  0  0  0  0
    3.4344   -0.6016    0.0000 S   0  0  0  0  0  0  0  0  0  0  0  0
    4.0475   -1.1537    0.0000 O   0  0  0  0  0  0  0  0  0  0  0  0
    3.9865    0.0115    0.0000 O   0  0  0  0  0  0  0  0  0  0  0  0
    2.8824   -1.2147    0.0000 C   0  0  0  0  0  0  0  0  0  0  0  0
    1.7818   -1.0892    0.0000 C   0  0  0  0  0  0  0  0  0  0  0  0
    0.9568   -1.0892    0.0000 C   0  0  0  0  0  0  0  0  0  0  0  0
    0.7019   -0.3045    0.0000 N   0  0  0  0  0  0  0  0  0  0  0  0
   -0.0828   -0.0496    0.0000 C   0  0  0  0  0  0  0  0  0  0  0  0
   -0.2543    0.7574    0.0000 O   0  0  0  0  0  0  0  0  0  0  0  0
   -0.6959   -0.6016    0.0000 C   0  0  0  0  0  0  0  0  0  0  0  0
   -1.4805   -0.3467    0.0000 C   0  0  0  0  0  0  0  0  0  0  0  0
   -2.0936   -0.8987    0.0000 C   0  0  0  0  0  0  0  0  0  0  0  0
   -2.8782   -0.6438    0.0000 N   0  0  0  0  0  0  0  0  0  0  0  0
   -3.4913   -1.1958    0.0000 C   0  0  0  0  0  0  0  0  0  0  0  0
   -4.2759   -0.9409    0.0000 C   0  0  0  0  0  0  0  0  0  0  0  0
   -4.4474   -0.1339    0.0000 C   0  0  0  0  0  0  0  0  0  0  0  0
   -3.8344    0.4181    0.0000 C   0  0  0  0  0  0  0  0  0  0  0  0
   -3.0497    0.1632    0.0000 C   0  0  0  0  0  0  0  0  0  0  0  0
    1.1696    1.5541    0.0000 H   0  0  0  0  0  0  0  0  0  0  0  0
    1.8896    0.4455    0.0000 H   0  0  0  0  0  0  0  0  0  0  0  0
    2.1281    0.2722    0.0000 H   0  0  0  0  0  0  0  0  0  0  0  0
  1  2  2  0  0  0  0
  2  3  1  0  0  0  0
  3  4  1  1  0  0  0
  7  3  1  1  0  0  0
  3 28  1  6  0  0  0
  4  5  1  0  0  0  0
  4  6  1  0  0  0  0
  7  8  1  0  0  0  0
  7 16  1  0  0  0  0
  7 29  1  6  0  0  0
  8  9  1  6  0  0  0
  8 14  1  0  0  0  0
  8 30  1  1  0  0  0
  9 10  1  0  0  0  0
 10 11  2  0  0  0  0
 10 12  2  0  0  0  0
 10 13  1  0  0  0  0
 14 15  1  0  0  0  0
 15 16  1  0  0  0  0
 16 17  1  0  0  0  0
 17 18  2  0  0  0  0
 17 19  1  0  0  0  0
 19 20  2  0  0  0  0
 20 21  1  0  0  0  0
 21 22  1  0  0  0  0
 22 23  1  0  0  0  0
 22 27  1  0  0  0  0
 23 24  1  0  0  0  0
 24 25  1  0  0  0  0
 25 26  1  0  0  0  0
 26 27  1  0  0  0  0
M  END
> <DATABASE_ID>
DB03890

> <DATABASE_NAME>
drugbank

> <SMILES>
O=C[C@@]([H])(C(C)C)[C@]1([H])N(CC[C@@]1([H])NS(=O)(=O)C)C(=O)\C=C\CN1CCCCC1

> <INCHI_IDENTIFIER>
InChI=1S/C19H33N3O4S/c1-15(2)16(14-23)19-17(20-27(3,25)26)9-13-22(19)18(24)8-7-12-21-10-5-4-6-11-21/h7-8,14-17,19-20H,4-6,9-13H2,1-3H3/b8-7+/t16-,17+,19-/m0/s1

> <INCHI_KEY>
BSBJWRKWANAVRQ-POTLKAILSA-N

> <FORMULA>
C19H33N3O4S

> <MOLECULAR_WEIGHT>
399.548

> <EXACT_MASS>
399.219177249

> <JCHEM_ACCEPTOR_COUNT>
5

> <JCHEM_ATOM_COUNT>
60

> <JCHEM_AVERAGE_NEUTRAL_MICROSPECIES_CHARGE>
0.9604623838637001

> <JCHEM_AVERAGE_POLARIZABILITY>
43.62276201272329

> <JCHEM_BIOAVAILABILITY>
1

> <JCHEM_DONOR_COUNT>
1

> <JCHEM_FORMAL_CHARGE>
0

> <JCHEM_GHOSE_FILTER>
1

> <JCHEM_IUPAC>
N-[(2S,3R)-2-[(2S)-3-methyl-1-oxobutan-2-yl]-1-[(2E)-4-(piperidin-1-yl)but-2-enoyl]pyrrolidin-3-yl]methanesulfonamide

> <ALOGPS_LOGP>
1.65

> <JCHEM_LOGP>
0.08152193705440408

> <ALOGPS_LOGS>
-2.99

> <JCHEM_MDDR_LIKE_RULE>
0

> <JCHEM_NEUTRAL_CHARGE>
1

> <JCHEM_NUMBER_OF_RINGS>
2

> <JCHEM_PHYSIOLOGICAL_CHARGE>
1

> <JCHEM_PKA>
17.344752884698906

> <JCHEM_PKA_STRONGEST_ACIDIC>
10.361663648183201

> <JCHEM_PKA_STRONGEST_BASIC>
8.390521397737965

> <JCHEM_POLAR_SURFACE_AREA>
86.79

> <JCHEM_REFRACTIVITY>
107.03809999999997

> <JCHEM_ROTATABLE_BOND_COUNT>
7

> <JCHEM_RULE_OF_FIVE>
1

> <ALOGPS_SOLUBILITY>
4.07e-01 g/l

> <JCHEM_TRADITIONAL_IUPAC>
biotin

> <JCHEM_VEBER_RULE>
0

> <DRUGBANK_ID>
DB03890

> <SECONDARY_ACCESSION_NUMBERS>
EXPT00265

> <DRUG_GROUPS>
experimental

> <GENERIC_NAME>
N-[2-(1-Formyl-2-Methyl-Propyl)-1-(4-Piperidin-1-Yl-but-2-Enoyl)-Pyrrolidin-3-Yl]-Methanesulfonamide

$$$$
