640
  Mrv1718010241721462D          

 19 21  0  0  1  0            999 V2000
    4.9010    0.6808    0.0000 O   0  0  0  0  0  0  0  0  0  0  0  0
    2.8071    1.0969    0.0000 O   0  0  0  0  0  0  0  0  0  0  0  0
    3.8647    2.5471    0.0000 O   0  0  0  0  0  0  0  0  0  0  0  0
    6.3238    1.6527    0.0000 O   0  0  0  0  0  0  0  0  0  0  0  0
    3.8597   -0.3570    0.0000 N   0  0  0  0  0  0  0  0  0  0  0  0
    3.8597   -1.6848    0.0000 N   0  0  0  0  0  0  0  0  0  0  0  0
    2.3645   -0.1959    0.0000 N   0  0  0  0  0  0  0  0  0  0  0  0
    1.6500   -1.4335    0.0000 N   0  0  0  0  0  0  0  0  0  0  0  0
    2.3645   -2.6710    0.0000 N   0  0  0  0  0  0  0  0  0  0  0  0
    3.6321    1.0955    0.0000 C   0  0  1  0  0  0  0  0  0  0  0  0
    4.1159    0.4272    0.0000 C   0  0  1  0  0  0  0  0  0  0  0  0
    4.1182    1.7621    0.0000 C   0  0  1  0  0  0  0  0  0  0  0  0
    4.9025    1.5058    0.0000 C   0  0  1  0  0  0  0  0  0  0  0  0
    5.5707    1.9896    0.0000 C   0  0  0  0  0  0  0  0  0  0  0  0
    3.0790   -0.6084    0.0000 C   0  0  0  0  0  0  0  0  0  0  0  0
    4.3411   -1.0210    0.0000 C   0  0  0  0  0  0  0  0  0  0  0  0
    3.0790   -1.4335    0.0000 C   0  0  0  0  0  0  0  0  0  0  0  0
    2.3645   -1.8460    0.0000 C   0  0  0  0  0  0  0  0  0  0  0  0
    1.6500   -0.6084    0.0000 C   0  0  0  0  0  0  0  0  0  0  0  0
  1 11  1  0  0  0  0
  1 13  1  0  0  0  0
 10  2  1  6  0  0  0
 12  3  1  6  0  0  0
  4 14  1  0  0  0  0
 11  5  1  1  0  0  0
  5 15  1  0  0  0  0
  5 16  1  0  0  0  0
  6 16  2  0  0  0  0
  6 17  1  0  0  0  0
  7 15  2  0  0  0  0
  7 19  1  0  0  0  0
  8 18  1  0  0  0  0
  8 19  2  0  0  0  0
  9 18  1  0  0  0  0
 10 11  1  0  0  0  0
 10 12  1  0  0  0  0
 12 13  1  0  0  0  0
 13 14  1  1  0  0  0
 15 17  1  0  0  0  0
 17 18  2  0  0  0  0
M  END
> <DATABASE_ID>
DB00640

> <DATABASE_NAME>
drugbank

> <SMILES>
NC1=C2N=CN([C@@H]3O[C@H](CO)[C@@H](O)[C@H]3O)C2=NC=N1

> <INCHI_IDENTIFIER>
InChI=1S/C10H13N5O4/c11-8-5-9(13-2-12-8)15(3-14-5)10-7(18)6(17)4(1-16)19-10/h2-4,6-7,10,16-18H,1H2,(H2,11,12,13)/t4-,6-,7-,10-/m1/s1

> <INCHI_KEY>
OIRDTQYFTABQOQ-KQYNXXCUSA-N

> <FORMULA>
C10H13N5O4

> <MOLECULAR_WEIGHT>
267.2413

> <EXACT_MASS>
267.096753929

> <JCHEM_ACCEPTOR_COUNT>
8

> <JCHEM_ATOM_COUNT>
32

> <JCHEM_AVERAGE_POLARIZABILITY>
25.28306076008305

> <JCHEM_BIOAVAILABILITY>
1

> <JCHEM_DONOR_COUNT>
4

> <JCHEM_FORMAL_CHARGE>
0

> <JCHEM_GHOSE_FILTER>
0

> <JCHEM_IUPAC>
(2R,3R,4S,5R)-2-(6-amino-9H-purin-9-yl)-5-(hydroxymethyl)oxolane-3,4-diol

> <ALOGPS_LOGP>
-1.21

> <JCHEM_LOGP>
-2.0909638716666668

> <ALOGPS_LOGS>
-1.28

> <JCHEM_MDDR_LIKE_RULE>
0

> <JCHEM_NUMBER_OF_RINGS>
3

> <JCHEM_PHYSIOLOGICAL_CHARGE>
0

> <JCHEM_PKA>
13.891216626643672

> <JCHEM_PKA_STRONGEST_ACIDIC>
12.454003276007061

> <JCHEM_PKA_STRONGEST_BASIC>
3.938763097294345

> <JCHEM_POLAR_SURFACE_AREA>
139.54

> <JCHEM_REFRACTIVITY>
63.1956

> <JCHEM_ROTATABLE_BOND_COUNT>
2

> <JCHEM_RULE_OF_FIVE>
1

> <ALOGPS_SOLUBILITY>
1.40e+01 g/l

> <JCHEM_TRADITIONAL_IUPAC>
adenosine

> <JCHEM_VEBER_RULE>
0

> <DRUGBANK_ID>
DB00640

> <SECONDARY_ACCESSION_NUMBERS>
APRD00132; DB06639

> <DRUG_GROUPS>
approved; investigational

> <GENERIC_NAME>
Adenosine

> <SYNONYMS>
(2R,3R,4S,5R)-2-(6-aminopurin-9-yl)-5-(hydroxymethyl)oxolane-3,4-diol; 6-Amino-9-beta-D-ribofuranosyl-9H-purine; 9-beta-D-Ribofuranosidoadenine; 9-beta-D-Ribofuranosyl-9H-purin-6-amine; 9-β-D-ribofuranosyl-9H-purin-6-amine; Ade-Rib; Adenin riboside; Adenine Deoxyribonucleoside; Adenogesic; Adenosin; Adenosina; Adénosine; Adenosine; Adenosinum; Ado; beta-D-Adenosine

> <PRODUCTS>
9tails Premium Wrinkle Power Lifting; A.H.C Real Eye For Face; A.H.C. Collagen Cream; A.H.C. Collagen Toner; A.H.c Cotton 100 Mask Multi Peptide; A.H.c Cotton 100 Mask Skin Ceramide; A.H.c Cotton 100 Mask Soy Isoflavone; A.H.c Cotton 100 Mask Triple Hyaluronic; A.m; AAPE Continuous Renewal; AAPE Continuous Renewal Eye; AAPE Continuous Renewal Serum; ABALONE CrystalDouble EX; ABALONE CrystalDouble EX SERUM; ACTIBEAU Intensive Moisturizing Facial Mask; AHC Collagen Serum; AHC Complex Choice EGF Booster; AHC Hydration Special Gen Cream; AHC Hydration Special Gen Mask; AHC Hydration Special Gen Serum; AHC Hydration Special Gen Solution; AHC Phyto Complex Mask; AHC Premium Intense Contour Balm; AHC Revitalizing Special Gen Cream; AHC Revitalizing Special Gen Mask; AHC Revitalizing Special Gen Serum; AHC Revitalizing Special Gen Solution; AHC Vital C Complex Mask; AHC Vital Complex C-15 Ampoule; AP II NeckCream; AQUTOP Moisturizing Signature Tone-up Cream; ARILAC Anti Wrinkle Mask Sheet Pack; ARMIYOU HYDROGEN 1.5mL; ARMIYOU HYDROGEN SERUM 1.5mL; ARMIYOU HYDROGEN TONER 1.5mL; ARSMEDIC STEP 01 Secret Ampoule; ARSMEDIC STEP 02 After Ampoule; ARTEMES 3R Effect Hyaluronic Ampoule; ATONO2 Oxygen Mothers Cream; Abalone Aqua Flood Water; Abalone Crystaldouble EX Ampoule; Abalone Crystaldouble EX Bb; Abalone Crystaldouble EX Cc; Abalone Crystaldouble EX Homme; Abalone Homme Face; Absolute Total BB SPF37 PA 3Plus; Adenocard; Adenocard - Liq Rapid Bolus IV 3mg/ml; Adenocard Injection -pre-filled Syringe; Adenocard Liq IV 3mg/ml; Adenocard Liq IV 3mg/ml (pre-filled Syringe); Adenoscan; Adenoscan - (for IV Infusion Only); Adenosine; Adenosine Injection; Adenosine Injection, 6mg/2mL (3mg/mL) Vial; Adenosine Injection, USP; Advanced Snail 92 All in One Cream; Aj-adenosine; All Deep Multi; All In One Concentrate Treatment Mask; All Nations A D C Special Program; Allvit Revital Up; Ambling Plant Probiotics Aqua Role Moisturizing; Ambling Plant Probiotics Balance Ampoule; Ambling Plant Probiotics Into Nature Essence I; An Adc Sp F; Anti aging; Anti aging ample; Antibe Beausenne Special Ampoule; Antibe Super Hydrating Moisturizing Cream; Applicell Essential Toner; Applicell Intensive Serum; Applicell Miracle; Applicell Perfect Eye; Applicell Timeless Ampoule; Aprilskin Magic Snow Fixing Foundation 22 Pink Beige; Aprilskin Magic Snow Fixing Foundation 23 Natural Beige; Aqua Collagen Coenzyme Q10 Hydro Mask; Aqua Collagen Solu tion Coenzyme Q10 Hydroge l Mask; Aquatide Resurface Serum; Aquatide Soothing Lifting Mask; Aquato Intensive Moisturecream; Are You The Real Branch Mask; Are You The Real Cat Mask; Are You The Real Shrek Mask; Armiyou Hydrogen; Armiyou Hydrogen Serum; Armiyou Hydrogen Toner; Arocell Eye and Neck Super; Arocell Milky Drop Finish Ampoule; Arocell Moisturizing; Arocell Super Power; Arocell Super Power Mask; Artemes 3R effect hyaluronic mask; B.S.c Ampul; BANILA CO It Radiant CC Tone up; BENTON FERMENTATION EYE 10g; BLANC DIVA GLEAM COVERAGE CUSHION Natural Beige; BLANC DIVA GLEAM COVERAGE CUSHION Pink; BLANC DIVA GLEAM COVERAGE CUSHION White; BLANC DIVA GLEAM COVERAGE CUSHION Yellow; BOTA C Aqua rejuvenating serum; BOTA C Reset; BOTANIC HEAL boH 360 Lifting Solu tion; BOTANIC HEAL boH Air Jet Daily Mask Collagen; BOTANIC HEAL boH Air Jet Daily Mask Panthenol; BOTANIC HEAL boH Derma Defense All In One Essence; BOTANIC HEAL boH Derma Intensive Energy Essence; BOTANIC HEAL boH Derma Intensive Panthenol; BOTANIC HEAL boH Derma Water Ceramide; BOTANIC HEAL boH Derma Water Ceramide Ge l; BOTANIC HEAL boH Derma Water Ceramide Toner; BOTANIC HEAL boH Gauze Hydra Solu tion; BRING GREEN Artemisia Calming Intensive Serum; BRING GREEN Artemisia Calming Repair; BVBLAB Cellular Body Firming; Baegayul Honeysuckle Hydroge l Mask; Baegayul Peony Essence; Baegayul Peony Face Mist; Baegayul Peony Moisturizing; Baegayul Peony Toner; Bandha Who and Y Zone Serum; Bandha You and Face Moisture; Bandha You and Face Serum; Bandha for and Mask; Banobagi Anti-oxidantInjection Mask; Banobagi Milk Thistle Repair; Banobagi Milk Thistle Repair Serum; Banobagi Milk Thistle Repair Toner; Banobagi Vita Cocktail Foil Mask Age; Banobagi Vita Cocktail Foil Mask Aqua; Banobagi Vita Cocktail Foil Mask Brightening; Barox White Magic; Barox White Magic Extra Repair Serum; Barox White Magic Mask; Bellaskin Skin-rebirth Contour; Bibilip Aloe Cica Dual Moisturizer; Bibilip Honey Coco Total Care; Biotoc Regen Ampoule; Biotoc Regen Peel; Biotoc Regen Serum; Birds Nest Forever Young Multi Care Lifting; Blanc Diva Rebirth; Blanc Diva Rebirth Serum; Blanchet Glam Pearl Radiance Ampoule; Blanchet Glam Pearl Radiance Capsul E Serum; Blanchet Glam Pearl Radiance Essential Mist; Blue Tok Tok Tok All In One Capsule Essence; BonGin BonCell ECM Boost 195 HA; BonGin BonCell Rejuvenating Mask Pack; BonGin Rebalancing GIN; BonGin Revitalizing GIN Water; Bonajour Green Tea Water Bomb; Botanic Heal Boh Derma Intensive Cica Panthenol Ampoule; Botanic Heal Boh Derma Intensive Panthenol Cre Am Mist; Botanic Heal Boh Derma Shot Vitamin All In One Essence; Botanic Heal Boh Derma Shot Vitamin Eye; Botanic Heal Boh Probioderm Repair Ampoule Serum; Botanic Heal Boh Probioderm Repair Lifting; Botanic Heal boH 360 Lifting So lution; Botanic Heal boH Air Jet Daily Mask Collagen; Botanic Heal boH Air Jet Daily Mask Panthenol; Botanic Heal boH All In One Bright So lution; Botanic Heal boH Gauze Hydra So lution; Botanic Twenty Hypercare Essence; Botanic Twenty Hypercare Nourishing; Botanic Twenty Hypercare Plumping Formula; Botanic Twenty Light Watery; Botanic Twenty Recharging; Botanic Twenty Recharging Toner; Botoki V Mask; Breast Essence III; Bring Green Carrot Vita Dark Spot Serum; Bring Green Fresh Mask Avocado; Brucke A.C.C. Cure Ampoule; Brucke Keep Cooling Foilgel Lifting Mask; Brucke Keep Cooling Hydrogel Soothing Mask; Bulgarian Rose Mist; Bulgarian Rose Sleeping Pack; Bvblab Squalan Serum Sti Ck 70; By Selected Anti Wrinkle Day Serum; By Selected Reinforce Day Serum; CAVIALL Superior Caviar Nourinkle Mask SET; CELDERMA Crystal Kiss Me Jelly Patch; CELDERMA Crystal Skin Mask; CELDERMA Ninetalks Hydrogel Eye Patch; CELDERMA Ninetalks Hydrogel Eye Patch Box; CELDERMA Ninetalks Hydrogel Mask; CELDERMA Pearl Lace Hydrogel Mask; CELGEN PEARL MOISTURE Solution; CELGEN Pearl Calming Solution Mask; CELGEN Pearl Moisture Solution Mask; CELGEN Pearl MoistureCream; CELL 97.7 RE-ACTIVATED PERFECT LIFTING Cream; CELL 97.7 RE-ACTIVATED PERFECT LIFTING EYE Cream; CELLSTORY Plus Cell Activator Ampoule; CELLSTORY Plus Cell Awake Essence; CELLSTORY Plus Cell Calming Mask; CELLSTORY Plus Cell Fluid; CELLSTORY Plus Cell Recovery; CELLSTORY Plus Cell Ultra; CELLSTORY Plus Cellplant Meso Care; CELLSTORY Plus Cellplant Meso-Care Program (1 week); CELLSTORY Plus Cellplant Meso-Care Program (4 week); CIZAR First Calming Serum; COMPLETE CHOICE Moisture Amploule; CONJU Princess Lifting; COVERQUEEN All in one sun roll; CRE AM2ATE Knight Seahorse; CRE AM2ATE Queen Snow Lotus; Callicos CellAwake Mask peptide; Camellia Air Cushion 21 SPF50 PA; Camellia Air Cushion 22 SPF50 PA; Camellia CC Cream 21 SPF45 PA; Camellia CC Cream 22 SPF45 PA; Camellia Calming Sleeping Mask; Camellia Cooling CC 21 SPF50 PA; Camellia Cooling CC 22 SPF50 PA; Camellia Vital Dual Serum; Camellia Wrinkle Free Eye; Capture Collagen Ampoule; Capture Hyaluronic Ampoule; Caviall Perfect Repair Serum; Caviall Real Caviar Multi-perfection O2 Serum; Caviallcrystal; Cell Power; Cell Power Day; Cell Power Essence; Cell Power Essential Skin; Cell Power Eye; Cell Power Night; CellExosome HE SR; CellExosome ST; CellStin Ampoule Black; CellStin Micro Ampoule White; Cellbn Blemish Spotcream and Black Spotpatch; Cellbn Damage Anti-aging Eye Reviver; Cellbn Damage Deep Moisture; Cellbn Damage Multi Action Toner; Cellbn Damage Overnight Recovery; Cellbn Damage Precious Serum; Cellbn Sp High Multi Serum; Cellbn Sp Lifting Concentrateampoul; Cellbn Sp Lifting Concentrateampoule; Cellmov Cell Line Mask; Cellpedia Atadia; Cellxv Real Kelp Facial Mask; Celonia Bio Home Solution Concentrated Skin Booster Rejuvenation; Celonia Signature Bio; Celonia Signature Bio Ampoule; Celonia Signature Bio Essence Toner; Celonia Signature Bio Eye; Celonia Signature Bio Serum; Celonia Signature Bio Sheet Mask; Centella 70; Centella 80 Eye; Centella 90 Ampoule; Centella Reviving Toner; Centella and Green Tea Callus Mask; Collagen Dream 50 All Face Eye; Congju Princess Eye and Neck; Congju Princess Lifting Mask Sheet; Conju Princess BB; Cosmepure Derma Revital; Cosmepure Derma Revital Toner; Cosmepure Dual Repair Ampoule; Cosmepure Dual Repair Serum; Coxir Intensive Egf Peptide; Coxir Intensive Egf Peptide Mask Pack; Coxir Intensive Egf Peptide Serum; Coxir Intensive Egf Peptide Toner; D-one By Tamdoan Bb Light; D-one By Tamdoan Bb Medium; D-one By Tamdoan Sunscreen 50; DCS Super Aqua Mask; DCS Ultra Nutrition Mask; DIAPIA ADL Evercure Ampoule Toner; DIAPIA ADL EvercureCream; DIAPIA CICA Relief Pore Pad; DIAPIA Glow D CICA Wrapping Mask; DPC Dual Master Vitamin C; DPC Noblesse Suta Eye; DPC Skin Up Perfection; DR DEEP AQUA WRINKLEcream; DRH Whitening G2; Dal Miomio Mask; Daryomi Stemcell Lift Eye Premium; Dcs Merderm Jeju Lava Seawater; Dcs Merderm Jeju Lava Seawater Ampoule; Dcs Merderm Jeju Lava Seawater Eye; Dcs Merderm Jeju Lava Seawater Toner; Deepair Micro Intensive Magic; Derladie Witch Hazel Perfect Vitamin Gelcream; Derladie Witch Hazel Perfect Vitamin Serum; Derma 7 Repaircream; Derma Blemish Balm blemish balm; Derma Eaude Glatok Cream; Derma Hydration Boosting; Derma Peptide Anti-wrinkle; Derma Peptide Anti-wrinkle Ampoule; Derma Skincream; Dermafrom Lacto Green Ampoule; Dermafrom Multi Vitamin Ampoule; Dermahan Whitening Perfectcream; Dermall Matrix Eye zone Dermal care Mask; Dermall Matrix Facial Dermal care Mask; Dermall Matrix Neck Dermal care Mask; Dermall Matrix Quick Vitalizing; Dermall Matrix Stratum Basale Restoring; Diapia Adl Ever-cure Serum; Diapia Adl Ever-curecream; DoctorsLab Returning Platinum Mask; DoctorsLab Returning Platinum Neck; Dpc Collagen Booster Mask; Dr COSIGN CCE Intensive Regenerating; Dr COSIGN CCE Premium Repair; Dr COSIGN CCE Soothing Recovery Serum; Dr G deWrinkle BOOSTER ample by EGF; Dr G deWrinkle FORTIFIER by EGF; Dr G deWrinkle REFORMER by EGF; Dr JmeeLab Double Complex Black Mask; Dr JmeeLab Double Complex Smile Zone; Dr. Althea Pore-Control Charcoal Mask; Dr. Althea Water Glow Aqua Ampoule Mask; Dr. Gloderm Tabrx Liftup; Dr. Gloderm Tabrx Liftup Mask; Dr. Gloderm Tabrx Wrinkletox; Dr. Gloderm Tabrx Wrinkletox Mask; Dr. Gloderm Time To Liftup Mask; Dr. Gloderm Time To Wrinkletox Mask; Dr. Pepti CENTELLA TONER; Dr. Pepti INTENSIVE; Dr.Different 131 Moisturizer; Dr.Different CEQ Anti Oxidant Serum; Dr.Different VITALIFT A; Dr.Different VITALIFT A Eye and Neck; Dr.Different VITALIFT A Forte; Dr.G Brightening Up Cushion SPF50 Plus PA Plus Plus Plus; Dr.Jucre Rebirth White; Dr.Jucre Rebirth White BB; Dr.Jucre Rebirth White Eye; Dr.Jucre Rebirth White Sun Protection; Dr.NUELL Vanishing BB; Dr.NUELL Water Full Skin Barrier Losesnce; Dr.althea Aurora Cover Cushion 21; Dr.eslee Triple Action BB; Dr.plinus Fillincell Multi; Dr.plinus Fillincell Multi EX; Drh T Stem Cell; EASYDEW DW EGF Derma Oneshot Ampoule; ELCURE AOUT Rose; EXODERMA Inner Fill Cream; EXODERMA Multi-stick Balm; EXODERMA Real Cover BB Cream; EXODERMA Regenerating Serum; EXODERMA Silky Sun Cream; EXODERMA Verde Exilica Lifting Mask; EXODERMA Waterfall Booster; Easydew EX Repair Control Active Soothing Serum; Easydew EX Repair Control Renewal Moisture; Edge Cutimal Tiger Anti-Wrinkle Mask; Elcure Q Serum; ElishaCoy Skin Refining Snail; Emmune Perfect; Emmune Repair; Energy Boosting Toner; FOASU Pink Y s Collagen Moisturizing Mask; FOASU Pink Y s MOISTURIZING MIST; FOASU Pink Y s RecoveryCream; Fill Me Micro Needle; First C Superfull; First C Waterfall; Foasu Jin Moisturizing Essence; Forestheal Eye; Forestheal Vitamin C Moisturizer; Forestheal Vitamin C Serum; Forestheal Witch Hazel Facial Toner; Frudia Pomegranate Nutri Moisturizing Mask; Frudia Pomegranate Nutri Moisturizing Serum; Frudia Pomegranate Nutri Moisturizing Toner; GALACTOMYCES 80 Contouring EYE; GD11 Rx SCM S; GINSENG ROYAL SILK AMPOULE 17mL 4ea; Galactomyces 70; Galactomyces 90 Ampoule; Galactomyces 95 Whitening Power Essence; Galactomyces First Essence; Galactomyces Radiance Toner; Galactomyces and Rice Callus Mask; Gd11 Advanced Lab Energy Ampoule; Ggulba Mask; Ginseng; Ginseng Berry 80 Eye Essence; Ginseng Berry 80 Overnight Mask; Ginseng Berry and Ginseng Callus Mask; Ginseng Royal Silk 120ml; Ginseng Royal Silk Boosting Ampoule; Ginseng Royal Silk Cap Sule Essence; Ginseng Royal Silk Eye 25ml; Ginseng Royal Silk Gold Hydroge L Mask; Ginseng Royal Silk Gold Hydroge L Mask 10p; Ginseng Royal Silk Gold Hydroge L Mask 5p; Ginseng Royal Silk Toner 120ml; Ginseng Royal Silk Watery 60g; Ginseng Royal Silk Wrinkle Up Spot; Green Propolis 90 Ampoule; Green Tea Eye Ge l; Green Tea Eye Ge l 1.4g; H ALPHA 30 Skin; HERB BLENDING ESSENCE 100mL; HERBAL IRON Enriched Moisture; HERBAL IRON Enriched Moisture Skin Toner; Hanskin Bio Origin The; Hanskin Real Complexion Cre Am EX; Hanskin Super Three Solu Tion Aqua Firming Sheet Mask; Hanskin Vistra toner mask pad; Hanskin Vstra toning water radiance; Hello Care Anti-wrinkle Ampoule Mask; Hello Care Moisturizing Ampoule Mask; Hello Care Pore and Sebum Ampoule Mask; Hello Care Whitening Ampoule Mask; Herb Blending; Herb Blending Essence; Herb Blending Toner; Herbal Iron Brilliant Performance for Brightening and Wrinkle Free; Hi Hanji; Honesi exofila; Honesi exofila crea m; Hyalu Plus Up Mask; Hydra Balancing Rose Water; Hydra Extra ConcentrateSerum; Hydra Moisture Day and Night; Hydrating All in one glow concentate ampoule; Hydro Multi-shield; HydroGold 9; IASO A5 Super Brightening Formula; IASO Pregressive Age Care Eye; IASO Triple Protection BB SPF 30 PA; IASO progressive age care; IASO progressive age care emulsion; IASO progressive age care serum; IASO progressive age care toner; INCELLDERM Cocktail Aqua BB; INCELLDERM Daily Aqua BB; INCELLDERM Vallatto Oi l Mist; INNER SAVE Feminine Cleansing Mist; INTOMEDI Amplance Hydro; INTOMEDI Amplance HydroCream; Ideal Tone Up Glow Bb; Incellderm 4d Lustre Cushion; Incellderm Active; Incellderm Active Creamex; Incellderm Dermatology Booster; Incellderm Dermatology Booster EX; Incellderm Dermatology First Package; Incellderm Dermatology Serum; Incellderm Dermatology Serum EX; Incellderm Vallatto Oilmist; Incellderm Vieton Oilmist; Intensive Bubble Essence; Intensive Inner Fill; Intomedi First Ampoule Egf; Intomedi First Ampoule Placenta; JAUNKYEOL AC Spot Treatment Balm; JAYJUN GOLD SNOW BLACK MASK 25mL; JEJUEN Aloe Soothing Extreme Micro Silky Mask; JEJUEN Camellia Wrinkle Care Extreme Micro Silky Mask; JEJUEN Hyaluron Waterful Extreme Micro Silky Mask; JEJUEN Rape Flower Shining Extreme Micro Silky Mask; JEJUEN Volcanic Pore Zero Extreme Micro Silky Mask; JEVEHEAL A Ampoule; JUVEHEAL A Ampoule; JUVEHEAL B Ampoule; JUVEHEAL Hydro Synergy Balancing LHA Toner; JUVEHEAL Hydro Synergy Intensive Serum; JUVEHEAL Hydro Synergy Liposome Barrier; Jayjun Collagen Skin Fit Mask Step 01 Hyaluronic Acid Essence; Jayjun Collagen Skin Fit Mask Step 02 Collagen Skin Fit Mask; Jayjun Collagen Skin Fit Mask Step 02 Plant Stem Cell Mask; Jayjun Gold Snow Time Solu Tion Eye; Jayjun Honey Dew Green Mask; Jayjun Honey Dew Purple Mask; Jayjun Honey Dew Red Mask; Jayjun Intensive Shining Eye; Jayjun New Real Water Brightening Black Mask Step 03 New Real Water Brightening Black Mask; Jayjun Real Water Brightening Black; Jayjun Real Water Brightening Black Mask Step 02 Vita Snow Essence; Jayjun Real Water Brightening Black Mask Step 03 Real Water Brightening Black Mask; Jayjun Real Water Brightening Black Mask Step2 Jayjun Vita Snow Essence; Jayjun Real Water Brightening Black Mask Step3 Real Water Brightening Black Mask; Jayjun Real Water Brightening Black Sleeping Pack; Jdew Green Moist; Jdew Green Moist Toner; Jdew Homme All for You Aqua Marine All In One; Jeju Lava Sea Water All Day Brightening Mask; Jejuen Black Bean Ferment; Jejuen Black Bean Ferment Toner; Jeunesseng Eye Bag Removal; LANBELLE Hydrating Duo Serum; LOVELY GERANIUM AROMATHERAPY MASK 30g; Laonmedi Premium Rose Mask; Lapcos Suntiaging Eye Zone Cooling Golf Pat Ch S; Laser Rejuvenation restoring damage skin; Lebody Bu W Renewal Up; Lebody Lab Renewal Dual Effect 24k Gold Serum; Lebody Lab Renewal Dual Effect Btx Collagen Serum; Lecinq Prebenone Serum; Limulus Bio Cellulose Mask; Limulus Deep Sea Moisture; Limulus Nourishing; Limulus The 1 and Only; Lip And Hand Camellia; Lip And Hand Shea Butter; Lip And Hand Wild Rose; Lizk Serum; Lob20 Cellpedia Atadia Ampoule; Logically skiin Multi-liftingCream; Logically skin Liftderm HandCream; Logically skin Multi-liftingCream; Logically skin PROFESSIONAL SUN BLOCK SPF50 PA; Logically skin Wrinkle Target EyeCream; Lohasys Mayu Ultra Moisture; Lohasys Mayu Ultra Moisture Care; Lohasys Mayu Ultra Moisture Care Hand; Lohasys Mayu Ultra Moisture Care Toner; Lovely Geranium Aromatherapy Mask; LuBi AMPOULE; Lupium Moisture Tone Up Sun Serum; Lupium Moisture Water Sun Serum; MEDIKOii Bio Active Vital Shot Ampoule; MEDIKOii Bio Active Vital Shot Ampoule Starter Kit; MEDIKOii Bio Calming Relief Toner; MEDIKOii Bio Repair CICA; MEDIUS Heart Ppyoung Ppyoung Eye; MIOGGI Healing Effector RX Collagenic; MIOGGI Magic Advanced Skin Essential Activator; MIRACLETOX EXCLUSIVE Vita9 Collagen Serum; MIRACLETOX Time Rewind Advanced Essential Toner; MIRACLETOX Time Rewind Advanced Feel; MIRACLETOX Time Rewind Advanced Lifting Ampoule; MIRACLETOX Time Rewind Advanced Lifting Ampoule 40mL; MIRACLETOX Time Rewind Advanced Mask; MIRACLETOX Time Rewind Advanced Meso Tox; MIRACLETOX Time Rewind Advanced TOX Ampoule; MIRACLETOX Time Rewind Beyond Feel; MIRACLETOX Time Rewind Beyond Mask; MIRACLETOX Time Rewind Beyond TOX Ampoule; MIRACLETOX Time Rewind Beyond home care program; MIRACLETOX Time Rewind Perfection Feel; MIRACLETOX Time Rewind Perfection Mask; MIRACLETOX Time Rewind Perfection TOX Ampoule; MIRACLETOX Time Rewind Perfection VIP Program; MISSHA Time Revolution Immortal Youth Blue Essence; MISSHA Time Revolution Night Repair Science Activator Ampoule; MISSHA Time Revolution The First Treatment Essence Intensive; MISSHA Time Revolution The First Treatment Essence Mask; MISSHA Time Revolution Vitality Eye Cream; MU LAB TURN AROUND 2W Refresh Ex; MULBIT Aqua Mask Pack; MULBIT Collagen Mask Pack; MULBIT Donkey Milk Mask; MULBIT Donkey Milk Moisturizing; MULBIT Firming Mask Pack; MULBIT Hydro Special Ample; Madeca Derma Intensive Vital Crea m; Madeca Derma Time Reverse Vitalizing Night Mask; Madeca Derma Ultra Moisture Hydroge l Mask; Madeca Rejuvenating Calming Serum; Mamachi Moms Stretch Mark Cream; Manefit Beauty Planner Blackberry Firming Eye Mask; Manefit Beauty Planner Lavender Wrinkle Lifting Mask; Maxclinic Cirmage Lifting; Maxclinic Deep and Deeper Meso Change Ampoule; Maxclinic Miraclinic Contour Ing Object; Medi Hydro DP B Tox Ampoule; Medi Hydro DP BB Cream; Medi Hydro DP Cream; Medi Hydro DP Emulsion; Medi Hydro DP Stem C Ampoule; Medi Hydro DP Toner; Medi Hydro DP Vita C Ampoule; Medi Hydro Dp B Tox Ampoule; Medi Peel Centella Mezzo; Medi Peel Luxury 24k Gold Ampoule; Medi Peel Tranex Mela X; Medi Peel Tranex Toning9 Essence Dual; Medi SM 24K Gold Hydrogel Peptide Mask Pack; Medipeel Tranex Toning9 Essential Mask; Mefactory 3Step Piggy Nose Pore Strip Step 01 Pore Opening Sheet; Miesoo Perfect Pure Seed; Miesoo Perfect Pure Seed Cycling Ampoule; Miesoo Perfect Pure Seed Essence; Miesoo Perfect Pure Seed Toner; Milky Peel Mask; Mimisoon; Missha Time Revolution Night Repair New Science Activator Ampoule Mask; Missha Time Revolution Vitality Serum; Mizon All In One Snail Repair Crea M; Mizon Black Snail All In One Crea M; Mizon Collagen Power Firming Enriched Crea M; Mizon Collagen Power Firming Eye Crea M; Mizon Hyaluronic Acid 100; Mizon Peptide 500; Mizon Peptide Ampoule Crea M; Mizon Snail Recovery Ge L Crea M; Mizon Snail Repair Eye Crea M; Mizon Snail Repair Intensive Ampoule; Mizon Snail Repair Intensive Essence; Mizon Snail Repair Intensive Gold Eye Ge L; Mizon Snail Repair Intensive Toner; Moistie Cell Plus; Moistie Fill Plus; Moistie Tok Plus; Moisture Bound; Moringa Purify Water; Mulbit Me Firming Sleeping Pack; Mulbit Medist; Multi Function Sleeping Pack; Mustus Daily Harvest Squeeze Lift Up Mask Pack; Mustus Noni Ampoule; NEWSTEM Rx IPL VITA C Energy Ampoule; NEWSTEM Rx PENELLAGEN Deep Lifting Essence; NGF37 hUCB BOOST; NMC Magic Serum; NMC Staypot double programing cream; Natural Sun AQ Total Anti-aging Essence Sun; Neogen Agecure 3d Lifting Compression Span Tex Mask; Neogen Agecure 3d Lifting Wrinkle Neck Mask; Neogen Agecure One Minute Wrinkle Rx; Neogen Code 9 Black Volume; Neogen Code9 Gold Black Caviar Essence; Neogen Code9 Lemon Green Caviar Essence; Neogen Dermalogy H2 Dermadeca Serum; Neogen Dermalogy Pink Cactus Liftmax Knit Mask; Neogen Dermalogy White Truffle Hydramax Knit Mask; Neogen Dermalogy White Truffle Serum In Oi L Drop; Ninetails Advanced Line Lift Serum; Ninetails Double Drop Ampoule; Ninetails Neck Decolte Smoother; Ninetails Radiance Lift Sheet Mask; Ninetails Rebalancing Toner; Niveola 3d Animal Cat Mask Pack; Niveola 3d Animal Dog Mask Pack; NoTS Li p Shimmer Gloss; NoTS Special Collagen Real Skin Mask; Oattbe Syn Bio beta Glucans Brightening Calming; Oattbe Syn Bio beta Glucans Serum; Ohui Black Serum; Oozoo Face Ampoule Alpha One Hydro Lift; Oozoo Face Ampoule Alpha One Nutrient; Oozoo Face Mask Alpha One Hydro Lift; Oozoo Face Mask Alpha One Illumination Ampoule; Oozoo Face Mask Alpha One Illumination Mask; Oozoo Face Mask Alpha One Illumination Serum; Oozoo Face Mask Alpha One Nutirient; Oozoo Face Serum Alpha One Hydro Lift; Oozoo Face Serum Alpha One Nutrient; Organic night repair ampoule; Orgaplus Rich Yet Light Weight Mask Extra; Orgaplus Rich Yet Light Weight Serum Extra; P1P Chitosan V-mask; P1P Magic Whitening Antiaging; P1P Skin Rebirth Cream; PMS-adenosine; Pahaba Solution; Pahaba Solution 4.0; Papa Recipe Eggplant Clearing; Peony Acmella Antioxidant Serum; Pepplus Wrinkle Eye; Peptide Up Volume Essence; Peptide Volume Essence Premium; Peptide no sebum Repair; Perfect V Lifting Premium Mask; Petit Cochon Tone Up Pre Shower; Ph.Hubby 1g Sun Cream Intensive Protection; Ph.Hubby Beige BB Tone Up Sun; Ph.Hubby Pink BB Tone Up Sun; Plalab Placenta Ample Essence; Plalab Placenta Mask; Plalab Placenta R-20; Plalab Placenta Skin Booster; Plan36.5 Tranex 11 Plus; Premium Dr. Althea Power Whitening Glutathione Mask; Premium Dr. Althea Water Glow Skin Renewal Hydrogel Mask; Prestige Caviar Full Intensive Vitality Toner; Prestige Caviar Super Aqua Serum; Prestige Shiny Gold; Prestige Snail Repairing; Prestige Snail Repairing Ampoule; Prestige Snail Repairing Booster; Primerose Double Effect Eye; Primerose Egf; Primerose Snail; Primerose White Milky Cb; Propolis 20 BB Cream; Propolis 27 Cover Cushion; Propolis 50 Volume Mist; Propolis 80; Propolis 80 Sleeping Pack; Propolis 90 Ampoule; Propolis Repair Mask; Propolis Softening Toner; Propolis and Rose Callus Mask; Protecting Natural Shine Tone Up Sun Cushion; Protecting Natural Shine Tone Up Sun Cushion Refill; Protecting Natural Shine Tone Up Sun Cushion Refull; Protective Base Sun for Dry Skin; Protective Base Sun for Oily Skin; Pure C Serum; Pure Cell Therapy; Purifying Relief Soothing Gel Essence; Purifying Skin Balancecream; Purifying Skin Balancing; PurpleU BAOBAB REJUVENATING AMPOULE; PurpleU GLOW BEAUTIFULLY BRIGHT; PurpleU GLOW TONE IT LIKE SNOW; Queen Purecell Whitening 3-step Mask; Queens Rose Recovery; Queens Rose Recovery Eye; Queens Rose Recovery Toner; Qwg-1000; R2B Wrinkle cure Cream; RETURN10 Derma Cell Repair Ampoule; ROA Cytomedy Cell Pure 2500 Ampoule; ROSELLE TEA EYE GE L 1.4g; RUBELLI Black Pearl Mask; RUBELLI WATER GLOW ESSENCE 80mL; Ra Sence Loe Cure Solu tion Aloe Mask; Re Cell Cure Ampoule; Recovery Balm; Red Ginseng Brightening Mask Pack; Red Ginseng Vitalizing Hydrog El Mask; Renardblanc Multilayer Mask; Renew Peeling Pad; Rep Nutrinature Ultra Nourishing; Return 10 MTSSOLUTION; Return 10 Recovery Balm; Return 10 TIME LOCK PROGRAM; Rgo Nutriment Rich Mask; Rgo Tension Up Serum; Rgo Tension Upcream; Rose Edition Mask Sheet; Rose Oasis 50 Moisture Bomb; Rose Oasis 70 Cream; Rose Oasis 80 Ampoule; Roselle Tea Eye Ge L; Round Around Repairing Active Serum; Rubelli Beauty Face Premium; Rubelli Toe Socks Foot Pack; Rubelli Water Glow Essence; Ruby Cell 4u; Ruby Cell 4u Ampoule; Ruby Cell 4u Ampoule Premium; S ALPHA 30 Skin; SKINMD LABORATORIES ReviTox blue; SOROCI Morning Calming; SOROCI Morning Drizzle Calming; Saffron Edition Mask Sheet; Sallys Box Gold Snail Hydrogel Mask; Seamoms Tamanu Oil Mist; Seanol Facial Treatment Mask; Secret Key Thanakha Mild SunCream SPF47 PA PLUS PLUS PLUS; Seolheun Ginseng Nature Cream; Seolheun Ginseng Nature Essence; Seolheun Ginseng Water Ampoule Skin; Seolheun Refresh F5 Mask Pack; Sferangs Collagen Recharging; Sferangs Collagen Recharging Serum; Sferangs Collagen Recharging Toner; Sferangs Collagen Rechargingcream; Sferangs Collagen Synergy Ampoule; Sheza Gusl Firming Mask Pack; Shieldlife Collagen Ion Mask; Siseundeusi Luminant; Siseundeusi Luminant Essence; Siseundeusi Luminant Skin Toner; Skin-ion; Skin79 Snail Nutrition Bbcream; Skinfood Gold Caviar Collagen Serum; Skinfood Gold Caviar Serum; Skinfood Miracle Food 10 Solu Tion; Skinfood Miracle Food 10 Solu Tion 1ml; Skinfood Real Tea Ge L Mask Chamomile; Skinfood Real Tea Ge L Mask Lavender; Skinfood Real Tea Ge L Mask Rose; Skinfood Royal Honey Essential Eye; Skinfood Royal Honey Essential Eye Individual Sample; Skinmd Laboratories Pure Whitenol Intensive; Skinmd Labratories Day and Night Brightening; Smart Recovery; Smart Recovery Firming Eye; Smart Recovery Firming Serum; Smart Recovery Hydrating Toner; Snail Skin Booster; Snail Solu Tion Skin Booster; Snail Solu Tion Wrinkle Up Spot; Snow Milk Sheet Mask Light; Snow Milk Sheet Mask Normal; Snow Milk Sheet Mask Rich; Sollume Esthe Repair Serum; SoonReborn Repair; SoonReborn Repair Essence; Spring Campus Hydrogel Mask; Spring Campus Skin Base; Stem Cell Hmsc Cell Rejuvenation-ampoule; Stem Cell Renew; Stem Cell Wrinkle Serum; Stop-aging Peptide; Stop-aging Peptide Essence; Stop-aging Peptide Eye; Stop-aging Peptide Toner; Subuni Breast Pack; Sulfur; Super Amazing Revolution For Eye; Super Amazing Revolution For Face; Super Amazing Revolution For MultiLotion; Super Amazing Revolution For Secret; Super Amazing Revolution For The Youth Ampoule; Super First C Serum Pure Vitamin C 13 Percent; Super Plus Beblesh Balm Triple Functions SPF50 Plus PA 3Plus (40g); SuperPlus Beblesh Balm Gold SPF25 PA 2Plus; SuperPlus Beblesh Balm SPF25 PA 2Plus; SuperPlus Beblesh Balm Triple Functions SPF25 PA 2Plus; TAEYANGSOO PLAVITAL EYE ALLCream; TAEYANGSOO Plavital Essence; TAEYANGSOO Plavital Eye For AllCream 17; TAEYANGSOO Plavital RxCream; TAEYANGSOO PlavitalEmulsion; TAMHADA Synergy Anti Wrinkle Face And Neck Mask; THE SKIN HOUSE ROSE HeavenEmulsion; THE SKIN HOUSE Rose HeavenCream; THE SKIN HOUSE Wrinkle Collagen Toner; THE SKIN HOUSE Wrinkle CollagenEmulsion; THE SKIN HOUSE Wrinkle Snail SystemCream; THE SKIN HOUSE Wrinkle System Essence; THE SKIN HOUSE Wrinkle System EyeCream; THE SKIN HOUSE Wrinkle SystemCream; Taeyangsoo Plavital Serum; Tangerine Bright Sleeping Mask; Tenue 24k gold ampoule; Tenue Whitenning Tone upCream; Teradia Diamond Intensive Hydrogel Eye; Teradia Diamond Water Mask; Teradia Milk Skin Creampad; Thanks 12 Rich Caviar Mask; Thanks 12 Rich Caviar Mist; The All Medicare V PLA Synergy Anti Wrinkle Face And Neck Mask; The Barafu Intensive Serum; The Classeum Co., Ltd.; The Fact Natural SFN 18 Skin Toner; The Fact Natural SPN18 - The JuniorCream; The Fact Natural SPN18 - The SeniorCream; The Fact-SFN BRIGHTENING ANTI-WRINKLE; The Oozoo Face Energy Shot Premium Black Ampoule1; The Oozoo Face Energy Shot Premium Black Ampoule2; The Oozoo Face Energy Shot Premium Black Mask; The Oozoo Face Gold Foilayer Mask; The Oozoo Face Silver Foilayer Mask; The Oozoo Lightening Cap Sule Activator; The Oozoo Lightening Mask; The Oozoo Oozoo Bear Aurora Illuminating Ampoule; The Oozoo Oozoo Bear Aurora Illuminating Mask; The Oozoo Oozoo Bear Black Space Pore Caring Ampoule; The Oozoo Oozoo Bear Black Space Pore Caring Mask; The Oozoo Oozoo Bear Water Bang Hydrating Ampoule; The Oozoo Oozoo Bear Water Bang Hydrating Mask; The Oozoo Recovery Cap Sule Activator; The Oozoo Recovery Mask; The Oriental Gold BB SPF25 PA 2Plus; The Prestige BB SPF25 PA 2Plus; The Real Glow Lifting Mask; The Rose; The Saffron; The Skin House Rose Heaven; The Skin House Rose Heaven Serum; The Skin House Wrinkle Collagen; The Skin House Wrinkle Collagen Ampoule; The Skinhouse Black Snail Wrinkle; The Skinhouse Green Tea Collagen; The Skinhouse Real Snail Wrinkle Free; The Skinhouse Vita Snail First Essense; The Skinhouse Wrinkle Collagen; The Skinhouse Wrinkle Collagen Free Spot; The Skinhouse Wrinkle Eye Plus; Time Return Melatonin; Tissen ICM 10; Tissen NF 10; Too im Cell ALL IN ONE; Tosowoong Mens Booster Repair; Triple Crown Cordyceps Super Essence Mask; U-max Wrinkle Serum; Ultimate Moisturizing Honey Overnight Mask; Ultra MassageCream; Ultra V IDEBANONE; Ultra V IDEBENONE AMPOULE; Ultra V IDEBENONE NUTRITIONAL; Uniwell Natural; Uniwell Natural Toner; VECLAT OU C.GNATURE 3 Lighty Blending Ampoule; VECLAT OU C.GNATURE 3 Power Radiant Face Mask; VIRGIN GRACE Hyalu Plus Serum; Varecell Intensive Liposome Booster; Varecell Intensive Liposome DoubleCream; Vita Snail; Vita Solu Tion Mask; Vita Volu 101 Essence; Vita Volu Volume Booster; Vitabrid C12 FACE 4g; Vitabrid C12 FACE BRIGHTENING; Vitabrid C12 FACE Pow der 2g; Vitabrid C12 FACE Pow der 3g; Vitabrid C12 SENSITIVE Spot Pow der Serum; Viva; Volcanic Grape Callus Mask; Volcanic Homme; Volcanic Homme All in One Essence; Volcanic Homme Toner; Volcanic Pore Eraser Ampoule; Voye Fresh Up Amazing Recovery Mask V Stemcell Recovery Ampule; Voye Fresh Up Perfect Moisture Mask V Hyaluron Moisture Ampule; Voye Fresh Up Real Lifting Mask V Tox Lifting Ampule; W.skin A.m; W.skin Cica Plus Repair; W.skin Natural Fermented Grain Mask Sheet; Waterful Essence Sun; We Sell Hope EGF ESSENCE; Wellage Deep Layer Fresh Moisture; Wellage Fresh Water Essence Mist; Wf Face Fitness Btx Collagen Soothing; White Lie; White truffle Anti Wrinkle; White truffle Whitening; Wisderma Most Moist Bio Ampoule; Wonder Intensive BBCream 21 (Light); Xoul Cell Illuminating 3 Step Mask; Xoul secret solution cream mask; Xycos Pink Collagen; Xycos Pink Collagen Serum; Xycos Pink Collagen Toner; Xycos Pink Collagencream; Yenaan Jinaek; Yenaan Jinaek Essence; Yenaan Jinaek Eye; Yenaan Jinaek Toner; Yoma Ampoule Plus Aloe Mask Pack; Yoma Ampoule Plus Collagen Mask Pack; Yoma Ampoule Plus Ginseng Mask Pack; Yoma Ampoule Plus Snail Mask Pack; Yoma Ampoule Plus White Peal Mask Pack; Youngcellogy Aios Ampoule; by Selected Recovering Almighty; by Selected Repair Vitality; derma J PEPTASTIN INTENSIVE; derma J PEPTASTIN SOOTHING GEL MASK; do good Deep Aqua Treatment Toner; do good Perfecting Aqua Ge l Moisturizer; do good Perfecting Aqua Mask; do good Perfecting Aqua Mask 5ea; do good Pure Repair Centella; do good Pure Repair Centella Essence; misoli Power Snail and Collagen Hydrog el Mask Pack; reFACE TOX AMPULE; rep Nutrinature Ultra All in One Multitem; rep Nutrinature Ultra Moist Ge l; rep Nutrinature Ultra Moist Gel Oil; rep Nutrinature Ultra Nourishing Cream; rep Nutrinature Ultra-All-Night Moisture Relief Mask; rootree Golden Tree Prestige Empress; rootree Golden Tree Royal Resplendent Serum; rootree Mobitherapy Age Defy Eye; rootree Mobitherapy Age Returning; rootree Mobitherapy Repair Serum; rootree Treetherapy CRYPTOMERIA TREE Facial Mask; rootree Treetherapy NUTMEG TREE Facial Mask; rootree Treetherapy Rejuvenating Eye and Neck Treatment

> <INTERNATIONAL_BRANDS>
Adenocor; Adenoject; Adenoz; Adenozer; Adesin; Adrekar; Atépadène; Cardimax; Cardiovert; Krenosin; Osiden; Pisdeno

$$$$
