642
  Mrv0541 02241213152D          

 37 42  0  0  0  0            999 V2000
    1.5540   -4.4006    0.0000 C   0  0  2  0  0  0  0  0  0  0  0  0
    0.8003   -4.0650    0.0000 C   0  0  2  0  0  0  0  0  0  0  0  0
    0.8865   -4.8855    0.0000 C   0  0  0  0  0  0  0  0  0  0  0  0
    2.3744   -4.3143    0.0000 C   0  0  0  0  0  0  0  0  0  0  0  0
    2.8594   -4.9818    0.0000 O   0  0  0  0  0  0  0  0  0  0  0  0
    2.7100   -3.5607    0.0000 O   0  0  0  0  0  0  0  0  0  0  0  0
   -0.0247   -4.0650    0.0000 C   0  0  0  0  0  0  0  0  0  0  0  0
   -0.2797   -3.2804    0.0000 N   0  0  0  0  0  0  0  0  0  0  0  0
   -0.5096   -4.7325    0.0000 O   0  0  0  0  0  0  0  0  0  0  0  0
    0.3878   -2.7955    0.0000 C   0  0  1  0  0  0  0  0  0  0  0  0
    1.0552   -3.2804    0.0000 C   0  0  0  0  0  0  0  0  0  0  0  0
    0.3878   -1.9705    0.0000 C   0  0  0  0  0  0  0  0  0  0  0  0
    1.1023   -1.5580    0.0000 C   0  0  0  0  0  0  0  0  0  0  0  0
    1.1023   -0.7330    0.0000 C   0  0  0  0  0  0  0  0  0  0  0  0
    0.3878   -0.3205    0.0000 C   0  0  0  0  0  0  0  0  0  0  0  0
   -0.3267   -0.7330    0.0000 C   0  0  0  0  0  0  0  0  0  0  0  0
   -0.3267   -1.5580    0.0000 C   0  0  0  0  0  0  0  0  0  0  0  0
    0.3878    0.5045    0.0000 O   0  0  0  0  0  0  0  0  0  0  0  0
   -0.3267    0.9170    0.0000 C   0  0  0  0  0  0  0  0  0  0  0  0
   -0.3267    1.7420    0.0000 C   0  0  0  0  0  0  0  0  0  0  0  0
   -0.3267    3.3920    0.0000 N   0  0  0  0  0  0  0  0  0  0  0  0
   -1.0412    2.9795    0.0000 C   0  0  0  0  0  0  0  0  0  0  0  0
   -1.0412    2.1545    0.0000 C   0  0  0  0  0  0  0  0  0  0  0  0
    0.3878    2.9795    0.0000 C   0  0  0  0  0  0  0  0  0  0  0  0
    0.3878    2.1545    0.0000 C   0  0  0  0  0  0  0  0  0  0  0  0
    1.1023    1.7420    0.0000 C   0  0  0  0  0  0  0  0  0  0  0  0
    1.8167    2.1545    0.0000 C   0  0  0  0  0  0  0  0  0  0  0  0
    1.8167    2.9795    0.0000 C   0  0  0  0  0  0  0  0  0  0  0  0
    1.1023    3.3920    0.0000 C   0  0  0  0  0  0  0  0  0  0  0  0
   -1.7556    3.3920    0.0000 C   0  0  0  0  0  0  0  0  0  0  0  0
   -1.7556    4.2170    0.0000 C   0  0  0  0  0  0  0  0  0  0  0  0
   -2.4701    4.6295    0.0000 C   0  0  0  0  0  0  0  0  0  0  0  0
   -3.1846    4.2170    0.0000 C   0  0  0  0  0  0  0  0  0  0  0  0
   -3.1846    3.3920    0.0000 C   0  0  0  0  0  0  0  0  0  0  0  0
   -2.4701    2.9795    0.0000 C   0  0  0  0  0  0  0  0  0  0  0  0
    1.6453   -3.8238    0.0000 H   0  0  0  0  0  0  0  0  0  0  0  0
   -0.1325   -2.5304    0.0000 H   0  0  0  0  0  0  0  0  0  0  0  0
  1  4  1  1  0  0  0
  1 36  1  6  0  0  0
  2  1  1  0  0  0  0
  2  7  1  0  0  0  0
  2 11  1  1  0  0  0
  3  1  1  0  0  0  0
  3  2  1  0  0  0  0
  4  6  1  0  0  0  0
  5  4  2  0  0  0  0
  7  8  1  0  0  0  0
  8 10  1  0  0  0  0
  9  7  2  0  0  0  0
 10 12  1  6  0  0  0
 10 37  1  1  0  0  0
 11 10  1  0  0  0  0
 12 17  2  0  0  0  0
 12 13  1  0  0  0  0
 13 14  2  0  0  0  0
 14 15  1  0  0  0  0
 15 18  1  0  0  0  0
 16 15  2  0  0  0  0
 17 16  1  0  0  0  0
 18 19  1  0  0  0  0
 19 20  1  0  0  0  0
 20 25  1  0  0  0  0
 21 24  1  0  0  0  0
 22 21  2  0  0  0  0
 23 20  2  0  0  0  0
 23 22  1  0  0  0  0
 24 29  1  0  0  0  0
 25 24  2  0  0  0  0
 25 26  1  0  0  0  0
 26 27  2  0  0  0  0
 27 28  1  0  0  0  0
 29 28  2  0  0  0  0
 30 22  1  0  0  0  0
 31 30  1  0  0  0  0
 32 31  2  0  0  0  0
 33 32  1  0  0  0  0
 34 33  2  0  0  0  0
 34 35  1  0  0  0  0
 35 30  2  0  0  0  0
M  END
> <DATABASE_ID>
DB07189

> <DATABASE_NAME>
drugbank

> <SMILES>
[H][C@@]1(C[C@@]11C[C@]([H])(NC1=O)C1=CC=C(OCC2=CC(=NC3=C2C=CC=C3)C2=CC=CC=C2)C=C1)C(O)=O

> <INCHI_IDENTIFIER>
InChI=1S/C29H24N2O4/c32-27(33)23-15-29(23)16-26(31-28(29)34)19-10-12-21(13-11-19)35-17-20-14-25(18-6-2-1-3-7-18)30-24-9-5-4-8-22(20)24/h1-14,23,26H,15-17H2,(H,31,34)(H,32,33)/t23-,26+,29-/m1/s1

> <INCHI_KEY>
BFZXMIUWGSTUAL-ZSOKXDGFSA-N

> <FORMULA>
C29H24N2O4

> <MOLECULAR_WEIGHT>
464.5119

> <EXACT_MASS>
464.173607266

> <JCHEM_ACCEPTOR_COUNT>
5

> <JCHEM_ATOM_COUNT>
59

> <JCHEM_AVERAGE_NEUTRAL_MICROSPECIES_CHARGE>
-0.9989455078142276

> <JCHEM_AVERAGE_POLARIZABILITY>
50.576007393977626

> <JCHEM_BIOAVAILABILITY>
1

> <JCHEM_DONOR_COUNT>
2

> <JCHEM_FORMAL_CHARGE>
0

> <JCHEM_GHOSE_FILTER>
1

> <JCHEM_IUPAC>
(1S,3R,6S)-4-oxo-6-{4-[(2-phenylquinolin-4-yl)methoxy]phenyl}-5-azaspiro[2.4]heptane-1-carboxylic acid

> <ALOGPS_LOGP>
4.59

> <JCHEM_LOGP>
4.301587281312241

> <ALOGPS_LOGS>
-5.96

> <JCHEM_MDDR_LIKE_RULE>
1

> <JCHEM_NEUTRAL_CHARGE>
-1

> <JCHEM_NUMBER_OF_RINGS>
6

> <JCHEM_PHYSIOLOGICAL_CHARGE>
-1

> <JCHEM_PKA>
12.62417712638727

> <JCHEM_PKA_STRONGEST_ACIDIC>
4.088758120153866

> <JCHEM_PKA_STRONGEST_BASIC>
3.456970599968494

> <JCHEM_POLAR_SURFACE_AREA>
88.52000000000001

> <JCHEM_REFRACTIVITY>
129.8152

> <JCHEM_ROTATABLE_BOND_COUNT>
6

> <JCHEM_RULE_OF_FIVE>
1

> <ALOGPS_SOLUBILITY>
5.13e-04 g/l

> <JCHEM_TRADITIONAL_IUPAC>
tetrahydrofolic acid

> <JCHEM_VEBER_RULE>
0

> <DRUGBANK_ID>
DB07189

> <DRUG_GROUPS>
experimental

> <GENERIC_NAME>
(1S,3R,6S)-4-oxo-6-{4-[(2-phenylquinolin-4-yl)methoxy]phenyl}-5-azaspiro[2.4]heptane-1-carboxylic acid

$$$$
