644
  Mrv0541 02231214512D          

 85 90  0  0  1  0            999 V2000
   12.8548   -2.6382    0.0000 O   0  0  0  0  0  0  0  0  0  0  0  0
   13.9727   -2.5226    0.0000 O   0  0  0  0  0  0  0  0  0  0  0  0
   10.1767   -3.9328    0.0000 O   0  0  0  0  0  0  0  0  0  0  0  0
   16.8590   -3.2421    0.0000 O   0  0  0  0  0  0  0  0  0  0  0  0
    8.7800   -1.3064    0.0000 O   0  0  0  0  0  0  0  0  0  0  0  0
    3.2703    4.8342    0.0000 O   0  0  0  0  0  0  0  0  0  0  0  0
    2.3500    8.2735    0.0000 O   0  0  0  0  0  0  0  0  0  0  0  0
    3.8213    4.2201    0.0000 O   0  0  0  0  0  0  0  0  0  0  0  0
    5.2179    1.5938    0.0000 O   0  0  0  0  0  0  0  0  0  0  0  0
   10.3562    1.2163    0.0000 O   0  0  0  0  0  0  0  0  0  0  0  0
    7.8960    2.8883    0.0000 O   0  0  0  0  0  0  0  0  0  0  0  0
    7.1271    0.5358    0.0000 O   0  0  0  0  0  0  0  0  0  0  0  0
   12.4834    3.1249    0.0000 O   0  0  0  0  0  0  0  0  0  0  0  0
   13.1495   -4.0365    0.0000 N   0  0  0  0  0  0  0  0  0  0  0  0
   11.2403   -2.9785    0.0000 N   0  0  0  0  0  0  0  0  0  0  0  0
   15.2089   -3.2393    0.0000 N   0  0  0  0  0  0  0  0  0  0  0  0
   10.1383   -1.7503    0.0000 N   0  0  0  0  0  0  0  0  0  0  0  0
   12.3806   -6.3891    0.0000 N   0  0  0  0  0  0  0  0  0  0  0  0
   16.8614   -1.8132    0.0000 N   0  0  0  0  0  0  0  0  0  0  0  0
    3.1485    7.0391    0.0000 N   0  0  0  0  0  0  0  0  0  0  0  0
    4.3339    5.7885    0.0000 N   0  0  0  0  0  0  0  0  0  0  0  0
    9.2927    0.2619    0.0000 N   0  0  0  0  0  0  0  0  0  0  0  0
    5.1795    3.7762    0.0000 N   0  0  0  0  0  0  0  0  0  0  0  0
    6.2815    2.5481    0.0000 N   0  0  0  0  0  0  0  0  0  0  0  0
    8.1907    1.4901    0.0000 N   0  0  0  0  0  0  0  0  0  0  0  0
   12.6753   -7.7873    0.0000 N   0  0  0  0  0  0  0  0  0  0  0  0
   11.3170   -7.3434    0.0000 N   0  0  0  0  0  0  0  0  0  0  0  0
    3.8597    0.7098    0.0000 N   0  0  0  0  0  0  0  0  0  0  0  0
    6.7335    6.3823    0.0000 N   0  0  0  0  0  0  0  0  0  0  0  0
    5.9507    7.4636    0.0000 N   0  0  0  0  0  0  0  0  0  0  0  0
   13.9702   -3.9516    0.0000 C   0  0  0  0  0  0  0  0  0  0  0  0
   14.3044   -4.7059    0.0000 C   0  0  0  0  0  0  0  0  0  0  0  0
   13.6903   -5.2569    0.0000 C   0  0  0  0  0  0  0  0  0  0  0  0
   12.9766   -4.8432    0.0000 C   0  0  0  0  0  0  0  0  0  0  0  0
   12.5985   -3.4224    0.0000 C   0  0  0  0  0  0  0  0  0  0  0  0
   11.7912   -3.5925    0.0000 C   0  0  0  0  0  0  0  0  0  0  0  0
   14.3839   -3.2378    0.0000 C   0  0  0  0  0  0  0  0  0  0  0  0
   11.5350   -4.3767    0.0000 C   0  0  0  0  0  0  0  0  0  0  0  0
   12.0859   -4.9907    0.0000 C   0  0  0  0  0  0  0  0  0  0  0  0
    9.8820   -2.5345    0.0000 C   0  0  0  0  0  0  0  0  0  0  0  0
   10.4330   -3.1486    0.0000 C   0  0  0  0  0  0  0  0  0  0  0  0
    9.0747   -2.7046    0.0000 C   0  0  0  0  0  0  0  0  0  0  0  0
   11.8296   -5.7750    0.0000 C   0  0  0  0  0  0  0  0  0  0  0  0
   15.6227   -2.5255    0.0000 C   0  0  0  0  0  0  0  0  0  0  0  0
    8.8185   -3.4889    0.0000 C   0  0  0  0  0  0  0  0  0  0  0  0
    8.0112   -3.6590    0.0000 C   0  0  0  0  0  0  0  0  0  0  0  0
    9.3694   -4.1030    0.0000 C   0  0  0  0  0  0  0  0  0  0  0  0
   16.4477   -2.5269    0.0000 C   0  0  0  0  0  0  0  0  0  0  0  0
    9.5873   -1.1363    0.0000 C   0  0  0  0  0  0  0  0  0  0  0  0
    2.9756    6.2324    0.0000 C   0  0  0  0  0  0  0  0  0  0  0  0
    2.1549    6.1476    0.0000 C   0  0  0  0  0  0  0  0  0  0  0  0
    9.8436   -0.3521    0.0000 C   0  0  0  0  0  0  0  0  0  0  0  0
    1.8207    6.9019    0.0000 C   0  0  0  0  0  0  0  0  0  0  0  0
    4.8848    5.1744    0.0000 C   0  0  0  0  0  0  0  0  0  0  0  0
    4.9232    2.9920    0.0000 C   0  0  0  0  0  0  0  0  0  0  0  0
   12.1243   -7.1732    0.0000 C   0  0  0  0  0  0  0  0  0  0  0  0
    3.5266    5.6183    0.0000 C   0  0  0  0  0  0  0  0  0  0  0  0
    4.1159    2.8219    0.0000 C   0  0  0  0  0  0  0  0  0  0  0  0
    2.4348    7.4528    0.0000 C   0  0  0  0  0  0  0  0  0  0  0  0
    5.6921    5.3445    0.0000 C   0  0  0  0  0  0  0  0  0  0  0  0
    4.6286    4.3902    0.0000 C   0  0  0  0  0  0  0  0  0  0  0  0
    3.8597    2.0376    0.0000 C   0  0  0  0  0  0  0  0  0  0  0  0
    8.9980    1.6602    0.0000 C   0  0  0  0  0  0  0  0  0  0  0  0
    5.4742    2.3779    0.0000 C   0  0  0  0  0  0  0  0  0  0  0  0
    9.5489    1.0461    0.0000 C   0  0  0  0  0  0  0  0  0  0  0  0
    3.0790    1.7862    0.0000 C   0  0  0  0  0  0  0  0  0  0  0  0
    6.8324    1.9340    0.0000 C   0  0  0  0  0  0  0  0  0  0  0  0
    5.9484    6.1288    0.0000 C   0  0  0  0  0  0  0  0  0  0  0  0
    9.2542    2.4444    0.0000 C   0  0  0  0  0  0  0  0  0  0  0  0
    3.0790    0.9612    0.0000 C   0  0  0  0  0  0  0  0  0  0  0  0
    4.3411    1.3737    0.0000 C   0  0  0  0  0  0  0  0  0  0  0  0
    7.6397    2.1041    0.0000 C   0  0  0  0  0  0  0  0  0  0  0  0
    6.5762    1.1498    0.0000 C   0  0  0  0  0  0  0  0  0  0  0  0
    2.3645    2.1987    0.0000 C   0  0  0  0  0  0  0  0  0  0  0  0
   10.0616    2.6145    0.0000 C   0  0  0  0  0  0  0  0  0  0  0  0
    2.3645    0.5487    0.0000 C   0  0  0  0  0  0  0  0  0  0  0  0
    5.4646    6.7970    0.0000 C   0  0  0  0  0  0  0  0  0  0  0  0
    1.6500    1.7862    0.0000 C   0  0  0  0  0  0  0  0  0  0  0  0
    1.6500    0.9612    0.0000 C   0  0  0  0  0  0  0  0  0  0  0  0
    6.7349    7.2073    0.0000 C   0  0  0  0  0  0  0  0  0  0  0  0
   10.3179    3.3987    0.0000 C   0  0  0  0  0  0  0  0  0  0  0  0
   10.6125    2.0005    0.0000 C   0  0  0  0  0  0  0  0  0  0  0  0
   11.1251    3.5688    0.0000 C   0  0  0  0  0  0  0  0  0  0  0  0
   11.4198    2.1706    0.0000 C   0  0  0  0  0  0  0  0  0  0  0  0
   11.6762    2.9548    0.0000 C   0  0  0  0  0  0  0  0  0  0  0  0
  1 35  2  0  0  0  0
  2 37  2  0  0  0  0
  3 41  2  0  0  0  0
  4 48  2  0  0  0  0
  5 49  2  0  0  0  0
  6 57  2  0  0  0  0
  7 59  2  0  0  0  0
  8 61  2  0  0  0  0
  9 64  2  0  0  0  0
 10 65  2  0  0  0  0
 11 72  2  0  0  0  0
 12 73  1  0  0  0  0
 13 85  1  0  0  0  0
 14 31  1  0  0  0  0
 14 34  1  0  0  0  0
 14 35  1  0  0  0  0
 15 36  1  0  0  0  0
 15 41  1  0  0  0  0
 16 37  1  0  0  0  0
 16 44  1  0  0  0  0
 17 40  1  0  0  0  0
 17 49  1  0  0  0  0
 18 43  1  0  0  0  0
 18 56  2  0  0  0  0
 19 48  1  0  0  0  0
 20 50  1  0  0  0  0
 20 59  1  0  0  0  0
 21 54  1  0  0  0  0
 21 57  1  0  0  0  0
 22 52  1  0  0  0  0
 22 65  1  0  0  0  0
 23 55  1  0  0  0  0
 23 61  1  0  0  0  0
 24 64  1  0  0  0  0
 24 67  1  0  0  0  0
 25 63  1  0  0  0  0
 25 72  1  0  0  0  0
 26 56  1  0  0  0  0
 27 56  1  0  0  0  0
 28 70  1  0  0  0  0
 28 71  1  0  0  0  0
 29 68  1  0  0  0  0
 29 80  1  0  0  0  0
 30 77  1  0  0  0  0
 30 80  2  0  0  0  0
 31 32  1  0  0  0  0
 31 37  1  0  0  0  0
 32 33  1  0  0  0  0
 33 34  1  0  0  0  0
 35 36  1  0  0  0  0
 36 38  1  0  0  0  0
 38 39  1  0  0  0  0
 39 43  1  0  0  0  0
 40 41  1  0  0  0  0
 40 42  1  0  0  0  0
 42 45  1  0  0  0  0
 44 48  1  0  0  0  0
 45 46  1  0  0  0  0
 45 47  1  0  0  0  0
 49 52  1  0  0  0  0
 50 51  1  0  0  0  0
 50 57  1  0  0  0  0
 51 53  1  0  0  0  0
 53 59  1  0  0  0  0
 54 60  1  0  0  0  0
 54 61  1  0  0  0  0
 55 58  1  0  0  0  0
 55 64  1  0  0  0  0
 58 62  1  0  0  0  0
 60 68  1  0  0  0  0
 62 66  1  0  0  0  0
 62 71  2  0  0  0  0
 63 65  1  0  0  0  0
 63 69  1  0  0  0  0
 66 70  1  0  0  0  0
 66 74  2  0  0  0  0
 67 72  1  0  0  0  0
 67 73  1  0  0  0  0
 68 77  2  0  0  0  0
 69 75  1  0  0  0  0
 70 76  2  0  0  0  0
 74 78  1  0  0  0  0
 75 81  2  0  0  0  0
 75 82  1  0  0  0  0
 76 79  1  0  0  0  0
 78 79  2  0  0  0  0
 81 83  1  0  0  0  0
 82 84  2  0  0  0  0
 83 85  2  0  0  0  0
 84 85  1  0  0  0  0
M  END
> <DATABASE_ID>
DB00644

> <DATABASE_NAME>
drugbank

> <SMILES>
CC(C)CC(NC(=O)CNC(=O)C(CC1=CC=C(O)C=C1)NC(=O)C(CO)NC(=O)C(CC1=CNC2=CC=CC=C12)NC(=O)C(CC1=CN=CN1)NC(=O)C1CCC(=O)N1)C(=O)NC(CCCN=C(N)N)C(=O)N1CCCC1C(=O)NCC(N)=O

> <INCHI_IDENTIFIER>
InChI=1S/C55H75N17O13/c1-29(2)19-38(49(80)67-37(9-5-17-60-55(57)58)54(85)72-18-6-10-43(72)53(84)62-25-44(56)75)66-46(77)26-63-47(78)39(20-30-11-13-33(74)14-12-30)68-52(83)42(27-73)71-50(81)40(21-31-23-61-35-8-4-3-7-34(31)35)69-51(82)41(22-32-24-59-28-64-32)70-48(79)36-15-16-45(76)65-36/h3-4,7-8,11-14,23-24,28-29,36-43,61,73-74H,5-6,9-10,15-22,25-27H2,1-2H3,(H2,56,75)(H,59,64)(H,62,84)(H,63,78)(H,65,76)(H,66,77)(H,67,80)(H,68,83)(H,69,82)(H,70,79)(H,71,81)(H4,57,58,60)

> <INCHI_KEY>
XLXSAKCOAKORKW-UHFFFAOYSA-N

> <FORMULA>
C55H75N17O13

> <MOLECULAR_WEIGHT>
1182.2901

> <EXACT_MASS>
1181.573025571

> <JCHEM_ACCEPTOR_COUNT>
17

> <JCHEM_ATOM_COUNT>
160

> <JCHEM_AVERAGE_NEUTRAL_MICROSPECIES_CHARGE>
1.3521442673457724

> <JCHEM_AVERAGE_POLARIZABILITY>
120.2053409828469

> <JCHEM_BIOAVAILABILITY>
0

> <JCHEM_DONOR_COUNT>
16

> <JCHEM_FORMAL_CHARGE>
0

> <JCHEM_GHOSE_FILTER>
0

> <JCHEM_IUPAC>
N-(1-{2-[(carbamoylmethyl)carbamoyl]pyrrolidin-1-yl}-5-[(diaminomethylidene)amino]-1-oxopentan-2-yl)-2-{2-[2-(3-hydroxy-2-{2-[3-(1H-imidazol-5-yl)-2-[(5-oxopyrrolidin-2-yl)formamido]propanamido]-3-(1H-indol-3-yl)propanamido}propanamido)-3-(4-hydroxyphenyl)propanamido]acetamido}-4-methylpentanamide

> <ALOGPS_LOGP>
-0.09

> <JCHEM_LOGP>
-6.31928858807058

> <ALOGPS_LOGS>
-4.30

> <JCHEM_MDDR_LIKE_RULE>
1

> <JCHEM_NEUTRAL_CHARGE>
2

> <JCHEM_NUMBER_OF_RINGS>
6

> <JCHEM_PHYSIOLOGICAL_CHARGE>
1

> <JCHEM_PKA>
10.627468721377271

> <JCHEM_PKA_STRONGEST_ACIDIC>
9.470686789181995

> <JCHEM_PKA_STRONGEST_BASIC>
11.16040184683256

> <JCHEM_POLAR_SURFACE_AREA>
474.62999999999977

> <JCHEM_REFRACTIVITY>
302.5053000000002

> <JCHEM_ROTATABLE_BOND_COUNT>
31

> <JCHEM_RULE_OF_FIVE>
0

> <ALOGPS_SOLUBILITY>
5.88e-02 g/l

> <JCHEM_TRADITIONAL_IUPAC>
tetrahydrofolic acid

> <JCHEM_VEBER_RULE>
0

> <DRUGBANK_ID>
DB00644

> <SECONDARY_ACCESSION_NUMBERS>
APRD01001

> <DRUG_GROUPS>
approved; investigational; vet_approved

> <GENERIC_NAME>
Gonadorelin

> <SYNONYMS>
GnRH; Gonadorelin; Gonadorelina; GonadorÃ©line; Gonadorelinum; Gonadotropin-releasing hormone

> <PRODUCTS>
Factrel Inj 0.5mg/vial; Factrel Pws 100mcg/vial; Factrel Pws 500mcg/vial; Gonadorelin Diacetate Tetrahydrate; Lutrepulse; Lutrepulse Pws 0.8mg/vial; Relisorm 100 for Inj.-pws Liq-kit Sc IV; Relisorm 500 for Inj.-pws Liq-kit IV Sc

> <INTERNATIONAL_BRANDS>
Fertagyl; Gonadorelin; HRF; Hypocrine; Kryptocur; Lutrelef; Relefact

> <SALTS>
Gonadorelin acetate; Gonadorelin diacetate tetrahydrate; Gonadorelin hydrochloride

$$$$
