648
  Mrv0541 02231214522D          

 18 19  0  0  1  0            999 V2000
    2.3645    1.6500    0.0000 Cl  0  0  0  0  0  0  0  0  0  0  0  0
    1.6500    0.4125    0.0000 Cl  0  0  0  0  0  0  0  0  0  0  0  0
    1.6500   -0.4125    0.0000 Cl  0  0  0  0  0  0  0  0  0  0  0  0
    5.9370    2.0625    0.0000 Cl  0  0  0  0  0  0  0  0  0  0  0  0
    3.0791    0.4125    0.0000 C   0  0  0  0  0  0  0  0  0  0  0  0
    3.7935    0.8250    0.0000 C   0  0  0  0  0  0  0  0  0  0  0  0
    3.0791   -0.4125    0.0000 C   0  0  0  0  0  0  0  0  0  0  0  0
    2.3645    0.8250    0.0000 C   0  0  0  0  0  0  0  0  0  0  0  0
    4.5080    0.4125    0.0000 C   0  0  0  0  0  0  0  0  0  0  0  0
    3.7935    1.6500    0.0000 C   0  0  0  0  0  0  0  0  0  0  0  0
    2.3645   -0.8250    0.0000 C   0  0  0  0  0  0  0  0  0  0  0  0
    3.7935   -0.8250    0.0000 C   0  0  0  0  0  0  0  0  0  0  0  0
    5.2224    0.8250    0.0000 C   0  0  0  0  0  0  0  0  0  0  0  0
    4.5080    2.0625    0.0000 C   0  0  0  0  0  0  0  0  0  0  0  0
    2.3645   -1.6500    0.0000 C   0  0  0  0  0  0  0  0  0  0  0  0
    3.7935   -1.6500    0.0000 C   0  0  0  0  0  0  0  0  0  0  0  0
    5.2224    1.6500    0.0000 C   0  0  0  0  0  0  0  0  0  0  0  0
    3.0791   -2.0625    0.0000 C   0  0  0  0  0  0  0  0  0  0  0  0
  1  8  1  0  0  0  0
  2  8  1  0  0  0  0
  3 11  1  0  0  0  0
  4 17  1  0  0  0  0
  5  6  1  0  0  0  0
  5  7  1  0  0  0  0
  5  8  1  0  0  0  0
  6  9  2  0  0  0  0
  6 10  1  0  0  0  0
  7 11  1  0  0  0  0
  7 12  2  0  0  0  0
  9 13  1  0  0  0  0
 10 14  2  0  0  0  0
 11 15  2  0  0  0  0
 12 16  1  0  0  0  0
 13 17  2  0  0  0  0
 14 17  1  0  0  0  0
 15 18  1  0  0  0  0
 16 18  2  0  0  0  0
M  END
> <DATABASE_ID>
DB00648

> <DATABASE_NAME>
drugbank

> <SMILES>
ClC(Cl)C(C1=CC=C(Cl)C=C1)C1=CC=CC=C1Cl

> <INCHI_IDENTIFIER>
InChI=1S/C14H10Cl4/c15-10-7-5-9(6-8-10)13(14(17)18)11-3-1-2-4-12(11)16/h1-8,13-14H

> <INCHI_KEY>
JWBOIMRXGHLCPP-UHFFFAOYSA-N

> <FORMULA>
C14H10Cl4

> <MOLECULAR_WEIGHT>
320.041

> <EXACT_MASS>
317.953661148

> <JCHEM_ACCEPTOR_COUNT>
0

> <JCHEM_ATOM_COUNT>
28

> <JCHEM_AVERAGE_NEUTRAL_MICROSPECIES_CHARGE>
0.0

> <JCHEM_AVERAGE_POLARIZABILITY>
29.934789412180983

> <JCHEM_BIOAVAILABILITY>
1

> <JCHEM_DONOR_COUNT>
0

> <JCHEM_FORMAL_CHARGE>
0

> <JCHEM_GHOSE_FILTER>
0

> <JCHEM_IUPAC>
1-chloro-4-[2,2-dichloro-1-(2-chlorophenyl)ethyl]benzene

> <ALOGPS_LOGP>
6.08

> <JCHEM_LOGP>
6.110364791333334

> <ALOGPS_LOGS>
-7.53

> <JCHEM_MDDR_LIKE_RULE>
0

> <JCHEM_NEUTRAL_CHARGE>
0

> <JCHEM_NUMBER_OF_RINGS>
2

> <JCHEM_PHYSIOLOGICAL_CHARGE>
0

> <JCHEM_POLAR_SURFACE_AREA>
0.0

> <JCHEM_REFRACTIVITY>
79.96540000000002

> <JCHEM_ROTATABLE_BOND_COUNT>
3

> <JCHEM_RULE_OF_FIVE>
0

> <ALOGPS_SOLUBILITY>
9.42e-06 g/l

> <JCHEM_TRADITIONAL_IUPAC>
biotin

> <JCHEM_VEBER_RULE>
1

> <DRUGBANK_ID>
DB00648

> <SECONDARY_ACCESSION_NUMBERS>
APRD00494

> <DRUG_GROUPS>
approved

> <GENERIC_NAME>
Mitotane

> <SYNONYMS>
Mitotan; Mitotane; Mitotano; Mitotanum

> <PRODUCTS>
Lysodren

> <INTERNATIONAL_BRANDS>
Lisodren; Opeprim

$$$$
