64U
  Mrv0541 02241213152D          

 29 31  0  0  0  0            999 V2000
    2.4567   -0.5008    0.0000 C   0  0  0  0  0  0  0  0  0  0  0  0
    1.5006   -1.5627    0.0000 N   0  0  0  0  0  0  0  0  0  0  0  0
    1.6721   -0.7558    0.0000 C   0  0  1  0  0  0  0  0  0  0  0  0
    1.0590   -0.2037    0.0000 C   0  0  0  0  0  0  0  0  0  0  0  0
    1.2305    0.6032    0.0000 O   0  0  0  0  0  0  0  0  0  0  0  0
    0.2744   -0.4587    0.0000 N   0  0  0  0  0  0  0  0  0  0  0  0
    0.0194   -1.2433    0.0000 C   0  0  0  0  0  0  0  0  0  0  0  0
   -0.8056   -1.2433    0.0000 C   0  0  0  0  0  0  0  0  0  0  0  0
   -1.0605   -0.4587    0.0000 C   0  0  0  0  0  0  0  0  0  0  0  0
   -0.3931    0.0263    0.0000 C   0  0  1  0  0  0  0  0  0  0  0  0
   -0.3931    0.8513    0.0000 C   0  0  0  0  0  0  0  0  0  0  0  0
   -1.1075    1.2638    0.0000 N   0  0  0  0  0  0  0  0  0  0  0  0
   -1.1075    2.0888    0.0000 C   0  0  0  0  0  0  0  0  0  0  0  0
   -1.8220    2.5013    0.0000 C   0  0  0  0  0  0  0  0  0  0  0  0
   -2.5365    2.0888    0.0000 C   0  0  0  0  0  0  0  0  0  0  0  0
   -3.2509    2.5013    0.0000 C   0  0  0  0  0  0  0  0  0  0  0  0
   -3.2509    3.3263    0.0000 C   0  0  0  0  0  0  0  0  0  0  0  0
   -2.5365    3.7388    0.0000 C   0  0  0  0  0  0  0  0  0  0  0  0
   -1.8220    3.3263    0.0000 C   0  0  0  0  0  0  0  0  0  0  0  0
    0.3214    1.2638    0.0000 O   0  0  0  0  0  0  0  0  0  0  0  0
    3.0698   -1.0529    0.0000 C   0  0  0  0  0  0  0  0  0  0  0  0
    3.8544   -0.7979    0.0000 C   0  0  0  0  0  0  0  0  0  0  0  0
    4.4675   -1.3499    0.0000 C   0  0  0  0  0  0  0  0  0  0  0  0
    4.2960   -2.1569    0.0000 C   0  0  0  0  0  0  0  0  0  0  0  0
    3.5114   -2.4119    0.0000 C   0  0  0  0  0  0  0  0  0  0  0  0
    2.8983   -1.8598    0.0000 C   0  0  0  0  0  0  0  0  0  0  0  0
   -3.9654    2.0888    0.0000 Cl  0  0  0  0  0  0  0  0  0  0  0  0
    2.1060   -1.1465    0.0000 H   0  0  0  0  0  0  0  0  0  0  0  0
    0.1272    0.2914    0.0000 H   0  0  0  0  0  0  0  0  0  0  0  0
  1  3  1  0  0  0  0
  1 21  1  0  0  0  0
  3  2  1  1  0  0  0
  3  4  1  0  0  0  0
  3 28  1  6  0  0  0
  4  5  2  0  0  0  0
  4  6  1  0  0  0  0
  6  7  1  0  0  0  0
  6 10  1  0  0  0  0
  7  8  1  0  0  0  0
  8  9  1  0  0  0  0
  9 10  1  0  0  0  0
 10 11  1  1  0  0  0
 10 29  1  6  0  0  0
 11 12  1  0  0  0  0
 11 20  2  0  0  0  0
 12 13  1  0  0  0  0
 13 14  1  0  0  0  0
 14 15  2  0  0  0  0
 14 19  1  0  0  0  0
 15 16  1  0  0  0  0
 16 17  2  0  0  0  0
 16 27  1  0  0  0  0
 17 18  1  0  0  0  0
 18 19  2  0  0  0  0
 21 22  1  0  0  0  0
 21 26  1  0  0  0  0
 22 23  1  0  0  0  0
 23 24  1  0  0  0  0
 24 25  1  0  0  0  0
 25 26  1  0  0  0  0
M  END
> <DATABASE_ID>
DB07190

> <DATABASE_NAME>
drugbank

> <SMILES>
[H][C@@](N)(CC1CCCCC1)C(=O)N1CCC[C@@]1([H])C(=O)NCC1=CC(Cl)=CC=C1

> <INCHI_IDENTIFIER>
InChI=1S/C21H30ClN3O2/c22-17-9-4-8-16(12-17)14-24-20(26)19-10-5-11-25(19)21(27)18(23)13-15-6-2-1-3-7-15/h4,8-9,12,15,18-19H,1-3,5-7,10-11,13-14,23H2,(H,24,26)/t18-,19+/m1/s1

> <INCHI_KEY>
JGFCNVHEEMBVJG-MOPGFXCFSA-N

> <FORMULA>
C21H30ClN3O2

> <MOLECULAR_WEIGHT>
391.935

> <EXACT_MASS>
391.202654926

> <JCHEM_ACCEPTOR_COUNT>
3

> <JCHEM_ATOM_COUNT>
57

> <JCHEM_AVERAGE_NEUTRAL_MICROSPECIES_CHARGE>
0.9300732475813059

> <JCHEM_AVERAGE_POLARIZABILITY>
41.642261410507

> <JCHEM_BIOAVAILABILITY>
1

> <JCHEM_DONOR_COUNT>
2

> <JCHEM_FORMAL_CHARGE>
0

> <JCHEM_GHOSE_FILTER>
1

> <JCHEM_IUPAC>
(2S)-1-[(2R)-2-amino-3-cyclohexylpropanoyl]-N-[(3-chlorophenyl)methyl]pyrrolidine-2-carboxamide

> <ALOGPS_LOGP>
3.26

> <JCHEM_LOGP>
3.0267767599999997

> <ALOGPS_LOGS>
-4.61

> <JCHEM_MDDR_LIKE_RULE>
1

> <JCHEM_NEUTRAL_CHARGE>
1

> <JCHEM_NUMBER_OF_RINGS>
3

> <JCHEM_PHYSIOLOGICAL_CHARGE>
1

> <JCHEM_PKA_STRONGEST_ACIDIC>
14.267500598275056

> <JCHEM_PKA_STRONGEST_BASIC>
8.123873655783177

> <JCHEM_POLAR_SURFACE_AREA>
75.43

> <JCHEM_REFRACTIVITY>
107.29449999999999

> <JCHEM_ROTATABLE_BOND_COUNT>
6

> <JCHEM_RULE_OF_FIVE>
1

> <ALOGPS_SOLUBILITY>
9.61e-03 g/l

> <JCHEM_TRADITIONAL_IUPAC>
tetrahydrofolic acid

> <JCHEM_VEBER_RULE>
0

> <DRUGBANK_ID>
DB07190

> <DRUG_GROUPS>
experimental

> <GENERIC_NAME>
3-cyclohexyl-D-alanyl-N-(3-chlorobenzyl)-L-prolinamide

$$$$
