6EA
  Mrv0541 02241213162D          

 31 35  0  0  0  0            999 V2000
   -5.3215    2.1346    0.0000 N   0  0  0  0  0  0  0  0  0  0  0  0
   -4.7695    2.7477    0.0000 C   0  0  0  0  0  0  0  0  0  0  0  0
   -3.9625    2.5762    0.0000 C   0  0  0  0  0  0  0  0  0  0  0  0
   -3.7076    1.7916    0.0000 C   0  0  0  0  0  0  0  0  0  0  0  0
   -4.2596    1.1785    0.0000 C   0  0  0  0  0  0  0  0  0  0  0  0
   -5.0666    1.3500    0.0000 C   0  0  0  0  0  0  0  0  0  0  0  0
   -2.9006    1.6200    0.0000 C   0  0  0  0  0  0  0  0  0  0  0  0
   -2.6457    0.8354    0.0000 C   0  0  0  0  0  0  0  0  0  0  0  0
   -1.8387    0.6639    0.0000 C   0  0  0  0  0  0  0  0  0  0  0  0
   -1.2867    1.2770    0.0000 C   0  0  0  0  0  0  0  0  0  0  0  0
   -1.5416    2.0616    0.0000 C   0  0  0  0  0  0  0  0  0  0  0  0
   -2.3486    2.2331    0.0000 N   0  0  0  0  0  0  0  0  0  0  0  0
   -0.4797    1.1055    0.0000 C   0  0  0  0  0  0  0  0  0  0  0  0
    0.0723    1.7185    0.0000 C   0  0  0  0  0  0  0  0  0  0  0  0
   -0.1826    2.5032    0.0000 N   0  0  0  0  0  0  0  0  0  0  0  0
   -0.9896    2.6747    0.0000 C   0  0  0  0  0  0  0  0  0  0  0  0
   -0.2248    0.3208    0.0000 O   0  0  0  0  0  0  0  0  0  0  0  0
    0.5822    0.1493    0.0000 C   0  0  0  0  0  0  0  0  0  0  0  0
    0.8371   -0.6353    0.0000 C   0  0  1  0  0  0  0  0  0  0  0  0
    0.2851   -1.2484    0.0000 N   0  0  0  0  0  0  0  0  0  0  0  0
    1.6441   -0.8068    0.0000 C   0  0  0  0  0  0  0  0  0  0  0  0
    1.8990   -1.5915    0.0000 C   0  0  0  0  0  0  0  0  0  0  0  0
    1.4141   -2.2589    0.0000 C   0  0  0  0  0  0  0  0  0  0  0  0
    1.8990   -2.9263    0.0000 N   0  0  0  0  0  0  0  0  0  0  0  0
    2.6837   -2.6714    0.0000 C   0  0  0  0  0  0  0  0  0  0  0  0
    2.6837   -1.8464    0.0000 C   0  0  0  0  0  0  0  0  0  0  0  0
    3.3981   -3.0839    0.0000 C   0  0  0  0  0  0  0  0  0  0  0  0
    4.1126   -2.6714    0.0000 C   0  0  0  0  0  0  0  0  0  0  0  0
    4.1126   -1.8464    0.0000 C   0  0  0  0  0  0  0  0  0  0  0  0
    3.3981   -1.4339    0.0000 C   0  0  0  0  0  0  0  0  0  0  0  0
    0.2660   -0.5139    0.0000 H   0  0  0  0  0  0  0  0  0  0  0  0
  1  2  1  0  0  0  0
  1  6  2  0  0  0  0
  2  3  2  0  0  0  0
  3  4  1  0  0  0  0
  4  5  2  0  0  0  0
  4  7  1  0  0  0  0
  5  6  1  0  0  0  0
  7  8  1  0  0  0  0
  7 12  2  0  0  0  0
  8  9  2  0  0  0  0
  9 10  1  0  0  0  0
 10 11  1  0  0  0  0
 10 13  2  0  0  0  0
 11 12  1  0  0  0  0
 11 16  2  0  0  0  0
 13 14  1  0  0  0  0
 13 17  1  0  0  0  0
 14 15  2  0  0  0  0
 15 16  1  0  0  0  0
 17 18  1  0  0  0  0
 18 19  1  0  0  0  0
 19 20  1  6  0  0  0
 19 21  1  0  0  0  0
 19 31  1  1  0  0  0
 21 22  1  0  0  0  0
 22 23  2  0  0  0  0
 22 26  1  0  0  0  0
 23 24  1  0  0  0  0
 24 25  1  0  0  0  0
 25 26  2  0  0  0  0
 25 27  1  0  0  0  0
 26 30  1  0  0  0  0
 27 28  2  0  0  0  0
 28 29  1  0  0  0  0
 29 30  2  0  0  0  0
M  END
> <DATABASE_ID>
DB07204

> <DATABASE_NAME>
drugbank

> <SMILES>
[H][C@@](N)(COC1=C2C=CC(=NC2=CN=C1)C1=CC=NC=C1)CC1=CNC2=C1C=CC=C2

> <INCHI_IDENTIFIER>
InChI=1S/C24H21N5O/c25-18(11-17-12-28-22-4-2-1-3-19(17)22)15-30-24-14-27-13-23-20(24)5-6-21(29-23)16-7-9-26-10-8-16/h1-10,12-14,18,28H,11,15,25H2/t18-/m0/s1

> <INCHI_KEY>
DQIXTEDFNFZMCM-SFHVURJKSA-N

> <FORMULA>
C24H21N5O

> <MOLECULAR_WEIGHT>
395.4564

> <EXACT_MASS>
395.174610319

> <JCHEM_ACCEPTOR_COUNT>
5

> <JCHEM_ATOM_COUNT>
51

> <JCHEM_AVERAGE_NEUTRAL_MICROSPECIES_CHARGE>
0.9958685393000654

> <JCHEM_AVERAGE_POLARIZABILITY>
43.626893267447095

> <JCHEM_BIOAVAILABILITY>
1

> <JCHEM_DONOR_COUNT>
2

> <JCHEM_FORMAL_CHARGE>
0

> <JCHEM_GHOSE_FILTER>
1

> <JCHEM_IUPAC>
(2S)-1-(1H-indol-3-yl)-3-{[2-(pyridin-4-yl)-1,7-naphthyridin-5-yl]oxy}propan-2-amine

> <ALOGPS_LOGP>
3.08

> <JCHEM_LOGP>
2.9456396160000002

> <ALOGPS_LOGS>
-5.12

> <JCHEM_MDDR_LIKE_RULE>
1

> <JCHEM_NEUTRAL_CHARGE>
1

> <JCHEM_NUMBER_OF_RINGS>
5

> <JCHEM_PHYSIOLOGICAL_CHARGE>
1

> <JCHEM_PKA_STRONGEST_ACIDIC>
17.107720192516574

> <JCHEM_PKA_STRONGEST_BASIC>
9.235372552183447

> <JCHEM_POLAR_SURFACE_AREA>
89.71000000000001

> <JCHEM_REFRACTIVITY>
114.967

> <JCHEM_ROTATABLE_BOND_COUNT>
6

> <JCHEM_RULE_OF_FIVE>
1

> <ALOGPS_SOLUBILITY>
2.97e-03 g/l

> <JCHEM_TRADITIONAL_IUPAC>
biotin

> <JCHEM_VEBER_RULE>
0

> <DRUGBANK_ID>
DB07204

> <DRUG_GROUPS>
experimental

> <GENERIC_NAME>
(1S)-1-(1H-INDOL-3-YLMETHYL)-2-(2-PYRIDIN-4-YL-[1,7]NAPHTYRIDIN-5-YLOXY)-EHYLAMINE

$$$$
