72145
  Mrv1652309251708022D          

 36 40  0  0  1  0            999 V2000
    6.4930    0.2116    0.0000 O   0  0  0  0  0  0  0  0  0  0  0  0
    7.2661   -0.2907    0.0000 O   0  0  0  0  0  0  0  0  0  0  0  0
    8.7612   -1.2767    0.0000 O   0  0  0  0  0  0  0  0  0  0  0  0
    8.7612   -2.6046    0.0000 O   0  0  0  0  0  0  0  0  0  0  0  0
    3.8396   -0.5771    0.0000 O   0  0  0  0  0  0  0  0  0  0  0  0
    3.0030    0.5257    0.0000 O   0  0  0  0  0  0  0  0  0  0  0  0
    6.7456    1.6552    0.0000 O   0  0  0  0  0  0  0  0  0  0  0  0
    3.5338    2.0881    0.0000 O   0  0  0  0  0  0  0  0  0  0  0  0
    5.0666   -1.5111    0.0000 N   0  0  0  0  0  0  0  0  0  0  0  0
    5.1521    2.4097    0.0000 N   0  0  0  0  0  0  0  0  0  0  0  0
    5.8140   -1.0871    0.0000 C   0  0  0  0  0  0  0  0  0  0  0  0
    5.8236   -0.2621    0.0000 C   0  0  0  0  0  0  0  0  0  0  0  0
    6.5516   -1.5282    0.0000 C   0  0  0  0  0  0  0  0  0  0  0  0
    5.0666   -2.3704    0.0000 C   0  0  0  0  0  0  0  0  0  0  0  0
    6.5516   -2.3532    0.0000 C   0  0  0  0  0  0  0  0  0  0  0  0
    5.8140   -2.7943    0.0000 C   0  0  0  0  0  0  0  0  0  0  0  0
    5.1653    0.2269    0.0000 C   0  0  0  0  0  0  0  0  0  0  0  0
    7.2661   -1.1157    0.0000 C   0  0  0  0  0  0  0  0  0  0  0  0
    5.4306    1.0081    0.0000 C   0  0  0  0  0  0  0  0  0  0  0  0
    4.2546   -1.3646    0.0000 C   0  0  0  0  0  0  0  0  0  0  0  0
    7.2661   -2.7657    0.0000 C   0  0  0  0  0  0  0  0  0  0  0  0
    4.3560    0.0661    0.0000 C   0  0  0  0  0  0  0  0  0  0  0  0
    7.9805   -1.5282    0.0000 C   0  0  0  0  0  0  0  0  0  0  0  0
    6.2506    0.9951    0.0000 C   0  0  0  0  0  0  0  0  0  0  0  0
    7.9805   -2.3532    0.0000 C   0  0  0  0  0  0  0  0  0  0  0  0
    4.8868    1.6285    0.0000 C   0  0  0  0  0  0  0  0  0  0  0  0
    3.8122    0.6865    0.0000 C   0  0  0  0  0  0  0  0  0  0  0  0
    4.0776    1.4677    0.0000 C   0  0  0  0  0  0  0  0  0  0  0  0
    9.2426   -1.9407    0.0000 C   0  0  0  0  0  0  0  0  0  0  0  0
    7.9805    0.1217    0.0000 C   0  0  0  0  0  0  0  0  0  0  0  0
    3.0241   -0.4514    0.0000 C   0  0  0  0  0  0  0  0  0  0  0  0
    2.4592    1.1461    0.0000 C   0  0  0  0  0  0  0  0  0  0  0  0
    2.7246    1.9273    0.0000 C   0  0  0  0  0  0  0  0  0  0  0  0
    2.5077   -1.0947    0.0000 C   0  0  0  0  0  0  0  0  0  0  0  0
    1.6500    0.9854    0.0000 C   0  0  0  0  0  0  0  0  0  0  0  0
    2.1807    2.5477    0.0000 C   0  0  0  0  0  0  0  0  0  0  0  0
  1 12  1  0  0  0  0
  1 24  1  0  0  0  0
  2 18  1  0  0  0  0
  2 30  1  0  0  0  0
  3 23  1  0  0  0  0
  3 29  1  0  0  0  0
  4 25  1  0  0  0  0
  4 29  1  0  0  0  0
  5 22  1  0  0  0  0
  5 31  1  0  0  0  0
  6 27  1  0  0  0  0
  6 32  1  0  0  0  0
  7 24  2  0  0  0  0
  8 28  1  0  0  0  0
  8 33  1  0  0  0  0
  9 11  1  0  0  0  0
  9 14  1  0  0  0  0
  9 20  1  0  0  0  0
 10 26  1  0  0  0  0
 11 12  1  0  0  0  0
 11 13  1  0  0  0  0
 12 17  1  0  0  0  0
 13 15  1  0  0  0  0
 13 18  2  0  0  0  0
 14 16  1  0  0  0  0
 15 16  1  0  0  0  0
 15 21  2  0  0  0  0
 17 19  2  0  0  0  0
 17 22  1  0  0  0  0
 18 23  1  0  0  0  0
 19 24  1  0  0  0  0
 19 26  1  0  0  0  0
 21 25  1  0  0  0  0
 22 27  2  0  0  0  0
 23 25  2  0  0  0  0
 26 28  2  0  0  0  0
 27 28  1  0  0  0  0
 31 34  1  0  0  0  0
 32 35  1  0  0  0  0
 33 36  1  0  0  0  0
M  END
> <DATABASE_ID>
DB13711

> <DATABASE_NAME>
drugbank

> <SMILES>
CCOC1=C(OCC)C(OCC)=C(N)C2=C1C(OC2=O)C1N(C)CCC2=CC3=C(OCO3)C(OC)=C12

> <INCHI_IDENTIFIER>
InChI=1S/C26H32N2O8/c1-6-31-23-17-16(18(27)24(32-7-2)25(23)33-8-3)26(29)36-21(17)19-15-13(9-10-28(19)4)11-14-20(22(15)30-5)35-12-34-14/h11,19,21H,6-10,12,27H2,1-5H3

> <INCHI_KEY>
IRGJVQIJENCTQF-UHFFFAOYSA-N

> <FORMULA>
C26H32N2O8

> <MOLECULAR_WEIGHT>
500.548

> <EXACT_MASS>
500.215865998

> <JCHEM_ACCEPTOR_COUNT>
9

> <JCHEM_ATOM_COUNT>
68

> <JCHEM_AVERAGE_POLARIZABILITY>
52.80103588297514

> <JCHEM_BIOAVAILABILITY>
1

> <JCHEM_DONOR_COUNT>
1

> <JCHEM_FORMAL_CHARGE>
0

> <JCHEM_GHOSE_FILTER>
0

> <JCHEM_IUPAC>
7-amino-4,5,6-triethoxy-3-{4-methoxy-6-methyl-2H,5H,6H,7H,8H-[1,3]dioxolo[4,5-g]isoquinolin-5-yl}-1,3-dihydro-2-benzofuran-1-one

> <ALOGPS_LOGP>
2.65

> <JCHEM_LOGP>
3.3145366823333338

> <ALOGPS_LOGS>
-3.39

> <JCHEM_MDDR_LIKE_RULE>
1

> <JCHEM_NUMBER_OF_RINGS>
5

> <JCHEM_PHYSIOLOGICAL_CHARGE>
1

> <JCHEM_PKA>
17.599026661558884

> <JCHEM_PKA_STRONGEST_ACIDIC>
13.287765393231918

> <JCHEM_PKA_STRONGEST_BASIC>
7.056900810809573

> <JCHEM_POLAR_SURFACE_AREA>
110.94000000000001

> <JCHEM_REFRACTIVITY>
132.4855

> <JCHEM_ROTATABLE_BOND_COUNT>
8

> <JCHEM_RULE_OF_FIVE>
0

> <ALOGPS_SOLUBILITY>
2.04e-01 g/l

> <JCHEM_TRADITIONAL_IUPAC>
tritoqualine

> <JCHEM_VEBER_RULE>
0

> <DRUGBANK_ID>
DB13711

> <DRUG_GROUPS>
approved

> <GENERIC_NAME>
Tritoqualine

> <SYNONYMS>
Hypostamin; Hypostamine; Inhibostamin; Tritocualina; Tritoqualine; Tritoqualinum

$$$$
