784
  Mrv0541 02231215002D          

 18 19  0  0  0  0            999 V2000
    3.0791    2.3472    0.0000 O   0  0  0  0  0  0  0  0  0  0  0  0
    2.3645    1.1096    0.0000 O   0  0  0  0  0  0  0  0  0  0  0  0
    3.0791   -0.1279    0.0000 N   0  0  0  0  0  0  0  0  0  0  0  0
    2.3645   -1.3654    0.0000 C   0  0  0  0  0  0  0  0  0  0  0  0
    3.0791   -0.9529    0.0000 C   0  0  0  0  0  0  0  0  0  0  0  0
    2.3645   -2.1904    0.0000 C   0  0  0  0  0  0  0  0  0  0  0  0
    3.7935    0.2846    0.0000 C   0  0  0  0  0  0  0  0  0  0  0  0
    3.7935   -1.3654    0.0000 C   0  0  0  0  0  0  0  0  0  0  0  0
    3.0791   -2.6029    0.0000 C   0  0  0  0  0  0  0  0  0  0  0  0
    1.6500   -0.9529    0.0000 C   0  0  0  0  0  0  0  0  0  0  0  0
    3.7935   -2.1904    0.0000 C   0  0  0  0  0  0  0  0  0  0  0  0
    3.7935    1.1096    0.0000 C   0  0  0  0  0  0  0  0  0  0  0  0
    1.6500   -2.6029    0.0000 C   0  0  0  0  0  0  0  0  0  0  0  0
    4.5080   -0.1279    0.0000 C   0  0  0  0  0  0  0  0  0  0  0  0
    4.5080    1.5222    0.0000 C   0  0  0  0  0  0  0  0  0  0  0  0
    5.2224    0.2846    0.0000 C   0  0  0  0  0  0  0  0  0  0  0  0
    5.2224    1.1096    0.0000 C   0  0  0  0  0  0  0  0  0  0  0  0
    3.0791    1.5222    0.0000 C   0  0  0  0  0  0  0  0  0  0  0  0
  1 18  1  0  0  0  0
  2 18  2  0  0  0  0
  3  5  1  0  0  0  0
  3  7  1  0  0  0  0
  4  5  1  0  0  0  0
  4  6  2  0  0  0  0
  4 10  1  0  0  0  0
  5  8  2  0  0  0  0
  6  9  1  0  0  0  0
  6 13  1  0  0  0  0
  7 12  1  0  0  0  0
  7 14  2  0  0  0  0
  8 11  1  0  0  0  0
  9 11  2  0  0  0  0
 12 15  2  0  0  0  0
 12 18  1  0  0  0  0
 14 16  1  0  0  0  0
 15 17  1  0  0  0  0
 16 17  2  0  0  0  0
M  END
> <DATABASE_ID>
DB00784

> <DATABASE_NAME>
drugbank

> <SMILES>
CC1=C(C)C(NC2=CC=CC=C2C(O)=O)=CC=C1

> <INCHI_IDENTIFIER>
InChI=1S/C15H15NO2/c1-10-6-5-9-13(11(10)2)16-14-8-4-3-7-12(14)15(17)18/h3-9,16H,1-2H3,(H,17,18)

> <INCHI_KEY>
HYYBABOKPJLUIN-UHFFFAOYSA-N

> <FORMULA>
C15H15NO2

> <MOLECULAR_WEIGHT>
241.2851

> <EXACT_MASS>
241.110278729

> <JCHEM_ACCEPTOR_COUNT>
3

> <JCHEM_ATOM_COUNT>
33

> <JCHEM_AVERAGE_NEUTRAL_MICROSPECIES_CHARGE>
-0.99923210671533

> <JCHEM_AVERAGE_POLARIZABILITY>
26.22289356877856

> <JCHEM_BIOAVAILABILITY>
1

> <JCHEM_DONOR_COUNT>
2

> <JCHEM_FORMAL_CHARGE>
0

> <JCHEM_GHOSE_FILTER>
1

> <JCHEM_IUPAC>
2-[(2,3-dimethylphenyl)amino]benzoic acid

> <ALOGPS_LOGP>
4.58

> <JCHEM_LOGP>
5.397597278000001

> <ALOGPS_LOGS>
-4.25

> <JCHEM_MDDR_LIKE_RULE>
0

> <JCHEM_NEUTRAL_CHARGE>
-1

> <JCHEM_NUMBER_OF_RINGS>
2

> <JCHEM_PHYSIOLOGICAL_CHARGE>
-1

> <JCHEM_PKA>
17.769903367226913

> <JCHEM_PKA_STRONGEST_ACIDIC>
3.885850840462833

> <JCHEM_PKA_STRONGEST_BASIC>
-1.5789079095168426

> <JCHEM_POLAR_SURFACE_AREA>
49.33

> <JCHEM_REFRACTIVITY>
71.8828

> <JCHEM_ROTATABLE_BOND_COUNT>
3

> <JCHEM_RULE_OF_FIVE>
0

> <ALOGPS_SOLUBILITY>
1.37e-02 g/l

> <JCHEM_TRADITIONAL_IUPAC>
tetrahydrofolic acid

> <JCHEM_VEBER_RULE>
0

> <DRUGBANK_ID>
DB00784

> <SECONDARY_ACCESSION_NUMBERS>
APRD00730

> <DRUG_GROUPS>
approved

> <GENERIC_NAME>
Mefenamic acid

> <SYNONYMS>
Acide méfénamique; ácido mefenámico; Acidum mefenamicum; Mefenamic acid; Mefenaminsäure; N-(2,3-xylyl)-2-aminobenzoic acid; N-2,3-xylylanthranilic acid

> <PRODUCTS>
Dom-mefenamic Acid; Mefenamic; Mefenamic Acid; Mefenamic acid; Mefenamic-250; Mefenamic-Acid; Novo-mefenamic Capsules 250mg; Nu-mefenamic 250 mg; PMS-mefenamic Acid; Ponstan; Ponstel

> <INTERNATIONAL_BRANDS>
Coslan; Lysalgo; Mefacit; Parkemed; Ponalar; Ponstan Forte; Ponstyl; Ponstyl Fort; Pontal; Tanston

$$$$
