78A
  Mrv0541 02241213172D          

 36 38  0  0  0  0            999 V2000
   -3.0222   -1.0262    0.0000 N   0  0  0  0  0  0  0  0  0  0  0  0
   -3.4347   -1.7406    0.0000 C   0  0  0  0  0  0  0  0  0  0  0  0
   -4.2597   -1.7406    0.0000 C   0  0  0  0  0  0  0  0  0  0  0  0
   -4.6722   -2.4551    0.0000 C   0  0  0  0  0  0  0  0  0  0  0  0
   -5.4972   -2.4551    0.0000 C   0  0  0  0  0  0  0  0  0  0  0  0
   -5.9097   -1.7406    0.0000 C   0  0  0  0  0  0  0  0  0  0  0  0
   -5.4972   -1.0262    0.0000 C   0  0  0  0  0  0  0  0  0  0  0  0
   -4.6722   -1.0262    0.0000 C   0  0  0  0  0  0  0  0  0  0  0  0
   -1.7847   -0.3117    0.0000 C   0  0  1  0  0  0  0  0  0  0  0  0
   -1.7847    0.5133    0.0000 O   0  0  0  0  0  0  0  0  0  0  0  0
   -1.0703    0.1008    0.0000 C   0  0  2  0  0  0  0  0  0  0  0  0
   -0.2453    0.1008    0.0000 C   0  0  0  0  0  0  0  0  0  0  0  0
    0.1672   -0.6137    0.0000 O   0  0  0  0  0  0  0  0  0  0  0  0
    0.1672    0.8153    0.0000 N   0  0  0  0  0  0  0  0  0  0  0  0
    0.9922    0.8153    0.0000 C   0  0  2  0  0  0  0  0  0  0  0  0
    1.4047    1.5298    0.0000 C   0  0  0  0  0  0  0  0  0  0  0  0
    0.9922    2.2442    0.0000 O   0  0  0  0  0  0  0  0  0  0  0  0
    1.4047    0.1008    0.0000 C   0  0  2  0  0  0  0  0  0  0  0  0
    2.2297    0.1008    0.0000 C   0  0  0  0  0  0  0  0  0  0  0  0
    0.9922   -0.6137    0.0000 C   0  0  0  0  0  0  0  0  0  0  0  0
    2.6422   -0.6137    0.0000 C   0  0  0  0  0  0  0  0  0  0  0  0
    2.2297    1.5298    0.0000 N   0  0  0  0  0  0  0  0  0  0  0  0
    2.7147    2.1972    0.0000 C   0  0  2  0  0  0  0  0  0  0  0  0
    2.4597    2.9818    0.0000 C   0  0  0  0  0  0  0  0  0  0  0  0
    1.6528    3.1533    0.0000 O   0  0  0  0  0  0  0  0  0  0  0  0
    3.4993    1.9423    0.0000 C   0  0  0  0  0  0  0  0  0  0  0  0
    3.4993    1.1173    0.0000 C   0  0  0  0  0  0  0  0  0  0  0  0
    2.7147    0.8623    0.0000 C   0  0  0  0  0  0  0  0  0  0  0  0
    3.0118    3.5949    0.0000 O   0  0  0  0  0  0  0  0  0  0  0  0
   -2.1972   -1.0262    0.0000 C   0  0  0  0  0  0  0  0  0  0  0  0
   -1.7847   -1.7406    0.0000 O   0  0  0  0  0  0  0  0  0  0  0  0
   -2.3488   -0.1606    0.0000 H   0  0  0  0  0  0  0  0  0  0  0  0
   -0.9191   -0.4632    0.0000 H   0  0  0  0  0  0  0  0  0  0  0  0
    0.7003    1.3210    0.0000 H   0  0  0  0  0  0  0  0  0  0  0  0
    1.6967    0.6065    0.0000 H   0  0  0  0  0  0  0  0  0  0  0  0
    2.1379    2.2885    0.0000 H   0  0  0  0  0  0  0  0  0  0  0  0
  1  2  1  0  0  0  0
  1 30  1  0  0  0  0
  2  3  1  0  0  0  0
  3  4  1  0  0  0  0
  3  8  2  0  0  0  0
  4  5  2  0  0  0  0
  5  6  1  0  0  0  0
  6  7  2  0  0  0  0
  7  8  1  0  0  0  0
  9 10  1  0  0  0  0
  9 11  1  0  0  0  0
  9 30  1  1  0  0  0
  9 32  1  6  0  0  0
 10 11  1  0  0  0  0
 11 12  1  6  0  0  0
 11 33  1  1  0  0  0
 12 13  2  0  0  0  0
 12 14  1  0  0  0  0
 15 14  1  6  0  0  0
 15 16  1  0  0  0  0
 15 18  1  0  0  0  0
 15 34  1  1  0  0  0
 16 17  2  0  0  0  0
 16 22  1  0  0  0  0
 18 19  1  0  0  0  0
 18 20  1  1  0  0  0
 18 35  1  1  0  0  0
 19 21  1  0  0  0  0
 22 23  1  0  0  0  0
 22 28  1  0  0  0  0
 23 24  1  6  0  0  0
 23 26  1  0  0  0  0
 23 36  1  1  0  0  0
 24 25  1  0  0  0  0
 24 29  2  0  0  0  0
 26 27  1  0  0  0  0
 27 28  1  0  0  0  0
 30 31  2  0  0  0  0
M  END
> <DATABASE_ID>
DB07231

> <DATABASE_NAME>
drugbank

> <SMILES>
[H][C@](C)(CC)[C@]([H])(NC(=O)[C@@]1([H])O[C@]1([H])C(=O)NCC1=CC=CC=C1)C(=O)N1CCC[C@@]1([H])C(O)=O

> <INCHI_IDENTIFIER>
InChI=1S/C22H29N3O6/c1-3-13(2)16(21(28)25-11-7-10-15(25)22(29)30)24-20(27)18-17(31-18)19(26)23-12-14-8-5-4-6-9-14/h4-6,8-9,13,15-18H,3,7,10-12H2,1-2H3,(H,23,26)(H,24,27)(H,29,30)/t13-,15-,16-,17-,18-/m0/s1

> <INCHI_KEY>
MERYMLLGRCNRKE-HILJTLORSA-N

> <FORMULA>
C22H29N3O6

> <MOLECULAR_WEIGHT>
431.4822

> <EXACT_MASS>
431.205635675

> <JCHEM_ACCEPTOR_COUNT>
6

> <JCHEM_ATOM_COUNT>
60

> <JCHEM_AVERAGE_NEUTRAL_MICROSPECIES_CHARGE>
-0.999361939260327

> <JCHEM_AVERAGE_POLARIZABILITY>
44.541828116720474

> <JCHEM_BIOAVAILABILITY>
1

> <JCHEM_DONOR_COUNT>
3

> <JCHEM_FORMAL_CHARGE>
0

> <JCHEM_GHOSE_FILTER>
1

> <JCHEM_IUPAC>
(2S)-1-[(2S,3S)-2-{[(2S,3S)-3-(benzylcarbamoyl)oxiran-2-yl]formamido}-3-methylpentanoyl]pyrrolidine-2-carboxylic acid

> <ALOGPS_LOGP>
1.31

> <JCHEM_LOGP>
1.0058017223333326

> <ALOGPS_LOGS>
-2.95

> <JCHEM_MDDR_LIKE_RULE>
1

> <JCHEM_NEUTRAL_CHARGE>
-1

> <JCHEM_NUMBER_OF_RINGS>
3

> <JCHEM_PHYSIOLOGICAL_CHARGE>
-1

> <JCHEM_PKA>
12.139531356317079

> <JCHEM_PKA_STRONGEST_ACIDIC>
3.810283481520772

> <JCHEM_PKA_STRONGEST_BASIC>
-3.3288127319227874

> <JCHEM_POLAR_SURFACE_AREA>
128.33999999999997

> <JCHEM_REFRACTIVITY>
109.91529999999997

> <JCHEM_ROTATABLE_BOND_COUNT>
9

> <JCHEM_RULE_OF_FIVE>
1

> <ALOGPS_SOLUBILITY>
4.84e-01 g/l

> <JCHEM_TRADITIONAL_IUPAC>
biotin

> <JCHEM_VEBER_RULE>
0

> <DRUGBANK_ID>
DB07231

> <DRUG_GROUPS>
experimental

> <GENERIC_NAME>
N-({(2S,3S)-3-[(BENZYLAMINO)CARBONYL]OXIRAN-2-YL}CARBONYL)-L-ISOLEUCYL-L-PROLINE

$$$$
