806
  Mrv1909 01142116182D          

 20 21  0  0  0  0            999 V2000
    6.6515    1.6500    0.0000 O   0  0  0  0  0  0  0  0  0  0  0  0
    5.2224   -0.8250    0.0000 O   0  0  0  0  0  0  0  0  0  0  0  0
    2.3645    1.6500    0.0000 O   0  0  0  0  0  0  0  0  0  0  0  0
    5.9370    0.4125    0.0000 N   0  0  0  0  0  0  0  0  0  0  0  0
    6.6515   -0.8250    0.0000 N   0  0  0  0  0  0  0  0  0  0  0  0
    8.1466    0.6639    0.0000 N   0  0  0  0  0  0  0  0  0  0  0  0
    8.1466   -0.6639    0.0000 N   0  0  0  0  0  0  0  0  0  0  0  0
    5.2224    0.8250    0.0000 C   0  0  0  0  0  0  0  0  0  0  0  0
    4.5080    0.4125    0.0000 C   0  0  0  0  0  0  0  0  0  0  0  0
    3.7935    0.8250    0.0000 C   0  0  0  0  0  0  0  0  0  0  0  0
    7.3659    0.4125    0.0000 C   0  0  0  0  0  0  0  0  0  0  0  0
    6.6515    0.8250    0.0000 C   0  0  0  0  0  0  0  0  0  0  0  0
    7.3659   -0.4125    0.0000 C   0  0  0  0  0  0  0  0  0  0  0  0
    5.9370   -0.4125    0.0000 C   0  0  0  0  0  0  0  0  0  0  0  0
    3.0791    0.4125    0.0000 C   0  0  0  0  0  0  0  0  0  0  0  0
    8.6280    0.0000    0.0000 C   0  0  0  0  0  0  0  0  0  0  0  0
    6.6515   -1.6500    0.0000 C   0  0  0  0  0  0  0  0  0  0  0  0
    8.4029    1.4482    0.0000 C   0  0  0  0  0  0  0  0  0  0  0  0
    2.3645    0.8250    0.0000 C   0  0  0  0  0  0  0  0  0  0  0  0
    1.6500    0.4125    0.0000 C   0  0  0  0  0  0  0  0  0  0  0  0
  1 12  2  0  0  0  0
  2 14  2  0  0  0  0
  3 19  2  0  0  0  0
  4  8  1  0  0  0  0
  4 12  1  0  0  0  0
  4 14  1  0  0  0  0
  5 13  1  0  0  0  0
  5 14  1  0  0  0  0
  5 17  1  0  0  0  0
  6 11  1  0  0  0  0
  6 16  1  0  0  0  0
  6 18  1  0  0  0  0
  7 13  1  0  0  0  0
  7 16  2  0  0  0  0
  8  9  1  0  0  0  0
  9 10  1  0  0  0  0
 10 15  1  0  0  0  0
 11 12  1  0  0  0  0
 11 13  2  0  0  0  0
 15 19  1  0  0  0  0
 19 20  1  0  0  0  0
M  END
> <DATABASE_ID>
DB00806

> <DATABASE_NAME>
drugbank

> <SMILES>
CN1C=NC2=C1C(=O)N(CCCCC(C)=O)C(=O)N2C

> <INCHI_IDENTIFIER>
InChI=1S/C13H18N4O3/c1-9(18)6-4-5-7-17-12(19)10-11(14-8-15(10)2)16(3)13(17)20/h8H,4-7H2,1-3H3

> <INCHI_KEY>
BYPFEZZEUUWMEJ-UHFFFAOYSA-N

> <FORMULA>
C13H18N4O3

> <MOLECULAR_WEIGHT>
278.307

> <EXACT_MASS>
278.137890462

> <JCHEM_ACCEPTOR_COUNT>
4

> <JCHEM_ATOM_COUNT>
38

> <JCHEM_AVERAGE_NEUTRAL_MICROSPECIES_CHARGE>
6.890690918987495e-09

> <JCHEM_AVERAGE_POLARIZABILITY>
29.26959347931491

> <JCHEM_BIOAVAILABILITY>
1

> <JCHEM_DONOR_COUNT>
0

> <JCHEM_FORMAL_CHARGE>
0

> <JCHEM_GHOSE_FILTER>
1

> <JCHEM_IUPAC>
3,7-dimethyl-1-(5-oxohexyl)-2,3,6,7-tetrahydro-1H-purine-2,6-dione

> <JCHEM_LOGP>
0.23220584566666638

> <JCHEM_MDDR_LIKE_RULE>
0

> <JCHEM_NEUTRAL_CHARGE>
0

> <JCHEM_NUMBER_OF_RINGS>
2

> <JCHEM_PHYSIOLOGICAL_CHARGE>
0

> <JCHEM_PKA_STRONGEST_ACIDIC>
19.64286715835779

> <JCHEM_PKA_STRONGEST_BASIC>
-1.161722457776127

> <JCHEM_POLAR_SURFACE_AREA>
75.51

> <JCHEM_REFRACTIVITY>
73.52229999999999

> <JCHEM_ROTATABLE_BOND_COUNT>
5

> <JCHEM_RULE_OF_FIVE>
1

> <JCHEM_TRADITIONAL_IUPAC>
N-demethyldiltiazem

> <JCHEM_VEBER_RULE>
0

> <DRUGBANK_ID>
DB00806

> <SECONDARY_ACCESSION_NUMBERS>
APRD00121

> <DRUG_GROUPS>
approved; investigational

> <GENERIC_NAME>
Pentoxifylline

> <SYNONYMS>
Oxpentifylline; Pentoxifilina; Pentoxifyllin; Pentoxifylline; Pentoxifyllinum

> <PRODUCTS>
Betamethasone Dipropionate 0.05% / Minoxidil 5% / Niacinamide 2% / Pentoxifylline 0.5%; Gapeam Budibac; Nu-pentoxifylline-SR 400 mg; Pentoxifylline; Pentoxifylline 0.5% / Triamcinolone Acetonide 0.1%; Pentoxifylline SR; Pentoxil; Ratio-pentoxifylline; Trental; Trental Srt 400mg; Trental Tab 400mg; Truemed Group LLC

> <INTERNATIONAL_BRANDS>
Agapurin; Agapurin SR; An Ruo Ning; Angiopent; Ao Le Ni; Ao Nuo Hong; Aotong; Azupentat; Behrifil; Bo Shu Te; Claudicat; Durapental; Elorgan; Endopentoksas; Pentilin; Pentilin Retard; Pentoflux; Pentofyllin; Pentoksifilin; Pentolab; Pentomer; Rentylin; Torental; Trentilin Retard

$$$$
