829
  Mrv0541 02231215022D          

 20 22  0  0  0  0            999 V2000
    2.8172   -2.3592    0.0000 Cl  0  0  0  0  0  0  0  0  0  0  0  0
    2.6107    2.3592    0.0000 O   0  0  0  0  0  0  0  0  0  0  0  0
    2.4542    0.9709    0.0000 N   0  0  0  0  0  0  0  0  0  0  0  0
    4.3080    0.9709    0.0000 N   0  0  0  0  0  0  0  0  0  0  0  0
    3.3811   -0.1914    0.0000 C   0  0  0  0  0  0  0  0  0  0  0  0
    2.6378    0.1666    0.0000 C   0  0  0  0  0  0  0  0  0  0  0  0
    4.1244    0.1666    0.0000 C   0  0  0  0  0  0  0  0  0  0  0  0
    3.7936    1.6159    0.0000 C   0  0  0  0  0  0  0  0  0  0  0  0
    2.9686    1.6159    0.0000 C   0  0  0  0  0  0  0  0  0  0  0  0
    4.7694   -0.3478    0.0000 C   0  0  0  0  0  0  0  0  0  0  0  0
    3.4586   -1.0472    0.0000 C   0  0  0  0  0  0  0  0  0  0  0  0
    1.9205   -0.3065    0.0000 C   0  0  0  0  0  0  0  0  0  0  0  0
    1.6500    1.1545    0.0000 C   0  0  0  0  0  0  0  0  0  0  0  0
    2.7523   -1.5367    0.0000 C   0  0  0  0  0  0  0  0  0  0  0  0
    1.9781   -1.1639    0.0000 C   0  0  0  0  0  0  0  0  0  0  0  0
    5.5374   -0.0464    0.0000 C   0  0  0  0  0  0  0  0  0  0  0  0
    4.6465   -1.1636    0.0000 C   0  0  0  0  0  0  0  0  0  0  0  0
    6.1824   -0.5607    0.0000 C   0  0  0  0  0  0  0  0  0  0  0  0
    5.2915   -1.6779    0.0000 C   0  0  0  0  0  0  0  0  0  0  0  0
    6.0594   -1.3765    0.0000 C   0  0  0  0  0  0  0  0  0  0  0  0
  1 14  1  0  0  0  0
  2  9  2  0  0  0  0
  3  6  1  0  0  0  0
  3  9  1  0  0  0  0
  3 13  1  0  0  0  0
  4  7  2  0  0  0  0
  4  8  1  0  0  0  0
  5  6  2  0  0  0  0
  5  7  1  0  0  0  0
  5 11  1  0  0  0  0
  6 12  1  0  0  0  0
  7 10  1  0  0  0  0
  8  9  1  0  0  0  0
 10 16  2  0  0  0  0
 10 17  1  0  0  0  0
 11 14  2  0  0  0  0
 12 15  2  0  0  0  0
 14 15  1  0  0  0  0
 16 18  1  0  0  0  0
 17 19  2  0  0  0  0
 18 20  2  0  0  0  0
 19 20  1  0  0  0  0
M  END
> <DATABASE_ID>
DB00829

> <DATABASE_NAME>
drugbank

> <SMILES>
CN1C2=C(C=C(Cl)C=C2)C(=NCC1=O)C1=CC=CC=C1

> <INCHI_IDENTIFIER>
InChI=1S/C16H13ClN2O/c1-19-14-8-7-12(17)9-13(14)16(18-10-15(19)20)11-5-3-2-4-6-11/h2-9H,10H2,1H3

> <INCHI_KEY>
AAOVKJBEBIDNHE-UHFFFAOYSA-N

> <FORMULA>
C16H13ClN2O

> <MOLECULAR_WEIGHT>
284.74

> <EXACT_MASS>
284.071640755

> <JCHEM_ACCEPTOR_COUNT>
2

> <JCHEM_ATOM_COUNT>
33

> <JCHEM_AVERAGE_NEUTRAL_MICROSPECIES_CHARGE>
8.344766804600376e-05

> <JCHEM_AVERAGE_POLARIZABILITY>
29.386528122573015

> <JCHEM_BIOAVAILABILITY>
1

> <JCHEM_DONOR_COUNT>
0

> <JCHEM_FORMAL_CHARGE>
0

> <JCHEM_GHOSE_FILTER>
1

> <JCHEM_IUPAC>
7-chloro-1-methyl-5-phenyl-2,3-dihydro-1H-1,4-benzodiazepin-2-one

> <ALOGPS_LOGP>
2.63

> <JCHEM_LOGP>
3.0760865673333337

> <ALOGPS_LOGS>
-4.37

> <JCHEM_MDDR_LIKE_RULE>
0

> <JCHEM_NEUTRAL_CHARGE>
0

> <JCHEM_NUMBER_OF_RINGS>
3

> <JCHEM_PHYSIOLOGICAL_CHARGE>
0

> <JCHEM_PKA_STRONGEST_BASIC>
2.921450447162867

> <JCHEM_POLAR_SURFACE_AREA>
32.67

> <JCHEM_REFRACTIVITY>
79.81190000000002

> <JCHEM_ROTATABLE_BOND_COUNT>
1

> <JCHEM_RULE_OF_FIVE>
1

> <ALOGPS_SOLUBILITY>
1.22e-02 g/l

> <JCHEM_TRADITIONAL_IUPAC>
tetrahydrofolic acid

> <JCHEM_VEBER_RULE>
1

> <DRUGBANK_ID>
DB00829

> <SECONDARY_ACCESSION_NUMBERS>
APRD00642; DB07699

> <DRUG_GROUPS>
approved; illicit; investigational; vet_approved

> <GENERIC_NAME>
Diazepam

> <SYNONYMS>
7-chloro-1,3-dihydro-1-methyl-5-phenyl-2H-1,4-benzodiazepin-2-one; Diazepam; Methyl diazepinone; NRL-1

> <PRODUCTS>
Bio-diazepam; Diastat; Diazemuls; Diazepam; Diazepam 10mg Tablets; Diazepam 10tab 10mg; Diazepam 2mg Tablets; Diazepam 2tab 2mg; Diazepam 5 Tab; Diazepam 5mg Tablets; Diazepam Autoinjector; Diazepam Injection Sdz; Diazepam Injection USP; Diazepam Intensol; E Pam Tab 10mg; E Pam Tab 2mg; E Pam Tab 5mg; Gabavale-5; Meval 2; Meval 5; Novo-dipam Tab 10mg; Novo-dipam Tab 2mg; Novo-dipam Tab 5mg; PMS-diazepam; PMS-diazepam Solution 1mg/ml; Topical Nerve Pain; Topical Pain; Valium; Valium 10 Tab; Valium 5 Tab; Valium Inj Roche 5mg/ml; Valtoco; Vivol

> <INTERNATIONAL_BRANDS>
Diapam; Nervium; Relanium

> <SALTS>
Diazepam hydrochloride

$$$$
