82A
  Mrv0541 02241213192D          

 32 35  0  0  0  0            999 V2000
    2.9203   -0.5065    0.0000 C   0  0  0  0  0  0  0  0  0  0  0  0
    3.5877   -1.8164    0.0000 C   0  0  0  0  0  0  0  0  0  0  0  0
    4.0002   -3.0859    0.0000 N   0  0  0  0  0  0  0  0  0  0  0  0
    3.1752   -3.0859    0.0000 C   0  0  0  0  0  0  0  0  0  0  0  0
    2.9203   -2.3013    0.0000 C   0  0  0  0  0  0  0  0  0  0  0  0
    2.1357   -2.0464    0.0000 C   0  0  0  0  0  0  0  0  0  0  0  0
    1.9642   -1.2394    0.0000 C   0  0  0  0  0  0  0  0  0  0  0  0
    1.1795   -0.9845    0.0000 C   0  0  0  0  0  0  0  0  0  0  0  0
    0.5664   -1.5365    0.0000 C   0  0  0  0  0  0  0  0  0  0  0  0
    0.7380   -2.3435    0.0000 C   0  0  0  0  0  0  0  0  0  0  0  0
    1.5226   -2.5984    0.0000 C   0  0  0  0  0  0  0  0  0  0  0  0
    6.4617    0.0195    0.0000 C   0  0  0  0  0  0  0  0  0  0  0  0
    7.6177   -0.8205    0.0000 C   0  0  0  0  0  0  0  0  0  0  0  0
    8.1026   -0.1530    0.0000 C   0  0  0  0  0  0  0  0  0  0  0  0
    5.4918   -1.3154    0.0000 O   0  0  0  0  0  0  0  0  0  0  0  0
    5.1563   -0.5617    0.0000 C   0  0  0  0  0  0  0  0  0  0  0  0
    5.6412    0.1057    0.0000 C   0  0  1  0  0  0  0  0  0  0  0  0
    5.3056    0.8594    0.0000 N   0  0  0  0  0  0  0  0  0  0  0  0
    4.4852    0.9456    0.0000 C   0  0  0  0  0  0  0  0  0  0  0  0
    4.1496    1.6993    0.0000 O   0  0  0  0  0  0  0  0  0  0  0  0
    4.0002    0.2782    0.0000 C   0  0  0  0  0  0  0  0  0  0  0  0
    4.2552   -0.5065    0.0000 C   0  0  0  0  0  0  0  0  0  0  0  0
    3.5877   -0.9914    0.0000 C   0  0  0  0  0  0  0  0  0  0  0  0
    3.1752    0.2782    0.0000 N   0  0  0  0  0  0  0  0  0  0  0  0
    4.2552   -2.3013    0.0000 N   0  0  0  0  0  0  0  0  0  0  0  0
    0.1249   -2.8955    0.0000 Cl  0  0  0  0  0  0  0  0  0  0  0  0
    6.7972   -0.7342    0.0000 C   0  0  0  0  0  0  0  0  0  0  0  0
    8.9231   -0.2393    0.0000 F   0  0  0  0  0  0  0  0  0  0  0  0
    7.7671    0.6007    0.0000 C   0  0  0  0  0  0  0  0  0  0  0  0
    8.2520    1.2681    0.0000 Cl  0  0  0  0  0  0  0  0  0  0  0  0
    6.9466    0.6869    0.0000 C   0  0  0  0  0  0  0  0  0  0  0  0
    5.8787   -0.4278    0.0000 H   0  0  0  0  0  0  0  0  0  0  0  0
  1 24  1  0  0  0  0
  1 23  2  0  0  0  0
  2 23  1  0  0  0  0
  2 25  2  0  0  0  0
  2  5  1  0  0  0  0
  3 25  1  0  0  0  0
  3  4  1  0  0  0  0
  4  5  2  0  0  0  0
  5  6  1  0  0  0  0
  6 11  1  0  0  0  0
  6  7  2  0  0  0  0
  7  8  1  0  0  0  0
  8  9  2  0  0  0  0
  9 10  1  0  0  0  0
 10 26  1  0  0  0  0
 10 11  2  0  0  0  0
 12 31  2  0  0  0  0
 12 27  1  0  0  0  0
 12 17  1  0  0  0  0
 13 14  1  0  0  0  0
 13 27  2  0  0  0  0
 14 28  1  0  0  0  0
 14 29  2  0  0  0  0
 15 16  1  0  0  0  0
 16 17  1  0  0  0  0
 17 18  1  6  0  0  0
 17 32  1  6  0  0  0
 18 19  1  0  0  0  0
 19 20  2  0  0  0  0
 19 21  1  0  0  0  0
 21 24  1  0  0  0  0
 21 22  2  0  0  0  0
 22 23  1  0  0  0  0
 29 30  1  0  0  0  0
 29 31  1  0  0  0  0
M  END
> <DATABASE_ID>
DB07264

> <DATABASE_NAME>
drugbank

> <SMILES>
[H][C@](CO)(NC(=O)C1=CC(=CN1)C1=NNC=C1C1=CC=CC(Cl)=C1)C1=CC(Cl)=C(F)C=C1

> <INCHI_IDENTIFIER>
InChI=1S/C22H17Cl2FN4O2/c23-15-3-1-2-12(6-15)16-10-27-29-21(16)14-8-19(26-9-14)22(31)28-20(11-30)13-4-5-18(25)17(24)7-13/h1-10,20,26,30H,11H2,(H,27,29)(H,28,31)/t20-/m1/s1

> <INCHI_KEY>
YMUYGRBBEDYUOP-HXUWFJFHSA-N

> <FORMULA>
C22H17Cl2FN4O2

> <MOLECULAR_WEIGHT>
459.3

> <EXACT_MASS>
458.071259427

> <JCHEM_ACCEPTOR_COUNT>
3

> <JCHEM_ATOM_COUNT>
48

> <JCHEM_AVERAGE_NEUTRAL_MICROSPECIES_CHARGE>
1.0950570066885585e-05

> <JCHEM_AVERAGE_POLARIZABILITY>
43.79913923805018

> <JCHEM_BIOAVAILABILITY>
1

> <JCHEM_DONOR_COUNT>
4

> <JCHEM_FORMAL_CHARGE>
0

> <JCHEM_GHOSE_FILTER>
1

> <JCHEM_IUPAC>
N-[(1S)-1-(3-chloro-4-fluorophenyl)-2-hydroxyethyl]-4-[4-(3-chlorophenyl)-1H-pyrazol-3-yl]-1H-pyrrole-2-carboxamide

> <ALOGPS_LOGP>
4.66

> <JCHEM_LOGP>
4.476861918333334

> <ALOGPS_LOGS>
-5.34

> <JCHEM_MDDR_LIKE_RULE>
1

> <JCHEM_NEUTRAL_CHARGE>
0

> <JCHEM_NUMBER_OF_RINGS>
4

> <JCHEM_PHYSIOLOGICAL_CHARGE>
0

> <JCHEM_PKA>
14.559708074511365

> <JCHEM_PKA_STRONGEST_ACIDIC>
12.582514285041677

> <JCHEM_PKA_STRONGEST_BASIC>
2.1334371157636918

> <JCHEM_POLAR_SURFACE_AREA>
93.8

> <JCHEM_REFRACTIVITY>
118.6583

> <JCHEM_ROTATABLE_BOND_COUNT>
6

> <JCHEM_RULE_OF_FIVE>
1

> <ALOGPS_SOLUBILITY>
2.08e-03 g/l

> <JCHEM_TRADITIONAL_IUPAC>
biotin

> <JCHEM_VEBER_RULE>
0

> <DRUGBANK_ID>
DB07264

> <DRUG_GROUPS>
experimental

> <GENERIC_NAME>
(S)-N-(1-(3-CHLORO-4-FLUOROPHENYL)-2-HYDROXYETHYL)-4-(4-(3-CHLOROPHENYL)-1H-PYRAZOL-3-YL)-1H-PYRROLE-2-CARBOXAMIDE

$$$$
