835
  Mrv0541 02231215022D          

 19 20  0  0  1  0            999 V2000
    3.7935   -2.8876    0.0000 Br  0  0  0  0  0  0  0  0  0  0  0  0
    2.3645    2.0625    0.0000 N   0  0  0  0  0  0  0  0  0  0  0  0
    4.5080    1.6500    0.0000 N   0  0  0  0  0  0  0  0  0  0  0  0
    3.7935    0.4125    0.0000 C   0  0  0  0  0  0  0  0  0  0  0  0
    3.0791    0.8250    0.0000 C   0  0  0  0  0  0  0  0  0  0  0  0
    3.0791    1.6500    0.0000 C   0  0  0  0  0  0  0  0  0  0  0  0
    3.7935   -0.4125    0.0000 C   0  0  0  0  0  0  0  0  0  0  0  0
    4.5080    0.8250    0.0000 C   0  0  0  0  0  0  0  0  0  0  0  0
    4.5080   -0.8250    0.0000 C   0  0  0  0  0  0  0  0  0  0  0  0
    3.0791   -0.8250    0.0000 C   0  0  0  0  0  0  0  0  0  0  0  0
    5.2224    0.4125    0.0000 C   0  0  0  0  0  0  0  0  0  0  0  0
    1.6500    1.6500    0.0000 C   0  0  0  0  0  0  0  0  0  0  0  0
    2.3645    2.8876    0.0000 C   0  0  0  0  0  0  0  0  0  0  0  0
    4.5080   -1.6500    0.0000 C   0  0  0  0  0  0  0  0  0  0  0  0
    3.0791   -1.6500    0.0000 C   0  0  0  0  0  0  0  0  0  0  0  0
    5.9370    0.8250    0.0000 C   0  0  0  0  0  0  0  0  0  0  0  0
    3.7935   -2.0625    0.0000 C   0  0  0  0  0  0  0  0  0  0  0  0
    5.2224    2.0625    0.0000 C   0  0  0  0  0  0  0  0  0  0  0  0
    5.9370    1.6500    0.0000 C   0  0  0  0  0  0  0  0  0  0  0  0
  1 17  1  0  0  0  0
  2  6  1  0  0  0  0
  2 12  1  0  0  0  0
  2 13  1  0  0  0  0
  3  8  1  0  0  0  0
  3 18  2  0  0  0  0
  4  5  1  0  0  0  0
  4  7  1  0  0  0  0
  4  8  1  0  0  0  0
  5  6  1  0  0  0  0
  7  9  2  0  0  0  0
  7 10  1  0  0  0  0
  8 11  2  0  0  0  0
  9 14  1  0  0  0  0
 10 15  2  0  0  0  0
 11 16  1  0  0  0  0
 14 17  2  0  0  0  0
 15 17  1  0  0  0  0
 16 19  2  0  0  0  0
 18 19  1  0  0  0  0
M  END
> <DATABASE_ID>
DB00835

> <DATABASE_NAME>
drugbank

> <SMILES>
CN(C)CCC(C1=CC=C(Br)C=C1)C1=CC=CC=N1

> <INCHI_IDENTIFIER>
InChI=1S/C16H19BrN2/c1-19(2)12-10-15(16-5-3-4-11-18-16)13-6-8-14(17)9-7-13/h3-9,11,15H,10,12H2,1-2H3

> <INCHI_KEY>
ZDIGNSYAACHWNL-UHFFFAOYSA-N

> <FORMULA>
C16H19BrN2

> <MOLECULAR_WEIGHT>
319.239

> <EXACT_MASS>
318.073161265

> <JCHEM_ACCEPTOR_COUNT>
2

> <JCHEM_ATOM_COUNT>
38

> <JCHEM_AVERAGE_NEUTRAL_MICROSPECIES_CHARGE>
0.9974034901515103

> <JCHEM_AVERAGE_POLARIZABILITY>
32.075815760458504

> <JCHEM_BIOAVAILABILITY>
1

> <JCHEM_DONOR_COUNT>
0

> <JCHEM_FORMAL_CHARGE>
0

> <JCHEM_GHOSE_FILTER>
1

> <JCHEM_IUPAC>
[3-(4-bromophenyl)-3-(pyridin-2-yl)propyl]dimethylamine

> <ALOGPS_LOGP>
3.63

> <JCHEM_LOGP>
3.749658864

> <ALOGPS_LOGS>
-4.40

> <JCHEM_MDDR_LIKE_RULE>
0

> <JCHEM_NEUTRAL_CHARGE>
1

> <JCHEM_NUMBER_OF_RINGS>
2

> <JCHEM_PHYSIOLOGICAL_CHARGE>
1

> <JCHEM_PKA_STRONGEST_BASIC>
9.478390040370506

> <JCHEM_POLAR_SURFACE_AREA>
16.130000000000003

> <JCHEM_REFRACTIVITY>
83.66830000000002

> <JCHEM_ROTATABLE_BOND_COUNT>
5

> <JCHEM_RULE_OF_FIVE>
1

> <ALOGPS_SOLUBILITY>
1.27e-02 g/l

> <JCHEM_TRADITIONAL_IUPAC>
tetrahydrofolic acid

> <JCHEM_VEBER_RULE>
1

> <DRUGBANK_ID>
DB00835

> <SECONDARY_ACCESSION_NUMBERS>
APRD00832

> <DRUG_GROUPS>
approved

> <GENERIC_NAME>
Brompheniramine

> <SYNONYMS>
[3-(4-Bromo-phenyl)-3-pyridin-2-yl-propyl]-dimethyl-amine; 1-(p-bromophenyl)-1-(2-pyridyl)-3-dimethylaminopropane; 2-(p-bromo-α-(2-dimethylaminoethyl)benzyl)pyridine; 3-(4-bromophenyl)-N,N-dimethyl-3-(2-pyridinyl)-1-propanamine; 3-(p-bromophenyl)-3-(2-pyridyl)-N,N-dimethylpropylamine; BPN; Bromfeniramina; Brompheniramin; Brompheniramine; Bromphéniramine; Brompheniraminum

> <PRODUCTS>
7 Select Cold and Allergy Childrens; AP-Hist DM; Alahist DM; Altidec A; Altipres-B; Assured Childrens Cold and Cough; Atuss Da; Auro Tap Childrens Cold and Allergy; Auromine Childrens Cold and Allergy; BIO Dtuss DMX; BPM Mal Phenyleph HCl DM HBr; Balahist DM Syrup; Basic Care Childrens Cold and Cough; Bio T Pres-B; Bpm-DM-phen; Brohist D; Brom Mal Phenyl HCl Dex HBr; Brom Tapp; Brom Tapp DM; Brom/PSE/DM Cough; Bromax; Bromdex D; Bromfed DM; BromfedDM DM; Bromhist PDX; Bromphenex DM; Brompheniramine Maleate; Brompheniramine Maleate, Pseudoephedrine Hydrochloride and Dextromethorphan Hydrobromide; Brompheniramine Maleate, Pseudoephedrine Hydrochloride and DextromethorphanHydrobromide; Brompheniramine Maleate, Pseudoephedrine Hydrochloride, Dextromethorphan Hydrobromide; Brompheniramine Maleate, Pseudoephedrine Hydrochloride, and Dextromethorphan Hydrobromide; Brompheniramine Phenylephrine DM; Brompheniramine Pseudoephedrine DM; Brompheniramine maleate, pseudoephedrine hydrochloride,; Brompheniramine, Pseudoephedrine, Dextromethorphan; Brotapp; Brotapp DM Cold and Cough; Brotapp PE Liquid; Brotapp PE-DM Cough and Cold; BroveX PEB; BroveX PEB DM; BroveX PSB; BroveX PSB DM; CVS Childrens Cold and Allergy; Carbofed DM; CareOne Childrens Cold and Allergy; CareOne Childrens Cold and Cough; Caring Mill Childrens Cold and Cough; Centussin Dhc; Childrens Cold and Allergy; Childrens Cold and Allergy Relief; Childrens Cold and Cough; Childrens Cold and Cough Relief; Childrens Cough and Cold; Childrens Dibromm Cold and Allergy; Childrens Dibromm Cold and Cough; Childrens Dimetapp Cold and Allergy; Childrens Dimetapp Cold and Cough; Childrens Dimetapp Multi-Symptom Cold Relief Dye-Free; Childrens Metapp Daytime; Childrens Wal Tap DM; Childrens Wal Tap DM Cough and Cold; Childrens Wal Tap Elixer Cold and Allergy; Cold & Allergy Relief - Liq; Cold Liquid; Cold Liquid Grape Flavour; Cold Relief; Cold Relief DM; Cold Syrup; Cold and Allergy; Cold and Allergy Childrens; Cold and Allergy childrens; Cold and Cough; Cold and Cough Childrens; Cold and Cough DM; Cold and Cough Relief children; Cold and Cough childrens; Cough, Cold & Allergy Relief; DG Health Childrens Cold and Cough; DIBROMM with PE; DM Cough and Cold Liquid; DM Cough and Cold Liquid Cherry Flavour; DM Cough and Cold Relief; DM Cough and Cold Syrup; Daytime Cold and Cough and NightTime Cold and Congestion Childrens; Decongestant Antihistaminic Syrup; Dg Health Cold and Allergy Childrens; DiBromm DM; DiBromm with PE; Dibromm Cold and Allergy Childrens; Dibromm Cold and Allergy Relief childrens; Dibromm Cold and Cough Childrens; Dibromm DM; Dicel CD; Dihydrocodeine BPM Phenyleph HCl; Dihydrocodeine/ BPM/ Phenyleph HCl; Dimaphen; Dimaphen DM; Dimegan Inj 10mg/ml; Dimetane DX; Dimetane Elixir 2mg/5ml; Dimetane Expectorant C; Dimetane Expectorant Dc; Dimetane Expectorant Liq; Dimetane Expectorant-C Syr; Dimetane Expectorant-DC Syr; Dimetane Tab 4mg; Dimetapp; Dimetapp Chewable Tablets; Dimetapp Chewables for Kids; Dimetapp Children's Cold & Allergy Tablets; Dimetapp Children's Cold & Fever; Dimetapp Clear; Dimetapp Cold and Allergy; Dimetapp Cold and Cough; Dimetapp Cold and Cough and Dimetapp Nighttime Cold and Congestion; Dimetapp Cold and Cough and Nighttime Cold and Congestion; Dimetapp Cough & Cold Liqui-gels - Cap; Dimetapp Cough, Cold & Flu; Dimetapp DM Cough & Cold; Dimetapp DM Elixir; Dimetapp DM Tab; Dimetapp Elixir; Dimetapp Extentabs; Dimetapp Extra Strength; Dimetapp Extra Strength DM Cough & Cold; Dimetapp Liqui-gels Cap; Dimetapp Oral Infant Cold Drops; Dimetapp Oral Infant Cold and Fever Drops; Dimetapp Oral Infant Drops; Dimetapp Paediatric; Dimetapp Tab; Dimetapp-C; Dimetapp-C Syr; EndaCof DH; EndaCof DM; EndaCof PD; Entre-B; Equaline Childrens Cold and Cough; Equate Childrens Cold and Cough; Extra Strength Cold Liquid; Extra Strength Cold Syrup; Extra Strength DM Cough and Cold Liquid; Extra Strength DM Cough and Cold Syrup; Glenmax PEB; Glenmax PEB DM; Glenmax PEB DM FORTE; Good Neighbor Pharmacy Cold and Allergy Childrens; Good Neighbor Pharmacy Cold and Cough; Good Sense Childrens Cold and Allergy; Good Sense Childrens Cold and Cough; Health Mart Cold and Allergy Childrens; Health Mart Cold and Cough childrens; Healthy Accents Childrens Cold and Cough; Healthy Accents Cold and Allergy Childrens; J-cof Dhc; J-tan D Pd; J-tan Pd; Kids Cold Chewable Tablets; Leader Childrens Cold and Allergy; Leader Childrens Cold and Cough; LoHist DM; LoHist PD; LoHist PEB; LoHist PEB DM; LoHist PSB; LoHist PSB DM; Lodrane D; M-Hist DM; M-end PE; M-end Wc; Mar-cof BP; Maxi-Tuss PE; Mesehist WC; Mucinar Kids PLUS; Myphetane DX; Neo DM; Niva-Hist DM; Oral Infant Cold Drops; Pharmetapp Elixir; Phenylephrine Complex; Pluratuss; Poly-Tussin AC; Presgen B; Q Tapp Cold and Allergy; Q Tapp Cold and Cough; Q-Tapp; Q-Tapp DM; Q-Tapp DM Elixir; RelCof DM; Relhist BP; Robitussin Children's Cold; Robitussin Children's Cough & Cold Bedtime; Rompe Pecho SF FLU; Ru-Hist D; Runny Nose and Cough; Rx Act Cold and Allergy Childrens; Rydex; Rynex DM; Rynex PE; Rynex Pse; ShopRite Childrens Cold and Allergy; ShopRite Childrens Cold and Cough; Signature Care Childrens Cold and Cough; Sildec; Sildec DM; Smart Sense Cold and Allergy Childrens; Smart Sense Cold and Cough; Staflex; Sunmark Cold and Allergy Childrens; Sunmark Cold and Cough DM Childrens; Tantapp Elixir; Tl-hist CD; Tl-hist DM; Topcare Childrens Cold and Allergy; Topcare childrens cold and cough; Trexbrom; Triaminic Cold and Allergy; Tusdec DM; Tussi Pres B; Up and Up Childrens Cold and Cough; V-Hist; V-cof; Vazobid-PD; Wal Tap Childrens; Y-Cof DMX; Y-tuss; healthy accents cold and cough DM

> <INTERNATIONAL_BRANDS>
Bromfed; Bromfenex; Brotane; Dimetane; Lodrane

> <SALTS>
Brompheniramine maleate

$$$$
