849
  Mrv0541 02231215032D          

 18 19  0  0  1  0            999 V2000
    1.6500    0.1658    0.0000 O   0  0  0  0  0  0  0  0  0  0  0  0
    4.5080    0.1658    0.0000 O   0  0  0  0  0  0  0  0  0  0  0  0
    3.0791   -2.3092    0.0000 O   0  0  0  0  0  0  0  0  0  0  0  0
    2.3645   -1.0717    0.0000 N   0  0  0  0  0  0  0  0  0  0  0  0
    3.7935   -1.0717    0.0000 N   0  0  0  0  0  0  0  0  0  0  0  0
    3.0791    0.1658    0.0000 C   0  0  0  0  0  0  0  0  0  0  0  0
    2.6665    0.8803    0.0000 C   0  0  0  0  0  0  0  0  0  0  0  0
    3.4916    0.8803    0.0000 C   0  0  0  0  0  0  0  0  0  0  0  0
    2.3645   -0.2467    0.0000 C   0  0  0  0  0  0  0  0  0  0  0  0
    3.7935   -0.2467    0.0000 C   0  0  0  0  0  0  0  0  0  0  0  0
    1.8415    0.8803    0.0000 C   0  0  0  0  0  0  0  0  0  0  0  0
    3.0791   -1.4842    0.0000 C   0  0  0  0  0  0  0  0  0  0  0  0
    3.0791    1.5948    0.0000 C   0  0  0  0  0  0  0  0  0  0  0  0
    4.3166    0.8803    0.0000 C   0  0  0  0  0  0  0  0  0  0  0  0
    1.6500   -1.4842    0.0000 C   0  0  0  0  0  0  0  0  0  0  0  0
    3.4916    2.3092    0.0000 C   0  0  0  0  0  0  0  0  0  0  0  0
    4.7291    1.5948    0.0000 C   0  0  0  0  0  0  0  0  0  0  0  0
    4.3166    2.3092    0.0000 C   0  0  0  0  0  0  0  0  0  0  0  0
  1  9  2  0  0  0  0
  2 10  2  0  0  0  0
  3 12  2  0  0  0  0
  4  9  1  0  0  0  0
  4 12  1  0  0  0  0
  4 15  1  0  0  0  0
  5 10  1  0  0  0  0
  5 12  1  0  0  0  0
  6  7  1  0  0  0  0
  6  8  1  0  0  0  0
  6  9  1  0  0  0  0
  6 10  1  0  0  0  0
  7 11  1  0  0  0  0
  8 13  2  0  0  0  0
  8 14  1  0  0  0  0
 13 16  1  0  0  0  0
 14 17  2  0  0  0  0
 16 18  2  0  0  0  0
 17 18  1  0  0  0  0
M  END
> <DATABASE_ID>
DB00849

> <DATABASE_NAME>
drugbank

> <SMILES>
CCC1(C(=O)NC(=O)N(C)C1=O)C1=CC=CC=C1

> <INCHI_IDENTIFIER>
InChI=1S/C13H14N2O3/c1-3-13(9-7-5-4-6-8-9)10(16)14-12(18)15(2)11(13)17/h4-8H,3H2,1-2H3,(H,14,16,18)

> <INCHI_KEY>
ALARQZQTBTVLJV-UHFFFAOYSA-N

> <FORMULA>
C13H14N2O3

> <MOLECULAR_WEIGHT>
246.2619

> <EXACT_MASS>
246.100442324

> <JCHEM_ACCEPTOR_COUNT>
3

> <JCHEM_ATOM_COUNT>
32

> <JCHEM_AVERAGE_NEUTRAL_MICROSPECIES_CHARGE>
-0.28521424867960227

> <JCHEM_AVERAGE_POLARIZABILITY>
24.616091664808366

> <JCHEM_BIOAVAILABILITY>
1

> <JCHEM_DONOR_COUNT>
1

> <JCHEM_FORMAL_CHARGE>
0

> <JCHEM_GHOSE_FILTER>
1

> <JCHEM_IUPAC>
5-ethyl-1-methyl-5-phenyl-1,3-diazinane-2,4,6-trione

> <ALOGPS_LOGP>
1.95

> <JCHEM_LOGP>
1.6300061936666659

> <ALOGPS_LOGS>
-2.54

> <JCHEM_MDDR_LIKE_RULE>
0

> <JCHEM_NEUTRAL_CHARGE>
0

> <JCHEM_NUMBER_OF_RINGS>
2

> <JCHEM_PHYSIOLOGICAL_CHARGE>
-1

> <JCHEM_PKA_STRONGEST_ACIDIC>
7.399004668484811

> <JCHEM_POLAR_SURFACE_AREA>
66.48

> <JCHEM_REFRACTIVITY>
64.643

> <JCHEM_ROTATABLE_BOND_COUNT>
2

> <JCHEM_RULE_OF_FIVE>
1

> <ALOGPS_SOLUBILITY>
7.10e-01 g/l

> <JCHEM_TRADITIONAL_IUPAC>
tetrahydrofolic acid

> <JCHEM_VEBER_RULE>
0

> <DRUGBANK_ID>
DB00849

> <SECONDARY_ACCESSION_NUMBERS>
APRD00047

> <DRUG_GROUPS>
approved

> <GENERIC_NAME>
Methylphenobarbital

> <SYNONYMS>
1-Methylphenobarbital; 5-ethyl-1-methyl-5-phenyl-2,4,6(1H,3H,5H)-pyrimidinetrione; 5-Ethyl-1-methyl-5-phenyl-pyrimidine-2,4,6-trione; 5-ethyl-1-methyl-5-phenylbarbituric acid; Enphenemal; Mephobarbital; Mephobarbitone; Méthylphénobarbital; Methylphenobarbital; Methylphenobarbitalum; Methylphenobarbitone; Metilfenobarbital; Metilfenobarbitale; N-Methylphenobarbital

> <PRODUCTS>
Mebaral; Mephobarbital

> <INTERNATIONAL_BRANDS>
Mephyltaletten; Phemiton; Phemitone; Phenmiton; Prominal

$$$$
