864
  Mrv0541 02241213192D          

 33 34  0  0  0  0            999 V2000
    1.6736   -0.1724    0.0000 C   0  0  2  0  0  0  0  0  0  0  0  0
    1.7414    0.6499    0.0000 C   0  0  0  0  0  0  0  0  0  0  0  0
    2.3518   -0.6422    0.0000 C   0  0  0  0  0  0  0  0  0  0  0  0
    2.2839   -1.4644    0.0000 C   0  0  0  0  0  0  0  0  0  0  0  0
    2.9621   -1.9342    0.0000 C   0  0  0  0  0  0  0  0  0  0  0  0
    3.7080   -1.5819    0.0000 C   0  0  0  0  0  0  0  0  0  0  0  0
    3.7759   -0.7596    0.0000 C   0  0  0  0  0  0  0  0  0  0  0  0
    3.0977   -0.2898    0.0000 C   0  0  0  0  0  0  0  0  0  0  0  0
    4.5218   -0.4073    0.0000 C   0  0  0  0  0  0  0  0  0  0  0  0
    5.2000   -0.8771    0.0000 N   0  0  0  0  0  0  0  0  0  0  0  0
    2.4874    1.0022    0.0000 O   0  0  0  0  0  0  0  0  0  0  0  0
    1.0633    1.1197    0.0000 O   0  0  0  0  0  0  0  0  0  0  0  0
    0.9276   -0.5247    0.0000 C   0  0  0  0  0  0  0  0  0  0  0  0
    0.2495   -0.0549    0.0000 P   0  0  1  0  0  0  0  0  0  0  0  0
   -0.4286    0.4149    0.0000 C   0  0  2  0  0  0  0  0  0  0  0  0
   -0.3608    1.2371    0.0000 C   0  0  0  0  0  0  0  0  0  0  0  0
   -1.0390    1.7070    0.0000 C   0  0  0  0  0  0  0  0  0  0  0  0
    0.3851    1.5895    0.0000 C   0  0  0  0  0  0  0  0  0  0  0  0
   -1.1746    0.0626    0.0000 N   0  0  0  0  0  0  0  0  0  0  0  0
   -1.8528    0.5324    0.0000 C   0  0  0  0  0  0  0  0  0  0  0  0
   -1.7849    1.3546    0.0000 O   0  0  0  0  0  0  0  0  0  0  0  0
   -2.5987    0.1800    0.0000 O   0  0  0  0  0  0  0  0  0  0  0  0
   -3.2769    0.6499    0.0000 C   0  0  0  0  0  0  0  0  0  0  0  0
    0.7193    0.6233    0.0000 O   0  0  0  0  0  0  0  0  0  0  0  0
   -0.2203   -0.7330    0.0000 O   0  0  0  0  0  0  0  0  0  0  0  0
   -4.0228    0.2975    0.0000 C   0  0  0  0  0  0  0  0  0  0  0  0
   -4.7010    0.7673    0.0000 C   0  0  0  0  0  0  0  0  0  0  0  0
   -5.4469    0.4149    0.0000 C   0  0  0  0  0  0  0  0  0  0  0  0
   -5.5147   -0.4073    0.0000 C   0  0  0  0  0  0  0  0  0  0  0  0
   -4.8366   -0.8771    0.0000 C   0  0  0  0  0  0  0  0  0  0  0  0
   -4.0906   -0.5247    0.0000 C   0  0  0  0  0  0  0  0  0  0  0  0
    1.6256   -0.7543    0.0000 H   0  0  0  0  0  0  0  0  0  0  0  0
    0.0993    0.6643    0.0000 H   0  0  0  0  0  0  0  0  0  0  0  0
  1  3  1  0  0  0  0
  1 13  1  0  0  0  0
  1  2  1  1  0  0  0
  1 32  1  1  0  0  0
  2 12  2  0  0  0  0
  2 11  1  0  0  0  0
  3  8  2  0  0  0  0
  3  4  1  0  0  0  0
  4  5  2  0  0  0  0
  5  6  1  0  0  0  0
  6  7  2  0  0  0  0
  7  9  1  0  0  0  0
  7  8  1  0  0  0  0
  9 10  1  0  0  0  0
 14 13  1  1  0  0  0
 14 24  2  0  0  0  0
 14 15  1  0  0  0  0
 14 25  1  6  0  0  0
 15 16  1  0  0  0  0
 15 19  1  6  0  0  0
 15 33  1  6  0  0  0
 16 17  1  0  0  0  0
 16 18  1  0  0  0  0
 19 20  1  0  0  0  0
 20 21  2  0  0  0  0
 20 22  1  0  0  0  0
 22 23  1  0  0  0  0
 23 26  1  0  0  0  0
 26 31  2  0  0  0  0
 26 27  1  0  0  0  0
 27 28  2  0  0  0  0
 28 29  1  0  0  0  0
 29 30  2  0  0  0  0
 30 31  1  0  0  0  0
M  END
> <DATABASE_ID>
DB07269

> <DATABASE_NAME>
drugbank

> <SMILES>
[H][C@@](C[P@](O)(=O)[C@@]([H])(NC(=O)OCC1=CC=CC=C1)C(C)C)(C(O)=O)C1=CC(CN)=CC=C1

> <INCHI_IDENTIFIER>
InChI=1S/C22H29N2O6P/c1-15(2)20(24-22(27)30-13-16-7-4-3-5-8-16)31(28,29)14-19(21(25)26)18-10-6-9-17(11-18)12-23/h3-11,15,19-20H,12-14,23H2,1-2H3,(H,24,27)(H,25,26)(H,28,29)/t19-,20+/m0/s1

> <INCHI_KEY>
SFUOOKBZBVUDBC-VQTJNVASSA-N

> <FORMULA>
C22H29N2O6P

> <MOLECULAR_WEIGHT>
448.4492

> <EXACT_MASS>
448.176323182

> <JCHEM_ACCEPTOR_COUNT>
6

> <JCHEM_ATOM_COUNT>
60

> <JCHEM_AVERAGE_NEUTRAL_MICROSPECIES_CHARGE>
-1.0029081565682818

> <JCHEM_AVERAGE_POLARIZABILITY>
46.14147011645404

> <JCHEM_BIOAVAILABILITY>
1

> <JCHEM_DONOR_COUNT>
4

> <JCHEM_FORMAL_CHARGE>
0

> <JCHEM_GHOSE_FILTER>
1

> <JCHEM_IUPAC>
(2S)-2-[3-(aminomethyl)phenyl]-3-{[(1R)-1-{[(benzyloxy)carbonyl]amino}-2-methylpropyl](hydroxy)phosphoryl}propanoic acid

> <ALOGPS_LOGP>
0.01

> <JCHEM_LOGP>
1.4594443832300208

> <ALOGPS_LOGS>
-4.30

> <JCHEM_MDDR_LIKE_RULE>
0

> <JCHEM_NEUTRAL_CHARGE>
-1

> <JCHEM_NUMBER_OF_RINGS>
2

> <JCHEM_PHYSIOLOGICAL_CHARGE>
-1

> <JCHEM_PKA>
4.0737404160213915

> <JCHEM_PKA_STRONGEST_ACIDIC>
1.5329543251455573

> <JCHEM_PKA_STRONGEST_BASIC>
9.276538652288085

> <JCHEM_POLAR_SURFACE_AREA>
138.95

> <JCHEM_REFRACTIVITY>
116.954

> <JCHEM_ROTATABLE_BOND_COUNT>
11

> <JCHEM_RULE_OF_FIVE>
1

> <ALOGPS_SOLUBILITY>
2.27e-02 g/l

> <JCHEM_TRADITIONAL_IUPAC>
biotin

> <JCHEM_VEBER_RULE>
0

> <DRUGBANK_ID>
DB07269

> <DRUG_GROUPS>
experimental

> <GENERIC_NAME>
(2S)-2-[3-(AMINOMETHYL)PHENYL]-3-[(R)-[(1R)-1-{[(BENZYLOXY)CARBONYL]AMINO}-2-METHYLPROPYL](HYDROXY)PHOSPHORYL]PROPANOIC ACID

$$$$
