872
  Mrv0541 02231215042D          

 38 43  0  0  0  0            999 V2000
    2.4353   -0.6931    0.0000 O   0  0  0  0  0  0  0  0  0  0  0  0
    3.9363    2.7769    0.0000 O   0  0  0  0  0  0  0  0  0  0  0  0
    3.6160   -1.4980    0.0000 N   0  0  0  0  0  0  0  0  0  0  0  0
    5.3370   -3.5416    0.0000 N   0  0  0  0  0  0  0  0  0  0  0  0
    4.1407   -4.1177    0.0000 N   0  0  0  0  0  0  0  0  0  0  0  0
    5.1170    1.9719    0.0000 N   0  0  0  0  0  0  0  0  0  0  0  0
    4.9554   -2.1430    0.0000 C   0  0  0  0  0  0  0  0  0  0  0  0
    4.4410   -1.4980    0.0000 C   0  0  0  0  0  0  0  0  0  0  0  0
    4.7718   -2.9473    0.0000 C   0  0  0  0  0  0  0  0  0  0  0  0
    4.0285   -3.3053    0.0000 C   0  0  0  0  0  0  0  0  0  0  0  0
    3.1016   -2.1430    0.0000 C   0  0  0  0  0  0  0  0  0  0  0  0
    3.2852   -2.9473    0.0000 C   0  0  0  0  0  0  0  0  0  0  0  0
    4.9478   -4.2635    0.0000 C   0  0  0  0  0  0  0  0  0  0  0  0
    3.2580   -0.7547    0.0000 C   0  0  0  0  0  0  0  0  0  0  0  0
    2.2844   -1.8771    0.0000 C   0  0  0  0  0  0  0  0  0  0  0  0
    2.6644   -3.5415    0.0000 C   0  0  0  0  0  0  0  0  0  0  0  0
    3.7228   -0.0731    0.0000 C   0  0  0  0  0  0  0  0  0  0  0  0
    1.6500   -2.4567    0.0000 C   0  0  0  0  0  0  0  0  0  0  0  0
    1.8412   -3.2946    0.0000 C   0  0  0  0  0  0  0  0  0  0  0  0
    5.3057   -5.0068    0.0000 C   0  0  0  0  0  0  0  0  0  0  0  0
    3.3649    0.6702    0.0000 C   0  0  0  0  0  0  0  0  0  0  0  0
    4.5454   -0.1347    0.0000 C   0  0  0  0  0  0  0  0  0  0  0  0
    4.6523    1.2902    0.0000 C   0  0  0  0  0  0  0  0  0  0  0  0
    3.8296    1.3519    0.0000 C   0  0  0  0  0  0  0  0  0  0  0  0
    5.0103    0.5470    0.0000 C   0  0  0  0  0  0  0  0  0  0  0  0
    5.2238    3.3969    0.0000 C   0  0  0  0  0  0  0  0  0  0  0  0
    4.8658    4.1401    0.0000 C   0  0  0  0  0  0  0  0  0  0  0  0
    4.7590    2.7152    0.0000 C   0  0  0  0  0  0  0  0  0  0  0  0
    4.0431    4.2018    0.0000 C   0  0  0  0  0  0  0  0  0  0  0  0
    6.0465    3.3352    0.0000 C   0  0  0  0  0  0  0  0  0  0  0  0
    5.3306    4.8218    0.0000 C   0  0  0  0  0  0  0  0  0  0  0  0
    6.5113    4.0169    0.0000 C   0  0  0  0  0  0  0  0  0  0  0  0
    6.1533    4.7601    0.0000 C   0  0  0  0  0  0  0  0  0  0  0  0
    3.5784    3.5201    0.0000 C   0  0  0  0  0  0  0  0  0  0  0  0
    3.6852    4.9451    0.0000 C   0  0  0  0  0  0  0  0  0  0  0  0
    2.7557    3.5818    0.0000 C   0  0  0  0  0  0  0  0  0  0  0  0
    2.8625    5.0068    0.0000 C   0  0  0  0  0  0  0  0  0  0  0  0
    2.3977    4.3251    0.0000 C   0  0  0  0  0  0  0  0  0  0  0  0
  1 14  2  0  0  0  0
  2 28  2  0  0  0  0
  3  8  1  0  0  0  0
  3 11  1  0  0  0  0
  3 14  1  0  0  0  0
  4  9  1  0  0  0  0
  4 13  1  0  0  0  0
  5 10  1  0  0  0  0
  5 13  2  0  0  0  0
  6 23  1  0  0  0  0
  6 28  1  0  0  0  0
  7  8  1  0  0  0  0
  7  9  1  0  0  0  0
  9 10  2  0  0  0  0
 10 12  1  0  0  0  0
 11 12  1  0  0  0  0
 11 15  2  0  0  0  0
 12 16  2  0  0  0  0
 13 20  1  0  0  0  0
 14 17  1  0  0  0  0
 15 18  1  0  0  0  0
 16 19  1  0  0  0  0
 17 21  2  0  0  0  0
 17 22  1  0  0  0  0
 18 19  2  0  0  0  0
 21 24  1  0  0  0  0
 22 25  2  0  0  0  0
 23 24  2  0  0  0  0
 23 25  1  0  0  0  0
 26 27  1  0  0  0  0
 26 28  1  0  0  0  0
 26 30  2  0  0  0  0
 27 29  1  0  0  0  0
 27 31  2  0  0  0  0
 29 34  2  0  0  0  0
 29 35  1  0  0  0  0
 30 32  1  0  0  0  0
 31 33  1  0  0  0  0
 32 33  2  0  0  0  0
 34 36  1  0  0  0  0
 35 37  2  0  0  0  0
 36 38  2  0  0  0  0
 37 38  1  0  0  0  0
M  END
> <DATABASE_ID>
DB00872

> <DATABASE_NAME>
drugbank

> <SMILES>
CC1=NC2=C(CCN(C(=O)C3=CC=C(NC(=O)C4=CC=CC=C4C4=CC=CC=C4)C=C3)C3=CC=CC=C23)N1

> <INCHI_IDENTIFIER>
InChI=1S/C32H26N4O2/c1-21-33-28-19-20-36(29-14-8-7-13-27(29)30(28)34-21)32(38)23-15-17-24(18-16-23)35-31(37)26-12-6-5-11-25(26)22-9-3-2-4-10-22/h2-18H,19-20H2,1H3,(H,33,34)(H,35,37)

> <INCHI_KEY>
IKENVDNFQMCRTR-UHFFFAOYSA-N

> <FORMULA>
C32H26N4O2

> <MOLECULAR_WEIGHT>
498.5744

> <EXACT_MASS>
498.205576096

> <JCHEM_ACCEPTOR_COUNT>
3

> <JCHEM_ATOM_COUNT>
64

> <JCHEM_AVERAGE_NEUTRAL_MICROSPECIES_CHARGE>
0.1442598212390716

> <JCHEM_AVERAGE_POLARIZABILITY>
55.51269498872905

> <JCHEM_BIOAVAILABILITY>
1

> <JCHEM_DONOR_COUNT>
2

> <JCHEM_FORMAL_CHARGE>
0

> <JCHEM_GHOSE_FILTER>
0

> <JCHEM_IUPAC>
N-(4-{4-methyl-3,5,9-triazatricyclo[8.4.0.0^{2,6}]tetradeca-1(14),2(6),3,10,12-pentaene-9-carbonyl}phenyl)-[1,1'-biphenyl]-2-carboxamide

> <ALOGPS_LOGP>
5.23

> <JCHEM_LOGP>
5.437165417333334

> <ALOGPS_LOGS>
-5.46

> <JCHEM_MDDR_LIKE_RULE>
0

> <JCHEM_NEUTRAL_CHARGE>
0

> <JCHEM_NUMBER_OF_RINGS>
6

> <JCHEM_PHYSIOLOGICAL_CHARGE>
0

> <JCHEM_PKA>
15.349329964152055

> <JCHEM_PKA_STRONGEST_ACIDIC>
13.527377509572448

> <JCHEM_PKA_STRONGEST_BASIC>
6.226804504631476

> <JCHEM_POLAR_SURFACE_AREA>
78.09

> <JCHEM_REFRACTIVITY>
150.83429999999996

> <JCHEM_ROTATABLE_BOND_COUNT>
4

> <JCHEM_RULE_OF_FIVE>
0

> <ALOGPS_SOLUBILITY>
1.75e-03 g/l

> <JCHEM_TRADITIONAL_IUPAC>
tetrahydrofolic acid

> <JCHEM_VEBER_RULE>
0

> <DRUGBANK_ID>
DB00872

> <SECONDARY_ACCESSION_NUMBERS>
APRD01302

> <DRUG_GROUPS>
approved; investigational

> <GENERIC_NAME>
Conivaptan

> <SYNONYMS>
4'-((4,5-dihydro-2-methylimidazo(4,5-d)(1)benzazepin-6(1H)-yl)carbonyl)-2-biphenylcarboxanilide; Conivaptan

> <PRODUCTS>
Vaprisol; Vaprisol Dextrose In Plastic Container

> <SALTS>
Conivaptan hydrochloride

$$$$
