897
  Mrv0541 02231215052D          

 23 26  0  0  0  0            999 V2000
    1.6500   -0.2321    0.0000 Cl  0  0  0  0  0  0  0  0  0  0  0  0
    5.3329    1.8438    0.0000 Cl  0  0  0  0  0  0  0  0  0  0  0  0
    4.8159   -1.3269    0.0000 N   0  0  0  0  0  0  0  0  0  0  0  0
    5.2284    0.4805    0.0000 N   0  0  0  0  0  0  0  0  0  0  0  0
    6.1244   -1.5631    0.0000 N   0  0  0  0  0  0  0  0  0  0  0  0
    5.7352   -2.2849    0.0000 N   0  0  0  0  0  0  0  0  0  0  0  0
    4.0726   -0.9689    0.0000 C   0  0  0  0  0  0  0  0  0  0  0  0
    3.8890   -0.1645    0.0000 C   0  0  0  0  0  0  0  0  0  0  0  0
    5.5592   -0.9689    0.0000 C   0  0  0  0  0  0  0  0  0  0  0  0
    4.4034    0.4805    0.0000 C   0  0  0  0  0  0  0  0  0  0  0  0
    5.7428   -0.1645    0.0000 C   0  0  0  0  0  0  0  0  0  0  0  0
    4.9281   -2.1392    0.0000 C   0  0  0  0  0  0  0  0  0  0  0  0
    3.4517   -1.5630    0.0000 C   0  0  0  0  0  0  0  0  0  0  0  0
    4.0454    1.2238    0.0000 C   0  0  0  0  0  0  0  0  0  0  0  0
    3.0718    0.1014    0.0000 C   0  0  0  0  0  0  0  0  0  0  0  0
    2.6286   -1.3160    0.0000 C   0  0  0  0  0  0  0  0  0  0  0  0
    2.4374   -0.4783    0.0000 C   0  0  0  0  0  0  0  0  0  0  0  0
    4.3328   -2.7104    0.0000 C   0  0  0  0  0  0  0  0  0  0  0  0
    4.5102    1.9054    0.0000 C   0  0  0  0  0  0  0  0  0  0  0  0
    3.2227    1.2854    0.0000 C   0  0  0  0  0  0  0  0  0  0  0  0
    4.1523    2.6488    0.0000 C   0  0  0  0  0  0  0  0  0  0  0  0
    2.8648    2.0288    0.0000 C   0  0  0  0  0  0  0  0  0  0  0  0
    3.3296    2.7104    0.0000 C   0  0  0  0  0  0  0  0  0  0  0  0
  1 17  1  0  0  0  0
  2 19  1  0  0  0  0
  3  7  1  0  0  0  0
  3  9  1  0  0  0  0
  3 12  1  0  0  0  0
  4 10  2  0  0  0  0
  4 11  1  0  0  0  0
  5  6  1  0  0  0  0
  5  9  2  0  0  0  0
  6 12  2  0  0  0  0
  7  8  2  0  0  0  0
  7 13  1  0  0  0  0
  8 10  1  0  0  0  0
  8 15  1  0  0  0  0
  9 11  1  0  0  0  0
 10 14  1  0  0  0  0
 12 18  1  0  0  0  0
 13 16  2  0  0  0  0
 14 19  1  0  0  0  0
 14 20  2  0  0  0  0
 15 17  2  0  0  0  0
 16 17  1  0  0  0  0
 19 21  2  0  0  0  0
 20 22  1  0  0  0  0
 21 23  1  0  0  0  0
 22 23  2  0  0  0  0
M  END
> <DATABASE_ID>
DB00897

> <DATABASE_NAME>
drugbank

> <SMILES>
CC1=NN=C2CN=C(C3=CC=CC=C3Cl)C3=C(C=CC(Cl)=C3)N12

> <INCHI_IDENTIFIER>
InChI=1S/C17H12Cl2N4/c1-10-21-22-16-9-20-17(12-4-2-3-5-14(12)19)13-8-11(18)6-7-15(13)23(10)16/h2-8H,9H2,1H3

> <INCHI_KEY>
JOFWLTCLBGQGBO-UHFFFAOYSA-N

> <FORMULA>
C17H12Cl2N4

> <MOLECULAR_WEIGHT>
343.21

> <EXACT_MASS>
342.043901818

> <JCHEM_ACCEPTOR_COUNT>
3

> <JCHEM_ATOM_COUNT>
35

> <JCHEM_AVERAGE_NEUTRAL_MICROSPECIES_CHARGE>
0.0018194045941978445

> <JCHEM_AVERAGE_POLARIZABILITY>
34.187802417636824

> <JCHEM_BIOAVAILABILITY>
1

> <JCHEM_DONOR_COUNT>
0

> <JCHEM_FORMAL_CHARGE>
0

> <JCHEM_GHOSE_FILTER>
1

> <JCHEM_IUPAC>
12-chloro-9-(2-chlorophenyl)-3-methyl-2,4,5,8-tetraazatricyclo[8.4.0.0^{2,6}]tetradeca-1(10),3,5,8,11,13-hexaene

> <ALOGPS_LOGP>
2.94

> <JCHEM_LOGP>
3.6271971

> <ALOGPS_LOGS>
-4.27

> <JCHEM_MDDR_LIKE_RULE>
0

> <JCHEM_NEUTRAL_CHARGE>
0

> <JCHEM_NUMBER_OF_RINGS>
4

> <JCHEM_PHYSIOLOGICAL_CHARGE>
0

> <JCHEM_PKA_STRONGEST_ACIDIC>
17.97783975394493

> <JCHEM_PKA_STRONGEST_BASIC>
4.261726569219557

> <JCHEM_POLAR_SURFACE_AREA>
43.07

> <JCHEM_REFRACTIVITY>
103.68380000000002

> <JCHEM_ROTATABLE_BOND_COUNT>
1

> <JCHEM_RULE_OF_FIVE>
1

> <ALOGPS_SOLUBILITY>
1.83e-02 g/l

> <JCHEM_TRADITIONAL_IUPAC>
tetrahydrofolic acid

> <JCHEM_VEBER_RULE>
0

> <DRUGBANK_ID>
DB00897

> <SECONDARY_ACCESSION_NUMBERS>
APRD00313

> <DRUG_GROUPS>
approved; investigational

> <GENERIC_NAME>
Triazolam

> <SYNONYMS>
Triazolam; Triazolamum

> <PRODUCTS>
Alti-triazolam Tab 0.125mg; Alti-triazolam Tab 0.25mg; Halcion; Mylan-triazolam; Novo-triolam Tab 0.125mg; Novo-triolam Tab 0.25mg; Penta-triazolam Tablets; Triazolam; Triazolam Tab 0.125mg; Triazolam Tab 0.25mg; Triazolam Tablets 0.125mg; Triazolam Tablets 0.25mg

> <INTERNATIONAL_BRANDS>
Apo-Triazo; Arring; Asasion; Ascomarna; Songar

$$$$
