910
  Mrv0541 02241213202D          

 28 30  0  0  0  0            999 V2000
    0.1476   -1.3016    0.0000 S   0  0  0  0  0  0  0  0  0  0  0  0
   -0.1074   -2.0862    0.0000 C   0  0  0  0  0  0  0  0  0  0  0  0
   -0.9324   -2.0862    0.0000 C   0  0  0  0  0  0  0  0  0  0  0  0
   -1.1873   -1.3016    0.0000 C   0  0  0  0  0  0  0  0  0  0  0  0
   -0.5199   -0.8167    0.0000 C   0  0  0  0  0  0  0  0  0  0  0  0
    0.3775   -2.7536    0.0000 C   0  0  0  0  0  0  0  0  0  0  0  0
    0.0420   -3.5073    0.0000 O   0  0  0  0  0  0  0  0  0  0  0  0
    1.1980   -2.6674    0.0000 O   0  0  0  0  0  0  0  0  0  0  0  0
   -0.5199    0.0083    0.0000 C   0  0  0  0  0  0  0  0  0  0  0  0
   -1.2343    0.4208    0.0000 C   0  0  0  0  0  0  0  0  0  0  0  0
   -1.2343    1.2458    0.0000 C   0  0  0  0  0  0  0  0  0  0  0  0
   -0.5199    1.6583    0.0000 C   0  0  0  0  0  0  0  0  0  0  0  0
    0.1946    1.2458    0.0000 C   0  0  0  0  0  0  0  0  0  0  0  0
    0.1946    0.4208    0.0000 C   0  0  0  0  0  0  0  0  0  0  0  0
   -1.9719   -1.0466    0.0000 Br  0  0  0  0  0  0  0  0  0  0  0  0
   -1.4173   -2.7536    0.0000 O   0  0  0  0  0  0  0  0  0  0  0  0
   -1.0817   -3.5073    0.0000 C   0  0  0  0  0  0  0  0  0  0  0  0
   -1.5667   -4.1748    0.0000 C   0  0  0  0  0  0  0  0  0  0  0  0
   -1.2311   -4.9284    0.0000 O   0  0  0  0  0  0  0  0  0  0  0  0
   -2.3871   -4.0885    0.0000 O   0  0  0  0  0  0  0  0  0  0  0  0
   -1.9488    1.6583    0.0000 N   0  0  0  0  0  0  0  0  0  0  0  0
   -1.9488    2.4833    0.0000 C   0  0  0  0  0  0  0  0  0  0  0  0
   -1.2343    2.8958    0.0000 C   0  0  0  0  0  0  0  0  0  0  0  0
   -1.2343    3.7208    0.0000 C   0  0  0  0  0  0  0  0  0  0  0  0
   -0.5199    4.1333    0.0000 C   0  0  0  0  0  0  0  0  0  0  0  0
    0.1946    3.7208    0.0000 C   0  0  0  0  0  0  0  0  0  0  0  0
    0.1946    2.8958    0.0000 C   0  0  0  0  0  0  0  0  0  0  0  0
   -0.5199    2.4833    0.0000 C   0  0  0  0  0  0  0  0  0  0  0  0
  1  2  1  0  0  0  0
  1  5  1  0  0  0  0
  2  3  2  0  0  0  0
  2  6  1  0  0  0  0
  3  4  1  0  0  0  0
  3 16  1  0  0  0  0
  4  5  2  0  0  0  0
  4 15  1  0  0  0  0
  5  9  1  0  0  0  0
  6  7  1  0  0  0  0
  6  8  2  0  0  0  0
  9 10  1  0  0  0  0
  9 14  2  0  0  0  0
 10 11  2  0  0  0  0
 11 12  1  0  0  0  0
 11 21  1  0  0  0  0
 12 13  2  0  0  0  0
 13 14  1  0  0  0  0
 16 17  1  0  0  0  0
 17 18  1  0  0  0  0
 18 19  1  0  0  0  0
 18 20  2  0  0  0  0
 21 22  1  0  0  0  0
 22 23  1  0  0  0  0
 23 24  2  0  0  0  0
 23 28  1  0  0  0  0
 24 25  1  0  0  0  0
 25 26  2  0  0  0  0
 26 27  1  0  0  0  0
 27 28  2  0  0  0  0
M  END
> <DATABASE_ID>
DB07289

> <DATABASE_NAME>
drugbank

> <SMILES>
OC(=O)COC1=C(SC(=C1Br)C1=CC=CC(NCC2=CC=CC=C2)=C1)C(O)=O

> <INCHI_IDENTIFIER>
InChI=1S/C20H16BrNO5S/c21-16-17(27-11-15(23)24)19(20(25)26)28-18(16)13-7-4-8-14(9-13)22-10-12-5-2-1-3-6-12/h1-9,22H,10-11H2,(H,23,24)(H,25,26)

> <INCHI_KEY>
XEQPGVUGYAUMSA-UHFFFAOYSA-N

> <FORMULA>
C20H16BrNO5S

> <MOLECULAR_WEIGHT>
462.314

> <EXACT_MASS>
460.993255964

> <JCHEM_ACCEPTOR_COUNT>
6

> <JCHEM_ATOM_COUNT>
44

> <JCHEM_AVERAGE_NEUTRAL_MICROSPECIES_CHARGE>
-1.9983789676847565

> <JCHEM_AVERAGE_POLARIZABILITY>
42.937225213396914

> <JCHEM_BIOAVAILABILITY>
1

> <JCHEM_DONOR_COUNT>
3

> <JCHEM_FORMAL_CHARGE>
0

> <JCHEM_GHOSE_FILTER>
1

> <JCHEM_IUPAC>
5-[3-(benzylamino)phenyl]-4-bromo-3-(carboxymethoxy)thiophene-2-carboxylic acid

> <ALOGPS_LOGP>
4.30

> <JCHEM_LOGP>
3.6152820061645055

> <ALOGPS_LOGS>
-5.73

> <JCHEM_MDDR_LIKE_RULE>
1

> <JCHEM_NEUTRAL_CHARGE>
-2

> <JCHEM_NUMBER_OF_RINGS>
3

> <JCHEM_PHYSIOLOGICAL_CHARGE>
-2

> <JCHEM_PKA>
4.499815852284124

> <JCHEM_PKA_STRONGEST_ACIDIC>
2.9338612692654196

> <JCHEM_PKA_STRONGEST_BASIC>
3.5846866734439353

> <JCHEM_POLAR_SURFACE_AREA>
95.86000000000001

> <JCHEM_REFRACTIVITY>
110.10140000000001

> <JCHEM_ROTATABLE_BOND_COUNT>
8

> <JCHEM_RULE_OF_FIVE>
1

> <ALOGPS_SOLUBILITY>
8.68e-04 g/l

> <JCHEM_TRADITIONAL_IUPAC>
biotin

> <JCHEM_VEBER_RULE>
0

> <DRUGBANK_ID>
DB07289

> <DRUG_GROUPS>
experimental

> <GENERIC_NAME>
5-[3-(BENZYLAMINO)PHENYL]-4-BROMO-3-(CARBOXYMETHOXY)THIOPHENE-2-CARBOXYLIC ACID

$$$$
