949
  Mrv0541 02231215072D          

 17 17  0  0  0  0            999 V2000
    3.0791    1.1096    0.0000 O   0  0  0  0  0  0  0  0  0  0  0  0
    4.5080    1.1096    0.0000 O   0  0  0  0  0  0  0  0  0  0  0  0
    1.6500    1.1096    0.0000 O   0  0  0  0  0  0  0  0  0  0  0  0
    5.9370    1.1096    0.0000 O   0  0  0  0  0  0  0  0  0  0  0  0
    2.3645    2.3472    0.0000 N   0  0  0  0  0  0  0  0  0  0  0  0
    5.2224    2.3472    0.0000 N   0  0  0  0  0  0  0  0  0  0  0  0
    3.7935   -0.1279    0.0000 C   0  0  0  0  0  0  0  0  0  0  0  0
    3.7935   -0.9529    0.0000 C   0  0  0  0  0  0  0  0  0  0  0  0
    3.0791    0.2846    0.0000 C   0  0  0  0  0  0  0  0  0  0  0  0
    4.5080    0.2846    0.0000 C   0  0  0  0  0  0  0  0  0  0  0  0
    4.5080   -1.3654    0.0000 C   0  0  0  0  0  0  0  0  0  0  0  0
    3.0791   -1.3654    0.0000 C   0  0  0  0  0  0  0  0  0  0  0  0
    4.5080   -2.1904    0.0000 C   0  0  0  0  0  0  0  0  0  0  0  0
    3.0791   -2.1904    0.0000 C   0  0  0  0  0  0  0  0  0  0  0  0
    3.7935   -2.6029    0.0000 C   0  0  0  0  0  0  0  0  0  0  0  0
    2.3645    1.5222    0.0000 C   0  0  0  0  0  0  0  0  0  0  0  0
    5.2224    1.5222    0.0000 C   0  0  0  0  0  0  0  0  0  0  0  0
  1  9  1  0  0  0  0
  1 16  1  0  0  0  0
  2 10  1  0  0  0  0
  2 17  1  0  0  0  0
  3 16  2  0  0  0  0
  4 17  2  0  0  0  0
  5 16  1  0  0  0  0
  6 17  1  0  0  0  0
  7  8  1  0  0  0  0
  7  9  1  0  0  0  0
  7 10  1  0  0  0  0
  8 11  2  0  0  0  0
  8 12  1  0  0  0  0
 11 13  1  0  0  0  0
 12 14  2  0  0  0  0
 13 15  2  0  0  0  0
 14 15  1  0  0  0  0
M  END
> <DATABASE_ID>
DB00949

> <DATABASE_NAME>
drugbank

> <SMILES>
NC(=O)OCC(COC(N)=O)C1=CC=CC=C1

> <INCHI_IDENTIFIER>
InChI=1S/C11H14N2O4/c12-10(14)16-6-9(7-17-11(13)15)8-4-2-1-3-5-8/h1-5,9H,6-7H2,(H2,12,14)(H2,13,15)

> <INCHI_KEY>
WKGXYQFOCVYPAC-UHFFFAOYSA-N

> <FORMULA>
C11H14N2O4

> <MOLECULAR_WEIGHT>
238.2399

> <EXACT_MASS>
238.095356946

> <JCHEM_ACCEPTOR_COUNT>
2

> <JCHEM_ATOM_COUNT>
31

> <JCHEM_AVERAGE_NEUTRAL_MICROSPECIES_CHARGE>
-1.387178947658313e-08

> <JCHEM_AVERAGE_POLARIZABILITY>
23.517408996622443

> <JCHEM_BIOAVAILABILITY>
1

> <JCHEM_DONOR_COUNT>
2

> <JCHEM_FORMAL_CHARGE>
0

> <JCHEM_GHOSE_FILTER>
1

> <JCHEM_IUPAC>
3-(carbamoyloxy)-2-phenylpropyl carbamate

> <ALOGPS_LOGP>
0.56

> <JCHEM_LOGP>
0.6795679436666664

> <ALOGPS_LOGS>
-2.51

> <JCHEM_MDDR_LIKE_RULE>
0

> <JCHEM_NEUTRAL_CHARGE>
0

> <JCHEM_NUMBER_OF_RINGS>
1

> <JCHEM_PHYSIOLOGICAL_CHARGE>
0

> <JCHEM_PKA>
15.460661108821837

> <JCHEM_PKA_STRONGEST_ACIDIC>
14.982561981985281

> <JCHEM_POLAR_SURFACE_AREA>
104.64

> <JCHEM_REFRACTIVITY>
59.58680000000001

> <JCHEM_ROTATABLE_BOND_COUNT>
7

> <JCHEM_RULE_OF_FIVE>
1

> <ALOGPS_SOLUBILITY>
7.42e-01 g/l

> <JCHEM_TRADITIONAL_IUPAC>
tetrahydrofolic acid

> <JCHEM_VEBER_RULE>
0

> <DRUGBANK_ID>
DB00949

> <SECONDARY_ACCESSION_NUMBERS>
APRD00505

> <DRUG_GROUPS>
approved

> <GENERIC_NAME>
Felbamate

> <SYNONYMS>
2-phenyl-1,3-propanediol dicarbamate; carbamic acid 2-phenyltrimethylene ester; Carbamic acid 3-carbamoyloxy-2-phenyl-propyl ester; Felbamate; Felbamato; Felbamatum

> <PRODUCTS>
Felbamate; Felbatol

$$$$
