977
  Mrv0541 02231219062D          

  2  1  0  0  0  0            999 V2000
    1.6500    0.0000    0.0000 O   0  0  0  0  0  0  0  0  0  0  0  0
    2.4750    0.0000    0.0000 O   0  0  0  0  0  0  0  0  0  0  0  0
  1  2  2  0  0  0  0
M  END
> <DATABASE_ID>
DB09140

> <DATABASE_NAME>
drugbank

> <SMILES>
O=O

> <INCHI_IDENTIFIER>
InChI=1S/O2/c1-2

> <INCHI_KEY>
MYMOFIZGZYHOMD-UHFFFAOYSA-N

> <FORMULA>
O2

> <MOLECULAR_WEIGHT>
31.9988

> <EXACT_MASS>
31.989829244

> <JCHEM_ACCEPTOR_COUNT>
2

> <JCHEM_ATOM_COUNT>
2

> <JCHEM_AVERAGE_NEUTRAL_MICROSPECIES_CHARGE>
0.0

> <JCHEM_AVERAGE_POLARIZABILITY>
1.528255145499405

> <JCHEM_BIOAVAILABILITY>
1

> <JCHEM_DONOR_COUNT>
0

> <JCHEM_FORMAL_CHARGE>
0

> <JCHEM_GHOSE_FILTER>
0

> <JCHEM_IUPAC>
dioxygen

> <JCHEM_LOGP>
-0.27723172999999995

> <JCHEM_MDDR_LIKE_RULE>
0

> <JCHEM_NEUTRAL_CHARGE>
0

> <JCHEM_NUMBER_OF_RINGS>
0

> <JCHEM_PHYSIOLOGICAL_CHARGE>
0

> <JCHEM_POLAR_SURFACE_AREA>
34.14

> <JCHEM_REFRACTIVITY>
2.8858

> <JCHEM_ROTATABLE_BOND_COUNT>
0

> <JCHEM_RULE_OF_FIVE>
1

> <JCHEM_TRADITIONAL_IUPAC>
biotin

> <JCHEM_VEBER_RULE>
1

> <DRUGBANK_ID>
DB09140

> <DRUG_GROUPS>
approved; vet_approved

> <GENERIC_NAME>
Oxygen

> <SYNONYMS>
Dioxygen; Molecular oxygen; Oxigeno gaseoso; Oxygen; Oxygen USP; Pure oxygen

> <PRODUCTS>
40% Oxygen/Nitrogen Mix; Air; Air Compressed; Air Compressed Medical Air; Air, Compressed; Alnox Gas; COMPRESSED Gas OXIDIZING, N.O.S.; COMPRESSED Gas, N.O.S.; Carbogen; Carbon Dioxide 1% W Oxygen; Carbon Dioxide 12.1% W Oxygen; Carbon Dioxide 23.1% W Oxygen; Carbon Dioxide 7.1% W Oxygen; Carbon Dioxide In Oxygen Mixture; Carbon Dioxide Mixture; Carbon Dioxide Oxygen; Carbon Dioxide Oxygen Mix; Carbon Dioxide Oxygen Mixture; Carbon Dioxide Oxygen Mixture 5/95; Carbon Dioxide Oxygen Mixtures; Carbon Dioxide USP, Oxygen USP Medical G.M.; Carbon Dioxide and Oxygen Mixture, Compressed, Oxidizing, N.O.S.; Carbon Dioxide-Air Mixture; Carbon Dioxide-Oxygen Mixture; Carbon Dioxide-Oxygen-Nitrogen Mixture; Carbon Dioxide/Oxygen 5/95; Carbon Dioxide/Oxygen Mix; Carbon Monox, Helium, Oxygen, Nitrogen L.D.M.; Co-HE-O2-N2 Mixture; Co-NE-O2-N2 Mixture; Compressed; Compressed Gas N.O.S.; Compressed Gas, Oxidizing, N.O.S.; Compressed Oxidizing; Compressed Oxygen; Compressed, N.O.S.; EZ-OX Plus; EZ-Ox; EZ-Ox Plus; Emergency Oxygen Supply 99.5%; Ez-OX; Ez-OX Plus; Focus Medical Oxygen; G02 Therapy; Gaseous Inh Mixture 20% Oxygen 80% Helium; Heliox; Heliox 70/30; Helium / Oxygen Mixture; Helium Oxygen; Helium Oxygen Mix; Helium Oxygen Mix 70/30; Helium Oxygen Mix 80/20; Helium Oxygen Mixture; Helium Oxygen Nitrogen mixture; Helium Oxygen mixture; Helium, Oxygen; Helium-Oxygen-Nitrogen Mixture; Helium-oxygen Mix Gas; Helium-oxygen Mixture; Helium/Oxygen Mix; Helium/Oxygen Mixture 70/30; Helium/Oxygen Mixture 80/20; Hyperbaric Chamber Mix; Liqui-med Analgesic Gas; Liquid Oxygen; Lung Diffusion Test Mix No Ne Co; Lung Diffusion Test Mix Nohco; Lung Diffusion Test Mixture; Lung Diffusion Test Mixture Gas; Madacylinder 99.5%; Medical Air; Medical Air Compressed; Medical Air U.S.P.; Medical Air USP; Medical Gasseous Oxygen Cylinders; Medical Oxygen; Medical Oxygen 100%; Medical Oxygen Compressed; Meopa; Nitrogen; Nitrogen Oxygen Mix; Nitrous Oxide In Oxygen; Oxyfit Gas 99.5%; Oxygen; Oxygen (compressed); Oxygen (family 1st Medical); Oxygen 100%; Oxygen 4c21e554-d402-480d-896d-8185c05c7863; Oxygen 64889-0001; Oxygen 99% USP; Oxygen 99.0%; Oxygen 99.95%; Oxygen Carbon Dioxide Mix; Oxygen Carbon Dioxide Mixture; Oxygen Compressed; Oxygen Compressed Gas; Oxygen Compressed U.S.P; Oxygen Compressed U.S.P.; Oxygen Compressed UN 1072 Refrigerated UN 1073; Oxygen Gas 99%; Oxygen Helium Mixture; Oxygen Helium Mixture 20/80; Oxygen Helium Mixture 30/70; Oxygen Helium Mixture 40/60; Oxygen In Helium Mix; Oxygen In Helium Mixture; Oxygen Nitrogen Mixture; Oxygen Refrigerated Liquid; Oxygen Refrigerated Liquid U.S.P; Oxygen Size 400; Oxygen Size B; Oxygen Size C; Oxygen Size D; Oxygen Size E; Oxygen Size F; Oxygen Size H; Oxygen Size M; Oxygen Size T; Oxygen U.S.P.; Oxygen USP; Oxygen USP - Gas 100%; Oxygen USP 99%; Oxygen USP, Helium USP, Medical Gas Mixture; Oxygen USP, Nitrogen Nf, Medical Gas Mixture; Oxygen W Nitrogen; Oxygen, Carbon Dioxide; Oxygen, Compressed; Oxygen, Compressed Gas; Oxygen, Compressed U.S.P.; Oxygen, Refrigerated; Oxygen, Refrigerated Liquid; Oxygen-Carbon Dioxide Mixture; Oxygen-Helium Mixture; Oxygen-Nitrogen Mixture; Oxygen-refrigerated Liquid; Oxygen/Helium 20/80; Oxygen/Helium 25/75; Oxygen/Helium 30/70; Oxygen/Helium 40/60; Oxygen/Helium 50/50; Oxygene; Oxygene - Gas Inh; Prairie Oxygen USP; Southern Medical Oxygen, Compressed; Tri-Med Medical; reconstituted Air

$$$$
