988
  Mrv1909 04301916372D          

 11 11  0  0  0  0            999 V2000
    3.5220    1.9842    0.0000 O   0  0  0  0  0  0  0  0  0  0  0  0
    2.0930    1.1592    0.0000 O   0  0  0  0  0  0  0  0  0  0  0  0
    5.6655   -1.7284    0.0000 O   0  0  0  0  0  0  0  0  0  0  0  0
    4.9509   -0.4909    0.0000 C   0  0  0  0  0  0  0  0  0  0  0  0
    4.2365   -0.0784    0.0000 C   0  0  0  0  0  0  0  0  0  0  0  0
    4.9509   -1.3159    0.0000 C   0  0  0  0  0  0  0  0  0  0  0  0
    4.2365    0.7466    0.0000 C   0  0  0  0  0  0  0  0  0  0  0  0
    3.5220   -0.4909    0.0000 C   0  0  0  0  0  0  0  0  0  0  0  0
    3.5220    1.1592    0.0000 C   0  0  0  0  0  0  0  0  0  0  0  0
    2.8075   -0.0784    0.0000 C   0  0  0  0  0  0  0  0  0  0  0  0
    2.8075    0.7466    0.0000 C   0  0  0  0  0  0  0  0  0  0  0  0
  1  9  1  0  0  0  0
  2 11  1  0  0  0  0
  4  5  1  0  0  0  0
  4  6  1  0  0  0  0
  5  7  2  0  0  0  0
  5  8  1  0  0  0  0
  7  9  1  0  0  0  0
  8 10  2  0  0  0  0
  9 11  2  0  0  0  0
 10 11  1  0  0  0  0
  3  6  1  0  0  0  0
M  END
> <DATABASE_ID>
DB12771

> <DATABASE_NAME>
drugbank

> <SMILES>
OCCC1=CC(O)=C(O)C=C1

> <INCHI_IDENTIFIER>
InChI=1S/C8H10O3/c9-4-3-6-1-2-7(10)8(11)5-6/h1-2,5,9-11H,3-4H2

> <INCHI_KEY>
JUUBCHWRXWPFFH-UHFFFAOYSA-N

> <FORMULA>
C8H10O3

> <MOLECULAR_WEIGHT>
154.1632

> <EXACT_MASS>
154.062994186

> <JCHEM_ACCEPTOR_COUNT>
3

> <JCHEM_ATOM_COUNT>
21

> <JCHEM_AVERAGE_POLARIZABILITY>
15.737149641805702

> <JCHEM_BIOAVAILABILITY>
1

> <JCHEM_DONOR_COUNT>
3

> <JCHEM_FORMAL_CHARGE>
0

> <JCHEM_GHOSE_FILTER>
0

> <JCHEM_IUPAC>
4-(2-hydroxyethyl)benzene-1,2-diol

> <ALOGPS_LOGP>
0.13

> <JCHEM_LOGP>
0.8874266103333335

> <ALOGPS_LOGS>
-0.95

> <JCHEM_MDDR_LIKE_RULE>
0

> <JCHEM_NUMBER_OF_RINGS>
1

> <JCHEM_PHYSIOLOGICAL_CHARGE>
0

> <JCHEM_PKA>
12.885859929231165

> <JCHEM_PKA_STRONGEST_ACIDIC>
9.448236457043842

> <JCHEM_PKA_STRONGEST_BASIC>
-2.4099441681107265

> <JCHEM_POLAR_SURFACE_AREA>
60.69

> <JCHEM_REFRACTIVITY>
41.5907

> <JCHEM_ROTATABLE_BOND_COUNT>
2

> <JCHEM_RULE_OF_FIVE>
1

> <ALOGPS_SOLUBILITY>
1.74e+01 g/l

> <JCHEM_TRADITIONAL_IUPAC>
methoxytyramine

> <JCHEM_VEBER_RULE>
0

> <DRUGBANK_ID>
DB12771

> <DRUG_GROUPS>
investigational

> <GENERIC_NAME>
Hydroxytyrosol

$$$$
