A17
  Mrv0541 02241213202D          

 30 34  0  0  0  0            999 V2000
   -1.9969   -0.5963    0.0000 C   0  0  0  0  0  0  0  0  0  0  0  0
   -1.9969    0.2287    0.0000 C   0  0  0  0  0  0  0  0  0  0  0  0
   -1.2825    0.6412    0.0000 C   0  0  0  0  0  0  0  0  0  0  0  0
   -0.5680    0.2287    0.0000 C   0  0  0  0  0  0  0  0  0  0  0  0
   -2.7114   -1.0088    0.0000 C   0  0  0  0  0  0  0  0  0  0  0  0
    0.8609   -0.5963    0.0000 C   0  0  0  0  0  0  0  0  0  0  0  0
    1.5754   -1.0088    0.0000 C   0  0  0  0  0  0  0  0  0  0  0  0
    0.1465   -1.8338    0.0000 C   0  0  0  0  0  0  0  0  0  0  0  0
    2.2899    0.2287    0.0000 O   0  0  0  0  0  0  0  0  0  0  0  0
    0.8609   -2.2463    0.0000 C   0  0  0  0  0  0  0  0  0  0  0  0
   -0.5680   -0.5963    0.0000 C   0  0  0  0  0  0  0  0  0  0  0  0
   -1.2825   -1.0088    0.0000 C   0  0  0  0  0  0  0  0  0  0  0  0
   -3.4259   -0.5963    0.0000 N   0  0  0  0  0  0  0  0  0  0  0  0
   -3.4259    0.2287    0.0000 N   0  0  0  0  0  0  0  0  0  0  0  0
   -2.7114    0.6412    0.0000 C   0  0  0  0  0  0  0  0  0  0  0  0
    0.1465   -1.0088    0.0000 C   0  0  0  0  0  0  0  0  0  0  0  0
    1.5754   -1.8338    0.0000 C   0  0  0  0  0  0  0  0  0  0  0  0
   -0.5680   -2.2463    0.0000 C   0  0  0  0  0  0  0  0  0  0  0  0
    2.2899   -0.5963    0.0000 C   0  0  0  0  0  0  0  0  0  0  0  0
    3.7188   -0.5963    0.0000 C   0  0  0  0  0  0  0  0  0  0  0  0
    4.1313    0.1182    0.0000 C   0  0  0  0  0  0  0  0  0  0  0  0
    4.5438   -0.5963    0.0000 C   0  0  0  0  0  0  0  0  0  0  0  0
   -2.7114    1.4662    0.0000 C   0  0  0  0  0  0  0  0  0  0  0  0
   -3.4259    1.8787    0.0000 C   0  0  0  0  0  0  0  0  0  0  0  0
   -3.4259    2.7037    0.0000 C   0  0  0  0  0  0  0  0  0  0  0  0
   -2.7114    3.1162    0.0000 C   0  0  0  0  0  0  0  0  0  0  0  0
   -1.9969    2.7037    0.0000 C   0  0  0  0  0  0  0  0  0  0  0  0
   -1.9969    1.8787    0.0000 C   0  0  0  0  0  0  0  0  0  0  0  0
   -1.2825    1.4662    0.0000 C   0  0  0  0  0  0  0  0  0  0  0  0
    3.0044   -1.0088    0.0000 N   0  0  0  0  0  0  0  0  0  0  0  0
  1  2  2  0  0  0  0
  1  5  1  0  0  0  0
  1 12  1  0  0  0  0
  2  3  1  0  0  0  0
  2 15  1  0  0  0  0
  3  4  2  0  0  0  0
  4 11  1  0  0  0  0
  5 13  2  0  0  0  0
  6  7  2  0  0  0  0
  6 16  1  0  0  0  0
  7 17  1  0  0  0  0
  7 19  1  0  0  0  0
  8 10  1  0  0  0  0
  8 16  2  0  0  0  0
  8 18  1  0  0  0  0
  9 19  2  0  0  0  0
 10 17  2  0  0  0  0
 11 12  2  0  0  0  0
 11 16  1  0  0  0  0
 13 14  1  0  0  0  0
 14 15  2  0  0  0  0
 15 23  1  0  0  0  0
 19 30  1  0  0  0  0
 20 21  1  0  0  0  0
 20 22  1  0  0  0  0
 20 30  1  0  0  0  0
 21 22  1  0  0  0  0
 23 24  2  0  0  0  0
 23 28  1  0  0  0  0
 24 25  1  0  0  0  0
 25 26  2  0  0  0  0
 26 27  1  0  0  0  0
 27 28  2  0  0  0  0
 28 29  1  0  0  0  0
M  END
> <DATABASE_ID>
DB07307

> <DATABASE_NAME>
drugbank

> <SMILES>
CC1=CC=CC=C1C1=NN=CC2=C1C=CC(=C2)C1=C(C)C=CC(=C1)C(=O)NC1CC1

> <INCHI_IDENTIFIER>
InChI=1S/C26H23N3O/c1-16-5-3-4-6-22(16)25-23-12-9-18(13-20(23)15-27-29-25)24-14-19(8-7-17(24)2)26(30)28-21-10-11-21/h3-9,12-15,21H,10-11H2,1-2H3,(H,28,30)

> <INCHI_KEY>
GQXMJOSCBRZMKE-UHFFFAOYSA-N

> <FORMULA>
C26H23N3O

> <MOLECULAR_WEIGHT>
393.4803

> <EXACT_MASS>
393.184112373

> <JCHEM_ACCEPTOR_COUNT>
3

> <JCHEM_ATOM_COUNT>
53

> <JCHEM_AVERAGE_NEUTRAL_MICROSPECIES_CHARGE>
0.000345170758516858

> <JCHEM_AVERAGE_POLARIZABILITY>
44.627110278807415

> <JCHEM_BIOAVAILABILITY>
1

> <JCHEM_DONOR_COUNT>
1

> <JCHEM_FORMAL_CHARGE>
0

> <JCHEM_GHOSE_FILTER>
1

> <JCHEM_IUPAC>
N-cyclopropyl-4-methyl-3-[1-(2-methylphenyl)phthalazin-6-yl]benzamide

> <ALOGPS_LOGP>
4.77

> <JCHEM_LOGP>
5.012304919000001

> <ALOGPS_LOGS>
-5.76

> <JCHEM_MDDR_LIKE_RULE>
0

> <JCHEM_NEUTRAL_CHARGE>
0

> <JCHEM_NUMBER_OF_RINGS>
5

> <JCHEM_PHYSIOLOGICAL_CHARGE>
0

> <JCHEM_PKA_STRONGEST_ACIDIC>
15.398504707171385

> <JCHEM_PKA_STRONGEST_BASIC>
2.5383576682435733

> <JCHEM_POLAR_SURFACE_AREA>
54.88

> <JCHEM_REFRACTIVITY>
121.38369999999998

> <JCHEM_ROTATABLE_BOND_COUNT>
4

> <JCHEM_RULE_OF_FIVE>
0

> <ALOGPS_SOLUBILITY>
6.86e-04 g/l

> <JCHEM_TRADITIONAL_IUPAC>
tetrahydrofolic acid

> <JCHEM_VEBER_RULE>
0

> <DRUGBANK_ID>
DB07307

> <DRUG_GROUPS>
experimental

> <GENERIC_NAME>
N-cyclopropyl-4-methyl-3-[1-(2-methylphenyl)phthalazin-6-yl]benzamide

$$$$
