A74
  Mrv0541 02241213212D          

 31 34  0  0  0  0            999 V2000
   -4.2742    2.6363    0.0000 C   0  0  0  0  0  0  0  0  0  0  0  0
   -3.8617    3.3508    0.0000 C   0  0  0  0  0  0  0  0  0  0  0  0
   -3.0367    3.3508    0.0000 C   0  0  0  0  0  0  0  0  0  0  0  0
   -2.6242    2.6363    0.0000 C   0  0  0  0  0  0  0  0  0  0  0  0
   -3.0367    1.9219    0.0000 C   0  0  0  0  0  0  0  0  0  0  0  0
   -3.8617    1.9219    0.0000 C   0  0  0  0  0  0  0  0  0  0  0  0
   -2.6242    1.2074    0.0000 S   0  0  0  0  0  0  0  0  0  0  0  0
   -3.3387    0.7949    0.0000 O   0  0  0  0  0  0  0  0  0  0  0  0
   -1.9098    1.6199    0.0000 O   0  0  0  0  0  0  0  0  0  0  0  0
   -2.2117    0.4929    0.0000 N   0  0  0  0  0  0  0  0  0  0  0  0
   -1.3867    0.4929    0.0000 C   0  0  0  0  0  0  0  0  0  0  0  0
   -0.9018    1.1604    0.0000 N   0  0  0  0  0  0  0  0  0  0  0  0
   -0.1172    0.9054    0.0000 C   0  0  0  0  0  0  0  0  0  0  0  0
    0.5973    1.3179    0.0000 C   0  0  0  0  0  0  0  0  0  0  0  0
    1.3118    0.9054    0.0000 C   0  0  0  0  0  0  0  0  0  0  0  0
    1.3118    0.0804    0.0000 C   0  0  0  0  0  0  0  0  0  0  0  0
    0.5973   -0.3321    0.0000 C   0  0  0  0  0  0  0  0  0  0  0  0
   -0.1172    0.0804    0.0000 C   0  0  0  0  0  0  0  0  0  0  0  0
   -0.9018   -0.1745    0.0000 O   0  0  0  0  0  0  0  0  0  0  0  0
   -2.6242    4.0653    0.0000 Cl  0  0  0  0  0  0  0  0  0  0  0  0
   -4.2742    1.2074    0.0000 Cl  0  0  0  0  0  0  0  0  0  0  0  0
    2.0262    1.3179    0.0000 O   0  0  0  0  0  0  0  0  0  0  0  0
    2.7407    0.9054    0.0000 C   0  0  0  0  0  0  0  0  0  0  0  0
    1.3118   -2.3946    0.0000 C   0  0  0  0  0  0  0  0  0  0  0  0
    0.5973   -2.8071    0.0000 C   0  0  0  0  0  0  0  0  0  0  0  0
   -0.1172   -2.3946    0.0000 N   0  0  0  0  0  0  0  0  0  0  0  0
   -0.1172   -1.5696    0.0000 C   0  0  0  0  0  0  0  0  0  0  0  0
    0.5973   -1.1571    0.0000 C   0  0  0  0  0  0  0  0  0  0  0  0
    1.3118   -1.5696    0.0000 C   0  0  0  0  0  0  0  0  0  0  0  0
    0.5973   -3.6321    0.0000 O   0  0  0  0  0  0  0  0  0  0  0  0
    1.3118   -4.0446    0.0000 C   0  0  0  0  0  0  0  0  0  0  0  0
  1  2  1  0  0  0  0
  1  6  2  0  0  0  0
  2  3  2  0  0  0  0
  3  4  1  0  0  0  0
  3 20  1  0  0  0  0
  4  5  2  0  0  0  0
  5  6  1  0  0  0  0
  5  7  1  0  0  0  0
  6 21  1  0  0  0  0
  7  8  2  0  0  0  0
  7  9  2  0  0  0  0
  7 10  1  0  0  0  0
 10 11  1  0  0  0  0
 11 12  2  0  0  0  0
 11 19  1  0  0  0  0
 12 13  1  0  0  0  0
 13 14  1  0  0  0  0
 13 18  2  0  0  0  0
 14 15  2  0  0  0  0
 15 16  1  0  0  0  0
 15 22  1  0  0  0  0
 16 17  2  0  0  0  0
 17 18  1  0  0  0  0
 17 28  1  0  0  0  0
 18 19  1  0  0  0  0
 22 23  1  0  0  0  0
 24 25  1  0  0  0  0
 24 29  2  0  0  0  0
 25 26  2  0  0  0  0
 25 30  1  0  0  0  0
 26 27  1  0  0  0  0
 27 28  2  0  0  0  0
 28 29  1  0  0  0  0
 30 31  1  0  0  0  0
M  END
> <DATABASE_ID>
DB07321

> <DATABASE_NAME>
drugbank

> <SMILES>
COC1=CC2=C(OC(NS(=O)(=O)C3=CC(Cl)=CC=C3Cl)=N2)C(=C1)C1=CN=C(OC)C=C1

> <INCHI_IDENTIFIER>
InChI=1S/C20H15Cl2N3O5S/c1-28-13-8-14(11-3-6-18(29-2)23-10-11)19-16(9-13)24-20(30-19)25-31(26,27)17-7-12(21)4-5-15(17)22/h3-10H,1-2H3,(H,24,25)

> <INCHI_KEY>
KOKQLKWXOFRTHE-UHFFFAOYSA-N

> <FORMULA>
C20H15Cl2N3O5S

> <MOLECULAR_WEIGHT>
480.321

> <EXACT_MASS>
479.010946709

> <JCHEM_ACCEPTOR_COUNT>
6

> <JCHEM_ATOM_COUNT>
46

> <JCHEM_AVERAGE_NEUTRAL_MICROSPECIES_CHARGE>
-0.7259870941855091

> <JCHEM_AVERAGE_POLARIZABILITY>
44.89106114565497

> <JCHEM_BIOAVAILABILITY>
1

> <JCHEM_DONOR_COUNT>
1

> <JCHEM_FORMAL_CHARGE>
0

> <JCHEM_GHOSE_FILTER>
0

> <JCHEM_IUPAC>
2,5-dichloro-N-[5-methoxy-7-(6-methoxypyridin-3-yl)-1,3-benzoxazol-2-yl]benzene-1-sulfonamide

> <ALOGPS_LOGP>
4.46

> <JCHEM_LOGP>
4.408537982

> <ALOGPS_LOGS>
-4.31

> <JCHEM_MDDR_LIKE_RULE>
0

> <JCHEM_NEUTRAL_CHARGE>
-1

> <JCHEM_NUMBER_OF_RINGS>
4

> <JCHEM_PHYSIOLOGICAL_CHARGE>
-1

> <JCHEM_PKA_STRONGEST_ACIDIC>
6.576822075216806

> <JCHEM_PKA_STRONGEST_BASIC>
2.2881881449094936

> <JCHEM_POLAR_SURFACE_AREA>
103.55000000000001

> <JCHEM_REFRACTIVITY>
114.85739999999998

> <JCHEM_ROTATABLE_BOND_COUNT>
5

> <JCHEM_RULE_OF_FIVE>
1

> <ALOGPS_SOLUBILITY>
2.37e-02 g/l

> <JCHEM_TRADITIONAL_IUPAC>
tetrahydrofolic acid

> <JCHEM_VEBER_RULE>
0

> <DRUGBANK_ID>
DB07321

> <DRUG_GROUPS>
experimental

> <GENERIC_NAME>
2,5-DICHLORO-N-[5-METHOXY-7-(6-METHOXYPYRIDIN-3-YL)-1,3-BENZOXAZOL-2-YL]BENZENESULFONAMIDE

$$$$
