AAX
  Mrv0541 02241213212D          

 34 38  0  0  0  0            999 V2000
   -1.4731   -1.2362    0.0000 O   0  0  0  0  0  0  0  0  0  0  0  0
   -2.2981   -1.2362    0.0000 S   0  0  0  0  0  0  0  0  0  0  0  0
   -3.1231   -1.2362    0.0000 O   0  0  0  0  0  0  0  0  0  0  0  0
   -2.2981   -2.0612    0.0000 N   0  0  0  0  0  0  0  0  0  0  0  0
   -3.0126   -2.4737    0.0000 C   0  0  0  0  0  0  0  0  0  0  0  0
   -3.0126   -3.2987    0.0000 C   0  0  0  0  0  0  0  0  0  0  0  0
   -2.6001   -4.0132    0.0000 C   0  0  0  0  0  0  0  0  0  0  0  0
   -3.4251   -4.0132    0.0000 C   0  0  0  0  0  0  0  0  0  0  0  0
   -2.2981   -0.4112    0.0000 C   0  0  0  0  0  0  0  0  0  0  0  0
   -3.0126    0.0013    0.0000 C   0  0  0  0  0  0  0  0  0  0  0  0
   -3.0126    0.8263    0.0000 C   0  0  0  0  0  0  0  0  0  0  0  0
   -1.5837    0.0013    0.0000 C   0  0  0  0  0  0  0  0  0  0  0  0
   -1.5837    0.8263    0.0000 C   0  0  0  0  0  0  0  0  0  0  0  0
   -2.2981    1.2388    0.0000 C   0  0  0  0  0  0  0  0  0  0  0  0
   -2.2981    2.0638    0.0000 O   0  0  0  0  0  0  0  0  0  0  0  0
   -1.5837    2.4763    0.0000 C   0  0  0  0  0  0  0  0  0  0  0  0
   -0.8692    1.2388    0.0000 N   0  0  0  0  0  0  0  0  0  0  0  0
   -0.1547    0.8263    0.0000 C   0  0  0  0  0  0  0  0  0  0  0  0
    0.5990    1.1619    0.0000 O   0  0  0  0  0  0  0  0  0  0  0  0
    1.1510    0.5488    0.0000 C   0  0  0  0  0  0  0  0  0  0  0  0
    0.7385   -0.1657    0.0000 C   0  0  0  0  0  0  0  0  0  0  0  0
   -0.0685    0.0058    0.0000 N   0  0  0  0  0  0  0  0  0  0  0  0
    1.9715    0.6350    0.0000 C   0  0  0  0  0  0  0  0  0  0  0  0
    2.3070    1.3887    0.0000 C   0  0  0  0  0  0  0  0  0  0  0  0
    3.1275    1.4749    0.0000 C   0  0  0  0  0  0  0  0  0  0  0  0
    3.6124    0.8075    0.0000 C   0  0  0  0  0  0  0  0  0  0  0  0
    3.2769    0.0538    0.0000 C   0  0  0  0  0  0  0  0  0  0  0  0
    2.4564   -0.0324    0.0000 C   0  0  0  0  0  0  0  0  0  0  0  0
    3.4631    2.2286    0.0000 C   0  0  0  0  0  0  0  0  0  0  0  0
    2.9781    2.8960    0.0000 C   0  0  0  0  0  0  0  0  0  0  0  0
    3.3137    3.6497    0.0000 N   0  0  0  0  0  0  0  0  0  0  0  0
    4.1342    3.7359    0.0000 C   0  0  0  0  0  0  0  0  0  0  0  0
    4.6191    3.0685    0.0000 C   0  0  0  0  0  0  0  0  0  0  0  0
    4.2835    2.3148    0.0000 C   0  0  0  0  0  0  0  0  0  0  0  0
  1  2  2  0  0  0  0
  2  3  2  0  0  0  0
  2  4  1  0  0  0  0
  2  9  1  0  0  0  0
  4  5  1  0  0  0  0
  5  6  1  0  0  0  0
  6  7  1  0  0  0  0
  6  8  1  0  0  0  0
  7  8  1  0  0  0  0
  9 10  2  0  0  0  0
  9 12  1  0  0  0  0
 10 11  1  0  0  0  0
 11 14  2  0  0  0  0
 12 13  2  0  0  0  0
 13 14  1  0  0  0  0
 13 17  1  0  0  0  0
 14 15  1  0  0  0  0
 15 16  1  0  0  0  0
 17 18  1  0  0  0  0
 18 19  1  0  0  0  0
 18 22  2  0  0  0  0
 19 20  1  0  0  0  0
 20 21  2  0  0  0  0
 20 23  1  0  0  0  0
 21 22  1  0  0  0  0
 23 24  2  0  0  0  0
 23 28  1  0  0  0  0
 24 25  1  0  0  0  0
 25 26  2  0  0  0  0
 25 29  1  0  0  0  0
 26 27  1  0  0  0  0
 27 28  2  0  0  0  0
 29 30  2  0  0  0  0
 29 34  1  0  0  0  0
 30 31  1  0  0  0  0
 31 32  2  0  0  0  0
 32 33  1  0  0  0  0
 33 34  2  0  0  0  0
M  END
> <DATABASE_ID>
DB07333

> <DATABASE_NAME>
drugbank

> <SMILES>
COC1=CC=C(C=C1NC1=NC=C(O1)C1=CC(=CC=C1)C1=CN=CC=C1)S(=O)(=O)NCC1CC1

> <INCHI_IDENTIFIER>
InChI=1S/C25H24N4O4S/c1-32-23-10-9-21(34(30,31)28-14-17-7-8-17)13-22(23)29-25-27-16-24(33-25)19-5-2-4-18(12-19)20-6-3-11-26-15-20/h2-6,9-13,15-17,28H,7-8,14H2,1H3,(H,27,29)

> <INCHI_KEY>
KRGKAARWVPUWSY-UHFFFAOYSA-N

> <FORMULA>
C25H24N4O4S

> <MOLECULAR_WEIGHT>
476.547

> <EXACT_MASS>
476.151825966

> <JCHEM_ACCEPTOR_COUNT>
6

> <JCHEM_ATOM_COUNT>
58

> <JCHEM_AVERAGE_NEUTRAL_MICROSPECIES_CHARGE>
0.004851651774989572

> <JCHEM_AVERAGE_POLARIZABILITY>
49.70591340511125

> <JCHEM_BIOAVAILABILITY>
1

> <JCHEM_DONOR_COUNT>
2

> <JCHEM_FORMAL_CHARGE>
0

> <JCHEM_GHOSE_FILTER>
1

> <JCHEM_IUPAC>
N-(cyclopropylmethyl)-4-methoxy-3-({5-[3-(pyridin-3-yl)phenyl]-1,3-oxazol-2-yl}amino)benzene-1-sulfonamide

> <ALOGPS_LOGP>
4.11

> <JCHEM_LOGP>
3.488705244666668

> <ALOGPS_LOGS>
-4.26

> <JCHEM_MDDR_LIKE_RULE>
1

> <JCHEM_NEUTRAL_CHARGE>
0

> <JCHEM_NUMBER_OF_RINGS>
5

> <JCHEM_PHYSIOLOGICAL_CHARGE>
0

> <JCHEM_PKA>
14.409525269993344

> <JCHEM_PKA_STRONGEST_ACIDIC>
10.447792382264383

> <JCHEM_PKA_STRONGEST_BASIC>
4.718953439603577

> <JCHEM_POLAR_SURFACE_AREA>
106.35000000000001

> <JCHEM_REFRACTIVITY>
128.1797

> <JCHEM_ROTATABLE_BOND_COUNT>
8

> <JCHEM_RULE_OF_FIVE>
1

> <ALOGPS_SOLUBILITY>
2.62e-02 g/l

> <JCHEM_TRADITIONAL_IUPAC>
tetrahydrofolic acid

> <JCHEM_VEBER_RULE>
0

> <DRUGBANK_ID>
DB07333

> <DRUG_GROUPS>
experimental

> <GENERIC_NAME>
N-(CYCLOPROPYLMETHYL)-4-(METHYLOXY)-3-({5-[3-(3-PYRIDINYL)PHENYL]-1,3-OXAZOL-2-YL}AMINO)BENZENESULFONAMIDE

$$$$
