AUR
  Mrv0541 02241213242D          

 37 39  0  0  0  0            999 V2000
   -1.7171   -0.6028    0.0000 C   0  0  0  0  0  0  0  0  0  0  0  0
   -1.8687    0.2241    0.0000 C   0  0  0  0  0  0  0  0  0  0  0  0
   -2.1093    1.0897    0.0000 C   0  0  2  0  0  0  0  0  0  0  0  0
   -1.7888    1.7983    0.0000 C   0  0  2  0  0  0  0  0  0  0  0  0
   -2.2669    1.9907    0.0000 C   0  0  2  0  0  0  0  0  0  0  0  0
   -2.2097    1.4251    0.0000 C   0  0  1  0  0  0  0  0  0  0  0  0
   -1.2380    1.4251    0.0000 C   0  0  2  0  0  0  0  0  0  0  0  0
   -0.7218    0.9964    0.0000 C   0  0  1  0  0  0  0  0  0  0  0  0
   -1.7476    2.7170    0.0000 C   0  0  0  0  0  0  0  0  0  0  0  0
   -3.1007    1.4397    0.0000 C   0  0  0  0  0  0  0  0  0  0  0  0
   -4.3334    2.6585    0.0000 C   0  0  0  0  0  0  0  0  0  0  0  0
   -3.6267    3.0842    0.0000 C   0  0  0  0  0  0  0  0  0  0  0  0
   -2.7296    0.7128    0.0000 O   0  0  0  0  0  0  0  0  0  0  0  0
   -0.8600    1.8138    0.0000 O   0  0  0  0  0  0  0  0  0  0  0  0
   -2.8633    2.6621    0.0000 O   0  0  0  0  0  0  0  0  0  0  0  0
   -0.9397    2.3776    0.0000 O   0  0  0  0  0  0  0  0  0  0  0  0
   -3.6420    3.9090    0.0000 O   0  0  0  0  0  0  0  0  0  0  0  0
   -0.1488    0.3295    0.0000 C   0  0  0  0  0  0  0  0  0  0  0  0
    0.7080    0.1968    0.0000 C   0  0  0  0  0  0  0  0  0  0  0  0
    1.0063   -0.5723    0.0000 C   0  0  0  0  0  0  0  0  0  0  0  0
    1.8216   -0.6986    0.0000 C   0  0  0  0  0  0  0  0  0  0  0  0
    2.1199   -1.4678    0.0000 C   0  0  0  0  0  0  0  0  0  0  0  0
    2.9352   -1.5940    0.0000 C   0  0  0  0  0  0  0  0  0  0  0  0
    3.2335   -2.3632    0.0000 C   0  0  0  0  0  0  0  0  0  0  0  0
    4.0488   -2.4895    0.0000 C   0  0  0  0  0  0  0  0  0  0  0  0
    4.3471   -3.2587    0.0000 C   0  0  0  0  0  0  0  0  0  0  0  0
    3.8301   -3.9016    0.0000 C   0  0  0  0  0  0  0  0  0  0  0  0
    3.0148   -3.7753    0.0000 C   0  0  0  0  0  0  0  0  0  0  0  0
    4.5658   -1.8466    0.0000 C   0  0  0  0  0  0  0  0  0  0  0  0
    5.6793   -2.7420    0.0000 C   0  0  0  0  0  0  0  0  0  0  0  0
    2.7165   -3.0061    0.0000 O   0  0  0  0  0  0  0  0  0  0  0  0
    5.1624   -3.3849    0.0000 O   0  0  0  0  0  0  0  0  0  0  0  0
    2.4978   -4.4183    0.0000 O   0  0  0  0  0  0  0  0  0  0  0  0
   -1.5271    1.0449    0.0000 H   0  0  0  0  0  0  0  0  0  0  0  0
   -2.8016    1.7560    0.0000 H   0  0  0  0  0  0  0  0  0  0  0  0
   -1.4019    1.9855    0.0000 H   0  0  0  0  0  0  0  0  0  0  0  0
   -0.9641    0.4651    0.0000 H   0  0  0  0  0  0  0  0  0  0  0  0
  1  2  1  0  0  0  0
  3  2  1  1  0  0  0
  3  4  1  0  0  0  0
  3 13  1  0  0  0  0
  3 34  1  6  0  0  0
  4  5  1  0  0  0  0
  4  9  1  6  0  0  0
  4 14  1  0  0  0  0
  5  6  1  0  0  0  0
  5 15  1  6  0  0  0
  5 35  1  1  0  0  0
  6  7  1  0  0  0  0
  6 10  1  1  0  0  0
  6 13  1  0  0  0  0
  7  8  1  0  0  0  0
  7 16  1  1  0  0  0
  7 36  1  6  0  0  0
  8 14  1  0  0  0  0
  8 18  1  1  0  0  0
  8 37  1  6  0  0  0
 11 12  1  0  0  0  0
 12 15  1  0  0  0  0
 12 17  2  0  0  0  0
 18 19  2  0  0  0  0
 19 20  1  0  0  0  0
 20 21  2  0  0  0  0
 21 22  1  0  0  0  0
 22 23  2  0  0  0  0
 23 24  1  0  0  0  0
 24 25  2  0  0  0  0
 24 31  1  0  0  0  0
 25 26  1  0  0  0  0
 25 29  1  0  0  0  0
 26 27  2  0  0  0  0
 26 32  1  0  0  0  0
 27 28  1  0  0  0  0
 28 31  1  0  0  0  0
 28 33  2  0  0  0  0
 30 32  1  0  0  0  0
M  END
> <DATABASE_ID>
DB07394

> <DATABASE_NAME>
drugbank

> <SMILES>
[H][C@]1(CC)O[C@]2(C)[C@]([H])(OC(C)=O)[C@@]1(C)O[C@@]([H])(\C=C\C=C\C=C\C1=C(C)C(OC)=CC(=O)O1)[C@]2([H])O

> <INCHI_IDENTIFIER>
InChI=1S/C25H32O8/c1-7-20-24(4)23(30-16(3)26)25(5,33-20)22(28)18(32-24)13-11-9-8-10-12-17-15(2)19(29-6)14-21(27)31-17/h8-14,18,20,22-23,28H,7H2,1-6H3/b9-8+,12-10+,13-11+/t18-,20+,22-,23+,24-,25-/m0/s1

> <INCHI_KEY>
QXCOFYWOWZJFEA-YJMRODJJSA-N

> <FORMULA>
C25H32O8

> <MOLECULAR_WEIGHT>
460.5168

> <EXACT_MASS>
460.209718

> <JCHEM_ACCEPTOR_COUNT>
6

> <JCHEM_ATOM_COUNT>
65

> <JCHEM_AVERAGE_NEUTRAL_MICROSPECIES_CHARGE>
-1.2233653382964938e-06

> <JCHEM_AVERAGE_POLARIZABILITY>
50.41937347413493

> <JCHEM_BIOAVAILABILITY>
1

> <JCHEM_DONOR_COUNT>
1

> <JCHEM_FORMAL_CHARGE>
0

> <JCHEM_GHOSE_FILTER>
1

> <JCHEM_IUPAC>
(1S,3S,4S,5S,7R,8S)-7-ethyl-4-hydroxy-3-[(1E,3E,5E)-6-(4-methoxy-5-methyl-2-oxo-2H-pyran-6-yl)hexa-1,3,5-trien-1-yl]-1,5-dimethyl-2,6-dioxabicyclo[3.2.1]octan-8-yl acetate

> <ALOGPS_LOGP>
4.02

> <JCHEM_LOGP>
2.5531159653333333

> <ALOGPS_LOGS>
-4.62

> <JCHEM_MDDR_LIKE_RULE>
1

> <JCHEM_NEUTRAL_CHARGE>
0

> <JCHEM_NUMBER_OF_RINGS>
3

> <JCHEM_PHYSIOLOGICAL_CHARGE>
0

> <JCHEM_PKA_STRONGEST_ACIDIC>
12.9124340730191

> <JCHEM_PKA_STRONGEST_BASIC>
-3.711901336461446

> <JCHEM_POLAR_SURFACE_AREA>
100.52000000000001

> <JCHEM_REFRACTIVITY>
125.50259999999999

> <JCHEM_ROTATABLE_BOND_COUNT>
8

> <JCHEM_RULE_OF_FIVE>
1

> <ALOGPS_SOLUBILITY>
1.10e-02 g/l

> <JCHEM_TRADITIONAL_IUPAC>
tetrahydrofolic acid

> <JCHEM_VEBER_RULE>
0

> <DRUGBANK_ID>
DB07394

> <DRUG_GROUPS>
experimental

> <GENERIC_NAME>
AUROVERTIN B

$$$$
