BAN
  Mrv0541 02241213252D          

 35 36  0  0  0  0            999 V2000
   -3.6253   -0.2149    0.0000 O   0  0  0  0  0  0  0  0  0  0  0  0
   -3.4694   -1.0250    0.0000 N   0  0  0  0  0  0  0  0  0  0  0  0
   -2.6898   -1.2951    0.0000 C   0  0  0  0  0  0  0  0  0  0  0  0
   -2.0662   -0.7550    0.0000 O   0  0  0  0  0  0  0  0  0  0  0  0
   -2.5339   -2.1052    0.0000 C   0  0  1  0  0  0  0  0  0  0  0  0
   -3.1576   -2.6453    0.0000 C   0  0  0  0  0  0  0  0  0  0  0  0
   -3.9371   -2.3753    0.0000 C   0  0  0  0  0  0  0  0  0  0  0  0
   -4.5608   -2.9154    0.0000 C   0  0  0  0  0  0  0  0  0  0  0  0
   -4.0930   -1.5651    0.0000 C   0  0  0  0  0  0  0  0  0  0  0  0
   -5.3403   -2.6453    0.0000 C   0  0  0  0  0  0  0  0  0  0  0  0
   -4.8726   -1.2951    0.0000 C   0  0  0  0  0  0  0  0  0  0  0  0
   -5.4962   -1.8352    0.0000 C   0  0  0  0  0  0  0  0  0  0  0  0
   -1.7544   -2.3753    0.0000 C   0  0  0  0  0  0  0  0  0  0  0  0
   -1.5985   -3.1854    0.0000 O   0  0  0  0  0  0  0  0  0  0  0  0
   -1.1307   -1.8352    0.0000 N   0  0  0  0  0  0  0  0  0  0  0  0
   -0.3512   -2.1052    0.0000 C   0  0  1  0  0  0  0  0  0  0  0  0
   -0.1953   -2.9154    0.0000 C   0  0  0  0  0  0  0  0  0  0  0  0
    0.2725   -1.5651    0.0000 C   0  0  0  0  0  0  0  0  0  0  0  0
    0.1166   -0.7550    0.0000 O   0  0  0  0  0  0  0  0  0  0  0  0
    1.0520   -1.8352    0.0000 N   0  0  0  0  0  0  0  0  0  0  0  0
    1.6757   -1.2951    0.0000 C   0  0  0  0  0  0  0  0  0  0  0  0
    2.4552   -1.5651    0.0000 C   0  0  0  0  0  0  0  0  0  0  0  0
    2.6111   -2.3753    0.0000 O   0  0  0  0  0  0  0  0  0  0  0  0
    3.8584   -1.2951    0.0000 C   0  0  0  0  0  0  0  0  0  0  0  0
    4.4820   -0.7550    0.0000 C   0  0  0  0  0  0  0  0  0  0  0  0
    5.2616   -1.0250    0.0000 C   0  0  0  0  0  0  0  0  0  0  0  0
    5.4175   -1.8352    0.0000 C   0  0  0  0  0  0  0  0  0  0  0  0
    4.7939   -2.3753    0.0000 C   0  0  0  0  0  0  0  0  0  0  0  0
    4.0143   -2.1052    0.0000 C   0  0  0  0  0  0  0  0  0  0  0  0
    6.1971   -2.1052    0.0000 N   0  3  0  0  0  0  0  0  0  0  0  0
    6.8207   -1.5651    0.0000 O   0  5  0  0  0  0  0  0  0  0  0  0
    6.3530   -2.9154    0.0000 O   0  0  0  0  0  0  0  0  0  0  0  0
    3.0788   -1.0250    0.0000 N   0  0  0  0  0  0  0  0  0  0  0  0
   -3.0857   -1.9141    0.0000 H   0  0  0  0  0  0  0  0  0  0  0  0
   -0.7926   -2.4875    0.0000 H   0  0  0  0  0  0  0  0  0  0  0  0
  1  2  1  0  0  0  0
  2  3  1  0  0  0  0
  3  4  2  0  0  0  0
  3  5  1  0  0  0  0
  5  6  1  0  0  0  0
  5 13  1  1  0  0  0
  5 34  1  1  0  0  0
  6  7  1  0  0  0  0
  7  8  2  0  0  0  0
  7  9  1  0  0  0  0
  8 10  1  0  0  0  0
  9 11  2  0  0  0  0
 10 12  2  0  0  0  0
 11 12  1  0  0  0  0
 13 14  2  0  0  0  0
 13 15  1  0  0  0  0
 15 16  1  0  0  0  0
 16 17  1  6  0  0  0
 16 18  1  0  0  0  0
 16 35  1  1  0  0  0
 18 19  2  0  0  0  0
 18 20  1  0  0  0  0
 20 21  1  0  0  0  0
 21 22  1  0  0  0  0
 22 23  2  0  0  0  0
 22 33  1  0  0  0  0
 24 25  1  0  0  0  0
 24 29  2  0  0  0  0
 24 33  1  0  0  0  0
 25 26  2  0  0  0  0
 26 27  1  0  0  0  0
 27 28  2  0  0  0  0
 27 30  1  0  0  0  0
 28 29  1  0  0  0  0
 30 31  1  0  0  0  0
 30 32  2  0  0  0  0
M  CHG  2  30   1  31  -1
M  END
> <DATABASE_ID>
DB07434

> <DATABASE_NAME>
drugbank

> <SMILES>
[H][C@@](C)(NC(=O)[C@]([H])(CC1=CC=CC=C1)C(=O)NO)C(=O)NCC(=O)NC1=CC=C(C=C1)[N+]([O-])=O

> <INCHI_IDENTIFIER>
InChI=1S/C21H23N5O7/c1-13(23-20(29)17(21(30)25-31)11-14-5-3-2-4-6-14)19(28)22-12-18(27)24-15-7-9-16(10-8-15)26(32)33/h2-10,13,17,31H,11-12H2,1H3,(H,22,28)(H,23,29)(H,24,27)(H,25,30)/t13-,17-/m0/s1

> <INCHI_KEY>
TZWQPWGUQCSKDW-GUYCJALGSA-N

> <FORMULA>
C21H23N5O7

> <MOLECULAR_WEIGHT>
457.4366

> <EXACT_MASS>
457.159748115

> <JCHEM_ACCEPTOR_COUNT>
7

> <JCHEM_ATOM_COUNT>
56

> <JCHEM_AVERAGE_NEUTRAL_MICROSPECIES_CHARGE>
-0.016394800345554728

> <JCHEM_AVERAGE_POLARIZABILITY>
44.121535060086764

> <JCHEM_BIOAVAILABILITY>
1

> <JCHEM_DONOR_COUNT>
5

> <JCHEM_FORMAL_CHARGE>
0

> <JCHEM_GHOSE_FILTER>
1

> <JCHEM_IUPAC>
(2S)-2-benzyl-N-hydroxy-N'-[(1S)-1-({[(4-nitrophenyl)carbamoyl]methyl}carbamoyl)ethyl]propanediamide

> <ALOGPS_LOGP>
1.07

> <JCHEM_LOGP>
0.7126011566666663

> <ALOGPS_LOGS>
-4.64

> <JCHEM_MDDR_LIKE_RULE>
0

> <JCHEM_NEUTRAL_CHARGE>
0

> <JCHEM_NUMBER_OF_RINGS>
2

> <JCHEM_PHYSIOLOGICAL_CHARGE>
0

> <JCHEM_PKA>
11.795846165234746

> <JCHEM_PKA_STRONGEST_ACIDIC>
8.778680285824086

> <JCHEM_PKA_STRONGEST_BASIC>
-4.507558092371343

> <JCHEM_POLAR_SURFACE_AREA>
179.76999999999998

> <JCHEM_REFRACTIVITY>
116.54379999999998

> <JCHEM_ROTATABLE_BOND_COUNT>
10

> <JCHEM_RULE_OF_FIVE>
1

> <ALOGPS_SOLUBILITY>
1.05e-02 g/l

> <JCHEM_TRADITIONAL_IUPAC>
biotin

> <JCHEM_VEBER_RULE>
0

> <DRUGBANK_ID>
DB07434

> <DRUG_GROUPS>
experimental

> <GENERIC_NAME>
HONH-BENZYLMALONYL-L-ALANYLGLYCINE-P-NITROANILIDE

$$$$
