BBB
  Mrv0541 02241213262D          

 29 31  0  0  0  0            999 V2000
   -3.7052   -0.7904    0.0000 O   0  0  0  0  0  0  0  0  0  0  0  0
   -2.9907   -0.3779    0.0000 C   0  0  0  0  0  0  0  0  0  0  0  0
   -2.2762   -0.7904    0.0000 C   0  0  0  0  0  0  0  0  0  0  0  0
   -1.5618   -0.3779    0.0000 O   0  0  0  0  0  0  0  0  0  0  0  0
   -0.8473   -0.7904    0.0000 C   0  0  0  0  0  0  0  0  0  0  0  0
   -0.1328   -0.3779    0.0000 N   0  0  0  0  0  0  0  0  0  0  0  0
   -0.1328    0.4471    0.0000 C   0  0  0  0  0  0  0  0  0  0  0  0
   -0.8473    0.8596    0.0000 O   0  0  0  0  0  0  0  0  0  0  0  0
    0.5817    0.8596    0.0000 N   0  0  0  0  0  0  0  0  0  0  0  0
    1.2961    0.4471    0.0000 C   0  0  0  0  0  0  0  0  0  0  0  0
    2.0106    0.8596    0.0000 O   0  0  0  0  0  0  0  0  0  0  0  0
    0.5817   -0.7904    0.0000 C   0  0  0  0  0  0  0  0  0  0  0  0
    1.2961   -0.3779    0.0000 C   0  0  0  0  0  0  0  0  0  0  0  0
    2.0106   -0.7904    0.0000 C   0  0  0  0  0  0  0  0  0  0  0  0
    2.7251   -0.3779    0.0000 C   0  0  0  0  0  0  0  0  0  0  0  0
    2.7251    0.4471    0.0000 C   0  0  0  0  0  0  0  0  0  0  0  0
    3.4395    0.8596    0.0000 C   0  0  0  0  0  0  0  0  0  0  0  0
    4.1540    0.4471    0.0000 C   0  0  0  0  0  0  0  0  0  0  0  0
    3.4395   -0.7904    0.0000 C   0  0  0  0  0  0  0  0  0  0  0  0
    4.1540   -0.3779    0.0000 C   0  0  0  0  0  0  0  0  0  0  0  0
    4.8685   -0.7904    0.0000 O   0  0  0  0  0  0  0  0  0  0  0  0
    5.5830   -0.3779    0.0000 C   0  0  0  0  0  0  0  0  0  0  0  0
    6.2974   -0.7904    0.0000 C   0  0  0  0  0  0  0  0  0  0  0  0
    7.0119   -0.3779    0.0000 C   0  0  0  0  0  0  0  0  0  0  0  0
    7.7264   -0.7904    0.0000 C   0  0  0  0  0  0  0  0  0  0  0  0
    7.7264   -1.6154    0.0000 C   0  0  0  0  0  0  0  0  0  0  0  0
    7.0119   -2.0279    0.0000 C   0  0  0  0  0  0  0  0  0  0  0  0
    6.2974   -1.6154    0.0000 C   0  0  0  0  0  0  0  0  0  0  0  0
    0.5817   -1.6154    0.0000 O   0  0  0  0  0  0  0  0  0  0  0  0
  1  2  1  0  0  0  0
  2  3  1  0  0  0  0
  3  4  1  0  0  0  0
  4  5  1  0  0  0  0
  5  6  1  0  0  0  0
  6  7  1  0  0  0  0
  6 12  1  0  0  0  0
  7  8  2  0  0  0  0
  7  9  1  0  0  0  0
  9 10  1  0  0  0  0
 10 11  2  0  0  0  0
 10 13  1  0  0  0  0
 12 13  2  0  0  0  0
 12 29  1  0  0  0  0
 13 14  1  0  0  0  0
 14 15  1  0  0  0  0
 15 16  2  0  0  0  0
 15 19  1  0  0  0  0
 16 17  1  0  0  0  0
 17 18  2  0  0  0  0
 18 20  1  0  0  0  0
 19 20  2  0  0  0  0
 20 21  1  0  0  0  0
 21 22  1  0  0  0  0
 22 23  1  0  0  0  0
 23 24  2  0  0  0  0
 23 28  1  0  0  0  0
 24 25  1  0  0  0  0
 25 26  2  0  0  0  0
 26 27  1  0  0  0  0
 27 28  2  0  0  0  0
M  END
> <DATABASE_ID>
DB07439

> <DATABASE_NAME>
drugbank

> <SMILES>
OCCOCN1C(=O)NC(=O)C(CC2=CC=CC(OCC3=CC=CC=C3)=C2)=C1O

> <INCHI_IDENTIFIER>
InChI=1S/C21H22N2O6/c24-9-10-28-14-23-20(26)18(19(25)22-21(23)27)12-16-7-4-8-17(11-16)29-13-15-5-2-1-3-6-15/h1-8,11,24,26H,9-10,12-14H2,(H,22,25,27)

> <INCHI_KEY>
CAWXCABXSPTFRN-UHFFFAOYSA-N

> <FORMULA>
C21H22N2O6

> <MOLECULAR_WEIGHT>
398.4092

> <EXACT_MASS>
398.147786446

> <JCHEM_ACCEPTOR_COUNT>
6

> <JCHEM_ATOM_COUNT>
51

> <JCHEM_AVERAGE_NEUTRAL_MICROSPECIES_CHARGE>
-0.8039637777511467

> <JCHEM_AVERAGE_POLARIZABILITY>
40.94781140699164

> <JCHEM_BIOAVAILABILITY>
1

> <JCHEM_DONOR_COUNT>
3

> <JCHEM_FORMAL_CHARGE>
0

> <JCHEM_GHOSE_FILTER>
1

> <JCHEM_IUPAC>
5-{[3-(benzyloxy)phenyl]methyl}-6-hydroxy-1-[(2-hydroxyethoxy)methyl]-1,2,3,4-tetrahydropyrimidine-2,4-dione

> <ALOGPS_LOGP>
1.73

> <JCHEM_LOGP>
2.418115033666667

> <ALOGPS_LOGS>
-4.51

> <JCHEM_MDDR_LIKE_RULE>
1

> <JCHEM_NEUTRAL_CHARGE>
-1

> <JCHEM_NUMBER_OF_RINGS>
3

> <JCHEM_PHYSIOLOGICAL_CHARGE>
-1

> <JCHEM_PKA>
9.946750628667534

> <JCHEM_PKA_STRONGEST_ACIDIC>
6.390205875060079

> <JCHEM_PKA_STRONGEST_BASIC>
-2.7472476603801805

> <JCHEM_POLAR_SURFACE_AREA>
108.33000000000001

> <JCHEM_REFRACTIVITY>
114.41870000000002

> <JCHEM_ROTATABLE_BOND_COUNT>
9

> <JCHEM_RULE_OF_FIVE>
1

> <ALOGPS_SOLUBILITY>
1.22e-02 g/l

> <JCHEM_TRADITIONAL_IUPAC>
tetrahydrofolic acid

> <JCHEM_VEBER_RULE>
0

> <DRUGBANK_ID>
DB07439

> <DRUG_GROUPS>
experimental

> <GENERIC_NAME>
1-((2-HYDROXYETHOXY)METHYL)-5-(3-(BENZYLOXY)BENZYL)-6-HYDROXYPYRIMIDINE-2,4(1H,3H)-DIONE

$$$$
