BLZ
  Mrv0541 02241213272D          

 32 35  0  0  0  0            999 V2000
    2.5859   -4.3233    0.0000 C   0  0  0  0  0  0  0  0  0  0  0  0
    1.8715   -4.7358    0.0000 O   0  0  0  0  0  0  0  0  0  0  0  0
    1.1570   -4.3233    0.0000 C   0  0  0  0  0  0  0  0  0  0  0  0
    0.4425   -4.7358    0.0000 C   0  0  0  0  0  0  0  0  0  0  0  0
   -0.2719   -4.3233    0.0000 C   0  0  0  0  0  0  0  0  0  0  0  0
   -1.0566   -4.5782    0.0000 N   0  0  0  0  0  0  0  0  0  0  0  0
   -1.5415   -3.9108    0.0000 C   0  0  0  0  0  0  0  0  0  0  0  0
   -1.0566   -3.2433    0.0000 N   0  0  0  0  0  0  0  0  0  0  0  0
   -1.3115   -2.4587    0.0000 C   0  0  0  0  0  0  0  0  0  0  0  0
   -0.8266   -1.7913    0.0000 C   0  0  0  0  0  0  0  0  0  0  0  0
   -1.3115   -1.1238    0.0000 C   0  0  0  0  0  0  0  0  0  0  0  0
   -1.0566   -0.3392    0.0000 O   0  0  0  0  0  0  0  0  0  0  0  0
   -0.2496   -0.1677    0.0000 C   0  0  2  0  0  0  0  0  0  0  0  0
    0.3024   -0.7808    0.0000 C   0  0  0  0  0  0  0  0  0  0  0  0
    0.0053    0.6169    0.0000 C   0  0  0  0  0  0  0  0  0  0  0  0
   -0.5467    1.2300    0.0000 C   0  0  0  0  0  0  0  0  0  0  0  0
   -0.2917    2.0147    0.0000 C   0  0  0  0  0  0  0  0  0  0  0  0
    0.5152    2.1862    0.0000 C   0  0  0  0  0  0  0  0  0  0  0  0
    1.0673    1.5731    0.0000 C   0  0  0  0  0  0  0  0  0  0  0  0
    0.8123    0.7885    0.0000 C   0  0  0  0  0  0  0  0  0  0  0  0
    1.3644    0.1754    0.0000 Cl  0  0  0  0  0  0  0  0  0  0  0  0
   -2.0961   -1.3788    0.0000 C   0  0  0  0  0  0  0  0  0  0  0  0
   -2.0961   -2.2038    0.0000 S   0  0  0  0  0  0  0  0  0  0  0  0
   -2.7636   -0.8938    0.0000 C   0  0  0  0  0  0  0  0  0  0  0  0
   -3.5172   -1.2294    0.0000 O   0  0  0  0  0  0  0  0  0  0  0  0
   -2.6773   -0.0734    0.0000 N   0  0  0  0  0  0  0  0  0  0  0  0
   -0.2719   -3.4983    0.0000 C   0  0  0  0  0  0  0  0  0  0  0  0
    0.4425   -3.0858    0.0000 C   0  0  0  0  0  0  0  0  0  0  0  0
    1.1570   -3.4983    0.0000 C   0  0  0  0  0  0  0  0  0  0  0  0
    1.8715   -3.0858    0.0000 O   0  0  0  0  0  0  0  0  0  0  0  0
    1.8715   -2.2608    0.0000 C   0  0  0  0  0  0  0  0  0  0  0  0
   -0.6403    0.2663    0.0000 H   0  0  0  0  0  0  0  0  0  0  0  0
  1  2  1  0  0  0  0
  2  3  1  0  0  0  0
  3  4  1  0  0  0  0
  3 29  2  0  0  0  0
  4  5  2  0  0  0  0
  5  6  1  0  0  0  0
  5 27  1  0  0  0  0
  6  7  2  0  0  0  0
  7  8  1  0  0  0  0
  8 27  1  0  0  0  0
  8  9  1  0  0  0  0
  9 23  1  0  0  0  0
  9 10  2  0  0  0  0
 10 11  1  0  0  0  0
 11 22  2  0  0  0  0
 11 12  1  0  0  0  0
 12 13  1  0  0  0  0
 13 15  1  0  0  0  0
 13 14  1  6  0  0  0
 13 32  1  6  0  0  0
 15 16  2  0  0  0  0
 15 20  1  0  0  0  0
 16 17  1  0  0  0  0
 17 18  2  0  0  0  0
 18 19  1  0  0  0  0
 19 20  2  0  0  0  0
 20 21  1  0  0  0  0
 22 23  1  0  0  0  0
 22 24  1  0  0  0  0
 24 25  2  0  0  0  0
 24 26  1  0  0  0  0
 27 28  2  0  0  0  0
 28 29  1  0  0  0  0
 29 30  1  0  0  0  0
 30 31  1  0  0  0  0
M  END
> <DATABASE_ID>
DB07471

> <DATABASE_NAME>
drugbank

> <SMILES>
[H][C@](C)(OC1=C(SC(=C1)N1C=NC2=CC(OC)=C(OC)C=C12)C(N)=O)C1=CC=CC=C1Cl

> <INCHI_IDENTIFIER>
InChI=1S/C22H20ClN3O4S/c1-12(13-6-4-5-7-14(13)23)30-19-10-20(31-21(19)22(24)27)26-11-25-15-8-17(28-2)18(29-3)9-16(15)26/h4-12H,1-3H3,(H2,24,27)/t12-/m1/s1

> <INCHI_KEY>
UHCHLTQBLNUYRT-GFCCVEGCSA-N

> <FORMULA>
C22H20ClN3O4S

> <MOLECULAR_WEIGHT>
457.93

> <EXACT_MASS>
457.08630454

> <JCHEM_ACCEPTOR_COUNT>
5

> <JCHEM_ATOM_COUNT>
51

> <JCHEM_AVERAGE_NEUTRAL_MICROSPECIES_CHARGE>
0.03486748075820892

> <JCHEM_AVERAGE_POLARIZABILITY>
46.74533759634129

> <JCHEM_BIOAVAILABILITY>
1

> <JCHEM_DONOR_COUNT>
1

> <JCHEM_FORMAL_CHARGE>
0

> <JCHEM_GHOSE_FILTER>
1

> <JCHEM_IUPAC>
3-[(1R)-1-(2-chlorophenyl)ethoxy]-5-(5,6-dimethoxy-1H-1,3-benzodiazol-1-yl)thiophene-2-carboxamide

> <ALOGPS_LOGP>
4.02

> <JCHEM_LOGP>
4.342735173666668

> <ALOGPS_LOGS>
-4.64

> <JCHEM_MDDR_LIKE_RULE>
1

> <JCHEM_NEUTRAL_CHARGE>
0

> <JCHEM_NUMBER_OF_RINGS>
4

> <JCHEM_PHYSIOLOGICAL_CHARGE>
0

> <JCHEM_PKA_STRONGEST_ACIDIC>
13.937162722179277

> <JCHEM_PKA_STRONGEST_BASIC>
5.557835109910096

> <JCHEM_POLAR_SURFACE_AREA>
88.60000000000001

> <JCHEM_REFRACTIVITY>
128.31609999999998

> <JCHEM_ROTATABLE_BOND_COUNT>
7

> <JCHEM_RULE_OF_FIVE>
1

> <ALOGPS_SOLUBILITY>
1.04e-02 g/l

> <JCHEM_TRADITIONAL_IUPAC>
biotin

> <JCHEM_VEBER_RULE>
0

> <DRUGBANK_ID>
DB07471

> <DRUG_GROUPS>
experimental

> <GENERIC_NAME>
5-[5,6-BIS(METHYLOXY)-1H-BENZIMIDAZOL-1-YL]-3-{[1-(2-CHLOROPHENYL)ETHYL]OXY}-2-THIOPHENECARBOXAMIDE

$$$$
