BZN
  Mrv0541 02241213282D          

 31 33  0  0  0  0            999 V2000
    0.8038   -0.4054    0.0000 C   0  0  0  0  0  0  0  0  0  0  0  0
    0.0501   -0.0698    0.0000 C   0  0  1  0  0  0  0  0  0  0  0  0
    0.1363    0.7507    0.0000 C   0  0  2  0  0  0  0  0  0  0  0  0
    0.9433    0.9222    0.0000 C   0  0  0  0  0  0  0  0  0  0  0  0
   -0.4768    1.3027    0.0000 C   0  0  0  0  0  0  0  0  0  0  0  0
    1.3558    0.2077    0.0000 N   0  0  0  0  0  0  0  0  0  0  0  0
   -0.6644   -0.4823    0.0000 C   0  0  0  0  0  0  0  0  0  0  0  0
   -0.6644   -1.3073    0.0000 N   0  0  0  0  0  0  0  0  0  0  0  0
   -1.3789   -1.7198    0.0000 C   0  0  0  0  0  0  0  0  0  0  0  0
   -1.3789   -2.5448    0.0000 C   0  0  0  0  0  0  0  0  0  0  0  0
   -0.6644   -2.9573    0.0000 C   0  0  0  0  0  0  0  0  0  0  0  0
   -2.0933   -2.9573    0.0000 C   0  0  0  0  0  0  0  0  0  0  0  0
    0.0501   -1.7198    0.0000 S   0  0  0  0  0  0  0  0  0  0  0  0
   -0.3624   -2.4343    0.0000 O   0  0  0  0  0  0  0  0  0  0  0  0
    0.4626   -1.0054    0.0000 O   0  0  0  0  0  0  0  0  0  0  0  0
    0.7646   -2.1323    0.0000 C   0  0  0  0  0  0  0  0  0  0  0  0
    1.4790   -1.7198    0.0000 C   0  0  0  0  0  0  0  0  0  0  0  0
    2.1935   -2.1323    0.0000 C   0  0  0  0  0  0  0  0  0  0  0  0
    2.1935   -2.9573    0.0000 C   0  0  0  0  0  0  0  0  0  0  0  0
    1.4790   -3.3698    0.0000 C   0  0  0  0  0  0  0  0  0  0  0  0
    0.7646   -2.9573    0.0000 C   0  0  0  0  0  0  0  0  0  0  0  0
   -0.3053    2.1097    0.0000 O   0  0  0  0  0  0  0  0  0  0  0  0
   -0.9183    2.6617    0.0000 C   0  0  0  0  0  0  0  0  0  0  0  0
   -0.7468    3.4687    0.0000 C   0  0  0  0  0  0  0  0  0  0  0  0
   -1.3599    4.0207    0.0000 C   0  0  0  0  0  0  0  0  0  0  0  0
   -1.1884    4.8277    0.0000 C   0  0  0  0  0  0  0  0  0  0  0  0
   -0.4038    5.0826    0.0000 C   0  0  0  0  0  0  0  0  0  0  0  0
    0.2093    4.5306    0.0000 C   0  0  0  0  0  0  0  0  0  0  0  0
    0.0378    3.7236    0.0000 C   0  0  0  0  0  0  0  0  0  0  0  0
    0.0806   -0.6530    0.0000 H   0  0  0  0  0  0  0  0  0  0  0  0
   -0.4088    0.5414    0.0000 H   0  0  0  0  0  0  0  0  0  0  0  0
  1  2  1  0  0  0  0
  1  6  1  0  0  0  0
  2  3  1  0  0  0  0
  2  7  1  6  0  0  0
  2 30  1  1  0  0  0
  3  4  1  0  0  0  0
  3  5  1  1  0  0  0
  3 31  1  6  0  0  0
  4  6  1  0  0  0  0
  5 22  1  0  0  0  0
  7  8  1  0  0  0  0
  8  9  1  0  0  0  0
  8 13  1  0  0  0  0
  9 10  1  0  0  0  0
 10 11  1  0  0  0  0
 10 12  1  0  0  0  0
 13 14  2  0  0  0  0
 13 15  2  0  0  0  0
 13 16  1  0  0  0  0
 16 17  2  0  0  0  0
 16 21  1  0  0  0  0
 17 18  1  0  0  0  0
 18 19  2  0  0  0  0
 19 20  1  0  0  0  0
 20 21  2  0  0  0  0
 22 23  1  0  0  0  0
 23 24  1  0  0  0  0
 24 25  2  0  0  0  0
 24 29  1  0  0  0  0
 25 26  1  0  0  0  0
 26 27  2  0  0  0  0
 27 28  1  0  0  0  0
 28 29  2  0  0  0  0
M  END
> <DATABASE_ID>
DB07505

> <DATABASE_NAME>
drugbank

> <SMILES>
[H][C@]1(COCC2=CC=CC=C2)CNC[C@]1([H])CN(CC(C)C)S(=O)(=O)C1=CC=CC=C1

> <INCHI_IDENTIFIER>
InChI=1S/C23H32N2O3S/c1-19(2)15-25(29(26,27)23-11-7-4-8-12-23)16-21-13-24-14-22(21)18-28-17-20-9-5-3-6-10-20/h3-12,19,21-22,24H,13-18H2,1-2H3/t21-,22-/m1/s1

> <INCHI_KEY>
DGURGFSAQIBQCO-FGZHOGPDSA-N

> <FORMULA>
C23H32N2O3S

> <MOLECULAR_WEIGHT>
416.577

> <EXACT_MASS>
416.21336359

> <JCHEM_ACCEPTOR_COUNT>
4

> <JCHEM_ATOM_COUNT>
61

> <JCHEM_AVERAGE_NEUTRAL_MICROSPECIES_CHARGE>
0.9999133879722304

> <JCHEM_AVERAGE_POLARIZABILITY>
46.010742006721784

> <JCHEM_BIOAVAILABILITY>
1

> <JCHEM_DONOR_COUNT>
1

> <JCHEM_FORMAL_CHARGE>
0

> <JCHEM_GHOSE_FILTER>
1

> <JCHEM_IUPAC>
N-{[(3R,4R)-4-[(benzyloxy)methyl]pyrrolidin-3-yl]methyl}-N-(2-methylpropyl)benzenesulfonamide

> <ALOGPS_LOGP>
2.81

> <JCHEM_LOGP>
3.309729451

> <ALOGPS_LOGS>
-5.41

> <JCHEM_MDDR_LIKE_RULE>
1

> <JCHEM_NEUTRAL_CHARGE>
1

> <JCHEM_NUMBER_OF_RINGS>
3

> <JCHEM_PHYSIOLOGICAL_CHARGE>
1

> <JCHEM_PKA_STRONGEST_BASIC>
11.062384161564394

> <JCHEM_POLAR_SURFACE_AREA>
58.64

> <JCHEM_REFRACTIVITY>
117.69340000000004

> <JCHEM_ROTATABLE_BOND_COUNT>
9

> <JCHEM_RULE_OF_FIVE>
1

> <ALOGPS_SOLUBILITY>
1.61e-03 g/l

> <JCHEM_TRADITIONAL_IUPAC>
tetrahydrofolic acid

> <JCHEM_VEBER_RULE>
0

> <DRUGBANK_ID>
DB07505

> <DRUG_GROUPS>
experimental

> <GENERIC_NAME>
N-({(3R,4R)-4-[(benzyloxy)methyl]pyrrolidin-3-yl}methyl)-N-(2-methylpropyl)benzenesulfonamide

$$$$
