C5D
  Mrv0541 02241213292D          

 36 37  0  0  0  0            999 V2000
   -0.7104   -0.2716    0.0000 C   0  0  0  0  0  0  0  0  0  0  0  0
   -0.7966   -1.0921    0.0000 C   0  0  0  0  0  0  0  0  0  0  0  0
   -1.5503   -1.4277    0.0000 C   0  0  0  0  0  0  0  0  0  0  0  0
   -2.3040   -1.7632    0.0000 C   0  0  0  0  0  0  0  0  0  0  0  0
   -3.0577   -2.0988    0.0000 C   0  0  0  0  0  0  0  0  0  0  0  0
   -2.7221   -2.8525    0.0000 C   0  0  0  0  0  0  0  0  0  0  0  0
   -3.3932   -1.3451    0.0000 C   0  0  0  0  0  0  0  0  0  0  0  0
   -3.8113   -2.4344    0.0000 O   0  0  0  0  0  0  0  0  0  0  0  0
   -2.3865   -3.6061    0.0000 F   0  0  0  0  0  0  0  0  0  0  0  0
   -1.9684   -2.5169    0.0000 F   0  0  0  0  0  0  0  0  0  0  0  0
   -3.4758   -3.1880    0.0000 F   0  0  0  0  0  0  0  0  0  0  0  0
   -3.7288   -0.5914    0.0000 F   0  0  0  0  0  0  0  0  0  0  0  0
   -2.6395   -1.0096    0.0000 F   0  0  0  0  0  0  0  0  0  0  0  0
   -4.1469   -1.6807    0.0000 F   0  0  0  0  0  0  0  0  0  0  0  0
    5.4728    2.1456    0.0000 O   0  0  0  0  0  0  0  0  0  0  0  0
    3.2905    2.1877    0.0000 C   0  0  1  0  0  0  0  0  0  0  0  0
    4.0751    2.4427    0.0000 C   0  0  0  0  0  0  0  0  0  0  0  0
    4.6882    1.8906    0.0000 C   0  0  1  0  0  0  0  0  0  0  0  0
    4.5166    1.0837    0.0000 C   0  0  0  0  0  0  0  0  0  0  0  0
    3.7320    0.8287    0.0000 C   0  0  0  0  0  0  0  0  0  0  0  0
    3.5605    0.0218    0.0000 C   0  0  0  0  0  0  0  0  0  0  0  0
    2.7759   -0.2332    0.0000 C   0  0  0  0  0  0  0  0  0  0  0  0
    2.1628    0.3189    0.0000 C   0  0  0  0  0  0  0  0  0  0  0  0
    3.1189    1.3808    0.0000 C   0  0  0  0  0  0  0  0  0  0  0  0
    0.1587    1.1619    0.0000 C   0  0  0  0  0  0  0  0  0  0  0  0
    0.7107    0.5488    0.0000 C   0  0  0  0  0  0  0  0  0  0  0  0
    1.3782    0.0639    0.0000 C   0  0  1  0  0  0  0  0  0  0  0  0
    1.1232   -0.7207    0.0000 C   0  0  0  0  0  0  0  0  0  0  0  0
    0.2982   -0.7207    0.0000 C   0  0  0  0  0  0  0  0  0  0  0  0
    0.0433    0.0639    0.0000 C   0  0  2  0  0  0  0  0  0  0  0  0
    1.2627    1.1619    0.0000 C   0  0  0  0  0  0  0  0  0  0  0  0
    2.6774    2.7398    0.0000 O   0  0  0  0  0  0  0  0  0  0  0  0
   -0.3692    0.7784    0.0000 C   0  0  0  0  0  0  0  0  0  0  0  0
    3.4119    2.7589    0.0000 H   0  0  0  0  0  0  0  0  0  0  0  0
    4.8096    2.4618    0.0000 H   0  0  0  0  0  0  0  0  0  0  0  0
    1.2667    0.6371    0.0000 H   0  0  0  0  0  0  0  0  0  0  0  0
  1  2  1  0  0  0  0
 30  1  1  6  0  0  0
  2  3  1  0  0  0  0
  3  4  3  0  0  0  0
  4  5  1  0  0  0  0
  5  6  1  0  0  0  0
  5  7  1  0  0  0  0
  5  8  1  0  0  0  0
  6  9  1  0  0  0  0
  6 10  1  0  0  0  0
  6 11  1  0  0  0  0
  7 12  1  0  0  0  0
  7 13  1  0  0  0  0
  7 14  1  0  0  0  0
 18 15  1  6  0  0  0
 16 17  1  0  0  0  0
 16 24  1  0  0  0  0
 16 32  1  1  0  0  0
 16 34  1  6  0  0  0
 17 18  1  0  0  0  0
 18 19  1  0  0  0  0
 18 35  1  1  0  0  0
 19 20  1  0  0  0  0
 20 21  2  0  0  0  0
 20 24  1  0  0  0  0
 21 22  1  0  0  0  0
 22 23  2  0  0  0  0
 27 23  1  6  0  0  0
 25 26  1  0  0  0  0
 26 27  1  0  0  0  0
 26 30  1  0  0  0  0
 26 31  1  0  0  0  0
 27 28  1  0  0  0  0
 27 36  1  1  0  0  0
 28 29  1  0  0  0  0
 29 30  1  0  0  0  0
 30 33  1  1  0  0  0
M  END
> <DATABASE_ID>
DB07530

> <DATABASE_NAME>
drugbank

> <SMILES>
[H][C@]1(CC[C@](C)(CCC#CC(O)(C(F)(F)F)C(F)(F)F)C1(C)C)\C=C\C=C1C[C@](O)([H])C[C@@](O)([H])C1

> <INCHI_IDENTIFIER>
InChI=1S/C24H32F6O3/c1-20(2)17(8-6-7-16-13-18(31)15-19(32)14-16)9-12-21(20,3)10-4-5-11-22(33,23(25,26)27)24(28,29)30/h6-8,17-19,31-33H,4,9-10,12-15H2,1-3H3/b8-6+/t17-,18-,19-,21+/m1/s1

> <INCHI_KEY>
PCHUQQNKOFNVDU-OSXMSNBXSA-N

> <FORMULA>
C24H32F6O3

> <MOLECULAR_WEIGHT>
482.4995

> <EXACT_MASS>
482.22556412

> <JCHEM_ACCEPTOR_COUNT>
3

> <JCHEM_ATOM_COUNT>
65

> <JCHEM_AVERAGE_NEUTRAL_MICROSPECIES_CHARGE>
-0.7875364493787916

> <JCHEM_AVERAGE_POLARIZABILITY>
45.59355471651992

> <JCHEM_BIOAVAILABILITY>
1

> <JCHEM_DONOR_COUNT>
3

> <JCHEM_FORMAL_CHARGE>
0

> <JCHEM_GHOSE_FILTER>
0

> <JCHEM_IUPAC>
(1R,3R)-5-[(2E)-3-[(1S,3R)-2,2,3-trimethyl-3-[6,6,6-trifluoro-5-hydroxy-5-(trifluoromethyl)hex-3-yn-1-yl]cyclopentyl]prop-2-en-1-ylidene]cyclohexane-1,3-diol

> <ALOGPS_LOGP>
5.22

> <JCHEM_LOGP>
4.9814749303333326

> <ALOGPS_LOGS>
-5.65

> <JCHEM_MDDR_LIKE_RULE>
0

> <JCHEM_NEUTRAL_CHARGE>
-1

> <JCHEM_NUMBER_OF_RINGS>
2

> <JCHEM_PHYSIOLOGICAL_CHARGE>
-1

> <JCHEM_PKA>
14.811642755307322

> <JCHEM_PKA_STRONGEST_ACIDIC>
6.431013816764803

> <JCHEM_PKA_STRONGEST_BASIC>
-2.749516939359207

> <JCHEM_POLAR_SURFACE_AREA>
60.69

> <JCHEM_REFRACTIVITY>
115.81649999999998

> <JCHEM_ROTATABLE_BOND_COUNT>
8

> <JCHEM_RULE_OF_FIVE>
1

> <ALOGPS_SOLUBILITY>
1.07e-03 g/l

> <JCHEM_TRADITIONAL_IUPAC>
tetrahydrofolic acid

> <JCHEM_VEBER_RULE>
0

> <DRUGBANK_ID>
DB07530

> <DRUG_GROUPS>
experimental

> <GENERIC_NAME>
(1R,3R)-5-[(2E)-3-{(1S,3R)-2,2,3-trimethyl-3-[6,6,6-trifluoro-5-hydroxy-5-(trifluoromethyl)hex-3-yn-1-yl]cyclopentyl}prop-2-en-1-ylidene]cyclohexane-1,3-diol

$$$$
