Carotene-beta
  Mrv1572001071617042D          

 40 41  0  0  0  0            999 V2000
   -6.7893   -0.2309    0.0000 C   0  0  0  0  0  0  0  0  0  0  0  0
   -6.0748    0.1816    0.0000 C   0  0  0  0  0  0  0  0  0  0  0  0
   -7.5038   -1.4684    0.0000 C   0  0  0  0  0  0  0  0  0  0  0  0
   -8.2182   -0.2309    0.0000 C   0  0  0  0  0  0  0  0  0  0  0  0
   -5.3603   -0.2309    0.0000 C   0  0  0  0  0  0  0  0  0  0  0  0
   -8.2182   -1.0559    0.0000 C   0  0  0  0  0  0  0  0  0  0  0  0
   -4.6459    0.1816    0.0000 C   0  0  0  0  0  0  0  0  0  0  0  0
   -3.9314   -0.2309    0.0000 C   0  0  0  0  0  0  0  0  0  0  0  0
   -4.6459    1.0066    0.0000 C   0  0  0  0  0  0  0  0  0  0  0  0
   -3.2169    0.1816    0.0000 C   0  0  0  0  0  0  0  0  0  0  0  0
   -2.5025   -0.2309    0.0000 C   0  0  0  0  0  0  0  0  0  0  0  0
   -1.7880    0.1816    0.0000 C   0  0  0  0  0  0  0  0  0  0  0  0
   -1.0735   -0.2309    0.0000 C   0  0  0  0  0  0  0  0  0  0  0  0
   -1.7880    1.0066    0.0000 C   0  0  0  0  0  0  0  0  0  0  0  0
   -0.3591    0.1816    0.0000 C   0  0  0  0  0  0  0  0  0  0  0  0
    0.3554   -0.2309    0.0000 C   0  0  0  0  0  0  0  0  0  0  0  0
    1.0699    0.1816    0.0000 C   0  0  0  0  0  0  0  0  0  0  0  0
    1.7844   -0.2309    0.0000 C   0  0  0  0  0  0  0  0  0  0  0  0
    2.4988    0.1816    0.0000 C   0  0  0  0  0  0  0  0  0  0  0  0
    1.7844   -1.0559    0.0000 C   0  0  0  0  0  0  0  0  0  0  0  0
    3.2133   -0.2309    0.0000 C   0  0  0  0  0  0  0  0  0  0  0  0
    3.9278    0.1816    0.0000 C   0  0  0  0  0  0  0  0  0  0  0  0
    4.6422   -0.2309    0.0000 C   0  0  0  0  0  0  0  0  0  0  0  0
    5.3567    0.1816    0.0000 C   0  0  0  0  0  0  0  0  0  0  0  0
    4.6422   -1.0559    0.0000 C   0  0  0  0  0  0  0  0  0  0  0  0
    6.0712   -0.2309    0.0000 C   0  0  0  0  0  0  0  0  0  0  0  0
    6.7857    0.1816    0.0000 C   0  0  0  0  0  0  0  0  0  0  0  0
    7.5001    1.4191    0.0000 C   0  0  0  0  0  0  0  0  0  0  0  0
    8.2146    0.1816    0.0000 C   0  0  0  0  0  0  0  0  0  0  0  0
    8.2146    1.0066    0.0000 C   0  0  0  0  0  0  0  0  0  0  0  0
   -6.7893   -1.0559    0.0000 C   0  0  0  0  0  0  0  0  0  0  0  0
   -6.0748   -1.4684    0.0000 C   0  0  0  0  0  0  0  0  0  0  0  0
    6.0712    1.4191    0.0000 C   0  0  0  0  0  0  0  0  0  0  0  0
    6.7857    1.0066    0.0000 C   0  0  0  0  0  0  0  0  0  0  0  0
   -7.9163    0.8961    0.0000 C   0  0  0  0  0  0  0  0  0  0  0  0
   -7.5038    0.1816    0.0000 C   0  0  0  0  0  0  0  0  0  0  0  0
   -7.0913    0.8961    0.0000 C   0  0  0  0  0  0  0  0  0  0  0  0
    7.0876   -0.9453    0.0000 C   0  0  0  0  0  0  0  0  0  0  0  0
    7.5001   -0.2309    0.0000 C   0  0  0  0  0  0  0  0  0  0  0  0
    7.9126   -0.9453    0.0000 C   0  0  0  0  0  0  0  0  0  0  0  0
  1 31  2  0  0  0  0
  1 36  1  0  0  0  0
  1  2  1  0  0  0  0
 31  3  1  0  0  0  0
 36  4  1  0  0  0  0
  2  5  2  0  0  0  0
  3  6  1  0  0  0  0
  5  7  1  0  0  0  0
  7  8  2  0  0  0  0
  7  9  1  0  0  0  0
  8 10  1  0  0  0  0
 10 11  2  0  0  0  0
 11 12  1  0  0  0  0
 12 13  2  0  0  0  0
 12 14  1  0  0  0  0
 13 15  1  0  0  0  0
 15 16  2  0  0  0  0
 16 17  1  0  0  0  0
 17 18  2  0  0  0  0
 18 19  1  0  0  0  0
 18 20  1  0  0  0  0
 19 21  2  0  0  0  0
 21 22  1  0  0  0  0
 22 23  2  0  0  0  0
 23 24  1  0  0  0  0
 23 25  1  0  0  0  0
 24 26  2  0  0  0  0
 26 27  1  0  0  0  0
 27 34  2  0  0  0  0
 27 39  1  0  0  0  0
 34 28  1  0  0  0  0
 39 29  1  0  0  0  0
 28 30  1  0  0  0  0
  4  6  1  0  0  0  0
 29 30  1  0  0  0  0
 31 32  1  0  0  0  0
 34 33  1  0  0  0  0
 36 35  1  0  0  0  0
 36 37  1  0  0  0  0
 39 38  1  0  0  0  0
 39 40  1  0  0  0  0
M  END
> <DATABASE_ID>
DB06755

> <DATABASE_NAME>
drugbank

> <SMILES>
C\C(\C=C\C=C(/C)\C=C\C1=C(C)CCCC1(C)C)=C/C=C/C=C(\C)/C=C/C=C(\C)/C=C/C1=C(C)CCCC1(C)C

> <INCHI_IDENTIFIER>
InChI=1S/C40H56/c1-31(19-13-21-33(3)25-27-37-35(5)23-15-29-39(37,7)8)17-11-12-18-32(2)20-14-22-34(4)26-28-38-36(6)24-16-30-40(38,9)10/h11-14,17-22,25-28H,15-16,23-24,29-30H2,1-10H3/b12-11+,19-13+,20-14+,27-25+,28-26+,31-17+,32-18+,33-21+,34-22+

> <INCHI_KEY>
OENHQHLEOONYIE-JLTXGRSLSA-N

> <FORMULA>
C40H56

> <MOLECULAR_WEIGHT>
536.888

> <EXACT_MASS>
536.438201803

> <JCHEM_ACCEPTOR_COUNT>
0

> <JCHEM_ATOM_COUNT>
96

> <JCHEM_AVERAGE_POLARIZABILITY>
71.84136004580817

> <JCHEM_BIOAVAILABILITY>
0

> <JCHEM_DONOR_COUNT>
0

> <JCHEM_FORMAL_CHARGE>
0

> <JCHEM_GHOSE_FILTER>
0

> <JCHEM_IUPAC>
1,3,3-trimethyl-2-[(1E,3E,5E,7E,9E,11E,13E,15E,17E)-3,7,12,16-tetramethyl-18-(2,6,6-trimethylcyclohex-1-en-1-yl)octadeca-1,3,5,7,9,11,13,15,17-nonaen-1-yl]cyclohex-1-ene

> <ALOGPS_LOGP>
9.72

> <JCHEM_LOGP>
11.124081100000001

> <ALOGPS_LOGS>
-6.14

> <JCHEM_MDDR_LIKE_RULE>
0

> <JCHEM_NUMBER_OF_RINGS>
2

> <JCHEM_PHYSIOLOGICAL_CHARGE>
0

> <JCHEM_POLAR_SURFACE_AREA>
0.0

> <JCHEM_REFRACTIVITY>
191.61180000000013

> <JCHEM_ROTATABLE_BOND_COUNT>
10

> <JCHEM_RULE_OF_FIVE>
0

> <ALOGPS_SOLUBILITY>
3.91e-04 g/l

> <JCHEM_TRADITIONAL_IUPAC>
β-carotene

> <JCHEM_VEBER_RULE>
1

> <DRUGBANK_ID>
DB06755

> <DRUG_GROUPS>
approved; nutraceutical

> <GENERIC_NAME>
Beta carotene

> <SYNONYMS>
all-trans-β-carotene; Beta carotene; beta-carotene; Betacarotene; β-Karotin

> <PRODUCTS>
24 Multivitamins + Minerals; A.B.C. Formula #1; A.C.E.S. Capsules; A/o-26 - Caplet; Absorbene; Aces Caplet; Aces Formula/formule A A S; Acti-carotene + Zn Caplet; Acti-retinol & Zn Caplet; Active FE; Adeks - Dps; Adeks Tablets; Adrien Gagnon Formule A-C-E + Selenium; Adult Formula 50+; Alkadrenergy Tablets; Am Caps; Avon Vitadvance Multi-kids Complete; B-plus - Tab; B.E.T. Complex; Bal-Care DHA; Bal-Care DHA Essential; Balance Ace - Cap; Beta A 10000 Cap; Beta A With Vitamins C and E Plus Selenium; Beta C & E With Selenium; Beta C and E Tab; Beta Carotene; Beta Carotene - Capsule 25000 Iu; Beta Carotene - Tab 25000iu; Beta Carotene 10 000 - Tab 10000I.U.; Beta Carotene 10 000 Iu; Beta Carotene 10,000 Iu; Beta Carotene 10000 I.U. - Capsule; Beta Carotene 10000 I.U. Cap; Beta Carotene 10000 I.U. Tablets; Beta Carotene 10000 U.I.; Beta Carotene 10000I.U. Dietary Supplement; Beta Carotene 10000unit Tab; Beta Carotene 25,000 I.U. Tab; Beta Carotene 25,000iu Caplet; Beta Carotene 25000 Caplet; Beta Carotene 25000 I.U.; Beta Carotene 25000 I.U. Tablets; Beta Carotene 25000 U.I.; Beta Carotene 25000I.U. Dietary Supplement; Beta Carotene 30,000 Iu; Beta Carotene Cap 10000unit; Beta Carotene Cap 25000I.U.; Beta Carotene Cap 25000unit; Beta Carotene Cap 30000unit; Beta Carotene Caplet 25000iu; Beta Carotene Capsules U.S.P. 10000 I.U.; Beta Carotene Capsules U.S.P. 25000I.U.; Beta Carotene Extra Forte Cap 25000; Beta Carotene Extra Forte-cap; Beta Carotene Gelule Cap 10000unit; Beta Carotene Plus; Beta Carotene Provitamin A With D; Beta Carotene Supplement; Beta Carotene Tab 10000unit; Beta Carotene Tab 25000 Unit; Beta Carotene Tab 25000unit; Beta Carotene Tab 30000units; Beta Carotene Tablets 10000 Iu; Beta Carotene Tablets 25000I.U.; Beta Green Enriching Formula; Beta Marine Caplet; Beta-CE Cap; Beta-carotene 10,000 Iu With Vitamins C & E; Beta-carotene 10000 U.I. - Capsule; Beta-carotene 10000I.U. With Borage Oil Cap; Beta-carotene 25000 Plus Zinc Caplet; Beta-carotene Cap 25000unit; Beta-carotene Capsules; Beta-carotene Capsules 10000unit; Beta-carotene,vitamin C,e and Selenium Combo; Beta-retinol + Zinc Caplet; Betacarotene 10000 Iu; Betacarotene 25000 Iu; Betacept Special Formula Vitamins Cap; Betafant Tab; Betatene 20 Lp 20; Bio Bronze Cap 924unit; Body Rox; Bodysmarts With Vitamins A, C and E; C-plus - Tab; Card-floe II Tab; Caro Caps 5.9mg; Carotene Capsules 10,000 Iu; Cavan Alpha; Cavan Folate DHA; Cavan Folate OB; Cavan-EC SOD DHA; Cell-wise; Cell-wise Natural Source; Cellular Formula; Central-vite 18 Essential; Century Complete; Chewable Adult Multivitamins With Minerals; Chewable Beta-carotene 5000 I.U.(3mg) Tab; Children's Chew Multi & Min Tab; Children's Chewable Multivitamin and Multimineral; Children's Chewable Multivitamins and Minerals; Children's Chewable Tab; Children's Chewable Vit and Min Tab; Chlorotene-beta Carotene Tab 12500unit; Choice OB DHA; Coen.q10w.vit.c and E Beta-car.se Cu Zn Mn; Complete Multivitamins and Minerals Tablets Timed Release; Complete Natal DHA; Complete One-A-day - Tab; CompleteNate Chewable; Corvita; Corvite; Cps Capsules; Daily Balance Tab; Daily Energy Brand Vitamin & Mineral Drink Mix; Defense Caplets; Derma-force; Doctor's Choice Brand for Men; Dr. Chen's Men's Formula; Duet DHA; Duet DHA 400; Duet DHA 400 ec; Duet DHA Balanced; DuetDHA Balanced; DuetDHA Complete; E & I Formulae; E.S.T. Complex; EC + Complex; Earthpals Children's Chewables Multi-vitamin & Mineral Tablets; Eden With Vitamins A, C, and E; Edge OB; Emuol V; Enrich Core Pack - Children Vitamin and Mineral Supplement; Envirocomplex; Escavite D; Essential Vitamins and Minerals; Evc - Liq; Evc Liquid Vitamins A,c,b6 With Beta Caro&zn; Extra 11; Extra Once A Day; Extra P.N. Vitamin-mineral Drink Mix; Fem - Protect; Fem Time Tab; Floriva; FolaGent DHA; FolaMax; FolaMed DHA; Folet DHA; Folika-MG; For-2; Formula 14 Dietary Supplement; Formula Cp Cap; Formula Cw; Formula Cw-caplet; Formula Gly; Formula Im-vitamins and Minerals Tab; Formula O; Formula O.C.; Fusion Activator Formula Tab; G.A.S. Complex; Geri-plus Cap; Germacil; Gnc Natural Source Beta-carotene 6mg Softcap; Grand Master Formula Tab; Great Day/am Formula Tab; Guardyn Tab; H.W. Children's Chewable Multi Vit & Mineral; Hi Potency Multi Tab; High Potency Multivitamins & Minerals Caplets; I-care Multivitamin and Multimineral Tablets; IV-8 Formula; Icaps; Icaps Time Release; Imm Formula Cap; Innersource Tab; Iron Polysaccharides Folic Acid DHA; Isotonix Atx Vitamin Mineral Formula; Isotonix Multitech Vitamin Mineral Supplemen; Itabs Plus; Kama Caze Syrup; Kamu Jay Multi Complex Tab; Kanga-kid Multi-vitamin & Mineral; L.I.P. Complex; Longevit-E - Capsule; Luna Vitamin and Mineral Bar for Women; Maintain Multiple Vitamin & Minerals; Master Key Multi Vitamin Multi Mineral Formula 2; Materna; Materna - Tab; Materna-tab; Maximum Once A Day; Maxine Vitamin and Mineral Supplement; Maxum Multi-vite; Mega Balance; Mega Capsules; Mega Plex III - Pck; Mega Plex IV - Pck; Mega-vim 75 With Beta-carotene - Tablets; Men's; Men's 50+; Men's Biomultiple Vitamin and Mineral Supplement; Milltrium Senior Vitamin and Mineral Supplement; Moms Choice Rx; Multi - N.T.O.x Formula - Tab; Multi Flow Tablets; Multi Nt-OX; Multi Plex I - Tab; Multi Plex II - Tab; Multi Spectrum - Tablet; Multi Vitamin - Mineral; Multi Vitamines - Liq; Multi-Nate 30; Multi-actin; Multi-kid; Multi-phyto Capsules; Multi-vitamin Dietary Supplement; Multinate DHA; Multinate DHA Extra; Multipack II; Multiple Vitamins - Tablet; Multivitamin & Minerals (iron Free); Multivitamin & Multimineral; Multivitamines Et Mineraux Reguliers / Regular Multivitamins and Minerals; Multivitamins and Minerals - Complete; Multivitamins and Minerals Tablets; Multivitamins and Minerals With Betacarotene Tablets; Multivitamins and Minerals for Men; Multivitamins and Minerals for Women; Multivitamins and Minerals for Young Men; Multivitamins and Minerals for Young Women; Multivitamins and Multiminerals Formula Regular Tablet; Multra Plex; Munit-E Tablet; NEONATAL Complete; NataChew; Natal-V RX Multi-vitamin/Multi-mineral; Natavite; Natural Source Beta Carotene Cap 25000iu; Natural Source Betacarotene 25000 Iu; Natural Source Spectrum With Beta Carotene; Neonatal DHA; Novel Vita; Nutra Boost; Nutria; Nutrilite Double X; Nutrol V Capsule; OB Complete Prenatal; Ocuvite Tab; Ocuvite Vitamin and Mineral Supplement; Onccor; Oncovite; One A Day Advance Adults; One A Day Advance Adults 50+; One A Day Advance Fem; One Daily Vitamin and Mineral Dietary Supplement; One Per Day Vitamin and Mineral Dietary Supplement; One Tablet Daily Mens Formula; One-A-day Advance Fem - Tablets; One-A-day Advance Men's; Only One - Tablet; Optivite Vitamin and Mineral Supplement Tablet; Original Bioscal Forte Multi-vitamin Supplement Capsules; P.N. Vitamin-mineral Drink; P.N.P. Vitamin Drink; P.R.O. Complex; PM Caps; PNV Ferrous Fumarate Docusate Folic Acid; PNV Prenatal Plus Multivitamin; PNV Tabs 20-1; PNV Tabs 29-1; PNV-First; PR Natal 400; PR Natal 400 ec; PR Natal 430; PR Natal 430 ec; Paramettes Beta Carotene Cap 25000iu; Paramettes Beta Carotene With Vitamins C & E; Perfect Harvest; Pnv-OB-dha; Pour Ma Santé; PreGen DHA; PreGenna; PreNatal 19; PrePLUS; PreTAB; Pregvit; Pregvit Folic 4; Pregvit Folic 5; Premium Prenatal; Premium Prenatal - Tablets; Prenatabs FA; Prenatal Formula Tab; Prenatal Plus; Prenatal Plus Iron; Prenatal Plus Multivitamin Plus DHA MiniCaps; Prenatal Plus Vitamins; Prenatal Supplement - Tab; Prenatal Vi-min; Prenatal Vitamin and Mineral Supplement; Prenatal Vitamin and Mineral Supplement -tab; Prenatal Vitamin and Mineral Supplement Tab; Prenatal Vitamins Plus Low Iron; Prenatal Vitamins and Minerals Tablets; Prenatal and Post Partum Supplement; Prenate Elite; Prenate Star; Pro-ace; ProFola; Prost-10 Vitamin and Mineral Supplement; Q.T. #4 Vitamin and Mineral Dietary Supplement; RE Nata OB; RayaVit; Renate; Renate DHA; Revit Multi-vitamins and Minerals; Revitalize Multi-vitamin and Mineral Complex; Right Choice A.M. Multi Formula - Caplet; Rocky Mountain Multiple Vit and Min Mega Tab; Se-Natal 19; Se-Natal 19 Chewable; Select OB; Select-OB Plus DHA Prenatal Supplement Plus DHA; Senior Multi One; SetonET; SetonET-EC; Sincera - Tablets; Somavit Brand Vitamins and Minerals Complex; Spectrum 2 Cap; Spectrum Performa Multivitamins and Minerals Tablets; Super 7 Vitamin and Mineral Supplement; Super Ao Formula; Super Charged Energy; Super Kids Chewable Multivitamin Multimineral (chewable Tablets); Super Multi; Super Vita-vim With Beta-carotene - Tab; Super-A Vitamins With Selenium Dietary Supplement; Super-cell; Supplement De Multivitamines Infusion Arome Fruits Rouges; Swiss One Multivitamin and Mineral Caplet; Swiss Total One; TL-Folate; Thrivite 19; Thrivite Rx; Trinatal GT; Trinatal Rx 1; Trinatal Ultra; Triveen-Duo DHA; Twin Opti Pwr; Ultra Hr; Usana Megavitamin Tablets - Tab; V-V Dietary Supplement; Vc II; Vege Swiss One Multivitamin W Chel Mins Tab; Vena-Bal DHA; Vie-CA-rad Capsules; Vinate AZ; Virt Nate; Virt Vite GT; Virt-Advance; Virt-Bal DHA Plus; Virt-Nate; Virt-PN; Virt-Pn; Vita Balance 2000; Vita Day Tab; Vita Plex Tab; Vita Vim With Beta Carotene-caplet; Vita-vim With Beta-carotene - Tab; VitaPhil Aide; Vitafol Fe Plus; Vitafol Ultra; Vitalife - Capsule; Vitamin A C E W.niacinam.beta Car.and Min.; Vitamin E + 3 (extra Strength); Vitamin E + 3 Extra Strength With Zinc; Vitaminol; Vitamins A, C & E Cap.; Vitamins C Plus E W.beta Carotene and Se; Vitaphil 90 DHA; Vitaphil DHA; Viva Kids - Tab; Vol-Nate; Vol-Plus; Vol-Tab Rx; Vtb Vitamin and Mineral Supplement; Vyo Cylate - Pwr; Vyqua; Webber E Plus 3 Cap; Webber Natural Source Beta Carotene Cap; WesTab Plus; Women's Biomultiple Vitamin and Mineral Supplement; Women's Change Formula; Women's Formula; Zatean-Pn; Zinc With B-carotene Tab; healthy mamaBE WELL ROUNDED BE WELL ROUNDED

$$$$
