Carotene-beta
  Mrv1718004101817222D          

 21 21  0  0  0  0            999 V2000
   -6.7893   -0.2309    0.0000 C   0  0  0  0  0  0  0  0  0  0  0  0
   -6.0748    0.1816    0.0000 C   0  0  0  0  0  0  0  0  0  0  0  0
   -7.5038   -1.4684    0.0000 C   0  0  0  0  0  0  0  0  0  0  0  0
   -8.2182   -0.2309    0.0000 C   0  0  0  0  0  0  0  0  0  0  0  0
   -5.3602   -0.2309    0.0000 C   0  0  0  0  0  0  0  0  0  0  0  0
   -8.2182   -1.0559    0.0000 C   0  0  0  0  0  0  0  0  0  0  0  0
   -4.6459    0.1816    0.0000 C   0  0  0  0  0  0  0  0  0  0  0  0
   -3.9314   -0.2309    0.0000 C   0  0  0  0  0  0  0  0  0  0  0  0
   -4.6459    1.0066    0.0000 C   0  0  0  0  0  0  0  0  0  0  0  0
   -3.2169    0.1816    0.0000 C   0  0  0  0  0  0  0  0  0  0  0  0
   -2.5025   -0.2309    0.0000 C   0  0  0  0  0  0  0  0  0  0  0  0
   -1.7880    0.1816    0.0000 C   0  0  0  0  0  0  0  0  0  0  0  0
   -1.0734   -0.2309    0.0000 C   0  0  0  0  0  0  0  0  0  0  0  0
   -1.7880    1.0066    0.0000 C   0  0  0  0  0  0  0  0  0  0  0  0
   -0.3590    0.1816    0.0000 C   0  0  0  0  0  0  0  0  0  0  0  0
   -6.7893   -1.0559    0.0000 C   0  0  0  0  0  0  0  0  0  0  0  0
   -6.0748   -1.4684    0.0000 C   0  0  0  0  0  0  0  0  0  0  0  0
   -7.9163    0.8961    0.0000 C   0  0  0  0  0  0  0  0  0  0  0  0
   -7.5038    0.1816    0.0000 C   0  0  0  0  0  0  0  0  0  0  0  0
   -7.0913    0.8961    0.0000 C   0  0  0  0  0  0  0  0  0  0  0  0
    0.3553   -0.2308    0.0000 O   0  0  0  0  0  0  0  0  0  0  0  0
  1 16  2  0  0  0  0
  1 19  1  0  0  0  0
  1  2  1  0  0  0  0
 16  3  1  0  0  0  0
 19  4  1  0  0  0  0
  2  5  2  0  0  0  0
  3  6  1  0  0  0  0
  5  7  1  0  0  0  0
  7  8  2  0  0  0  0
  7  9  1  0  0  0  0
  8 10  1  0  0  0  0
 10 11  2  0  0  0  0
 11 12  1  0  0  0  0
 12 13  2  0  0  0  0
 12 14  1  0  0  0  0
 13 15  1  0  0  0  0
  4  6  1  0  0  0  0
 16 17  1  0  0  0  0
 19 18  1  0  0  0  0
 19 20  1  0  0  0  0
 15 21  1  0  0  0  0
M  END
> <DATABASE_ID>
DB00162

> <DATABASE_NAME>
drugbank

> <SMILES>
C\C(=C/CO)\C=C\C=C(/C)\C=C\C1=C(C)CCCC1(C)C

> <INCHI_IDENTIFIER>
InChI=1S/C20H30O/c1-16(8-6-9-17(2)13-15-21)11-12-19-18(3)10-7-14-20(19,4)5/h6,8-9,11-13,21H,7,10,14-15H2,1-5H3/b9-6+,12-11+,16-8+,17-13+

> <INCHI_KEY>
FPIPGXGPPPQFEQ-OVSJKPMPSA-N

> <FORMULA>
C20H30O

> <MOLECULAR_WEIGHT>
286.4516

> <EXACT_MASS>
286.229665582

> <JCHEM_ACCEPTOR_COUNT>
1

> <JCHEM_ATOM_COUNT>
51

> <JCHEM_AVERAGE_POLARIZABILITY>
36.5403584594368

> <JCHEM_BIOAVAILABILITY>
1

> <JCHEM_DONOR_COUNT>
1

> <JCHEM_FORMAL_CHARGE>
0

> <JCHEM_GHOSE_FILTER>
1

> <JCHEM_IUPAC>
(2E,4E,6E,8E)-3,7-dimethyl-9-(2,6,6-trimethylcyclohex-1-en-1-yl)nona-2,4,6,8-tetraen-1-ol

> <ALOGPS_LOGP>
6.38

> <JCHEM_LOGP>
4.694093173000001

> <ALOGPS_LOGS>
-4.58

> <JCHEM_MDDR_LIKE_RULE>
0

> <JCHEM_NUMBER_OF_RINGS>
1

> <JCHEM_PHYSIOLOGICAL_CHARGE>
0

> <JCHEM_PKA_STRONGEST_ACIDIC>
16.435769749539965

> <JCHEM_PKA_STRONGEST_BASIC>
-2.1707943115512176

> <JCHEM_POLAR_SURFACE_AREA>
20.23

> <JCHEM_REFRACTIVITY>
97.92339999999999

> <JCHEM_ROTATABLE_BOND_COUNT>
5

> <JCHEM_RULE_OF_FIVE>
1

> <ALOGPS_SOLUBILITY>
7.58e-03 g/l

> <JCHEM_TRADITIONAL_IUPAC>
vitamin A

> <JCHEM_VEBER_RULE>
1

> <DRUGBANK_ID>
DB00162

> <SECONDARY_ACCESSION_NUMBERS>
NUTR00007; APRD00486

> <DRUG_GROUPS>
approved; nutraceutical; vet_approved

> <GENERIC_NAME>
Vitamin A

> <SYNONYMS>
(2E,4E,6E,8E)-3,7-dimethyl-9-(2,6,6-trimethylcyclohex-1-en-1-yl)nona-2,4,6,8-tetraen-1-ol; all-trans-retinol; all-trans-retinyl alcohol; all-trans-vitamin A alcohol; Retinol; Retinolum; Vitamin A1

> <PRODUCTS>
24 Multivitamins + Minerals; 400 Vitamin A 10000iu; 50 Plus; 50 Plus Multiple Vitamins & Minerals; A & C Powder; A + D Ointment; A + Zinc; A Caps 10000 I.U.; A D Calcium Tab; A Mulsion 10; A and D Ointment; A-D Calcium Cap; Abavite; Aces Tab; Acti-retinol & Zn Caplet; Ad & Calcium Cap; Ad Calcium Cap; Adc Comprimes; Adeks - Dps; Adeks Tablets; Adult Formula 50+; Adult Infuvite Multiple Vitamins; Alsimine W Vitamins A D; Amerix Multivitamin; Anaplex Tab; Animal Shapes; Animal Shapes w/Iron Chewtabs; Antiseptic Skin Cream; Appedrine; Aquasol A; Aquasol A & D Drops; Aquasol A Cap 25000unit; Aquasol A Cap 50000unit; Aquasol A Cream; Arovit Vitamine A Tab 10000unit; Avon Vitadvance Multi-kids Complete; B.E.T. Complex; Bacmin; Bear Essentials; Beta Green Enriching Formula; Beta-retinol + Zinc Caplet; Biovim Tab; Budpak Vitamin A and D; Bugs Bunny Chew Multi Vit Plus Iron; Bugs Bunny and Friends Multiple Vitamins; C 106 Tab; C-Mask Pack; C. Vit-min Formula; Calci A and D Tab; Calcitol; Calcium A D; Card-floe II Tab; Cataplex A Tab 1500unit; Cataplex A-C Tab; Central-vite 18 Essential; Century Complete; Ch-P Cap; Chew.multiple Vits.with Extra C for Children; Chewable Adult Multivitamins With Minerals; Chewable Children's Complete Multivitamins With Essential Minerals; Chewable Multiple Vit Plus Iron for Children; Chewable Multiple Vitamins Plus Extra C; Chewable Multiple Vitamins Plus Iron Tab; Chewable Multiple Vitamins Tab; Chewable Multiple Vitamins for Children; Chewable Multivitamins; Chewable Multivitamins Plus Iron; Children Choice Multivit Chewable Tab; Children Choice Multivitamin W Iron Chew Tab; Children Pediatric Vitamins Drops; Children Vitamin Drops; Children's Chew Multi & Min Tab; Children's Chewable Multi Vit W Iron; Children's Chewable Multi Vitamins; Children's Chewable Multi Vitamins With Iron Tablets; Children's Chewable Multi-vitamin; Children's Chewable Multi-vitamin Complete With Minerals; Children's Chewable Multiple Vit.plus Iron; Children's Chewable Multiple Vitamins (chewable Tablets); Children's Chewable Multiple Vitamins - Tab; Children's Chewable Multiple Vitamins With Extra Vitamin C (chewable Tablets); Children's Chewable Multiple Vitamins With Iron Tablets (chewable Tablets); Children's Chewable Multivitamin Complete With Minerals; Children's Chewable Multivitamin and Multimineral; Children's Chewable Multivitamins With Minerals; Children's Chewable Multivitamins and Minerals; Children's Chewable Tab; Children's Chewable With Iron; Children's Multivitamins; Children's Multivitamins With Iron; Children's Vitamins Chewable; Children's Vitamins W Iron Chewable; Childrens Chew Multi Vitamin Tab; Childrens Chewab Vitamin W Chel Minerals; Childrens Chewable Multiple Vitamins; Childrens Chewable Multiple Vitamins Plus Fe; Childrens Chewable Multiple Vitamins Tab; Childrens Chewable Multiple Vitamins W.iron; Childrens Chewable Multivitamins; Childrens Chewable Multivitamins W Iron; Childrens Chewable Tab; Childrens Chewable Vitamin Tab; Childrens Chewable Vitamins; Childrens Chewable Vitamins W Iron; Childrens Multiple Vit and Min Chew Tab; Cilobana Cpa Tab; Classic Swiss One 10 Multivitamin and Mineral Tab; Cod Liver Oil; Cod Liver Oil Cap; Cod Liver Oil Capsule; Cod Liver Oil Capsules; Cod Liver Oil Capsules 10 Min; Cod Liver Oil Cherry; Cod Liver Oil Mint Flavoured; Cod Liver Oil Oleovitamin A & D Caps 20min; Cod Liver Oil USP; Cod Liver Oil W Added Vit A&d; Complete Multivitamins and Minerals Tablets Timed Release; Complete Multivitamins and Minerals for Children; Complete One A Day Tab; Complete One-A-day - Tab; Croq-vit Pour Enfants; Cyroplex; Daily Balance Tab; Daily Energy Brand Vitamin & Mineral Drink Mix; Daily-Vite; Davimet; Dayavite; Deriton; Derma Anti-Wrinkles; Dermamed Nutrition for troubled skin; Dexatrim Tablets; Doctor's Choice Brand for Men; Dry Super Vitamin A Plus D - Cap; Dynam Ampoule Et Tablet; E & I Formulae; E.S.T. Complex; E.V.C. Vitamins Tab; EC + Complex; Earthpals Children's Chewables Multi-vitamin & Mineral Tablets; Elite OB Prenatal Multivitamin; Emulsified Norwegian Cod Liver Oil Caps; Enrich Core Pack - Children Vitamin and Mineral Supplement; Escavite; Escavite Lq; Essential Vitamins and Minerals; Evc - Liq; Evc Liquid Vitamins A,c,b6 With Beta Caro&zn; Everyday Multiple Vitamins; Everyday Multiple Vitamins With Iron; Extra Once A Day; Extra P.N. Vitamin-mineral Drink Mix; Fem - Control; Fem - Protect; Feminex 300 Tab; Femitab Tab; Fizz Multivitamins for Kids W C Loz; Fletanol Capsules; Flexadyn Tab; Flinstones Multiple Plus Iron; Flintstones Multiple Vitamins; Flintstones Multiple Vitamins Plus Iron; Flintstones Multiple Vitamins Tab; Flintstones W Extra C Tab; Floriva; Floriva Plus; FolaGent DHA; FolaMed DHA; Foliflex; Folitin-Z; Food Nutrition Inc. Men's Vitamin and Mineral Supplement; For Kids Only Chewable Multivit. Plus Iron; For Kids Only Chewable Multivitamins; For Kids Only Chewable Multivitamins - Tab; For-2; Formula 7115 Tab 700unit; Formula Csp With Vitamins A C and Zinc Loz; Formula Fe-vitamin and Mineral Tab; Formula Gly; Formula Hh; Formula Im-vitamins and Minerals Tab; Formula L.G.I.; Formula O; Formula Osg; Formula R Tab; Formula U - Tab; Formule 7561 Caps; Fortamines 10 Capsules; Fortamines-10 Comprimes; Forty Plus Vitamin Supplement; G.A.S. Complex; Garfield Chewable Multivitamins Tab; Garfield Chewable Multivits Plus Iron Tab; Gemvites Jr Tab Chewable; Gestamine Comprimes; Globucel - Methode; Grand Master Formula Tab; Great Day/am Formula Tab; Guardyn Tab; Halibut Liver Oil Cap; Halibut Oil; Hemarexin Tab; High Potency Multivitamins & Minerals Caplets; Huile De Foie De Fletan Capsules; Huile De Foie De Morue Cap 10min; Huile De Foie De Morue Cap 20 Min; Huile De Foie De Morue Capsules; Huile Foie Morue Cap; Hypo Vites Tab; INATAL Ultra; Imm Formula Cap; Inatal Advance; Infa Drops Multivitamins; Infant Multivitamin Drops; Infant's Multiple Vitamin Drops; Infantol Drops; Infants' Multiple Vitamin Drops; Infants' Vitamin Drops; Infuvite Adult Multiple Vitamins; Innersource Tab; Insur-all Vitamin Supplement; Isotonix Multitech Vitamin Mineral Supplemen; Junior Multi Vitamins - Regular; K.L. Vitamin-mineral; Kenwood Liquid Supplement; Kid's Choice Children's Chewable Vitamins - Tab; Kidmag Vitamins W Magnesium Tab; Kids Stuff Tablets; Kids Stuff With Iron Tablets; Kimchi Vitamin chewable multivitamin; Kindervites; L.C. Supplement; L.I.P. Complex; Le Stick A Levres Onybel; Liqui Infant Vitamins; Liqui Vita; Lustime Angel; Lustime Unicorn; Lutime; M-Natal Plus; M.V.I. 12; M.V.I. Adult; M.V.I. Paediatric; M.V.I. Pediatric; M.V.I.-12; MVC-Fluoride; Mag-A-folic Tab; Magnum-75 Vitamin and Mineral Supplement; Maltlevol 12 Liq; Maltlevol Liq; Master Key Multi Vitamin Multi Mineral Formula 2; Materna; Materna - Tab; Materna-tab; Maxi 10 Tab; Maxi 6 Liq; Maximum Once A Day; Maxine Vitamin and Mineral Supplement; Maxum Multi-vite; Mega Balance; Mega Capsules; Mega Vitaminerals; Mega-vim 75 With Beta-carotene - Tablets; Megavite Rx; Men's; Men's 50+; Men's Multi Master Formula; Milltrium Senior Vitamin and Mineral Supplement; Mor-vites Tab; Mr. Tumee Multi-vitamin; Multi #2; Multi - N.T.O.x Formula - Tab; Multi 1000; Multi 12 Injection; Multi Enfants Tab; Multi Flow Tablets; Multi II IV Vi Tab; Multi Rol; Multi Tabs; Multi Vitamin & Minerals; Multi Vitamin Drops with Fluoride; Multi Vitamin Drops with Fluoride and Iron; Multi Vitamin Drops with Fluoride with Iron; Multi Vitamin Plus Iron; Multi Vitamin and Fluoride; Multi Vitamin and Mineral vitamin; Multi Vitamin with Fluoride; Multi Vitamin, Iron and Fluoride; Multi Vitamin-mineral Formula; Multi Vitamines - Liq; Multi Vitamins & Minerals; Multi Vite Liq Adult; Multi Vite Liq Junior; Multi-11; Multi-12 Pediatric; Multi-12/k1 Pediatric; Multi-Vit with Fluoride; Multi-Vit with Fluoride and Iron; Multi-Vitamin; Multi-Vitamin Drops with Fluoride and Iron; Multi-Vitamin Fluoride; Multi-Vitamin Fluoride Drops; Multi-Vitamin Fluoride and Iron Drops; Multi-Vitamin With Fluoride; Multi-Vitamin with Fluoride; Multi-actin; Multi-force for Adults Tab; Multi-force for Women Tab; Multi-kid; Multi-phyto Capsules; Multi-vitamin Dietary Supplement; Multi-vitamines Enfants Comprime; Multi-vitamins; Multi-vitamins With Minerals; MultiVitamin Drops with Fluoride and Iron; MultiVitamin with Fluoride; MultiVitamin with Fluoride Chewable; MultiVitamin with Fluoride Drops; MultiVitamin, Iron and Fluoride Drops; Multicaps; Multiple Vit Plus Iron Tab; Multiple Vitamin Plus Minerals Tab; Multiple Vitamin Tab; Multiple Vitamins; Multiple Vitamins & Minerals Tablets; Multiple Vitamins - Tablet; Multiple Vitamins Childrens Chewable; Multiple Vitamins Plus Iron - Tab; Multiple Vitamins Plus Iron Tab; Multiple Vitamins Plus Iron for Women; Multiple Vitamins Tab; Multiple Vitamins W Iron Tab; Multiple Vitamins W Minerals Tab; Multiple Vitamins With Iron; Multiple Vitamins With Iron Tablets; Multiple Vitamins With Minerals Tablets; Multiple Vitamins and Minerals; Multiple Vitamins and Minerals Capsules; Multiple Vitamins and Minerals Tab; Multitabs; Multitam; Multivit Et Fer Ampoules Et Comprimes; Multivit with Fluoride; Multivitamin; Multivitamin & Multimineral; Multivitamin Drops with Fluoride; Multivitamin with Fluoride; Multivitamin with fluoride; Multivitamines; Multivitamines Et Mineraux; Multivitamines Et Mineraux Junior Regulier; Multivitamines Et Mineraux Reguliers / Regular Multivitamins and Minerals; Multivitamines Plus Fer Pour Enfants (chewable Tablets); Multivitamines Pour Enfants (chewable Tablets); Multivitamins; Multivitamins W Iron; Multivitamins W Minerals Extra Strength; Multivitamins and Minerals - Complete; Multivitamins and Minerals Tablets; Multivitamins and Minerals With Betacarotene Tablets; Multivitamins and Multiminerals Formula Regular Tablet; Multivitamins for Children; Multra With Iron; Munit-E Tablet; Mvc; Mvc 9 Plus 3 Inj; Mvc 9+4 Inj; Mycelized Childrens Multi-vitamin Liq; Nata Komplete; Natavite; Natural Source Spectrum With Beta Carotene; Neo Vites Tab; Neo-vites & Minerals Tab; Neomultivite; Neonatal Plus Vitamin; Neonatal Vitamin; Nitro Vites - Tab; Niva-Plus; No440 Cap; NovaFerrum Multivitamin with Iron Pediatric Drops; NovaMV Multivitamin; Nrg Plus Liq; Numark Multivitamins; Nutra-clear; Nutria; Nutrifer Plus Tablets; Nutrol Ad; Nutrol Ad Cap; O-Cal FA multivitamin; O-Cal Prenatal Vitamin; Olympian Multi Vit Plus Minerals Tab; Omega-3 Rx Complete; Onccor; Oncovite; One A Day Advance Adults; One A Day Advance Adults 50+; One A Day Advance Fem; One A Day Multiple Vit W Minerals; One A Day Tab; One Daily VITES; One Daily Vitamin and Mineral Dietary Supplement; One Per Day Vitamin and Mineral Dietary Supplement; One Tablet Daily Mens Formula; One-A-day Advance Fem - Tablets; One-A-day Advance Men's; Only One - Tablet; Orifer F; P.N. Vitamin-mineral Drink; P.R.O. Complex; PNV Prenatal Plus Multivitamin; PNV Prenatal Vitamin Plus Vitamin A; PNV-Select; Palm Springs Multvit and Min Tab; Paramettes Adults; Paramettes Chewable Multivitamins Plus Iron; Paramettes Chewable Multivits With Iron Tab; Paramettes Multivits Plus Iron Tab (teens); Paramettes Syrup; Pediatric Infuvite Multiple Vitamins; Pediatric Infuvite Multiple Vitamins for Infusion; Perfect Harvest; Permathene-12 - Caplet; Phaze 18 Clearskin; Phytofortis + Calcium A-D; Phytopure; Phytovim Cap; Ply Vi Sol Chewable Tab; Poly Vi Flor Chewable Tab; Poly-VI-sol Drops; Poly-Vi-Flor; Poly-Vi-Flor Gummies; Poly-Vi-Sol; Poly-Vitamin with Fluoride; Poly-Vite Pediatric Oral Solution; Poly-Vite/Iron Oral Solution; PreGen DHA; PreNatal Vitamins Plus; PreQue 10; Premium Prenatal; Premium Prenatal - Tablets; Prenara; Prenatal; Prenatal Formula Tab; Prenatal Mega Antioxidant; Prenatal Plus; Prenatal Plus Iron; Prenatal Plus Multivitamin Plus DHA MiniCaps; Prenatal Plus Vitamins; Prenatal Supplement - Tab; Prenatal Vi-min; Prenatal Vitamin and Mineral Supplement; Prenatal Vitamin and Mineral Supplement -tab; Prenatal Vitamin and Mineral Supplement Tab; Prenatal Vitamins Plus; Prenatal Vitamins Plus Low Iron; Prenatal Vitamins and Minerals Tablets; Prenatal and Post Partum Supplement; Prenate Elite; Prenatrix; Prenatryl; Prenatvite; Prenatvite Complete; Prenatvite Plus; Prenavite Forte; Prenavite Forte Tablets; Prenavite Tablets; Preplus; Pretrate; Prevital Tab; Pro His Mint; Pro-sol A Liq 5000unit/min; Prometa; Protect Plus SO 60; Q.T. Vitamin and Mineral Drink Mix; Quflora FE; Quflora FE Pediatric Drops; Quflora Gummies; Quflora Pediatric; Quflora Pediatric Drops; RE FAC-x; RE Prenatal Multivitamin with Iron; Real Vitamin Supplement Cap; Reaphirm Plant Source DHA; Renadyn Tab; Revit Plus Cap; Revit Tab; Revitex Ampoules Et Comprimes; Revival 1 Tab; Ribotin-E; Right Choice A.M. Multi Formula - Caplet; Se-Natal; Se-Natal One; Select OB; Select-OB Plus DHA Prenatal Supplement Plus DHA; Shen Min Vitamin Supplement; Sincera - Tablets; Skineez; Sopalamine 3b Plus; Sopalamine/3b Plus C; Spark Cap; Spectrum 2 Cap; Spectrum Performa Multivitamins and Minerals Tablets; Strovite Forte Caplet; Strovite One Caplets; Sun-rype Vitaburst; Super A 40; Super Charged Energy; Super Daily No 2; Super Kids Chewable Multivitamin Multimineral (chewable Tablets); Super Vita Vim Multivitamins and Minerals; Super Vita-vim With Beta-carotene - Tab; Super-A Vitamins With Selenium Dietary Supplement; Super-pote Vitamin Supplement; Supravite Pour Enfants; Sveets; Sweet Sixteen - Tab; Swical-energy 3e Age; Swiss One; Swiss One Multi Vit & Chel Min Tab; Swiss One Timed Release Tab; Swiss Total One; T.A. Vit A & D Ointment; TL-Fluorivite; Tender Age Multi Vitamins; Tender Age Vit Adc Drops; Theraplex Acp; Thymunase Tab; Timed Release Vita-vim Srt; Tma Tab; Tonicol Et A-D-C Ampoules/comprimes; Tonimol Cap Liq; Total Living Concepts Formula One - Tab; Totalvit Plus; Tozal; Tri Vi Flor Tab; Tri-VI-sol Drops; Tri-Vi-Flor; Tri-Vit With Fluoride And Iron Drops; Tri-Vit with Fluoride Drops; Tri-Vitamin with Fluoride; Tri-Vitamin with iron and fluoride; Tri-Vite Drops with Fluoride; Tri-Vite Pediatric Oral Solution; Trinatal Ultra; Triple Vitamin Drops with Fluoride; Triple-Vitamin Drops with Fluoride; Twin G.F. Powder; Twin G.F. Powder Vanilla Flavor; Ultimate Tab; V & M Vitamin and Mineral Supplement; VIL-Rx; VITAFOL Gummies; VITAMINS A, C, D and FLUORIDE; Vasculine; Vege 1 Daily Tab; Venexa; Venexa FE; Ventrixyl; Ventrixyl Fe; Vi-daylin Adc Vitamins Drops for Infants; Vimeral Tab; Vit-HA Multi Vitamin and Zinc Supplement; Vita A + D Capsules; Vita Balance 2000; Vita Day Tab; Vita Plex Tab; Vita Vim Multivitamins and Minerals Tab; Vita Vim With Beta Carotene-caplet; Vita-vim - Tab; Vita-vim With Beta-carotene - Tab; Vitaday Junior Tab; Vitaday Tab; Vitafant; Vitafol Caplet; Vitafol Fe Plus; Vitafol OB Caplet; Vitafol One; Vitafol Plus; Vitafol-OB Plus DHA Prenatal Supplement Plus DHA; Vitalife - Capsule; Vitamin & Mineral Formula 1 Dietary Supplement; Vitamin A; Vitamin A (100,000 Iu) and Vitamin E (20 Iu) Oral Liquid Preparation; Vitamin A (200,000 Iu) and Vitamin E (40 Iu) Oral Liquid Preparation; Vitamin A 10000I.U. Cap; Vitamin A 5000 I.U. Dietary Supplement; Vitamin A C E W.niacinam.beta Car.and Min.; Vitamin A Cap 10000iu; Vitamin A Cap 10000iu Natural Source; Vitamin A Cap 10000unit; Vitamin A Cap 10000unit Naturelle; Vitamin A Cap 10000unit USP; Vitamin A Cap 25000iu; Vitamin A Cap 50000iu; Vitamin A Tab 10000unit; Vitamin A Tab 2000unit Chewable; Vitamin A and D; Vitamin A and D Cap; Vitamin A&d Tab; Vitamin Ad Cap; Vitamin E Cream W Vitamins A and D; Vitamine A Cap 10000unit; Vitamines A - D Calcium; Vitamines Et Mineraux; Vitamines Et Mineraux Comprimes; Vitamines Et Mineraux Enfants 970; Vitamines Pour Bebes Et Enfants; Vitamins A and D Capsules; Vitamins A, C, D and Fluoride Drops; Vitaplex; Vitramyn; Vitranol; Vitranol Fe; Vitrexate; Vitrexate FE; Vitrexyl; Vitrexyl plus Iron; Viva Kids - Tab; Vol-Plus; Vp-pnv-dha; Vtb Vitamin and Mineral Supplement; Wellness Formula; WesTab Plus; Women's Change Formula; Women's Formula; Zinc Amino Acid Chelate Tab; Zintrexyl-C; Zoo Chews; Zoo Chews Plus Iron

> <INTERNATIONAL_BRANDS>
Alphalin; Chocola A

> <SALTS>
Vitamin A acetate; Vitamin A palmitate

$$$$
