CDY
  Mrv0541 02231215582D          

 20 22  0  0  0  0            999 V2000
   -0.7016    3.0340    0.0000 O   0  0  0  0  0  0  0  0  0  0  0  0
   -0.1496    2.4209    0.0000 C   0  0  0  0  0  0  0  0  0  0  0  0
   -0.4045    1.6363    0.0000 C   0  0  1  0  0  0  0  0  0  0  0  0
    0.0804    0.9689    0.0000 O   0  0  0  0  0  0  0  0  0  0  0  0
   -1.1892    1.3814    0.0000 C   0  0  0  0  0  0  0  0  0  0  0  0
   -1.1892    0.5564    0.0000 C   0  0  0  0  0  0  0  0  0  0  0  0
   -0.4045    0.3014    0.0000 C   0  0  2  0  0  0  0  0  0  0  0  0
   -0.1496   -0.4832    0.0000 N   0  0  0  0  0  0  0  0  0  0  0  0
   -0.6345   -1.1506    0.0000 C   0  0  0  0  0  0  0  0  0  0  0  0
   -0.1496   -1.8181    0.0000 N   0  0  0  0  0  0  0  0  0  0  0  0
    0.6350   -1.5631    0.0000 C   0  0  0  0  0  0  0  0  0  0  0  0
    0.6350   -0.7381    0.0000 C   0  0  0  0  0  0  0  0  0  0  0  0
    1.3495   -0.3256    0.0000 N   0  0  0  0  0  0  0  0  0  0  0  0
    2.0640   -0.7381    0.0000 C   0  0  0  0  0  0  0  0  0  0  0  0
    2.7784   -0.3256    0.0000 Cl  0  0  0  0  0  0  0  0  0  0  0  0
    2.0640   -1.5631    0.0000 N   0  0  0  0  0  0  0  0  0  0  0  0
    1.3495   -1.9756    0.0000 C   0  0  0  0  0  0  0  0  0  0  0  0
    1.3495   -2.8006    0.0000 N   0  0  0  0  0  0  0  0  0  0  0  0
    0.1722    1.7277    0.0000 H   0  0  0  0  0  0  0  0  0  0  0  0
    0.1722    0.2101    0.0000 H   0  0  0  0  0  0  0  0  0  0  0  0
  1  2  1  0  0  0  0
  3  2  1  1  0  0  0
  3  4  1  0  0  0  0
  3  5  1  0  0  0  0
  3 19  1  6  0  0  0
  4  7  1  0  0  0  0
  5  6  1  0  0  0  0
  6  7  1  0  0  0  0
  7  8  1  1  0  0  0
  7 20  1  6  0  0  0
  8  9  1  0  0  0  0
  8 12  1  0  0  0  0
  9 10  2  0  0  0  0
 10 11  1  0  0  0  0
 11 12  2  0  0  0  0
 11 17  1  0  0  0  0
 12 13  1  0  0  0  0
 13 14  2  0  0  0  0
 14 15  1  0  0  0  0
 14 16  1  0  0  0  0
 16 17  2  0  0  0  0
 17 18  1  0  0  0  0
M  END
> <DATABASE_ID>
DB02103

> <DATABASE_NAME>
drugbank

> <SMILES>
[H][C@@]1(CO)CC[C@@]([H])(O1)N1C=NC2=C1N=C(Cl)N=C2N

> <INCHI_IDENTIFIER>
InChI=1S/C10H12ClN5O2/c11-10-14-8(12)7-9(15-10)16(4-13-7)6-2-1-5(3-17)18-6/h4-6,17H,1-3H2,(H2,12,14,15)/t5-,6+/m0/s1

> <INCHI_KEY>
FNLILOONPKMGST-NTSWFWBYSA-N

> <FORMULA>
C10H12ClN5O2

> <MOLECULAR_WEIGHT>
269.688

> <EXACT_MASS>
269.06795236

> <JCHEM_ACCEPTOR_COUNT>
6

> <JCHEM_ATOM_COUNT>
30

> <JCHEM_AVERAGE_NEUTRAL_MICROSPECIES_CHARGE>
1.59589688117239e-05

> <JCHEM_AVERAGE_POLARIZABILITY>
25.86749640782175

> <JCHEM_BIOAVAILABILITY>
1

> <JCHEM_DONOR_COUNT>
2

> <JCHEM_FORMAL_CHARGE>
0

> <JCHEM_GHOSE_FILTER>
1

> <JCHEM_IUPAC>
[(2S,5R)-5-(6-amino-2-chloro-9H-purin-9-yl)oxolan-2-yl]methanol

> <ALOGPS_LOGP>
0.35

> <JCHEM_LOGP>
0.42687730166666604

> <ALOGPS_LOGS>
-1.86

> <JCHEM_MDDR_LIKE_RULE>
0

> <JCHEM_NEUTRAL_CHARGE>
0

> <JCHEM_NUMBER_OF_RINGS>
3

> <JCHEM_PHYSIOLOGICAL_CHARGE>
0

> <JCHEM_PKA>
18.08703835532027

> <JCHEM_PKA_STRONGEST_ACIDIC>
14.672592375556198

> <JCHEM_PKA_STRONGEST_BASIC>
2.2198030246846345

> <JCHEM_POLAR_SURFACE_AREA>
99.08

> <JCHEM_REFRACTIVITY>
66.38959999999999

> <JCHEM_ROTATABLE_BOND_COUNT>
2

> <JCHEM_RULE_OF_FIVE>
1

> <ALOGPS_SOLUBILITY>
3.69e+00 g/l

> <JCHEM_TRADITIONAL_IUPAC>
biotin

> <JCHEM_VEBER_RULE>
0

> <DRUGBANK_ID>
DB02103

> <SECONDARY_ACCESSION_NUMBERS>
EXPT00881

> <DRUG_GROUPS>
experimental

> <GENERIC_NAME>
2-Chlorodideoxyadenosine

$$$$
