CL3
  Mrv0541 02231217282D          

 26 29  0  0  0  0            999 V2000
   -0.4761   -3.0232    0.0000 O   0  0  0  0  0  0  0  0  0  0  0  0
    0.1317    1.0124    0.0000 N   0  0  0  0  0  0  0  0  0  0  0  0
   -0.5828    1.4249    0.0000 N   0  0  0  0  0  0  0  0  0  0  0  0
   -0.5828    2.2499    0.0000 C   0  0  0  0  0  0  0  0  0  0  0  0
    0.1317    2.6624    0.0000 C   0  0  0  0  0  0  0  0  0  0  0  0
    0.8462    2.2499    0.0000 C   0  0  0  0  0  0  0  0  0  0  0  0
    0.8462    1.4249    0.0000 C   0  0  0  0  0  0  0  0  0  0  0  0
   -1.3674    1.1699    0.0000 C   0  0  0  0  0  0  0  0  0  0  0  0
   -1.8523    1.8374    0.0000 N   0  0  0  0  0  0  0  0  0  0  0  0
   -1.3674    2.5048    0.0000 N   0  0  0  0  0  0  0  0  0  0  0  0
    1.5607    1.0124    0.0000 C   0  0  0  0  0  0  0  0  0  0  0  0
   -1.6223    0.3853    0.0000 C   0  0  0  0  0  0  0  0  0  0  0  0
   -1.0703   -0.2278    0.0000 C   0  0  0  0  0  0  0  0  0  0  0  0
   -1.3252   -1.0124    0.0000 C   0  0  0  0  0  0  0  0  0  0  0  0
   -2.1322   -1.1839    0.0000 C   0  0  0  0  0  0  0  0  0  0  0  0
   -2.6842   -0.5709    0.0000 C   0  0  0  0  0  0  0  0  0  0  0  0
   -2.4293    0.2138    0.0000 C   0  0  0  0  0  0  0  0  0  0  0  0
    2.2751    1.4249    0.0000 C   0  0  0  0  0  0  0  0  0  0  0  0
    2.9896    1.0124    0.0000 C   0  0  0  0  0  0  0  0  0  0  0  0
    2.9896    0.1874    0.0000 C   0  0  0  0  0  0  0  0  0  0  0  0
    2.2751   -0.2251    0.0000 C   0  0  0  0  0  0  0  0  0  0  0  0
    1.5607    0.1874    0.0000 C   0  0  0  0  0  0  0  0  0  0  0  0
   -0.7732   -1.6255    0.0000 N   0  0  0  0  0  0  0  0  0  0  0  0
    0.0338   -1.4540    0.0000 C   0  0  0  0  0  0  0  0  0  0  0  0
   -1.0281   -2.4101    0.0000 C   0  0  0  0  0  0  0  0  0  0  0  0
   -1.8351   -2.5817    0.0000 C   0  0  0  0  0  0  0  0  0  0  0  0
  1 25  2  0  0  0  0
  2  3  1  0  0  0  0
  2  7  2  0  0  0  0
  3  4  1  0  0  0  0
  3  8  1  0  0  0  0
  4  5  1  0  0  0  0
  4 10  2  0  0  0  0
  5  6  2  0  0  0  0
  6  7  1  0  0  0  0
  7 11  1  0  0  0  0
  8  9  2  0  0  0  0
  8 12  1  0  0  0  0
  9 10  1  0  0  0  0
 11 18  2  0  0  0  0
 11 22  1  0  0  0  0
 12 13  2  0  0  0  0
 12 17  1  0  0  0  0
 13 14  1  0  0  0  0
 14 15  2  0  0  0  0
 14 23  1  0  0  0  0
 15 16  1  0  0  0  0
 16 17  2  0  0  0  0
 18 19  1  0  0  0  0
 19 20  2  0  0  0  0
 20 21  1  0  0  0  0
 21 22  2  0  0  0  0
 23 24  1  0  0  0  0
 23 25  1  0  0  0  0
 25 26  1  0  0  0  0
M  END
> <DATABASE_ID>
DB04154

> <DATABASE_NAME>
drugbank

> <SMILES>
CN(C(C)=O)C1=CC=CC(=C1)C1=NN=C2C=CC(=NN12)C1=CC=CC=C1

> <INCHI_IDENTIFIER>
InChI=1S/C20H17N5O/c1-14(26)24(2)17-10-6-9-16(13-17)20-22-21-19-12-11-18(23-25(19)20)15-7-4-3-5-8-15/h3-13H,1-2H3

> <INCHI_KEY>
ALBWBHNFOJJMCV-UHFFFAOYSA-N

> <FORMULA>
C20H17N5O

> <MOLECULAR_WEIGHT>
343.3819

> <EXACT_MASS>
343.143310191

> <JCHEM_ACCEPTOR_COUNT>
4

> <JCHEM_ATOM_COUNT>
43

> <JCHEM_AVERAGE_NEUTRAL_MICROSPECIES_CHARGE>
1.1705429198724797e-06

> <JCHEM_AVERAGE_POLARIZABILITY>
36.50587987702849

> <JCHEM_BIOAVAILABILITY>
1

> <JCHEM_DONOR_COUNT>
0

> <JCHEM_FORMAL_CHARGE>
0

> <JCHEM_GHOSE_FILTER>
1

> <JCHEM_IUPAC>
N-methyl-N-(3-{6-phenyl-[1,2,4]triazolo[4,3-b]pyridazin-3-yl}phenyl)acetamide

> <ALOGPS_LOGP>
2.99

> <JCHEM_LOGP>
2.8521433336666684

> <ALOGPS_LOGS>
-4.15

> <JCHEM_MDDR_LIKE_RULE>
0

> <JCHEM_NEUTRAL_CHARGE>
0

> <JCHEM_NUMBER_OF_RINGS>
4

> <JCHEM_PHYSIOLOGICAL_CHARGE>
0

> <JCHEM_PKA_STRONGEST_BASIC>
1.06838789709537

> <JCHEM_POLAR_SURFACE_AREA>
63.39000000000001

> <JCHEM_REFRACTIVITY>
121.83450000000002

> <JCHEM_ROTATABLE_BOND_COUNT>
3

> <JCHEM_RULE_OF_FIVE>
1

> <ALOGPS_SOLUBILITY>
2.45e-02 g/l

> <JCHEM_TRADITIONAL_IUPAC>
tetrahydrofolic acid

> <JCHEM_VEBER_RULE>
0

> <DRUGBANK_ID>
DB04154

> <SECONDARY_ACCESSION_NUMBERS>
EXPT00933

> <DRUG_GROUPS>
experimental

> <GENERIC_NAME>
N-Methyl-N-[3-(6-Phenyl[1,2,4]Triazolo[4,3-B]Pyridazin-3-Yl)Phenyl]Acetamide

$$$$
