CRR
  Mrv0541 02241213312D          

 29 33  0  0  0  0            999 V2000
   -1.7057    0.0725    0.0000 C   0  0  0  0  0  0  0  0  0  0  0  0
   -2.0412    0.8261    0.0000 C   0  0  0  0  0  0  0  0  0  0  0  0
   -2.8617    0.9124    0.0000 C   0  0  0  0  0  0  0  0  0  0  0  0
   -3.3466    0.2449    0.0000 C   0  0  0  0  0  0  0  0  0  0  0  0
   -3.0111   -0.5087    0.0000 C   0  0  0  0  0  0  0  0  0  0  0  0
   -2.1906   -0.5950    0.0000 C   0  0  0  0  0  0  0  0  0  0  0  0
   -1.7057   -1.2624    0.0000 N   0  0  0  0  0  0  0  0  0  0  0  0
   -0.9210   -1.0075    0.0000 C   0  0  0  0  0  0  0  0  0  0  0  0
   -0.9210   -0.1825    0.0000 C   0  0  0  0  0  0  0  0  0  0  0  0
   -0.2536    0.3025    0.0000 C   0  0  0  0  0  0  0  0  0  0  0  0
   -0.2536    1.1275    0.0000 C   0  0  0  0  0  0  0  0  0  0  0  0
   -0.9210    1.6124    0.0000 C   0  0  0  0  0  0  0  0  0  0  0  0
   -0.8348    2.4329    0.0000 O   0  0  0  0  0  0  0  0  0  0  0  0
   -1.6747    1.2768    0.0000 O   0  0  0  0  0  0  0  0  0  0  0  0
    0.5310    1.3824    0.0000 N   0  0  0  0  0  0  0  0  0  0  0  0
    1.0159    0.7150    0.0000 C   0  0  0  0  0  0  0  0  0  0  0  0
    1.8409    0.7150    0.0000 C   0  0  0  0  0  0  0  0  0  0  0  0
    2.2534    0.0005    0.0000 O   0  0  0  0  0  0  0  0  0  0  0  0
    2.2534    1.4294    0.0000 O   0  0  0  0  0  0  0  0  0  0  0  0
    0.5310    0.0475    0.0000 C   0  0  0  0  0  0  0  0  0  0  0  0
    0.7860   -0.7371    0.0000 C   0  0  0  0  0  0  0  0  0  0  0  0
    1.5706   -0.9920    0.0000 C   0  0  0  0  0  0  0  0  0  0  0  0
    2.2850   -0.5795    0.0000 C   0  0  0  0  0  0  0  0  0  0  0  0
    2.9995   -0.9920    0.0000 C   0  0  0  0  0  0  0  0  0  0  0  0
    2.9995   -1.8170    0.0000 C   0  0  0  0  0  0  0  0  0  0  0  0
    2.2850   -2.2295    0.0000 C   0  0  0  0  0  0  0  0  0  0  0  0
    1.5706   -1.8170    0.0000 C   0  0  0  0  0  0  0  0  0  0  0  0
    0.7860   -2.0720    0.0000 N   0  0  0  0  0  0  0  0  0  0  0  0
    0.3010   -1.4045    0.0000 C   0  0  0  0  0  0  0  0  0  0  0  0
  1  6  2  0  0  0  0
  1  2  1  0  0  0  0
  1  9  1  0  0  0  0
  2  3  2  0  0  0  0
  3  4  1  0  0  0  0
  4  5  2  0  0  0  0
  5  6  1  0  0  0  0
  6  7  1  0  0  0  0
  7  8  1  0  0  0  0
  8  9  2  0  0  0  0
  9 10  1  0  0  0  0
 10 11  2  0  0  0  0
 10 20  1  0  0  0  0
 11 12  1  0  0  0  0
 11 15  1  0  0  0  0
 12 13  2  0  0  0  0
 12 14  1  0  0  0  0
 15 16  1  0  0  0  0
 16 20  2  0  0  0  0
 16 17  1  0  0  0  0
 17 18  2  0  0  0  0
 17 19  1  0  0  0  0
 20 21  1  0  0  0  0
 21 22  1  0  0  0  0
 21 29  2  0  0  0  0
 22 23  2  0  0  0  0
 22 27  1  0  0  0  0
 23 24  1  0  0  0  0
 24 25  2  0  0  0  0
 25 26  1  0  0  0  0
 26 27  2  0  0  0  0
 27 28  1  0  0  0  0
 28 29  1  0  0  0  0
M  END
> <DATABASE_ID>
DB07588

> <DATABASE_NAME>
drugbank

> <SMILES>
OC(=O)C1=C(C2=CNC3=CC=CC=C23)C(=C(N1)C(O)=O)C1=CNC2=C1C=CC=C2

> <INCHI_IDENTIFIER>
InChI=1S/C22H15N3O4/c26-21(27)19-17(13-9-23-15-7-3-1-5-11(13)15)18(20(25-19)22(28)29)14-10-24-16-8-4-2-6-12(14)16/h1-10,23-25H,(H,26,27)(H,28,29)

> <INCHI_KEY>
FZDVNXHYGMEEDT-UHFFFAOYSA-N

> <FORMULA>
C22H15N3O4

> <MOLECULAR_WEIGHT>
385.3722

> <EXACT_MASS>
385.106255983

> <JCHEM_ACCEPTOR_COUNT>
4

> <JCHEM_ATOM_COUNT>
44

> <JCHEM_AVERAGE_NEUTRAL_MICROSPECIES_CHARGE>
-1.9990410063636952

> <JCHEM_AVERAGE_POLARIZABILITY>
38.57711863839544

> <JCHEM_BIOAVAILABILITY>
1

> <JCHEM_DONOR_COUNT>
5

> <JCHEM_FORMAL_CHARGE>
0

> <JCHEM_GHOSE_FILTER>
1

> <JCHEM_IUPAC>
3,4-bis(1H-indol-3-yl)-1H-pyrrole-2,5-dicarboxylic acid

> <ALOGPS_LOGP>
3.90

> <JCHEM_LOGP>
3.7002727019999995

> <ALOGPS_LOGS>
-5.19

> <JCHEM_MDDR_LIKE_RULE>
0

> <JCHEM_NEUTRAL_CHARGE>
-2

> <JCHEM_NUMBER_OF_RINGS>
5

> <JCHEM_PHYSIOLOGICAL_CHARGE>
-2

> <JCHEM_PKA>
3.901886470672916

> <JCHEM_PKA_STRONGEST_ACIDIC>
3.209221833021614

> <JCHEM_POLAR_SURFACE_AREA>
121.97

> <JCHEM_REFRACTIVITY>
107.5296

> <JCHEM_ROTATABLE_BOND_COUNT>
2

> <JCHEM_RULE_OF_FIVE>
1

> <ALOGPS_SOLUBILITY>
2.52e-03 g/l

> <JCHEM_TRADITIONAL_IUPAC>
biotin

> <JCHEM_VEBER_RULE>
0

> <DRUGBANK_ID>
DB07588

> <DRUG_GROUPS>
experimental

> <GENERIC_NAME>
3,4-DI-1H-INDOL-3-YL-1H-PYRROLE-2,5-DICARBOXYLIC ACID

$$$$
