DA8
  Mrv0541 02241213332D          

 38 39  0  0  0  0            999 V2000
    4.0910   -0.1250    0.0000 C   0  0  0  0  0  0  0  0  0  0  0  0
    3.3765   -0.5375    0.0000 C   0  0  0  0  0  0  0  0  0  0  0  0
    2.6620   -0.1250    0.0000 C   0  0  0  0  0  0  0  0  0  0  0  0
    1.9476   -0.5375    0.0000 C   0  0  0  0  0  0  0  0  0  0  0  0
    1.2331   -0.1250    0.0000 C   0  0  0  0  0  0  0  0  0  0  0  0
    0.5186   -0.5375    0.0000 C   0  0  0  0  0  0  0  0  0  0  0  0
   -0.1959   -0.1250    0.0000 O   0  0  0  0  0  0  0  0  0  0  0  0
   -0.9103   -0.5375    0.0000 C   0  0  2  0  0  0  0  0  0  0  0  0
   -0.9103   -1.3625    0.0000 O   0  0  0  0  0  0  0  0  0  0  0  0
   -1.6248   -1.7750    0.0000 C   0  0  2  0  0  0  0  0  0  0  0  0
   -1.6248   -2.6000    0.0000 C   0  0  0  0  0  0  0  0  0  0  0  0
   -2.3393   -3.0125    0.0000 O   0  0  0  0  0  0  0  0  0  0  0  0
   -2.3393   -1.3625    0.0000 C   0  0  2  0  0  0  0  0  0  0  0  0
   -3.0537   -1.7750    0.0000 O   0  0  0  0  0  0  0  0  0  0  0  0
   -2.3393   -0.5375    0.0000 C   0  0  0  0  0  0  0  0  0  0  0  0
   -1.6248   -0.1250    0.0000 C   0  0  1  0  0  0  0  0  0  0  0  0
   -1.6248    0.7000    0.0000 O   0  0  0  0  0  0  0  0  0  0  0  0
   -2.3393    1.1125    0.0000 C   0  0  2  0  0  0  0  0  0  0  0  0
   -3.0537    0.7000    0.0000 O   0  0  0  0  0  0  0  0  0  0  0  0
   -3.7682    1.1125    0.0000 C   0  0  1  0  0  0  0  0  0  0  0  0
   -4.4827    0.7000    0.0000 C   0  0  0  0  0  0  0  0  0  0  0  0
   -3.7682    1.9375    0.0000 C   0  0  1  0  0  0  0  0  0  0  0  0
   -4.4827    2.3500    0.0000 O   0  0  0  0  0  0  0  0  0  0  0  0
   -3.0537    2.3500    0.0000 C   0  0  1  0  0  0  0  0  0  0  0  0
   -3.0537    3.1750    0.0000 O   0  0  0  0  0  0  0  0  0  0  0  0
   -2.3393    1.9375    0.0000 C   0  0  2  0  0  0  0  0  0  0  0  0
   -1.6248    2.3500    0.0000 O   0  0  0  0  0  0  0  0  0  0  0  0
    4.8054   -0.5375    0.0000 C   0  0  0  0  0  0  0  0  0  0  0  0
   -0.4046   -0.8295    0.0000 H   0  0  0  0  0  0  0  0  0  0  0  0
   -1.1191   -2.0670    0.0000 H   0  0  0  0  0  0  0  0  0  0  0  0
   -2.3393   -1.9465    0.0000 H   0  0  0  0  0  0  0  0  0  0  0  0
   -1.1191    0.1669    0.0000 H   0  0  0  0  0  0  0  0  0  0  0  0
   -2.3393    0.5285    0.0000 H   0  0  0  0  0  0  0  0  0  0  0  0
   -3.7682    0.5285    0.0000 H   0  0  0  0  0  0  0  0  0  0  0  0
   -4.2739    1.6455    0.0000 H   0  0  0  0  0  0  0  0  0  0  0  0
   -3.5594    2.6419    0.0000 H   0  0  0  0  0  0  0  0  0  0  0  0
   -1.8336    1.6455    0.0000 H   0  0  0  0  0  0  0  0  0  0  0  0
    5.5199   -0.1250    0.0000 C   0  0  0  0  0  0  0  0  0  0  0  0
  1  2  1  0  0  0  0
  1 28  1  0  0  0  0
  2  3  1  0  0  0  0
  3  4  1  0  0  0  0
  4  5  1  0  0  0  0
  5  6  1  0  0  0  0
  6  7  1  0  0  0  0
  8  7  1  6  0  0  0
  8  9  1  0  0  0  0
  8 16  1  0  0  0  0
  8 29  1  1  0  0  0
  9 10  1  0  0  0  0
 10 11  1  6  0  0  0
 10 13  1  0  0  0  0
 10 30  1  1  0  0  0
 11 12  1  0  0  0  0
 13 14  1  6  0  0  0
 13 15  1  0  0  0  0
 13 31  1  1  0  0  0
 15 16  1  0  0  0  0
 16 17  1  1  0  0  0
 16 32  1  6  0  0  0
 18 17  1  6  0  0  0
 18 19  1  0  0  0  0
 18 26  1  0  0  0  0
 18 33  1  1  0  0  0
 19 20  1  0  0  0  0
 20 21  1  1  0  0  0
 20 22  1  0  0  0  0
 20 34  1  6  0  0  0
 22 23  1  1  0  0  0
 22 24  1  0  0  0  0
 22 35  1  6  0  0  0
 24 25  1  1  0  0  0
 24 26  1  0  0  0  0
 24 36  1  6  0  0  0
 26 27  1  6  0  0  0
 26 37  1  1  0  0  0
 28 38  1  0  0  0  0
M  END
> <DATABASE_ID>
DB07633

> <DATABASE_NAME>
drugbank

> <SMILES>
[H][C@@]1(O)C[C@@]([H])(O[C@]2([H])O[C@@]([H])(C)[C@@]([H])(O)[C@@]([H])(O)[C@]2([H])O)[C@]([H])(OCCCCCCCC)O[C@]1([H])CO

> <INCHI_IDENTIFIER>
InChI=1S/C20H38O9/c1-3-4-5-6-7-8-9-26-19-14(10-13(22)15(11-21)29-19)28-20-18(25)17(24)16(23)12(2)27-20/h12-25H,3-11H2,1-2H3/t12-,13+,14+,15+,16+,17+,18-,19+,20-/m0/s1

> <INCHI_KEY>
FBVFDKBCZLMLQT-PPCMOIRNSA-N

> <FORMULA>
C20H38O9

> <MOLECULAR_WEIGHT>
422.5103

> <EXACT_MASS>
422.251582814

> <JCHEM_ACCEPTOR_COUNT>
9

> <JCHEM_ATOM_COUNT>
67

> <JCHEM_AVERAGE_NEUTRAL_MICROSPECIES_CHARGE>
-7.094116125230312e-06

> <JCHEM_AVERAGE_POLARIZABILITY>
46.18704688894134

> <JCHEM_BIOAVAILABILITY>
1

> <JCHEM_DONOR_COUNT>
5

> <JCHEM_FORMAL_CHARGE>
0

> <JCHEM_GHOSE_FILTER>
1

> <JCHEM_IUPAC>
(2S,3S,4R,5S,6S)-2-{[(2R,3R,5R,6R)-5-hydroxy-6-(hydroxymethyl)-2-(octyloxy)oxan-3-yl]oxy}-6-methyloxane-3,4,5-triol

> <ALOGPS_LOGP>
0.75

> <JCHEM_LOGP>
0.7791299623333326

> <ALOGPS_LOGS>
-1.87

> <JCHEM_MDDR_LIKE_RULE>
0

> <JCHEM_NEUTRAL_CHARGE>
0

> <JCHEM_NUMBER_OF_RINGS>
2

> <JCHEM_PHYSIOLOGICAL_CHARGE>
0

> <JCHEM_PKA>
13.192987967220931

> <JCHEM_PKA_STRONGEST_ACIDIC>
12.21548939502095

> <JCHEM_PKA_STRONGEST_BASIC>
-2.9789511933967745

> <JCHEM_POLAR_SURFACE_AREA>
138.07000000000002

> <JCHEM_REFRACTIVITY>
102.72470000000001

> <JCHEM_ROTATABLE_BOND_COUNT>
11

> <JCHEM_RULE_OF_FIVE>
1

> <ALOGPS_SOLUBILITY>
5.72e+00 g/l

> <JCHEM_TRADITIONAL_IUPAC>
biotin

> <JCHEM_VEBER_RULE>
0

> <DRUGBANK_ID>
DB07633

> <DRUG_GROUPS>
experimental

> <GENERIC_NAME>
octyl 3-deoxy-2-O-(6-deoxy-alpha-L-galactopyranosyl)-beta-D-xylo-hexopyranoside

$$$$
