DAC
  Mrv0541 02231217122D          

 18 17  0  0  0  0            999 V2000
    1.2261   -0.4125    0.0000 C   0  0  0  0  0  0  0  0  0  0  0  0
    0.5116   -0.8250    0.0000 O   0  0  0  0  0  0  0  0  0  0  0  0
    1.2261    0.4125    0.0000 C   0  0  0  0  0  0  0  0  0  0  0  0
    0.5116    0.8250    0.0000 C   0  0  0  0  0  0  0  0  0  0  0  0
   -0.2029    0.4125    0.0000 C   0  0  0  0  0  0  0  0  0  0  0  0
   -0.9173    0.8250    0.0000 C   0  0  0  0  0  0  0  0  0  0  0  0
   -1.6318    0.4125    0.0000 C   0  0  0  0  0  0  0  0  0  0  0  0
   -2.3463    0.8250    0.0000 C   0  0  0  0  0  0  0  0  0  0  0  0
   -3.0608    0.4125    0.0000 C   0  0  0  0  0  0  0  0  0  0  0  0
   -3.7752    0.8250    0.0000 C   0  0  0  0  0  0  0  0  0  0  0  0
   -4.4897    0.4125    0.0000 C   0  0  0  0  0  0  0  0  0  0  0  0
    1.9405   -0.8250    0.0000 S   0  0  0  0  0  0  0  0  0  0  0  0
    2.6550   -0.4125    0.0000 C   0  0  0  0  0  0  0  0  0  0  0  0
    3.3695   -0.8250    0.0000 C   0  0  0  0  0  0  0  0  0  0  0  0
    4.0840   -0.4125    0.0000 N   0  0  0  0  0  0  0  0  0  0  0  0
    4.7984   -0.8250    0.0000 C   0  0  0  0  0  0  0  0  0  0  0  0
    5.5129   -0.4125    0.0000 O   0  0  0  0  0  0  0  0  0  0  0  0
    4.7984   -1.6500    0.0000 C   0  0  0  0  0  0  0  0  0  0  0  0
  1  2  2  0  0  0  0
  1  3  1  0  0  0  0
  1 12  1  0  0  0  0
  3  4  2  0  0  0  0
  4  5  1  0  0  0  0
  5  6  1  0  0  0  0
  6  7  1  0  0  0  0
  7  8  1  0  0  0  0
  8  9  1  0  0  0  0
  9 10  1  0  0  0  0
 10 11  1  0  0  0  0
 12 13  1  0  0  0  0
 13 14  1  0  0  0  0
 14 15  1  0  0  0  0
 15 16  1  0  0  0  0
 16 17  2  0  0  0  0
 16 18  1  0  0  0  0
M  END
> <DATABASE_ID>
DB03813

> <DATABASE_NAME>
drugbank

> <SMILES>
CCCCCCC\C=C/C(=O)SCCNC(C)=O

> <INCHI_IDENTIFIER>
InChI=1S/C14H25NO2S/c1-3-4-5-6-7-8-9-10-14(17)18-12-11-15-13(2)16/h9-10H,3-8,11-12H2,1-2H3,(H,15,16)/b10-9-

> <INCHI_KEY>
HYDKTIAWESXLEF-KTKRTIGZSA-N

> <FORMULA>
C14H25NO2S

> <MOLECULAR_WEIGHT>
271.419

> <EXACT_MASS>
271.160599739

> <JCHEM_ACCEPTOR_COUNT>
2

> <JCHEM_ATOM_COUNT>
43

> <JCHEM_AVERAGE_NEUTRAL_MICROSPECIES_CHARGE>
7.21373589656694e-10

> <JCHEM_AVERAGE_POLARIZABILITY>
33.142799450299385

> <JCHEM_BIOAVAILABILITY>
1

> <JCHEM_DONOR_COUNT>
1

> <JCHEM_FORMAL_CHARGE>
0

> <JCHEM_GHOSE_FILTER>
1

> <JCHEM_IUPAC>
N-{2-[(2Z)-dec-2-enoylsulfanyl]ethyl}acetamide

> <ALOGPS_LOGP>
3.87

> <JCHEM_LOGP>
3.4830285436666673

> <ALOGPS_LOGS>
-4.58

> <JCHEM_MDDR_LIKE_RULE>
0

> <JCHEM_NEUTRAL_CHARGE>
0

> <JCHEM_NUMBER_OF_RINGS>
0

> <JCHEM_PHYSIOLOGICAL_CHARGE>
0

> <JCHEM_PKA_STRONGEST_ACIDIC>
15.726048717148325

> <JCHEM_PKA_STRONGEST_BASIC>
-1.5849261568713002

> <JCHEM_POLAR_SURFACE_AREA>
46.17

> <JCHEM_REFRACTIVITY>
79.23249999999999

> <JCHEM_ROTATABLE_BOND_COUNT>
11

> <JCHEM_RULE_OF_FIVE>
1

> <ALOGPS_SOLUBILITY>
7.17e-03 g/l

> <JCHEM_TRADITIONAL_IUPAC>
tetrahydrofolic acid

> <JCHEM_VEBER_RULE>
0

> <DRUGBANK_ID>
DB03813

> <SECONDARY_ACCESSION_NUMBERS>
EXPT01103

> <DRUG_GROUPS>
experimental

> <GENERIC_NAME>
2-Decenoyl N-Acetyl Cysteamine

$$$$
