DRF
  Mrv0541 02241213342D          

 32 35  0  0  0  0            999 V2000
    1.6621   -0.8615    0.0000 O   0  0  0  0  0  0  0  0  0  0  0  0
    2.3766   -1.2740    0.0000 C   0  0  0  0  0  0  0  0  0  0  0  0
    3.0911   -0.8615    0.0000 O   0  0  0  0  0  0  0  0  0  0  0  0
    2.3766   -2.0990    0.0000 C   0  0  1  0  0  0  0  0  0  0  0  0
    3.0911   -2.5115    0.0000 O   0  0  0  0  0  0  0  0  0  0  0  0
    3.8056   -2.0990    0.0000 C   0  0  0  0  0  0  0  0  0  0  0  0
    4.5200   -2.5115    0.0000 C   0  0  0  0  0  0  0  0  0  0  0  0
    1.6621   -2.5115    0.0000 C   0  0  0  0  0  0  0  0  0  0  0  0
    0.9477   -2.0990    0.0000 C   0  0  0  0  0  0  0  0  0  0  0  0
    0.2332   -2.5115    0.0000 C   0  0  0  0  0  0  0  0  0  0  0  0
   -0.4813   -2.0990    0.0000 C   0  0  0  0  0  0  0  0  0  0  0  0
   -0.4813   -1.2740    0.0000 C   0  0  0  0  0  0  0  0  0  0  0  0
   -1.1957   -0.8615    0.0000 O   0  0  0  0  0  0  0  0  0  0  0  0
   -1.1957   -0.0365    0.0000 C   0  0  0  0  0  0  0  0  0  0  0  0
   -1.9102    0.3760    0.0000 C   0  0  0  0  0  0  0  0  0  0  0  0
   -1.9102    1.2010    0.0000 N   0  0  0  0  0  0  0  0  0  0  0  0
   -1.1957    1.6135    0.0000 C   0  0  0  0  0  0  0  0  0  0  0  0
   -1.1957    2.4385    0.0000 C   0  0  0  0  0  0  0  0  0  0  0  0
   -1.9102    2.8510    0.0000 O   0  0  0  0  0  0  0  0  0  0  0  0
   -2.6247    2.4385    0.0000 C   0  0  0  0  0  0  0  0  0  0  0  0
   -2.6247    1.6135    0.0000 C   0  0  0  0  0  0  0  0  0  0  0  0
   -3.3392    1.2010    0.0000 C   0  0  0  0  0  0  0  0  0  0  0  0
   -4.0536    1.6135    0.0000 C   0  0  0  0  0  0  0  0  0  0  0  0
   -4.0536    2.4385    0.0000 C   0  0  0  0  0  0  0  0  0  0  0  0
   -3.3392    2.8510    0.0000 C   0  0  0  0  0  0  0  0  0  0  0  0
   -0.4813    2.8510    0.0000 C   0  0  0  0  0  0  0  0  0  0  0  0
    0.2332    2.4385    0.0000 C   0  0  0  0  0  0  0  0  0  0  0  0
    0.2332    1.6135    0.0000 C   0  0  0  0  0  0  0  0  0  0  0  0
   -0.4813    1.2010    0.0000 C   0  0  0  0  0  0  0  0  0  0  0  0
    0.2332   -0.8615    0.0000 C   0  0  0  0  0  0  0  0  0  0  0  0
    0.9477   -1.2740    0.0000 C   0  0  0  0  0  0  0  0  0  0  0  0
    2.8823   -1.8071    0.0000 H   0  0  0  0  0  0  0  0  0  0  0  0
  1  2  1  0  0  0  0
  2  3  2  0  0  0  0
  2  4  1  0  0  0  0
  4  5  1  1  0  0  0
  4  8  1  0  0  0  0
  4 32  1  6  0  0  0
  5  6  1  0  0  0  0
  6  7  1  0  0  0  0
  8  9  1  0  0  0  0
  9 10  2  0  0  0  0
  9 31  1  0  0  0  0
 10 11  1  0  0  0  0
 11 12  2  0  0  0  0
 12 13  1  0  0  0  0
 12 30  1  0  0  0  0
 13 14  1  0  0  0  0
 14 15  1  0  0  0  0
 15 16  1  0  0  0  0
 16 17  1  0  0  0  0
 16 21  1  0  0  0  0
 17 18  2  0  0  0  0
 17 29  1  0  0  0  0
 18 19  1  0  0  0  0
 18 26  1  0  0  0  0
 19 20  1  0  0  0  0
 20 21  2  0  0  0  0
 20 25  1  0  0  0  0
 21 22  1  0  0  0  0
 22 23  2  0  0  0  0
 23 24  1  0  0  0  0
 24 25  2  0  0  0  0
 26 27  2  0  0  0  0
 27 28  1  0  0  0  0
 28 29  2  0  0  0  0
 30 31  2  0  0  0  0
M  END
> <DATABASE_ID>
DB07675

> <DATABASE_NAME>
drugbank

> <SMILES>
[H][C@@](CC1=CC=C(OCCN2C3=C(OC4=C2C=CC=C4)C=CC=C3)C=C1)(OCC)C(O)=O

> <INCHI_IDENTIFIER>
InChI=1S/C25H25NO5/c1-2-29-24(25(27)28)17-18-11-13-19(14-12-18)30-16-15-26-20-7-3-5-9-22(20)31-23-10-6-4-8-21(23)26/h3-14,24H,2,15-17H2,1H3,(H,27,28)/t24-/m0/s1

> <INCHI_KEY>
WMUIIGVAWPWQAW-DEOSSOPVSA-N

> <FORMULA>
C25H25NO5

> <MOLECULAR_WEIGHT>
419.4697

> <EXACT_MASS>
419.173272915

> <JCHEM_ACCEPTOR_COUNT>
5

> <JCHEM_ATOM_COUNT>
56

> <JCHEM_AVERAGE_NEUTRAL_MICROSPECIES_CHARGE>
-0.9994636622253266

> <JCHEM_AVERAGE_POLARIZABILITY>
44.661971900556104

> <JCHEM_BIOAVAILABILITY>
1

> <JCHEM_DONOR_COUNT>
1

> <JCHEM_FORMAL_CHARGE>
0

> <JCHEM_GHOSE_FILTER>
1

> <JCHEM_IUPAC>
(2S)-2-ethoxy-3-{4-[2-(10H-phenoxazin-10-yl)ethoxy]phenyl}propanoic acid

> <ALOGPS_LOGP>
4.77

> <JCHEM_LOGP>
5.019124122999999

> <ALOGPS_LOGS>
-4.63

> <JCHEM_MDDR_LIKE_RULE>
1

> <JCHEM_NEUTRAL_CHARGE>
-1

> <JCHEM_NUMBER_OF_RINGS>
4

> <JCHEM_PHYSIOLOGICAL_CHARGE>
-1

> <JCHEM_PKA_STRONGEST_ACIDIC>
3.7296714118881154

> <JCHEM_PKA_STRONGEST_BASIC>
-3.5702234070586862

> <JCHEM_POLAR_SURFACE_AREA>
68.23

> <JCHEM_REFRACTIVITY>
117.07650000000005

> <JCHEM_ROTATABLE_BOND_COUNT>
9

> <JCHEM_RULE_OF_FIVE>
0

> <ALOGPS_SOLUBILITY>
9.85e-03 g/l

> <JCHEM_TRADITIONAL_IUPAC>
biotin

> <JCHEM_VEBER_RULE>
0

> <DRUGBANK_ID>
DB07675

> <DRUG_GROUPS>
experimental

> <GENERIC_NAME>
(2S)-2-ETHOXY-3-{4-[2-(10H-PHENOXAZIN-10-YL)ETHOXY]PHENYL}PROPANOIC ACID

$$$$
