DRS
  Mrv0541 02241213352D          

 28 29  0  0  0  0            999 V2000
    2.6624   -0.7119    0.0000 C   0  0  0  0  0  0  0  0  0  0  0  0
    1.9120   -1.0129    0.0000 C   0  0  0  0  0  0  0  0  0  0  0  0
    1.7976   -1.8131    0.0000 C   0  0  0  0  0  0  0  0  0  0  0  0
    1.2762   -0.5135    0.0000 C   0  0  1  0  0  0  0  0  0  0  0  0
    0.6492   -1.0505    0.0000 C   0  0  0  0  0  0  0  0  0  0  0  0
    1.0419   -1.7571    0.0000 O   0  0  0  0  0  0  0  0  0  0  0  0
   -0.1399   -1.3001    0.0000 N   0  0  0  0  0  0  0  0  0  0  0  0
   -0.9661   -1.2421    0.0000 C   0  0  2  0  0  0  0  0  0  0  0  0
   -1.1763   -2.0228    0.0000 C   0  0  0  0  0  0  0  0  0  0  0  0
   -1.9574   -2.2311    0.0000 O   0  0  0  0  0  0  0  0  0  0  0  0
   -0.6053   -2.5950    0.0000 O   0  0  0  0  0  0  0  0  0  0  0  0
   -1.7139   -0.8757    0.0000 C   0  0  0  0  0  0  0  0  0  0  0  0
   -2.1208   -0.1361    0.0000 C   0  0  0  0  0  0  0  0  0  0  0  0
   -2.7707    0.3781    0.0000 C   0  0  0  0  0  0  0  0  0  0  0  0
   -2.6635    1.1912    0.0000 C   0  0  0  0  0  0  0  0  0  0  0  0
   -1.3768    0.2095    0.0000 C   0  0  0  0  0  0  0  0  0  0  0  0
   -1.2744    1.0095    0.0000 C   0  0  0  0  0  0  0  0  0  0  0  0
   -1.9090    1.5247    0.0000 C   0  0  0  0  0  0  0  0  0  0  0  0
   -1.4243    2.2049    0.0000 O   0  0  0  0  0  0  0  0  0  0  0  0
   -0.7326    2.6671    0.0000 C   0  0  0  0  0  0  0  0  0  0  0  0
    0.0984    2.7463    0.0000 C   0  0  0  0  0  0  0  0  0  0  0  0
    0.8624    2.4322    0.0000 C   0  0  0  0  0  0  0  0  0  0  0  0
    1.4269    1.8305    0.0000 C   0  0  0  0  0  0  0  0  0  0  0  0
    1.7045    1.0534    0.0000 C   0  0  0  0  0  0  0  0  0  0  0  0
    2.5050    1.1660    0.0000 O   0  0  0  0  0  0  0  0  0  0  0  0
    1.6518    0.2282    0.0000 N   0  0  0  0  0  0  0  0  0  0  0  0
    1.2884   -1.0856    0.0000 H   0  0  0  0  0  0  0  0  0  0  0  0
   -0.6343   -1.7081    0.0000 H   0  0  0  0  0  0  0  0  0  0  0  0
  1  2  1  0  0  0  0
  2  3  1  0  0  0  0
  4  2  1  1  0  0  0
  4  5  1  0  0  0  0
  4 26  1  0  0  0  0
  4 27  1  6  0  0  0
  5  6  2  0  0  0  0
  5  7  1  0  0  0  0
  7  8  1  0  0  0  0
  8  9  1  6  0  0  0
  8 12  1  0  0  0  0
  8 28  1  1  0  0  0
  9 10  2  0  0  0  0
  9 11  1  0  0  0  0
 12 13  1  0  0  0  0
 13 14  2  0  0  0  0
 13 16  1  0  0  0  0
 14 15  1  0  0  0  0
 15 18  2  0  0  0  0
 16 17  2  0  0  0  0
 17 18  1  0  0  0  0
 18 19  1  0  0  0  0
 19 20  1  0  0  0  0
 20 21  1  0  0  0  0
 21 22  1  0  0  0  0
 22 23  1  0  0  0  0
 23 24  1  0  0  0  0
 24 25  2  0  0  0  0
 24 26  1  0  0  0  0
M  END
> <DATABASE_ID>
DB07679

> <DATABASE_NAME>
drugbank

> <SMILES>
[H][C@]1(CC2=CC=C(OCCCCC(=O)N[C@@]([H])(C(C)C)C(=O)N1)C=C2)C(O)=O

> <INCHI_IDENTIFIER>
InChI=1S/C19H26N2O5/c1-12(2)17-18(23)20-15(19(24)25)11-13-6-8-14(9-7-13)26-10-4-3-5-16(22)21-17/h6-9,12,15,17H,3-5,10-11H2,1-2H3,(H,20,23)(H,21,22)(H,24,25)/t15-,17-/m0/s1

> <INCHI_KEY>
RRAAROKJUVKWAF-RDJZCZTQSA-N

> <FORMULA>
C19H26N2O5

> <MOLECULAR_WEIGHT>
362.4201

> <EXACT_MASS>
362.184171952

> <JCHEM_ACCEPTOR_COUNT>
5

> <JCHEM_ATOM_COUNT>
52

> <JCHEM_AVERAGE_NEUTRAL_MICROSPECIES_CHARGE>
-0.999440288449454

> <JCHEM_AVERAGE_POLARIZABILITY>
37.186184667630435

> <JCHEM_BIOAVAILABILITY>
1

> <JCHEM_DONOR_COUNT>
3

> <JCHEM_FORMAL_CHARGE>
0

> <JCHEM_GHOSE_FILTER>
1

> <JCHEM_IUPAC>
(9S,12S)-7,10-dioxo-9-(propan-2-yl)-2-oxa-8,11-diazabicyclo[12.2.2]octadeca-1(16),14,17-triene-12-carboxylic acid

> <ALOGPS_LOGP>
1.64

> <JCHEM_LOGP>
1.761338243333332

> <ALOGPS_LOGS>
-3.20

> <JCHEM_MDDR_LIKE_RULE>
0

> <JCHEM_NEUTRAL_CHARGE>
-1

> <JCHEM_NUMBER_OF_RINGS>
2

> <JCHEM_PHYSIOLOGICAL_CHARGE>
-1

> <JCHEM_PKA>
11.349856206075177

> <JCHEM_PKA_STRONGEST_ACIDIC>
3.786428213759872

> <JCHEM_PKA_STRONGEST_BASIC>
-1.1129403969406169

> <JCHEM_POLAR_SURFACE_AREA>
104.73000000000002

> <JCHEM_REFRACTIVITY>
94.81259999999999

> <JCHEM_ROTATABLE_BOND_COUNT>
2

> <JCHEM_RULE_OF_FIVE>
1

> <ALOGPS_SOLUBILITY>
2.30e-01 g/l

> <JCHEM_TRADITIONAL_IUPAC>
tetrahydrofolic acid

> <JCHEM_VEBER_RULE>
0

> <DRUGBANK_ID>
DB07679

> <DRUG_GROUPS>
experimental

> <GENERIC_NAME>
(9S,12S)-9-(1-methylethyl)-7,10-dioxo-2-oxa-8,11-diazabicyclo[12.2.2]octadeca-1(16),14,17-triene-12-carboxylic acid

$$$$
