ebastine
  Mrv1652309201717352D          

 35 38  0  0  0  0            999 V2000
   -3.2156   -5.2728    0.0000 C   0  0  0  0  0  0  0  0  0  0  0  0
   -3.2156   -4.4479    0.0000 O   0  0  0  0  0  0  0  0  0  0  0  0
   -2.5013   -5.6861    0.0000 C   0  0  0  0  0  0  0  0  0  0  0  0
   -3.9300   -5.6861    0.0000 C   0  0  0  0  0  0  0  0  0  0  0  0
   -2.5013   -4.0364    0.0000 C   0  0  0  0  0  0  0  0  0  0  0  0
   -2.5013   -6.5111    0.0000 C   0  0  0  0  0  0  0  0  0  0  0  0
   -1.7849   -5.2728    0.0000 C   0  0  0  0  0  0  0  0  0  0  0  0
   -4.6423   -5.2728    0.0000 C   0  0  0  0  0  0  0  0  0  0  0  0
   -3.9300   -6.5111    0.0000 C   0  0  0  0  0  0  0  0  0  0  0  0
   -2.5013   -3.2115    0.0000 C   0  0  0  0  0  0  0  0  0  0  0  0
   -1.7849   -4.4479    0.0000 C   0  0  0  0  0  0  0  0  0  0  0  0
   -1.7849   -6.9226    0.0000 C   0  0  0  0  0  0  0  0  0  0  0  0
   -1.0726   -5.6861    0.0000 C   0  0  0  0  0  0  0  0  0  0  0  0
   -5.3588   -5.6861    0.0000 C   0  0  0  0  0  0  0  0  0  0  0  0
   -4.6423   -6.9226    0.0000 C   0  0  0  0  0  0  0  0  0  0  0  0
   -1.7849   -2.7980    0.0000 C   0  0  0  0  0  0  0  0  0  0  0  0
   -1.0726   -4.0364    0.0000 C   0  0  0  0  0  0  0  0  0  0  0  0
   -1.0726   -6.5111    0.0000 C   0  0  0  0  0  0  0  0  0  0  0  0
   -5.3588   -6.5111    0.0000 C   0  0  0  0  0  0  0  0  0  0  0  0
   -1.0726   -3.2115    0.0000 N   0  0  0  0  0  0  0  0  0  0  0  0
   -0.3581   -2.7980    0.0000 C   0  0  0  0  0  0  0  0  0  0  0  0
    0.3562   -3.2115    0.0000 C   0  0  0  0  0  0  0  0  0  0  0  0
    1.0705   -2.7980    0.0000 C   0  0  0  0  0  0  0  0  0  0  0  0
    1.7849   -3.2115    0.0000 C   0  0  0  0  0  0  0  0  0  0  0  0
    1.7849   -4.0364    0.0000 O   0  0  0  0  0  0  0  0  0  0  0  0
    2.5013   -2.7980    0.0000 C   0  0  0  0  0  0  0  0  0  0  0  0
    2.5013   -1.9732    0.0000 C   0  0  0  0  0  0  0  0  0  0  0  0
    3.2156   -3.2115    0.0000 C   0  0  0  0  0  0  0  0  0  0  0  0
    3.2156   -1.5618    0.0000 C   0  0  0  0  0  0  0  0  0  0  0  0
    3.9300   -2.7980    0.0000 C   0  0  0  0  0  0  0  0  0  0  0  0
    3.9300   -1.9732    0.0000 C   0  0  0  0  0  0  0  0  0  0  0  0
    4.6443   -1.5618    0.0000 C   0  0  0  0  0  0  0  0  0  0  0  0
    5.3583   -1.9751    0.0000 C   0  0  0  0  0  0  0  0  0  0  0  0
    5.0577   -0.8479    0.0000 C   0  0  0  0  0  0  0  0  0  0  0  0
    4.2328   -0.8469    0.0000 C   0  0  0  0  0  0  0  0  0  0  0  0
  1  2  1  0  0  0  0
  1  3  1  0  0  0  0
  1  4  1  0  0  0  0
  2  5  1  0  0  0  0
  3  6  2  0  0  0  0
  3  7  1  0  0  0  0
  4  8  2  0  0  0  0
  4  9  1  0  0  0  0
  5 10  1  0  0  0  0
  5 11  1  0  0  0  0
  6 12  1  0  0  0  0
  7 13  2  0  0  0  0
  8 14  1  0  0  0  0
  9 15  2  0  0  0  0
 10 16  1  0  0  0  0
 11 17  1  0  0  0  0
 12 18  2  0  0  0  0
 13 18  1  0  0  0  0
 14 19  2  0  0  0  0
 15 19  1  0  0  0  0
 16 20  1  0  0  0  0
 17 20  1  0  0  0  0
 20 21  1  0  0  0  0
 21 22  1  0  0  0  0
 22 23  1  0  0  0  0
 23 24  1  0  0  0  0
 24 25  2  0  0  0  0
 24 26  1  0  0  0  0
 26 27  2  0  0  0  0
 26 28  1  0  0  0  0
 27 29  1  0  0  0  0
 28 30  2  0  0  0  0
 29 31  2  0  0  0  0
 30 31  1  0  0  0  0
 31 32  1  0  0  0  0
 32 33  1  0  0  0  0
 32 34  1  0  0  0  0
 32 35  1  0  0  0  0
M  END
> <DATABASE_ID>
DB11742

> <DATABASE_NAME>
drugbank

> <SMILES>
CC(C)(C)C1=CC=C(C=C1)C(=O)CCCN1CCC(CC1)OC(C1=CC=CC=C1)C1=CC=CC=C1

> <INCHI_IDENTIFIER>
InChI=1S/C32H39NO2/c1-32(2,3)28-18-16-25(17-19-28)30(34)15-10-22-33-23-20-29(21-24-33)35-31(26-11-6-4-7-12-26)27-13-8-5-9-14-27/h4-9,11-14,16-19,29,31H,10,15,20-24H2,1-3H3

> <INCHI_KEY>
MJJALKDDGIKVBE-UHFFFAOYSA-N

> <FORMULA>
C32H39NO2

> <MOLECULAR_WEIGHT>
469.6576

> <EXACT_MASS>
469.298079497

> <JCHEM_ACCEPTOR_COUNT>
3

> <JCHEM_ATOM_COUNT>
74

> <JCHEM_AVERAGE_POLARIZABILITY>
55.413037745369195

> <JCHEM_BIOAVAILABILITY>
1

> <JCHEM_DONOR_COUNT>
0

> <JCHEM_FORMAL_CHARGE>
0

> <JCHEM_GHOSE_FILTER>
0

> <JCHEM_IUPAC>
1-(4-tert-butylphenyl)-4-[4-(diphenylmethoxy)piperidin-1-yl]butan-1-one

> <ALOGPS_LOGP>
6.89

> <JCHEM_LOGP>
6.963021436

> <ALOGPS_LOGS>
-6.86

> <JCHEM_MDDR_LIKE_RULE>
1

> <JCHEM_NUMBER_OF_RINGS>
4

> <JCHEM_PHYSIOLOGICAL_CHARGE>
1

> <JCHEM_PKA_STRONGEST_ACIDIC>
16.450401897698235

> <JCHEM_PKA_STRONGEST_BASIC>
8.434521437507343

> <JCHEM_POLAR_SURFACE_AREA>
29.54

> <JCHEM_REFRACTIVITY>
145.38100000000003

> <JCHEM_ROTATABLE_BOND_COUNT>
10

> <JCHEM_RULE_OF_FIVE>
0

> <ALOGPS_SOLUBILITY>
6.47e-05 g/l

> <JCHEM_TRADITIONAL_IUPAC>
kestin

> <JCHEM_VEBER_RULE>
1

> <DRUGBANK_ID>
DB11742

> <DRUG_GROUPS>
approved; investigational

> <GENERIC_NAME>
Ebastine

> <SYNONYMS>
Ebastina; Ebastine

$$$$
