F6B
  Mrv0541 02231217132D          

 22 23  0  0  0  0            999 V2000
    0.7876   -0.5862    0.0000 C   0  0  0  0  0  0  0  0  0  0  0  0
    1.5021   -0.9987    0.0000 C   0  0  0  0  0  0  0  0  0  0  0  0
    1.5021   -1.8237    0.0000 C   0  0  0  0  0  0  0  0  0  0  0  0
    0.7876   -2.2362    0.0000 C   0  0  0  0  0  0  0  0  0  0  0  0
    0.0731   -1.8237    0.0000 C   0  0  0  0  0  0  0  0  0  0  0  0
    0.0731   -0.9987    0.0000 C   0  0  0  0  0  0  0  0  0  0  0  0
   -0.6414   -0.5862    0.0000 C   0  0  0  0  0  0  0  0  0  0  0  0
   -1.3558   -0.9987    0.0000 O   0  0  0  0  0  0  0  0  0  0  0  0
   -0.6414    0.2388    0.0000 N   0  0  0  0  0  0  0  0  0  0  0  0
   -1.3558    0.6513    0.0000 C   0  0  0  0  0  0  0  0  0  0  0  0
    2.2165   -2.2362    0.0000 S   0  0  0  0  0  0  0  0  0  0  0  0
    2.9310   -2.6487    0.0000 N   0  0  0  0  0  0  0  0  0  0  0  0
    2.6290   -1.5217    0.0000 O   0  0  0  0  0  0  0  0  0  0  0  0
    1.8040   -2.9507    0.0000 O   0  0  0  0  0  0  0  0  0  0  0  0
   -1.3558    1.4763    0.0000 C   0  0  0  0  0  0  0  0  0  0  0  0
   -2.0703    1.8888    0.0000 C   0  0  0  0  0  0  0  0  0  0  0  0
   -2.0703    2.7138    0.0000 C   0  0  0  0  0  0  0  0  0  0  0  0
   -1.3558    3.1263    0.0000 C   0  0  0  0  0  0  0  0  0  0  0  0
   -0.6414    2.7138    0.0000 C   0  0  0  0  0  0  0  0  0  0  0  0
   -0.6414    1.8888    0.0000 C   0  0  0  0  0  0  0  0  0  0  0  0
   -2.7848    1.4763    0.0000 F   0  0  0  0  0  0  0  0  0  0  0  0
    0.0731    1.4763    0.0000 F   0  0  0  0  0  0  0  0  0  0  0  0
  1  2  2  0  0  0  0
  1  6  1  0  0  0  0
  2  3  1  0  0  0  0
  3  4  2  0  0  0  0
  3 11  1  0  0  0  0
  4  5  1  0  0  0  0
  5  6  2  0  0  0  0
  6  7  1  0  0  0  0
  7  8  2  0  0  0  0
  7  9  1  0  0  0  0
  9 10  1  0  0  0  0
 10 15  1  0  0  0  0
 11 12  1  0  0  0  0
 11 13  2  0  0  0  0
 11 14  2  0  0  0  0
 15 16  2  0  0  0  0
 15 20  1  0  0  0  0
 16 17  1  0  0  0  0
 16 21  1  0  0  0  0
 17 18  2  0  0  0  0
 18 19  1  0  0  0  0
 19 20  2  0  0  0  0
 20 22  1  0  0  0  0
M  END
> <DATABASE_ID>
DB03844

> <DATABASE_NAME>
drugbank

> <SMILES>
NS(=O)(=O)C1=CC=C(C=C1)C(=O)NCC1=C(F)C=CC=C1F

> <INCHI_IDENTIFIER>
InChI=1S/C14H12F2N2O3S/c15-12-2-1-3-13(16)11(12)8-18-14(19)9-4-6-10(7-5-9)22(17,20)21/h1-7H,8H2,(H,18,19)(H2,17,20,21)

> <INCHI_KEY>
ZFNCKGXGCCDDFN-UHFFFAOYSA-N

> <FORMULA>
C14H12F2N2O3S

> <MOLECULAR_WEIGHT>
326.318

> <EXACT_MASS>
326.05366936

> <JCHEM_ACCEPTOR_COUNT>
3

> <JCHEM_ATOM_COUNT>
34

> <JCHEM_AVERAGE_NEUTRAL_MICROSPECIES_CHARGE>
-0.001122171330556294

> <JCHEM_AVERAGE_POLARIZABILITY>
29.919540696133197

> <JCHEM_BIOAVAILABILITY>
1

> <JCHEM_DONOR_COUNT>
2

> <JCHEM_FORMAL_CHARGE>
0

> <JCHEM_GHOSE_FILTER>
1

> <JCHEM_IUPAC>
N-[(2,6-difluorophenyl)methyl]-4-sulfamoylbenzamide

> <ALOGPS_LOGP>
1.96

> <JCHEM_LOGP>
1.6634699356666665

> <ALOGPS_LOGS>
-4.19

> <JCHEM_MDDR_LIKE_RULE>
0

> <JCHEM_NEUTRAL_CHARGE>
0

> <JCHEM_NUMBER_OF_RINGS>
2

> <JCHEM_PHYSIOLOGICAL_CHARGE>
0

> <JCHEM_PKA>
14.2415738038144

> <JCHEM_PKA_STRONGEST_ACIDIC>
9.949473366331544

> <JCHEM_PKA_STRONGEST_BASIC>
-1.275082647217414

> <JCHEM_POLAR_SURFACE_AREA>
89.25999999999999

> <JCHEM_REFRACTIVITY>
77.23640000000002

> <JCHEM_ROTATABLE_BOND_COUNT>
4

> <JCHEM_RULE_OF_FIVE>
1

> <ALOGPS_SOLUBILITY>
2.10e-02 g/l

> <JCHEM_TRADITIONAL_IUPAC>
tetrahydrofolic acid

> <JCHEM_VEBER_RULE>
0

> <DRUGBANK_ID>
DB03844

> <SECONDARY_ACCESSION_NUMBERS>
EXPT01382

> <DRUG_GROUPS>
experimental

> <GENERIC_NAME>
N-(2,6-Diflouro-Benzyl)-4-Sulfamoyl-Benzamide

$$$$
