FLX
  Mrv0541 02231215552D          

 33 35  0  0  0  0            999 V2000
   -0.6134    2.1483    0.0000 N   0  0  0  0  0  0  0  0  0  0  0  0
   -1.3278    2.5608    0.0000 C   0  0  0  0  0  0  0  0  0  0  0  0
   -2.0423    2.1483    0.0000 O   0  0  0  0  0  0  0  0  0  0  0  0
   -1.3278    3.3858    0.0000 C   0  0  0  0  0  0  0  0  0  0  0  0
   -1.9953    3.8707    0.0000 O   0  0  0  0  0  0  0  0  0  0  0  0
   -0.6604    3.8707    0.0000 C   0  0  0  0  0  0  0  0  0  0  0  0
   -0.9153    4.6553    0.0000 C   0  0  0  0  0  0  0  0  0  0  0  0
   -1.7403    4.6553    0.0000 C   0  0  0  0  0  0  0  0  0  0  0  0
   -0.6134    1.3233    0.0000 C   0  0  1  0  0  0  0  0  0  0  0  0
   -1.3278    0.9108    0.0000 C   0  0  0  0  0  0  0  0  0  0  0  0
   -1.3278    0.0858    0.0000 C   0  0  0  0  0  0  0  0  0  0  0  0
   -2.0423   -0.3267    0.0000 C   0  0  0  0  0  0  0  0  0  0  0  0
   -0.6134   -0.3267    0.0000 C   0  0  0  0  0  0  0  0  0  0  0  0
    0.1011    0.9108    0.0000 C   0  0  0  0  0  0  0  0  0  0  0  0
    0.8156    1.3233    0.0000 O   0  0  0  0  0  0  0  0  0  0  0  0
    0.1011    0.0858    0.0000 N   0  0  0  0  0  0  0  0  0  0  0  0
    0.8156   -0.3267    0.0000 C   0  0  1  0  0  0  0  0  0  0  0  0
    0.8156   -1.1517    0.0000 C   0  0  0  0  0  0  0  0  0  0  0  0
    1.5300   -1.5642    0.0000 C   0  0  0  0  0  0  0  0  0  0  0  0
    1.6163   -2.3847    0.0000 C   0  0  0  0  0  0  0  0  0  0  0  0
    2.4233   -2.5562    0.0000 C   0  0  0  0  0  0  0  0  0  0  0  0
    1.0643   -2.9978    0.0000 C   0  0  0  0  0  0  0  0  0  0  0  0
    2.2837   -1.2287    0.0000 C   0  0  0  0  0  0  0  0  0  0  0  0
    2.8358   -1.8418    0.0000 N   0  0  0  0  0  0  0  0  0  0  0  0
    2.6782   -3.3409    0.0000 C   0  0  0  0  0  0  0  0  0  0  0  0
    1.3192   -3.7824    0.0000 C   0  0  0  0  0  0  0  0  0  0  0  0
    2.1262   -3.9540    0.0000 C   0  0  0  0  0  0  0  0  0  0  0  0
    1.5300    0.0858    0.0000 P   0  0  0  0  0  0  0  0  0  0  0  0
    1.9425   -0.6287    0.0000 O   0  0  0  0  0  0  0  0  0  0  0  0
    1.1175    0.8002    0.0000 O   0  0  0  0  0  0  0  0  0  0  0  0
    2.2445    0.4983    0.0000 O   0  0  0  0  0  0  0  0  0  0  0  0
   -1.1191    1.6152    0.0000 H   0  0  0  0  0  0  0  0  0  0  0  0
    0.3099   -0.6187    0.0000 H   0  0  0  0  0  0  0  0  0  0  0  0
  1  2  1  0  0  0  0
  9  1  1  6  0  0  0
  2  3  2  0  0  0  0
  2  4  1  0  0  0  0
  4  5  1  0  0  0  0
  4  6  2  0  0  0  0
  5  8  1  0  0  0  0
  6  7  1  0  0  0  0
  7  8  2  0  0  0  0
  9 10  1  0  0  0  0
  9 14  1  0  0  0  0
  9 32  1  1  0  0  0
 10 11  1  0  0  0  0
 11 12  1  0  0  0  0
 11 13  1  0  0  0  0
 14 15  2  0  0  0  0
 14 16  1  0  0  0  0
 17 16  1  6  0  0  0
 17 18  1  0  0  0  0
 17 28  1  0  0  0  0
 17 33  1  1  0  0  0
 18 19  1  0  0  0  0
 19 20  1  0  0  0  0
 19 23  2  0  0  0  0
 20 21  2  0  0  0  0
 20 22  1  0  0  0  0
 21 24  1  0  0  0  0
 21 25  1  0  0  0  0
 22 26  2  0  0  0  0
 23 24  1  0  0  0  0
 25 27  2  0  0  0  0
 26 27  1  0  0  0  0
 28 29  2  0  0  0  0
 28 30  1  0  0  0  0
 28 31  1  0  0  0  0
M  END
> <DATABASE_ID>
DB02046

> <DATABASE_NAME>
drugbank

> <SMILES>
[H][C@@](CC(C)C)(NC(=O)C1=CC=CO1)C(=O)N[C@@]([H])(CC1=CNC2=C1C=CC=C2)P(O)(O)=O

> <INCHI_IDENTIFIER>
InChI=1S/C21H26N3O6P/c1-13(2)10-17(23-21(26)18-8-5-9-30-18)20(25)24-19(31(27,28)29)11-14-12-22-16-7-4-3-6-15(14)16/h3-9,12-13,17,19,22H,10-11H2,1-2H3,(H,23,26)(H,24,25)(H2,27,28,29)/t17-,19+/m0/s1

> <INCHI_KEY>
WHPKSASOSKNDPY-PKOBYXMFSA-N

> <FORMULA>
C21H26N3O6P

> <MOLECULAR_WEIGHT>
447.4214

> <EXACT_MASS>
447.155922091

> <JCHEM_ACCEPTOR_COUNT>
5

> <JCHEM_ATOM_COUNT>
57

> <JCHEM_AVERAGE_NEUTRAL_MICROSPECIES_CHARGE>
-1.1585036963769575

> <JCHEM_AVERAGE_POLARIZABILITY>
44.021597948401684

> <JCHEM_BIOAVAILABILITY>
1

> <JCHEM_DONOR_COUNT>
5

> <JCHEM_FORMAL_CHARGE>
0

> <JCHEM_GHOSE_FILTER>
1

> <JCHEM_IUPAC>
[(1R)-1-[(2S)-2-[(furan-2-yl)formamido]-4-methylpentanamido]-2-(1H-indol-3-yl)ethyl]phosphonic acid

> <ALOGPS_LOGP>
1.57

> <JCHEM_LOGP>
1.6397288013333329

> <ALOGPS_LOGS>
-3.81

> <JCHEM_MDDR_LIKE_RULE>
1

> <JCHEM_NEUTRAL_CHARGE>
-1

> <JCHEM_NUMBER_OF_RINGS>
3

> <JCHEM_PHYSIOLOGICAL_CHARGE>
-1

> <JCHEM_PKA>
8.026016036130875

> <JCHEM_PKA_STRONGEST_ACIDIC>
1.4929239300348436

> <JCHEM_PKA_STRONGEST_BASIC>
-2.89835352190524

> <JCHEM_POLAR_SURFACE_AREA>
144.66

> <JCHEM_REFRACTIVITY>
114.37089999999999

> <JCHEM_ROTATABLE_BOND_COUNT>
9

> <JCHEM_RULE_OF_FIVE>
1

> <ALOGPS_SOLUBILITY>
6.88e-02 g/l

> <JCHEM_TRADITIONAL_IUPAC>
biotin

> <JCHEM_VEBER_RULE>
0

> <DRUGBANK_ID>
DB02046

> <SECONDARY_ACCESSION_NUMBERS>
EXPT01449

> <DRUG_GROUPS>
experimental

> <GENERIC_NAME>
N-[(Furan-2-Yl)Carbonyl]-(S)-Leucyl-(R)-[1-Amino-2(1h-Indol-3-Yl)Ethyl]-Phosphonic Acid

$$$$
