G6A
  Mrv0541 02241213402D          

 26 29  0  0  0  0            999 V2000
   -4.0558    2.6638    0.0000 C   0  0  0  0  0  0  0  0  0  0  0  0
    3.3012    1.6326    0.0000 C   0  0  0  0  0  0  0  0  0  0  0  0
    3.7137    0.9181    0.0000 C   0  0  0  0  0  0  0  0  0  0  0  0
    2.8887    0.9181    0.0000 C   0  0  0  0  0  0  0  0  0  0  0  0
   -3.7203    1.9101    0.0000 C   0  0  0  0  0  0  0  0  0  0  0  0
   -2.9133    1.7386    0.0000 O   0  0  0  0  0  0  0  0  0  0  0  0
   -4.1328    1.1957    0.0000 N   0  0  0  0  0  0  0  0  0  0  0  0
   -3.5808    0.5826    0.0000 N   0  0  0  0  0  0  0  0  0  0  0  0
   -2.8271    0.9181    0.0000 C   0  0  0  0  0  0  0  0  0  0  0  0
   -2.1126    0.5056    0.0000 C   0  0  0  0  0  0  0  0  0  0  0  0
   -1.3981    0.9181    0.0000 C   0  0  0  0  0  0  0  0  0  0  0  0
   -0.6837    0.5056    0.0000 C   0  0  0  0  0  0  0  0  0  0  0  0
   -2.1126   -0.3194    0.0000 C   0  0  0  0  0  0  0  0  0  0  0  0
   -1.3981   -0.7319    0.0000 C   0  0  0  0  0  0  0  0  0  0  0  0
   -1.3981   -1.5569    0.0000 C   0  0  0  0  0  0  0  0  0  0  0  0
   -0.6837   -0.3194    0.0000 C   0  0  0  0  0  0  0  0  0  0  0  0
    0.0308   -0.7319    0.0000 C   0  0  0  0  0  0  0  0  0  0  0  0
    0.7453   -0.3194    0.0000 C   0  0  0  0  0  0  0  0  0  0  0  0
    1.4597   -0.7319    0.0000 C   0  0  0  0  0  0  0  0  0  0  0  0
    2.1742   -0.3194    0.0000 C   0  0  0  0  0  0  0  0  0  0  0  0
    2.8887   -0.7319    0.0000 O   0  0  0  0  0  0  0  0  0  0  0  0
    2.1742    0.5056    0.0000 N   0  0  0  0  0  0  0  0  0  0  0  0
    1.4597   -1.5569    0.0000 C   0  0  0  0  0  0  0  0  0  0  0  0
    0.7453   -1.9694    0.0000 C   0  0  0  0  0  0  0  0  0  0  0  0
    0.0308   -1.5569    0.0000 C   0  0  0  0  0  0  0  0  0  0  0  0
   -0.6837   -1.9694    0.0000 C   0  0  0  0  0  0  0  0  0  0  0  0
  1  5  1  0  0  0  0
  2  3  1  0  0  0  0
  2  4  1  0  0  0  0
  3  4  1  0  0  0  0
  4 22  1  0  0  0  0
  5  6  1  0  0  0  0
  5  7  2  0  0  0  0
  6  9  1  0  0  0  0
  7  8  1  0  0  0  0
  8  9  2  0  0  0  0
  9 10  1  0  0  0  0
 10 11  2  0  0  0  0
 10 13  1  0  0  0  0
 11 12  1  0  0  0  0
 12 16  2  0  0  0  0
 13 14  2  0  0  0  0
 14 15  1  0  0  0  0
 14 16  1  0  0  0  0
 16 17  1  0  0  0  0
 17 18  2  0  0  0  0
 17 25  1  0  0  0  0
 18 19  1  0  0  0  0
 19 20  1  0  0  0  0
 19 23  2  0  0  0  0
 20 21  2  0  0  0  0
 20 22  1  0  0  0  0
 23 24  1  0  0  0  0
 24 25  2  0  0  0  0
 25 26  1  0  0  0  0
M  END
> <DATABASE_ID>
DB07811

> <DATABASE_NAME>
drugbank

> <SMILES>
CC1=NN=C(O1)C1=CC=C(C(C)=C1)C1=CC(=CC=C1C)C(=O)NC1CC1

> <INCHI_IDENTIFIER>
InChI=1S/C21H21N3O2/c1-12-4-5-15(20(25)22-17-7-8-17)11-19(12)18-9-6-16(10-13(18)2)21-24-23-14(3)26-21/h4-6,9-11,17H,7-8H2,1-3H3,(H,22,25)

> <INCHI_KEY>
UBVTVSINEVHYSY-UHFFFAOYSA-N

> <FORMULA>
C21H21N3O2

> <MOLECULAR_WEIGHT>
347.4103

> <EXACT_MASS>
347.163376931

> <JCHEM_ACCEPTOR_COUNT>
3

> <JCHEM_ATOM_COUNT>
47

> <JCHEM_AVERAGE_NEUTRAL_MICROSPECIES_CHARGE>
1.768900424318256e-08

> <JCHEM_AVERAGE_POLARIZABILITY>
39.53487317017514

> <JCHEM_BIOAVAILABILITY>
1

> <JCHEM_DONOR_COUNT>
1

> <JCHEM_FORMAL_CHARGE>
0

> <JCHEM_GHOSE_FILTER>
1

> <JCHEM_IUPAC>
N-cyclopropyl-2',6-dimethyl-4'-(5-methyl-1,3,4-oxadiazol-2-yl)-[1,1'-biphenyl]-3-carboxamide

> <ALOGPS_LOGP>
3.81

> <JCHEM_LOGP>
3.316469557666668

> <ALOGPS_LOGS>
-4.02

> <JCHEM_MDDR_LIKE_RULE>
0

> <JCHEM_NEUTRAL_CHARGE>
0

> <JCHEM_NUMBER_OF_RINGS>
4

> <JCHEM_PHYSIOLOGICAL_CHARGE>
0

> <JCHEM_PKA_STRONGEST_ACIDIC>
15.39620363999327

> <JCHEM_PKA_STRONGEST_BASIC>
-0.5606333904227998

> <JCHEM_POLAR_SURFACE_AREA>
68.02

> <JCHEM_REFRACTIVITY>
112.93079999999998

> <JCHEM_ROTATABLE_BOND_COUNT>
4

> <JCHEM_RULE_OF_FIVE>
1

> <ALOGPS_SOLUBILITY>
3.33e-02 g/l

> <JCHEM_TRADITIONAL_IUPAC>
tetrahydrofolic acid

> <JCHEM_VEBER_RULE>
0

> <DRUGBANK_ID>
DB07811

> <DRUG_GROUPS>
experimental

> <GENERIC_NAME>
N-cyclopropyl-2',6-dimethyl-4'-(5-methyl-1,3,4-oxadiazol-2-yl)biphenyl-3-carboxamide

$$$$
