Genistein
  Mrv1572001071617322D          

 20 22  0  0  0  0            999 V2000
    4.5012   -2.8875    0.0000 O   0  0  0  0  0  0  0  0  0  0  0  0
    3.7867   -2.4750    0.0000 C   0  0  0  0  0  0  0  0  0  0  0  0
    3.7867   -1.6500    0.0000 C   0  0  0  0  0  0  0  0  0  0  0  0
    3.0723   -1.2375    0.0000 C   0  0  0  0  0  0  0  0  0  0  0  0
    2.3578   -1.6500    0.0000 C   0  0  0  0  0  0  0  0  0  0  0  0
    2.3578   -2.4750    0.0000 C   0  0  0  0  0  0  0  0  0  0  0  0
    3.0723   -2.8875    0.0000 C   0  0  0  0  0  0  0  0  0  0  0  0
    1.6433   -1.2375    0.0000 C   0  0  0  0  0  0  0  0  0  0  0  0
    1.6433   -0.4125    0.0000 C   0  0  0  0  0  0  0  0  0  0  0  0
    0.9289    0.0000    0.0000 O   0  0  0  0  0  0  0  0  0  0  0  0
    0.2144   -0.4125    0.0000 C   0  0  0  0  0  0  0  0  0  0  0  0
   -0.5001    0.0000    0.0000 C   0  0  0  0  0  0  0  0  0  0  0  0
   -1.2146   -0.4125    0.0000 C   0  0  0  0  0  0  0  0  0  0  0  0
   -1.9290    0.0000    0.0000 O   0  0  0  0  0  0  0  0  0  0  0  0
   -1.2146   -1.2375    0.0000 C   0  0  0  0  0  0  0  0  0  0  0  0
   -0.5001   -1.6500    0.0000 C   0  0  0  0  0  0  0  0  0  0  0  0
   -0.5001   -2.4750    0.0000 O   0  0  0  0  0  0  0  0  0  0  0  0
    0.2144   -1.2375    0.0000 C   0  0  0  0  0  0  0  0  0  0  0  0
    0.9289   -1.6500    0.0000 C   0  0  0  0  0  0  0  0  0  0  0  0
    0.9289   -2.4750    0.0000 O   0  0  0  0  0  0  0  0  0  0  0  0
  1  2  1  0  0  0  0
  2  3  2  0  0  0  0
  3  4  1  0  0  0  0
  4  5  2  0  0  0  0
  5  6  1  0  0  0  0
  6  7  2  0  0  0  0
  2  7  1  0  0  0  0
  5  8  1  0  0  0  0
  8  9  2  0  0  0  0
  9 10  1  0  0  0  0
 10 11  1  0  0  0  0
 11 12  2  0  0  0  0
 12 13  1  0  0  0  0
 13 14  1  0  0  0  0
 13 15  2  0  0  0  0
 15 16  1  0  0  0  0
 16 17  1  0  0  0  0
 16 18  2  0  0  0  0
 11 18  1  0  0  0  0
 18 19  1  0  0  0  0
  8 19  1  0  0  0  0
 19 20  2  0  0  0  0
M  END
> <DATABASE_ID>
DB01645

> <DATABASE_NAME>
drugbank

> <SMILES>
OC1=CC=C(C=C1)C1=COC2=CC(O)=CC(O)=C2C1=O

> <INCHI_IDENTIFIER>
InChI=1S/C15H10O5/c16-9-3-1-8(2-4-9)11-7-20-13-6-10(17)5-12(18)14(13)15(11)19/h1-7,16-18H

> <INCHI_KEY>
TZBJGXHYKVUXJN-UHFFFAOYSA-N

> <FORMULA>
C15H10O5

> <MOLECULAR_WEIGHT>
270.24

> <EXACT_MASS>
270.052823422

> <JCHEM_ACCEPTOR_COUNT>
5

> <JCHEM_ATOM_COUNT>
30

> <JCHEM_AVERAGE_POLARIZABILITY>
26.58861830751393

> <JCHEM_BIOAVAILABILITY>
1

> <JCHEM_DONOR_COUNT>
3

> <JCHEM_FORMAL_CHARGE>
0

> <JCHEM_GHOSE_FILTER>
1

> <JCHEM_IUPAC>
5,7-dihydroxy-3-(4-hydroxyphenyl)-4H-chromen-4-one

> <ALOGPS_LOGP>
3.04

> <JCHEM_LOGP>
3.076872389666666

> <ALOGPS_LOGS>
-3.34

> <JCHEM_MDDR_LIKE_RULE>
0

> <JCHEM_NUMBER_OF_RINGS>
3

> <JCHEM_PHYSIOLOGICAL_CHARGE>
-1

> <JCHEM_PKA>
8.088397479737148

> <JCHEM_PKA_STRONGEST_ACIDIC>
6.5462698153602235

> <JCHEM_PKA_STRONGEST_BASIC>
-5.345613136233476

> <JCHEM_POLAR_SURFACE_AREA>
86.99000000000001

> <JCHEM_REFRACTIVITY>
71.68290000000002

> <JCHEM_ROTATABLE_BOND_COUNT>
1

> <JCHEM_RULE_OF_FIVE>
1

> <ALOGPS_SOLUBILITY>
1.23e-01 g/l

> <JCHEM_TRADITIONAL_IUPAC>
genistein

> <JCHEM_VEBER_RULE>
0

> <DRUGBANK_ID>
DB01645

> <SECONDARY_ACCESSION_NUMBERS>
EXPT01582

> <DRUG_GROUPS>
investigational

> <GENERIC_NAME>
Genistein

> <SYNONYMS>
4',5,7-trihydroxyisoflavone; 5,7-dihydroxy-3-(4-hydroxyphenyl)-4H-1-benzopyran-4-one; 5,7,4'-trihydroxyisoflavone; Genistein; Genisteol; Genisterin

> <PRODUCTS>
Fosteum; Vp-gstn

> <INTERNATIONAL_BRANDS>
Prunetol; Sophoricol

$$$$
