GIN
  Mrv0541 02241213402D          

 31 33  0  0  0  0            999 V2000
    3.1353   -0.9313    0.0000 C   0  0  0  0  0  0  0  0  0  0  0  0
    3.8497   -2.1688    0.0000 C   0  0  0  0  0  0  0  0  0  0  0  0
    3.8497   -3.8188    0.0000 C   0  0  0  0  0  0  0  0  0  0  0  0
    3.1353   -3.4063    0.0000 C   0  0  0  0  0  0  0  0  0  0  0  0
    3.1353   -2.5813    0.0000 C   0  0  0  0  0  0  0  0  0  0  0  0
    3.8497   -4.6438    0.0000 C   0  0  0  0  0  0  0  0  0  0  0  0
    4.5642   -5.0563    0.0000 C   0  0  0  0  0  0  0  0  0  0  0  0
    4.5642   -5.8813    0.0000 C   0  0  0  0  0  0  0  0  0  0  0  0
    0.9918    0.3062    0.0000 C   0  0  0  0  0  0  0  0  0  0  0  0
    0.9918    1.1312    0.0000 C   0  0  0  0  0  0  0  0  0  0  0  0
    1.7063    1.5437    0.0000 C   0  0  0  0  0  0  0  0  0  0  0  0
    1.7063    2.3687    0.0000 C   0  0  0  0  0  0  0  0  0  0  0  0
    3.1353   -0.1063    0.0000 C   0  0  0  0  0  0  0  0  0  0  0  0
    3.8497    0.3062    0.0000 C   0  0  0  0  0  0  0  0  0  0  0  0
    3.8497    1.1312    0.0000 C   0  0  0  0  0  0  0  0  0  0  0  0
    3.1353    1.5437    0.0000 C   0  0  0  0  0  0  0  0  0  0  0  0
    2.4208    1.1312    0.0000 C   0  0  0  0  0  0  0  0  0  0  0  0
    2.4208    0.3062    0.0000 C   0  0  0  0  0  0  0  0  0  0  0  0
    1.7063   -0.1063    0.0000 N   0  0  0  0  0  0  0  0  0  0  0  0
    3.8497   -1.3438    0.0000 N   0  0  0  0  0  0  0  0  0  0  0  0
    2.4208   -1.3438    0.0000 O   0  0  0  0  0  0  0  0  0  0  0  0
    4.5642   -2.5813    0.0000 C   0  0  0  0  0  0  0  0  0  0  0  0
    4.5642   -3.4063    0.0000 C   0  0  0  0  0  0  0  0  0  0  0  0
    5.2787   -3.8188    0.0000 C   0  0  0  0  0  0  0  0  0  0  0  0
    5.9931   -4.2313    0.0000 F   0  0  0  0  0  0  0  0  0  0  0  0
    4.8662   -4.5333    0.0000 F   0  0  0  0  0  0  0  0  0  0  0  0
    5.6912   -3.1043    0.0000 F   0  0  0  0  0  0  0  0  0  0  0  0
    0.9918    2.7812    0.0000 C   0  0  0  0  0  0  0  0  0  0  0  0
    0.2774    2.3687    0.0000 N   0  0  0  0  0  0  0  0  0  0  0  0
    0.2774    1.5437    0.0000 C   0  0  0  0  0  0  0  0  0  0  0  0
    0.9918    3.6062    0.0000 O   0  0  0  0  0  0  0  0  0  0  0  0
  1 21  2  0  0  0  0
  1 13  1  0  0  0  0
  1 20  1  0  0  0  0
  2 22  1  0  0  0  0
  2 20  1  0  0  0  0
  2  5  2  0  0  0  0
  3 23  1  0  0  0  0
  3  6  1  0  0  0  0
  3  4  2  0  0  0  0
  4  5  1  0  0  0  0
  6  7  1  0  0  0  0
  7  8  1  0  0  0  0
  9 10  1  0  0  0  0
  9 19  1  0  0  0  0
 10 30  2  0  0  0  0
 10 11  1  0  0  0  0
 11 12  2  0  0  0  0
 12 28  1  0  0  0  0
 13 18  1  0  0  0  0
 13 14  2  0  0  0  0
 14 15  1  0  0  0  0
 15 16  2  0  0  0  0
 16 17  1  0  0  0  0
 17 18  2  0  0  0  0
 18 19  1  0  0  0  0
 22 23  2  0  0  0  0
 23 24  1  0  0  0  0
 24 25  1  0  0  0  0
 24 27  1  0  0  0  0
 24 26  1  0  0  0  0
 28 31  2  0  0  0  0
 28 29  1  0  0  0  0
 29 30  1  0  0  0  0
M  END
> <DATABASE_ID>
DB07831

> <DATABASE_NAME>
drugbank

> <SMILES>
CCCC1=CC=C(NC(=O)C2=CC=CC=C2NCC2=CNC(=O)C=C2)C=C1C(F)(F)F

> <INCHI_IDENTIFIER>
InChI=1S/C23H22F3N3O2/c1-2-5-16-9-10-17(12-19(16)23(24,25)26)29-22(31)18-6-3-4-7-20(18)27-13-15-8-11-21(30)28-14-15/h3-4,6-12,14,27H,2,5,13H2,1H3,(H,28,30)(H,29,31)

> <INCHI_KEY>
SHSORWZDEKFFLP-UHFFFAOYSA-N

> <FORMULA>
C23H22F3N3O2

> <MOLECULAR_WEIGHT>
429.4349

> <EXACT_MASS>
429.166411578

> <JCHEM_ACCEPTOR_COUNT>
3

> <JCHEM_ATOM_COUNT>
53

> <JCHEM_AVERAGE_NEUTRAL_MICROSPECIES_CHARGE>
-4.459340912637988e-05

> <JCHEM_AVERAGE_POLARIZABILITY>
43.13866092071982

> <JCHEM_BIOAVAILABILITY>
1

> <JCHEM_DONOR_COUNT>
3

> <JCHEM_FORMAL_CHARGE>
0

> <JCHEM_GHOSE_FILTER>
1

> <JCHEM_IUPAC>
2-{[(6-oxo-1,6-dihydropyridin-3-yl)methyl]amino}-N-[4-propyl-3-(trifluoromethyl)phenyl]benzamide

> <ALOGPS_LOGP>
4.06

> <JCHEM_LOGP>
4.966345035000002

> <ALOGPS_LOGS>
-5.50

> <JCHEM_MDDR_LIKE_RULE>
1

> <JCHEM_NEUTRAL_CHARGE>
0

> <JCHEM_NUMBER_OF_RINGS>
3

> <JCHEM_PHYSIOLOGICAL_CHARGE>
0

> <JCHEM_PKA>
15.7946526095633

> <JCHEM_PKA_STRONGEST_ACIDIC>
11.237408112194244

> <JCHEM_PKA_STRONGEST_BASIC>
2.1236454344219324

> <JCHEM_POLAR_SURFACE_AREA>
70.22999999999999

> <JCHEM_REFRACTIVITY>
117.84289999999999

> <JCHEM_ROTATABLE_BOND_COUNT>
8

> <JCHEM_RULE_OF_FIVE>
1

> <ALOGPS_SOLUBILITY>
1.37e-03 g/l

> <JCHEM_TRADITIONAL_IUPAC>
tetrahydrofolic acid

> <JCHEM_VEBER_RULE>
0

> <DRUGBANK_ID>
DB07831

> <DRUG_GROUPS>
experimental

> <GENERIC_NAME>
2-{[(6-OXO-1,6-DIHYDROPYRIDIN-3-YL)METHYL]AMINO}-N-[4-PROPYL-3-(TRIFLUOROMETHYL)PHENYL]BENZAMIDE

$$$$
