GP8
  Mrv0541 02231216522D          

 26 28  0  0  0  0            999 V2000
    0.7689    4.6590    0.0000 N   0  0  0  0  0  0  0  0  0  0  0  0
    2.1978    4.6590    0.0000 N   0  0  0  0  0  0  0  0  0  0  0  0
    1.4834    4.2465    0.0000 C   0  0  0  0  0  0  0  0  0  0  0  0
    1.4834    3.4215    0.0000 C   0  0  0  0  0  0  0  0  0  0  0  0
    2.1978    3.0090    0.0000 C   0  0  0  0  0  0  0  0  0  0  0  0
    2.1978    2.1840    0.0000 C   0  0  0  0  0  0  0  0  0  0  0  0
    1.4834    1.7715    0.0000 C   0  0  0  0  0  0  0  0  0  0  0  0
    0.7689    2.1840    0.0000 C   0  0  0  0  0  0  0  0  0  0  0  0
    0.7689    3.0090    0.0000 C   0  0  0  0  0  0  0  0  0  0  0  0
    1.4834    0.9465    0.0000 N   0  0  0  0  0  0  0  0  0  0  0  0
    0.7689    0.5340    0.0000 C   0  0  0  0  0  0  0  0  0  0  0  0
    0.0544    0.9465    0.0000 O   0  0  0  0  0  0  0  0  0  0  0  0
    0.7689   -0.2910    0.0000 N   0  0  0  0  0  0  0  0  0  0  0  0
    0.0544   -0.7035    0.0000 C   0  0  0  0  0  0  0  0  0  0  0  0
    0.0544   -1.5285    0.0000 C   0  0  0  0  0  0  0  0  0  0  0  0
   -0.6600   -1.9410    0.0000 C   0  0  0  0  0  0  0  0  0  0  0  0
   -1.3745   -1.5285    0.0000 C   0  0  0  0  0  0  0  0  0  0  0  0
   -1.3745   -0.7035    0.0000 C   0  0  0  0  0  0  0  0  0  0  0  0
   -0.6600   -0.2910    0.0000 C   0  0  0  0  0  0  0  0  0  0  0  0
   -2.0890   -1.9410    0.0000 O   0  0  0  0  0  0  0  0  0  0  0  0
   -2.0890   -2.7660    0.0000 C   0  0  0  0  0  0  0  0  0  0  0  0
   -1.3745   -3.1785    0.0000 C   0  0  0  0  0  0  0  0  0  0  0  0
   -1.3745   -4.0035    0.0000 C   0  0  0  0  0  0  0  0  0  0  0  0
   -2.0890   -4.4160    0.0000 C   0  0  0  0  0  0  0  0  0  0  0  0
   -2.8035   -4.0035    0.0000 C   0  0  0  0  0  0  0  0  0  0  0  0
   -2.8035   -3.1785    0.0000 C   0  0  0  0  0  0  0  0  0  0  0  0
  1  3  1  0  0  0  0
  2  3  2  0  0  0  0
  3  4  1  0  0  0  0
  4  5  2  0  0  0  0
  4  9  1  0  0  0  0
  5  6  1  0  0  0  0
  6  7  2  0  0  0  0
  7  8  1  0  0  0  0
  7 10  1  0  0  0  0
  8  9  2  0  0  0  0
 10 11  1  0  0  0  0
 11 12  2  0  0  0  0
 11 13  1  0  0  0  0
 13 14  1  0  0  0  0
 14 15  2  0  0  0  0
 14 19  1  0  0  0  0
 15 16  1  0  0  0  0
 16 17  2  0  0  0  0
 17 18  1  0  0  0  0
 17 20  1  0  0  0  0
 18 19  2  0  0  0  0
 20 21  1  0  0  0  0
 21 22  2  0  0  0  0
 21 26  1  0  0  0  0
 22 23  1  0  0  0  0
 23 24  2  0  0  0  0
 24 25  1  0  0  0  0
 25 26  2  0  0  0  0
M  END
> <DATABASE_ID>
DB03337

> <DATABASE_NAME>
drugbank

> <SMILES>
NC(=N)C1=CC=C(NC(=O)NC2=CC=C(OC3=CC=CC=C3)C=C2)C=C1

> <INCHI_IDENTIFIER>
InChI=1S/C20H18N4O2/c21-19(22)14-6-8-15(9-7-14)23-20(25)24-16-10-12-18(13-11-16)26-17-4-2-1-3-5-17/h1-13H,(H3,21,22)(H2,23,24,25)

> <INCHI_KEY>
ZHCAYBOLUMAUQX-UHFFFAOYSA-N

> <FORMULA>
C20H18N4O2

> <MOLECULAR_WEIGHT>
346.3825

> <EXACT_MASS>
346.14297584

> <JCHEM_ACCEPTOR_COUNT>
3

> <JCHEM_ATOM_COUNT>
44

> <JCHEM_AVERAGE_NEUTRAL_MICROSPECIES_CHARGE>
0.9999059036812782

> <JCHEM_AVERAGE_POLARIZABILITY>
36.11918818322504

> <JCHEM_BIOAVAILABILITY>
1

> <JCHEM_DONOR_COUNT>
4

> <JCHEM_FORMAL_CHARGE>
0

> <JCHEM_GHOSE_FILTER>
1

> <JCHEM_IUPAC>
3-(4-carbamimidoylphenyl)-1-(4-phenoxyphenyl)urea

> <ALOGPS_LOGP>
3.16

> <JCHEM_LOGP>
2.9282765290476793

> <ALOGPS_LOGS>
-4.22

> <JCHEM_MDDR_LIKE_RULE>
0

> <JCHEM_NEUTRAL_CHARGE>
1

> <JCHEM_NUMBER_OF_RINGS>
3

> <JCHEM_PHYSIOLOGICAL_CHARGE>
1

> <JCHEM_PKA>
18.05904322711081

> <JCHEM_PKA_STRONGEST_ACIDIC>
11.81256978017082

> <JCHEM_PKA_STRONGEST_BASIC>
11.18604673369563

> <JCHEM_POLAR_SURFACE_AREA>
100.23

> <JCHEM_REFRACTIVITY>
113.96610000000003

> <JCHEM_ROTATABLE_BOND_COUNT>
5

> <JCHEM_RULE_OF_FIVE>
1

> <ALOGPS_SOLUBILITY>
2.10e-02 g/l

> <JCHEM_TRADITIONAL_IUPAC>
tetrahydrofolic acid

> <JCHEM_VEBER_RULE>
0

> <DRUGBANK_ID>
DB03337

> <SECONDARY_ACCESSION_NUMBERS>
EXPT01636

> <DRUG_GROUPS>
experimental

> <GENERIC_NAME>
1-(2-Amidinophenyl)-3-(Phenoxyphenyl)Urea

$$$$
