GVK
  Mrv0541 02241213412D          

 28 32  0  0  0  0            999 V2000
    3.6967    2.7346    0.0000 Cl  0  0  0  0  0  0  0  0  0  0  0  0
    2.8843    2.8778    0.0000 C   0  0  0  0  0  0  0  0  0  0  0  0
    2.3540    2.2459    0.0000 C   0  0  0  0  0  0  0  0  0  0  0  0
    1.5415    2.3891    0.0000 C   0  0  0  0  0  0  0  0  0  0  0  0
    1.2593    3.1644    0.0000 C   0  0  0  0  0  0  0  0  0  0  0  0
    1.7896    3.7964    0.0000 C   0  0  0  0  0  0  0  0  0  0  0  0
    2.6021    3.6531    0.0000 C   0  0  0  0  0  0  0  0  0  0  0  0
    0.4469    3.3076    0.0000 C   0  0  0  0  0  0  0  0  0  0  0  0
   -0.3656    3.1644    0.0000 C   0  0  0  0  0  0  0  0  0  0  0  0
   -0.8959    3.7964    0.0000 C   0  0  0  0  0  0  0  0  0  0  0  0
   -0.6137    4.5716    0.0000 N   0  0  0  0  0  0  0  0  0  0  0  0
    0.1987    4.7149    0.0000 C   0  0  0  0  0  0  0  0  0  0  0  0
    0.7290    4.0829    0.0000 C   0  0  0  0  0  0  0  0  0  0  0  0
    0.4469    2.4826    0.0000 C   0  0  0  0  0  0  0  0  0  0  0  0
    1.1613    2.0701    0.0000 C   0  0  0  0  0  0  0  0  0  0  0  0
    1.1613    1.2451    0.0000 C   0  0  0  0  0  0  0  0  0  0  0  0
    0.4469    0.8326    0.0000 C   0  0  0  0  0  0  0  0  0  0  0  0
   -0.2676    1.2451    0.0000 C   0  0  0  0  0  0  0  0  0  0  0  0
   -0.2676    2.0701    0.0000 C   0  0  0  0  0  0  0  0  0  0  0  0
    0.4469    0.0076    0.0000 C   0  0  0  0  0  0  0  0  0  0  0  0
    1.1613   -0.4049    0.0000 N   0  0  0  0  0  0  0  0  0  0  0  0
    1.1613   -1.2299    0.0000 C   0  0  0  0  0  0  0  0  0  0  0  0
    0.4469   -1.6424    0.0000 N   0  0  0  0  0  0  0  0  0  0  0  0
   -0.2676   -1.2299    0.0000 C   0  0  0  0  0  0  0  0  0  0  0  0
   -1.0522   -1.4848    0.0000 N   0  0  0  0  0  0  0  0  0  0  0  0
   -1.5372   -0.8174    0.0000 C   0  0  0  0  0  0  0  0  0  0  0  0
   -1.0522   -0.1499    0.0000 N   0  0  0  0  0  0  0  0  0  0  0  0
   -0.2676   -0.4049    0.0000 C   0  0  0  0  0  0  0  0  0  0  0  0
  1  2  1  0  0  0  0
  2  3  1  0  0  0  0
  2  7  2  0  0  0  0
  3  4  2  0  0  0  0
  4  5  1  0  0  0  0
  5  6  2  0  0  0  0
  5  8  1  0  0  0  0
  6  7  1  0  0  0  0
  8  9  1  0  0  0  0
  8 13  1  0  0  0  0
  8 14  1  0  0  0  0
  9 10  1  0  0  0  0
 10 11  1  0  0  0  0
 11 12  1  0  0  0  0
 12 13  1  0  0  0  0
 14 15  1  0  0  0  0
 14 19  2  0  0  0  0
 15 16  2  0  0  0  0
 16 17  1  0  0  0  0
 17 18  2  0  0  0  0
 17 20  1  0  0  0  0
 18 19  1  0  0  0  0
 20 21  1  0  0  0  0
 20 28  2  0  0  0  0
 21 22  2  0  0  0  0
 22 23  1  0  0  0  0
 23 24  2  0  0  0  0
 24 25  1  0  0  0  0
 24 28  1  0  0  0  0
 25 26  1  0  0  0  0
 26 27  2  0  0  0  0
 27 28  1  0  0  0  0
M  END
> <DATABASE_ID>
DB07856

> <DATABASE_NAME>
drugbank

> <SMILES>
ClC1=CC=C(C=C1)C1(CCNCC1)C1=CC=C(C=C1)C1=C2N=CNC2=NC=N1

> <INCHI_IDENTIFIER>
InChI=1S/C22H20ClN5/c23-18-7-5-17(6-8-18)22(9-11-24-12-10-22)16-3-1-15(2-4-16)19-20-21(27-13-25-19)28-14-26-20/h1-8,13-14,24H,9-12H2,(H,25,26,27,28)

> <INCHI_KEY>
HPWBHQIUIBFTQC-UHFFFAOYSA-N

> <FORMULA>
C22H20ClN5

> <MOLECULAR_WEIGHT>
389.881

> <EXACT_MASS>
389.140723372

> <JCHEM_ACCEPTOR_COUNT>
4

> <JCHEM_ATOM_COUNT>
48

> <JCHEM_AVERAGE_NEUTRAL_MICROSPECIES_CHARGE>
0.839057695716758

> <JCHEM_AVERAGE_POLARIZABILITY>
41.73169104487751

> <JCHEM_BIOAVAILABILITY>
1

> <JCHEM_DONOR_COUNT>
2

> <JCHEM_FORMAL_CHARGE>
0

> <JCHEM_GHOSE_FILTER>
1

> <JCHEM_IUPAC>
6-{4-[4-(4-chlorophenyl)piperidin-4-yl]phenyl}-9H-purine

> <ALOGPS_LOGP>
3.74

> <JCHEM_LOGP>
3.3960946158056644

> <ALOGPS_LOGS>
-5.21

> <JCHEM_MDDR_LIKE_RULE>
0

> <JCHEM_NEUTRAL_CHARGE>
1

> <JCHEM_NUMBER_OF_RINGS>
5

> <JCHEM_PHYSIOLOGICAL_CHARGE>
1

> <JCHEM_PKA_STRONGEST_ACIDIC>
10.42951674888159

> <JCHEM_PKA_STRONGEST_BASIC>
9.800251811239901

> <JCHEM_POLAR_SURFACE_AREA>
66.49000000000001

> <JCHEM_REFRACTIVITY>
121.63990000000001

> <JCHEM_ROTATABLE_BOND_COUNT>
3

> <JCHEM_RULE_OF_FIVE>
1

> <ALOGPS_SOLUBILITY>
2.43e-03 g/l

> <JCHEM_TRADITIONAL_IUPAC>
tetrahydrofolic acid

> <JCHEM_VEBER_RULE>
0

> <DRUGBANK_ID>
DB07856

> <DRUG_GROUPS>
experimental

> <GENERIC_NAME>
6-{4-[4-(4-CHLOROPHENYL)PIPERIDIN-4-YL]PHENYL}-9H-PURINE

$$$$
