HAL
  Mrv0541 02241213422D          

 34 35  0  0  0  0            999 V2000
   -2.3946   -2.9115    0.0000 C   0  0  0  0  0  0  0  0  0  0  0  0
   -2.3268   -3.7337    0.0000 C   0  0  0  0  0  0  0  0  0  0  0  0
   -3.0049   -4.2035    0.0000 C   0  0  0  0  0  0  0  0  0  0  0  0
   -3.7509   -3.8512    0.0000 C   0  0  0  0  0  0  0  0  0  0  0  0
   -3.8187   -3.0290    0.0000 C   0  0  0  0  0  0  0  0  0  0  0  0
   -3.1406   -2.5591    0.0000 C   0  0  0  0  0  0  0  0  0  0  0  0
   -1.7164   -2.4417    0.0000 C   0  0  0  0  0  0  0  0  0  0  0  0
   -1.7843   -1.6195    0.0000 C   0  0  0  0  0  0  0  0  0  0  0  0
   -1.1061   -1.1496    0.0000 N   0  0  0  0  0  0  0  0  0  0  0  0
   -1.1739   -0.3274    0.0000 C   0  0  0  0  0  0  0  0  0  0  0  0
   -1.9199    0.0250    0.0000 O   0  0  0  0  0  0  0  0  0  0  0  0
   -0.4958    0.1424    0.0000 C   0  0  0  0  0  0  0  0  0  0  0  0
   -0.5636    0.9646    0.0000 O   0  0  0  0  0  0  0  0  0  0  0  0
    0.1145    1.4345    0.0000 P   0  0  2  0  0  0  0  0  0  0  0  0
   -0.3553    2.1126    0.0000 O   0  0  0  0  0  0  0  0  0  0  0  0
    0.5844    0.7563    0.0000 O   0  0  0  0  0  0  0  0  0  0  0  0
    0.7927    1.9043    0.0000 C   0  0  1  0  0  0  0  0  0  0  0  0
    0.7249    2.7265    0.0000 C   0  0  0  0  0  0  0  0  0  0  0  0
   -0.0211    3.0789    0.0000 C   0  0  0  0  0  0  0  0  0  0  0  0
   -0.6992    2.6090    0.0000 C   0  0  0  0  0  0  0  0  0  0  0  0
   -1.4452    2.9614    0.0000 C   0  0  0  0  0  0  0  0  0  0  0  0
   -1.5130    3.7836    0.0000 C   0  0  0  0  0  0  0  0  0  0  0  0
   -0.8349    4.2535    0.0000 C   0  0  0  0  0  0  0  0  0  0  0  0
   -0.0889    3.9011    0.0000 C   0  0  0  0  0  0  0  0  0  0  0  0
    1.5387    1.5519    0.0000 N   0  0  0  0  0  0  0  0  0  0  0  0
    1.6065    0.7297    0.0000 C   0  0  0  0  0  0  0  0  0  0  0  0
    0.9283    0.2599    0.0000 O   0  0  0  0  0  0  0  0  0  0  0  0
    2.3524    0.3773    0.0000 C   0  0  0  0  0  0  0  0  0  0  0  0
    2.4202   -0.4449    0.0000 C   0  0  0  0  0  0  0  0  0  0  0  0
    3.1662   -0.7972    0.0000 C   0  0  0  0  0  0  0  0  0  0  0  0
    3.2340   -1.6195    0.0000 C   0  0  0  0  0  0  0  0  0  0  0  0
    3.9800   -1.9718    0.0000 O   0  0  0  0  0  0  0  0  0  0  0  0
    2.5559   -2.0893    0.0000 O   0  0  0  0  0  0  0  0  0  0  0  0
    0.2647    2.1537    0.0000 H   0  0  0  0  0  0  0  0  0  0  0  0
  1  2  2  0  0  0  0
  1  6  1  0  0  0  0
  1  7  1  0  0  0  0
  2  3  1  0  0  0  0
  3  4  2  0  0  0  0
  4  5  1  0  0  0  0
  5  6  2  0  0  0  0
  7  8  1  0  0  0  0
  8  9  1  0  0  0  0
  9 10  1  0  0  0  0
 10 11  2  0  0  0  0
 10 12  1  0  0  0  0
 12 13  1  0  0  0  0
 14 13  1  1  0  0  0
 14 15  2  0  0  0  0
 14 16  1  6  0  0  0
 14 17  1  0  0  0  0
 17 18  1  0  0  0  0
 17 25  1  6  0  0  0
 17 34  1  6  0  0  0
 18 19  1  0  0  0  0
 19 20  2  0  0  0  0
 19 24  1  0  0  0  0
 20 21  1  0  0  0  0
 21 22  2  0  0  0  0
 22 23  1  0  0  0  0
 23 24  2  0  0  0  0
 25 26  1  0  0  0  0
 26 27  2  0  0  0  0
 26 28  1  0  0  0  0
 28 29  1  0  0  0  0
 29 30  1  0  0  0  0
 30 31  1  0  0  0  0
 31 32  1  0  0  0  0
 31 33  2  0  0  0  0
M  END
> <DATABASE_ID>
DB07881

> <DATABASE_NAME>
drugbank

> <SMILES>
[H][C@](CC1=CC=CC=C1)(NC(=O)CCCC(O)=O)[P@](O)(=O)OCC(=O)NCCC1=CC=CC=C1

> <INCHI_IDENTIFIER>
InChI=1S/C23H29N2O7P/c26-20(12-7-13-23(28)29)25-22(16-19-10-5-2-6-11-19)33(30,31)32-17-21(27)24-15-14-18-8-3-1-4-9-18/h1-6,8-11,22H,7,12-17H2,(H,24,27)(H,25,26)(H,28,29)(H,30,31)/t22-/m0/s1

> <INCHI_KEY>
DKQZZKSBRCTCQU-QFIPXVFZSA-N

> <FORMULA>
C23H29N2O7P

> <MOLECULAR_WEIGHT>
476.4593

> <EXACT_MASS>
476.171237804

> <JCHEM_ACCEPTOR_COUNT>
6

> <JCHEM_ATOM_COUNT>
62

> <JCHEM_AVERAGE_NEUTRAL_MICROSPECIES_CHARGE>
-1.9985840853420238

> <JCHEM_AVERAGE_POLARIZABILITY>
48.567033190348454

> <JCHEM_BIOAVAILABILITY>
1

> <JCHEM_DONOR_COUNT>
4

> <JCHEM_FORMAL_CHARGE>
0

> <JCHEM_GHOSE_FILTER>
1

> <JCHEM_IUPAC>
4-{[(1S)-1-[hydroxy({[(2-phenylethyl)carbamoyl]methoxy})phosphoryl]-2-phenylethyl]carbamoyl}butanoic acid

> <ALOGPS_LOGP>
1.88

> <JCHEM_LOGP>
1.755062795999999

> <ALOGPS_LOGS>
-5.28

> <JCHEM_MDDR_LIKE_RULE>
0

> <JCHEM_NEUTRAL_CHARGE>
-2

> <JCHEM_NUMBER_OF_RINGS>
2

> <JCHEM_PHYSIOLOGICAL_CHARGE>
-2

> <JCHEM_PKA>
4.152237127256553

> <JCHEM_PKA_STRONGEST_ACIDIC>
1.2410004900480236

> <JCHEM_PKA_STRONGEST_BASIC>
-1.8524448154335622

> <JCHEM_POLAR_SURFACE_AREA>
142.03

> <JCHEM_REFRACTIVITY>
121.39969999999998

> <JCHEM_ROTATABLE_BOND_COUNT>
14

> <JCHEM_RULE_OF_FIVE>
1

> <ALOGPS_SOLUBILITY>
2.50e-03 g/l

> <JCHEM_TRADITIONAL_IUPAC>
biotin

> <JCHEM_VEBER_RULE>
0

> <DRUGBANK_ID>
DB07881

> <DRUG_GROUPS>
experimental

> <GENERIC_NAME>
N-{[2-({[1-(4-CARBOXYBUTANOYL)AMINO]-2-PHENYLETHYL}-HYDROXYPHOSPHINYL)OXY]ACETYL}-2-PHENYLETHYLAMINE

$$$$
