HSG
  Mrv0541 02241213442D          

 25 25  0  0  0  0            999 V2000
   -4.2759    0.5143    0.0000 C   0  0  0  0  0  0  0  0  0  0  0  0
   -3.5614    0.1018    0.0000 C   0  0  0  0  0  0  0  0  0  0  0  0
   -2.8469    0.5143    0.0000 C   0  0  0  0  0  0  0  0  0  0  0  0
   -2.1325    0.1018    0.0000 C   0  0  0  0  0  0  0  0  0  0  0  0
   -1.4180    0.5143    0.0000 C   0  0  0  0  0  0  0  0  0  0  0  0
   -0.7035    0.1018    0.0000 C   0  0  0  0  0  0  0  0  0  0  0  0
    0.0110    0.5143    0.0000 C   0  0  0  0  0  0  0  0  0  0  0  0
    0.7254    0.1018    0.0000 C   0  0  0  0  0  0  0  0  0  0  0  0
    1.4399    0.5143    0.0000 O   0  0  0  0  0  0  0  0  0  0  0  0
    2.1544    0.1018    0.0000 C   0  0  2  0  0  0  0  0  0  0  0  0
    2.8688    0.5143    0.0000 O   0  0  0  0  0  0  0  0  0  0  0  0
    3.5833    0.1018    0.0000 C   0  0  1  0  0  0  0  0  0  0  0  0
    4.2978    0.5143    0.0000 C   0  0  0  0  0  0  0  0  0  0  0  0
    4.2978    1.3393    0.0000 O   0  0  0  0  0  0  0  0  0  0  0  0
    3.5833   -0.7232    0.0000 C   0  0  2  0  0  0  0  0  0  0  0  0
    4.2978   -1.1357    0.0000 O   0  0  0  0  0  0  0  0  0  0  0  0
    2.8688   -1.1357    0.0000 C   0  0  2  0  0  0  0  0  0  0  0  0
    2.8688   -1.9607    0.0000 O   0  0  0  0  0  0  0  0  0  0  0  0
    2.1544   -0.7232    0.0000 C   0  0  1  0  0  0  0  0  0  0  0  0
    1.4399   -1.1357    0.0000 O   0  0  0  0  0  0  0  0  0  0  0  0
    2.1544    0.6858    0.0000 H   0  0  0  0  0  0  0  0  0  0  0  0
    3.5833    0.6858    0.0000 H   0  0  0  0  0  0  0  0  0  0  0  0
    4.0890   -0.4312    0.0000 H   0  0  0  0  0  0  0  0  0  0  0  0
    3.3745   -1.4276    0.0000 H   0  0  0  0  0  0  0  0  0  0  0  0
    1.6487   -0.4312    0.0000 H   0  0  0  0  0  0  0  0  0  0  0  0
  1  2  1  0  0  0  0
  2  3  1  0  0  0  0
  3  4  1  0  0  0  0
  4  5  1  0  0  0  0
  5  6  1  0  0  0  0
  6  7  1  0  0  0  0
  7  8  1  0  0  0  0
  8  9  1  0  0  0  0
 10  9  1  6  0  0  0
 10 11  1  0  0  0  0
 10 19  1  0  0  0  0
 10 21  1  1  0  0  0
 11 12  1  0  0  0  0
 12 13  1  1  0  0  0
 12 15  1  0  0  0  0
 12 22  1  6  0  0  0
 13 14  1  0  0  0  0
 15 16  1  6  0  0  0
 15 17  1  0  0  0  0
 15 23  1  1  0  0  0
 17 18  1  6  0  0  0
 17 19  1  0  0  0  0
 17 24  1  1  0  0  0
 19 20  1  1  0  0  0
 19 25  1  6  0  0  0
M  END
> <DATABASE_ID>
DB07923

> <DATABASE_NAME>
drugbank

> <SMILES>
[H][C@]1(O)[C@@]([H])(O)[C@]([H])(CO)O[C@@]([H])(OCCCCCCCC)[C@]1([H])O

> <INCHI_IDENTIFIER>
InChI=1S/C14H28O6/c1-2-3-4-5-6-7-8-19-14-13(18)12(17)11(16)10(9-15)20-14/h10-18H,2-9H2,1H3/t10-,11-,12-,13+,14+/m0/s1

> <INCHI_KEY>
HEGSGKPQLMEBJL-QSLWVIQJSA-N

> <FORMULA>
C14H28O6

> <MOLECULAR_WEIGHT>
292.3685

> <EXACT_MASS>
292.188588628

> <JCHEM_ACCEPTOR_COUNT>
6

> <JCHEM_ATOM_COUNT>
48

> <JCHEM_AVERAGE_NEUTRAL_MICROSPECIES_CHARGE>
-7.076858409509656e-06

> <JCHEM_AVERAGE_POLARIZABILITY>
32.57497879911709

> <JCHEM_BIOAVAILABILITY>
1

> <JCHEM_DONOR_COUNT>
4

> <JCHEM_FORMAL_CHARGE>
0

> <JCHEM_GHOSE_FILTER>
1

> <JCHEM_IUPAC>
(2S,3R,4S,5R,6R)-2-(hydroxymethyl)-6-(octyloxy)oxane-3,4,5-triol

> <ALOGPS_LOGP>
1.13

> <JCHEM_LOGP>
0.8127609603333328

> <ALOGPS_LOGS>
-1.26

> <JCHEM_MDDR_LIKE_RULE>
0

> <JCHEM_NEUTRAL_CHARGE>
0

> <JCHEM_NUMBER_OF_RINGS>
1

> <JCHEM_PHYSIOLOGICAL_CHARGE>
0

> <JCHEM_PKA>
13.200256715324073

> <JCHEM_PKA_STRONGEST_ACIDIC>
12.210987486903667

> <JCHEM_PKA_STRONGEST_BASIC>
-2.9810834105517934

> <JCHEM_POLAR_SURFACE_AREA>
99.38000000000001

> <JCHEM_REFRACTIVITY>
72.95220000000002

> <JCHEM_ROTATABLE_BOND_COUNT>
9

> <JCHEM_RULE_OF_FIVE>
1

> <ALOGPS_SOLUBILITY>
1.60e+01 g/l

> <JCHEM_TRADITIONAL_IUPAC>
biotin

> <JCHEM_VEBER_RULE>
0

> <DRUGBANK_ID>
DB07923

> <DRUG_GROUPS>
experimental

> <GENERIC_NAME>
octyl alpha-L-altropyranoside

$$$$
