IDN
  Mrv0541 02231215392D          

 28 31  0  0  0  0            999 V2000
   -2.8961    2.3128    0.0000 C   0  0  0  0  0  0  0  0  0  0  0  0
   -2.6411    1.5282    0.0000 C   0  0  0  0  0  0  0  0  0  0  0  0
   -1.8342    1.3566    0.0000 C   0  0  0  0  0  0  0  0  0  0  0  0
   -1.2821    1.9697    0.0000 C   0  0  0  0  0  0  0  0  0  0  0  0
   -1.5371    2.7543    0.0000 C   0  0  0  0  0  0  0  0  0  0  0  0
   -2.3440    2.9259    0.0000 N   0  0  0  0  0  0  0  0  0  0  0  0
   -0.4752    1.7982    0.0000 C   0  0  0  0  0  0  0  0  0  0  0  0
   -0.2202    1.0136    0.0000 C   0  0  0  0  0  0  0  0  0  0  0  0
    0.5867    0.8420    0.0000 C   0  0  0  0  0  0  0  0  0  0  0  0
    1.1388    1.4551    0.0000 O   0  0  0  0  0  0  0  0  0  0  0  0
    0.8417    0.0574    0.0000 N   0  0  0  0  0  0  0  0  0  0  0  0
    0.2897   -0.5557    0.0000 C   0  0  0  0  0  0  0  0  0  0  0  0
    1.6487   -0.1141    0.0000 C   0  0  0  0  0  0  0  0  0  0  0  0
    1.9036   -0.8987    0.0000 C   0  0  0  0  0  0  0  0  0  0  0  0
    1.4187   -1.5662    0.0000 C   0  0  0  0  0  0  0  0  0  0  0  0
    1.9036   -2.2336    0.0000 N   0  0  0  0  0  0  0  0  0  0  0  0
    2.6882   -1.9787    0.0000 C   0  0  0  0  0  0  0  0  0  0  0  0
    2.6882   -1.1537    0.0000 C   0  0  0  0  0  0  0  0  0  0  0  0
   -3.7031    2.4843    0.0000 N   0  0  0  0  0  0  0  0  0  0  0  0
    1.6487   -3.0182    0.0000 C   0  0  0  0  0  0  0  0  0  0  0  0
    4.1172   -1.1537    0.0000 C   0  0  0  0  0  0  0  0  0  0  0  0
    4.1172   -1.9787    0.0000 C   0  0  0  0  0  0  0  0  0  0  0  0
    3.4027   -2.3912    0.0000 C   0  0  0  0  0  0  0  0  0  0  0  0
    3.4027   -0.7412    0.0000 C   0  0  0  0  0  0  0  0  0  0  0  0
   -3.1932    0.9151    0.0000 C   0  0  0  0  0  0  0  0  0  0  0  0
   -4.0001    1.0866    0.0000 C   0  0  0  0  0  0  0  0  0  0  0  0
   -4.2551    1.8712    0.0000 C   0  0  0  0  0  0  0  0  0  0  0  0
   -5.0621    2.0427    0.0000 O   0  0  0  0  0  0  0  0  0  0  0  0
  1  2  1  0  0  0  0
  1  6  2  0  0  0  0
  1 19  1  0  0  0  0
  2  3  2  0  0  0  0
  2 25  1  0  0  0  0
  3  4  1  0  0  0  0
  4  5  2  0  0  0  0
  4  7  1  0  0  0  0
  5  6  1  0  0  0  0
  7  8  2  0  0  0  0
  8  9  1  0  0  0  0
  9 10  2  0  0  0  0
  9 11  1  0  0  0  0
 11 12  1  0  0  0  0
 11 13  1  0  0  0  0
 13 14  1  0  0  0  0
 14 15  2  0  0  0  0
 14 18  1  0  0  0  0
 15 16  1  0  0  0  0
 16 17  1  0  0  0  0
 16 20  1  0  0  0  0
 17 18  1  0  0  0  0
 17 23  2  0  0  0  0
 18 24  2  0  0  0  0
 19 27  1  0  0  0  0
 21 22  2  0  0  0  0
 21 24  1  0  0  0  0
 22 23  1  0  0  0  0
 25 26  1  0  0  0  0
 26 27  1  0  0  0  0
 27 28  2  0  0  0  0
M  END
> <DATABASE_ID>
DB01691

> <DATABASE_NAME>
drugbank

> <SMILES>
CN(CC1=CN(C)C2=CC=CC=C12)C(=O)\C=C\C1=CN=C2NC(=O)CCC2=C1

> <INCHI_IDENTIFIER>
InChI=1S/C22H22N4O2/c1-25-13-17(18-5-3-4-6-19(18)25)14-26(2)21(28)10-7-15-11-16-8-9-20(27)24-22(16)23-12-15/h3-7,10-13H,8-9,14H2,1-2H3,(H,23,24,27)/b10-7+

> <INCHI_KEY>
VAZMNDXVXVUKFY-JXMROGBWSA-N

> <FORMULA>
C22H22N4O2

> <MOLECULAR_WEIGHT>
374.4357

> <EXACT_MASS>
374.174275968

> <JCHEM_ACCEPTOR_COUNT>
3

> <JCHEM_ATOM_COUNT>
50

> <JCHEM_AVERAGE_NEUTRAL_MICROSPECIES_CHARGE>
0.0036519415622334917

> <JCHEM_AVERAGE_POLARIZABILITY>
41.689423164428604

> <JCHEM_BIOAVAILABILITY>
1

> <JCHEM_DONOR_COUNT>
1

> <JCHEM_FORMAL_CHARGE>
0

> <JCHEM_GHOSE_FILTER>
1

> <JCHEM_IUPAC>
(2E)-N-methyl-N-[(1-methyl-1H-indol-3-yl)methyl]-3-(7-oxo-5,6,7,8-tetrahydro-1,8-naphthyridin-3-yl)prop-2-enamide

> <ALOGPS_LOGP>
2.57

> <JCHEM_LOGP>
2.7435650926666666

> <ALOGPS_LOGS>
-4.28

> <JCHEM_MDDR_LIKE_RULE>
0

> <JCHEM_NEUTRAL_CHARGE>
0

> <JCHEM_NUMBER_OF_RINGS>
4

> <JCHEM_PHYSIOLOGICAL_CHARGE>
0

> <JCHEM_PKA_STRONGEST_ACIDIC>
12.033964653067144

> <JCHEM_PKA_STRONGEST_BASIC>
3.5652475507911685

> <JCHEM_POLAR_SURFACE_AREA>
67.23

> <JCHEM_REFRACTIVITY>
111.55580000000002

> <JCHEM_ROTATABLE_BOND_COUNT>
4

> <JCHEM_RULE_OF_FIVE>
1

> <ALOGPS_SOLUBILITY>
1.96e-02 g/l

> <JCHEM_TRADITIONAL_IUPAC>
biotin

> <JCHEM_VEBER_RULE>
0

> <DRUGBANK_ID>
DB01691

> <SECONDARY_ACCESSION_NUMBERS>
EXPT01841

> <DRUG_GROUPS>
experimental

> <GENERIC_NAME>
Indole Naphthyridinone

$$$$
