IHZ
  Mrv0541 02241213462D          

 30 32  0  0  0  0            999 V2000
   -3.1818    3.2417    0.0000 F   0  0  0  0  0  0  0  0  0  0  0  0
   -3.1818    2.4167    0.0000 C   0  0  0  0  0  0  0  0  0  0  0  0
   -4.0068    2.4167    0.0000 F   0  0  0  0  0  0  0  0  0  0  0  0
   -2.3568    2.4167    0.0000 F   0  0  0  0  0  0  0  0  0  0  0  0
   -3.1818    1.5917    0.0000 C   0  0  0  0  0  0  0  0  0  0  0  0
   -2.4673    1.1792    0.0000 C   0  0  0  0  0  0  0  0  0  0  0  0
   -3.8963    1.1792    0.0000 C   0  0  0  0  0  0  0  0  0  0  0  0
   -3.8963    0.3542    0.0000 C   0  0  0  0  0  0  0  0  0  0  0  0
   -3.1818   -0.0583    0.0000 C   0  0  0  0  0  0  0  0  0  0  0  0
   -2.4673    0.3542    0.0000 C   0  0  0  0  0  0  0  0  0  0  0  0
   -1.7529   -0.0583    0.0000 N   0  0  0  0  0  0  0  0  0  0  0  0
   -1.0384    0.3542    0.0000 C   0  0  0  0  0  0  0  0  0  0  0  0
   -1.0384    1.1792    0.0000 O   0  0  0  0  0  0  0  0  0  0  0  0
   -0.3239   -0.0583    0.0000 C   0  0  0  0  0  0  0  0  0  0  0  0
    0.3906    0.3542    0.0000 C   0  0  0  0  0  0  0  0  0  0  0  0
   -0.3239   -0.8833    0.0000 C   0  0  0  0  0  0  0  0  0  0  0  0
    0.3906   -1.2958    0.0000 C   0  0  0  0  0  0  0  0  0  0  0  0
    1.1050   -0.8833    0.0000 C   0  0  0  0  0  0  0  0  0  0  0  0
    1.8195   -1.2958    0.0000 C   0  0  0  0  0  0  0  0  0  0  0  0
    1.1050   -0.0583    0.0000 C   0  0  0  0  0  0  0  0  0  0  0  0
    1.8195    0.3542    0.0000 N   0  0  0  0  0  0  0  0  0  0  0  0
    2.5340   -0.0583    0.0000 C   0  0  0  0  0  0  0  0  0  0  0  0
    3.2484    0.3542    0.0000 C   0  0  0  0  0  0  0  0  0  0  0  0
    2.5340   -0.8833    0.0000 C   0  0  0  0  0  0  0  0  0  0  0  0
    3.2484   -1.2958    0.0000 N   0  0  0  0  0  0  0  0  0  0  0  0
    3.9629   -0.8833    0.0000 C   0  0  0  0  0  0  0  0  0  0  0  0
    3.9629   -0.0583    0.0000 C   0  0  0  0  0  0  0  0  0  0  0  0
    4.6774    0.3542    0.0000 C   0  0  0  0  0  0  0  0  0  0  0  0
    4.6774    1.1792    0.0000 O   0  0  0  0  0  0  0  0  0  0  0  0
    5.3919   -0.0583    0.0000 N   0  0  0  0  0  0  0  0  0  0  0  0
  1  2  1  0  0  0  0
  2  3  1  0  0  0  0
  2  4  1  0  0  0  0
  2  5  1  0  0  0  0
  5  6  2  0  0  0  0
  5  7  1  0  0  0  0
  6 10  1  0  0  0  0
  7  8  2  0  0  0  0
  8  9  1  0  0  0  0
  9 10  2  0  0  0  0
 10 11  1  0  0  0  0
 11 12  1  0  0  0  0
 12 13  2  0  0  0  0
 12 14  1  0  0  0  0
 14 15  2  0  0  0  0
 14 16  1  0  0  0  0
 15 20  1  0  0  0  0
 16 17  2  0  0  0  0
 17 18  1  0  0  0  0
 18 19  1  0  0  0  0
 18 20  2  0  0  0  0
 20 21  1  0  0  0  0
 21 22  1  0  0  0  0
 22 23  2  0  0  0  0
 22 24  1  0  0  0  0
 23 27  1  0  0  0  0
 24 25  2  0  0  0  0
 25 26  1  0  0  0  0
 26 27  2  0  0  0  0
 27 28  1  0  0  0  0
 28 29  2  0  0  0  0
 28 30  1  0  0  0  0
M  END
> <DATABASE_ID>
DB07970

> <DATABASE_NAME>
drugbank

> <SMILES>
CC1=C(NC2=CC(=CN=C2)C(N)=O)C=C(C=C1)C(=O)NC1=CC=CC(=C1)C(F)(F)F

> <INCHI_IDENTIFIER>
InChI=1S/C21H17F3N4O2/c1-12-5-6-13(8-18(12)27-17-7-14(19(25)29)10-26-11-17)20(30)28-16-4-2-3-15(9-16)21(22,23)24/h2-11,27H,1H3,(H2,25,29)(H,28,30)

> <INCHI_KEY>
SAAYRHKJHDIDPH-UHFFFAOYSA-N

> <FORMULA>
C21H17F3N4O2

> <MOLECULAR_WEIGHT>
414.3805

> <EXACT_MASS>
414.130360423

> <JCHEM_ACCEPTOR_COUNT>
4

> <JCHEM_ATOM_COUNT>
47

> <JCHEM_AVERAGE_NEUTRAL_MICROSPECIES_CHARGE>
0.0007483467994495049

> <JCHEM_AVERAGE_POLARIZABILITY>
38.81116479832144

> <JCHEM_BIOAVAILABILITY>
1

> <JCHEM_DONOR_COUNT>
3

> <JCHEM_FORMAL_CHARGE>
0

> <JCHEM_GHOSE_FILTER>
1

> <JCHEM_IUPAC>
5-[(2-methyl-5-{[3-(trifluoromethyl)phenyl]carbamoyl}phenyl)amino]pyridine-3-carboxamide

> <ALOGPS_LOGP>
3.29

> <JCHEM_LOGP>
3.529294135333334

> <ALOGPS_LOGS>
-5.26

> <JCHEM_MDDR_LIKE_RULE>
1

> <JCHEM_NEUTRAL_CHARGE>
0

> <JCHEM_NUMBER_OF_RINGS>
3

> <JCHEM_PHYSIOLOGICAL_CHARGE>
0

> <JCHEM_PKA>
15.722581665151754

> <JCHEM_PKA_STRONGEST_ACIDIC>
13.428280184184413

> <JCHEM_PKA_STRONGEST_BASIC>
3.874651166369237

> <JCHEM_POLAR_SURFACE_AREA>
97.11

> <JCHEM_REFRACTIVITY>
108.01409999999998

> <JCHEM_ROTATABLE_BOND_COUNT>
6

> <JCHEM_RULE_OF_FIVE>
1

> <ALOGPS_SOLUBILITY>
2.28e-03 g/l

> <JCHEM_TRADITIONAL_IUPAC>
tetrahydrofolic acid

> <JCHEM_VEBER_RULE>
0

> <DRUGBANK_ID>
DB07970

> <DRUG_GROUPS>
experimental

> <GENERIC_NAME>
5-[(2-methyl-5-{[3-(trifluoromethyl)phenyl]carbamoyl}phenyl)amino]pyridine-3-carboxamide

$$$$
