IM9
  Mrv0541 02241213462D          

 32 35  0  0  0  0            999 V2000
    1.8487   13.0607    0.0000 C   0  0  0  0  0  0  0  0  0  0  0  0
    1.1343   12.6482    0.0000 C   0  0  0  0  0  0  0  0  0  0  0  0
    0.4198   13.0607    0.0000 C   0  0  0  0  0  0  0  0  0  0  0  0
    1.1343   11.8232    0.0000 N   0  0  0  0  0  0  0  0  0  0  0  0
    1.8017   11.3383    0.0000 C   0  0  0  0  0  0  0  0  0  0  0  0
    2.5863   11.5932    0.0000 C   0  0  0  0  0  0  0  0  0  0  0  0
    1.5468   10.5537    0.0000 N   0  0  0  0  0  0  0  0  0  0  0  0
    0.7218   10.5537    0.0000 C   0  0  0  0  0  0  0  0  0  0  0  0
    0.4668   11.3383    0.0000 C   0  0  0  0  0  0  0  0  0  0  0  0
   -0.3178   11.5932    0.0000 C   0  0  0  0  0  0  0  0  0  0  0  0
   -0.9309   11.0412    0.0000 C   0  0  0  0  0  0  0  0  0  0  0  0
   -1.7155   11.2961    0.0000 C   0  0  0  0  0  0  0  0  0  0  0  0
   -1.8870   12.1031    0.0000 N   0  0  0  0  0  0  0  0  0  0  0  0
   -1.2739   12.6551    0.0000 C   0  0  0  0  0  0  0  0  0  0  0  0
   -1.4455   13.4621    0.0000 N   0  0  0  0  0  0  0  0  0  0  0  0
   -0.8324   14.0141    0.0000 C   0  0  0  0  0  0  0  0  0  0  0  0
   -1.0039   14.8211    0.0000 C   0  0  0  0  0  0  0  0  0  0  0  0
   -0.3908   15.3731    0.0000 C   0  0  0  0  0  0  0  0  0  0  0  0
    0.3938   15.1182    0.0000 C   0  0  0  0  0  0  0  0  0  0  0  0
    0.5653   14.3112    0.0000 C   0  0  0  0  0  0  0  0  0  0  0  0
   -0.0477   13.7592    0.0000 C   0  0  0  0  0  0  0  0  0  0  0  0
    1.0069   15.6702    0.0000 N   0  0  0  0  0  0  0  0  0  0  0  0
    0.8354   16.4772    0.0000 C   0  0  0  0  0  0  0  0  0  0  0  0
    1.4485   17.0292    0.0000 C   0  0  0  0  0  0  0  0  0  0  0  0
    2.2331   16.7743    0.0000 N   0  0  0  0  0  0  0  0  0  0  0  0
    2.4046   15.9673    0.0000 C   0  0  0  0  0  0  0  0  0  0  0  0
    1.7915   15.4153    0.0000 C   0  0  0  0  0  0  0  0  0  0  0  0
    2.8462   17.3263    0.0000 C   0  0  0  0  0  0  0  0  0  0  0  0
    2.6747   18.1333    0.0000 O   0  0  0  0  0  0  0  0  0  0  0  0
    3.6308   17.0714    0.0000 C   0  0  0  0  0  0  0  0  0  0  0  0
    4.2439   17.6234    0.0000 O   0  0  0  0  0  0  0  0  0  0  0  0
   -0.4893   12.4002    0.0000 N   0  0  0  0  0  0  0  0  0  0  0  0
  1  2  1  0  0  0  0
  2  3  1  0  0  0  0
  2  4  1  0  0  0  0
  4  5  1  0  0  0  0
  4  9  1  0  0  0  0
  5  6  1  0  0  0  0
  5  7  2  0  0  0  0
  7  8  1  0  0  0  0
  8  9  2  0  0  0  0
  9 10  1  0  0  0  0
 10 11  1  0  0  0  0
 10 32  2  0  0  0  0
 11 12  2  0  0  0  0
 12 13  1  0  0  0  0
 13 14  2  0  0  0  0
 14 15  1  0  0  0  0
 14 32  1  0  0  0  0
 15 16  1  0  0  0  0
 16 17  1  0  0  0  0
 16 21  2  0  0  0  0
 17 18  2  0  0  0  0
 18 19  1  0  0  0  0
 19 20  2  0  0  0  0
 19 22  1  0  0  0  0
 20 21  1  0  0  0  0
 22 23  1  0  0  0  0
 22 27  1  0  0  0  0
 23 24  1  0  0  0  0
 24 25  1  0  0  0  0
 25 26  1  0  0  0  0
 25 28  1  0  0  0  0
 26 27  1  0  0  0  0
 28 29  2  0  0  0  0
 28 30  1  0  0  0  0
 30 31  1  0  0  0  0
M  END
> <DATABASE_ID>
DB07982

> <DATABASE_NAME>
drugbank

> <SMILES>
CC(C)N1C(C)=NC=C1C1=NC(NC2=CC=C(C=C2)N2CCN(CC2)C(=O)CO)=NC=C1

> <INCHI_IDENTIFIER>
InChI=1S/C23H29N7O2/c1-16(2)30-17(3)25-14-21(30)20-8-9-24-23(27-20)26-18-4-6-19(7-5-18)28-10-12-29(13-11-28)22(32)15-31/h4-9,14,16,31H,10-13,15H2,1-3H3,(H,24,26,27)

> <INCHI_KEY>
PVTKDXZNSUHUMO-UHFFFAOYSA-N

> <FORMULA>
C23H29N7O2

> <MOLECULAR_WEIGHT>
435.5221

> <EXACT_MASS>
435.238273207

> <JCHEM_ACCEPTOR_COUNT>
7

> <JCHEM_ATOM_COUNT>
61

> <JCHEM_AVERAGE_NEUTRAL_MICROSPECIES_CHARGE>
0.09359586697769455

> <JCHEM_AVERAGE_POLARIZABILITY>
47.98756375235797

> <JCHEM_BIOAVAILABILITY>
1

> <JCHEM_DONOR_COUNT>
2

> <JCHEM_FORMAL_CHARGE>
0

> <JCHEM_GHOSE_FILTER>
1

> <JCHEM_IUPAC>
2-hydroxy-1-{4-[4-({4-[2-methyl-1-(propan-2-yl)-1H-imidazol-5-yl]pyrimidin-2-yl}amino)phenyl]piperazin-1-yl}ethan-1-one

> <ALOGPS_LOGP>
2.73

> <JCHEM_LOGP>
1.4879875466666679

> <ALOGPS_LOGS>
-3.04

> <JCHEM_MDDR_LIKE_RULE>
1

> <JCHEM_NEUTRAL_CHARGE>
0

> <JCHEM_NUMBER_OF_RINGS>
4

> <JCHEM_PHYSIOLOGICAL_CHARGE>
0

> <JCHEM_PKA>
14.614030031370211

> <JCHEM_PKA_STRONGEST_ACIDIC>
13.58428808095689

> <JCHEM_PKA_STRONGEST_BASIC>
6.012160022281

> <JCHEM_POLAR_SURFACE_AREA>
99.41000000000001

> <JCHEM_REFRACTIVITY>
123.70789999999997

> <JCHEM_ROTATABLE_BOND_COUNT>
6

> <JCHEM_RULE_OF_FIVE>
1

> <ALOGPS_SOLUBILITY>
4.01e-01 g/l

> <JCHEM_TRADITIONAL_IUPAC>
tetrahydrofolic acid

> <JCHEM_VEBER_RULE>
0

> <DRUGBANK_ID>
DB07982

> <DRUG_GROUPS>
experimental

> <GENERIC_NAME>
2-{4-[4-({4-[2-methyl-1-(1-methylethyl)-1H-imidazol-5-yl]pyrimidin-2-yl}amino)phenyl]piperazin-1-yl}-2-oxoethanol

$$$$
