L13
  Mrv0541 02241213502D          

 14 15  0  0  0  0            999 V2000
    1.5290    0.7769    0.0000 N   0  0  0  0  0  0  0  0  0  0  0  0
    1.5290   -0.0481    0.0000 N   0  0  0  0  0  0  0  0  0  0  0  0
    2.1964   -0.5330    0.0000 C   0  0  0  0  0  0  0  0  0  0  0  0
    2.9811   -0.2780    0.0000 S   0  0  0  0  0  0  0  0  0  0  0  0
    1.9415   -1.3176    0.0000 N   0  0  0  0  0  0  0  0  0  0  0  0
    1.1165   -1.3176    0.0000 N   0  0  0  0  0  0  0  0  0  0  0  0
    0.8616   -0.5330    0.0000 C   0  0  0  0  0  0  0  0  0  0  0  0
    0.0769   -0.2780    0.0000 C   0  0  0  0  0  0  0  0  0  0  0  0
   -0.5362   -0.8301    0.0000 C   0  0  0  0  0  0  0  0  0  0  0  0
   -1.3208   -0.5751    0.0000 C   0  0  0  0  0  0  0  0  0  0  0  0
   -1.4923    0.2318    0.0000 C   0  0  0  0  0  0  0  0  0  0  0  0
   -0.8792    0.7839    0.0000 C   0  0  0  0  0  0  0  0  0  0  0  0
   -0.0946    0.5289    0.0000 C   0  0  0  0  0  0  0  0  0  0  0  0
    0.5185    1.0810    0.0000 C   0  0  0  0  0  0  0  0  0  0  0  0
  1  2  1  0  0  0  0
  2  3  1  0  0  0  0
  2  7  1  0  0  0  0
  3  4  2  0  0  0  0
  3  5  1  0  0  0  0
  5  6  1  0  0  0  0
  6  7  2  0  0  0  0
  7  8  1  0  0  0  0
  8  9  2  0  0  0  0
  8 13  1  0  0  0  0
  9 10  1  0  0  0  0
 10 11  2  0  0  0  0
 11 12  1  0  0  0  0
 12 13  2  0  0  0  0
 13 14  1  0  0  0  0
M  END
> <DATABASE_ID>
DB08069

> <DATABASE_NAME>
drugbank

> <SMILES>
CC1=CC=CC=C1C1=NNC(=S)N1N

> <INCHI_IDENTIFIER>
InChI=1S/C9H10N4S/c1-6-4-2-3-5-7(6)8-11-12-9(14)13(8)10/h2-5H,10H2,1H3,(H,12,14)

> <INCHI_KEY>
CUEYNOAJNUCBAP-UHFFFAOYSA-N

> <FORMULA>
C9H10N4S

> <MOLECULAR_WEIGHT>
206.267

> <EXACT_MASS>
206.06261703

> <JCHEM_ACCEPTOR_COUNT>
2

> <JCHEM_ATOM_COUNT>
24

> <JCHEM_AVERAGE_NEUTRAL_MICROSPECIES_CHARGE>
-0.2380076569195874

> <JCHEM_AVERAGE_POLARIZABILITY>
21.474255869932428

> <JCHEM_BIOAVAILABILITY>
1

> <JCHEM_DONOR_COUNT>
2

> <JCHEM_FORMAL_CHARGE>
0

> <JCHEM_GHOSE_FILTER>
1

> <JCHEM_IUPAC>
4-amino-3-(2-methylphenyl)-4,5-dihydro-1H-1,2,4-triazole-5-thione

> <ALOGPS_LOGP>
1.93

> <JCHEM_LOGP>
2.4011313023333334

> <ALOGPS_LOGS>
-2.84

> <JCHEM_MDDR_LIKE_RULE>
0

> <JCHEM_NEUTRAL_CHARGE>
0

> <JCHEM_NUMBER_OF_RINGS>
2

> <JCHEM_PHYSIOLOGICAL_CHARGE>
0

> <JCHEM_PKA_STRONGEST_ACIDIC>
7.504928290660646

> <JCHEM_PKA_STRONGEST_BASIC>
3.33264090320568

> <JCHEM_POLAR_SURFACE_AREA>
53.65

> <JCHEM_REFRACTIVITY>
61.35230000000001

> <JCHEM_ROTATABLE_BOND_COUNT>
1

> <JCHEM_RULE_OF_FIVE>
1

> <ALOGPS_SOLUBILITY>
2.96e-01 g/l

> <JCHEM_TRADITIONAL_IUPAC>
biotin

> <JCHEM_VEBER_RULE>
0

> <DRUGBANK_ID>
DB08069

> <DRUG_GROUPS>
experimental

> <GENERIC_NAME>
4-AMINO-5-(2-METHYLPHENYL)-2,4-DIHYDRO-3H-1,2,4-TRIAZOLE-3-THIONE

$$$$
