LJ2
  Mrv0541 02241213522D          

 17 18  0  0  0  0            999 V2000
    2.8096    0.1813    0.0000 C   0  0  0  0  0  0  0  0  0  0  0  0
    3.5241   -0.2313    0.0000 C   0  0  0  0  0  0  0  0  0  0  0  0
    4.2385    0.1812    0.0000 Br  0  0  0  0  0  0  0  0  0  0  0  0
    3.5241   -1.0563    0.0000 C   0  0  0  0  0  0  0  0  0  0  0  0
    4.2385   -1.4688    0.0000 O   0  0  0  0  0  0  0  0  0  0  0  0
    2.8096   -1.4688    0.0000 C   0  0  0  0  0  0  0  0  0  0  0  0
    2.8096   -2.2938    0.0000 Br  0  0  0  0  0  0  0  0  0  0  0  0
    2.0951   -1.0562    0.0000 C   0  0  0  0  0  0  0  0  0  0  0  0
    2.0951   -0.2312    0.0000 C   0  0  0  0  0  0  0  0  0  0  0  0
    1.3806    0.1813    0.0000 C   0  0  0  0  0  0  0  0  0  0  0  0
    0.6662   -0.2313    0.0000 C   0  0  0  0  0  0  0  0  0  0  0  0
   -0.0483    0.1812    0.0000 C   0  0  0  0  0  0  0  0  0  0  0  0
   -0.7628   -0.2313    0.0000 C   0  0  0  0  0  0  0  0  0  0  0  0
   -1.4772    0.1812    0.0000 C   0  0  0  0  0  0  0  0  0  0  0  0
   -1.4772    1.0062    0.0000 C   0  0  0  0  0  0  0  0  0  0  0  0
   -0.7628    1.4187    0.0000 C   0  0  0  0  0  0  0  0  0  0  0  0
   -0.0483    1.0062    0.0000 C   0  0  0  0  0  0  0  0  0  0  0  0
  1  2  2  0  0  0  0
  1  9  1  0  0  0  0
  2  3  1  0  0  0  0
  2  4  1  0  0  0  0
  4  5  1  0  0  0  0
  4  6  2  0  0  0  0
  6  7  1  0  0  0  0
  6  8  1  0  0  0  0
  8  9  2  0  0  0  0
  9 10  1  0  0  0  0
 10 11  2  0  0  0  0
 11 12  1  0  0  0  0
 12 13  2  0  0  0  0
 12 17  1  0  0  0  0
 13 14  1  0  0  0  0
 14 15  2  0  0  0  0
 15 16  1  0  0  0  0
 16 17  2  0  0  0  0
M  END
> <DATABASE_ID>
DB08101

> <DATABASE_NAME>
drugbank

> <SMILES>
OC1=C(Br)C=C(\C=C\C2=CC=CC=C2)C=C1Br

> <INCHI_IDENTIFIER>
InChI=1S/C14H10Br2O/c15-12-8-11(9-13(16)14(12)17)7-6-10-4-2-1-3-5-10/h1-9,17H/b7-6+

> <INCHI_KEY>
WMVYUPRIADVLTH-VOTSOKGWSA-N

> <FORMULA>
C14H10Br2O

> <MOLECULAR_WEIGHT>
354.037

> <EXACT_MASS>
351.909840236

> <JCHEM_ACCEPTOR_COUNT>
1

> <JCHEM_ATOM_COUNT>
27

> <JCHEM_AVERAGE_NEUTRAL_MICROSPECIES_CHARGE>
-0.8387637774215511

> <JCHEM_AVERAGE_POLARIZABILITY>
29.482252258614245

> <JCHEM_BIOAVAILABILITY>
1

> <JCHEM_DONOR_COUNT>
1

> <JCHEM_FORMAL_CHARGE>
0

> <JCHEM_GHOSE_FILTER>
1

> <JCHEM_IUPAC>
2,6-dibromo-4-[(1E)-2-phenylethenyl]phenol

> <ALOGPS_LOGP>
5.57

> <JCHEM_LOGP>
5.547026780333333

> <ALOGPS_LOGS>
-5.78

> <JCHEM_MDDR_LIKE_RULE>
0

> <JCHEM_NEUTRAL_CHARGE>
-1

> <JCHEM_NUMBER_OF_RINGS>
2

> <JCHEM_PHYSIOLOGICAL_CHARGE>
-1

> <JCHEM_PKA_STRONGEST_ACIDIC>
6.2838229481060806

> <JCHEM_PKA_STRONGEST_BASIC>
-7.889623622294561

> <JCHEM_POLAR_SURFACE_AREA>
20.23

> <JCHEM_REFRACTIVITY>
78.73930000000001

> <JCHEM_ROTATABLE_BOND_COUNT>
2

> <JCHEM_RULE_OF_FIVE>
0

> <ALOGPS_SOLUBILITY>
5.90e-04 g/l

> <JCHEM_TRADITIONAL_IUPAC>
biotin

> <JCHEM_VEBER_RULE>
1

> <DRUGBANK_ID>
DB08101

> <DRUG_GROUPS>
experimental

> <GENERIC_NAME>
2,6-dibromo-4-[(E)-2-phenylethenyl]phenol

$$$$
