LKG
  Mrv0541 02241213522D          

 23 26  0  0  0  0            999 V2000
   -0.0556    0.7871    0.0000 N   0  0  0  0  0  0  0  0  0  0  0  0
   -0.8402    1.8670    0.0000 N   0  0  0  0  0  0  0  0  0  0  0  0
    2.0878    0.3746    0.0000 C   0  0  0  0  0  0  0  0  0  0  0  0
    2.8023    0.7871    0.0000 C   0  0  0  0  0  0  0  0  0  0  0  0
    3.5167    0.3746    0.0000 C   0  0  0  0  0  0  0  0  0  0  0  0
    1.3733    0.7871    0.0000 C   0  0  0  0  0  0  0  0  0  0  0  0
    1.3733    1.6121    0.0000 C   0  0  0  0  0  0  0  0  0  0  0  0
   -0.0556    1.6121    0.0000 C   0  0  0  0  0  0  0  0  0  0  0  0
   -1.9021   -0.4240    0.0000 C   0  0  0  0  0  0  0  0  0  0  0  0
   -2.9641   -1.3801    0.0000 C   0  0  0  0  0  0  0  0  0  0  0  0
   -3.2611    0.0176    0.0000 C   0  0  0  0  0  0  0  0  0  0  0  0
   -2.1571   -1.2086    0.0000 C   0  0  0  0  0  0  0  0  0  0  0  0
   -3.5161   -0.7670    0.0000 C   0  0  0  0  0  0  0  0  0  0  0  0
   -4.3231   -0.9386    0.0000 O   0  0  0  0  0  0  0  0  0  0  0  0
   -2.4542    0.1891    0.0000 C   0  0  0  0  0  0  0  0  0  0  0  0
   -1.0952   -0.2525    0.0000 C   0  0  0  0  0  0  0  0  0  0  0  0
   -0.8402    0.5322    0.0000 C   0  0  0  0  0  0  0  0  0  0  0  0
    0.6589    0.3746    0.0000 N   0  0  0  0  0  0  0  0  0  0  0  0
   -1.3252    1.1996    0.0000 N   0  0  0  0  0  0  0  0  0  0  0  0
    0.6589    2.0246    0.0000 C   0  0  0  0  0  0  0  0  0  0  0  0
    2.0878   -0.4504    0.0000 C   0  0  0  0  0  0  0  0  0  0  0  0
    2.8023   -0.8629    0.0000 C   0  0  0  0  0  0  0  0  0  0  0  0
    3.5167   -0.4504    0.0000 C   0  0  0  0  0  0  0  0  0  0  0  0
  1  8  1  0  0  0  0
  1 17  1  0  0  0  0
  1 18  1  0  0  0  0
  2  8  2  0  0  0  0
  2 19  1  0  0  0  0
  3  4  2  0  0  0  0
  3  6  1  0  0  0  0
  3 21  1  0  0  0  0
  4  5  1  0  0  0  0
  5 23  2  0  0  0  0
  6  7  1  0  0  0  0
  6 18  2  0  0  0  0
  7 20  2  0  0  0  0
  8 20  1  0  0  0  0
  9 12  2  0  0  0  0
  9 15  1  0  0  0  0
  9 16  1  0  0  0  0
 10 12  1  0  0  0  0
 10 13  2  0  0  0  0
 11 13  1  0  0  0  0
 11 15  2  0  0  0  0
 13 14  1  0  0  0  0
 16 17  1  0  0  0  0
 17 19  2  0  0  0  0
 21 22  2  0  0  0  0
 22 23  1  0  0  0  0
M  END
> <DATABASE_ID>
DB08111

> <DATABASE_NAME>
drugbank

> <SMILES>
OC1=CC=C(CC2=NN=C3C=CC(=NN23)C2=CC=CC=C2)C=C1

> <INCHI_IDENTIFIER>
InChI=1S/C18H14N4O/c23-15-8-6-13(7-9-15)12-18-20-19-17-11-10-16(21-22(17)18)14-4-2-1-3-5-14/h1-11,23H,12H2

> <INCHI_KEY>
ZGJYGQLGSXWEMY-UHFFFAOYSA-N

> <FORMULA>
C18H14N4O

> <MOLECULAR_WEIGHT>
302.33

> <EXACT_MASS>
302.11676109

> <JCHEM_ACCEPTOR_COUNT>
4

> <JCHEM_ATOM_COUNT>
37

> <JCHEM_AVERAGE_NEUTRAL_MICROSPECIES_CHARGE>
-0.0014200198216774023

> <JCHEM_AVERAGE_POLARIZABILITY>
31.87491612913714

> <JCHEM_BIOAVAILABILITY>
1

> <JCHEM_DONOR_COUNT>
1

> <JCHEM_FORMAL_CHARGE>
0

> <JCHEM_GHOSE_FILTER>
1

> <JCHEM_IUPAC>
4-({6-phenyl-[1,2,4]triazolo[4,3-b]pyridazin-3-yl}methyl)phenol

> <ALOGPS_LOGP>
3.08

> <JCHEM_LOGP>
3.3794358769999997

> <ALOGPS_LOGS>
-3.90

> <JCHEM_MDDR_LIKE_RULE>
0

> <JCHEM_NEUTRAL_CHARGE>
0

> <JCHEM_NUMBER_OF_RINGS>
4

> <JCHEM_PHYSIOLOGICAL_CHARGE>
0

> <JCHEM_PKA_STRONGEST_ACIDIC>
9.846268534170862

> <JCHEM_PKA_STRONGEST_BASIC>
1.5121630578912586

> <JCHEM_POLAR_SURFACE_AREA>
63.31

> <JCHEM_REFRACTIVITY>
99.89750000000002

> <JCHEM_ROTATABLE_BOND_COUNT>
3

> <JCHEM_RULE_OF_FIVE>
1

> <ALOGPS_SOLUBILITY>
3.83e-02 g/l

> <JCHEM_TRADITIONAL_IUPAC>
biotin

> <JCHEM_VEBER_RULE>
0

> <DRUGBANK_ID>
DB08111

> <DRUG_GROUPS>
experimental

> <GENERIC_NAME>
4-[(6-phenyl[1,2,4]triazolo[4,3-b]pyridazin-3-yl)methyl]phenol

$$$$
