LZK
  Mrv0541 02241213532D          

 22 24  0  0  0  0            999 V2000
   -1.3623  -10.2636    0.0000 N   0  0  0  0  0  0  0  0  0  0  0  0
   -0.6478  -10.6761    0.0000 C   0  0  0  0  0  0  0  0  0  0  0  0
    0.0667  -10.2636    0.0000 N   0  0  0  0  0  0  0  0  0  0  0  0
   -0.6478  -11.5011    0.0000 N   0  0  0  0  0  0  0  0  0  0  0  0
    0.0667  -11.9136    0.0000 C   0  0  0  0  0  0  0  0  0  0  0  0
    0.7811  -11.5011    0.0000 C   0  0  0  0  0  0  0  0  0  0  0  0
    0.7811  -10.6761    0.0000 C   0  0  0  0  0  0  0  0  0  0  0  0
    1.4956  -10.2636    0.0000 N   0  0  0  0  0  0  0  0  0  0  0  0
    2.2101  -10.6761    0.0000 C   0  0  0  0  0  0  0  0  0  0  0  0
    2.9246  -10.2636    0.0000 N   0  0  0  0  0  0  0  0  0  0  0  0
    1.4956  -11.9136    0.0000 C   0  0  0  0  0  0  0  0  0  0  0  0
    2.2101  -11.5011    0.0000 C   0  0  0  0  0  0  0  0  0  0  0  0
    2.9246  -11.9136    0.0000 C   0  0  0  0  0  0  0  0  0  0  0  0
    3.6390  -11.5011    0.0000 C   0  0  0  0  0  0  0  0  0  0  0  0
    3.6390  -10.6761    0.0000 O   0  0  0  0  0  0  0  0  0  0  0  0
    4.3535  -10.2636    0.0000 C   0  0  0  0  0  0  0  0  0  0  0  0
    2.9246  -12.7386    0.0000 C   0  0  0  0  0  0  0  0  0  0  0  0
    2.2101  -13.1511    0.0000 O   0  0  0  0  0  0  0  0  0  0  0  0
    2.2101  -13.9761    0.0000 C   0  0  0  0  0  0  0  0  0  0  0  0
    3.6390  -13.1511    0.0000 C   0  0  0  0  0  0  0  0  0  0  0  0
    4.3535  -12.7386    0.0000 C   0  0  0  0  0  0  0  0  0  0  0  0
    4.3535  -11.9136    0.0000 C   0  0  0  0  0  0  0  0  0  0  0  0
  1  2  1  0  0  0  0
  2  3  1  0  0  0  0
  2  4  2  0  0  0  0
  3  7  2  0  0  0  0
  4  5  1  0  0  0  0
  5  6  2  0  0  0  0
  6  7  1  0  0  0  0
  6 11  1  0  0  0  0
  7  8  1  0  0  0  0
  8  9  2  0  0  0  0
  9 10  1  0  0  0  0
  9 12  1  0  0  0  0
 11 12  2  0  0  0  0
 12 13  1  0  0  0  0
 13 14  1  0  0  0  0
 13 17  2  0  0  0  0
 14 15  1  0  0  0  0
 14 22  2  0  0  0  0
 15 16  1  0  0  0  0
 17 18  1  0  0  0  0
 17 20  1  0  0  0  0
 18 19  1  0  0  0  0
 20 21  2  0  0  0  0
 21 22  1  0  0  0  0
M  END
> <DATABASE_ID>
DB08145

> <DATABASE_NAME>
drugbank

> <SMILES>
COC1=CC=CC(OC)=C1C1=CC2=CN=C(N)N=C2N=C1N

> <INCHI_IDENTIFIER>
InChI=1S/C15H15N5O2/c1-21-10-4-3-5-11(22-2)12(10)9-6-8-7-18-15(17)20-14(8)19-13(9)16/h3-7H,1-2H3,(H4,16,17,18,19,20)

> <INCHI_KEY>
LRPHIAJXODIASX-UHFFFAOYSA-N

> <FORMULA>
C15H15N5O2

> <MOLECULAR_WEIGHT>
297.3119

> <EXACT_MASS>
297.122574749

> <JCHEM_ACCEPTOR_COUNT>
7

> <JCHEM_ATOM_COUNT>
37

> <JCHEM_AVERAGE_NEUTRAL_MICROSPECIES_CHARGE>
0.0030550777034964727

> <JCHEM_AVERAGE_POLARIZABILITY>
30.409612231362246

> <JCHEM_BIOAVAILABILITY>
1

> <JCHEM_DONOR_COUNT>
2

> <JCHEM_FORMAL_CHARGE>
0

> <JCHEM_GHOSE_FILTER>
1

> <JCHEM_IUPAC>
6-(2,6-dimethoxyphenyl)pyrido[2,3-d]pyrimidine-2,7-diamine

> <ALOGPS_LOGP>
2.07

> <JCHEM_LOGP>
1.4796691403333333

> <ALOGPS_LOGS>
-2.98

> <JCHEM_MDDR_LIKE_RULE>
0

> <JCHEM_NEUTRAL_CHARGE>
0

> <JCHEM_NUMBER_OF_RINGS>
3

> <JCHEM_PHYSIOLOGICAL_CHARGE>
0

> <JCHEM_PKA_STRONGEST_ACIDIC>
15.820792387365234

> <JCHEM_PKA_STRONGEST_BASIC>
4.4862863076579815

> <JCHEM_POLAR_SURFACE_AREA>
109.17

> <JCHEM_REFRACTIVITY>
85.93930000000002

> <JCHEM_ROTATABLE_BOND_COUNT>
2

> <JCHEM_RULE_OF_FIVE>
1

> <ALOGPS_SOLUBILITY>
3.13e-01 g/l

> <JCHEM_TRADITIONAL_IUPAC>
biotin

> <JCHEM_VEBER_RULE>
0

> <DRUGBANK_ID>
DB08145

> <DRUG_GROUPS>
experimental

> <GENERIC_NAME>
6-(2,6-DIMETHOXYPHENYL)PYRIDO[2,3-D]PYRIMIDINE-2,7-DIAMINE

$$$$
