M28
  Mrv0541 02241213542D          

 15 15  0  0  0  0            999 V2000
    1.8752    0.0156    0.0000 C   0  0  0  0  0  0  0  0  0  0  0  0
    1.8752   -0.8094    0.0000 C   0  0  0  0  0  0  0  0  0  0  0  0
    1.1607   -1.2219    0.0000 C   0  0  0  0  0  0  0  0  0  0  0  0
    0.4463   -0.8094    0.0000 C   0  0  0  0  0  0  0  0  0  0  0  0
    0.4463    0.0156    0.0000 C   0  0  0  0  0  0  0  0  0  0  0  0
    1.1607    0.4281    0.0000 C   0  0  0  0  0  0  0  0  0  0  0  0
    2.5897    0.4281    0.0000 S   0  0  0  0  0  0  0  0  0  0  0  0
    3.3042    0.8406    0.0000 O   0  0  0  0  0  0  0  0  0  0  0  0
    2.1772    1.1425    0.0000 O   0  0  0  0  0  0  0  0  0  0  0  0
    3.0022   -0.2864    0.0000 N   0  0  0  0  0  0  0  0  0  0  0  0
   -0.2682   -1.2219    0.0000 C   0  0  0  0  0  0  0  0  0  0  0  0
   -0.2682   -2.0469    0.0000 C   0  0  0  0  0  0  0  0  0  0  0  0
   -0.9827   -2.4594    0.0000 C   0  0  0  0  0  0  0  0  0  0  0  0
   -0.9827   -3.2844    0.0000 O   0  0  0  0  0  0  0  0  0  0  0  0
   -1.6971   -2.0469    0.0000 O   0  0  0  0  0  0  0  0  0  0  0  0
  1  7  1  0  0  0  0
  1  2  2  0  0  0  0
  1  6  1  0  0  0  0
  2  3  1  0  0  0  0
  3  4  2  0  0  0  0
  4  5  1  0  0  0  0
  4 11  1  0  0  0  0
  5  6  2  0  0  0  0
  7  8  2  0  0  0  0
  7  9  2  0  0  0  0
  7 10  1  0  0  0  0
 11 12  1  0  0  0  0
 12 13  1  0  0  0  0
 13 14  2  0  0  0  0
 13 15  1  0  0  0  0
M  END
> <DATABASE_ID>
DB08156

> <DATABASE_NAME>
drugbank

> <SMILES>
NS(=O)(=O)C1=CC=C(CCC(O)=O)C=C1

> <INCHI_IDENTIFIER>
InChI=1S/C9H11NO4S/c10-15(13,14)8-4-1-7(2-5-8)3-6-9(11)12/h1-2,4-5H,3,6H2,(H,11,12)(H2,10,13,14)

> <INCHI_KEY>
JUEONDBIBADVGD-UHFFFAOYSA-N

> <FORMULA>
C9H11NO4S

> <MOLECULAR_WEIGHT>
229.253

> <EXACT_MASS>
229.040878535

> <JCHEM_ACCEPTOR_COUNT>
4

> <JCHEM_ATOM_COUNT>
26

> <JCHEM_AVERAGE_NEUTRAL_MICROSPECIES_CHARGE>
-1.000327922552349

> <JCHEM_AVERAGE_POLARIZABILITY>
21.9965144474282

> <JCHEM_BIOAVAILABILITY>
1

> <JCHEM_DONOR_COUNT>
2

> <JCHEM_FORMAL_CHARGE>
0

> <JCHEM_GHOSE_FILTER>
1

> <JCHEM_IUPAC>
3-(4-sulfamoylphenyl)propanoic acid

> <ALOGPS_LOGP>
0.61

> <JCHEM_LOGP>
0.6615935399999997

> <ALOGPS_LOGS>
-1.97

> <JCHEM_MDDR_LIKE_RULE>
0

> <JCHEM_NEUTRAL_CHARGE>
-1

> <JCHEM_NUMBER_OF_RINGS>
1

> <JCHEM_PHYSIOLOGICAL_CHARGE>
-1

> <JCHEM_PKA>
10.224386192574901

> <JCHEM_PKA_STRONGEST_ACIDIC>
3.428618201579354

> <JCHEM_POLAR_SURFACE_AREA>
97.46

> <JCHEM_REFRACTIVITY>
54.124500000000005

> <JCHEM_ROTATABLE_BOND_COUNT>
4

> <JCHEM_RULE_OF_FIVE>
1

> <ALOGPS_SOLUBILITY>
2.46e+00 g/l

> <JCHEM_TRADITIONAL_IUPAC>
tetrahydrofolic acid

> <JCHEM_VEBER_RULE>
0

> <DRUGBANK_ID>
DB08156

> <DRUG_GROUPS>
experimental

> <GENERIC_NAME>
3-[4-(AMINOSULFONYL)PHENYL]PROPANOIC ACID

$$$$
