Malic acid.mol
  Mrv0541 02231218432D          

  9  8  0  0  0  0            999 V2000
   -1.0717    0.2063    0.0000 C   0  0  0  0  0  0  0  0  0  0  0  0
   -0.3572   -0.2062    0.0000 C   0  0  0  0  0  0  0  0  0  0  0  0
   -0.3572   -1.0313    0.0000 O   0  0  0  0  0  0  0  0  0  0  0  0
    0.3572    0.2063    0.0000 C   0  0  0  0  0  0  0  0  0  0  0  0
    1.0717   -0.2062    0.0000 C   0  0  0  0  0  0  0  0  0  0  0  0
   -1.0717    1.0313    0.0000 O   0  0  0  0  0  0  0  0  0  0  0  0
   -1.7862   -0.2062    0.0000 O   0  0  0  0  0  0  0  0  0  0  0  0
    1.0717   -1.0312    0.0000 O   0  0  0  0  0  0  0  0  0  0  0  0
    1.7862    0.2063    0.0000 O   0  0  0  0  0  0  0  0  0  0  0  0
  1  2  1  0  0  0  0
  2  3  1  0  0  0  0
  2  4  1  0  0  0  0
  4  5  1  0  0  0  0
  1  6  2  0  0  0  0
  1  7  1  0  0  0  0
  5  8  2  0  0  0  0
  5  9  1  0  0  0  0
M  END
> <DATABASE_ID>
DB12751

> <DATABASE_NAME>
drugbank

> <SMILES>
OC(CC(O)=O)C(O)=O

> <INCHI_IDENTIFIER>
InChI=1S/C4H6O5/c5-2(4(8)9)1-3(6)7/h2,5H,1H2,(H,6,7)(H,8,9)

> <INCHI_KEY>
BJEPYKJPYRNKOW-UHFFFAOYSA-N

> <FORMULA>
C4H6O5

> <MOLECULAR_WEIGHT>
134.0874

> <EXACT_MASS>
134.021523302

> <JCHEM_ACCEPTOR_COUNT>
5

> <JCHEM_ATOM_COUNT>
15

> <JCHEM_AVERAGE_NEUTRAL_MICROSPECIES_CHARGE>
-1.9868470385173223

> <JCHEM_AVERAGE_POLARIZABILITY>
10.911379684409447

> <JCHEM_BIOAVAILABILITY>
1

> <JCHEM_DONOR_COUNT>
3

> <JCHEM_FORMAL_CHARGE>
0

> <JCHEM_GHOSE_FILTER>
0

> <JCHEM_IUPAC>
2-hydroxybutanedioic acid

> <ALOGPS_LOGP>
-0.87

> <JCHEM_LOGP>
-1.1136414279999998

> <ALOGPS_LOGS>
0.21

> <JCHEM_MDDR_LIKE_RULE>
0

> <JCHEM_NEUTRAL_CHARGE>
-2

> <JCHEM_NUMBER_OF_RINGS>
0

> <JCHEM_PHYSIOLOGICAL_CHARGE>
-2

> <JCHEM_PKA>
5.127730317344291

> <JCHEM_PKA_STRONGEST_ACIDIC>
3.1983571934669475

> <JCHEM_PKA_STRONGEST_BASIC>
-3.9130352388514544

> <JCHEM_POLAR_SURFACE_AREA>
94.83

> <JCHEM_REFRACTIVITY>
24.875200000000003

> <JCHEM_ROTATABLE_BOND_COUNT>
3

> <JCHEM_RULE_OF_FIVE>
1

> <ALOGPS_SOLUBILITY>
2.18e+02 g/l

> <JCHEM_TRADITIONAL_IUPAC>
tetrahydrofolic acid

> <JCHEM_VEBER_RULE>
0

> <DRUGBANK_ID>
DB12751

> <DRUG_GROUPS>
investigational

> <GENERIC_NAME>
Malic acid

> <SYNONYMS>
Malic acid

$$$$
