menthol
  Mrv1572001071617082D          

 11 11  0  0  1  0            999 V2000
    0.0000    2.4750    0.0000 C   0  0  0  0  0  0  0  0  0  0  0  0
    0.7145    2.0625    0.0000 C   0  0  0  0  0  0  0  0  0  0  0  0
    1.4289    2.4750    0.0000 C   0  0  0  0  0  0  0  0  0  0  0  0
    0.7145    1.2375    0.0000 C   0  0  2  0  0  0  0  0  0  0  0  0
    1.4289    0.8250    0.0000 C   0  0  0  0  0  0  0  0  0  0  0  0
    1.4289    0.0000    0.0000 C   0  0  0  0  0  0  0  0  0  0  0  0
    0.7145   -0.4125    0.0000 C   0  0  1  0  0  0  0  0  0  0  0  0
    0.7145   -1.2375    0.0000 C   0  0  0  0  0  0  0  0  0  0  0  0
    0.0000    0.0000    0.0000 C   0  0  0  0  0  0  0  0  0  0  0  0
    0.0000    0.8250    0.0000 C   0  0  1  0  0  0  0  0  0  0  0  0
   -0.7145    1.2375    0.0000 O   0  0  0  0  0  0  0  0  0  0  0  0
  1  2  1  0  0  0  0
  2  3  1  0  0  0  0
  4  2  1  6  0  0  0
  4  5  1  0  0  0  0
  5  6  1  0  0  0  0
  6  7  1  0  0  0  0
  7  8  1  1  0  0  0
  7  9  1  0  0  0  0
  9 10  1  0  0  0  0
  4 10  1  0  0  0  0
 10 11  1  1  0  0  0
M  END
> <DATABASE_ID>
DB00825

> <DATABASE_NAME>
drugbank

> <SMILES>
CC(C)[C@@H]1CC[C@@H](C)C[C@H]1O

> <INCHI_IDENTIFIER>
InChI=1S/C10H20O/c1-7(2)9-5-4-8(3)6-10(9)11/h7-11H,4-6H2,1-3H3/t8-,9+,10-/m1/s1

> <INCHI_KEY>
NOOLISFMXDJSKH-KXUCPTDWSA-N

> <FORMULA>
C10H20O

> <MOLECULAR_WEIGHT>
156.269

> <EXACT_MASS>
156.151415264

> <JCHEM_ACCEPTOR_COUNT>
1

> <JCHEM_ATOM_COUNT>
31

> <JCHEM_AVERAGE_POLARIZABILITY>
19.69012569770345

> <JCHEM_BIOAVAILABILITY>
1

> <JCHEM_DONOR_COUNT>
1

> <JCHEM_FORMAL_CHARGE>
0

> <JCHEM_GHOSE_FILTER>
0

> <JCHEM_IUPAC>
(1R,2S,5R)-5-methyl-2-(propan-2-yl)cyclohexan-1-ol

> <ALOGPS_LOGP>
2.68

> <JCHEM_LOGP>
2.6642731470000007

> <ALOGPS_LOGS>
-2.45

> <JCHEM_MDDR_LIKE_RULE>
0

> <JCHEM_NUMBER_OF_RINGS>
1

> <JCHEM_PHYSIOLOGICAL_CHARGE>
0

> <JCHEM_PKA_STRONGEST_ACIDIC>
19.54964736878105

> <JCHEM_PKA_STRONGEST_BASIC>
-0.8087842408951696

> <JCHEM_POLAR_SURFACE_AREA>
20.23

> <JCHEM_REFRACTIVITY>
47.445299999999996

> <JCHEM_ROTATABLE_BOND_COUNT>
1

> <JCHEM_RULE_OF_FIVE>
1

> <ALOGPS_SOLUBILITY>
5.58e-01 g/l

> <JCHEM_TRADITIONAL_IUPAC>
menthol

> <JCHEM_VEBER_RULE>
1

> <DRUGBANK_ID>
DB00825

> <SECONDARY_ACCESSION_NUMBERS>
APRD01604

> <DRUG_GROUPS>
approved

> <GENERIC_NAME>
Levomenthol

> <SYNONYMS>
(-)-Menthol; (−)-(1R,3R,4S)-menthol; (−)-menthol; (1alpha,2beta,5alpha)-5-methyl-2(1-methylethyl)cyclohexanol; (1R-(1-α,2-β,5-α))-5-methyl-2-(1-methylethyl)cyclohexanol; (1R,3R,4S)-(−)-menthol; L-menthol; Lévomenthol; Levomenthol; Levomentholum; Levomentol; Mentol

> <PRODUCTS>
AK47 Cooling Roll-On; AVON HeXashield Pain Relief for Muscle, Back and Joint Cream; Absorbine Back; Absorbine Jr Antifungal Liq; Absorbine Jr Extra Strength Liniment; Absorbine Jr Liniment; Absorbine Power Gel; Aflexeryl-LC; Aflexeryl-MC; Air Sinsinpas-EX; Alsirub Ont; Amber Mouth Wash - Liq; Amber Mouthwash - Liq; AmeriPatch; Analgesic Balm; Anbesol Liquid; Anbesol Maximum Strength Liquid; Anodyne Ile; Antibiotic Cold Sore Ointment; Antiphlamine; Antiphlamine Coin Plaster; Antiphlogistine Rub A 535 Extra Strength; Antiphlogistine Rub A-535 Ice Gel 4%; Antiphlogistine Rub A535; Antiseptic Mouth Rinse - Liq; Apr15; Arex Sinsin Pas; Aromalief Pain Relief Cream; Arthricare Pain Relieving Rub Triple Medicated Gel; Arthricare for Women Multi-action; Arthricare for Women Nighttime; Arthricare for Women Ultra Strength; Arthritis Extra Strength Roll-ON Lotion; Arthritis Pain Relief; Arthritis Pain Reliever Herbalife; Arthritis Wonder; Arthro Rheuma Cream; Arthrocare Lotion; Artic Ice Analgesic Gel 2.5%; Artrex; Atomy Herbal Hair Tonic; Au Kah Chuen Skin Lotion; Avon Healthy Remedies Menthol & Camphor Soothing Relief Gel; Avon Healthy Remedies Menthol Celadrin Pain Relief Cream; Balminil Camphorub; Balminil Nasal Ointment; Banana Boat Medicated Lip Balm; Banana Boat Sooth-A-caine Spray Gel; Banana Boat Sooth-A-caine W.moist.aloe V.gel; Beech Nut Honey Lemon Cough Drop; Beech Nut Honey Lemon Cough Drops; Beech Nut Menthol Cough Drop; Beech Nut Wild Cherry Cough Dps; Beech Nut Wild Cherry Cough Drop; Beech-nut Menthol Cough Drops; Ben-gay Ice; Bengay Extra Strength Ice; Bengay Vanishing Scent Pain Relieving; Bentasil Blackcurrant; Bentasil Cherry; Bentasil Extra Strength Eucalyptus; Bentasil Extra Strength Menthol; Bentasil Green; Bentasil Honey-lemon; Bentasil Red; Bentasil Yellow; Benylin 1 Nightime With Menthactin; Benylin 1 With Menthactin; Benylin DM-D Soft Chews With Menthactin; Benylin DM-D With Menthactin; Benylin DM-D-E Extra Strength With Menthactin; Benylin DM-D-E With Menthactin; Benylin Extra Strength Chest Congestion & Cold; Benylin Extra Strength Cough & Chest Congestion; Benylin Extra Strength Cough Complete; Benylin Extra Strength Mucus & Phlegm; Benylin Extra Strength Mucus & Phlegm Plus Cough Control; Benylin Extra Strength Sore Throat & Cough; Benylin Extra Strength With Menthactin; Benylin Extra Strength for People With Diabetes; Benzocaine; Big V Cough Lozenges Cherry 6.1mg/loz; Big V Honey-lemon Cough Lozenges 8.4mg/loz; Big V Menthol Cough Lozenges 6.1mg/loz; Biofreeze; Bite Relief; Blistex Dct; Blue Ice 2.5%; Breathe Deeply; Bronchodex Fort-DM Syr; Bronchodex Vapo Ont; Bronchodex-rub; Bronchophan Onguent Vaporisant; Bronchozone Cough Syrup Certified; Buckley's Chest Congestion; Buckley's Complete; Buckley's Complete PM - Nighttime; Buckley's Complete Plus Extra Strength Mucus Relief; Buckley's Complete Plus Mucous Relief; Buckley's Mucus & Phlegm; Buckley's Nighttime Cough & Congestion; Burn Relief Cream; Burn Relief Gel; Bye Bye Bite Lot; CH6 Scalp Ssag Serum Red Edition; CVS Health Maximum Strength Lidocaine Pain Relief Cream Plus Menthol; CVS Medicated Pain; Cal Mo Dol Ont; Calmitol Itching Relief Ont; Calmomusc Liq; Cam Sun (huile Therapeutique); Camocare Pain Relieving Cream; Campho Rex; Camphorated Ointment Compound; Capsodan Cream; Carboseptol; Carmatis Ont; Celestial Seasonings Herbal Throat Drops; Celestial Seasonings Herbal Throat Drops - Golden Herbal Blend; Cepacol Sensations Cool Mint; Cepacol Sensations Cooling; Cepacol Sensations Sore Throat & Blocked Nose; Cepacol Sensations Sore Throat & Cough; Ch6 Greenol Herb Hair Control Non Wash Treatment; Ch6 Scalp Ssag; Ch6 Scalp Ssag Serum; Chapstick Medicated Lip Balm - Jar; Chapstick Medicated Lip Balm - Stk; Chapstick Medicated Lip Balm - Tube; Chase Coldsorex; Chest Rub Ont; Cho-A Point Plaster; Cho-a PAP; Cm Systems 2 Gel; Cold Sore Lotion; Cold Sore Treatment; Cool Mint Antiseptic Mouthwash; Cool Pap Cataplasma; Coralite Extra Strength Menthol Pain Relief Sleeve - KNEE; Coralite Extra Strength Menthol Pain Relief Sleeve - WRIST; Coralite Pain Relief; Cough Lozenges; Cough Lozenges Spearmint Menthol USP; CounterAct Cough Drops Orchard Cherry; Crazyskin Beers; Crazyskin Beers Premium; Cuticura Medicated Body Powder; DG Health Maximum Strength Cold n Hot; Dbk; Deep Cold Arthritic Hand Lotion 2%; Denorex Extra Strength Medicated Shampoo; Denorex Extra Strength Medicated Shampoo With Conditioners; Denorex Medicated Shampoo - Regular; Denorex Medicated Shampoo Spring Fresh; Denorex Medicated Shampoo With Conditioners; Dentalgar Liq; Dermarest Plus - Gel; Dermasarra; Dermaseptin; Dermoplast Insect Itch and Sting Relief; Dermoplast Pain Relieving; Dermoplast Sunburn and Burn Relief; Direct Formulary Honey-lem. Menth. Cough Loz; Direct Formulary Menthol Cough Loz 6.1mg; Doctor Hoys Natural Pain Relief; Doloran; Dorflex Icy Hot Flexible, XL; Dr.'s Cream; Dual Action Cherry Cough Suppressant Oral Anesthetic; EVERYTOKTOK Hair Tonic; Eagle Brand Medicated Oil; Ease Pain Away Analgesic Lotion; Elizabeth Health Style Chestrub Vaporizing Action; Elizabeth Health Style Ice Cold; Emertussif Lozenges; Essentials Herbal Muscle Massage; Family Care Pain Relief; Flex-OL; Flex-all 454 10%; Flex-all 454 16% Gel; Flex-all 454 Gel 7%; Flexall Ice; Flexall Muscle (original Strength); Flexall Stick; Formula T.T. Lozenges - 3.0mg; Formula T.T.O. Honey Lozenges; Ginsenggo; Glenalgesic Blue Gel; Gold Bond Anti-itch Lotion; Gold Bond Extra Strength Medicated Body Lotion; Gold Bond Medicated Anti-itch Cream; Gold Bond Medicated Body Lotion; Gold Bond Medicated Body Powder; Gouttes Dentaires; Half and Half Balm; Halls Centres Honey-lemon Loz; Halls Centres Reg Loz; Halls Centres Regular; Halls Extra Strong; Halls Extra Strong Cherry; Halls Extra Strong Mentho-lyptus Cough Tab; Halls Grape; Halls Ice Peppermint; Halls Lemon-lime; Halls Lime; Halls Mentho Lyptus Cough Tab; Halls Mentho Lyptus Cough Tab Black Currant; Halls Mentho Lyptus Cough Tab Cherry; Halls Mentho Lyptus Cough Tab Honey Lemon; Halls Mentho Lyptus Cough Tab Regular; Halls Mentho Lyptus Tab Coolmint; Halls Mentho-lyptus Cough Tablets Black Currant; Halls Mentho-lyptus Cough Tablets Mountain Menthol; Halls Mentho-lyptus Cough Tablets Orange; Halls Mentho-lyptus Cough Tablets Peach; Halls Mentho-lyptus Cough Tablets Pink Grapefruit; Halls Mentho-lyptus Cough Tablets Pink Grapefruit/peach; Halls Ocean Blue; Halls Soothers Sore Throat Lozenges; Halls Spearmint; Harmony Flexible 4% Menthol Pain Relief 500; Heat Rub; Hemo-pic; Hemovirtu's Hemorrhoidal Ointment; Herbon Original Cherry; Honey Lemon Cough Drops; Honey Lemon Menthol Eucalyptus Cough Dps; Honey-lemon Cough Lozenges - 8.4mg; Huo Pao Tieh Ta Feng Shin Kao; Ice Gel 2.0%; Ice Gel Therapy 2%; Ice Therapy; Icy Hot Lidocaine No Mess Applicator Plus Menthol; Icy Hot Lidocaine Pain Relieving Cream Plus Menthol; Inarub Crm; Infraline Liq; Inno Rheuma Cream; Inno Rheuma Massage Oil; Integrative Therapeutics, Inc. Joint Gel; Ion-TO Scalp Cleanser S; Itch Nix; Itch relief Cream; Jack and Jill Rub; Jikimi Patch; K2c; K2k; Kama Sutra Pleasure Balm; Kaydia Patch; Kaz Inhalant; Kiro Rub; Kiro-rub; Kobi - Crm; Kool Comfort Pain Relieving Roll-On; Kwan Tak Hing Plaster - Pad-pls; La Jiao Feng Shi Gao; Leader Medicated Relief Patch; LexiCaps; LexiLido; Lidocaine plus Menthol; Lip Conditioner Lip Balm; Lipsorex; Lipsorex - Gel; Lipsorex Plus; Lipsorex-gel; Lotion Pour Feux Sauvages; Lubracane; Ludens Menthol Throat Drops; MOMR Rumaian Herbal Bandage; Mag 5 PT Cooling Formula Recovery Cream; Mag 5 Pt Warming Formula; Marathon Deep Heat Rub; Marco Rub Camphorated Ont; Maximum Strenght Lidocaine plus Menthol Pain Relief Patch; Medicated Analgesic Cream; Medicated Blistex Dct Lip Balm; Medicated Body Powder; Medicated Chest; Medicated Chest Rub; Medicated Chest Rub - Ont; Medicated Chest Rub - Ont Top; Medicated Lipbalm; Medicated Pain; Medicated Vapourizer Fluid; Medipap Cool; Meggezones Menthol Pastilles; Meloids Pwr 1.5%; Menthacin - Cream; Menthacin Lotion; Menthol Cough Lozenges - 6.1mg; Mentholatum; Mentholatum Cough Drops; Mentholatum Extra Strength Ont; Minard's Joint Relief; Mini Pain Relief; Molyhen; Multi-action Denorex 2-IN-1 Dandruff Shampoo + Conditioner; Multi-action Denorex Dandruff Shampoo; Muscle Rub Ultra Strength; Musle and Joint; Myoflex Extra Strength Ice; Myoflex Ice Cold Gel 5%; Myoflex Ice Cold Plus - Gel; Myoflex Ice Cold-gel 4%; Myoflex Ice Plus - Crm; Médi-rub; NOpiod-TC; NOpioid-TC; Napropak Cool; Natur 911; Nature's Relief 1222; Naturland Inno Rheuma Cream; Naturland Sports Cream; Neolinn; New Ammeltz; New NBF GINGIVAL Gel; Novae Pain Relief Analgesic Lotion; Obus Form Therapeutic Heat Rub; Obus Form Therapeutic Ice Gel; Olp Pain-X; Onguent Camphre Menthol Alsi; Orajel 3X Medicated For Toothache and Gum; Orajel 4X Medicated For Toothache and Gum; Orajel 4X Medicated For Toothache and Gum, Cream; Orajel 4X Medicated PM For Toothache and Gum; Orajel Denture Pain Relief; Orajel Denture Plus; Orajel Gum Pain 3X Medicated; Orajel Multi-action Cold Sore Medicine; Orajel Ultra Canker Sore Medicine; PM External; Pain Relief; Pain ReliefPatches Patches; Pain-A-trate Cream; Pastilles Valda; Pelo Scalp Tonic Sheet; Perform; Performance and Recovery; Personal Care Ice Cold Analgesic; Physi-cold; Phytorub Ont; Polar Ice Analgesic Gel 2.5%; Polytar AF Shampoo; Pommade Au The Des Bois; Poudre; PrameGel; Prosync Muscle Rub; Pulmoll Menthol - Eucalyptol Pastilles; Pulmoll Pastilles; RICHENNAPHARM GROWMAX Hair care Tonic; Relyyks; Relyyt; Remedy Phytoplex Calazime Protectant; Rhino-vaccin; Rubbex Creme; Rx Act; SINSINPAS Pain Relieving Patch; Salonpas - Pls Top; Salonpas Gel-patch; Salonpas Medicated Plaster; Sarna P; Satogesic; Satohap; Satohap Cool and Hot Pads; Satohap Lidocaine 4% Menthol 1% Pain Relieving Cream; Satohap Pads; Savex Ont; Savex With Paba; Savex With Sunscreen Ont; Scalpicin Anti-dandruff Anti-itch Liquid; Sinsin Mulpas; Sinsinpap Cool; Sinsinpas Arex Instant Pain Relief (not for Sale); Sinsinpas Arex Instant Pain Relief Small; Sinsinpas Arexgel; Sinsinpas Arexlotion; Sinsinpas Hot; Sooth X Creme - 1.25%; Soothing Ice Rub; Soothing Ice Rub Analgesic Gel; Soothing Menthol Lip Care; Sore Throat Lozenges Menthol Flavour; Sorgon; Sport Cold - Gel - 2%; Sport Rub - Cream; Strepsils Cherry; Strepsils Cool; Strepsils Extra Black Cherry; Strepsils Sore Throat Blocked Nose; Sucrets Cherry Vapour Action Loz; Sucrets Complete; Sucrets Complete Sore Throat, Cough and Irritation; Sucrets Honey Lemon Vapour Action Loz; Sun Burn Relief Cream; Suppress Ointment; TIGER Balm PAIN RELIEVING HYDROGEL; Tact; Tact Cool Jelly; Thera Patch; Therapatch Vapor - Chest; Therapatch Vapour - Nose & Chin; Therapeutic Heat Lotion; Therapeutic Soothing Ice Gel; Thermo Rub Ont; Thuna Balsam Salve Ont; Thunas Salve for Rheumatic Pains; Tiger Balm Pain Relieving Hydrogel; Tiger Balm Pain Relieving Hydrogel Large; Tokuhon Medicated Plaster; Total Arthritis; Tpr20; Triaminic Night Time Rub; Triaminic Vapour Patch; Triumph Daily Md; Ultra Strength Heat Rub; Valda Pastilles; Valda Pastilles Lemon Flavoured; Vaporisateur Medicamente; Vaporizing Colds Rub - Ont; Vapourizing Chest Rub; Vaseline Brand Lip Therapy Medicated Tube; Vicks Blue Throat Drops 0.3%; Vicks Blue Throat Drops Loz 0.307%; Vicks Vaposyrup Liq 0.125%; Watkins Analgesic Balm; Welby Medicated Relief Patch; White Flower Ointment; Wrigley's Alpine; Wrigley's Alpine Cherry; X-seb T Plus Conditioning Shampoo; X-tar Shampoo; Yakkongmo hair serum tonic; Yumaki Original Mint Tooth; Z-plus Shampoo; Zilactin-lip (regular and Cherry Flavour); bB Medicated Pain Relieving Oil; balsam peru oil PainAway with natural peppermint and Balsam Peru

$$$$
