
  Mrv1909 04022122312D          

155160  0  0  1  0            999 V2000
    0.6937   -1.6851    0.0000 C   0  0  0  0  0  0  0  0  0  0  0  0
    1.4075   -2.0816    0.0000 C   0  0  2  0  0  0  0  0  0  0  0  0
    0.6937   -0.8525    0.0000 O   0  0  0  0  0  0  0  0  0  0  0  0
    2.1211   -1.6851    0.0000 C   0  0  0  0  0  0  0  0  0  0  0  0
    1.4075   -2.9142    0.0000 N   0  0  0  0  0  0  0  0  0  0  0  0
    2.1211   -0.8525    0.0000 C   0  0  0  0  0  0  0  0  0  0  0  0
    2.8349   -0.4558    0.0000 C   0  0  0  0  0  0  0  0  0  0  0  0
    1.4075   -0.4558    0.0000 C   0  0  0  0  0  0  0  0  0  0  0  0
   -0.0198   -2.0816    0.0000 O   0  0  0  0  0  0  0  0  0  0  0  0
    0.6937   -3.3305    0.0000 C   0  0  0  0  0  0  0  0  0  0  0  0
   -0.0198   -2.9142    0.0000 O   0  0  0  0  0  0  0  0  0  0  0  0
    0.6937   -4.1432    0.0000 C   0  0  2  0  0  0  0  0  0  0  0  0
   -0.0198   -4.5596    0.0000 C   0  0  0  0  0  0  0  0  0  0  0  0
    1.4075   -4.5596    0.0000 N   0  0  0  0  0  0  0  0  0  0  0  0
   -0.7334   -4.1432    0.0000 C   0  0  0  0  0  0  0  0  0  0  0  0
   -1.4472   -4.5596    0.0000 C   0  0  0  0  0  0  0  0  0  0  0  0
   -0.7334   -3.3305    0.0000 C   0  0  0  0  0  0  0  0  0  0  0  0
   -1.4472   -2.9142    0.0000 C   0  0  0  0  0  0  0  0  0  0  0  0
   -2.1410   -3.3305    0.0000 C   0  0  0  0  0  0  0  0  0  0  0  0
   -2.1410   -4.1432    0.0000 C   0  0  0  0  0  0  0  0  0  0  0  0
   -2.8547   -2.9142    0.0000 O   0  0  0  0  0  0  0  0  0  0  0  0
    3.5485   -6.6015    0.0000 C   0  0  0  0  0  0  0  0  0  0  0  0
    2.1211   -4.1432    0.0000 C   0  0  0  0  0  0  0  0  0  0  0  0
    2.8349   -7.0178    0.0000 O   0  0  0  0  0  0  0  0  0  0  0  0
    3.5485   -5.7886    0.0000 C   0  0  0  0  0  0  0  0  0  0  0  0
    2.1211   -3.3305    0.0000 O   0  0  0  0  0  0  0  0  0  0  0  0
    2.8349   -5.3724    0.0000 C   0  0  0  0  0  0  0  0  0  0  0  0
    2.8349   -4.5596    0.0000 C   0  0  2  0  0  0  0  0  0  0  0  0
    4.2424   -7.0178    0.0000 O   0  0  0  0  0  0  0  0  0  0  0  0
    3.5485   -4.1432    0.0000 N   0  0  0  0  0  0  0  0  0  0  0  0
    7.0970   -4.5596    0.0000 C   0  0  0  0  0  0  0  0  0  0  0  0
    4.2424   -4.5596    0.0000 C   0  0  0  0  0  0  0  0  0  0  0  0
    7.0970   -5.3724    0.0000 O   0  0  0  0  0  0  0  0  0  0  0  0
    6.3834   -4.1432    0.0000 C   0  0  0  0  0  0  0  0  0  0  0  0
    4.2424   -5.3724    0.0000 O   0  0  0  0  0  0  0  0  0  0  0  0
    5.6697   -4.5596    0.0000 C   0  0  0  0  0  0  0  0  0  0  0  0
    4.9560   -4.1432    0.0000 C   0  0  2  0  0  0  0  0  0  0  0  0
    7.8107   -4.1432    0.0000 O   0  0  0  0  0  0  0  0  0  0  0  0
    4.9560   -3.3305    0.0000 N   0  0  0  0  0  0  0  0  0  0  0  0
    4.2424   -2.9142    0.0000 C   0  0  0  0  0  0  0  0  0  0  0  0
    3.5485   -3.3305    0.0000 O   0  0  0  0  0  0  0  0  0  0  0  0
    4.2424   -2.0816    0.0000 C   0  0  1  0  0  0  0  0  0  0  0  0
    4.9164   -1.6058    0.0000 N   0  0  0  0  0  0  0  0  0  0  0  0
    4.6587   -0.8326    0.0000 C   0  0  0  0  0  0  0  0  0  0  0  0
    3.8459   -0.8326    0.0000 C   0  0  0  0  0  0  0  0  0  0  0  0
    3.5882   -1.6058    0.0000 C   0  0  0  0  0  0  0  0  0  0  0  0
    5.6500   -2.0022    0.0000 C   0  0  0  0  0  0  0  0  0  0  0  0
    6.3635   -1.6058    0.0000 C   0  0  1  0  0  0  0  0  0  0  0  0
    5.6500   -2.8349    0.0000 O   0  0  0  0  0  0  0  0  0  0  0  0
    6.3635   -0.7732    0.0000 N   0  0  0  0  0  0  0  0  0  0  0  0
    7.0574   -2.0022    0.0000 C   0  0  2  0  0  0  0  0  0  0  0  0
    7.7710   -1.6058    0.0000 C   0  0  0  0  0  0  0  0  0  0  0  0
    7.0574   -2.8349    0.0000 C   0  0  0  0  0  0  0  0  0  0  0  0
    8.4849   -2.0022    0.0000 C   0  0  0  0  0  0  0  0  0  0  0  0
    3.5089    0.8723    0.0000 C   0  0  0  0  0  0  0  0  0  0  0  0
    5.6500   -0.3568    0.0000 C   0  0  0  0  0  0  0  0  0  0  0  0
    3.5089    1.6851    0.0000 O   0  0  0  0  0  0  0  0  0  0  0  0
    4.2225    0.4559    0.0000 C   0  0  0  0  0  0  0  0  0  0  0  0
    4.9362   -0.7732    0.0000 O   0  0  0  0  0  0  0  0  0  0  0  0
    4.9362    0.8723    0.0000 C   0  0  0  0  0  0  0  0  0  0  0  0
    5.6500    0.4559    0.0000 C   0  0  2  0  0  0  0  0  0  0  0  0
    2.7951    0.4559    0.0000 O   0  0  0  0  0  0  0  0  0  0  0  0
    6.3635    0.8723    0.0000 N   0  0  0  0  0  0  0  0  0  0  0  0
    9.1985    1.6851    0.0000 C   0  0  0  0  0  0  0  0  0  0  0  0
    6.3635    1.6851    0.0000 C   0  0  0  0  0  0  0  0  0  0  0  0
    9.1985    0.8723    0.0000 O   0  0  0  0  0  0  0  0  0  0  0  0
    8.4849    2.1014    0.0000 C   0  0  0  0  0  0  0  0  0  0  0  0
    5.6500    2.1014    0.0000 O   0  0  0  0  0  0  0  0  0  0  0  0
    7.7710    1.6851    0.0000 C   0  0  0  0  0  0  0  0  0  0  0  0
    7.0574    2.1014    0.0000 C   0  0  2  0  0  0  0  0  0  0  0  0
    9.9121    2.1014    0.0000 O   0  0  0  0  0  0  0  0  0  0  0  0
    7.0574    2.9141    0.0000 N   0  0  0  0  0  0  0  0  0  0  0  0
    7.7710    3.3304    0.0000 C   0  0  0  0  0  0  0  0  0  0  0  0
    7.7710    4.1432    0.0000 C   0  0  2  0  0  0  0  0  0  0  0  0
    8.4849    2.9141    0.0000 O   0  0  0  0  0  0  0  0  0  0  0  0
    8.4849    4.5595    0.0000 C   0  0  0  0  0  0  0  0  0  0  0  0
    7.0574    4.5595    0.0000 N   0  0  0  0  0  0  0  0  0  0  0  0
    8.4849    5.3923    0.0000 C   0  0  0  0  0  0  0  0  0  0  0  0
    9.1985    5.7887    0.0000 C   0  0  0  0  0  0  0  0  0  0  0  0
    7.7710    5.7887    0.0000 C   0  0  0  0  0  0  0  0  0  0  0  0
    7.7710    6.6213    0.0000 C   0  0  0  0  0  0  0  0  0  0  0  0
    9.1985    6.6213    0.0000 C   0  0  0  0  0  0  0  0  0  0  0  0
    8.4849    7.0178    0.0000 C   0  0  0  0  0  0  0  0  0  0  0  0
    6.3635    6.6213    0.0000 O   0  0  0  0  0  0  0  0  0  0  0  0
    4.9362    4.1432    0.0000 N   0  0  0  0  0  0  0  0  0  0  0  0
    7.0574    5.3923    0.0000 O   0  0  0  0  0  0  0  0  0  0  0  0
    6.3635    3.3304    0.0000 O   0  0  0  0  0  0  0  0  0  0  0  0
    5.6500    4.5595    0.0000 C   0  0  2  0  0  0  0  0  0  0  0  0
    6.3635    5.7887    0.0000 C   0  0  0  0  0  0  0  0  0  0  0  0
    6.3635    4.1432    0.0000 C   0  0  0  0  0  0  0  0  0  0  0  0
    5.6500    5.3923    0.0000 C   0  0  0  0  0  0  0  0  0  0  0  0
    4.2225    4.5595    0.0000 C   0  0  0  0  0  0  0  0  0  0  0  0
    4.2225    5.3923    0.0000 O   0  0  0  0  0  0  0  0  0  0  0  0
    2.7951    4.5595    0.0000 N   0  0  0  0  0  0  0  0  0  0  0  0
    3.5089    4.1432    0.0000 C   0  0  0  0  0  0  0  0  0  0  0  0
    0.6739    4.1432    0.0000 C   0  0  0  0  0  0  0  0  0  0  0  0
    2.0815    4.1432    0.0000 C   0  0  0  0  0  0  0  0  0  0  0  0
    0.6739    3.3304    0.0000 C   0  0  0  0  0  0  0  0  0  0  0  0
    1.3678    4.5595    0.0000 C   0  0  1  0  0  0  0  0  0  0  0  0
    2.0815    3.3304    0.0000 O   0  0  0  0  0  0  0  0  0  0  0  0
    1.3678    2.9141    0.0000 O   0  0  0  0  0  0  0  0  0  0  0  0
   -0.0397    2.9141    0.0000 N   0  0  0  0  0  0  0  0  0  0  0  0
    1.3678    5.3923    0.0000 N   0  0  0  0  0  0  0  0  0  0  0  0
    0.6739    5.7887    0.0000 C   0  0  0  0  0  0  0  0  0  0  0  0
    0.6739    6.6213    0.0000 O   0  0  0  0  0  0  0  0  0  0  0  0
   -0.7532    5.7887    0.0000 N   0  0  0  0  0  0  0  0  0  0  0  0
   -0.0397    5.3923    0.0000 C   0  0  0  0  0  0  0  0  0  0  0  0
   -1.4669    5.3923    0.0000 C   0  0  0  0  0  0  0  0  0  0  0  0
   -1.4669    4.5595    0.0000 O   0  0  0  0  0  0  0  0  0  0  0  0
   -2.8943    5.3923    0.0000 N   0  0  0  0  0  0  0  0  0  0  0  0
   -2.1807    5.7887    0.0000 C   0  0  0  0  0  0  0  0  0  0  0  0
   -2.8943    4.5595    0.0000 C   0  0  0  0  0  0  0  0  0  0  0  0
   -2.1807    4.1432    0.0000 O   0  0  0  0  0  0  0  0  0  0  0  0
   -3.6080    3.3304    0.0000 N   0  0  0  0  0  0  0  0  0  0  0  0
   -3.6080    4.1432    0.0000 C   0  0  0  0  0  0  0  0  0  0  0  0
   -4.3217    2.9141    0.0000 C   0  0  0  0  0  0  0  0  0  0  0  0
   -5.0155    3.3304    0.0000 O   0  0  0  0  0  0  0  0  0  0  0  0
   -5.0155    1.6851    0.0000 N   0  0  0  0  0  0  0  0  0  0  0  0
   -4.3217    2.1014    0.0000 C   0  0  0  0  0  0  0  0  0  0  0  0
   -5.0155    0.8723    0.0000 C   0  0  0  0  0  0  0  0  0  0  0  0
   -4.3217    0.4559    0.0000 O   0  0  0  0  0  0  0  0  0  0  0  0
   -5.7292    0.4559    0.0000 C   0  0  1  0  0  0  0  0  0  0  0  0
   -5.7292   -0.3766    0.0000 N   0  0  0  0  0  0  0  0  0  0  0  0
   -6.5222   -0.6145    0.0000 C   0  0  0  0  0  0  0  0  0  0  0  0
   -6.9979    0.0397    0.0000 C   0  0  0  0  0  0  0  0  0  0  0  0
   -6.5222    0.7136    0.0000 C   0  0  0  0  0  0  0  0  0  0  0  0
   -2.1410   -0.7334    0.0000 C   0  0  0  0  0  0  0  0  0  0  0  0
   -4.9759   -0.7334    0.0000 C   0  0  0  0  0  0  0  0  0  0  0  0
   -1.4273   -0.3172    0.0000 N   0  0  0  0  0  0  0  0  0  0  0  0
   -4.2821   -0.3172    0.0000 O   0  0  0  0  0  0  0  0  0  0  0  0
   -2.1410   -1.5463    0.0000 N   0  0  0  0  0  0  0  0  0  0  0  0
   -4.9759   -1.5463    0.0000 C   0  0  1  0  0  0  0  0  0  0  0  0
   -2.8547   -0.3172    0.0000 N   0  0  0  0  0  0  0  0  0  0  0  0
   -5.6896   -1.9626    0.0000 N   0  0  0  0  0  0  0  0  0  0  0  0
   -2.8547   -1.9626    0.0000 C   0  0  0  0  0  0  0  0  0  0  0  0
   -4.2821   -1.9626    0.0000 C   0  0  0  0  0  0  0  0  0  0  0  0
   -3.5683   -1.5463    0.0000 C   0  0  0  0  0  0  0  0  0  0  0  0
   -5.6896   -2.7951    0.0000 C   0  0  0  0  0  0  0  0  0  0  0  0
   -4.9759   -3.1917    0.0000 O   0  0  0  0  0  0  0  0  0  0  0  0
   -6.4033   -3.1917    0.0000 C   0  0  1  0  0  0  0  0  0  0  0  0
   -7.0574   -2.7159    0.0000 N   0  0  0  0  0  0  0  0  0  0  0  0
   -7.7315   -3.1917    0.0000 C   0  0  0  0  0  0  0  0  0  0  0  0
   -7.4738   -3.9648    0.0000 C   0  0  0  0  0  0  0  0  0  0  0  0
   -6.6610   -3.9648    0.0000 C   0  0  0  0  0  0  0  0  0  0  0  0
   -7.0574   -1.8833    0.0000 C   0  0  0  0  0  0  0  0  0  0  0  0
   -7.7711   -1.4669    0.0000 C   0  0  1  0  0  0  0  0  0  0  0  0
   -6.3636   -1.4669    0.0000 O   0  0  0  0  0  0  0  0  0  0  0  0
   -7.7711   -0.6542    0.0000 C   0  0  0  0  0  0  0  0  0  0  0  0
   -8.4848   -1.8833    0.0000 N   0  0  0  0  0  0  0  0  0  0  0  0
   -8.4848   -0.2378    0.0000 C   0  0  0  0  0  0  0  0  0  0  0  0
   -8.4848    0.5749    0.0000 C   0  0  0  0  0  0  0  0  0  0  0  0
   -9.1986   -0.6542    0.0000 C   0  0  0  0  0  0  0  0  0  0  0  0
   -9.9121   -0.2378    0.0000 C   0  0  0  0  0  0  0  0  0  0  0  0
   -9.1986    0.9911    0.0000 C   0  0  0  0  0  0  0  0  0  0  0  0
   -9.9121    0.5749    0.0000 C   0  0  0  0  0  0  0  0  0  0  0  0
  2  1  1  0  0  0  0
  3  1  2  0  0  0  0
  9  1  1  0  0  0  0
  4  2  1  0  0  0  0
  2  5  1  6  0  0  0
  6  4  1  0  0  0  0
 10  5  1  0  0  0  0
  7  6  1  0  0  0  0
  8  6  1  0  0  0  0
 11 10  2  0  0  0  0
 12 10  1  0  0  0  0
 13 12  1  0  0  0  0
 12 14  1  1  0  0  0
 15 13  1  0  0  0  0
 23 14  1  0  0  0  0
 16 15  2  0  0  0  0
 17 15  1  0  0  0  0
 20 16  1  0  0  0  0
 18 17  2  0  0  0  0
 19 18  1  0  0  0  0
 20 19  2  0  0  0  0
 21 19  1  0  0  0  0
 24 22  2  0  0  0  0
 25 22  1  0  0  0  0
 29 22  1  0  0  0  0
 28 23  1  0  0  0  0
 26 23  2  0  0  0  0
 27 25  1  0  0  0  0
 28 27  1  0  0  0  0
 28 30  1  1  0  0  0
 32 30  1  0  0  0  0
 33 31  2  0  0  0  0
 34 31  1  0  0  0  0
 38 31  1  0  0  0  0
 37 32  1  0  0  0  0
 35 32  2  0  0  0  0
 36 34  1  0  0  0  0
 37 36  1  0  0  0  0
 37 39  1  1  0  0  0
 40 39  1  0  0  0  0
 41 40  2  0  0  0  0
 42 40  1  0  0  0  0
 42 43  1  6  0  0  0
 46 42  1  0  0  0  0
 44 43  1  0  0  0  0
 47 43  1  0  0  0  0
 45 44  1  0  0  0  0
 46 45  1  0  0  0  0
 48 47  1  0  0  0  0
 49 47  2  0  0  0  0
 48 50  1  1  0  0  0
 51 48  1  0  0  0  0
 56 50  1  0  0  0  0
 52 51  1  0  0  0  0
 51 53  1  6  0  0  0
 54 52  1  0  0  0  0
 57 55  2  0  0  0  0
 58 55  1  0  0  0  0
 62 55  1  0  0  0  0
 61 56  1  0  0  0  0
 59 56  2  0  0  0  0
 60 58  1  0  0  0  0
 61 60  1  0  0  0  0
 61 63  1  6  0  0  0
 65 63  1  0  0  0  0
 66 64  2  0  0  0  0
 67 64  1  0  0  0  0
 71 64  1  0  0  0  0
 70 65  1  0  0  0  0
 68 65  2  0  0  0  0
 69 67  1  0  0  0  0
 70 69  1  0  0  0  0
 70 72  1  1  0  0  0
 73 72  1  0  0  0  0
 74 73  1  0  0  0  0
 75 73  2  0  0  0  0
 76 74  1  0  0  0  0
 74 77  1  1  0  0  0
 78 76  1  0  0  0  0
 90 77  1  0  0  0  0
 79 78  2  0  0  0  0
 80 78  1  0  0  0  0
 82 79  1  0  0  0  0
 81 80  2  0  0  0  0
 83 81  1  0  0  0  0
 83 82  2  0  0  0  0
 89 84  1  0  0  0  0
 88 85  1  1  0  0  0
 92 85  1  0  0  0  0
 89 86  2  0  0  0  0
 90 87  2  0  0  0  0
 90 88  1  0  0  0  0
 91 88  1  0  0  0  0
 91 89  1  0  0  0  0
 93 92  2  0  0  0  0
 95 92  1  0  0  0  0
 95 94  1  0  0  0  0
 97 94  1  0  0  0  0
 98 96  1  0  0  0  0
 99 96  1  0  0  0  0
 99 97  1  0  0  0  0
100 97  2  0  0  0  0
101 98  2  0  0  0  0
102 98  1  0  0  0  0
 99103  1  6  0  0  0
104103  1  0  0  0  0
105104  2  0  0  0  0
107104  1  0  0  0  0
107106  1  0  0  0  0
108106  1  0  0  0  0
109108  2  0  0  0  0
111108  1  0  0  0  0
111110  1  0  0  0  0
112110  1  0  0  0  0
113112  2  0  0  0  0
115112  1  0  0  0  0
115114  1  0  0  0  0
116114  1  0  0  0  0
117116  2  0  0  0  0
119116  1  0  0  0  0
119118  1  0  0  0  0
120118  1  0  0  0  0
121120  2  0  0  0  0
122120  1  0  0  0  0
122123  1  1  0  0  0
126122  1  0  0  0  0
124123  1  0  0  0  0
128123  1  0  0  0  0
125124  1  0  0  0  0
126125  1  0  0  0  0
129127  2  0  0  0  0
131127  1  0  0  0  0
133127  1  0  0  0  0
132128  1  0  0  0  0
130128  2  0  0  0  0
135131  1  0  0  0  0
136132  1  0  0  0  0
132134  1  6  0  0  0
138134  1  0  0  0  0
137135  1  0  0  0  0
137136  1  0  0  0  0
139138  2  0  0  0  0
140138  1  0  0  0  0
140141  1  6  0  0  0
144140  1  0  0  0  0
142141  1  0  0  0  0
145141  1  0  0  0  0
143142  1  0  0  0  0
144143  1  0  0  0  0
146145  1  0  0  0  0
147145  2  0  0  0  0
148146  1  0  0  0  0
146149  1  6  0  0  0
150148  1  0  0  0  0
151150  2  0  0  0  0
152150  1  0  0  0  0
154151  1  0  0  0  0
153152  2  0  0  0  0
155153  1  0  0  0  0
155154  2  0  0  0  0
M  END
> <DATABASE_ID>
DB00006

> <DATABASE_NAME>
drugbank

> <SMILES>
CC[C@H](C)[C@H](NC(=O)[C@H](CCC(O)=O)NC(=O)[C@H](CCC(O)=O)NC(=O)[C@H](CC1=CC=CC=C1)NC(=O)[C@H](CC(O)=O)NC(=O)CNC(=O)[C@H](CC(N)=O)NC(=O)CNC(=O)CNC(=O)CNC(=O)CNC(=O)[C@@H]1CCCN1C(=O)[C@H](CCCNC(N)=N)NC(=O)[C@@H]1CCCN1C(=O)[C@H](N)CC1=CC=CC=C1)C(=O)N1CCC[C@H]1C(=O)N[C@@H](CCC(O)=O)C(=O)N[C@@H](CCC(O)=O)C(=O)N[C@@H](CC1=CC=C(O)C=C1)C(=O)N[C@@H](CC(C)C)C(O)=O

> <INCHI_IDENTIFIER>
InChI=1S/C98H138N24O33/c1-5-52(4)82(96(153)122-39-15-23-70(122)92(149)114-60(30-34-79(134)135)85(142)111-59(29-33-78(132)133)86(143)116-64(43-55-24-26-56(123)27-25-55)89(146)118-67(97(154)155)40-51(2)3)119-87(144)61(31-35-80(136)137)112-84(141)58(28-32-77(130)131)113-88(145)63(42-54-18-10-7-11-19-54)117-90(147)66(45-81(138)139)110-76(129)50-107-83(140)65(44-71(100)124)109-75(128)49-106-73(126)47-104-72(125)46-105-74(127)48-108-91(148)68-21-13-38-121(68)95(152)62(20-12-36-103-98(101)102)115-93(150)69-22-14-37-120(69)94(151)57(99)41-53-16-8-6-9-17-53/h6-11,16-19,24-27,51-52,57-70,82,123H,5,12-15,20-23,28-50,99H2,1-4H3,(H2,100,124)(H,104,125)(H,105,127)(H,106,126)(H,107,140)(H,108,148)(H,109,128)(H,110,129)(H,111,142)(H,112,141)(H,113,145)(H,114,149)(H,115,150)(H,116,143)(H,117,147)(H,118,146)(H,119,144)(H,130,131)(H,132,133)(H,134,135)(H,136,137)(H,138,139)(H,154,155)(H4,101,102,103)/t52-,57+,58-,59-,60-,61-,62-,63-,64-,65-,66-,67-,68-,69-,70-,82-/m0/s1

> <INCHI_KEY>
OIRCOABEOLEUMC-GEJPAHFPSA-N

> <FORMULA>
C98H138N24O33

> <MOLECULAR_WEIGHT>
2180.2853

> <EXACT_MASS>
2178.985813062

> <JCHEM_ACCEPTOR_COUNT>
37

> <JCHEM_ATOM_COUNT>
293

> <JCHEM_AVERAGE_NEUTRAL_MICROSPECIES_CHARGE>
2.1121161999710294

> <JCHEM_AVERAGE_POLARIZABILITY>
218.5430307997439

> <JCHEM_BIOAVAILABILITY>
0

> <JCHEM_DONOR_COUNT>
28

> <JCHEM_FORMAL_CHARGE>
0

> <JCHEM_GHOSE_FILTER>
0

> <JCHEM_IUPAC>
(4S)-4-[(2S)-2-[(2S)-2-[(2S)-2-{2-[(2S)-2-(2-{2-[2-(2-{[(2S)-1-[(2S)-2-{[(2S)-1-[(2R)-2-amino-3-phenylpropanoyl]pyrrolidin-2-yl]formamido}-5-carbamimidamidopentanoyl]pyrrolidin-2-yl]formamido}acetamido)acetamido]acetamido}acetamido)-3-carbamoylpropanamido]acetamido}-3-carboxypropanamido]-3-phenylpropanamido]-4-carboxybutanamido]-4-{[(2S,3S)-1-[(2S)-2-{[(1S)-3-carboxy-1-{[(1S)-3-carboxy-1-{[(1S)-1-{[(1S)-1-carboxy-3-methylbutyl]carbamoyl}-2-(4-hydroxyphenyl)ethyl]carbamoyl}propyl]carbamoyl}propyl]carbamoyl}pyrrolidin-1-yl]-3-methyl-1-oxopentan-2-yl]carbamoyl}butanoic acid

> <ALOGPS_LOGP>
-0.76

> <JCHEM_LOGP>
-14.34070875787397

> <ALOGPS_LOGS>
-4.67

> <JCHEM_MDDR_LIKE_RULE>
1

> <JCHEM_NEUTRAL_CHARGE>
-4

> <JCHEM_NUMBER_OF_RINGS>
6

> <JCHEM_PHYSIOLOGICAL_CHARGE>
-4

> <JCHEM_PKA>
3.167210641107685

> <JCHEM_PKA_STRONGEST_ACIDIC>
2.7845405230341966

> <JCHEM_PKA_STRONGEST_BASIC>
11.878406919141504

> <JCHEM_POLAR_SURFACE_AREA>
901.5700000000002

> <JCHEM_REFRACTIVITY>
543.3342000000004

> <JCHEM_ROTATABLE_BOND_COUNT>
66

> <JCHEM_RULE_OF_FIVE>
0

> <ALOGPS_SOLUBILITY>
4.64e-02 g/l

> <JCHEM_TRADITIONAL_IUPAC>
bivalirudin

> <JCHEM_VEBER_RULE>
0

> <DRUGBANK_ID>
DB00006

> <SECONDARY_ACCESSION_NUMBERS>
BTD00076; EXPT03302; BIOD00076; DB02351

> <DRUG_GROUPS>
approved; investigational

> <GENERIC_NAME>
Bivalirudin

> <SYNONYMS>
Bivalirudin; Bivalirudina; Bivalirudinum

> <PRODUCTS>
Angiomax; Angiomax RTU; Angiox; Bivalirudin; Bivalirudin Injection; Bivalirudin RTU; Bivalirudin for Injection; Bivalirudin in 0.9% Sodium Chloride

> <INTERNATIONAL_BRANDS>
Angiox; Hirulog

$$$$
