
  Mrv0541 02241201182D          

 16 15  0  0  1  0            999 V2000
    9.2913   -6.3422    0.0000 C   0  0  0  0  0  0  0  0  0  0  0  0
   10.0057   -6.7547    0.0000 C   0  0  0  0  0  0  0  0  0  0  0  0
   10.7202   -6.3422    0.0000 C   0  0  0  0  0  0  0  0  0  0  0  0
   11.4347   -6.7547    0.0000 C   0  0  0  0  0  0  0  0  0  0  0  0
   12.1491   -6.3422    0.0000 C   0  0  0  0  0  0  0  0  0  0  0  0
   12.8636   -6.7547    0.0000 C   0  0  0  0  0  0  0  0  0  0  0  0
   13.5781   -6.3422    0.0000 C   0  0  2  0  0  0  0  0  0  0  0  0
   14.2926   -6.7547    0.0000 C   0  0  0  0  0  0  0  0  0  0  0  0
   15.0071   -6.3422    0.0000 C   0  0  0  0  0  0  0  0  0  0  0  0
   15.7215   -6.7547    0.0000 O   0  0  0  0  0  0  0  0  0  0  0  0
   15.0071   -5.5172    0.0000 O   0  0  0  0  0  0  0  0  0  0  0  0
    8.5768   -6.7547    0.0000 C   0  0  0  0  0  0  0  0  0  0  0  0
    7.8623   -6.3422    0.0000 C   0  0  0  0  0  0  0  0  0  0  0  0
    7.1478   -6.7547    0.0000 C   0  0  0  0  0  0  0  0  0  0  0  0
   12.9209   -5.6151    0.0000 O   0  0  0  0  0  0  0  0  0  0  0  0
   14.1649   -5.5653    0.0000 H   0  0  0  0  0  0  0  0  0  0  0  0
  2  1  1  0  0  0  0
  3  2  1  0  0  0  0
  4  3  1  0  0  0  0
  5  4  1  0  0  0  0
  6  5  1  0  0  0  0
  7  6  1  0  0  0  0
  8  7  1  0  0  0  0
  9  8  1  0  0  0  0
 10  9  2  0  0  0  0
 11  9  1  0  0  0  0
  1 12  1  0  0  0  0
 12 13  1  0  0  0  0
 13 14  1  0  0  0  0
  7 15  1  1  0  0  0
  7 16  1  6  0  0  0
M  END
> <DATABASE_ID>
DB07930

> <DATABASE_NAME>
drugbank

> <SMILES>
[H][C@@](O)(CCCCCCCCC)CC(O)=O

> <INCHI_IDENTIFIER>
InChI=1S/C12H24O3/c1-2-3-4-5-6-7-8-9-11(13)10-12(14)15/h11,13H,2-10H2,1H3,(H,14,15)/t11-/m1/s1

> <INCHI_KEY>
MUCMKTPAZLSKTL-LLVKDONJSA-N

> <FORMULA>
C12H24O3

> <MOLECULAR_WEIGHT>
216.3172

> <EXACT_MASS>
216.172544634

> <JCHEM_ACCEPTOR_COUNT>
3

> <JCHEM_ATOM_COUNT>
39

> <JCHEM_AVERAGE_NEUTRAL_MICROSPECIES_CHARGE>
-0.9953246464271857

> <JCHEM_AVERAGE_POLARIZABILITY>
26.58714203013441

> <JCHEM_BIOAVAILABILITY>
1

> <JCHEM_DONOR_COUNT>
2

> <JCHEM_FORMAL_CHARGE>
0

> <JCHEM_GHOSE_FILTER>
1

> <JCHEM_IUPAC>
(3R)-3-hydroxydodecanoic acid

> <ALOGPS_LOGP>
3.63

> <JCHEM_LOGP>
3.2474970506666665

> <ALOGPS_LOGS>
-2.80

> <JCHEM_MDDR_LIKE_RULE>
0

> <JCHEM_NEUTRAL_CHARGE>
-1

> <JCHEM_NUMBER_OF_RINGS>
0

> <JCHEM_PHYSIOLOGICAL_CHARGE>
-1

> <JCHEM_PKA>
15.288498288670866

> <JCHEM_PKA_STRONGEST_ACIDIC>
4.671850167040888

> <JCHEM_PKA_STRONGEST_BASIC>
-2.798587426318786

> <JCHEM_POLAR_SURFACE_AREA>
57.53

> <JCHEM_REFRACTIVITY>
60.1951

> <JCHEM_ROTATABLE_BOND_COUNT>
10

> <JCHEM_RULE_OF_FIVE>
1

> <ALOGPS_SOLUBILITY>
3.45e-01 g/l

> <JCHEM_TRADITIONAL_IUPAC>
biotin

> <JCHEM_VEBER_RULE>
0

> <DRUGBANK_ID>
DB07930

> <DRUG_GROUPS>
experimental

> <GENERIC_NAME>
(3R)-3-HYDROXYDODECANOIC ACID

$$$$
