
  Mrv0541 02231217382D          

 17 18  0  0  1  0            999 V2000
    0.4323   -2.0127    0.0000 C   0  0  0  0  0  0  0  0  0  0  0  0
    0.7145   -1.2375    0.0000 C   0  0  1  0  0  0  0  0  0  0  0  0
    0.7145   -0.4125    0.0000 O   0  0  0  0  0  0  0  0  0  0  0  0
    1.4289    0.0000    0.0000 C   0  0  0  0  0  0  0  0  0  0  0  0
    2.1434   -0.4125    0.0000 C   0  0  1  0  0  0  0  0  0  0  0  0
    2.8579    0.0000    0.0000 O   0  0  0  0  0  0  0  0  0  0  0  0
    3.5724   -0.4125    0.0000 C   0  0  1  0  0  0  0  0  0  0  0  0
    4.2868    0.0000    0.0000 O   0  0  0  0  0  0  0  0  0  0  0  0
    3.5724   -1.2375    0.0000 C   0  0  2  0  0  0  0  0  0  0  0  0
    4.2868   -1.6500    0.0000 O   0  0  0  0  0  0  0  0  0  0  0  0
    2.8579   -1.6500    0.0000 C   0  0  1  0  0  0  0  0  0  0  0  0
    2.8579   -2.4750    0.0000 O   0  0  0  0  0  0  0  0  0  0  0  0
    2.1434   -1.2375    0.0000 C   0  0  1  0  0  0  0  0  0  0  0  0
    1.4289   -1.6500    0.0000 O   0  0  0  0  0  0  0  0  0  0  0  0
   -0.0980   -1.0942    0.0000 C   0  0  0  0  0  0  0  0  0  0  0  0
   -0.6283   -1.7262    0.0000 O   0  0  0  0  0  0  0  0  0  0  0  0
   -0.3802   -0.3190    0.0000 O   0  0  0  0  0  0  0  0  0  0  0  0
  2  1  1  1  0  0  0
  2  3  1  0  0  0  0
  3  4  1  0  0  0  0
  4  5  1  0  0  0  0
  5  6  1  1  0  0  0
  6  7  1  0  0  0  0
  7  8  1  1  0  0  0
  7  9  1  0  0  0  0
  9 10  1  6  0  0  0
  9 11  1  0  0  0  0
 11 12  1  1  0  0  0
 11 13  1  0  0  0  0
  5 13  1  0  0  0  0
 13 14  1  1  0  0  0
  2 14  1  0  0  0  0
  2 15  1  6  0  0  0
 15 16  1  0  0  0  0
 15 17  2  0  0  0  0
M  END
> <DATABASE_ID>
DB04386

> <DATABASE_NAME>
drugbank

> <SMILES>
C[C@]1(OC[C@H]2O[C@@H](O)[C@H](O)[C@@H](O)[C@H]2O1)C(O)=O

> <INCHI_IDENTIFIER>
InChI=1S/C9H14O8/c1-9(8(13)14)15-2-3-6(17-9)4(10)5(11)7(12)16-3/h3-7,10-12H,2H2,1H3,(H,13,14)/t3-,4-,5-,6+,7-,9-/m1/s1

> <INCHI_KEY>
QVVFNJUJKXWFAU-CECBSOHTSA-N

> <FORMULA>
C9H14O8

> <MOLECULAR_WEIGHT>
250.2027

> <EXACT_MASS>
250.068867424

> <JCHEM_ACCEPTOR_COUNT>
8

> <JCHEM_ATOM_COUNT>
31

> <JCHEM_AVERAGE_NEUTRAL_MICROSPECIES_CHARGE>
-0.999978517163721

> <JCHEM_AVERAGE_POLARIZABILITY>
22.15582353737955

> <JCHEM_BIOAVAILABILITY>
1

> <JCHEM_DONOR_COUNT>
4

> <JCHEM_FORMAL_CHARGE>
0

> <JCHEM_GHOSE_FILTER>
0

> <JCHEM_IUPAC>
(2R,4aR,6R,7R,8R,8aR)-6,7,8-trihydroxy-2-methyl-hexahydro-2H-pyrano[3,2-d][1,3]dioxine-2-carboxylic acid

> <ALOGPS_LOGP>
-2.06

> <JCHEM_LOGP>
-1.4615086143333338

> <ALOGPS_LOGS>
0.28

> <JCHEM_MDDR_LIKE_RULE>
0

> <JCHEM_NEUTRAL_CHARGE>
-1

> <JCHEM_NUMBER_OF_RINGS>
2

> <JCHEM_PHYSIOLOGICAL_CHARGE>
-1

> <JCHEM_PKA>
11.305548607554632

> <JCHEM_PKA_STRONGEST_ACIDIC>
2.860117839192918

> <JCHEM_PKA_STRONGEST_BASIC>
-3.685880130948003

> <JCHEM_POLAR_SURFACE_AREA>
125.68

> <JCHEM_REFRACTIVITY>
49.451

> <JCHEM_ROTATABLE_BOND_COUNT>
1

> <JCHEM_RULE_OF_FIVE>
1

> <ALOGPS_SOLUBILITY>
4.76e+02 g/l

> <JCHEM_TRADITIONAL_IUPAC>
biotin

> <JCHEM_VEBER_RULE>
0

> <DRUGBANK_ID>
DB04386

> <SECONDARY_ACCESSION_NUMBERS>
EXPT00886

> <DRUG_GROUPS>
experimental

> <GENERIC_NAME>
4,6-O-(1-Carboxyethylidene)-Beta-D-Glucose

$$$$
