
  Mrv0541 02231217482D          

 76 76  0  0  1  0            999 V2000
   -3.5187   -2.0159    0.0000 C   0  0  0  0  0  0  0  0  0  0  0  0
   -4.2826   -2.1991    0.0000 O   0  0  0  0  0  0  0  0  0  0  0  0
   -4.9636   -2.5950    0.0000 C   0  0  0  0  0  0  0  0  0  0  0  0
   -5.6899   -2.1933    0.0000 C   0  0  2  0  0  0  0  0  0  0  0  0
   -6.4587   -1.5318    0.0000 N   0  0  0  0  0  0  0  0  0  0  0  0
   -7.3169   -1.5275    0.0000 C   0  0  0  0  0  0  0  0  0  0  0  0
   -6.5702   -0.6757    0.0000 C   0  0  0  0  0  0  0  0  0  0  0  0
   -5.7392   -3.0564    0.0000 C   0  0  0  0  0  0  0  0  0  0  0  0
   -5.2943   -3.7153    0.0000 O   0  0  0  0  0  0  0  0  0  0  0  0
   -6.3979   -3.5508    0.0000 O   0  0  0  0  0  0  0  0  0  0  0  0
   -7.2106   -3.4062    0.0000 C   0  0  2  0  0  0  0  0  0  0  0  0
   -6.9346   -2.6289    0.0000 C   0  0  0  0  0  0  0  0  0  0  0  0
   -6.1234   -2.4793    0.0000 C   0  0  0  0  0  0  0  0  0  0  0  0
   -5.8474   -1.7020    0.0000 C   0  0  0  0  0  0  0  0  0  0  0  0
   -5.0360   -1.5525    0.0000 C   0  0  0  0  0  0  0  0  0  0  0  0
   -4.7601   -0.7751    0.0000 C   0  0  0  0  0  0  0  0  0  0  0  0
   -3.9488   -0.6256    0.0000 C   0  0  0  0  0  0  0  0  0  0  0  0
   -4.1722    0.1926    0.0000 O   0  0  0  0  0  0  0  0  0  0  0  0
   -3.4138   -1.2533    0.0000 O   0  0  0  0  0  0  0  0  0  0  0  0
   -2.6026   -1.1038    0.0000 C   0  0  1  0  0  0  0  0  0  0  0  0
   -2.0674   -1.7315    0.0000 C   0  0  0  0  0  0  0  0  0  0  0  0
   -2.3435   -2.5088    0.0000 C   0  0  0  0  0  0  0  0  0  0  0  0
   -3.1547   -2.6584    0.0000 C   0  0  0  0  0  0  0  0  0  0  0  0
   -3.4308   -3.4357    0.0000 C   0  0  1  0  0  0  0  0  0  0  0  0
   -4.2419   -3.5852    0.0000 C   0  0  0  0  0  0  0  0  0  0  0  0
   -4.5181   -4.3625    0.0000 C   0  0  2  0  0  0  0  0  0  0  0  0
   -4.0806   -5.0858    0.0000 C   0  0  0  0  0  0  0  0  0  0  0  0
   -5.3292   -4.5121    0.0000 C   0  0  0  0  0  0  0  0  0  0  0  0
   -5.6053   -5.2893    0.0000 C   0  0  0  0  0  0  0  0  0  0  0  0
   -6.4165   -5.4389    0.0000 C   0  0  0  0  0  0  0  0  0  0  0  0
   -6.5947   -4.6696    0.0000 C   0  0  0  0  0  0  0  0  0  0  0  0
   -6.6926   -6.2162    0.0000 C   0  0  2  0  0  0  0  0  0  0  0  0
   -7.5038   -6.3658    0.0000 C   0  0  0  0  0  0  0  0  0  0  0  0
   -8.0389   -5.7381    0.0000 C   0  0  0  0  0  0  0  0  0  0  0  0
   -7.7629   -4.9607    0.0000 C   0  0  1  0  0  0  0  0  0  0  0  0
   -7.3426   -4.2891    0.0000 C   0  0  0  0  0  0  0  0  0  0  0  0
   -8.2979   -4.3330    0.0000 C   0  0  1  0  0  0  0  0  0  0  0  0
   -9.1300   -4.4905    0.0000 O   0  0  0  0  0  0  0  0  0  0  0  0
   -8.0219   -3.5558    0.0000 C   0  0  2  0  0  0  0  0  0  0  0  0
   -8.6287   -2.9640    0.0000 C   0  0  0  0  0  0  0  0  0  0  0  0
   -6.3218   -6.9844    0.0000 O   0  0  0  0  0  0  0  0  0  0  0  0
   -6.2621   -7.8166    0.0000 C   0  0  0  0  0  0  0  0  0  0  0  0
   -2.7274   -3.9275    0.0000 O   0  0  0  0  0  0  0  0  0  0  0  0
   -1.9653   -4.2785    0.0000 C   0  0  0  0  0  0  0  0  0  0  0  0
   -2.3259   -0.2882    0.0000 C   0  0  1  0  0  0  0  0  0  0  0  0
   -2.6010    0.5084    0.0000 C   0  0  0  0  0  0  0  0  0  0  0  0
   -1.5046   -0.0725    0.0000 C   0  0  1  0  0  0  0  0  0  0  0  0
   -1.2774    0.7373    0.0000 O   0  0  0  0  0  0  0  0  0  0  0  0
   -1.0304   -0.7775    0.0000 C   0  0  1  0  0  0  0  0  0  0  0  0
   -0.9917   -1.6189    0.0000 C   0  0  0  0  0  0  0  0  0  0  0  0
   -0.2070   -0.8587    0.0000 C   0  0  0  0  0  0  0  0  0  0  0  0
    0.3269   -1.4972    0.0000 C   0  0  0  0  0  0  0  0  0  0  0  0
    1.0826   -1.1497    0.0000 C   0  0  1  0  0  0  0  0  0  0  0  0
    0.9605   -0.3055    0.0000 O   0  0  0  0  0  0  0  0  0  0  0  0
    0.8096    0.5269    0.0000 C   0  0  0  0  0  0  0  0  0  0  0  0
    0.0112    0.3199    0.0000 O   0  0  0  0  0  0  0  0  0  0  0  0
    1.0313    1.3276    0.0000 C   0  0  2  0  0  0  0  0  0  0  0  0
    1.8489    1.4367    0.0000 C   0  0  0  0  0  0  0  0  0  0  0  0
    0.5075    2.0078    0.0000 N   0  0  0  0  0  0  0  0  0  0  0  0
   -0.3102    1.8987    0.0000 C   0  0  0  0  0  0  0  0  0  0  0  0
    0.8217    2.7704    0.0000 C   0  0  0  0  0  0  0  0  0  0  0  0
    1.6938   -1.7960    0.0000 C   0  0  2  0  0  0  0  0  0  0  0  0
    1.4353   -2.6335    0.0000 C   0  0  0  0  0  0  0  0  0  0  0  0
    2.5720   -1.7287    0.0000 C   0  0  2  0  0  0  0  0  0  0  0  0
    2.9654   -0.9318    0.0000 O   0  0  0  0  0  0  0  0  0  0  0  0
    3.0944   -0.0725    0.0000 C   0  0  0  0  0  0  0  0  0  0  0  0
    2.2750    0.0547    0.0000 C   0  0  0  0  0  0  0  0  0  0  0  0
    3.1326    0.7686    0.0000 O   0  0  0  0  0  0  0  0  0  0  0  0
    3.1805   -2.3674    0.0000 C   0  0  2  0  0  0  0  0  0  0  0  0
    3.1813   -3.2050    0.0000 C   0  0  0  0  0  0  0  0  0  0  0  0
    4.0521   -2.3639    0.0000 C   0  0  0  0  0  0  0  0  0  0  0  0
    4.4675   -3.0767    0.0000 C   0  0  0  0  0  0  0  0  0  0  0  0
    5.2923   -3.0733    0.0000 N   0  0  0  0  0  0  0  0  0  0  0  0
    5.7019   -2.3573    0.0000 C   0  0  0  0  0  0  0  0  0  0  0  0
    5.7077   -3.7860    0.0000 C   0  0  0  0  0  0  0  0  0  0  0  0
    6.5324   -3.7827    0.0000 O   0  0  0  0  0  0  0  0  0  0  0  0
  1  2  1  0  0  0  0
  2  3  1  0  0  0  0
  3  4  1  0  0  0  0
  4  5  1  1  0  0  0
  5  6  1  0  0  0  0
  5  7  1  0  0  0  0
  4  8  1  0  0  0  0
  8  9  2  0  0  0  0
  8 10  1  0  0  0  0
 11 10  1  1  0  0  0
 11 12  1  0  0  0  0
 12 13  1  0  0  0  0
 13 14  2  0  0  0  0
 14 15  1  0  0  0  0
 15 16  2  0  0  0  0
 16 17  1  0  0  0  0
 17 18  2  0  0  0  0
 17 19  1  0  0  0  0
 19 20  1  0  0  0  0
 20 21  1  0  0  0  0
 21 22  1  0  0  0  0
 22 23  2  0  0  0  0
 23 24  1  0  0  0  0
 24 25  1  0  0  0  0
 25 26  1  0  0  0  0
 26 27  1  6  0  0  0
 26 28  1  0  0  0  0
 28 29  1  0  0  0  0
 29 30  2  0  0  0  0
 30 31  1  0  0  0  0
 30 32  1  0  0  0  0
 32 33  1  0  0  0  0
 33 34  1  0  0  0  0
 34 35  1  0  0  0  0
 35 36  1  6  0  0  0
 35 37  1  0  0  0  0
 37 38  1  1  0  0  0
 37 39  1  0  0  0  0
 11 39  1  0  0  0  0
 39 40  1  6  0  0  0
 32 41  1  1  0  0  0
 41 42  1  0  0  0  0
 24 43  1  6  0  0  0
 43 44  1  0  0  0  0
 20 45  1  6  0  0  0
 45 46  1  1  0  0  0
 45 47  1  0  0  0  0
 47 48  1  1  0  0  0
 47 49  1  0  0  0  0
 49 50  1  6  0  0  0
 49 51  1  0  0  0  0
 51 52  1  0  0  0  0
 52 53  1  0  0  0  0
 53 54  1  1  0  0  0
 54 55  1  0  0  0  0
 55 56  2  0  0  0  0
 55 57  1  0  0  0  0
 57 58  1  1  0  0  0
 57 59  1  0  0  0  0
 59 60  1  0  0  0  0
 59 61  1  0  0  0  0
 53 62  1  0  0  0  0
 62 63  1  1  0  0  0
 62 64  1  0  0  0  0
 64 65  1  6  0  0  0
 65 66  1  0  0  0  0
 66 67  1  0  0  0  0
 66 68  2  0  0  0  0
 64 69  1  0  0  0  0
 69 70  1  1  0  0  0
 69 71  1  0  0  0  0
 71 72  2  0  0  0  0
 72 73  1  0  0  0  0
 73 74  1  0  0  0  0
 73 75  1  0  0  0  0
 75 76  2  0  0  0  0
M  END
> <DATABASE_ID>
DB04629

> <DATABASE_NAME>
drugbank

> <SMILES>
COC[C@H](N(C)C)C(=O)O[C@@H]1C\C=C\C=C\C(=O)O[C@@H](C\C=C\[C@H](OC)C[C@H](C)C\C=C(C)\[C@@H](OC)CC[C@@H](C)[C@@H](O)[C@@H]1C)[C@@H](C)[C@@H](O)[C@@H](C)CC[C@@H](OC(=O)[C@H](C)N(C)C)[C@H](C)[C@H](OC(C)=O)[C@H](C)\C=C\N(C)C=O

> <INCHI_IDENTIFIER>
InChI=1S/C59H101N3O14/c1-38-27-28-39(2)50(72-18)31-29-40(3)56(67)44(7)52(76-59(69)49(36-70-16)61(13)14)24-20-19-21-26-54(65)74-51(25-22-23-48(35-38)71-17)43(6)55(66)41(4)30-32-53(75-58(68)46(9)60(11)12)45(8)57(73-47(10)64)42(5)33-34-62(15)37-63/h19-23,26,28,33-34,37-38,40-46,48-53,55-57,66-67H,24-25,27,29-32,35-36H2,1-18H3/b20-19+,23-22+,26-21+,34-33+,39-28+/t38-,40-,41+,42-,43-,44-,45+,46+,48+,49+,50+,51+,52-,53-,55+,56-,57-/m1/s1

> <INCHI_KEY>
JMXMEKJLQWJRHY-GDEZZODWSA-N

> <FORMULA>
C59H101N3O14

> <MOLECULAR_WEIGHT>
1076.4449

> <EXACT_MASS>
1075.728354955

> <JCHEM_ACCEPTOR_COUNT>
12

> <JCHEM_ATOM_COUNT>
177

> <JCHEM_AVERAGE_NEUTRAL_MICROSPECIES_CHARGE>
0.6340958815191287

> <JCHEM_AVERAGE_POLARIZABILITY>
124.87476279789713

> <JCHEM_BIOAVAILABILITY>
0

> <JCHEM_DONOR_COUNT>
2

> <JCHEM_FORMAL_CHARGE>
0

> <JCHEM_GHOSE_FILTER>
0

> <JCHEM_IUPAC>
(1E,3R,4R,5S,6R,9S,10S,11S)-4-(acetyloxy)-11-[(2S,4E,6R,8R,10E,12S,15R,16R,17S,18R,20E,22E)-18-{[(2S)-2-(dimethylamino)-3-methoxypropanoyl]oxy}-16-hydroxy-6,12-dimethoxy-8,11,15,17-tetramethyl-24-oxo-1-oxacyclotetracosa-4,10,20,22-tetraen-2-yl]-10-hydroxy-3,5,9-trimethyl-1-(N-methylformamido)dodec-1-en-6-yl (2S)-2-(dimethylamino)propanoate

> <ALOGPS_LOGP>
6.39

> <JCHEM_LOGP>
7.720249765333332

> <ALOGPS_LOGS>
-5.83

> <JCHEM_MDDR_LIKE_RULE>
0

> <JCHEM_NEUTRAL_CHARGE>
1

> <JCHEM_NUMBER_OF_RINGS>
1

> <JCHEM_PHYSIOLOGICAL_CHARGE>
0

> <JCHEM_PKA>
14.930989381361197

> <JCHEM_PKA_STRONGEST_ACIDIC>
14.328929399958577

> <JCHEM_PKA_STRONGEST_BASIC>
6.9889252891936655

> <JCHEM_POLAR_SURFACE_AREA>
200.14

> <JCHEM_REFRACTIVITY>
301.8912

> <JCHEM_ROTATABLE_BOND_COUNT>
25

> <JCHEM_RULE_OF_FIVE>
0

> <ALOGPS_SOLUBILITY>
1.60e-03 g/l

> <JCHEM_TRADITIONAL_IUPAC>
tetrahydrofolic acid

> <JCHEM_VEBER_RULE>
0

> <DRUGBANK_ID>
DB04629

> <DRUG_GROUPS>
experimental

> <GENERIC_NAME>
Aplyronine A

$$$$
