
  Mrv0541 05041402162D          

 13 12  0  0  1  0            999 V2000
    1.3480   -0.3020    0.0000 C   0  0  0  0  0  0  0  0  0  0  0  0
    2.0625   -0.7145    0.0000 C   0  0  0  0  0  0  0  0  0  0  0  0
    2.7770   -0.3020    0.0000 C   0  0  0  0  0  0  0  0  0  0  0  0
    4.9204   -0.7145    0.0000 C   0  0  0  0  0  0  0  0  0  0  0  0
    5.6349   -0.3020    0.0000 C   0  0  1  0  0  0  0  0  0  0  0  0
    3.4914   -0.7145    0.0000 C   0  0  0  0  0  0  0  0  0  0  0  0
    6.3493   -0.7145    0.0000 C   0  0  0  0  0  0  0  0  0  0  0  0
    5.6349    0.5230    0.0000 N   0  0  0  0  0  0  0  0  0  0  0  0
    3.4914   -1.5395    0.0000 O   0  0  0  0  0  0  0  0  0  0  0  0
    7.0638   -0.3020    0.0000 O   0  0  0  0  0  0  0  0  0  0  0  0
    6.3493   -1.5395    0.0000 O   0  0  0  0  0  0  0  0  0  0  0  0
    4.2059   -0.3020    0.0000 S   0  0  0  0  0  0  0  0  0  0  0  0
    5.6349   -1.1270    0.0000 H   0  0  0  0  0  0  0  0  0  0  0  0
  2  1  1  0  0  0  0
  3  2  1  0  0  0  0
  5  4  1  0  0  0  0
  6  3  1  0  0  0  0
  7  5  1  0  0  0  0
  5  8  1  1  0  0  0
  9  6  2  0  0  0  0
 10  7  2  0  0  0  0
 11  7  1  0  0  0  0
 12  4  1  0  0  0  0
 12  6  1  0  0  0  0
  5 13  1  1  0  0  0
M  END
> <DATABASE_ID>
DB02160

> <DATABASE_NAME>
drugbank

> <SMILES>
[H][C@](N)(CSC(=O)CCC)C(O)=O

> <INCHI_IDENTIFIER>
InChI=1S/C7H13NO3S/c1-2-3-6(9)12-4-5(8)7(10)11/h5H,2-4,8H2,1H3,(H,10,11)/t5-/m0/s1

> <INCHI_KEY>
QARMATOLSBVIJD-YFKPBYRVSA-N

> <FORMULA>
C7H13NO3S

> <MOLECULAR_WEIGHT>
191.248

> <EXACT_MASS>
191.061613977

> <JCHEM_ACCEPTOR_COUNT>
4

> <JCHEM_ATOM_COUNT>
25

> <JCHEM_AVERAGE_NEUTRAL_MICROSPECIES_CHARGE>
-0.04927263792870484

> <JCHEM_AVERAGE_POLARIZABILITY>
19.327689973561647

> <JCHEM_BIOAVAILABILITY>
1

> <JCHEM_DONOR_COUNT>
2

> <JCHEM_FORMAL_CHARGE>
0

> <JCHEM_GHOSE_FILTER>
0

> <JCHEM_IUPAC>
(2R)-2-amino-3-(butanoylsulfanyl)propanoic acid

> <ALOGPS_LOGP>
-1.46

> <JCHEM_LOGP>
-1.8029896206933227

> <ALOGPS_LOGS>
-1.20

> <JCHEM_MDDR_LIKE_RULE>
0

> <JCHEM_NEUTRAL_CHARGE>
0

> <JCHEM_NUMBER_OF_RINGS>
0

> <JCHEM_PHYSIOLOGICAL_CHARGE>
0

> <JCHEM_PKA_STRONGEST_ACIDIC>
2.1252045220935165

> <JCHEM_PKA_STRONGEST_BASIC>
8.284721920857942

> <JCHEM_POLAR_SURFACE_AREA>
80.39

> <JCHEM_REFRACTIVITY>
46.9193

> <JCHEM_ROTATABLE_BOND_COUNT>
6

> <JCHEM_RULE_OF_FIVE>
1

> <ALOGPS_SOLUBILITY>
1.21e+01 g/l

> <JCHEM_TRADITIONAL_IUPAC>
tetrahydrofolic acid

> <JCHEM_VEBER_RULE>
0

> <DRUGBANK_ID>
DB02160

> <SECONDARY_ACCESSION_NUMBERS>
EXPT01074

> <DRUG_GROUPS>
experimental

> <GENERIC_NAME>
S-Butyryl-Cystein

$$$$
