
  Mrv0541 02231216112D          

 41 43  0  0  1  0            999 V2000
   -2.3345   -4.2105    0.0000 C   0  0  0  0  0  0  0  0  0  0  0  0
   -2.7470   -3.4960    0.0000 C   0  0  0  0  0  0  0  0  0  0  0  0
   -3.5720   -3.4960    0.0000 C   0  0  0  0  0  0  0  0  0  0  0  0
   -2.3345   -2.7815    0.0000 C   0  0  0  0  0  0  0  0  0  0  0  0
   -1.5095   -2.7815    0.0000 C   0  0  0  0  0  0  0  0  0  0  0  0
   -1.0970   -2.0671    0.0000 N   0  0  0  0  0  0  0  0  0  0  0  0
   -0.2720   -2.0671    0.0000 C   0  0  0  0  0  0  0  0  0  0  0  0
    0.1405   -2.7815    0.0000 C   0  0  1  0  0  0  0  0  0  0  0  0
   -0.2720   -3.4960    0.0000 O   0  0  0  0  0  0  0  0  0  0  0  0
    0.9655   -2.7815    0.0000 C   0  0  2  0  0  0  0  0  0  0  0  0
    1.1350   -1.9489    0.0000 C   0  0  0  0  0  0  0  0  0  0  0  0
    1.7780   -1.3734    0.0000 C   0  0  0  0  0  0  0  0  0  0  0  0
    2.1888   -0.6300    0.0000 C   0  0  0  0  0  0  0  0  0  0  0  0
    3.0329   -0.5928    0.0000 C   0  0  0  0  0  0  0  0  0  0  0  0
    3.4854   -1.3027    0.0000 C   0  0  0  0  0  0  0  0  0  0  0  0
    4.2367   -1.7114    0.0000 O   0  0  0  0  0  0  0  0  0  0  0  0
    4.7828   -2.3610    0.0000 C   0  0  0  0  0  0  0  0  0  0  0  0
    4.9048   -3.2013    0.0000 C   0  0  0  0  0  0  0  0  0  0  0  0
    4.6015   -3.9920    0.0000 C   0  0  0  0  0  0  0  0  0  0  0  0
    3.9852   -4.5727    0.0000 C   0  0  0  0  0  0  0  0  0  0  0  0
    4.4071   -5.2817    0.0000 O   0  0  0  0  0  0  0  0  0  0  0  0
    3.1823   -4.8368    0.0000 N   0  0  0  0  0  0  0  0  0  0  0  0
    2.3363   -4.7363    0.0000 C   0  0  1  0  0  0  0  0  0  0  0  0
    2.0698   -5.5171    0.0000 C   0  0  0  0  0  0  0  0  0  0  0  0
    2.6127   -6.1383    0.0000 C   0  0  0  0  0  0  0  0  0  0  0  0
    3.4221   -5.9787    0.0000 N   0  0  0  0  0  0  0  0  0  0  0  0
    2.3462   -6.9191    0.0000 O   0  0  0  0  0  0  0  0  0  0  0  0
    1.6158   -4.3048    0.0000 C   0  0  0  0  0  0  0  0  0  0  0  0
    1.0531   -4.9081    0.0000 O   0  0  0  0  0  0  0  0  0  0  0  0
    1.1353   -3.6159    0.0000 N   0  0  0  0  0  0  0  0  0  0  0  0
    3.0791   -2.0341    0.0000 C   0  0  0  0  0  0  0  0  0  0  0  0
    2.2548   -2.0560    0.0000 C   0  0  0  0  0  0  0  0  0  0  0  0
   -1.5095   -1.3526    0.0000 S   0  0  0  0  0  0  0  0  0  0  0  0
   -0.7950   -0.9401    0.0000 O   0  0  0  0  0  0  0  0  0  0  0  0
   -2.2240   -1.7651    0.0000 O   0  0  0  0  0  0  0  0  0  0  0  0
   -1.9220   -0.6381    0.0000 C   0  0  0  0  0  0  0  0  0  0  0  0
   -2.7470   -0.6381    0.0000 C   0  0  0  0  0  0  0  0  0  0  0  0
   -3.1595    0.0763    0.0000 C   0  0  0  0  0  0  0  0  0  0  0  0
   -2.7470    0.7908    0.0000 C   0  0  0  0  0  0  0  0  0  0  0  0
   -1.9220    0.7908    0.0000 C   0  0  0  0  0  0  0  0  0  0  0  0
   -1.5095    0.0763    0.0000 C   0  0  0  0  0  0  0  0  0  0  0  0
  1  2  1  0  0  0  0
  2  3  1  0  0  0  0
  2  4  1  0  0  0  0
  4  5  1  0  0  0  0
  5  6  1  0  0  0  0
  6  7  1  0  0  0  0
  7  8  1  0  0  0  0
  8  9  1  6  0  0  0
 10  8  1  6  0  0  0
 10 11  1  0  0  0  0
 11 12  1  0  0  0  0
 12 13  2  0  0  0  0
 13 14  1  0  0  0  0
 14 15  2  0  0  0  0
 15 16  1  0  0  0  0
 16 17  1  0  0  0  0
 17 18  1  0  0  0  0
 18 19  1  0  0  0  0
 19 20  1  0  0  0  0
 20 21  2  0  0  0  0
 20 22  1  0  0  0  0
 22 23  1  0  0  0  0
 23 24  1  1  0  0  0
 24 25  1  0  0  0  0
 25 26  1  0  0  0  0
 25 27  2  0  0  0  0
 23 28  1  0  0  0  0
 28 29  2  0  0  0  0
 28 30  1  0  0  0  0
 10 30  1  0  0  0  0
 15 31  1  0  0  0  0
 31 32  2  0  0  0  0
 12 32  1  0  0  0  0
  6 33  1  0  0  0  0
 33 34  2  0  0  0  0
 33 35  2  0  0  0  0
 33 36  1  0  0  0  0
 36 37  2  0  0  0  0
 37 38  1  0  0  0  0
 38 39  2  0  0  0  0
 39 40  1  0  0  0  0
 40 41  2  0  0  0  0
 36 41  1  0  0  0  0
M  END
> <DATABASE_ID>
DB02411

> <DATABASE_NAME>
drugbank

> <SMILES>
CC(C)CCN(C[C@@H](O)[C@@H]1CC2=CC=C(OCCCC(=O)N[C@@H](CC(N)=O)C(=O)N1)C=C2)S(=O)(=O)C1=CC=CC=C1

> <INCHI_IDENTIFIER>
InChI=1S/C29H40N4O7S/c1-20(2)14-15-33(41(38,39)23-7-4-3-5-8-23)19-26(34)24-17-21-10-12-22(13-11-21)40-16-6-9-28(36)31-25(18-27(30)35)29(37)32-24/h3-5,7-8,10-13,20,24-26,34H,6,9,14-19H2,1-2H3,(H2,30,35)(H,31,36)(H,32,37)/t24-,25-,26+/m0/s1

> <INCHI_KEY>
HOUHLOFMBSYNBO-KKUQBAQOSA-N

> <FORMULA>
C29H40N4O7S

> <MOLECULAR_WEIGHT>
588.715

> <EXACT_MASS>
588.261770344

> <JCHEM_ACCEPTOR_COUNT>
7

> <JCHEM_ATOM_COUNT>
81

> <JCHEM_AVERAGE_NEUTRAL_MICROSPECIES_CHARGE>
-0.0001893731102265474

> <JCHEM_AVERAGE_POLARIZABILITY>
61.16574620782885

> <JCHEM_BIOAVAILABILITY>
1

> <JCHEM_DONOR_COUNT>
4

> <JCHEM_FORMAL_CHARGE>
0

> <JCHEM_GHOSE_FILTER>
0

> <JCHEM_IUPAC>
2-[(8S,11S)-11-[(1R)-1-hydroxy-2-[N-(3-methylbutyl)benzenesulfonamido]ethyl]-6,9-dioxo-2-oxa-7,10-diazabicyclo[11.2.2]heptadeca-1(15),13,16-trien-8-yl]acetamide

> <ALOGPS_LOGP>
1.80

> <JCHEM_LOGP>
1.1860342499999996

> <ALOGPS_LOGS>
-3.86

> <JCHEM_MDDR_LIKE_RULE>
1

> <JCHEM_NEUTRAL_CHARGE>
0

> <JCHEM_NUMBER_OF_RINGS>
3

> <JCHEM_PHYSIOLOGICAL_CHARGE>
0

> <JCHEM_PKA>
12.244486278167395

> <JCHEM_PKA_STRONGEST_ACIDIC>
10.736596763363497

> <JCHEM_PKA_STRONGEST_BASIC>
-1.7201953680060984

> <JCHEM_POLAR_SURFACE_AREA>
168.13

> <JCHEM_REFRACTIVITY>
153.3388999999999

> <JCHEM_ROTATABLE_BOND_COUNT>
9

> <JCHEM_RULE_OF_FIVE>
0

> <ALOGPS_SOLUBILITY>
8.14e-02 g/l

> <JCHEM_TRADITIONAL_IUPAC>
tetrahydrofolic acid

> <JCHEM_VEBER_RULE>
0

> <DRUGBANK_ID>
DB02411

> <SECONDARY_ACCESSION_NUMBERS>
EXPT01696

> <DRUG_GROUPS>
experimental

> <GENERIC_NAME>
2-(11-{2-[Benzenesulfonyl-(3-Methyl-Butyl)-Amino]-1-Hydroxy-Ethyl}-6,9-Dioxo-2-Oxa-7,10-Diaza-Bicyclo[11.2.2]Heptadeca-1(16),13(17),14-Trien-8-Yl)-Acetamide, Inhibitor 2

$$$$
