
  Mrv0541 05061311122D          

 28 31  0  0  0  0            999 V2000
    3.5724   -1.2375    0.0000 C   0  0  0  0  0  0  0  0  0  0  0  0
    2.1434   -1.2375    0.0000 C   0  0  0  0  0  0  0  0  0  0  0  0
    3.5724   -0.4125    0.0000 C   0  0  0  0  0  0  0  0  0  0  0  0
    2.1434   -0.4125    0.0000 C   0  0  0  0  0  0  0  0  0  0  0  0
   -0.7145   -0.4125    0.0000 C   0  0  0  0  0  0  0  0  0  0  0  0
   -1.4289    0.8250    0.0000 C   0  0  0  0  0  0  0  0  0  0  0  0
    0.0000    0.0000    0.0000 C   0  0  0  0  0  0  0  0  0  0  0  0
   -0.7145    1.2375    0.0000 C   0  0  0  0  0  0  0  0  0  0  0  0
    1.4289    2.4750    0.0000 C   0  0  0  0  0  0  0  0  0  0  0  0
    1.4289    0.8250    0.0000 C   0  0  0  0  0  0  0  0  0  0  0  0
    3.5724    1.2375    0.0000 C   0  0  0  0  0  0  0  0  0  0  0  0
    2.8579   -1.6500    0.0000 C   0  0  0  0  0  0  0  0  0  0  0  0
    2.8579    0.0000    0.0000 C   0  0  0  0  0  0  0  0  0  0  0  0
    2.1434    2.0625    0.0000 C   0  0  0  0  0  0  0  0  0  0  0  0
    3.5724    2.0625    0.0000 C   0  0  0  0  0  0  0  0  0  0  0  0
    0.7145    2.0625    0.0000 C   0  0  0  0  0  0  0  0  0  0  0  0
    2.1434    1.2375    0.0000 C   0  0  0  0  0  0  0  0  0  0  0  0
    0.7145    1.2375    0.0000 C   0  0  0  0  0  0  0  0  0  0  0  0
    2.8579    2.4750    0.0000 C   0  0  0  0  0  0  0  0  0  0  0  0
    4.2868    2.4750    0.0000 C   0  0  0  0  0  0  0  0  0  0  0  0
    2.8579   -2.4750    0.0000 F   0  0  0  0  0  0  0  0  0  0  0  0
    0.0000    2.4750    0.0000 F   0  0  0  0  0  0  0  0  0  0  0  0
   -1.4289    0.0000    0.0000 N   0  0  0  0  0  0  0  0  0  0  0  0
    0.0000    0.8250    0.0000 N   0  0  0  0  0  0  0  0  0  0  0  0
    2.8579    0.8250    0.0000 N   0  0  0  0  0  0  0  0  0  0  0  0
    2.8579    3.3000    0.0000 O   0  0  0  0  0  0  0  0  0  0  0  0
    4.2868    3.3000    0.0000 O   0  0  0  0  0  0  0  0  0  0  0  0
    5.0013    2.0625    0.0000 O   0  0  0  0  0  0  0  0  0  0  0  0
  3  1  1  0  0  0  0
  4  2  2  0  0  0  0
  7  5  1  0  0  0  0
  8  6  1  0  0  0  0
 12  1  2  0  0  0  0
 12  2  1  0  0  0  0
 13  3  2  0  0  0  0
 13  4  1  0  0  0  0
 14  9  2  0  0  0  0
 15 11  2  0  0  0  0
 16  9  1  0  0  0  0
 17 10  2  0  0  0  0
 17 14  1  0  0  0  0
 18 10  1  0  0  0  0
 18 16  2  0  0  0  0
 19 14  1  0  0  0  0
 19 15  1  0  0  0  0
 20 15  1  0  0  0  0
 21 12  1  0  0  0  0
 22 16  1  0  0  0  0
 23  5  1  0  0  0  0
 23  6  1  0  0  0  0
 24  7  1  0  0  0  0
 24  8  1  0  0  0  0
 24 18  1  0  0  0  0
 25 11  1  0  0  0  0
 25 13  1  0  0  0  0
 25 17  1  0  0  0  0
 26 19  2  0  0  0  0
 27 20  2  0  0  0  0
 28 20  1  0  0  0  0
M  END
> <DATABASE_ID>
DB11491

> <DATABASE_NAME>
drugbank

> <SMILES>
OC(=O)C1=CN(C2=CC=C(F)C=C2)C2=CC(N3CCNCC3)=C(F)C=C2C1=O

> <INCHI_IDENTIFIER>
InChI=1S/C20H17F2N3O3/c21-12-1-3-13(4-2-12)25-11-15(20(27)28)19(26)14-9-16(22)18(10-17(14)25)24-7-5-23-6-8-24/h1-4,9-11,23H,5-8H2,(H,27,28)

> <INCHI_KEY>
XBHBWNFJWIASRO-UHFFFAOYSA-N

> <FORMULA>
C20H17F2N3O3

> <MOLECULAR_WEIGHT>
385.3641

> <EXACT_MASS>
385.123797835

> <JCHEM_ACCEPTOR_COUNT>
6

> <JCHEM_ATOM_COUNT>
45

> <JCHEM_AVERAGE_NEUTRAL_MICROSPECIES_CHARGE>
0.0487963064640995

> <JCHEM_AVERAGE_POLARIZABILITY>
37.151369884958356

> <JCHEM_BIOAVAILABILITY>
1

> <JCHEM_DONOR_COUNT>
2

> <JCHEM_FORMAL_CHARGE>
0

> <JCHEM_GHOSE_FILTER>
1

> <JCHEM_IUPAC>
6-fluoro-1-(4-fluorophenyl)-4-oxo-7-(piperazin-1-yl)-1,4-dihydroquinoline-3-carboxylic acid

> <ALOGPS_LOGP>
0.29

> <JCHEM_LOGP>
0.5168579248100242

> <ALOGPS_LOGS>
-3.56

> <JCHEM_MDDR_LIKE_RULE>
0

> <JCHEM_NEUTRAL_CHARGE>
0

> <JCHEM_NUMBER_OF_RINGS>
4

> <JCHEM_PHYSIOLOGICAL_CHARGE>
0

> <JCHEM_PKA_STRONGEST_ACIDIC>
5.547709933507419

> <JCHEM_PKA_STRONGEST_BASIC>
8.763547922206975

> <JCHEM_POLAR_SURFACE_AREA>
72.88

> <JCHEM_REFRACTIVITY>
99.89889999999997

> <JCHEM_ROTATABLE_BOND_COUNT>
3

> <JCHEM_RULE_OF_FIVE>
1

> <ALOGPS_SOLUBILITY>
1.05e-01 g/l

> <JCHEM_TRADITIONAL_IUPAC>
tetrahydrofolic acid

> <JCHEM_VEBER_RULE>
0

> <DRUGBANK_ID>
DB11491

> <DRUG_GROUPS>
vet_approved; withdrawn

> <GENERIC_NAME>
Sarafloxacin

> <SYNONYMS>
Sarafloxacin

> <SALTS>
Sarafloxacin hydrochloride

$$$$
