
  Mrv0541 05041401242D          

 33 37  0  0  1  0            999 V2000
   -0.7145    2.0625    0.0000 C   0  0  0  0  0  0  0  0  0  0  0  0
   -0.7145    1.2375    0.0000 C   0  0  0  0  0  0  0  0  0  0  0  0
    0.0000    2.4750    0.0000 C   0  0  0  0  0  0  0  0  0  0  0  0
   -0.1787    7.1795    0.0000 C   0  0  0  0  0  0  0  0  0  0  0  0
   -0.5912    6.4650    0.0000 C   0  0  0  0  0  0  0  0  0  0  0  0
    0.0000    0.8250    0.0000 C   0  0  0  0  0  0  0  0  0  0  0  0
    0.7145    2.0625    0.0000 C   0  0  0  0  0  0  0  0  0  0  0  0
    2.8579    2.4750    0.0000 C   0  0  0  0  0  0  0  0  0  0  0  0
    1.4289    2.4750    0.0000 C   0  0  0  0  0  0  0  0  0  0  0  0
    2.1434   -0.4125    0.0000 C   0  0  0  0  0  0  0  0  0  0  0  0
    4.2868    0.8250    0.0000 C   0  0  0  0  0  0  0  0  0  0  0  0
    2.8579    3.3000    0.0000 C   0  0  0  0  0  0  0  0  0  0  0  0
    1.4289    3.3000    0.0000 C   0  0  0  0  0  0  0  0  0  0  0  0
    1.4289    0.0000    0.0000 C   0  0  0  0  0  0  0  0  0  0  0  0
    3.5724    1.2375    0.0000 C   0  0  0  0  0  0  0  0  0  0  0  0
    0.6282    7.0080    0.0000 C   0  0  0  0  0  0  0  0  0  0  0  0
   -0.0392    5.8519    0.0000 C   0  0  0  0  0  0  0  0  0  0  0  0
    1.4289    5.7750    0.0000 C   0  0  0  0  0  0  0  0  0  0  0  0
    1.4289    4.9500    0.0000 C   0  0  0  0  0  0  0  0  0  0  0  0
    3.5724   -0.4125    0.0000 C   0  0  0  0  0  0  0  0  0  0  0  0
    0.7145    1.2375    0.0000 C   0  0  0  0  0  0  0  0  0  0  0  0
    2.1434    2.0625    0.0000 C   0  0  0  0  0  0  0  0  0  0  0  0
    2.8579    0.0000    0.0000 C   0  0  0  0  0  0  0  0  0  0  0  0
    4.2868    0.0000    0.0000 C   0  0  0  0  0  0  0  0  0  0  0  0
    2.1434    3.7125    0.0000 C   0  0  0  0  0  0  0  0  0  0  0  0
    1.4289    0.8250    0.0000 C   0  0  2  0  0  0  0  0  0  0  0  0
    2.8579    0.8250    0.0000 C   0  0  0  0  0  0  0  0  0  0  0  0
    2.1434    1.2375    0.0000 C   0  0  1  0  0  0  0  0  0  0  0  0
    0.7145    6.1875    0.0000 N   0  0  0  0  0  0  0  0  0  0  0  0
    5.0013   -0.4125    0.0000 O   0  0  0  0  0  0  0  0  0  0  0  0
    2.1434    4.5375    0.0000 O   0  0  0  0  0  0  0  0  0  0  0  0
    0.7145    0.4125    0.0000 H   0  0  0  0  0  0  0  0  0  0  0  0
    1.4289    1.6500    0.0000 H   0  0  0  0  0  0  0  0  0  0  0  0
  2  1  2  0  0  0  0
  3  1  1  0  0  0  0
  5  4  1  0  0  0  0
  6  2  1  0  0  0  0
  7  3  2  0  0  0  0
 12  8  1  0  0  0  0
 13  9  2  0  0  0  0
 14 10  1  0  0  0  0
 15 11  1  0  0  0  0
 16  4  1  0  0  0  0
 17  5  1  0  0  0  0
 19 18  1  0  0  0  0
 21  6  2  0  0  0  0
 21  7  1  0  0  0  0
 22  8  2  0  0  0  0
 22  9  1  0  0  0  0
 23 10  1  0  0  0  0
 23 20  2  0  0  0  0
 24 11  2  0  0  0  0
 24 20  1  0  0  0  0
 25 12  2  0  0  0  0
 25 13  1  0  0  0  0
 26 14  1  0  0  0  0
 26 21  1  6  0  0  0
 27 15  2  0  0  0  0
 27 23  1  0  0  0  0
 28 22  1  6  0  0  0
 28 26  1  0  0  0  0
 28 27  1  0  0  0  0
 29 16  1  0  0  0  0
 29 17  1  0  0  0  0
 29 18  1  0  0  0  0
 30 24  1  0  0  0  0
 31 19  1  0  0  0  0
 31 25  1  0  0  0  0
 26 32  1  1  0  0  0
 28 33  1  1  0  0  0
M  END
> <DATABASE_ID>
DB06202

> <DATABASE_NAME>
drugbank

> <SMILES>
[H][C@@]1(CCC2=CC(O)=CC=C2[C@@]1([H])C1=CC=C(OCCN2CCCC2)C=C1)C1=CC=CC=C1

> <INCHI_IDENTIFIER>
InChI=1S/C28H31NO2/c30-24-11-15-27-23(20-24)10-14-26(21-6-2-1-3-7-21)28(27)22-8-12-25(13-9-22)31-19-18-29-16-4-5-17-29/h1-3,6-9,11-13,15,20,26,28,30H,4-5,10,14,16-19H2/t26-,28+/m1/s1

> <INCHI_KEY>
GXESHMAMLJKROZ-IAPPQJPRSA-N

> <FORMULA>
C28H31NO2

> <MOLECULAR_WEIGHT>
413.5512

> <EXACT_MASS>
413.235479241

> <JCHEM_ACCEPTOR_COUNT>
3

> <JCHEM_ATOM_COUNT>
62

> <JCHEM_AVERAGE_NEUTRAL_MICROSPECIES_CHARGE>
0.9889499670905905

> <JCHEM_AVERAGE_POLARIZABILITY>
47.58383551484508

> <JCHEM_BIOAVAILABILITY>
1

> <JCHEM_DONOR_COUNT>
1

> <JCHEM_FORMAL_CHARGE>
0

> <JCHEM_GHOSE_FILTER>
0

> <JCHEM_IUPAC>
(5R,6S)-6-phenyl-5-{4-[2-(pyrrolidin-1-yl)ethoxy]phenyl}-5,6,7,8-tetrahydronaphthalen-2-ol

> <ALOGPS_LOGP>
6.36

> <JCHEM_LOGP>
5.9722240382087834

> <ALOGPS_LOGS>
-6.02

> <JCHEM_MDDR_LIKE_RULE>
1

> <JCHEM_NEUTRAL_CHARGE>
1

> <JCHEM_NUMBER_OF_RINGS>
5

> <JCHEM_PHYSIOLOGICAL_CHARGE>
1

> <JCHEM_PKA_STRONGEST_ACIDIC>
10.211830591499814

> <JCHEM_PKA_STRONGEST_BASIC>
8.978610620958673

> <JCHEM_POLAR_SURFACE_AREA>
32.7

> <JCHEM_REFRACTIVITY>
126.83159999999995

> <JCHEM_ROTATABLE_BOND_COUNT>
6

> <JCHEM_RULE_OF_FIVE>
0

> <ALOGPS_SOLUBILITY>
3.98e-04 g/l

> <JCHEM_TRADITIONAL_IUPAC>
tetrahydrofolic acid

> <JCHEM_VEBER_RULE>
1

> <DRUGBANK_ID>
DB06202

> <DRUG_GROUPS>
approved; investigational

> <GENERIC_NAME>
Lasofoxifene

> <SYNONYMS>
(-)-cis-5,6,7,8-Tetrahydro-6-phenyl-5-(p-(2-(1-pyrrolidinyl)ethoxy)phenyl)-2-naphthol; Lasofoxifene

> <PRODUCTS>
Fablyn

> <INTERNATIONAL_BRANDS>
Oporia

> <SALTS>
Lasofoxifene hydrochloride; Lasofoxifene tartrate

$$$$
