
  Mrv0541 05041402582D          

 67 73  0  0  1  0            999 V2000
    1.6771    1.0678    0.0000 C   0  0  0  0  0  0  0  0  0  0  0  0
   -5.0013    7.0125    0.0000 C   0  0  0  0  0  0  0  0  0  0  0  0
   -0.7145    4.5375    0.0000 C   0  0  0  0  0  0  0  0  0  0  0  0
   -2.1434    3.7125    0.0000 C   0  0  0  0  0  0  0  0  0  0  0  0
    0.0000    7.4250    0.0000 C   0  0  0  0  0  0  0  0  0  0  0  0
    1.4289    7.4250    0.0000 C   0  0  0  0  0  0  0  0  0  0  0  0
    1.1468    1.6998    0.0000 C   0  0  0  0  0  0  0  0  0  0  0  0
    7.1447    2.4750    0.0000 C   0  0  0  0  0  0  0  0  0  0  0  0
    6.4302    2.0625    0.0000 C   0  0  0  0  0  0  0  0  0  0  0  0
    7.1447    3.3000    0.0000 C   0  0  0  0  0  0  0  0  0  0  0  0
   -5.7158    4.9500    0.0000 C   0  0  0  0  0  0  0  0  0  0  0  0
   -5.0013    4.5375    0.0000 C   0  0  0  0  0  0  0  0  0  0  0  0
    3.5724    2.0625    0.0000 C   0  0  0  0  0  0  0  0  0  0  0  0
    1.4289    5.7750    0.0000 C   0  0  0  0  0  0  0  0  0  0  0  0
   -2.1434    6.1875    0.0000 C   0  0  0  0  0  0  0  0  0  0  0  0
    1.4289    3.3000    0.0000 C   0  0  0  0  0  0  0  0  0  0  0  0
   -5.0013    6.1875    0.0000 C   0  0  2  0  0  0  0  0  0  0  0  0
    0.0000    4.9500    0.0000 C   0  0  1  0  0  0  0  0  0  0  0  0
   -2.1434    4.5375    0.0000 C   0  0  1  0  0  0  0  0  0  0  0  0
    5.7158    2.4750    0.0000 C   0  0  0  0  0  0  0  0  0  0  0  0
    4.2868    2.4750    0.0000 C   0  0  0  0  0  0  0  0  0  0  0  0
    2.8579    2.4750    0.0000 C   0  0  0  0  0  0  0  0  0  0  0  0
    0.7145    6.1875    0.0000 C   0  0  1  0  0  0  0  0  0  0  0  0
   -5.7158    5.7750    0.0000 C   0  0  0  0  0  0  0  0  0  0  0  0
    6.4302    3.7125    0.0000 C   0  0  0  0  0  0  0  0  0  0  0  0
   -2.8579    5.7750    0.0000 C   0  0  1  0  0  0  0  0  0  0  0  0
    2.1434    3.7125    0.0000 C   0  0  1  0  0  0  0  0  0  0  0  0
   -4.2868    4.9500    0.0000 C   0  0  1  0  0  0  0  0  0  0  0  0
    1.4289    4.9500    0.0000 C   0  0  1  0  0  0  0  0  0  0  0  0
   -1.4289    5.7750    0.0000 C   0  0  1  0  0  0  0  0  0  0  0  0
    5.7158    3.3000    0.0000 C   0  0  0  0  0  0  0  0  0  0  0  0
    2.8579    3.3000    0.0000 C   0  0  0  0  0  0  0  0  0  0  0  0
    4.2868    3.3000    0.0000 C   0  0  0  0  0  0  0  0  0  0  0  0
    5.0013    2.0625    0.0000 C   0  0  0  0  0  0  0  0  0  0  0  0
    5.0013    3.7125    0.0000 C   0  0  0  0  0  0  0  0  0  0  0  0
    3.5724    3.7125    0.0000 C   0  0  0  0  0  0  0  0  0  0  0  0
    0.0000    5.7750    0.0000 C   0  0  2  0  0  0  0  0  0  0  0  0
   -2.8579    4.9500    0.0000 C   0  0  1  0  0  0  0  0  0  0  0  0
    2.1434    2.0625    0.0000 C   0  0  2  0  0  0  0  0  0  0  0  0
    1.4289    2.4750    0.0000 C   0  0  1  0  0  0  0  0  0  0  0  0
    0.7145    7.0125    0.0000 N   0  0  0  0  0  0  0  0  0  0  0  0
   -6.4302    6.1875    0.0000 O   0  0  0  0  0  0  0  0  0  0  0  0
    6.4302    4.5375    0.0000 O   0  0  0  0  0  0  0  0  0  0  0  0
   -3.5724    6.1875    0.0000 O   0  0  0  0  0  0  0  0  0  0  0  0
    5.0013    1.2375    0.0000 O   0  0  0  0  0  0  0  0  0  0  0  0
    5.0013    4.5375    0.0000 O   0  0  0  0  0  0  0  0  0  0  0  0
    3.5724    4.5375    0.0000 O   0  0  0  0  0  0  0  0  0  0  0  0
    2.1434    1.2375    0.0000 O   0  0  0  0  0  0  0  0  0  0  0  0
    0.6165    2.6183    0.0000 O   0  0  0  0  0  0  0  0  0  0  0  0
   -4.2868    5.7750    0.0000 O   0  0  0  0  0  0  0  0  0  0  0  0
    0.7145    4.5375    0.0000 O   0  0  0  0  0  0  0  0  0  0  0  0
   -1.4289    4.9500    0.0000 O   0  0  0  0  0  0  0  0  0  0  0  0
    2.1434    4.5375    0.0000 O   0  0  0  0  0  0  0  0  0  0  0  0
   -3.5724    4.5375    0.0000 O   0  0  0  0  0  0  0  0  0  0  0  0
   -0.7145    6.1875    0.0000 O   0  0  0  0  0  0  0  0  0  0  0  0
   -5.7158    6.6000    0.0000 H   0  0  0  0  0  0  0  0  0  0  0  0
   -0.8125    5.0933    0.0000 H   0  0  0  0  0  0  0  0  0  0  0  0
   -2.6737    3.9055    0.0000 H   0  0  0  0  0  0  0  0  0  0  0  0
    1.4289    6.6000    0.0000 H   0  0  0  0  0  0  0  0  0  0  0  0
   -2.8579    6.6000    0.0000 H   0  0  0  0  0  0  0  0  0  0  0  0
    1.4289    4.1250    0.0000 H   0  0  0  0  0  0  0  0  0  0  0  0
   -4.2868    4.1250    0.0000 H   0  0  0  0  0  0  0  0  0  0  0  0
    2.1434    5.3625    0.0000 H   0  0  0  0  0  0  0  0  0  0  0  0
   -1.4289    6.6000    0.0000 H   0  0  0  0  0  0  0  0  0  0  0  0
   -0.8125    5.6317    0.0000 H   0  0  0  0  0  0  0  0  0  0  0  0
   -3.1401    4.1748    0.0000 H   0  0  0  0  0  0  0  0  0  0  0  0
    2.8579    1.6500    0.0000 H   0  0  0  0  0  0  0  0  0  0  0  0
  7  1  1  0  0  0  0
  9  8  2  0  0  0  0
 10  8  1  0  0  0  0
 12 11  1  0  0  0  0
 17  2  1  1  0  0  0
 18  3  1  1  0  0  0
 19  4  1  1  0  0  0
 20  9  1  0  0  0  0
 21 13  2  0  0  0  0
 22 13  1  0  0  0  0
 23 14  1  0  0  0  0
 24 11  1  0  0  0  0
 24 17  1  0  0  0  0
 25 10  2  0  0  0  0
 26 15  1  0  0  0  0
 27 16  1  0  0  0  0
 28 12  1  0  0  0  0
 29 14  1  0  0  0  0
 30 15  1  0  0  0  0
 31 20  2  0  0  0  0
 31 25  1  0  0  0  0
 32 22  2  0  0  0  0
 32 27  1  0  0  0  0
 33 21  1  0  0  0  0
 34 20  1  0  0  0  0
 34 21  1  0  0  0  0
 35 31  1  0  0  0  0
 35 33  1  0  0  0  0
 36 32  1  0  0  0  0
 36 33  2  0  0  0  0
 37 18  1  0  0  0  0
 37 23  1  0  0  0  0
 38 19  1  0  0  0  0
 38 26  1  0  0  0  0
 39 22  1  0  0  0  0
 40  7  1  1  0  0  0
 40 16  1  0  0  0  0
 40 39  1  0  0  0  0
 41  5  1  0  0  0  0
 41  6  1  0  0  0  0
 23 41  1  1  0  0  0
 42 24  2  0  0  0  0
 43 25  1  0  0  0  0
 26 44  1  1  0  0  0
 45 34  2  0  0  0  0
 46 35  2  0  0  0  0
 47 36  1  0  0  0  0
 39 48  1  1  0  0  0
 40 49  1  6  0  0  0
 50 17  1  0  0  0  0
 50 28  1  0  0  0  0
 51 18  1  0  0  0  0
 51 29  1  0  0  0  0
 52 19  1  0  0  0  0
 52 30  1  0  0  0  0
 27 53  1  6  0  0  0
 29 53  1  6  0  0  0
 28 54  1  1  0  0  0
 38 54  1  6  0  0  0
 30 55  1  6  0  0  0
 37 55  1  1  0  0  0
 17 56  1  6  0  0  0
 18 57  1  6  0  0  0
 19 58  1  6  0  0  0
 23 59  1  6  0  0  0
 26 60  1  6  0  0  0
 27 61  1  1  0  0  0
 28 62  1  6  0  0  0
 29 63  1  1  0  0  0
 30 64  1  1  0  0  0
 37 65  1  6  0  0  0
 38 66  1  1  0  0  0
 39 67  1  6  0  0  0
M  END
> <DATABASE_ID>
DB03219

> <DATABASE_NAME>
drugbank

> <SMILES>
[H][C@]1(O)C[C@]([H])(O[C@]2([H])[C@]([H])(C)O[C@]([H])(C[C@]2([H])N(C)C)O[C@@]2([H])C[C@](O)(CC)[C@]([H])(O)C3=C2C(O)=C2C(=O)C4=C(C=CC=C4O)C(=O)C2=C3)O[C@@]([H])(C)[C@]1([H])O[C@@]1([H])CCC(=O)[C@@]([H])(C)O1

> <INCHI_IDENTIFIER>
InChI=1S/C40H51NO14/c1-7-40(49)16-27(32-22(39(40)48)13-21-33(36(32)47)35(46)31-20(34(21)45)9-8-10-25(31)43)53-29-14-23(41(5)6)37(18(3)51-29)55-30-15-26(44)38(19(4)52-30)54-28-12-11-24(42)17(2)50-28/h8-10,13,17-19,23,26-30,37-39,43-44,47-49H,7,11-12,14-16H2,1-6H3/t17-,18+,19+,23+,26+,27+,28+,29+,30+,37-,38+,39-,40-/m1/s1

> <INCHI_KEY>
OQDCVONZQOVIMP-UNQJTBPASA-N

> <FORMULA>
C40H51NO14

> <MOLECULAR_WEIGHT>
769.8312

> <EXACT_MASS>
769.330955345

> <JCHEM_ACCEPTOR_COUNT>
15

> <JCHEM_ATOM_COUNT>
106

> <JCHEM_AVERAGE_NEUTRAL_MICROSPECIES_CHARGE>
0.6834532332517786

> <JCHEM_AVERAGE_POLARIZABILITY>
81.41895294327277

> <JCHEM_BIOAVAILABILITY>
0

> <JCHEM_DONOR_COUNT>
5

> <JCHEM_FORMAL_CHARGE>
0

> <JCHEM_GHOSE_FILTER>
0

> <JCHEM_IUPAC>
(7R,8R,10S)-10-{[(2R,4S,5S,6S)-4-(dimethylamino)-5-{[(2S,4S,5R,6S)-4-hydroxy-6-methyl-5-{[(2R,6R)-6-methyl-5-oxooxan-2-yl]oxy}oxan-2-yl]oxy}-6-methyloxan-2-yl]oxy}-8-ethyl-1,7,8,11-tetrahydroxy-5,7,8,9,10,12-hexahydrotetracene-5,12-dione

> <ALOGPS_LOGP>
2.74

> <JCHEM_LOGP>
3.2712753185301544

> <ALOGPS_LOGS>
-3.42

> <JCHEM_MDDR_LIKE_RULE>
1

> <JCHEM_NEUTRAL_CHARGE>
1

> <JCHEM_NUMBER_OF_RINGS>
7

> <JCHEM_PHYSIOLOGICAL_CHARGE>
0

> <JCHEM_PKA>
8.252945380228887

> <JCHEM_PKA_STRONGEST_ACIDIC>
7.4708422785768365

> <JCHEM_PKA_STRONGEST_BASIC>
9.047378640564073

> <JCHEM_POLAR_SURFACE_AREA>
210.97999999999993

> <JCHEM_REFRACTIVITY>
194.21830000000006

> <JCHEM_ROTATABLE_BOND_COUNT>
8

> <JCHEM_RULE_OF_FIVE>
0

> <ALOGPS_SOLUBILITY>
2.92e-01 g/l

> <JCHEM_TRADITIONAL_IUPAC>
tetrahydrofolic acid

> <JCHEM_VEBER_RULE>
0

> <DRUGBANK_ID>
DB03219

> <SECONDARY_ACCESSION_NUMBERS>
EXPT01268

> <DRUG_GROUPS>
experimental

> <GENERIC_NAME>
11-Deoxy-Beta-Rhodomycin

$$$$
