
  Mrv0541 05031423312D          

 17 16  0  0  1  0            999 V2000
   -1.1270   -0.3020    0.0000 C   0  0  0  0  0  0  0  0  0  0  0  0
    1.7309   -0.3020    0.0000 C   0  0  0  0  0  0  0  0  0  0  0  0
   -0.4125   -0.7145    0.0000 C   0  0  2  0  0  0  0  0  0  0  0  0
    1.0164   -0.7145    0.0000 C   0  0  2  0  0  0  0  0  0  0  0  0
    0.3020   -0.3020    0.0000 C   0  0  1  0  0  0  0  0  0  0  0  0
   -1.8414   -0.7145    0.0000 O   0  0  0  0  0  0  0  0  0  0  0  0
   -0.4125   -1.5395    0.0000 O   0  0  0  0  0  0  0  0  0  0  0  0
    1.0164   -1.5395    0.0000 O   0  0  0  0  0  0  0  0  0  0  0  0
    0.3020    0.5230    0.0000 O   0  0  0  0  0  0  0  0  0  0  0  0
    3.8743    0.1105    0.0000 O   0  0  0  0  0  0  0  0  0  0  0  0
    3.5724   -1.0164    0.0000 O   0  0  0  0  0  0  0  0  0  0  0  0
    2.7474    0.4125    0.0000 O   0  0  0  0  0  0  0  0  0  0  0  0
    2.4454   -0.7145    0.0000 O   0  0  0  0  0  0  0  0  0  0  0  0
    3.1599   -0.3020    0.0000 P   0  0  0  0  0  0  0  0  0  0  0  0
   -0.4125    0.1105    0.0000 H   0  0  0  0  0  0  0  0  0  0  0  0
    1.0164    0.1105    0.0000 H   0  0  0  0  0  0  0  0  0  0  0  0
    0.3020   -1.1270    0.0000 H   0  0  0  0  0  0  0  0  0  0  0  0
  3  1  1  0  0  0  0
  4  2  1  0  0  0  0
  5  3  1  0  0  0  0
  5  4  1  0  0  0  0
  6  1  1  0  0  0  0
  3  7  1  1  0  0  0
  4  8  1  6  0  0  0
  5  9  1  1  0  0  0
 13  2  1  0  0  0  0
 14 10  1  0  0  0  0
 14 11  1  0  0  0  0
 14 12  2  0  0  0  0
 14 13  1  0  0  0  0
  3 15  1  1  0  0  0
  4 16  1  6  0  0  0
  5 17  1  1  0  0  0
M  END
> <DATABASE_ID>
DB03745

> <DATABASE_NAME>
drugbank

> <SMILES>
[H][C@@](O)(CO)[C@]([H])(O)[C@]([H])(O)COP(O)(O)=O

> <INCHI_IDENTIFIER>
InChI=1S/C5H13O8P/c6-1-3(7)5(9)4(8)2-13-14(10,11)12/h3-9H,1-2H2,(H2,10,11,12)/t3-,4-,5+/m1/s1

> <INCHI_KEY>
VJDOAZKNBQCAGE-WDCZJNDASA-N

> <FORMULA>
C5H13O8P

> <MOLECULAR_WEIGHT>
232.1257

> <EXACT_MASS>
232.034803904

> <JCHEM_ACCEPTOR_COUNT>
7

> <JCHEM_ATOM_COUNT>
27

> <JCHEM_AVERAGE_NEUTRAL_MICROSPECIES_CHARGE>
-1.8585705160254333

> <JCHEM_AVERAGE_POLARIZABILITY>
18.82138540687439

> <JCHEM_BIOAVAILABILITY>
1

> <JCHEM_DONOR_COUNT>
6

> <JCHEM_FORMAL_CHARGE>
0

> <JCHEM_GHOSE_FILTER>
0

> <JCHEM_IUPAC>
{[(2R,3S,4R)-2,3,4,5-tetrahydroxypentyl]oxy}phosphonic acid

> <ALOGPS_LOGP>
-2.14

> <JCHEM_LOGP>
-3.2232499379999995

> <ALOGPS_LOGS>
-0.91

> <JCHEM_MDDR_LIKE_RULE>
0

> <JCHEM_NEUTRAL_CHARGE>
-2

> <JCHEM_NUMBER_OF_RINGS>
0

> <JCHEM_PHYSIOLOGICAL_CHARGE>
-2

> <JCHEM_PKA>
6.517789357699702

> <JCHEM_PKA_STRONGEST_ACIDIC>
1.491978913715834

> <JCHEM_PKA_STRONGEST_BASIC>
-2.974203813611499

> <JCHEM_POLAR_SURFACE_AREA>
147.68

> <JCHEM_REFRACTIVITY>
43.31399999999999

> <JCHEM_ROTATABLE_BOND_COUNT>
6

> <JCHEM_RULE_OF_FIVE>
0

> <ALOGPS_SOLUBILITY>
2.85e+01 g/l

> <JCHEM_TRADITIONAL_IUPAC>
tetrahydrofolic acid

> <JCHEM_VEBER_RULE>
0

> <DRUGBANK_ID>
DB03745

> <SECONDARY_ACCESSION_NUMBERS>
EXPT00375

> <DRUG_GROUPS>
experimental

> <GENERIC_NAME>
Arabinose-5-phosphate

$$$$
