
  Mrv0541 05041404052D          

 12 11  0  0  1  0            999 V2000
    2.0625   -0.7145    0.0000 C   0  0  0  0  0  0  0  0  0  0  0  0
    1.2375   -0.7145    0.0000 C   0  0  1  0  0  0  0  0  0  0  0  0
    0.8250   -1.4289    0.0000 C   0  0  0  0  0  0  0  0  0  0  0  0
    2.4750   -1.4289    0.0000 F   0  0  0  0  0  0  0  0  0  0  0  0
   -0.0000   -1.4289    0.0000 O   0  0  0  0  0  0  0  0  0  0  0  0
    1.2375   -2.1434    0.0000 O   0  0  0  0  0  0  0  0  0  0  0  0
   -0.8250    0.0000    0.0000 O   0  0  0  0  0  0  0  0  0  0  0  0
    0.0000    0.8250    0.0000 O   0  0  0  0  0  0  0  0  0  0  0  0
    0.0000   -0.8250    0.0000 O   0  0  0  0  0  0  0  0  0  0  0  0
    0.8250    0.0000    0.0000 O   0  0  0  0  0  0  0  0  0  0  0  0
    0.0000    0.0000    0.0000 P   0  0  0  0  0  0  0  0  0  0  0  0
    1.6500   -1.4289    0.0000 H   0  0  0  0  0  0  0  0  0  0  0  0
  2  1  1  0  0  0  0
  3  2  1  0  0  0  0
  4  1  1  0  0  0  0
  5  3  2  0  0  0  0
  6  3  1  0  0  0  0
  2 10  1  6  0  0  0
 11  7  1  0  0  0  0
 11  8  1  0  0  0  0
 11  9  2  0  0  0  0
 11 10  1  0  0  0  0
  2 12  1  6  0  0  0
M  END
> <DATABASE_ID>
DB03113

> <DATABASE_NAME>
drugbank

> <SMILES>
[H][C@@](CF)(OP(O)(O)=O)C(O)=O

> <INCHI_IDENTIFIER>
InChI=1S/C3H6FO6P/c4-1-2(3(5)6)10-11(7,8)9/h2H,1H2,(H,5,6)(H2,7,8,9)/t2-/m0/s1

> <INCHI_KEY>
BNOCDEBUFVJMQI-REOHCLBHSA-N

> <FORMULA>
C3H6FO6P

> <MOLECULAR_WEIGHT>
188.0483

> <EXACT_MASS>
187.988602641

> <JCHEM_ACCEPTOR_COUNT>
5

> <JCHEM_ATOM_COUNT>
17

> <JCHEM_AVERAGE_NEUTRAL_MICROSPECIES_CHARGE>
-2.903384053108761

> <JCHEM_AVERAGE_POLARIZABILITY>
12.60270888750603

> <JCHEM_BIOAVAILABILITY>
1

> <JCHEM_DONOR_COUNT>
3

> <JCHEM_FORMAL_CHARGE>
0

> <JCHEM_GHOSE_FILTER>
0

> <JCHEM_IUPAC>
(2R)-3-fluoro-2-(phosphonooxy)propanoic acid

> <ALOGPS_LOGP>
-1.63

> <JCHEM_LOGP>
-0.7512137420000001

> <ALOGPS_LOGS>
-1.32

> <JCHEM_MDDR_LIKE_RULE>
0

> <JCHEM_NEUTRAL_CHARGE>
-3

> <JCHEM_NUMBER_OF_RINGS>
0

> <JCHEM_PHYSIOLOGICAL_CHARGE>
-3

> <JCHEM_PKA>
3.6021367470750185

> <JCHEM_PKA_STRONGEST_ACIDIC>
0.49611839209272834

> <JCHEM_POLAR_SURFACE_AREA>
104.06000000000002

> <JCHEM_REFRACTIVITY>
29.5643

> <JCHEM_ROTATABLE_BOND_COUNT>
4

> <JCHEM_RULE_OF_FIVE>
1

> <ALOGPS_SOLUBILITY>
9.02e+00 g/l

> <JCHEM_TRADITIONAL_IUPAC>
tetrahydrofolic acid

> <JCHEM_VEBER_RULE>
0

> <DRUGBANK_ID>
DB03113

> <SECONDARY_ACCESSION_NUMBERS>
EXPT01475

> <DRUG_GROUPS>
experimental

> <GENERIC_NAME>
3-Fluoro-2-(Phosphonooxy)Propanoic Acid

$$$$
