
  Mrv0541 05041408072D          

 26 27  0  0  1  0            999 V2000
   -1.5056    0.2572    0.0000 C   0  0  0  0  0  0  0  0  0  0  0  0
    1.6689    1.9642    0.0000 C   0  0  0  0  0  0  0  0  0  0  0  0
   -0.7209    0.5122    0.0000 C   0  0  2  0  0  0  0  0  0  0  0  0
    1.2564    3.2338    0.0000 C   0  0  0  0  0  0  0  0  0  0  0  0
   -0.0535    0.0273    0.0000 C   0  0  2  0  0  0  0  0  0  0  0  0
    0.6139    0.5122    0.0000 C   0  0  2  0  0  0  0  0  0  0  0  0
    1.2564    4.0588    0.0000 C   0  0  0  0  0  0  0  0  0  0  0  0
    0.5890    2.7489    0.0000 C   0  0  0  0  0  0  0  0  0  0  0  0
    0.3590    1.2968    0.0000 C   0  0  2  0  0  0  0  0  0  0  0  0
    1.9709    4.4713    0.0000 N   0  0  0  0  0  0  0  0  0  0  0  0
    1.9239    2.7489    0.0000 N   0  0  0  0  0  0  0  0  0  0  0  0
    0.8439    1.9642    0.0000 N   0  0  0  0  0  0  0  0  0  0  0  0
   -0.0535   -0.7977    0.0000 O   0  0  0  0  0  0  0  0  0  0  0  0
    1.3986    0.2572    0.0000 O   0  0  0  0  0  0  0  0  0  0  0  0
    0.5420    4.4713    0.0000 O   0  0  0  0  0  0  0  0  0  0  0  0
   -0.1956    3.0038    0.0000 O   0  5  0  0  0  0  0  0  0  0  0  0
   -3.6879    0.2994    0.0000 O   0  5  0  0  0  0  0  0  0  0  0  0
   -3.1582    1.3390    0.0000 O   0  0  0  0  0  0  0  0  0  0  0  0
   -2.6483   -0.2303    0.0000 O   0  0  0  0  0  0  0  0  0  0  0  0
   -2.1187    0.8093    0.0000 O   0  0  0  0  0  0  0  0  0  0  0  0
   -0.4660    1.2968    0.0000 O   0  0  0  0  0  0  0  0  0  0  0  0
   -2.9033    0.5543    0.0000 P   0  0  0  0  0  0  0  0  0  0  0  0
   -0.5635   -0.2977    0.0000 H   0  0  0  0  0  0  0  0  0  0  0  0
   -0.6161   -0.5761    0.0000 H   0  0  0  0  0  0  0  0  0  0  0  0
    0.7430   -0.3027    0.0000 H   0  0  0  0  0  0  0  0  0  0  0  0
    1.1738    1.1677    0.0000 H   0  0  0  0  0  0  0  0  0  0  0  0
  3  1  1  1  0  0  0
  5  3  1  0  0  0  0
  6  5  1  0  0  0  0
  7  4  1  0  0  0  0
  8  4  2  0  0  0  0
  9  6  1  0  0  0  0
 10  7  1  0  0  0  0
 11  2  2  0  0  0  0
 11  4  1  0  0  0  0
 12  2  1  0  0  0  0
 12  8  1  0  0  0  0
  9 12  1  1  0  0  0
  5 13  1  6  0  0  0
  6 14  1  6  0  0  0
 15  7  2  0  0  0  0
 16  8  1  0  0  0  0
 20  1  1  0  0  0  0
 21  3  1  0  0  0  0
 21  9  1  0  0  0  0
 22 17  1  0  0  0  0
 22 18  1  0  0  0  0
 22 19  2  0  0  0  0
 22 20  1  0  0  0  0
  3 23  1  6  0  0  0
  5 24  1  1  0  0  0
  6 25  1  1  0  0  0
  9 26  1  6  0  0  0
M  CHG  2  16  -1  17  -1
M  END
> <DATABASE_ID>
DB01945

> <DATABASE_NAME>
drugbank

> <SMILES>
[H][C@]1(COP(O)([O-])=O)O[C@@]([H])(N2C=NC(C(N)=O)=C2[O-])[C@]([H])(O)[C@]1([H])O

> <INCHI_IDENTIFIER>
InChI=1S/C9H14N3O9P/c10-7(15)4-8(16)12(2-11-4)9-6(14)5(13)3(21-9)1-20-22(17,18)19/h2-3,5-6,9,13-14,16H,1H2,(H2,10,15)(H2,17,18,19)/p-2/t3-,5-,6-,9-/m1/s1

> <INCHI_KEY>
KTKAFSMJDTUUAN-UUOKFMHZSA-L

> <FORMULA>
C9H12N3O9P

> <MOLECULAR_WEIGHT>
337.18

> <EXACT_MASS>
337.031115509

> <JCHEM_ACCEPTOR_COUNT>
9

> <JCHEM_ATOM_COUNT>
34

> <JCHEM_AVERAGE_NEUTRAL_MICROSPECIES_CHARGE>
-1.9385865068621564

> <JCHEM_AVERAGE_POLARIZABILITY>
27.56869986710177

> <JCHEM_BIOAVAILABILITY>
1

> <JCHEM_DONOR_COUNT>
4

> <JCHEM_FORMAL_CHARGE>
-2

> <JCHEM_GHOSE_FILTER>
0

> <JCHEM_IUPAC>
4-carbamoyl-1-[(2R,3R,4S,5R)-5-[(hydrogen phosphonatooxy)methyl]-3,4-dihydroxyoxolan-2-yl]-1H-imidazol-5-olate

> <ALOGPS_LOGP>
-1.99

> <JCHEM_LOGP>
-3.59546106818073

> <ALOGPS_LOGS>
-1.90

> <JCHEM_MDDR_LIKE_RULE>
0

> <JCHEM_NEUTRAL_CHARGE>
-2

> <JCHEM_NUMBER_OF_RINGS>
2

> <JCHEM_PHYSIOLOGICAL_CHARGE>
-2

> <JCHEM_PKA>
6.24907143411404

> <JCHEM_PKA_STRONGEST_ACIDIC>
1.212544421596254

> <JCHEM_PKA_STRONGEST_BASIC>
2.7835439370609953

> <JCHEM_POLAR_SURFACE_AREA>
203.24999999999997

> <JCHEM_REFRACTIVITY>
75.8512

> <JCHEM_ROTATABLE_BOND_COUNT>
5

> <JCHEM_RULE_OF_FIVE>
1

> <ALOGPS_SOLUBILITY>
4.66e+00 g/l

> <JCHEM_TRADITIONAL_IUPAC>
biotin

> <JCHEM_VEBER_RULE>
0

> <DRUGBANK_ID>
DB01945

> <SECONDARY_ACCESSION_NUMBERS>
EXPT02272

> <DRUG_GROUPS>
experimental

> <GENERIC_NAME>
4-Carbamoyl-1-Beta-D-Ribofuranosyl-Imidazolium-5-Olate-5'-Phosphate

$$$$
