
  Mrv0541 04191212102D          

 10 10  0  0  0  0            999 V2000
   -0.1480    0.2044    0.0000 C   0  0  0  0  0  0  0  0  0  0  0  0
   -0.1480   -0.6206    0.0000 C   0  0  0  0  0  0  0  0  0  0  0  0
   -0.8625    0.6169    0.0000 C   0  0  0  0  0  0  0  0  0  0  0  0
    0.5665    0.6169    0.0000 C   0  0  0  0  0  0  0  0  0  0  0  0
   -0.8625   -1.0331    0.0000 C   0  0  0  0  0  0  0  0  0  0  0  0
   -1.5770    0.2044    0.0000 C   0  0  0  0  0  0  0  0  0  0  0  0
    1.2809    0.2044    0.0000 C   0  0  0  0  0  0  0  0  0  0  0  0
   -1.5770   -0.6206    0.0000 C   0  0  0  0  0  0  0  0  0  0  0  0
    1.2809   -0.6206    0.0000 C   0  0  0  0  0  0  0  0  0  0  0  0
    1.9954    0.6169    0.0000 N   0  0  0  0  0  0  0  0  0  0  0  0
  1  2  1  0  0  0  0
  1  3  2  0  0  0  0
  1  4  1  0  0  0  0
  2  5  2  0  0  0  0
  3  6  1  0  0  0  0
  4  7  1  0  0  0  0
  5  8  1  0  0  0  0
  7  9  1  0  0  0  0
  7 10  1  0  0  0  0
  6  8  2  0  0  0  0
M  END
> <DATABASE_ID>
DB00182

> <DATABASE_NAME>
drugbank

> <SMILES>
CC(N)CC1=CC=CC=C1

> <INCHI_IDENTIFIER>
InChI=1S/C9H13N/c1-8(10)7-9-5-3-2-4-6-9/h2-6,8H,7,10H2,1H3

> <INCHI_KEY>
KWTSXDURSIMDCE-UHFFFAOYSA-N

> <FORMULA>
C9H13N

> <MOLECULAR_WEIGHT>
135.2062

> <EXACT_MASS>
135.104799421

> <JCHEM_ACCEPTOR_COUNT>
1

> <JCHEM_ATOM_COUNT>
23

> <JCHEM_AVERAGE_NEUTRAL_MICROSPECIES_CHARGE>
0.9990336281083082

> <JCHEM_AVERAGE_POLARIZABILITY>
16.17473888567587

> <JCHEM_BIOAVAILABILITY>
1

> <JCHEM_DONOR_COUNT>
1

> <JCHEM_FORMAL_CHARGE>
0

> <JCHEM_GHOSE_FILTER>
0

> <JCHEM_IUPAC>
1-phenylpropan-2-amine

> <ALOGPS_LOGP>
1.85

> <JCHEM_LOGP>
1.8042504816666665

> <ALOGPS_LOGS>
-1.89

> <JCHEM_MDDR_LIKE_RULE>
0

> <JCHEM_NEUTRAL_CHARGE>
1

> <JCHEM_NUMBER_OF_RINGS>
1

> <JCHEM_PHYSIOLOGICAL_CHARGE>
1

> <JCHEM_PKA_STRONGEST_BASIC>
10.01443581771614

> <JCHEM_POLAR_SURFACE_AREA>
26.02

> <JCHEM_REFRACTIVITY>
43.7052

> <JCHEM_ROTATABLE_BOND_COUNT>
2

> <JCHEM_RULE_OF_FIVE>
1

> <ALOGPS_SOLUBILITY>
1.74e+00 g/l

> <JCHEM_TRADITIONAL_IUPAC>
tetrahydrofolic acid

> <JCHEM_VEBER_RULE>
1

> <DRUGBANK_ID>
DB00182

> <SECONDARY_ACCESSION_NUMBERS>
APRD00480

> <DRUG_GROUPS>
approved; illicit; investigational

> <GENERIC_NAME>
Amphetamine

> <SYNONYMS>
(+-)-alpha-Methylphenylethylamine; 1-phenyl-2-aminopropane; alpha-Methylbenzeneethaneamine; Amfetamina; Amfetamine; Amfetaminum; Amphetamine; beta-Aminopropylbenzene; beta-Phenylisopropylamin; Desoxynorephedrine; rac-(2R)-1-phenylpropan-2-amine; rac-amphetamine; α-methylbenzeneethaneamine; α-methylphenethylamine; β-aminopropylbenzene; β-phenylisopropylamine

> <PRODUCTS>
Adderall; Adderall XR; Adzenys ER; Adzenys XR-ODT; Amphetamine Extended-Release Oral Suspension; Amphetamine Sulfate; Amphetamine sulfate; Apo-amphetamine XR; Dextroamphetamine Saccharate and Amphetamine Aspartate and Dextroamphetamine Sulfate and Amphetamine Sulfate; Dextroamphetamine Saccharate, Amphetamine Aspartate (monohydrate), Dextroamphetamine Sulfate, Amphetamine Sulfate; Dextroamphetamine Saccharate, Amphetamine Aspartate Monohydrate, Dextroamphetamine Sulfate and Amphetamine Sulfate; Dextroamphetamine Saccharate, Amphetamine Aspartate Monohydrate, Dextroamphetamine Sulfate, Amphetamine Sulfate Extended-Release; Dextroamphetamine Saccharate, Amphetamine Aspartate Monohydrate, Dextroamphetamine Sulfate, and Amphetamine Sulfate; Dextroamphetamine Saccharate, Amphetamine Aspartate Monohydrate, Dextroamphetamine Sulfate, and Amphetamine Sulfate Extended-Release; Dextroamphetamine Saccharate, Amphetamine Aspartate, Dextroamphetamine Sulfate and Amphetamine Suflate; Dextroamphetamine Saccharate, Amphetamine Aspartate, Dextroamphetamine Sulfate and Amphetamine Sulfate; Dextroamphetamine Saccharate, Amphetamine Aspartate, Dextroamphetamine Sulfate, Amphetamine Sulfate; Dextroamphetamine Saccharate, Amphetamine Aspartate, Dextroamphetamine Sulfate, Amphetamine Sulfate Tablets,CII; Dextroamphetamine Saccharate, Amphetamine Aspartate, Dextroamphetamine Sulfate, and Amphetamine Sulfate; Dextroamphetamine saccharate, amphetamine aspartate monohydrate, dextroamphetamine sulfate and amphetamine sulfate; Dextroamphetamine saccharate, amphetamine aspartate monohydrate, dextroamphetamine sulfate, amphetamine sulfate; Dextroamphetamine saccharate, amphetamine aspartate monohydrate, dextroamphetamine sulfate, amphetamine sulfate ER; Dextroamphetamine saccharate, amphetamine aspartate, dextroamphetamine sulfate, and amphetamine sulfate; Dyanavel XR; Evekeo; Evekeo ODT; Mixed Salts of a Single Entity Amphetamine Product XR; Mydayis; PMS-amphetamines XR; Sandoz Amphetamine XR; Taro-amphetamine XR; Teva-amphetamine XR

> <SALTS>
Amphetamine adipate; Amphetamine aspartate; Amphetamine aspartate monohydrate; Amphetamine sulfate

$$$$
