
  Mrv0541 05041400112D          

 25 28  0  0  1  0            999 V2000
    4.4793    3.8874    0.0000 C   0  0  0  0  0  0  0  0  0  0  0  0
    0.8838    0.0709    0.0000 C   0  0  0  0  0  0  0  0  0  0  0  0
   -1.8212    1.5229    0.0000 C   0  0  0  0  0  0  0  0  0  0  0  0
   -1.4087    0.8085    0.0000 C   0  0  0  0  0  0  0  0  0  0  0  0
   -1.4087    2.2374    0.0000 C   0  0  0  0  0  0  0  0  0  0  0  0
   -0.5837    0.8085    0.0000 C   0  0  0  0  0  0  0  0  0  0  0  0
   -0.5837    2.2374    0.0000 C   0  0  0  0  0  0  0  0  0  0  0  0
    3.3523    1.1104    0.0000 C   0  0  0  0  0  0  0  0  0  0  0  0
    4.8918    2.3479    0.0000 C   0  0  0  0  0  0  0  0  0  0  0  0
    0.8838    2.9750    0.0000 C   0  0  0  0  0  0  0  0  0  0  0  0
    4.4793    3.0624    0.0000 C   0  0  2  0  0  0  0  0  0  0  0  0
   -0.1712    1.5229    0.0000 C   0  0  0  0  0  0  0  0  0  0  0  0
    1.1387    2.1904    0.0000 C   0  0  0  0  0  0  0  0  0  0  0  0
    3.3523    1.9354    0.0000 C   0  0  0  0  0  0  0  0  0  0  0  0
    2.6378    0.6979    0.0000 C   0  0  0  0  0  0  0  0  0  0  0  0
    1.9233    1.9354    0.0000 C   0  0  0  0  0  0  0  0  0  0  0  0
    0.6538    1.5229    0.0000 C   0  0  0  0  0  0  0  0  0  0  0  0
    1.9233    1.1104    0.0000 C   0  0  0  0  0  0  0  0  0  0  0  0
    2.6378    2.3479    0.0000 C   0  0  0  0  0  0  0  0  0  0  0  0
    1.1387    0.8555    0.0000 N   0  0  0  0  0  0  0  0  0  0  0  0
    4.0668    2.3479    0.0000 N   0  0  1  0  0  0  0  0  0  0  0  0
    0.0768    3.1465    0.0000 O   0  0  0  0  0  0  0  0  0  0  0  0
    2.6378   -0.1271    0.0000 O   0  0  0  0  0  0  0  0  0  0  0  0
    2.6378    3.1729    0.0000 O   0  0  0  0  0  0  0  0  0  0  0  0
    5.2761    3.2759    0.0000 H   0  0  0  0  0  0  0  0  0  0  0  0
  4  3  2  0  0  0  0
  5  3  1  0  0  0  0
  6  4  1  0  0  0  0
  7  5  2  0  0  0  0
 11  1  1  6  0  0  0
 11  9  1  0  0  0  0
 12  6  2  0  0  0  0
 12  7  1  0  0  0  0
 13 10  1  0  0  0  0
 14  8  2  0  0  0  0
 15  8  1  0  0  0  0
 16 13  1  0  0  0  0
 17 12  1  0  0  0  0
 17 13  2  0  0  0  0
 18 15  1  0  0  0  0
 18 16  2  0  0  0  0
 19 14  1  0  0  0  0
 19 16  1  0  0  0  0
 20  2  1  0  0  0  0
 20 17  1  0  0  0  0
 20 18  1  0  0  0  0
 21  9  1  0  0  0  0
 21 11  1  0  0  0  0
 21 14  1  6  0  0  0
 22 10  1  0  0  0  0
 23 15  2  0  0  0  0
 24 19  2  0  0  0  0
 11 25  1  1  0  0  0
M  END
> <DATABASE_ID>
DB07385

> <DATABASE_NAME>
drugbank

> <SMILES>
[H][C@@]1(C)C[N@@]1C1=CC(=O)C2=C(C(CO)=C(N2C)C2=CC=CC=C2)C1=O

> <INCHI_IDENTIFIER>
InChI=1S/C19H18N2O3/c1-11-9-21(11)14-8-15(23)18-16(19(14)24)13(10-22)17(20(18)2)12-6-4-3-5-7-12/h3-8,11,22H,9-10H2,1-2H3/t11-,21+/m1/s1

> <INCHI_KEY>
RQFCSAVLOHDQNB-FIKIJFGZSA-N

> <FORMULA>
C19H18N2O3

> <MOLECULAR_WEIGHT>
322.3578

> <EXACT_MASS>
322.131742452

> <JCHEM_ACCEPTOR_COUNT>
4

> <JCHEM_ATOM_COUNT>
42

> <JCHEM_AVERAGE_NEUTRAL_MICROSPECIES_CHARGE>
-1.8158946666682202e-08

> <JCHEM_AVERAGE_POLARIZABILITY>
34.78264370372378

> <JCHEM_BIOAVAILABILITY>
1

> <JCHEM_DONOR_COUNT>
1

> <JCHEM_FORMAL_CHARGE>
0

> <JCHEM_GHOSE_FILTER>
1

> <JCHEM_IUPAC>
3-(hydroxymethyl)-1-methyl-5-[(1S,2R)-2-methylaziridin-1-yl]-2-phenyl-4,7-dihydro-1H-indole-4,7-dione

> <ALOGPS_LOGP>
2.35

> <JCHEM_LOGP>
1.4225957909999996

> <ALOGPS_LOGS>
-2.64

> <JCHEM_MDDR_LIKE_RULE>
0

> <JCHEM_NEUTRAL_CHARGE>
0

> <JCHEM_NUMBER_OF_RINGS>
4

> <JCHEM_PHYSIOLOGICAL_CHARGE>
0

> <JCHEM_PKA_STRONGEST_ACIDIC>
14.737999700054923

> <JCHEM_PKA_STRONGEST_BASIC>
-2.9133989311959754

> <JCHEM_POLAR_SURFACE_AREA>
62.31

> <JCHEM_REFRACTIVITY>
93.68979999999998

> <JCHEM_ROTATABLE_BOND_COUNT>
3

> <JCHEM_RULE_OF_FIVE>
1

> <ALOGPS_SOLUBILITY>
7.44e-01 g/l

> <JCHEM_TRADITIONAL_IUPAC>
tetrahydrofolic acid

> <JCHEM_VEBER_RULE>
0

> <DRUGBANK_ID>
DB07385

> <DRUG_GROUPS>
experimental

> <GENERIC_NAME>
3-(HYDROXYMETHYL)-1-METHYL-5-(2-METHYLAZIRIDIN-1-YL)-2-PHENYL-1H-INDOLE-4,7-DIONE

$$$$
