
  Mrv0541 05041412172D          

  9  8  0  0  1  0            999 V2000
    0.1105    1.2375    0.0000 C   0  0  0  0  0  0  0  0  0  0  0  0
    1.6500    0.0000    0.0000 C   0  0  0  0  0  0  0  0  0  0  0  0
    0.8250   -0.8250    0.0000 C   0  0  0  0  0  0  0  0  0  0  0  0
    0.8250    0.8250    0.0000 C   0  0  2  0  0  0  0  0  0  0  0  0
    0.8250    0.0000    0.0000 C   0  0  2  0  0  0  0  0  0  0  0  0
    1.5395   -1.2375    0.0000 N   0  0  0  0  0  0  0  0  0  0  0  0
    1.5395    1.2375    0.0000 O   0  0  0  0  0  0  0  0  0  0  0  0
    0.0000    0.0000    0.0000 O   0  0  0  0  0  0  0  0  0  0  0  0
    0.1105    0.4125    0.0000 H   0  0  0  0  0  0  0  0  0  0  0  0
  4  1  1  0  0  0  0
  5  2  1  1  0  0  0
  5  3  1  0  0  0  0
  5  4  1  0  0  0  0
  6  3  1  0  0  0  0
  4  7  1  6  0  0  0
  5  8  1  1  0  0  0
  4  9  1  6  0  0  0
M  END
> <DATABASE_ID>
DB02847

> <DATABASE_NAME>
drugbank

> <SMILES>
[H][C@](C)(O)[C@@](C)(O)CN

> <INCHI_IDENTIFIER>
InChI=1S/C5H13NO2/c1-4(7)5(2,8)3-6/h4,7-8H,3,6H2,1-2H3/t4-,5+/m1/s1

> <INCHI_KEY>
CNLUNMTZBAHKFI-UHNVWZDZSA-N

> <FORMULA>
C5H13NO2

> <MOLECULAR_WEIGHT>
119.1622

> <EXACT_MASS>
119.094628665

> <JCHEM_ACCEPTOR_COUNT>
3

> <JCHEM_ATOM_COUNT>
21

> <JCHEM_AVERAGE_NEUTRAL_MICROSPECIES_CHARGE>
0.9946533575081377

> <JCHEM_AVERAGE_POLARIZABILITY>
12.843355231751547

> <JCHEM_BIOAVAILABILITY>
1

> <JCHEM_DONOR_COUNT>
3

> <JCHEM_FORMAL_CHARGE>
0

> <JCHEM_GHOSE_FILTER>
0

> <JCHEM_IUPAC>
(2S,3R)-1-amino-2-methylbutane-2,3-diol

> <ALOGPS_LOGP>
-0.93

> <JCHEM_LOGP>
-1.2487441263333332

> <ALOGPS_LOGS>
0.69

> <JCHEM_MDDR_LIKE_RULE>
0

> <JCHEM_NEUTRAL_CHARGE>
1

> <JCHEM_NUMBER_OF_RINGS>
0

> <JCHEM_PHYSIOLOGICAL_CHARGE>
1

> <JCHEM_PKA>
15.144649375489196

> <JCHEM_PKA_STRONGEST_ACIDIC>
13.606099164949809

> <JCHEM_PKA_STRONGEST_BASIC>
9.269611427110664

> <JCHEM_POLAR_SURFACE_AREA>
66.48

> <JCHEM_REFRACTIVITY>
31.2306

> <JCHEM_ROTATABLE_BOND_COUNT>
2

> <JCHEM_RULE_OF_FIVE>
1

> <ALOGPS_SOLUBILITY>
5.85e+02 g/l

> <JCHEM_TRADITIONAL_IUPAC>
biotin

> <JCHEM_VEBER_RULE>
0

> <DRUGBANK_ID>
DB02847

> <SECONDARY_ACCESSION_NUMBERS>
EXPT03122

> <DRUG_GROUPS>
experimental

> <GENERIC_NAME>
(2s,3r)-1-Amino-2-Methylbutane-2,3-Diol

$$$$
