
  Mrv0541 05041402112D          

 21 22  0  0  1  0            999 V2000
    1.7044   -3.4197    0.0000 C   0  0  0  0  0  0  0  0  0  0  0  0
    2.1893   -2.7523    0.0000 C   0  0  0  0  0  0  0  0  0  0  0  0
    0.5484   -2.5798    0.0000 C   0  0  0  0  0  0  0  0  0  0  0  0
    4.2032   -0.2916    0.0000 C   0  0  0  0  0  0  0  0  0  0  0  0
    0.8839   -3.3335    0.0000 C   0  0  0  0  0  0  0  0  0  0  0  0
    3.4186   -0.5465    0.0000 C   0  0  2  0  0  0  0  0  0  0  0  0
    1.0333   -1.9124    0.0000 C   0  0  0  0  0  0  0  0  0  0  0  0
    2.7512   -0.0616    0.0000 C   0  0  2  0  0  0  0  0  0  0  0  0
    2.0837   -0.5465    0.0000 C   0  0  2  0  0  0  0  0  0  0  0  0
    2.3387   -1.3312    0.0000 C   0  0  2  0  0  0  0  0  0  0  0  0
    0.3990   -4.0009    0.0000 N   0  0  0  0  0  0  0  0  0  0  0  0
    1.8538   -1.9986    0.0000 N   0  0  0  0  0  0  0  0  0  0  0  0
    4.3748    0.5154    0.0000 O   0  0  0  0  0  0  0  0  0  0  0  0
    0.6977   -1.1587    0.0000 O   0  0  0  0  0  0  0  0  0  0  0  0
    2.7512    0.7634    0.0000 O   0  0  0  0  0  0  0  0  0  0  0  0
    1.2991   -0.2916    0.0000 O   0  0  0  0  0  0  0  0  0  0  0  0
    3.1637   -1.3312    0.0000 O   0  0  0  0  0  0  0  0  0  0  0  0
    3.2612    0.2633    0.0000 H   0  0  0  0  0  0  0  0  0  0  0  0
    3.3138    0.5418    0.0000 H   0  0  0  0  0  0  0  0  0  0  0  0
    1.9547    0.2683    0.0000 H   0  0  0  0  0  0  0  0  0  0  0  0
    1.5238   -1.2021    0.0000 H   0  0  0  0  0  0  0  0  0  0  0  0
  2  1  2  0  0  0  0
  5  1  1  0  0  0  0
  5  3  2  0  0  0  0
  6  4  1  1  0  0  0
  7  3  1  0  0  0  0
  8  6  1  0  0  0  0
  9  8  1  0  0  0  0
 10  9  1  0  0  0  0
 11  5  1  0  0  0  0
 12  2  1  0  0  0  0
 12  7  1  0  0  0  0
 10 12  1  1  0  0  0
 13  4  1  0  0  0  0
 14  7  2  0  0  0  0
  8 15  1  6  0  0  0
  9 16  1  6  0  0  0
 17  6  1  0  0  0  0
 17 10  1  0  0  0  0
  6 18  1  6  0  0  0
  8 19  1  1  0  0  0
  9 20  1  1  0  0  0
 10 21  1  6  0  0  0
M  END
> <DATABASE_ID>
DB04385

> <DATABASE_NAME>
drugbank

> <SMILES>
[H][C@]1(CO)O[C@@]([H])(N2C=CC(N)=CC2=O)[C@]([H])(O)[C@]1([H])O

> <INCHI_IDENTIFIER>
InChI=1S/C10H14N2O5/c11-5-1-2-12(7(14)3-5)10-9(16)8(15)6(4-13)17-10/h1-3,6,8-10,13,15-16H,4,11H2/t6-,8-,9-,10-/m1/s1

> <INCHI_KEY>
OGADSZTVCUXSOK-PEBGCTIMSA-N

> <FORMULA>
C10H14N2O5

> <MOLECULAR_WEIGHT>
242.2286

> <EXACT_MASS>
242.090271568

> <JCHEM_ACCEPTOR_COUNT>
6

> <JCHEM_ATOM_COUNT>
31

> <JCHEM_AVERAGE_NEUTRAL_MICROSPECIES_CHARGE>
-2.9715138211903434e-06

> <JCHEM_AVERAGE_POLARIZABILITY>
23.03303764030004

> <JCHEM_BIOAVAILABILITY>
1

> <JCHEM_DONOR_COUNT>
4

> <JCHEM_FORMAL_CHARGE>
0

> <JCHEM_GHOSE_FILTER>
0

> <JCHEM_IUPAC>
4-amino-1-[(2R,3R,4S,5R)-3,4-dihydroxy-5-(hydroxymethyl)oxolan-2-yl]-1,2-dihydropyridin-2-one

> <ALOGPS_LOGP>
-2.08

> <JCHEM_LOGP>
-2.5792837169999996

> <ALOGPS_LOGS>
-0.07

> <JCHEM_MDDR_LIKE_RULE>
0

> <JCHEM_NEUTRAL_CHARGE>
0

> <JCHEM_NUMBER_OF_RINGS>
2

> <JCHEM_PHYSIOLOGICAL_CHARGE>
0

> <JCHEM_PKA>
13.934453987368066

> <JCHEM_PKA_STRONGEST_ACIDIC>
12.55495182351234

> <JCHEM_PKA_STRONGEST_BASIC>
-2.980299254240512

> <JCHEM_POLAR_SURFACE_AREA>
116.25000000000001

> <JCHEM_REFRACTIVITY>
58.191399999999994

> <JCHEM_ROTATABLE_BOND_COUNT>
2

> <JCHEM_RULE_OF_FIVE>
1

> <ALOGPS_SOLUBILITY>
2.08e+02 g/l

> <JCHEM_TRADITIONAL_IUPAC>
tetrahydrofolic acid

> <JCHEM_VEBER_RULE>
0

> <DRUGBANK_ID>
DB04385

> <SECONDARY_ACCESSION_NUMBERS>
EXPT01050

> <DRUG_GROUPS>
experimental

> <GENERIC_NAME>
3-Deazacytidine

$$$$
