
  Mrv0541 05031419052D          

 35 38  0  0  1  0            999 V2000
    3.5724    5.3625    0.0000 C   0  0  0  0  0  0  0  0  0  0  0  0
    4.2868    4.1250    0.0000 C   0  0  0  0  0  0  0  0  0  0  0  0
   -1.0396    7.2104    0.0000 C   0  0  0  0  0  0  0  0  0  0  0  0
    0.7145    2.8875    0.0000 C   0  0  0  0  0  0  0  0  0  0  0  0
    2.1434    2.8875    0.0000 C   0  0  0  0  0  0  0  0  0  0  0  0
    0.7145    2.0625    0.0000 C   0  0  0  0  0  0  0  0  0  0  0  0
    2.1434    2.0625    0.0000 C   0  0  0  0  0  0  0  0  0  0  0  0
   -0.0000    6.6000    0.0000 C   0  0  0  0  0  0  0  0  0  0  0  0
    1.4289    6.6000    0.0000 C   0  0  0  0  0  0  0  0  0  0  0  0
   -0.0000    5.7750    0.0000 C   0  0  0  0  0  0  0  0  0  0  0  0
    1.4289    5.7750    0.0000 C   0  0  0  0  0  0  0  0  0  0  0  0
   -1.2695    8.6625    0.0000 C   0  0  0  0  0  0  0  0  0  0  0  0
    2.1434    4.5375    0.0000 C   0  0  0  0  0  0  0  0  0  0  0  0
    1.4289    9.0750    0.0000 C   0  0  0  0  0  0  0  0  0  0  0  0
    3.5724    4.5375    0.0000 C   0  0  0  0  0  0  0  0  0  0  0  0
   -0.7846    7.9951    0.0000 C   0  0  2  0  0  0  0  0  0  0  0  0
    1.4289    3.3000    0.0000 C   0  0  0  0  0  0  0  0  0  0  0  0
    1.4289    1.6500    0.0000 C   0  0  0  0  0  0  0  0  0  0  0  0
    1.4289    4.1250    0.0000 C   0  0  2  0  0  0  0  0  0  0  0  0
   -0.7846    9.3299    0.0000 C   0  0  2  0  0  0  0  0  0  0  0  0
   -0.0000    8.2500    0.0000 C   0  0  0  0  0  0  0  0  0  0  0  0
   -0.0000    9.0750    0.0000 C   0  0  0  0  0  0  0  0  0  0  0  0
    0.7145    7.8375    0.0000 C   0  0  0  0  0  0  0  0  0  0  0  0
    0.7145    4.5375    0.0000 C   0  0  0  0  0  0  0  0  0  0  0  0
    1.4289    0.8250    0.0000 Cl  0  0  0  0  0  0  0  0  0  0  0  0
    2.8579    4.1250    0.0000 N   0  0  0  0  0  0  0  0  0  0  0  0
    0.7145    9.4875    0.0000 N   0  0  0  0  0  0  0  0  0  0  0  0
    1.4289    8.2500    0.0000 N   0  0  0  0  0  0  0  0  0  0  0  0
    0.7145    7.0125    0.0000 N   0  0  0  0  0  0  0  0  0  0  0  0
    0.7145    5.3625    0.0000 N   0  0  0  0  0  0  0  0  0  0  0  0
   -1.0396   10.1146    0.0000 O   0  0  0  0  0  0  0  0  0  0  0  0
   -0.0000    4.1250    0.0000 O   0  0  0  0  0  0  0  0  0  0  0  0
   -1.5995    7.8660    0.0000 H   0  0  0  0  0  0  0  0  0  0  0  0
    2.1434    3.7125    0.0000 H   0  0  0  0  0  0  0  0  0  0  0  0
   -1.5995    9.4590    0.0000 H   0  0  0  0  0  0  0  0  0  0  0  0
  6  4  1  0  0  0  0
  7  5  2  0  0  0  0
 10  8  1  0  0  0  0
 11  9  1  0  0  0  0
 15  1  1  0  0  0  0
 15  2  1  0  0  0  0
 16  3  1  6  0  0  0
 16 12  1  0  0  0  0
 17  4  2  0  0  0  0
 17  5  1  0  0  0  0
 18  6  2  0  0  0  0
 18  7  1  0  0  0  0
 19 13  1  0  0  0  0
 19 17  1  0  0  0  0
 20 12  1  0  0  0  0
 21 16  1  0  0  0  0
 22 20  1  0  0  0  0
 22 21  2  0  0  0  0
 23 21  1  0  0  0  0
 19 24  1  1  0  0  0
 25 18  1  0  0  0  0
 26 13  1  0  0  0  0
 26 15  1  0  0  0  0
 27 14  2  0  0  0  0
 27 22  1  0  0  0  0
 28 14  1  0  0  0  0
 28 23  2  0  0  0  0
 29  8  1  0  0  0  0
 29  9  1  0  0  0  0
 29 23  1  0  0  0  0
 30 10  1  0  0  0  0
 30 11  1  0  0  0  0
 30 24  1  0  0  0  0
 20 31  1  1  0  0  0
 32 24  2  0  0  0  0
 16 33  1  1  0  0  0
 19 34  1  1  0  0  0
 20 35  1  6  0  0  0
M  END
> <DATABASE_ID>
DB11743

> <DATABASE_NAME>
drugbank

> <SMILES>
[H][C@](CNC(C)C)(C(=O)N1CCN(CC1)C1=NC=NC2=C1[C@]([H])(C)C[C@@]2([H])O)C1=CC=C(Cl)C=C1

> <INCHI_IDENTIFIER>
InChI=1S/C24H32ClN5O2/c1-15(2)26-13-19(17-4-6-18(25)7-5-17)24(32)30-10-8-29(9-11-30)23-21-16(3)12-20(31)22(21)27-14-28-23/h4-7,14-16,19-20,26,31H,8-13H2,1-3H3/t16-,19-,20-/m1/s1

> <INCHI_KEY>
GRZXWCHAXNAUHY-NSISKUIASA-N

> <FORMULA>
C24H32ClN5O2

> <MOLECULAR_WEIGHT>
457.996

> <EXACT_MASS>
457.224453

> <JCHEM_ACCEPTOR_COUNT>
6

> <JCHEM_ATOM_COUNT>
64

> <JCHEM_AVERAGE_NEUTRAL_MICROSPECIES_CHARGE>
1.030962595919587

> <JCHEM_AVERAGE_POLARIZABILITY>
50.29404531290047

> <JCHEM_BIOAVAILABILITY>
1

> <JCHEM_DONOR_COUNT>
2

> <JCHEM_FORMAL_CHARGE>
0

> <JCHEM_GHOSE_FILTER>
1

> <JCHEM_IUPAC>
(2S)-2-(4-chlorophenyl)-1-{4-[(5R,7R)-7-hydroxy-5-methyl-5H,6H,7H-cyclopenta[d]pyrimidin-4-yl]piperazin-1-yl}-3-[(propan-2-yl)amino]propan-1-one

> <ALOGPS_LOGP>
2.61

> <JCHEM_LOGP>
2.9234866336666676

> <ALOGPS_LOGS>
-3.95

> <JCHEM_MDDR_LIKE_RULE>
1

> <JCHEM_NEUTRAL_CHARGE>
1

> <JCHEM_NUMBER_OF_RINGS>
4

> <JCHEM_PHYSIOLOGICAL_CHARGE>
1

> <JCHEM_PKA_STRONGEST_ACIDIC>
13.683991625397233

> <JCHEM_PKA_STRONGEST_BASIC>
9.488182160819962

> <JCHEM_POLAR_SURFACE_AREA>
81.59

> <JCHEM_REFRACTIVITY>
127.75929999999998

> <JCHEM_ROTATABLE_BOND_COUNT>
6

> <JCHEM_RULE_OF_FIVE>
1

> <ALOGPS_SOLUBILITY>
5.16e-02 g/l

> <JCHEM_TRADITIONAL_IUPAC>
biotin

> <JCHEM_VEBER_RULE>
0

> <DRUGBANK_ID>
DB11743

> <DRUG_GROUPS>
investigational

> <GENERIC_NAME>
Ipatasertib

> <SYNONYMS>
Ipatasertib

$$$$
