
  Mrv0541 02231218112D          

 72 73  0  0  0  0            999 V2000
    6.6564   -4.6886    0.0000 Gd  0  1  0  0  0  0  0  0  0  0  0  0
   12.6665   -4.2635    0.0000 O   0  0  0  0  0  0  0  0  0  0  0  0
    2.0680   -4.4832    0.0000 O   0  0  0  0  0  0  0  0  0  0  0  0
    8.1659    0.6470    0.0000 O   0  0  0  0  0  0  0  0  0  0  0  0
    6.5011    0.6470    0.0000 O   0  0  0  0  0  0  0  0  0  0  0  0
   10.2282    1.3615    0.0000 O   0  0  0  0  0  0  0  0  0  0  0  0
    6.9136    2.7903    0.0000 O   0  0  0  0  0  0  0  0  0  0  0  0
   11.8781    2.7903    0.0000 O   0  0  0  0  0  0  0  0  0  0  0  0
    6.5011    4.9335    0.0000 O   0  0  0  0  0  0  0  0  0  0  0  0
   13.9404    3.5047    0.0000 O   0  0  0  0  0  0  0  0  0  0  0  0
    6.9136    7.0768    0.0000 O   0  0  0  0  0  0  0  0  0  0  0  0
    5.9420   -5.1011    0.0000 O   0  5  0  0  0  0  0  0  0  0  0  0
    6.7996   -3.8762    0.0000 O   0  5  0  0  0  0  0  0  0  0  0  0
    5.2276   -6.3385    0.0000 O   0  0  0  0  0  0  0  0  0  0  0  0
    7.4317   -4.4065    0.0000 O   0  0  0  0  0  0  0  0  0  0  0  0
    7.3708   -5.1011    0.0000 N   0  5  0  0  0  0  0  0  0  0  0  0
    8.5165   -3.8435    0.0000 N   0  0  0  0  0  0  0  0  0  0  0  0
    6.2066   -3.8062    0.0000 N   0  0  0  0  0  0  0  0  0  0  0  0
    8.1734   -2.2495    0.0000 N   0  0  0  0  0  0  0  0  0  0  0  0
    6.4936   -2.2495    0.0000 N   0  0  0  0  0  0  0  0  0  0  0  0
    7.7908   -6.3936    0.0000 C   0  0  0  0  0  0  0  0  0  0  0  0
    6.9509   -6.3936    0.0000 C   0  0  0  0  0  0  0  0  0  0  0  0
    8.0503   -5.5948    0.0000 C   0  0  0  0  0  0  0  0  0  0  0  0
    6.6913   -5.5948    0.0000 C   0  0  0  0  0  0  0  0  0  0  0  0
    9.8090   -4.2635    0.0000 C   0  0  0  0  0  0  0  0  0  0  0  0
    4.9141   -4.2262    0.0000 C   0  0  0  0  0  0  0  0  0  0  0  0
    8.3428   -7.0066    0.0000 C   0  0  0  0  0  0  0  0  0  0  0  0
    6.7235   -7.1867    0.0000 C   0  0  0  0  0  0  0  0  0  0  0  0
    9.0237   -4.5137    0.0000 C   0  0  0  0  0  0  0  0  0  0  0  0
    5.7179   -4.5137    0.0000 C   0  0  0  0  0  0  0  0  0  0  0  0
    8.8491   -5.3353    0.0000 C   0  0  0  0  0  0  0  0  0  0  0  0
    5.8926   -5.3353    0.0000 C   0  0  0  0  0  0  0  0  0  0  0  0
   10.5233   -4.6759    0.0000 C   0  0  0  0  0  0  0  0  0  0  0  0
    4.2397   -4.7012    0.0000 C   0  0  0  0  0  0  0  0  0  0  0  0
    9.8090   -3.4235    0.0000 C   0  0  0  0  0  0  0  0  0  0  0  0
    4.9141   -3.3862    0.0000 C   0  0  0  0  0  0  0  0  0  0  0  0
   11.2377   -4.2635    0.0000 C   0  0  0  0  0  0  0  0  0  0  0  0
    3.4910   -4.3547    0.0000 C   0  0  0  0  0  0  0  0  0  0  0  0
    9.0100   -3.1641    0.0000 C   0  0  0  0  0  0  0  0  0  0  0  0
    5.7130   -3.1267    0.0000 C   0  0  0  0  0  0  0  0  0  0  0  0
    8.0879   -7.7912    0.0000 C   0  0  0  0  0  0  0  0  0  0  0  0
    7.2966   -7.7800    0.0000 C   0  0  0  0  0  0  0  0  0  0  0  0
   10.4219   -2.8716    0.0000 C   0  0  0  0  0  0  0  0  0  0  0  0
    4.3011   -2.8343    0.0000 C   0  0  0  0  0  0  0  0  0  0  0  0
   11.9521   -4.6759    0.0000 C   0  0  0  0  0  0  0  0  0  0  0  0
    2.8167   -4.8296    0.0000 C   0  0  0  0  0  0  0  0  0  0  0  0
    8.7505   -2.3652    0.0000 C   0  0  0  0  0  0  0  0  0  0  0  0
    5.8876   -2.3051    0.0000 C   0  0  0  0  0  0  0  0  0  0  0  0
    7.7534   -1.5222    0.0000 C   0  0  0  0  0  0  0  0  0  0  0  0
    6.9136   -1.5222    0.0000 C   0  0  0  0  0  0  0  0  0  0  0  0
    8.1734   -0.7947    0.0000 C   0  0  0  0  0  0  0  0  0  0  0  0
    6.4936   -0.7947    0.0000 C   0  0  0  0  0  0  0  0  0  0  0  0
    7.7534   -0.0674    0.0000 C   0  0  0  0  0  0  0  0  0  0  0  0
    6.9136   -0.0674    0.0000 C   0  0  0  0  0  0  0  0  0  0  0  0
    8.9908    0.6470    0.0000 C   0  0  0  0  0  0  0  0  0  0  0  0
    6.9136    1.3615    0.0000 C   0  0  0  0  0  0  0  0  0  0  0  0
    9.4033    1.3615    0.0000 C   0  0  0  0  0  0  0  0  0  0  0  0
    6.5011    2.0758    0.0000 C   0  0  0  0  0  0  0  0  0  0  0  0
   10.6407    2.0758    0.0000 C   0  0  0  0  0  0  0  0  0  0  0  0
    6.5011    3.5046    0.0000 C   0  0  0  0  0  0  0  0  0  0  0  0
   11.4656    2.0758    0.0000 C   0  0  0  0  0  0  0  0  0  0  0  0
    6.9136    4.2192    0.0000 C   0  0  0  0  0  0  0  0  0  0  0  0
   12.7030    2.7903    0.0000 C   0  0  0  0  0  0  0  0  0  0  0  0
    6.9136    5.6480    0.0000 C   0  0  0  0  0  0  0  0  0  0  0  0
   13.1155    3.5047    0.0000 C   0  0  0  0  0  0  0  0  0  0  0  0
    6.5011    6.3623    0.0000 C   0  0  0  0  0  0  0  0  0  0  0  0
   14.3529    4.2192    0.0000 C   0  0  0  0  0  0  0  0  0  0  0  0
    6.5011    7.7912    0.0000 C   0  0  0  0  0  0  0  0  0  0  0  0
    6.0852   -6.7384    0.0000 C   0  0  0  0  0  0  0  0  0  0  0  0
    7.7181   -2.7817    0.0000 C   0  0  0  0  0  0  0  0  0  0  0  0
    5.9420   -5.9261    0.0000 C   0  0  0  0  0  0  0  0  0  0  0  0
    7.5748   -3.5941    0.0000 C   0  0  0  0  0  0  0  0  0  0  0  0
  2 45  1  0  0  0  0
  3 46  1  0  0  0  0
  4 53  1  0  0  0  0
  4 55  1  0  0  0  0
  5 54  1  0  0  0  0
  5 56  1  0  0  0  0
  6 57  1  0  0  0  0
  6 59  1  0  0  0  0
  7 58  1  0  0  0  0
  7 60  1  0  0  0  0
  8 61  1  0  0  0  0
  8 63  1  0  0  0  0
  9 62  1  0  0  0  0
  9 64  1  0  0  0  0
 10 65  1  0  0  0  0
 10 67  1  0  0  0  0
 11 66  1  0  0  0  0
 11 68  1  0  0  0  0
 12 71  1  0  0  0  0
 13 72  1  0  0  0  0
 14 71  2  0  0  0  0
 15 72  2  0  0  0  0
 16 23  1  0  0  0  0
 16 24  1  0  0  0  0
 17 29  2  0  0  0  0
 17 39  1  0  0  0  0
 18 30  2  0  0  0  0
 18 40  1  0  0  0  0
 19 47  1  0  0  0  0
 19 49  2  0  0  0  0
 20 48  1  0  0  0  0
 20 50  2  0  0  0  0
 21 22  2  0  0  0  0
 21 23  1  0  0  0  0
 21 27  1  0  0  0  0
 22 24  1  0  0  0  0
 22 28  1  0  0  0  0
 23 31  2  0  0  0  0
 24 32  2  0  0  0  0
 25 29  1  0  0  0  0
 25 33  1  0  0  0  0
 25 35  2  0  0  0  0
 26 30  1  0  0  0  0
 26 34  1  0  0  0  0
 26 36  2  0  0  0  0
 27 41  1  0  0  0  0
 28 42  1  0  0  0  0
 29 31  1  0  0  0  0
 30 32  1  0  0  0  0
 33 37  1  0  0  0  0
 34 38  1  0  0  0  0
 35 39  1  0  0  0  0
 35 43  1  0  0  0  0
 36 40  1  0  0  0  0
 36 44  1  0  0  0  0
 37 45  1  0  0  0  0
 38 46  1  0  0  0  0
 39 47  2  0  0  0  0
 40 48  2  0  0  0  0
 49 50  1  0  0  0  0
 49 51  1  0  0  0  0
 50 52  1  0  0  0  0
 51 53  2  0  0  0  0
 52 54  2  0  0  0  0
 53 54  1  0  0  0  0
 55 57  1  0  0  0  0
 56 58  1  0  0  0  0
 59 61  1  0  0  0  0
 60 62  1  0  0  0  0
 63 65  1  0  0  0  0
 64 66  1  0  0  0  0
 69 71  1  0  0  0  0
 70 72  1  0  0  0  0
M  CHG  4   1   3  12  -1  13  -1  16  -1
M  END
> <DATABASE_ID>
DB05428

> <DATABASE_NAME>
drugbank

> <SMILES>
[Gd+3].CC([O-])=O.CC([O-])=O.CCC1=C(CC)/C2=C/C3=N/C(=C\N=C4/C=C(OCCOCCOCCOC)C(OCCOCCOCCOC)=C/C/4=N\C=C4/N=C(/C=C\1\[N-]\2)C(CCCO)=C4C)/C(C)=C3CCCO

> <INCHI_IDENTIFIER>
InChI=1S/C48H66N5O10.2C2H4O2.Gd/c1-7-35-36(8-2)40-28-42-38(12-10-14-55)34(4)46(53-42)32-50-44-30-48(63-26-24-61-22-20-59-18-16-57-6)47(62-25-23-60-21-19-58-17-15-56-5)29-43(44)49-31-45-33(3)37(11-9-13-54)41(52-45)27-39(35)51-40;2*1-2(3)4;/h27-32,54-55H,7-26H2,1-6H3;2*1H3,(H,3,4);/q-1;;;+3/p-2/b39-27-,40-28-,41-27-,42-28-,45-31-,46-32-,49-31+,49-43+,50-32+,50-44+;;;

> <INCHI_KEY>
VAZLWPAHMORDGR-WRIGXHCHSA-L

> <FORMULA>
C52H72GdN5O14

> <MOLECULAR_WEIGHT>
1148.4

> <EXACT_MASS>
1148.43167757

> <JCHEM_ACCEPTOR_COUNT>
15

> <JCHEM_ATOM_COUNT>
144

> <JCHEM_AVERAGE_NEUTRAL_MICROSPECIES_CHARGE>
3.5034935401128405e-05

> <JCHEM_AVERAGE_POLARIZABILITY>
103.73463602960635

> <JCHEM_BIOAVAILABILITY>
0

> <JCHEM_DONOR_COUNT>
2

> <JCHEM_FORMAL_CHARGE>
0

> <JCHEM_GHOSE_FILTER>
0

> <JCHEM_IUPAC>
gadolinium(3+) 4,5-diethyl-9,24-bis(3-hydroxypropyl)-16,17-bis({2-[2-(2-methoxyethoxy)ethoxy]ethoxy})-10,23-dimethyl-13,20,25,26,27-pentaazapentacyclo[20.2.1.1^{3,6}.1^{8,11}.0^{14,19}]heptacosa-1(25),2,4,6,8(26),9,11,13,15,17,19,21,23-tridecaen-27-ide diacetate

> <ALOGPS_LOGP>
4.95

> <JCHEM_LOGP>
6.764884776000001

> <ALOGPS_LOGS>
-4.97

> <JCHEM_MDDR_LIKE_RULE>
1

> <JCHEM_NEUTRAL_CHARGE>
0

> <JCHEM_NUMBER_OF_RINGS>
5

> <JCHEM_PHYSIOLOGICAL_CHARGE>
0

> <JCHEM_PKA>
16.162594253448425

> <JCHEM_PKA_STRONGEST_ACIDIC>
15.62224489146175

> <JCHEM_PKA_STRONGEST_BASIC>
2.447632821826391

> <JCHEM_POLAR_SURFACE_AREA>
178.75

> <JCHEM_REFRACTIVITY>
243.0796999999999

> <JCHEM_ROTATABLE_BOND_COUNT>
28

> <JCHEM_RULE_OF_FIVE>
0

> <ALOGPS_SOLUBILITY>
1.22e-02 g/l

> <JCHEM_TRADITIONAL_IUPAC>
tetrahydrofolic acid

> <JCHEM_VEBER_RULE>
0

> <DRUGBANK_ID>
DB05428

> <DRUG_GROUPS>
investigational

> <GENERIC_NAME>
Motexafin gadolinium

> <SYNONYMS>
Gadolinium texaphyrin; Motexafin gadolinium

> <INTERNATIONAL_BRANDS>
Xcytrin

$$$$
