
  Mrv0541 05041404522D          

 18 19  0  0  1  0            999 V2000
    1.3556   -0.1271    0.0000 C   0  0  0  0  0  0  0  0  0  0  0  0
    1.3556    0.6979    0.0000 C   0  0  2  0  0  0  0  0  0  0  0  0
    2.0701    1.1104    0.0000 C   0  0  1  0  0  0  0  0  0  0  0  0
    2.0701    1.9354    0.0000 C   0  0  1  0  0  0  0  0  0  0  0  0
    1.3556    2.3479    0.0000 C   0  0  2  0  0  0  0  0  0  0  0  0
    0.6411    1.9354    0.0000 C   0  0  0  0  0  0  0  0  0  0  0  0
   -0.1435    2.1904    0.0000 N   0  0  0  0  0  0  0  0  0  0  0  0
   -0.6284    1.5229    0.0000 N   0  0  0  0  0  0  0  0  0  0  0  0
   -0.1435    0.8555    0.0000 N   0  0  0  0  0  0  0  0  0  0  0  0
    0.6411    1.1104    0.0000 N   0  0  0  0  0  0  0  0  0  0  0  0
    0.6411   -0.5396    0.0000 O   0  0  0  0  0  0  0  0  0  0  0  0
    2.7845    0.6979    0.0000 O   0  0  0  0  0  0  0  0  0  0  0  0
    2.7845    2.3479    0.0000 O   0  0  0  0  0  0  0  0  0  0  0  0
    1.3556    3.1729    0.0000 O   0  0  0  0  0  0  0  0  0  0  0  0
    2.1681    0.5547    0.0000 H   0  0  0  0  0  0  0  0  0  0  0  0
    2.3522    0.3352    0.0000 H   0  0  0  0  0  0  0  0  0  0  0  0
    2.7845    1.5229    0.0000 H   0  0  0  0  0  0  0  0  0  0  0  0
    2.0701    2.7604    0.0000 H   0  0  0  0  0  0  0  0  0  0  0  0
  2  1  1  1  0  0  0
  3  2  1  0  0  0  0
  4  3  1  0  0  0  0
  5  4  1  0  0  0  0
  6  5  1  0  0  0  0
  7  6  2  0  0  0  0
  8  7  1  0  0  0  0
  9  8  2  0  0  0  0
 10  2  1  0  0  0  0
 10  6  1  0  0  0  0
 10  9  1  0  0  0  0
 11  1  1  0  0  0  0
  3 12  1  1  0  0  0
  4 13  1  1  0  0  0
  5 14  1  6  0  0  0
  2 15  1  6  0  0  0
  3 16  1  6  0  0  0
  4 17  1  6  0  0  0
  5 18  1  1  0  0  0
M  END
> <DATABASE_ID>
DB02294

> <DATABASE_NAME>
drugbank

> <SMILES>
[H][C@]1(O)C2=NN=NN2[C@]([H])(CO)[C@]([H])(O)[C@]1([H])O

> <INCHI_IDENTIFIER>
InChI=1S/C6H10N4O4/c11-1-2-3(12)4(13)5(14)6-7-8-9-10(2)6/h2-5,11-14H,1H2/t2-,3+,4+,5-/m1/s1

> <INCHI_KEY>
UCJXQRFJERKPOZ-MGCNEYSASA-N

> <FORMULA>
C6H10N4O4

> <MOLECULAR_WEIGHT>
202.168

> <EXACT_MASS>
202.070204828

> <JCHEM_ACCEPTOR_COUNT>
7

> <JCHEM_ATOM_COUNT>
24

> <JCHEM_AVERAGE_NEUTRAL_MICROSPECIES_CHARGE>
-1.0159832696038086e-05

> <JCHEM_AVERAGE_POLARIZABILITY>
17.415876616189298

> <JCHEM_BIOAVAILABILITY>
1

> <JCHEM_DONOR_COUNT>
4

> <JCHEM_FORMAL_CHARGE>
0

> <JCHEM_GHOSE_FILTER>
0

> <JCHEM_IUPAC>
(5R,6S,7S,8S)-5-(hydroxymethyl)-5H,6H,7H,8H-[1,2,3,4]tetrazolo[1,5-a]pyridine-6,7,8-triol

> <ALOGPS_LOGP>
-2.08

> <JCHEM_LOGP>
-3.1920450916666665

> <ALOGPS_LOGS>
-0.63

> <JCHEM_MDDR_LIKE_RULE>
0

> <JCHEM_NEUTRAL_CHARGE>
0

> <JCHEM_NUMBER_OF_RINGS>
2

> <JCHEM_PHYSIOLOGICAL_CHARGE>
0

> <JCHEM_PKA>
13.275709611776739

> <JCHEM_PKA_STRONGEST_ACIDIC>
12.024312060892035

> <JCHEM_PKA_STRONGEST_BASIC>
-1.9439076346013953

> <JCHEM_POLAR_SURFACE_AREA>
124.52000000000001

> <JCHEM_REFRACTIVITY>
55.34129999999999

> <JCHEM_ROTATABLE_BOND_COUNT>
1

> <JCHEM_RULE_OF_FIVE>
1

> <ALOGPS_SOLUBILITY>
4.78e+01 g/l

> <JCHEM_TRADITIONAL_IUPAC>
biotin

> <JCHEM_VEBER_RULE>
0

> <DRUGBANK_ID>
DB02294

> <SECONDARY_ACCESSION_NUMBERS>
EXPT01666

> <DRUG_GROUPS>
experimental

> <GENERIC_NAME>
(5R,6S,7S,8S)-5-hydroxymethyl-6,7,8-trihydroxy-tetrazolo[1,5-A]piperidine

$$$$
