
  Mrv0541 02231217232D          

  5  4  0  0  0  0            999 V2000
    2.8875   -0.7145    0.0000 C   0  0  0  0  0  0  0  0  0  0  0  0
    2.0625   -0.7145    0.0000 C   0  0  0  0  0  0  0  0  0  0  0  0
    1.6500    0.0000    0.0000 C   0  0  0  0  0  0  0  0  0  0  0  0
    0.8250    0.0000    0.0000 N   0  3  0  0  0  0  0  0  0  0  0  0
    0.0000    0.0000    0.0000 C   0  5  0  0  0  0  0  0  0  0  0  0
  1  2  1  0  0  0  0
  2  3  1  0  0  0  0
  3  4  1  0  0  0  0
  4  5  3  0  0  0  0
M  CHG  2   4   1   5  -1
M  END
> <DATABASE_ID>
DB04050

> <DATABASE_NAME>
drugbank

> <SMILES>
CCC[N+]#[C-]

> <INCHI_IDENTIFIER>
InChI=1S/C4H7N/c1-3-4-5-2/h3-4H2,1H3

> <INCHI_KEY>
FFDKYFGBIQQMSR-UHFFFAOYSA-N

> <FORMULA>
C4H7N

> <MOLECULAR_WEIGHT>
69.1051

> <EXACT_MASS>
69.057849229

> <JCHEM_ACCEPTOR_COUNT>
0

> <JCHEM_ATOM_COUNT>
12

> <JCHEM_AVERAGE_NEUTRAL_MICROSPECIES_CHARGE>
0.9999999993924935

> <JCHEM_AVERAGE_POLARIZABILITY>
8.233911566507595

> <JCHEM_BIOAVAILABILITY>
1

> <JCHEM_DONOR_COUNT>
0

> <JCHEM_FORMAL_CHARGE>
0

> <JCHEM_GHOSE_FILTER>
0

> <JCHEM_IUPAC>
1-isocyanopropane

> <ALOGPS_LOGP>
1.62

> <JCHEM_LOGP>
-1.079078653542612

> <ALOGPS_LOGS>
-2.00

> <JCHEM_MDDR_LIKE_RULE>
0

> <JCHEM_NEUTRAL_CHARGE>
1

> <JCHEM_NUMBER_OF_RINGS>
0

> <JCHEM_PHYSIOLOGICAL_CHARGE>
1

> <JCHEM_PKA_STRONGEST_ACIDIC>
16.216449107408106

> <JCHEM_POLAR_SURFACE_AREA>
4.36

> <JCHEM_REFRACTIVITY>
30.7842

> <JCHEM_ROTATABLE_BOND_COUNT>
1

> <JCHEM_RULE_OF_FIVE>
1

> <ALOGPS_SOLUBILITY>
1.24e+00 g/l

> <JCHEM_TRADITIONAL_IUPAC>
tetrahydrofolic acid

> <JCHEM_VEBER_RULE>
1

> <DRUGBANK_ID>
DB04050

> <SECONDARY_ACCESSION_NUMBERS>
EXPT02384

> <DRUG_GROUPS>
experimental

> <GENERIC_NAME>
N-Propyl Isocyanide

$$$$
