
  Mrv0541 02231216012D          

 11 11  0  0  1  0            999 V2000
    2.1913    1.6913    0.0000 O   0  0  0  0  0  0  0  0  0  0  0  0
    2.0198    0.8843    0.0000 C   0  0  0  0  0  0  0  0  0  0  0  0
    1.2352    0.6294    0.0000 C   0  0  2  0  0  0  0  0  0  0  0  0
    0.9803   -0.1553    0.0000 N   0  0  0  0  0  0  0  0  0  0  0  0
    0.1553   -0.1553    0.0000 C   0  0  1  0  0  0  0  0  0  0  0  0
   -0.3297   -0.8227    0.0000 C   0  0  0  0  0  0  0  0  0  0  0  0
    0.0059   -1.5764    0.0000 O   0  0  0  0  0  0  0  0  0  0  0  0
   -0.0997    0.6294    0.0000 C   0  0  2  0  0  0  0  0  0  0  0  0
   -0.8843    0.8843    0.0000 O   0  0  0  0  0  0  0  0  0  0  0  0
    0.5678    1.1143    0.0000 C   0  0  1  0  0  0  0  0  0  0  0  0
    0.5678    1.9393    0.0000 O   0  0  0  0  0  0  0  0  0  0  0  0
  1  2  1  0  0  0  0
  3  2  1  6  0  0  0
  3  4  1  0  0  0  0
  4  5  1  0  0  0  0
  5  6  1  1  0  0  0
  6  7  1  0  0  0  0
  5  8  1  0  0  0  0
  8  9  1  6  0  0  0
  8 10  1  0  0  0  0
  3 10  1  0  0  0  0
 10 11  1  1  0  0  0
M  END
> <DATABASE_ID>
DB02172

> <DATABASE_NAME>
drugbank

> <SMILES>
OC[C@@H]1N[C@@H](CO)[C@H](O)[C@H]1O

> <INCHI_IDENTIFIER>
InChI=1S/C6H13NO4/c8-1-3-5(10)6(11)4(2-9)7-3/h3-11H,1-2H2/t3-,4-,5-,6-/m0/s1

> <INCHI_KEY>
PFYHYHZGDNWFIF-BXKVDMCESA-N

> <FORMULA>
C6H13NO4

> <MOLECULAR_WEIGHT>
163.1717

> <EXACT_MASS>
163.084457909

> <JCHEM_ACCEPTOR_COUNT>
5

> <JCHEM_ATOM_COUNT>
24

> <JCHEM_AVERAGE_NEUTRAL_MICROSPECIES_CHARGE>
0.987076491254864

> <JCHEM_AVERAGE_POLARIZABILITY>
16.119964115258007

> <JCHEM_BIOAVAILABILITY>
1

> <JCHEM_DONOR_COUNT>
5

> <JCHEM_FORMAL_CHARGE>
0

> <JCHEM_GHOSE_FILTER>
0

> <JCHEM_IUPAC>
(2S,3S,4S,5S)-2,5-bis(hydroxymethyl)pyrrolidine-3,4-diol

> <ALOGPS_LOGP>
-2.00

> <JCHEM_LOGP>
-2.885743183

> <ALOGPS_LOGS>
0.30

> <JCHEM_MDDR_LIKE_RULE>
0

> <JCHEM_NEUTRAL_CHARGE>
1

> <JCHEM_NUMBER_OF_RINGS>
1

> <JCHEM_PHYSIOLOGICAL_CHARGE>
1

> <JCHEM_PKA>
14.394871600783032

> <JCHEM_PKA_STRONGEST_ACIDIC>
13.180374088933199

> <JCHEM_PKA_STRONGEST_BASIC>
8.882975492311811

> <JCHEM_POLAR_SURFACE_AREA>
92.95

> <JCHEM_REFRACTIVITY>
36.5744

> <JCHEM_ROTATABLE_BOND_COUNT>
2

> <JCHEM_RULE_OF_FIVE>
1

> <ALOGPS_SOLUBILITY>
3.23e+02 g/l

> <JCHEM_TRADITIONAL_IUPAC>
tetrahydrofolic acid

> <JCHEM_VEBER_RULE>
0

> <DRUGBANK_ID>
DB02172

> <SECONDARY_ACCESSION_NUMBERS>
EXPT01205

> <DRUG_GROUPS>
experimental

> <GENERIC_NAME>
2,5-Dideoxy-2,5-Imino-D-Glucitol

$$$$
