
  Mrv0541 05041405492D          

 26 26  0  0  1  0            999 V2000
    4.2868   -0.8250    0.0000 C   0  0  0  0  0  0  0  0  0  0  0  0
    5.7158   -1.6500    0.0000 C   0  0  0  0  0  0  0  0  0  0  0  0
    9.2881   -2.8875    0.0000 C   0  0  0  0  0  0  0  0  0  0  0  0
    5.0013   -0.4125    0.0000 C   0  0  0  0  0  0  0  0  0  0  0  0
   10.0026   -0.8250    0.0000 C   0  0  0  0  0  0  0  0  0  0  0  0
    7.8592   -0.4125    0.0000 C   0  0  0  0  0  0  0  0  0  0  0  0
    9.2881    0.4125    0.0000 C   0  0  0  0  0  0  0  0  0  0  0  0
    5.7158   -0.8250    0.0000 C   0  0  1  0  0  0  0  0  0  0  0  0
    9.2881   -2.0625    0.0000 C   0  0  0  0  0  0  0  0  0  0  0  0
    9.2881   -0.4125    0.0000 C   0  0  0  0  0  0  0  0  0  0  0  0
    8.5737   -0.8250    0.0000 C   0  0  0  0  0  0  0  0  0  0  0  0
    6.4302   -0.4125    0.0000 C   0  0  2  0  0  0  0  0  0  0  0  0
    8.5737   -1.6500    0.0000 C   0  0  0  0  0  0  0  0  0  0  0  0
    6.4302    0.4125    0.0000 C   0  0  0  0  0  0  0  0  0  0  0  0
   10.0026   -1.6500    0.0000 N   0  0  0  0  0  0  0  0  0  0  0  0
    7.1447   -0.8250    0.0000 N   0  0  0  0  0  0  0  0  0  0  0  0
    7.8592   -2.0625    0.0000 O   0  0  0  0  0  0  0  0  0  0  0  0
    7.1447    0.8250    0.0000 O   0  0  0  0  0  0  0  0  0  0  0  0
    5.7158    0.8250    0.0000 O   0  0  0  0  0  0  0  0  0  0  0  0
   10.0026    2.4750    0.0000 O   0  0  0  0  0  0  0  0  0  0  0  0
   10.8276    1.6500    0.0000 O   0  0  0  0  0  0  0  0  0  0  0  0
    9.1776    1.6500    0.0000 O   0  0  0  0  0  0  0  0  0  0  0  0
   10.0026    0.8250    0.0000 O   0  0  0  0  0  0  0  0  0  0  0  0
   10.0026    1.6500    0.0000 P   0  0  0  0  0  0  0  0  0  0  0  0
    5.0013   -1.2375    0.0000 H   0  0  0  0  0  0  0  0  0  0  0  0
    5.7158    0.0000    0.0000 H   0  0  0  0  0  0  0  0  0  0  0  0
  4  1  1  0  0  0  0
  8  2  1  1  0  0  0
  8  4  1  0  0  0  0
  9  3  1  0  0  0  0
 10  5  1  0  0  0  0
 10  7  1  0  0  0  0
 11  6  1  0  0  0  0
 11 10  2  0  0  0  0
 12  8  1  0  0  0  0
 13  9  2  0  0  0  0
 13 11  1  0  0  0  0
 14 12  1  0  0  0  0
 15  5  2  0  0  0  0
 15  9  1  0  0  0  0
 16  6  1  0  0  0  0
 12 16  1  1  0  0  0
 17 13  1  0  0  0  0
 18 14  2  0  0  0  0
 19 14  1  0  0  0  0
 23  7  1  0  0  0  0
 24 20  1  0  0  0  0
 24 21  1  0  0  0  0
 24 22  2  0  0  0  0
 24 23  1  0  0  0  0
  8 25  1  6  0  0  0
 12 26  1  1  0  0  0
M  END
> <DATABASE_ID>
DB02635

> <DATABASE_NAME>
drugbank

> <SMILES>
[H][C@](C)(CC)[C@@]([H])(NCC1=C(COP(O)(O)=O)C=NC(C)=C1O)C(O)=O

> <INCHI_IDENTIFIER>
InChI=1S/C14H23N2O7P/c1-4-8(2)12(14(18)19)16-6-11-10(7-23-24(20,21)22)5-15-9(3)13(11)17/h5,8,12,16-17H,4,6-7H2,1-3H3,(H,18,19)(H2,20,21,22)/t8-,12+/m0/s1

> <INCHI_KEY>
GZZDWFDWHXPWJK-QPUJVOFHSA-N

> <FORMULA>
C14H23N2O7P

> <MOLECULAR_WEIGHT>
362.3154

> <EXACT_MASS>
362.124287612

> <JCHEM_ACCEPTOR_COUNT>
8

> <JCHEM_ATOM_COUNT>
47

> <JCHEM_AVERAGE_NEUTRAL_MICROSPECIES_CHARGE>
-1.969479078399592

> <JCHEM_AVERAGE_POLARIZABILITY>
34.513701132093935

> <JCHEM_BIOAVAILABILITY>
1

> <JCHEM_DONOR_COUNT>
5

> <JCHEM_FORMAL_CHARGE>
0

> <JCHEM_GHOSE_FILTER>
0

> <JCHEM_IUPAC>
(2R,3S)-2-[({3-hydroxy-2-methyl-5-[(phosphonooxy)methyl]pyridin-4-yl}methyl)amino]-3-methylpentanoic acid

> <ALOGPS_LOGP>
-0.15

> <JCHEM_LOGP>
-2.7665861326764354

> <ALOGPS_LOGS>
-2.72

> <JCHEM_MDDR_LIKE_RULE>
0

> <JCHEM_NEUTRAL_CHARGE>
-2

> <JCHEM_NUMBER_OF_RINGS>
1

> <JCHEM_PHYSIOLOGICAL_CHARGE>
-2

> <JCHEM_PKA>
1.9896237268095243

> <JCHEM_PKA_STRONGEST_ACIDIC>
1.1889312408014892

> <JCHEM_PKA_STRONGEST_BASIC>
9.961208329906723

> <JCHEM_POLAR_SURFACE_AREA>
149.21

> <JCHEM_REFRACTIVITY>
85.58539999999999

> <JCHEM_ROTATABLE_BOND_COUNT>
9

> <JCHEM_RULE_OF_FIVE>
1

> <ALOGPS_SOLUBILITY>
6.91e-01 g/l

> <JCHEM_TRADITIONAL_IUPAC>
biotin

> <JCHEM_VEBER_RULE>
0

> <DRUGBANK_ID>
DB02635

> <SECONDARY_ACCESSION_NUMBERS>
EXPT01863

> <DRUG_GROUPS>
experimental

> <GENERIC_NAME>
N-[O-Phosphono-Pyridoxyl]-Isoleucine

$$$$
