
  Mrv0541 05041400472D          

 62 65  0  0  1  0            999 V2000
   -3.5724    8.6625    0.0000 C   0  0  0  0  0  0  0  0  0  0  0  0
   -4.2868    7.4250    0.0000 C   0  0  0  0  0  0  0  0  0  0  0  0
    1.4289    1.6500    0.0000 C   0  0  0  0  0  0  0  0  0  0  0  0
    2.1434    2.8875    0.0000 C   0  0  0  0  0  0  0  0  0  0  0  0
   -1.4289    9.0750    0.0000 C   0  0  0  0  0  0  0  0  0  0  0  0
   -0.7145    1.2375    0.0000 C   0  0  0  0  0  0  0  0  0  0  0  0
   -7.1447    2.4750    0.0000 C   0  0  0  0  0  0  0  0  0  0  0  0
    5.0013    7.8375    0.0000 C   0  0  0  0  0  0  0  0  0  0  0  0
   -6.4302    2.8875    0.0000 C   0  0  0  0  0  0  0  0  0  0  0  0
    4.2868    7.4250    0.0000 C   0  0  0  0  0  0  0  0  0  0  0  0
   -5.0013    5.3625    0.0000 C   0  0  0  0  0  0  0  0  0  0  0  0
   -4.2868    4.1250    0.0000 C   0  0  0  0  0  0  0  0  0  0  0  0
    2.8579    4.9500    0.0000 C   0  0  0  0  0  0  0  0  0  0  0  0
    2.1434    6.1875    0.0000 C   0  0  0  0  0  0  0  0  0  0  0  0
   -5.7158    4.9500    0.0000 C   0  0  0  0  0  0  0  0  0  0  0  0
   -5.0013    3.7125    0.0000 C   0  0  0  0  0  0  0  0  0  0  0  0
    3.5724    5.3625    0.0000 C   0  0  0  0  0  0  0  0  0  0  0  0
    2.8579    6.6000    0.0000 C   0  0  0  0  0  0  0  0  0  0  0  0
   -7.8592    2.8875    0.0000 C   0  0  0  0  0  0  0  0  0  0  0  0
    5.7158    7.4250    0.0000 C   0  0  0  0  0  0  0  0  0  0  0  0
   -7.1447    4.1250    0.0000 C   0  0  0  0  0  0  0  0  0  0  0  0
    5.0013    6.1875    0.0000 C   0  0  0  0  0  0  0  0  0  0  0  0
   -3.5724    5.3625    0.0000 C   0  0  0  0  0  0  0  0  0  0  0  0
    1.4289    4.9500    0.0000 C   0  0  0  0  0  0  0  0  0  0  0  0
   -3.5724    7.8375    0.0000 C   0  0  0  0  0  0  0  0  0  0  0  0
    1.4289    2.4750    0.0000 C   0  0  0  0  0  0  0  0  0  0  0  0
   -4.2868    4.9500    0.0000 C   0  0  0  0  0  0  0  0  0  0  0  0
    2.1434    5.3625    0.0000 C   0  0  0  0  0  0  0  0  0  0  0  0
   -5.7158    4.1250    0.0000 C   0  0  0  0  0  0  0  0  0  0  0  0
    3.5724    6.1875    0.0000 C   0  0  0  0  0  0  0  0  0  0  0  0
   -6.4302    3.7125    0.0000 C   0  0  0  0  0  0  0  0  0  0  0  0
    4.2868    6.6000    0.0000 C   0  0  0  0  0  0  0  0  0  0  0  0
   -2.8579    7.4250    0.0000 C   0  0  1  0  0  0  0  0  0  0  0  0
    0.7145    2.8875    0.0000 C   0  0  1  0  0  0  0  0  0  0  0  0
   -1.4289    4.9500    0.0000 C   0  0  2  0  0  0  0  0  0  0  0  0
   -0.7145    5.3625    0.0000 C   0  0  2  0  0  0  0  0  0  0  0  0
   -2.1434    5.3625    0.0000 C   0  0  2  0  0  0  0  0  0  0  0  0
    0.0000    4.9500    0.0000 C   0  0  2  0  0  0  0  0  0  0  0  0
   -2.1434    7.8375    0.0000 C   0  0  0  0  0  0  0  0  0  0  0  0
    0.0000    2.4750    0.0000 C   0  0  0  0  0  0  0  0  0  0  0  0
   -2.1434    6.1875    0.0000 C   0  0  0  0  0  0  0  0  0  0  0  0
    0.0000    4.1250    0.0000 C   0  0  0  0  0  0  0  0  0  0  0  0
   -2.1434    8.6625    0.0000 N   0  0  0  0  0  0  0  0  0  0  0  0
    0.0000    1.6500    0.0000 N   0  0  0  0  0  0  0  0  0  0  0  0
   -7.8592    3.7125    0.0000 N   0  0  0  0  0  0  0  0  0  0  0  0
    5.7158    6.6000    0.0000 N   0  0  0  0  0  0  0  0  0  0  0  0
   -2.8579    6.6000    0.0000 N   0  0  0  0  0  0  0  0  0  0  0  0
    0.7145    3.7125    0.0000 N   0  0  0  0  0  0  0  0  0  0  0  0
   -1.4289    4.1250    0.0000 O   0  0  0  0  0  0  0  0  0  0  0  0
   -0.7145    6.1875    0.0000 O   0  0  0  0  0  0  0  0  0  0  0  0
   -1.4289    7.4250    0.0000 O   0  0  0  0  0  0  0  0  0  0  0  0
   -0.7145    2.8875    0.0000 O   0  0  0  0  0  0  0  0  0  0  0  0
   -1.4289    6.6000    0.0000 O   0  0  0  0  0  0  0  0  0  0  0  0
   -0.7145    3.7125    0.0000 O   0  0  0  0  0  0  0  0  0  0  0  0
   -2.8579    4.9500    0.0000 O   0  0  0  0  0  0  0  0  0  0  0  0
    0.7145    5.3625    0.0000 O   0  0  0  0  0  0  0  0  0  0  0  0
   -2.8579    8.2500    0.0000 H   0  0  0  0  0  0  0  0  0  0  0  0
    0.7145    2.0625    0.0000 H   0  0  0  0  0  0  0  0  0  0  0  0
   -1.7111    5.7252    0.0000 H   0  0  0  0  0  0  0  0  0  0  0  0
   -0.4323    4.5873    0.0000 H   0  0  0  0  0  0  0  0  0  0  0  0
   -1.6131    5.9945    0.0000 H   0  0  0  0  0  0  0  0  0  0  0  0
   -0.5303    4.3180    0.0000 H   0  0  0  0  0  0  0  0  0  0  0  0
  9  7  2  0  0  0  0
 10  8  2  0  0  0  0
 15 11  1  0  0  0  0
 16 12  2  0  0  0  0
 17 13  1  0  0  0  0
 18 14  2  0  0  0  0
 19  7  1  0  0  0  0
 20  8  1  0  0  0  0
 25  1  1  0  0  0  0
 25  2  1  0  0  0  0
 26  3  1  0  0  0  0
 26  4  1  0  0  0  0
 27 11  2  0  0  0  0
 27 12  1  0  0  0  0
 27 23  1  0  0  0  0
 28 13  2  0  0  0  0
 28 14  1  0  0  0  0
 28 24  1  0  0  0  0
 29 15  2  0  0  0  0
 29 16  1  0  0  0  0
 30 17  2  0  0  0  0
 30 18  1  0  0  0  0
 31  9  1  0  0  0  0
 31 21  2  0  0  0  0
 31 29  1  0  0  0  0
 32 10  1  0  0  0  0
 32 22  2  0  0  0  0
 32 30  1  0  0  0  0
 33 25  1  0  0  0  0
 34 26  1  0  0  0  0
 36 35  1  0  0  0  0
 37 35  1  0  0  0  0
 38 36  1  0  0  0  0
 39 33  1  0  0  0  0
 40 34  1  0  0  0  0
 41 37  1  0  0  0  0
 42 38  1  0  0  0  0
 43  5  1  4  0  0  0
 43 39  2  0  0  0  0
 44  6  1  4  0  0  0
 44 40  2  0  0  0  0
 45 19  2  0  0  0  0
 45 21  1  0  0  0  0
 46 20  2  0  0  0  0
 46 22  1  0  0  0  0
 33 47  1  6  0  0  0
 47 41  2  0  0  0  0
 34 48  1  6  0  0  0
 48 42  2  0  0  0  0
 35 49  1  6  0  0  0
 36 50  1  6  0  0  0
 51 39  1  0  0  0  0
 52 40  1  0  0  0  0
 41 53  1  4  0  0  0
 42 54  1  4  0  0  0
 55 23  1  0  0  0  0
 37 55  1  6  0  0  0
 56 24  1  0  0  0  0
 38 56  1  6  0  0  0
 33 57  1  6  0  0  0
 34 58  1  6  0  0  0
 35 59  1  6  0  0  0
 36 60  1  6  0  0  0
 37 61  1  6  0  0  0
 38 62  1  6  0  0  0
M  END
> <DATABASE_ID>
DB02683

> <DATABASE_NAME>
drugbank

> <SMILES>
[H][C@@](O)([C@@]([H])(O)[C@@]([H])(OCC1=CC=C(C=C1)C1=CN=CC=C1)C(O)=N[C@@]([H])(C(C)C)C(O)=NC)[C@@]([H])(OCC1=CC=C(C=C1)C1=CN=CC=C1)C(O)=N[C@@]([H])(C(C)C)C(O)=NC

> <INCHI_IDENTIFIER>
InChI=1S/C42H52N6O8/c1-25(2)33(39(51)43-5)47-41(53)37(55-23-27-11-15-29(16-12-27)31-9-7-19-45-21-31)35(49)36(50)38(42(54)48-34(26(3)4)40(52)44-6)56-24-28-13-17-30(18-14-28)32-10-8-20-46-22-32/h7-22,25-26,33-38,49-50H,23-24H2,1-6H3,(H,43,51)(H,44,52)(H,47,53)(H,48,54)/t33-,34-,35+,36+,37+,38+/m0/s1

> <INCHI_KEY>
FOBRXMROTNVGST-CXPJILFNSA-N

> <FORMULA>
C42H52N6O8

> <MOLECULAR_WEIGHT>
768.8977

> <EXACT_MASS>
768.38466267

> <JCHEM_ACCEPTOR_COUNT>
14

> <JCHEM_ATOM_COUNT>
108

> <JCHEM_AVERAGE_NEUTRAL_MICROSPECIES_CHARGE>
0.012123363335658348

> <JCHEM_AVERAGE_POLARIZABILITY>
83.88061786188425

> <JCHEM_BIOAVAILABILITY>
0

> <JCHEM_DONOR_COUNT>
6

> <JCHEM_FORMAL_CHARGE>
0

> <JCHEM_GHOSE_FILTER>
0

> <JCHEM_IUPAC>
(2R,3R,4R,5R)-3,4-dihydroxy-N,N'-bis[(1S)-2-methyl-1-(methyl-C-hydroxycarbonimidoyl)propyl]-2,5-bis({[4-(pyridin-3-yl)phenyl]methoxy})hexanediimidic acid

> <ALOGPS_LOGP>
3.80

> <JCHEM_LOGP>
-2.8503566326579985

> <ALOGPS_LOGS>
-4.92

> <JCHEM_MDDR_LIKE_RULE>
1

> <JCHEM_NEUTRAL_CHARGE>
0

> <JCHEM_NUMBER_OF_RINGS>
4

> <JCHEM_PHYSIOLOGICAL_CHARGE>
0

> <JCHEM_PKA>
-3.739358166242345

> <JCHEM_PKA_STRONGEST_ACIDIC>
-4.341418132353149

> <JCHEM_PKA_STRONGEST_BASIC>
12.499427499094436

> <JCHEM_POLAR_SURFACE_AREA>
215.05999999999995

> <JCHEM_REFRACTIVITY>
210.9352000000001

> <JCHEM_ROTATABLE_BOND_COUNT>
19

> <JCHEM_RULE_OF_FIVE>
0

> <ALOGPS_SOLUBILITY>
9.22e-03 g/l

> <JCHEM_TRADITIONAL_IUPAC>
tetrahydrofolic acid

> <JCHEM_VEBER_RULE>
0

> <DRUGBANK_ID>
DB02683

> <SECONDARY_ACCESSION_NUMBERS>
EXPT00666

> <DRUG_GROUPS>
experimental

> <GENERIC_NAME>
Inhibitor Bea428

$$$$
