
  Mrv0541 05041405022D          

 38 43  0  0  0  0            999 V2000
   -5.0747   -5.2354    0.0000 C   0  0  0  0  0  0  0  0  0  0  0  0
    0.6411    2.1896    0.0000 C   0  0  0  0  0  0  0  0  0  0  0  0
   -0.0734    2.6021    0.0000 C   0  0  0  0  0  0  0  0  0  0  0  0
    1.3556   -2.3479    0.0000 C   0  0  0  0  0  0  0  0  0  0  0  0
    2.0701   -1.1104    0.0000 C   0  0  0  0  0  0  0  0  0  0  0  0
   -3.6457   -5.2354    0.0000 C   0  0  0  0  0  0  0  0  0  0  0  0
   -4.3602   -3.9979    0.0000 C   0  0  0  0  0  0  0  0  0  0  0  0
   -2.9312   -4.8229    0.0000 C   0  0  0  0  0  0  0  0  0  0  0  0
   -3.6457   -3.5854    0.0000 C   0  0  0  0  0  0  0  0  0  0  0  0
   -2.2168   -3.5854    0.0000 C   0  0  0  0  0  0  0  0  0  0  0  0
    2.0701   -2.7604    0.0000 C   0  0  0  0  0  0  0  0  0  0  0  0
    2.7845   -1.5229    0.0000 C   0  0  0  0  0  0  0  0  0  0  0  0
   -1.5023   -3.9979    0.0000 C   0  0  0  0  0  0  0  0  0  0  0  0
   -1.5023   -2.3479    0.0000 C   0  0  0  0  0  0  0  0  0  0  0  0
   -0.0734   -2.3479    0.0000 C   0  0  0  0  0  0  0  0  0  0  0  0
   -2.2168   -0.2854    0.0000 C   0  0  0  0  0  0  0  0  0  0  0  0
   -2.0574    1.7771    0.0000 C   0  0  0  0  0  0  0  0  0  0  0  0
    1.3556   -1.5229    0.0000 C   0  0  0  0  0  0  0  0  0  0  0  0
   -0.7878   -2.7604    0.0000 C   0  0  0  0  0  0  0  0  0  0  0  0
    0.6411    1.3646    0.0000 C   0  0  0  0  0  0  0  0  0  0  0  0
   -1.5023   -1.5229    0.0000 C   0  0  0  0  0  0  0  0  0  0  0  0
   -0.7878    2.1896    0.0000 C   0  0  0  0  0  0  0  0  0  0  0  0
   -0.0734   -1.5229    0.0000 C   0  0  0  0  0  0  0  0  0  0  0  0
   -0.7878   -1.1104    0.0000 C   0  0  0  0  0  0  0  0  0  0  0  0
   -0.0734    0.9521    0.0000 C   0  0  0  0  0  0  0  0  0  0  0  0
   -0.7878    1.3646    0.0000 C   0  0  0  0  0  0  0  0  0  0  0  0
   -0.7878   -0.2854    0.0000 C   0  0  0  0  0  0  0  0  0  0  0  0
    1.3556    0.9521    0.0000 Cl  0  0  0  0  0  0  0  0  0  0  0  0
   -2.2168   -1.1104    0.0000 N   0  0  0  0  0  0  0  0  0  0  0  0
   -1.5023    0.1271    0.0000 N   0  0  0  0  0  0  0  0  0  0  0  0
   -0.0734    0.1271    0.0000 N   0  0  0  0  0  0  0  0  0  0  0  0
   -4.3602   -4.8229    0.0000 N   0  0  0  0  0  0  0  0  0  0  0  0
   -2.9312   -3.9979    0.0000 N   0  0  0  0  0  0  0  0  0  0  0  0
    2.7845   -2.3479    0.0000 O   0  0  0  0  0  0  0  0  0  0  0  0
   -0.7878   -3.5854    0.0000 O   0  0  0  0  0  0  0  0  0  0  0  0
   -1.5724    2.4445    0.0000 O   0  0  0  0  0  0  0  0  0  0  0  0
   -1.5724    1.1096    0.0000 O   0  0  0  0  0  0  0  0  0  0  0  0
    0.6411   -1.1104    0.0000 O   0  0  0  0  0  0  0  0  0  0  0  0
  3  2  2  0  0  0  0
  8  6  1  0  0  0  0
  9  7  1  0  0  0  0
 11  4  1  0  0  0  0
 12  5  1  0  0  0  0
 13 10  1  0  0  0  0
 18  4  1  0  0  0  0
 18  5  1  0  0  0  0
 19 14  2  0  0  0  0
 19 15  1  0  0  0  0
 20  2  1  0  0  0  0
 21 14  1  0  0  0  0
 22  3  1  0  0  0  0
 23 15  2  0  0  0  0
 24 21  2  0  0  0  0
 24 23  1  0  0  0  0
 25 20  2  0  0  0  0
 26 22  2  0  0  0  0
 26 25  1  0  0  0  0
 27 24  1  0  0  0  0
 28 20  1  0  0  0  0
 29 16  2  0  0  0  0
 29 21  1  0  0  0  0
 30 16  1  0  0  0  0
 30 27  2  0  0  0  0
 31 25  1  0  0  0  0
 31 27  1  0  0  0  0
 32  1  1  0  0  0  0
 32  6  1  0  0  0  0
 32  7  1  0  0  0  0
 33  8  1  0  0  0  0
 33  9  1  0  0  0  0
 33 10  1  0  0  0  0
 34 11  1  0  0  0  0
 34 12  1  0  0  0  0
 35 13  1  0  0  0  0
 35 19  1  0  0  0  0
 36 17  1  0  0  0  0
 36 22  1  0  0  0  0
 37 17  1  0  0  0  0
 37 26  1  0  0  0  0
 38 18  1  0  0  0  0
 38 23  1  0  0  0  0
M  END
> <DATABASE_ID>
DB11805

> <DATABASE_NAME>
drugbank

> <SMILES>
CN1CCN(CCOC2=CC3=C(C(NC4=C(Cl)C=CC5=C4OCO5)=NC=N3)C(OC3CCOCC3)=C2)CC1

> <INCHI_IDENTIFIER>
InChI=1S/C27H32ClN5O5/c1-32-6-8-33(9-7-32)10-13-35-19-14-21-24(23(15-19)38-18-4-11-34-12-5-18)27(30-16-29-21)31-25-20(28)2-3-22-26(25)37-17-36-22/h2-3,14-16,18H,4-13,17H2,1H3,(H,29,30,31)

> <INCHI_KEY>
OUKYUETWWIPKQR-UHFFFAOYSA-N

> <FORMULA>
C27H32ClN5O5

> <MOLECULAR_WEIGHT>
542.026

> <EXACT_MASS>
541.209196866

> <JCHEM_ACCEPTOR_COUNT>
10

> <JCHEM_ATOM_COUNT>
70

> <JCHEM_AVERAGE_NEUTRAL_MICROSPECIES_CHARGE>
0.8677978650528589

> <JCHEM_AVERAGE_POLARIZABILITY>
57.309721033796

> <JCHEM_BIOAVAILABILITY>
1

> <JCHEM_DONOR_COUNT>
1

> <JCHEM_FORMAL_CHARGE>
0

> <JCHEM_GHOSE_FILTER>
0

> <JCHEM_IUPAC>
N-(5-chloro-2H-1,3-benzodioxol-4-yl)-7-[2-(4-methylpiperazin-1-yl)ethoxy]-5-(oxan-4-yloxy)quinazolin-4-amine

> <ALOGPS_LOGP>
3.53

> <JCHEM_LOGP>
3.1983316539999995

> <ALOGPS_LOGS>
-3.76

> <JCHEM_MDDR_LIKE_RULE>
1

> <JCHEM_NEUTRAL_CHARGE>
1

> <JCHEM_NUMBER_OF_RINGS>
6

> <JCHEM_PHYSIOLOGICAL_CHARGE>
1

> <JCHEM_PKA_STRONGEST_ACIDIC>
12.610002786198814

> <JCHEM_PKA_STRONGEST_BASIC>
7.7948196987268465

> <JCHEM_POLAR_SURFACE_AREA>
90.44000000000003

> <JCHEM_REFRACTIVITY>
143.643

> <JCHEM_ROTATABLE_BOND_COUNT>
8

> <JCHEM_RULE_OF_FIVE>
0

> <ALOGPS_SOLUBILITY>
9.42e-02 g/l

> <JCHEM_TRADITIONAL_IUPAC>
tetrahydrofolic acid

> <JCHEM_VEBER_RULE>
0

> <DRUGBANK_ID>
DB11805

> <DRUG_GROUPS>
investigational

> <GENERIC_NAME>
Saracatinib

> <SYNONYMS>
Saracatinib

$$$$
