
  Mrv0541 10051212212D          

 20 21  0  0  0  0            999 V2000
   -0.0000    7.4250    0.0000 C   0  0  0  0  0  0  0  0  0  0  0  0
   -0.7145    2.0625    0.0000 C   0  0  0  0  0  0  0  0  0  0  0  0
    0.0000    2.4750    0.0000 C   0  0  0  0  0  0  0  0  0  0  0  0
   -1.4289    2.4750    0.0000 C   0  0  0  0  0  0  0  0  0  0  0  0
    1.4289    4.9500    0.0000 C   0  0  0  0  0  0  0  0  0  0  0  0
   -0.0000    3.3000    0.0000 C   0  0  0  0  0  0  0  0  0  0  0  0
   -1.4289    3.3000    0.0000 C   0  0  0  0  0  0  0  0  0  0  0  0
    1.4289    5.7750    0.0000 C   0  0  0  0  0  0  0  0  0  0  0  0
    0.7145    4.5375    0.0000 C   0  0  0  0  0  0  0  0  0  0  0  0
   -0.0000    5.7750    0.0000 C   0  0  0  0  0  0  0  0  0  0  0  0
    0.7145    7.0125    0.0000 C   0  0  1  0  0  0  0  0  0  0  0  0
   -0.7145    3.7125    0.0000 C   0  0  0  0  0  0  0  0  0  0  0  0
    0.7145    6.1875    0.0000 C   0  0  0  0  0  0  0  0  0  0  0  0
   -0.0000    4.9500    0.0000 C   0  0  0  0  0  0  0  0  0  0  0  0
   -0.7145    4.5375    0.0000 C   0  0  0  0  0  0  0  0  0  0  0  0
    1.4289    7.4250    0.0000 C   0  0  0  0  0  0  0  0  0  0  0  0
   -1.4289    4.9500    0.0000 O   0  0  0  0  0  0  0  0  0  0  0  0
    1.4289    8.2500    0.0000 O   0  0  0  0  0  0  0  0  0  0  0  0
    2.1434    7.0125    0.0000 O   0  0  0  0  0  0  0  0  0  0  0  0
   -0.0000    6.6000    0.0000 H   0  0  0  0  0  0  0  0  0  0  0  0
  3  2  2  0  0  0  0
  4  2  1  0  0  0  0
  6  3  1  0  0  0  0
  7  4  2  0  0  0  0
  8  5  2  0  0  0  0
  9  5  1  0  0  0  0
 11  1  1  6  0  0  0
 12  6  2  0  0  0  0
 12  7  1  0  0  0  0
 13  8  1  0  0  0  0
 13 10  2  0  0  0  0
 13 11  1  0  0  0  0
 14  9  2  0  0  0  0
 14 10  1  0  0  0  0
 15 12  1  0  0  0  0
 15 14  1  0  0  0  0
 16 11  1  0  0  0  0
 17 15  2  0  0  0  0
 18 16  2  0  0  0  0
 19 16  1  0  0  0  0
 11 20  1  1  0  0  0
M  END
> <DATABASE_ID>
DB09214

> <DATABASE_NAME>
drugbank

> <SMILES>
[H][C@@](C)(C(O)=O)C1=CC(=CC=C1)C(=O)C1=CC=CC=C1

> <INCHI_IDENTIFIER>
InChI=1S/C16H14O3/c1-11(16(18)19)13-8-5-9-14(10-13)15(17)12-6-3-2-4-7-12/h2-11H,1H3,(H,18,19)/t11-/m0/s1

> <INCHI_KEY>
DKYWVDODHFEZIM-NSHDSACASA-N

> <FORMULA>
C16H14O3

> <MOLECULAR_WEIGHT>
254.2806

> <EXACT_MASS>
254.094294314

> <JCHEM_ACCEPTOR_COUNT>
3

> <JCHEM_ATOM_COUNT>
33

> <JCHEM_AVERAGE_NEUTRAL_MICROSPECIES_CHARGE>
-0.9992374335988319

> <JCHEM_AVERAGE_POLARIZABILITY>
26.88299255285475

> <JCHEM_BIOAVAILABILITY>
1

> <JCHEM_DONOR_COUNT>
1

> <JCHEM_FORMAL_CHARGE>
0

> <JCHEM_GHOSE_FILTER>
1

> <JCHEM_IUPAC>
(2S)-2-(3-benzoylphenyl)propanoic acid

> <ALOGPS_LOGP>
3.29

> <JCHEM_LOGP>
3.613333421

> <ALOGPS_LOGS>
-4.08

> <JCHEM_MDDR_LIKE_RULE>
0

> <JCHEM_NEUTRAL_CHARGE>
-1

> <JCHEM_NUMBER_OF_RINGS>
2

> <JCHEM_PHYSIOLOGICAL_CHARGE>
-1

> <JCHEM_PKA_STRONGEST_ACIDIC>
3.882608970976492

> <JCHEM_PKA_STRONGEST_BASIC>
-7.457434189163899

> <JCHEM_POLAR_SURFACE_AREA>
54.370000000000005

> <JCHEM_REFRACTIVITY>
72.51559999999999

> <JCHEM_ROTATABLE_BOND_COUNT>
4

> <JCHEM_RULE_OF_FIVE>
1

> <ALOGPS_SOLUBILITY>
2.13e-02 g/l

> <JCHEM_TRADITIONAL_IUPAC>
tetrahydrofolic acid

> <JCHEM_VEBER_RULE>
0

> <DRUGBANK_ID>
DB09214

> <DRUG_GROUPS>
approved; investigational

> <GENERIC_NAME>
Dexketoprofen

> <SYNONYMS>
Dexketoprofen; Dexketoprofeno

> <INTERNATIONAL_BRANDS>
ACTIDEX; DESKETO; DEXADOL; DEXAK; DEXALGIN; DEXAROM; DEXOFEN; DEXOKET; DEXOMEN; DEXPRO; DEXTANOL; DEXTRAFAST; DKTROM; ELEKTRA; ENANGEL; ENANTYUM; FEN LI; INFEN; KERAL; KETRON D; KITESSE; KITEX; QUIRALAM; QUIRGEL; ROTALFEN; ROTALGIN; STADIUM; SYMPAL; TOFEDEX; VIAXAL; YOUBAIFEN

> <SALTS>
Dexketoprofen trometamol

$$$$
