
  Mrv0541 05041409492D          

 26 26  0  0  1  0            999 V2000
    9.2881   -2.8875    0.0000 C   0  0  0  0  0  0  0  0  0  0  0  0
    5.7158   -0.8250    0.0000 C   0  0  0  0  0  0  0  0  0  0  0  0
    5.0013   -0.4125    0.0000 C   0  0  0  0  0  0  0  0  0  0  0  0
   10.0026   -0.8250    0.0000 C   0  0  0  0  0  0  0  0  0  0  0  0
    7.8592   -0.4125    0.0000 C   0  0  0  0  0  0  0  0  0  0  0  0
    9.2881    0.4125    0.0000 C   0  0  0  0  0  0  0  0  0  0  0  0
    9.2881   -2.0625    0.0000 C   0  0  0  0  0  0  0  0  0  0  0  0
    9.2881   -0.4125    0.0000 C   0  0  0  0  0  0  0  0  0  0  0  0
    8.5737   -0.8250    0.0000 C   0  0  0  0  0  0  0  0  0  0  0  0
    6.4302   -0.4125    0.0000 C   0  0  1  0  0  0  0  0  0  0  0  0
    4.2868   -0.8250    0.0000 C   0  0  0  0  0  0  0  0  0  0  0  0
    8.5737   -1.6500    0.0000 C   0  0  0  0  0  0  0  0  0  0  0  0
    6.4302    0.4125    0.0000 C   0  0  0  0  0  0  0  0  0  0  0  0
   10.0026   -1.6500    0.0000 N   0  3  0  0  0  0  0  0  0  0  0  0
    7.1447   -0.8250    0.0000 N   0  0  0  0  0  0  0  0  0  0  0  0
    3.5724   -0.4125    0.0000 O   0  0  0  0  0  0  0  0  0  0  0  0
    4.2868   -1.6500    0.0000 O   0  0  0  0  0  0  0  0  0  0  0  0
    7.8592   -2.0625    0.0000 O   0  0  0  0  0  0  0  0  0  0  0  0
    7.1447    0.8250    0.0000 O   0  0  0  0  0  0  0  0  0  0  0  0
    5.7158    0.8250    0.0000 O   0  0  0  0  0  0  0  0  0  0  0  0
   10.0026    2.4750    0.0000 O   0  0  0  0  0  0  0  0  0  0  0  0
   10.8276    1.6500    0.0000 O   0  0  0  0  0  0  0  0  0  0  0  0
    9.1776    1.6500    0.0000 O   0  0  0  0  0  0  0  0  0  0  0  0
   10.0026    0.8250    0.0000 O   0  0  0  0  0  0  0  0  0  0  0  0
   10.0026    1.6500    0.0000 P   0  0  0  0  0  0  0  0  0  0  0  0
    5.7158    0.0000    0.0000 H   0  0  0  0  0  0  0  0  0  0  0  0
  3  2  1  0  0  0  0
  7  1  1  0  0  0  0
  8  4  1  0  0  0  0
  8  6  1  0  0  0  0
  9  5  1  0  0  0  0
  9  8  2  0  0  0  0
 10  2  1  0  0  0  0
 11  3  1  0  0  0  0
 12  7  2  0  0  0  0
 12  9  1  0  0  0  0
 13 10  1  0  0  0  0
 14  4  2  0  0  0  0
 14  7  1  0  0  0  0
 15  5  1  0  0  0  0
 10 15  1  6  0  0  0
 16 11  2  0  0  0  0
 17 11  1  0  0  0  0
 18 12  1  0  0  0  0
 19 13  2  0  0  0  0
 20 13  1  0  0  0  0
 24  6  1  0  0  0  0
 25 21  1  0  0  0  0
 25 22  1  0  0  0  0
 25 23  2  0  0  0  0
 25 24  1  0  0  0  0
 10 26  1  6  0  0  0
M  CHG  1  14   1
M  END
> <DATABASE_ID>
DB01813

> <DATABASE_NAME>
drugbank

> <SMILES>
[H][C@@](CCC(O)=O)(NCC1=C(COP(O)(O)=O)C=[NH+]C(C)=C1O)C(O)=O

> <INCHI_IDENTIFIER>
InChI=1S/C13H19N2O9P/c1-7-12(18)9(8(4-14-7)6-24-25(21,22)23)5-15-10(13(19)20)2-3-11(16)17/h4,10,15,18H,2-3,5-6H2,1H3,(H,16,17)(H,19,20)(H2,21,22,23)/p+1/t10-/m0/s1

> <INCHI_KEY>
JMRKOGDJNHPMHS-JTQLQIEISA-O

> <FORMULA>
C13H20N2O9P

> <MOLECULAR_WEIGHT>
379.2797

> <EXACT_MASS>
379.09064176

> <JCHEM_ACCEPTOR_COUNT>
9

> <JCHEM_ATOM_COUNT>
45

> <JCHEM_AVERAGE_NEUTRAL_MICROSPECIES_CHARGE>
-2.97155378568057

> <JCHEM_AVERAGE_POLARIZABILITY>
34.04999145662616

> <JCHEM_BIOAVAILABILITY>
1

> <JCHEM_DONOR_COUNT>
7

> <JCHEM_FORMAL_CHARGE>
1

> <JCHEM_GHOSE_FILTER>
0

> <JCHEM_IUPAC>
4-({[(1S)-1,3-dicarboxypropyl]amino}methyl)-3-hydroxy-2-methyl-5-[(phosphonooxy)methyl]pyridin-1-ium

> <ALOGPS_LOGP>
-1.12

> <JCHEM_LOGP>
-4.763635149795057

> <ALOGPS_LOGS>
-3.21

> <JCHEM_MDDR_LIKE_RULE>
0

> <JCHEM_NEUTRAL_CHARGE>
-3

> <JCHEM_NUMBER_OF_RINGS>
1

> <JCHEM_PHYSIOLOGICAL_CHARGE>
-3

> <JCHEM_PKA>
1.91452715598231

> <JCHEM_PKA_STRONGEST_ACIDIC>
0.9767388551712616

> <JCHEM_PKA_STRONGEST_BASIC>
9.839929981858607

> <JCHEM_POLAR_SURFACE_AREA>
187.76

> <JCHEM_REFRACTIVITY>
84.28739999999999

> <JCHEM_ROTATABLE_BOND_COUNT>
10

> <JCHEM_RULE_OF_FIVE>
0

> <ALOGPS_SOLUBILITY>
2.57e-01 g/l

> <JCHEM_TRADITIONAL_IUPAC>
tetrahydrofolic acid

> <JCHEM_VEBER_RULE>
0

> <DRUGBANK_ID>
DB01813

> <SECONDARY_ACCESSION_NUMBERS>
EXPT02638; EXPT02576

> <DRUG_GROUPS>
experimental

> <GENERIC_NAME>
Pyridoxyl-Glutamic Acid-5'-Monophosphate

$$$$
