
  Mrv0541 05031423022D          

 12 13  0  0  0  0            999 V2000
    3.9934    0.8250    0.0000 C   0  0  0  0  0  0  0  0  0  0  0  0
    3.2789    1.2375    0.0000 C   0  0  0  0  0  0  0  0  0  0  0  0
    3.9934    0.0000    0.0000 C   0  0  0  0  0  0  0  0  0  0  0  0
    1.7798    1.0799    0.0000 C   0  0  0  0  0  0  0  0  0  0  0  0
    2.5645    0.8250    0.0000 C   0  0  0  0  0  0  0  0  0  0  0  0
    3.2789   -0.4125    0.0000 C   0  0  0  0  0  0  0  0  0  0  0  0
    2.5645    0.0000    0.0000 C   0  0  0  0  0  0  0  0  0  0  0  0
    1.2949    0.4125    0.0000 N   0  0  0  0  0  0  0  0  0  0  0  0
    1.7798   -0.2549    0.0000 N   0  0  0  0  0  0  0  0  0  0  0  0
    3.2789   -1.2375    0.0000 N   0  0  0  0  0  0  0  0  0  0  0  0
    3.9934   -1.6500    0.0000 O   0  0  0  0  0  0  0  0  0  0  0  0
    2.5645   -1.6500    0.0000 O   0  0  0  0  0  0  0  0  0  0  0  0
  2  1  2  0  0  0  0
  3  1  1  0  0  0  0
  5  2  1  0  0  0  0
  5  4  2  0  0  0  0
  6  3  2  0  0  0  0
  7  5  1  0  0  0  0
  7  6  1  0  0  0  0
  8  4  1  0  0  0  0
  9  7  2  0  0  0  0
  9  8  1  0  0  0  0
 10  6  1  0  0  0  0
 11 10  2  0  0  0  0
 12 10  2  0  0  0  0
M  END
> <DATABASE_ID>
DB02207

> <DATABASE_NAME>
drugbank

> <SMILES>
O=N(=O)C1=CC=CC2=CNN=C12

> <INCHI_IDENTIFIER>
InChI=1S/C7H5N3O2/c11-10(12)6-3-1-2-5-4-8-9-7(5)6/h1-4H,(H,8,9)

> <INCHI_KEY>
PQCAUHUKTBHUSA-UHFFFAOYSA-N

> <FORMULA>
C7H5N3O2

> <MOLECULAR_WEIGHT>
163.1335

> <EXACT_MASS>
163.038176419

> <JCHEM_ACCEPTOR_COUNT>
3

> <JCHEM_ATOM_COUNT>
17

> <JCHEM_AVERAGE_NEUTRAL_MICROSPECIES_CHARGE>
-0.0005963185970766822

> <JCHEM_AVERAGE_POLARIZABILITY>
14.48708000493242

> <JCHEM_BIOAVAILABILITY>
1

> <JCHEM_DONOR_COUNT>
1

> <JCHEM_FORMAL_CHARGE>
0

> <JCHEM_GHOSE_FILTER>
0

> <JCHEM_IUPAC>
7-nitro-2H-indazole

> <ALOGPS_LOGP>
1.76

> <JCHEM_LOGP>
1.5927410796666668

> <ALOGPS_LOGS>
-1.59

> <JCHEM_MDDR_LIKE_RULE>
0

> <JCHEM_NEUTRAL_CHARGE>
0

> <JCHEM_NUMBER_OF_RINGS>
2

> <JCHEM_PHYSIOLOGICAL_CHARGE>
0

> <JCHEM_PKA_STRONGEST_ACIDIC>
10.224168955799481

> <JCHEM_PKA_STRONGEST_BASIC>
0.10892205269204827

> <JCHEM_POLAR_SURFACE_AREA>
74.5

> <JCHEM_REFRACTIVITY>
43.1483

> <JCHEM_ROTATABLE_BOND_COUNT>
1

> <JCHEM_RULE_OF_FIVE>
1

> <ALOGPS_SOLUBILITY>
4.23e+00 g/l

> <JCHEM_TRADITIONAL_IUPAC>
biotin

> <JCHEM_VEBER_RULE>
0

> <DRUGBANK_ID>
DB02207

> <SECONDARY_ACCESSION_NUMBERS>
EXPT00314

> <DRUG_GROUPS>
experimental

> <GENERIC_NAME>
7-Nitroindazole

$$$$
