
  Mrv0541 05041400362D          

 57 62  0  0  1  0            999 V2000
   -2.8931   -6.7156    0.0000 C   0  0  0  0  0  0  0  0  0  0  0  0
   -0.5683   -1.4940    0.0000 C   0  0  0  0  0  0  0  0  0  0  0  0
   -6.8137   -9.3200    0.0000 C   0  0  0  0  0  0  0  0  0  0  0  0
    3.3523    1.1104    0.0000 C   0  0  0  0  0  0  0  0  0  0  0  0
   -4.1152   -9.7325    0.0000 C   0  0  0  0  0  0  0  0  0  0  0  0
    0.6538    1.5229    0.0000 C   0  0  0  0  0  0  0  0  0  0  0  0
   -3.5605   -7.2005    0.0000 C   0  0  2  0  0  0  0  0  0  0  0  0
    0.0992   -1.0091    0.0000 C   0  0  2  0  0  0  0  0  0  0  0  0
   -5.3847  -10.1450    0.0000 C   0  0  0  0  0  0  0  0  0  0  0  0
    1.9233    1.9354    0.0000 C   0  0  0  0  0  0  0  0  0  0  0  0
   -4.3452   -6.9456    0.0000 C   0  0  2  0  0  0  0  0  0  0  0  0
    0.8838   -1.2640    0.0000 C   0  0  2  0  0  0  0  0  0  0  0  0
   -4.8301   -7.6130    0.0000 C   0  0  2  0  0  0  0  0  0  0  0  0
    1.3687   -0.5966    0.0000 C   0  0  2  0  0  0  0  0  0  0  0  0
   -6.0992  -10.5575    0.0000 C   0  0  0  0  0  0  0  0  0  0  0  0
    2.6378    2.3479    0.0000 C   0  0  0  0  0  0  0  0  0  0  0  0
   -5.3847   -9.3200    0.0000 C   0  0  0  0  0  0  0  0  0  0  0  0
    1.9233    1.1104    0.0000 C   0  0  0  0  0  0  0  0  0  0  0  0
   -4.3452   -8.2805    0.0000 C   0  0  2  0  0  0  0  0  0  0  0  0
    0.8838    0.0709    0.0000 C   0  0  2  0  0  0  0  0  0  0  0  0
   -6.0992  -11.3825    0.0000 N   0  0  0  0  0  0  0  0  0  0  0  0
    2.6378    3.1729    0.0000 N   0  0  0  0  0  0  0  0  0  0  0  0
   -6.8137  -10.1450    0.0000 N   0  0  0  0  0  0  0  0  0  0  0  0
    3.3523    1.9354    0.0000 N   0  0  0  0  0  0  0  0  0  0  0  0
   -6.0992   -8.9075    0.0000 N   0  0  0  0  0  0  0  0  0  0  0  0
    2.6378    0.6979    0.0000 N   0  0  0  0  0  0  0  0  0  0  0  0
   -4.6001  -10.4000    0.0000 N   0  0  0  0  0  0  0  0  0  0  0  0
    1.1387    2.1904    0.0000 N   0  0  0  0  0  0  0  0  0  0  0  0
   -4.6001   -9.0651    0.0000 N   0  0  0  0  0  0  0  0  0  0  0  0
    1.1387    0.8555    0.0000 N   0  0  0  0  0  0  0  0  0  0  0  0
   -4.6001   -6.1610    0.0000 O   0  0  0  0  0  0  0  0  0  0  0  0
    1.1387   -2.0486    0.0000 O   0  0  0  0  0  0  0  0  0  0  0  0
   -5.6551   -7.6130    0.0000 O   0  0  0  0  0  0  0  0  0  0  0  0
    2.1937   -0.5966    0.0000 O   0  0  0  0  0  0  0  0  0  0  0  0
   -1.8270   -6.0776    0.0000 O   0  0  0  0  0  0  0  0  0  0  0  0
   -2.7968   -4.7428    0.0000 O   0  0  0  0  0  0  0  0  0  0  0  0
   -0.6646   -3.4668    0.0000 O   0  0  0  0  0  0  0  0  0  0  0  0
   -1.6344   -2.1319    0.0000 O   0  0  0  0  0  0  0  0  0  0  0  0
   -0.9102   -4.0186    0.0000 O   0  0  0  0  0  0  0  0  0  0  0  0
   -2.5512   -4.1910    0.0000 O   0  0  0  0  0  0  0  0  0  0  0  0
   -2.9793   -5.8951    0.0000 O   0  0  0  0  0  0  0  0  0  0  0  0
   -0.4820   -2.3145    0.0000 O   0  0  0  0  0  0  0  0  0  0  0  0
   -3.5605   -8.0255    0.0000 O   0  0  0  0  0  0  0  0  0  0  0  0
    0.0992   -0.1841    0.0000 O   0  0  0  0  0  0  0  0  0  0  0  0
   -1.6444   -4.9253    0.0000 O   0  0  0  0  0  0  0  0  0  0  0  0
   -1.8169   -3.2843    0.0000 O   0  0  0  0  0  0  0  0  0  0  0  0
   -2.3119   -5.4102    0.0000 P   0  0  0  0  0  0  0  0  0  0  0  0
   -1.1495   -2.7994    0.0000 P   0  0  0  0  0  0  0  0  0  0  0  0
   -1.7307   -4.1048    0.0000 P   0  0  0  0  0  0  0  0  0  0  0  0
   -3.9605   -6.4790    0.0000 H   0  0  0  0  0  0  0  0  0  0  0  0
    0.4991   -1.7306    0.0000 H   0  0  0  0  0  0  0  0  0  0  0  0
   -3.9965   -6.1979    0.0000 H   0  0  0  0  0  0  0  0  0  0  0  0
    0.5351   -2.0117    0.0000 H   0  0  0  0  0  0  0  0  0  0  0  0
   -5.2046   -6.8779    0.0000 H   0  0  0  0  0  0  0  0  0  0  0  0
    1.7432   -1.3316    0.0000 H   0  0  0  0  0  0  0  0  0  0  0  0
   -5.1600   -8.4095    0.0000 H   0  0  0  0  0  0  0  0  0  0  0  0
    1.6986    0.1999    0.0000 H   0  0  0  0  0  0  0  0  0  0  0  0
  7  1  1  1  0  0  0
  8  2  1  1  0  0  0
 11  7  1  0  0  0  0
 12  8  1  0  0  0  0
 13 11  1  0  0  0  0
 14 12  1  0  0  0  0
 15  9  2  0  0  0  0
 16 10  2  0  0  0  0
 17  9  1  0  0  0  0
 18 10  1  0  0  0  0
 19 13  1  0  0  0  0
 20 14  1  0  0  0  0
 21 15  1  0  0  0  0
 22 16  1  0  0  0  0
 23  3  2  0  0  0  0
 23 15  1  0  0  0  0
 24  4  2  0  0  0  0
 24 16  1  0  0  0  0
 25  3  1  0  0  0  0
 25 17  2  0  0  0  0
 26  4  1  0  0  0  0
 26 18  2  0  0  0  0
 27  5  2  0  0  0  0
 27  9  1  0  0  0  0
 28  6  2  0  0  0  0
 28 10  1  0  0  0  0
 29  5  1  0  0  0  0
 29 17  1  0  0  0  0
 19 29  1  1  0  0  0
 30  6  1  0  0  0  0
 30 18  1  0  0  0  0
 20 30  1  1  0  0  0
 11 31  1  6  0  0  0
 12 32  1  6  0  0  0
 13 33  1  6  0  0  0
 14 34  1  6  0  0  0
 41  1  1  0  0  0  0
 42  2  1  0  0  0  0
 43  7  1  0  0  0  0
 43 19  1  0  0  0  0
 44  8  1  0  0  0  0
 44 20  1  0  0  0  0
 47 35  1  0  0  0  0
 47 36  2  0  0  0  0
 47 41  1  0  0  0  0
 47 45  1  0  0  0  0
 48 37  1  0  0  0  0
 48 38  2  0  0  0  0
 48 42  1  0  0  0  0
 48 46  1  0  0  0  0
 49 39  1  0  0  0  0
 49 40  2  0  0  0  0
 49 45  1  0  0  0  0
 49 46  1  0  0  0  0
  7 50  1  6  0  0  0
  8 51  1  6  0  0  0
 11 52  1  1  0  0  0
 12 53  1  1  0  0  0
 13 54  1  1  0  0  0
 14 55  1  1  0  0  0
 19 56  1  6  0  0  0
 20 57  1  6  0  0  0
M  END
> <DATABASE_ID>
DB01690

> <DATABASE_NAME>
drugbank

> <SMILES>
[H][C@]1(COP(O)(=O)OP(O)(=O)OP(O)(=O)OC[C@@]2([H])O[C@@]([H])(N3C=NC4=C(N)N=CN=C34)[C@]([H])(O)[C@]2([H])O)O[C@@]([H])(N2C=NC3=C(N)N=CN=C23)[C@]([H])(O)[C@]1([H])O

> <INCHI_IDENTIFIER>
InChI=1S/C20H27N10O16P3/c21-15-9-17(25-3-23-15)29(5-27-9)19-13(33)11(31)7(43-19)1-41-47(35,36)45-49(39,40)46-48(37,38)42-2-8-12(32)14(34)20(44-8)30-6-28-10-16(22)24-4-26-18(10)30/h3-8,11-14,19-20,31-34H,1-2H2,(H,35,36)(H,37,38)(H,39,40)(H2,21,23,25)(H2,22,24,26)/t7-,8-,11-,12-,13-,14-,19-,20-/m1/s1

> <INCHI_KEY>
QCICUPZZLIQAPA-XPWFQUROSA-N

> <FORMULA>
C20H27N10O16P3

> <MOLECULAR_WEIGHT>
756.4071

> <EXACT_MASS>
756.081934402

> <JCHEM_ACCEPTOR_COUNT>
20

> <JCHEM_ATOM_COUNT>
76

> <JCHEM_AVERAGE_NEUTRAL_MICROSPECIES_CHARGE>
-2.9792533873275895

> <JCHEM_AVERAGE_POLARIZABILITY>
62.975043380128

> <JCHEM_BIOAVAILABILITY>
0

> <JCHEM_DONOR_COUNT>
9

> <JCHEM_FORMAL_CHARGE>
0

> <JCHEM_GHOSE_FILTER>
0

> <JCHEM_IUPAC>
bis[({[(2R,3S,4R,5R)-5-(6-amino-9H-purin-9-yl)-3,4-dihydroxyoxolan-2-yl]methoxy}(hydroxy)phosphoryl)oxy]phosphinic acid

> <ALOGPS_LOGP>
-1.26

> <JCHEM_LOGP>
-10.026853177378669

> <ALOGPS_LOGS>
-2.24

> <JCHEM_MDDR_LIKE_RULE>
1

> <JCHEM_NEUTRAL_CHARGE>
-3

> <JCHEM_NUMBER_OF_RINGS>
6

> <JCHEM_PHYSIOLOGICAL_CHARGE>
-3

> <JCHEM_PKA>
1.6533906933321054

> <JCHEM_PKA_STRONGEST_ACIDIC>
0.8885778264485291

> <JCHEM_PKA_STRONGEST_BASIC>
5.227963295509527

> <JCHEM_POLAR_SURFACE_AREA>
387.4400000000001

> <JCHEM_REFRACTIVITY>
155.23089999999996

> <JCHEM_ROTATABLE_BOND_COUNT>
12

> <JCHEM_RULE_OF_FIVE>
0

> <ALOGPS_SOLUBILITY>
4.39e+00 g/l

> <JCHEM_TRADITIONAL_IUPAC>
tetrahydrofolic acid

> <JCHEM_VEBER_RULE>
0

> <DRUGBANK_ID>
DB01690

> <SECONDARY_ACCESSION_NUMBERS>
EXPT00618

> <DRUG_GROUPS>
experimental

> <GENERIC_NAME>
Bis(Adenosine)-5'-Triphosphate

$$$$
