
  Mrv0541 05041402412D          

 77 78  0  0  1  0            999 V2000
  -14.2894    3.3000    0.0000 C   0  0  0  0  0  0  0  0  0  0  0  0
   13.5749    3.7125    0.0000 C   0  0  0  0  0  0  0  0  0  0  0  0
  -13.5749    3.7125    0.0000 C   0  0  0  0  0  0  0  0  0  0  0  0
   12.8605    3.3000    0.0000 C   0  0  0  0  0  0  0  0  0  0  0  0
  -12.8605    3.3000    0.0000 C   0  0  0  0  0  0  0  0  0  0  0  0
   12.1460    3.7125    0.0000 C   0  0  0  0  0  0  0  0  0  0  0  0
  -12.1460    3.7125    0.0000 C   0  0  0  0  0  0  0  0  0  0  0  0
   11.4315    3.3000    0.0000 C   0  0  0  0  0  0  0  0  0  0  0  0
  -11.4315    3.3000    0.0000 C   0  0  0  0  0  0  0  0  0  0  0  0
   10.7171    3.7125    0.0000 C   0  0  0  0  0  0  0  0  0  0  0  0
  -10.7171    3.7125    0.0000 C   0  0  0  0  0  0  0  0  0  0  0  0
   10.0026    3.3000    0.0000 C   0  0  0  0  0  0  0  0  0  0  0  0
  -10.0026    3.3000    0.0000 C   0  0  0  0  0  0  0  0  0  0  0  0
    9.2881    3.7125    0.0000 C   0  0  0  0  0  0  0  0  0  0  0  0
   -9.2881    3.7125    0.0000 C   0  0  0  0  0  0  0  0  0  0  0  0
    8.5737    3.3000    0.0000 C   0  0  0  0  0  0  0  0  0  0  0  0
   -8.5737    3.3000    0.0000 C   0  0  0  0  0  0  0  0  0  0  0  0
    7.8592    3.7125    0.0000 C   0  0  0  0  0  0  0  0  0  0  0  0
   -7.8592    3.7125    0.0000 C   0  0  0  0  0  0  0  0  0  0  0  0
    7.1447    3.3000    0.0000 C   0  0  0  0  0  0  0  0  0  0  0  0
   -7.1447    3.3000    0.0000 C   0  0  0  0  0  0  0  0  0  0  0  0
    6.4302    3.7125    0.0000 C   0  0  0  0  0  0  0  0  0  0  0  0
   -6.4302    3.7125    0.0000 C   0  0  0  0  0  0  0  0  0  0  0  0
    5.7158    3.3000    0.0000 C   0  0  0  0  0  0  0  0  0  0  0  0
   -5.7158    3.3000    0.0000 C   0  0  0  0  0  0  0  0  0  0  0  0
    5.0013    3.7125    0.0000 C   0  0  0  0  0  0  0  0  0  0  0  0
   -5.0013    3.7125    0.0000 C   0  0  0  0  0  0  0  0  0  0  0  0
    4.2868    3.3000    0.0000 C   0  0  0  0  0  0  0  0  0  0  0  0
   -4.2868    3.3000    0.0000 C   0  0  0  0  0  0  0  0  0  0  0  0
    3.5724    3.7125    0.0000 C   0  0  0  0  0  0  0  0  0  0  0  0
   -3.5724    3.7125    0.0000 C   0  0  0  0  0  0  0  0  0  0  0  0
    2.8579    3.3000    0.0000 C   0  0  0  0  0  0  0  0  0  0  0  0
   -2.8579    3.3000    0.0000 C   0  0  0  0  0  0  0  0  0  0  0  0
    2.1434    3.7125    0.0000 C   0  0  0  0  0  0  0  0  0  0  0  0
   -3.5724   -1.2375    0.0000 C   0  0  0  0  0  0  0  0  0  0  0  0
   -0.7145    3.7125    0.0000 C   0  0  0  0  0  0  0  0  0  0  0  0
   -0.0000    2.4750    0.0000 C   0  0  0  0  0  0  0  0  0  0  0  0
   -0.7145   -0.4125    0.0000 C   0  0  0  0  0  0  0  0  0  0  0  0
   -0.0000    3.3000    0.0000 C   0  0  2  0  0  0  0  0  0  0  0  0
   -2.8579   -1.6500    0.0000 C   0  0  2  0  0  0  0  0  0  0  0  0
   -0.0000   -0.0000    0.0000 C   0  0  2  0  0  0  0  0  0  0  0  0
   -2.1434    3.7125    0.0000 C   0  0  0  0  0  0  0  0  0  0  0  0
    1.4289    3.3000    0.0000 C   0  0  0  0  0  0  0  0  0  0  0  0
   -2.8579   -2.4750    0.0000 C   0  0  1  0  0  0  0  0  0  0  0  0
    0.7145   -0.4125    0.0000 C   0  0  1  0  0  0  0  0  0  0  0  0
   -2.1434   -2.8875    0.0000 C   0  0  1  0  0  0  0  0  0  0  0  0
    1.4289   -0.0000    0.0000 C   0  0  1  0  0  0  0  0  0  0  0  0
   -1.4289   -2.4750    0.0000 C   0  0  2  0  0  0  0  0  0  0  0  0
    1.4289    0.8250    0.0000 C   0  0  2  0  0  0  0  0  0  0  0  0
    0.7145    1.2375    0.0000 C   0  0  2  0  0  0  0  0  0  0  0  0
   -1.4289   -1.6500    0.0000 C   0  0  1  0  0  0  0  0  0  0  0  0
   -3.5724   -0.4125    0.0000 O   0  0  0  0  0  0  0  0  0  0  0  0
   -2.1434    4.5375    0.0000 O   0  0  0  0  0  0  0  0  0  0  0  0
    1.4289    2.4750    0.0000 O   0  0  0  0  0  0  0  0  0  0  0  0
   -3.5724   -2.8875    0.0000 O   0  0  0  0  0  0  0  0  0  0  0  0
    0.7145   -1.2375    0.0000 O   0  0  0  0  0  0  0  0  0  0  0  0
   -2.1434   -3.7125    0.0000 O   0  0  0  0  0  0  0  0  0  0  0  0
    2.1434   -0.4125    0.0000 O   0  0  0  0  0  0  0  0  0  0  0  0
   -0.7145   -2.8875    0.0000 O   0  0  0  0  0  0  0  0  0  0  0  0
    2.1434    1.2375    0.0000 O   0  0  0  0  0  0  0  0  0  0  0  0
   -1.4289    3.3000    0.0000 O   0  0  0  0  0  0  0  0  0  0  0  0
    0.7145    2.0625    0.0000 O   0  0  0  0  0  0  0  0  0  0  0  0
   -0.7145   -1.2375    0.0000 O   0  0  0  0  0  0  0  0  0  0  0  0
    0.7145    3.7125    0.0000 O   0  0  0  0  0  0  0  0  0  0  0  0
   -2.1434   -1.2375    0.0000 O   0  0  0  0  0  0  0  0  0  0  0  0
   -0.0000    0.8250    0.0000 O   0  0  0  0  0  0  0  0  0  0  0  0
   -0.7145    2.8875    0.0000 H   0  0  0  0  0  0  0  0  0  0  0  0
   -3.3882   -2.2820    0.0000 H   0  0  0  0  0  0  0  0  0  0  0  0
    0.2822   -0.7752    0.0000 H   0  0  0  0  0  0  0  0  0  0  0  0
   -3.6704   -2.3317    0.0000 H   0  0  0  0  0  0  0  0  0  0  0  0
    0.1842   -1.0445    0.0000 H   0  0  0  0  0  0  0  0  0  0  0  0
   -2.8579   -3.3000    0.0000 H   0  0  0  0  0  0  0  0  0  0  0  0
    1.4289   -0.8250    0.0000 H   0  0  0  0  0  0  0  0  0  0  0  0
   -1.4289   -3.3000    0.0000 H   0  0  0  0  0  0  0  0  0  0  0  0
    2.1434    0.4125    0.0000 H   0  0  0  0  0  0  0  0  0  0  0  0
    1.4289    1.6500    0.0000 H   0  0  0  0  0  0  0  0  0  0  0  0
   -0.7145   -2.0625    0.0000 H   0  0  0  0  0  0  0  0  0  0  0  0
  3  1  1  0  0  0  0
  4  2  1  0  0  0  0
  5  3  1  0  0  0  0
  6  4  1  0  0  0  0
  7  5  1  0  0  0  0
  8  6  1  0  0  0  0
  9  7  1  0  0  0  0
 10  8  1  0  0  0  0
 11  9  1  0  0  0  0
 12 10  1  0  0  0  0
 13 11  1  0  0  0  0
 14 12  1  0  0  0  0
 15 13  1  0  0  0  0
 16 14  1  0  0  0  0
 17 15  1  0  0  0  0
 18 16  1  0  0  0  0
 19 17  1  0  0  0  0
 20 18  1  0  0  0  0
 21 19  1  0  0  0  0
 22 20  1  0  0  0  0
 23 21  1  0  0  0  0
 24 22  1  0  0  0  0
 25 23  1  0  0  0  0
 26 24  1  0  0  0  0
 27 25  1  0  0  0  0
 28 26  1  0  0  0  0
 29 27  1  0  0  0  0
 30 28  1  0  0  0  0
 31 29  1  0  0  0  0
 32 30  1  0  0  0  0
 33 31  1  0  0  0  0
 34 32  1  0  0  0  0
 39 36  1  0  0  0  0
 39 37  1  0  0  0  0
 40 35  1  1  0  0  0
 41 38  1  1  0  0  0
 42 33  1  0  0  0  0
 43 34  1  0  0  0  0
 44 40  1  0  0  0  0
 45 41  1  0  0  0  0
 46 44  1  0  0  0  0
 47 45  1  0  0  0  0
 48 46  1  0  0  0  0
 49 47  1  0  0  0  0
 50 49  1  0  0  0  0
 51 48  1  0  0  0  0
 52 35  1  0  0  0  0
 53 42  2  0  0  0  0
 54 43  2  0  0  0  0
 44 55  1  1  0  0  0
 45 56  1  1  0  0  0
 46 57  1  1  0  0  0
 47 58  1  1  0  0  0
 48 59  1  6  0  0  0
 49 60  1  6  0  0  0
 61 36  1  0  0  0  0
 61 42  1  0  0  0  0
 62 37  1  0  0  0  0
 50 62  1  1  0  0  0
 63 38  1  0  0  0  0
 51 63  1  6  0  0  0
 39 64  1  6  0  0  0
 64 43  1  0  0  0  0
 65 40  1  0  0  0  0
 65 51  1  0  0  0  0
 66 41  1  0  0  0  0
 66 50  1  0  0  0  0
 39 67  1  6  0  0  0
 40 68  1  6  0  0  0
 41 69  1  6  0  0  0
 44 70  1  6  0  0  0
 45 71  1  6  0  0  0
 46 72  1  6  0  0  0
 47 73  1  6  0  0  0
 48 74  1  1  0  0  0
 49 75  1  1  0  0  0
 50 76  1  6  0  0  0
 51 77  1  1  0  0  0
M  END
> <DATABASE_ID>
DB03426

> <DATABASE_NAME>
drugbank

> <SMILES>
[H][C@@](COC(=O)CCCCCCCCCCCCCCCCC)(CO[C@]1([H])O[C@]([H])(CO[C@@]2([H])O[C@]([H])(CO)[C@]([H])(O)[C@]([H])(O)[C@@]2([H])O)[C@]([H])(O)[C@]([H])(O)[C@@]1([H])O)OC(=O)CCCCCCCCCCCCCCCCC

> <INCHI_IDENTIFIER>
InChI=1S/C51H96O15/c1-3-5-7-9-11-13-15-17-19-21-23-25-27-29-31-33-42(53)61-36-39(64-43(54)34-32-30-28-26-24-22-20-18-16-14-12-10-8-6-4-2)37-62-50-49(60)47(58)45(56)41(66-50)38-63-51-48(59)46(57)44(55)40(35-52)65-51/h39-41,44-52,55-60H,3-38H2,1-2H3/t39-,40-,41-,44+,45+,46+,47+,48-,49-,50-,51+/m1/s1

> <INCHI_KEY>
LDQFLSUQYHBXSX-HXXRYREZSA-N

> <FORMULA>
C51H96O15

> <MOLECULAR_WEIGHT>
949.2989

> <EXACT_MASS>
948.674922402

> <JCHEM_ACCEPTOR_COUNT>
13

> <JCHEM_ATOM_COUNT>
162

> <JCHEM_AVERAGE_NEUTRAL_MICROSPECIES_CHARGE>
-2.1579284456671022e-05

> <JCHEM_AVERAGE_POLARIZABILITY>
114.03255566201932

> <JCHEM_BIOAVAILABILITY>
0

> <JCHEM_DONOR_COUNT>
7

> <JCHEM_FORMAL_CHARGE>
0

> <JCHEM_GHOSE_FILTER>
0

> <JCHEM_IUPAC>
(2S)-1-(octadecanoyloxy)-3-{[(2R,3R,4S,5R,6R)-3,4,5-trihydroxy-6-({[(2S,3R,4S,5R,6R)-3,4,5-trihydroxy-6-(hydroxymethyl)oxan-2-yl]oxy}methyl)oxan-2-yl]oxy}propan-2-yl octadecanoate

> <ALOGPS_LOGP>
7.09

> <JCHEM_LOGP>
10.239697150666668

> <ALOGPS_LOGS>
-5.66

> <JCHEM_MDDR_LIKE_RULE>
0

> <JCHEM_NEUTRAL_CHARGE>
0

> <JCHEM_NUMBER_OF_RINGS>
2

> <JCHEM_PHYSIOLOGICAL_CHARGE>
0

> <JCHEM_PKA>
12.432924895860126

> <JCHEM_PKA_STRONGEST_ACIDIC>
11.910700359940156

> <JCHEM_PKA_STRONGEST_BASIC>
-2.981083422322401

> <JCHEM_POLAR_SURFACE_AREA>
231.1299999999999

> <JCHEM_REFRACTIVITY>
250.9295000000001

> <JCHEM_ROTATABLE_BOND_COUNT>
44

> <JCHEM_RULE_OF_FIVE>
0

> <ALOGPS_SOLUBILITY>
2.08e-03 g/l

> <JCHEM_TRADITIONAL_IUPAC>
biotin

> <JCHEM_VEBER_RULE>
0

> <DRUGBANK_ID>
DB03426

> <SECONDARY_ACCESSION_NUMBERS>
EXPT01176

> <DRUG_GROUPS>
experimental

> <GENERIC_NAME>
Digalactosyl Diacyl Glycerol (Dgdg)

$$$$
