
  Mrv0541 05041404562D          

 24 25  0  0  1  0            999 V2000
   -0.1431   -0.4131    0.0000 C   0  0  0  0  0  0  0  0  0  0  0  0
    0.8131    0.6488    0.0000 C   0  0  0  0  0  0  0  0  0  0  0  0
    0.4700   -0.9651    0.0000 C   0  0  0  0  0  0  0  0  0  0  0  0
    1.4262    0.0968    0.0000 C   0  0  0  0  0  0  0  0  0  0  0  0
   -0.5846    0.9459    0.0000 C   0  0  0  0  0  0  0  0  0  0  0  0
   -3.4888    0.9459    0.0000 C   0  0  0  0  0  0  0  0  0  0  0  0
   -2.5986   -1.5148    0.0000 C   0  0  0  0  0  0  0  0  0  0  0  0
    0.0284    0.3939    0.0000 C   0  0  0  0  0  0  0  0  0  0  0  0
    1.2546   -0.7102    0.0000 C   0  0  0  0  0  0  0  0  0  0  0  0
   -2.9341   -0.7611    0.0000 C   0  0  1  0  0  0  0  0  0  0  0  0
   -1.3693    0.6910    0.0000 C   0  0  0  0  0  0  0  0  0  0  0  0
   -3.6603    1.7529    0.0000 C   0  0  0  0  0  0  0  0  0  0  0  0
   -2.4492   -0.0937    0.0000 C   0  0  0  0  0  0  0  0  0  0  0  0
   -2.0367    1.1759    0.0000 C   0  0  0  0  0  0  0  0  0  0  0  0
   -3.7546   -0.6749    0.0000 N   0  0  0  0  0  0  0  0  0  0  0  0
   -1.6242   -0.0937    0.0000 N   0  0  0  0  0  0  0  0  0  0  0  0
   -2.7041    0.6910    0.0000 N   0  0  0  0  0  0  0  0  0  0  0  0
   -1.7781   -1.6010    0.0000 O   0  0  0  0  0  0  0  0  0  0  0  0
    1.8677   -1.2622    0.0000 O   0  0  0  0  0  0  0  0  0  0  0  0
   -4.4449    2.0078    0.0000 O   0  0  0  0  0  0  0  0  0  0  0  0
   -3.0472    2.3049    0.0000 O   0  0  0  0  0  0  0  0  0  0  0  0
   -2.0367    2.0009    0.0000 O   0  0  0  0  0  0  0  0  0  0  0  0
   -0.4131    1.7529    0.0000 H   0  0  0  0  0  0  0  0  0  0  0  0
   -2.1136   -0.8473    0.0000 H   0  0  0  0  0  0  0  0  0  0  0  0
  3  1  1  0  0  0  0
  4  2  2  0  0  0  0
  8  1  2  0  0  0  0
  8  2  1  0  0  0  0
  8  5  1  0  0  0  0
  9  3  2  0  0  0  0
  9  4  1  0  0  0  0
 10  7  1  0  0  0  0
 11  5  2  0  0  0  0
 12  6  1  0  0  0  0
 13 10  1  0  0  0  0
 14 11  1  0  0  0  0
 10 15  1  1  0  0  0
 16 11  1  0  0  0  0
 16 13  2  0  0  0  0
 17  6  1  0  0  0  0
 17 13  1  0  0  0  0
 17 14  1  0  0  0  0
 18  7  1  0  0  0  0
 19  9  1  0  0  0  0
 20 12  2  0  0  0  0
 21 12  1  0  0  0  0
 22 14  2  0  0  0  0
 23  5  1  0  0  0  0
 10 24  1  1  0  0  0
M  END
> <DATABASE_ID>
DB03537

> <DATABASE_NAME>
drugbank

> <SMILES>
[H]\C(=C1\N=C(N(CC(O)=O)C1=O)[C@@]([H])(N)CO)C1=CC=C(O)C=C1

> <INCHI_IDENTIFIER>
InChI=1S/C14H15N3O5/c15-10(7-18)13-16-11(14(22)17(13)6-12(20)21)5-8-1-3-9(19)4-2-8/h1-5,10,18-19H,6-7,15H2,(H,20,21)/b11-5-/t10-/m0/s1

> <INCHI_KEY>
XSUILVORURXWDH-QIMWGGGBSA-N

> <FORMULA>
C14H15N3O5

> <MOLECULAR_WEIGHT>
305.286

> <EXACT_MASS>
305.101170605

> <JCHEM_ACCEPTOR_COUNT>
7

> <JCHEM_ATOM_COUNT>
37

> <JCHEM_AVERAGE_NEUTRAL_MICROSPECIES_CHARGE>
-0.2513196778525019

> <JCHEM_AVERAGE_POLARIZABILITY>
30.328332779815646

> <JCHEM_BIOAVAILABILITY>
1

> <JCHEM_DONOR_COUNT>
4

> <JCHEM_FORMAL_CHARGE>
0

> <JCHEM_GHOSE_FILTER>
0

> <JCHEM_IUPAC>
2-[(4Z)-2-[(1R)-1-amino-2-hydroxyethyl]-4-[(4-hydroxyphenyl)methylidene]-5-oxo-4,5-dihydro-1H-imidazol-1-yl]acetic acid

> <ALOGPS_LOGP>
-1.27

> <JCHEM_LOGP>
-3.246385334623738

> <ALOGPS_LOGS>
-2.82

> <JCHEM_MDDR_LIKE_RULE>
0

> <JCHEM_NEUTRAL_CHARGE>
0

> <JCHEM_NUMBER_OF_RINGS>
2

> <JCHEM_PHYSIOLOGICAL_CHARGE>
0

> <JCHEM_PKA>
9.235490263163793

> <JCHEM_PKA_STRONGEST_ACIDIC>
3.284275851369395

> <JCHEM_PKA_STRONGEST_BASIC>
7.48689342237014

> <JCHEM_POLAR_SURFACE_AREA>
136.45000000000002

> <JCHEM_REFRACTIVITY>
77.4674

> <JCHEM_ROTATABLE_BOND_COUNT>
5

> <JCHEM_RULE_OF_FIVE>
1

> <ALOGPS_SOLUBILITY>
4.57e-01 g/l

> <JCHEM_TRADITIONAL_IUPAC>
tetrahydrofolic acid

> <JCHEM_VEBER_RULE>
0

> <DRUGBANK_ID>
DB03537

> <SECONDARY_ACCESSION_NUMBERS>
EXPT01042

> <DRUG_GROUPS>
experimental

> <GENERIC_NAME>
[4-(4-Hydroxy-Benzyl)-2-(2-Hydroxy-1-Methyl-Ethyl)-5-Oxo-Imidazolidin-1-Yl]-Acetic Acid

$$$$
