
  Mrv0541 02231217232D          

 10 10  0  0  0  0            999 V2000
    2.1434    1.2375    0.0000 N   0  0  0  0  0  0  0  0  0  0  0  0
    1.4289    0.8250    0.0000 C   0  0  0  0  0  0  0  0  0  0  0  0
    1.4289    0.0000    0.0000 C   0  0  0  0  0  0  0  0  0  0  0  0
    0.7145   -0.4125    0.0000 C   0  0  0  0  0  0  0  0  0  0  0  0
    0.0000    0.0000    0.0000 C   0  0  0  0  0  0  0  0  0  0  0  0
    0.0000    0.8250    0.0000 C   0  0  0  0  0  0  0  0  0  0  0  0
    0.7145    1.2375    0.0000 C   0  0  0  0  0  0  0  0  0  0  0  0
    0.7145    2.0625    0.0000 C   0  0  0  0  0  0  0  0  0  0  0  0
    0.0000    2.4750    0.0000 O   0  0  0  0  0  0  0  0  0  0  0  0
    1.4289    2.4750    0.0000 O   0  0  0  0  0  0  0  0  0  0  0  0
  1  2  1  0  0  0  0
  2  3  2  0  0  0  0
  3  4  1  0  0  0  0
  4  5  2  0  0  0  0
  5  6  1  0  0  0  0
  6  7  2  0  0  0  0
  2  7  1  0  0  0  0
  7  8  1  0  0  0  0
  8  9  1  0  0  0  0
  8 10  2  0  0  0  0
M  END
> <DATABASE_ID>
DB04166

> <DATABASE_NAME>
drugbank

> <SMILES>
NC1=CC=CC=C1C(O)=O

> <INCHI_IDENTIFIER>
InChI=1S/C7H7NO2/c8-6-4-2-1-3-5(6)7(9)10/h1-4H,8H2,(H,9,10)

> <INCHI_KEY>
RWZYAGGXGHYGMB-UHFFFAOYSA-N

> <FORMULA>
C7H7NO2

> <MOLECULAR_WEIGHT>
137.136

> <EXACT_MASS>
137.047678473

> <JCHEM_ACCEPTOR_COUNT>
3

> <JCHEM_ATOM_COUNT>
17

> <JCHEM_AVERAGE_NEUTRAL_MICROSPECIES_CHARGE>
-0.994510155300916

> <JCHEM_AVERAGE_POLARIZABILITY>
13.288743336988986

> <JCHEM_BIOAVAILABILITY>
1

> <JCHEM_DONOR_COUNT>
2

> <JCHEM_FORMAL_CHARGE>
0

> <JCHEM_GHOSE_FILTER>
0

> <JCHEM_IUPAC>
2-aminobenzoic acid

> <ALOGPS_LOGP>
0.78

> <JCHEM_LOGP>
1.4519027699999998

> <ALOGPS_LOGS>
-1.30

> <JCHEM_MDDR_LIKE_RULE>
0

> <JCHEM_NEUTRAL_CHARGE>
-1

> <JCHEM_NUMBER_OF_RINGS>
1

> <JCHEM_PHYSIOLOGICAL_CHARGE>
-1

> <JCHEM_PKA>
19.44069433947566

> <JCHEM_PKA_STRONGEST_ACIDIC>
4.892673611619119

> <JCHEM_PKA_STRONGEST_BASIC>
1.9474348350285466

> <JCHEM_POLAR_SURFACE_AREA>
63.32

> <JCHEM_REFRACTIVITY>
38.0146

> <JCHEM_ROTATABLE_BOND_COUNT>
1

> <JCHEM_RULE_OF_FIVE>
1

> <ALOGPS_SOLUBILITY>
6.81e+00 g/l

> <JCHEM_TRADITIONAL_IUPAC>
biotin

> <JCHEM_VEBER_RULE>
0

> <DRUGBANK_ID>
DB04166

> <SECONDARY_ACCESSION_NUMBERS>
EXPT00283; EXPT00656; DB04056

> <DRUG_GROUPS>
experimental

> <GENERIC_NAME>
Anthranilic acid

> <SYNONYMS>
2-Aminobenzoesäure; 2-aminobenzoic acid; 2-carboxyaniline; o-Aminobenzoesäure; o-Aminobenzoic acid; o-carboxyaniline; Vitamin L1

$$$$
