
  Mrv0541 02231217012D          

 27 26  0  0  0  0            999 V2000
   14.1355    8.9862    0.0000 C   0  0  0  0  0  0  0  0  0  0  0  0
   14.8500    8.5737    0.0000 C   0  0  0  0  0  0  0  0  0  0  0  0
   15.5645    8.9862    0.0000 O   0  0  0  0  0  0  0  0  0  0  0  0
   16.2789    8.5737    0.0000 C   0  0  0  0  0  0  0  0  0  0  0  0
   16.9934    8.9862    0.0000 C   0  0  0  0  0  0  0  0  0  0  0  0
   17.7079    8.5737    0.0000 O   0  0  0  0  0  0  0  0  0  0  0  0
   18.4224    8.9862    0.0000 C   0  0  0  0  0  0  0  0  0  0  0  0
   19.1368    8.5737    0.0000 C   0  0  0  0  0  0  0  0  0  0  0  0
   19.8513    8.9862    0.0000 O   0  0  0  0  0  0  0  0  0  0  0  0
   20.5658    8.5737    0.0000 C   0  0  0  0  0  0  0  0  0  0  0  0
   21.2802    8.9862    0.0000 C   0  0  0  0  0  0  0  0  0  0  0  0
   21.9947    8.5737    0.0000 O   0  0  0  0  0  0  0  0  0  0  0  0
   22.7092    8.9862    0.0000 C   0  0  0  0  0  0  0  0  0  0  0  0
   23.4237    8.5737    0.0000 C   0  0  0  0  0  0  0  0  0  0  0  0
   24.1381    8.9862    0.0000 O   0  0  0  0  0  0  0  0  0  0  0  0
   24.8526    8.5737    0.0000 C   0  0  0  0  0  0  0  0  0  0  0  0
   25.5671    8.9862    0.0000 C   0  0  0  0  0  0  0  0  0  0  0  0
   26.2815    8.5737    0.0000 O   0  0  0  0  0  0  0  0  0  0  0  0
   26.9960    8.9862    0.0000 C   0  0  0  0  0  0  0  0  0  0  0  0
   27.7105    8.5737    0.0000 C   0  0  0  0  0  0  0  0  0  0  0  0
   28.4249    8.9862    0.0000 O   0  0  0  0  0  0  0  0  0  0  0  0
   29.1394    8.5737    0.0000 C   0  0  0  0  0  0  0  0  0  0  0  0
   29.8539    8.9862    0.0000 C   0  0  0  0  0  0  0  0  0  0  0  0
   30.5684    8.5737    0.0000 O   0  0  0  0  0  0  0  0  0  0  0  0
   31.2828    8.9862    0.0000 C   0  0  0  0  0  0  0  0  0  0  0  0
   31.9973    8.5737    0.0000 C   0  0  0  0  0  0  0  0  0  0  0  0
   32.7118    8.9862    0.0000 O   0  0  0  0  0  0  0  0  0  0  0  0
  1  2  1  0  0  0  0
  2  3  1  0  0  0  0
  3  4  1  0  0  0  0
  4  5  1  0  0  0  0
  5  6  1  0  0  0  0
  6  7  1  0  0  0  0
  7  8  1  0  0  0  0
  8  9  1  0  0  0  0
  9 10  1  0  0  0  0
 10 11  1  0  0  0  0
 11 12  1  0  0  0  0
 12 13  1  0  0  0  0
 13 14  1  0  0  0  0
 14 15  1  0  0  0  0
 15 16  1  0  0  0  0
 16 17  1  0  0  0  0
 17 18  1  0  0  0  0
 18 19  1  0  0  0  0
 19 20  1  0  0  0  0
 20 21  1  0  0  0  0
 21 22  1  0  0  0  0
 22 23  1  0  0  0  0
 23 24  1  0  0  0  0
 24 25  1  0  0  0  0
 25 26  1  0  0  0  0
 26 27  1  0  0  0  0
M  END
> <DATABASE_ID>
DB03556

> <DATABASE_NAME>
drugbank

> <SMILES>
CCOCCOCCOCCOCCOCCOCCOCCOCCO

> <INCHI_IDENTIFIER>
InChI=1S/C18H38O9/c1-2-20-5-6-22-9-10-24-13-14-26-17-18-27-16-15-25-12-11-23-8-7-21-4-3-19/h19H,2-18H2,1H3

> <INCHI_KEY>
CUDPPTPIUWYGFI-UHFFFAOYSA-N

> <FORMULA>
C18H38O9

> <MOLECULAR_WEIGHT>
398.4889

> <EXACT_MASS>
398.251582814

> <JCHEM_ACCEPTOR_COUNT>
9

> <JCHEM_ATOM_COUNT>
65

> <JCHEM_AVERAGE_NEUTRAL_MICROSPECIES_CHARGE>
-7.3092734796716955e-09

> <JCHEM_AVERAGE_POLARIZABILITY>
47.7745089283103

> <JCHEM_BIOAVAILABILITY>
1

> <JCHEM_DONOR_COUNT>
1

> <JCHEM_FORMAL_CHARGE>
0

> <JCHEM_GHOSE_FILTER>
0

> <JCHEM_IUPAC>
3,6,9,12,15,18,21,24-octaoxahexacosan-1-ol

> <ALOGPS_LOGP>
-0.38

> <JCHEM_LOGP>
-0.5375731806666673

> <ALOGPS_LOGS>
-3.23

> <JCHEM_MDDR_LIKE_RULE>
0

> <JCHEM_NEUTRAL_CHARGE>
0

> <JCHEM_NUMBER_OF_RINGS>
0

> <JCHEM_PHYSIOLOGICAL_CHARGE>
0

> <JCHEM_PKA_STRONGEST_ACIDIC>
15.121155523152114

> <JCHEM_PKA_STRONGEST_BASIC>
-2.7458065741732653

> <JCHEM_POLAR_SURFACE_AREA>
94.07000000000002

> <JCHEM_REFRACTIVITY>
101.3579

> <JCHEM_ROTATABLE_BOND_COUNT>
24

> <JCHEM_RULE_OF_FIVE>
1

> <ALOGPS_SOLUBILITY>
2.32e-01 g/l

> <JCHEM_TRADITIONAL_IUPAC>
tetrahydrofolic acid

> <JCHEM_VEBER_RULE>
0

> <DRUGBANK_ID>
DB03556

> <SECONDARY_ACCESSION_NUMBERS>
EXPT02539

> <DRUG_GROUPS>
experimental

> <GENERIC_NAME>
2-(2-{2-[2-(2-{2-[2-(2-Ethoxy-Ethoxy)-Ethoxy]-Ethoxy}-Ethoxy)-Ethoxy]-Ethoxy}-Ethoxy)-Ethanol, Polyethyleneglycol Peg400

$$$$
