
  Mrv0541 05031419582D          

 49 57  0  0  0  0            999 V2000
    8.6181   -1.2406    0.0000 C   0  0  0  0  0  0  0  0  0  0  0  0
    5.0486   -0.5555    0.0000 C   0  0  0  0  0  0  0  0  0  0  0  0
    3.4621    0.4264    0.0000 C   0  0  0  0  0  0  0  0  0  0  0  0
    1.0083    0.9484    0.0000 C   0  0  0  0  0  0  0  0  0  0  0  0
    5.2283   -3.5470    0.0000 C   0  0  0  0  0  0  0  0  0  0  0  0
    7.9896    0.1441    0.0000 C   0  0  0  0  0  0  0  0  0  0  0  0
    7.7740   -1.0671    0.0000 C   0  0  0  0  0  0  0  0  0  0  0  0
    5.0076    0.2659    0.0000 C   0  0  0  0  0  0  0  0  0  0  0  0
    7.6685    3.0692    0.0000 C   0  0  0  0  0  0  0  0  0  0  0  0
    6.8698    3.2760    0.0000 C   0  0  0  0  0  0  0  0  0  0  0  0
    7.8888    2.2742    0.0000 C   0  0  0  0  0  0  0  0  0  0  0  0
    6.2915    2.6877    0.0000 C   0  0  0  0  0  0  0  0  0  0  0  0
    7.3104    1.6859    0.0000 C   0  0  0  0  0  0  0  0  0  0  0  0
    0.8165   -0.9192    0.0000 C   0  0  0  0  0  0  0  0  0  0  0  0
    3.3812   -3.5232    0.0000 C   0  0  0  0  0  0  0  0  0  0  0  0
   -0.0263   -0.7709    0.0000 C   0  0  0  0  0  0  0  0  0  0  0  0
    3.4077   -4.3790    0.0000 C   0  0  0  0  0  0  0  0  0  0  0  0
    2.9495    1.4992    0.0000 C   0  0  0  0  0  0  0  0  0  0  0  0
    5.7385   -1.6795    0.0000 C   0  0  0  0  0  0  0  0  0  0  0  0
    2.7546   -1.4847    0.0000 C   0  0  0  0  0  0  0  0  0  0  0  0
    3.8671    1.1123    0.0000 C   0  0  0  0  0  0  0  0  0  0  0  0
    1.6294    0.3584    0.0000 C   0  0  0  0  0  0  0  0  0  0  0  0
    4.7186   -2.8585    0.0000 C   0  0  0  0  0  0  0  0  0  0  0  0
    7.1124    0.2845    0.0000 C   0  0  0  0  0  0  0  0  0  0  0  0
    6.5117    1.8926    0.0000 C   0  0  0  0  0  0  0  0  0  0  0  0
    7.0586   -0.5388    0.0000 C   0  0  0  0  0  0  0  0  0  0  0  0
    4.6904    1.0585    0.0000 C   0  0  0  0  0  0  0  0  0  0  0  0
    1.5756   -0.4648    0.0000 C   0  0  0  0  0  0  0  0  0  0  0  0
    3.8954   -2.8048    0.0000 C   0  0  0  0  0  0  0  0  0  0  0  0
    2.4289    0.5617    0.0000 C   0  0  0  0  0  0  0  0  0  0  0  0
    5.0241   -2.0922    0.0000 C   0  0  0  0  0  0  0  0  0  0  0  0
    3.6638    1.9119    0.0000 C   0  0  0  0  0  0  0  0  0  0  0  0
    6.2590   -0.7421    0.0000 C   0  0  0  0  0  0  0  0  0  0  0  0
    2.3420   -0.7703    0.0000 C   0  0  0  0  0  0  0  0  0  0  0  0
    3.6921   -2.0052    0.0000 C   0  0  0  0  0  0  0  0  0  0  0  0
   -0.3088    0.0042    0.0000 C   0  0  0  0  0  0  0  0  0  0  0  0
    4.1346   -4.7692    0.0000 C   0  0  0  0  0  0  0  0  0  0  0  0
    5.9333    1.3044    0.0000 C   0  0  0  0  0  0  0  0  0  0  0  0
    6.3460    0.5900    0.0000 C   0  0  0  0  0  0  0  0  0  0  0  0
    4.9959    1.8249    0.0000 C   0  0  0  0  0  0  0  0  0  0  0  0
    4.3598    0.1518    0.0000 Fe  0  2  0  0  0  0  0  0  0  0  0  0
    2.8693   -0.1359    0.0000 N   0  0  0  0  0  0  0  0  0  0  0  0
    4.3897   -1.5648    0.0000 N   0  0  0  0  0  0  0  0  0  0  0  0
    4.3615    2.3523    0.0000 N   0  0  0  0  0  0  0  0  0  0  0  0
    5.8186   -0.0444    0.0000 N   0  0  0  0  0  0  0  0  0  0  0  0
   -1.1213    0.1472    0.0000 O   0  0  0  0  0  0  0  0  0  0  0  0
    0.2213    0.6364    0.0000 O   0  0  0  0  0  0  0  0  0  0  0  0
    4.8360   -4.3347    0.0000 O   0  0  0  0  0  0  0  0  0  0  0  0
    4.1602   -5.5938    0.0000 O   0  0  0  0  0  0  0  0  0  0  0  0
  7  1  2  0  0  0  0
  8  2  2  0  0  0  0
 10  9  2  0  0  0  0
 11  9  1  0  0  0  0
 12 10  1  0  0  0  0
 13 11  2  0  0  0  0
 16 14  1  0  0  0  0
 17 15  1  0  0  0  0
 21  3  1  0  0  0  0
 22  4  1  0  0  0  0
 23  5  1  0  0  0  0
 24  6  1  0  0  0  0
 25 12  2  0  0  0  0
 25 13  1  0  0  0  0
 26  7  1  0  0  0  0
 26 24  1  0  0  0  0
 27  8  1  0  0  0  0
 27 21  1  0  0  0  0
 28 14  1  0  0  0  0
 28 22  2  0  0  0  0
 29 15  1  0  0  0  0
 29 23  1  0  0  0  0
 30 18  2  0  0  0  0
 30 22  1  0  0  0  0
 31 19  1  0  0  0  0
 31 23  2  0  0  0  0
 32 18  1  0  0  0  0
 32 21  2  0  0  0  0
 33 19  2  0  0  0  0
 33 26  1  0  0  0  0
 34 20  2  0  0  0  0
 34 28  1  0  0  0  0
 35 20  1  0  0  0  0
 35 29  2  0  0  0  0
 36 16  1  0  0  0  0
 37 17  1  0  0  0  0
 38 25  1  0  0  0  0
 39 24  1  0  0  0  0
 39 38  2  0  0  0  0
 40 27  2  0  0  0  0
 40 38  1  0  0  0  0
 42 30  1  0  0  0  0
 42 34  1  0  0  0  0
 42 41  1  0  0  0  0
 43 31  1  0  0  0  0
 43 35  1  0  0  0  0
 43 41  1  0  0  0  0
 44 32  1  0  0  0  0
 44 40  1  0  0  0  0
 44 41  1  0  0  0  0
 45 33  1  0  0  0  0
 45 39  1  0  0  0  0
 45 41  1  0  0  0  0
 46 36  1  0  0  0  0
 47 36  2  0  0  0  0
 48 37  1  0  0  0  0
 49 37  2  0  0  0  0
M  CHG  1  41   2
M  END
> <DATABASE_ID>
DB02468

> <DATABASE_NAME>
drugbank

> <SMILES>
CC1C(C=C)C2=CC3=C(C)C(CCC(O)=O)=C4C=C5N6C(=CC7=C(C)C(C=C)=C8N7[Fe++]6(N34)N2C1=C8C1=CC=CC=C1)C(C)=C5CCC(O)=O

> <INCHI_IDENTIFIER>
InChI=1S/C40H38N4O4.Fe/c1-7-26-24(6)39-38(25-12-10-9-11-13-25)40-27(8-2)21(3)32(43-40)18-30-22(4)28(14-16-36(45)46)34(41-30)20-35-29(15-17-37(47)48)23(5)31(42-35)19-33(26)44-39;/h7-13,18-20,24,26H,1-2,14-17H2,3-6H3,(H,45,46)(H,47,48);/q-4;+6/b30-18-,33-19-,34-20-,39-38-;

> <INCHI_KEY>
ULDWFUFUNJMSCJ-ZXHVEAKLSA-N

> <FORMULA>
C40H38FeN4O4

> <MOLECULAR_WEIGHT>
694.599

> <EXACT_MASS>
694.224247857

> <JCHEM_ACCEPTOR_COUNT>
4

> <JCHEM_ATOM_COUNT>
87

> <JCHEM_AVERAGE_NEUTRAL_MICROSPECIES_CHARGE>
0.0011339790321787113

> <JCHEM_AVERAGE_POLARIZABILITY>
78.93410291151693

> <JCHEM_BIOAVAILABILITY>
0

> <JCHEM_DONOR_COUNT>
2

> <JCHEM_FORMAL_CHARGE>
2

> <JCHEM_GHOSE_FILTER>
0

> <JCHEM_IUPAC>
5,9-bis(2-carboxyethyl)-15,20-diethenyl-4,10,14,19-tetramethyl-17-phenyl-2,22,23,25-tetraaza-1-ferraoctacyclo[11.9.1.1^{1,8}.1^{3,21}.0^{2,6}.0^{16,23}.0^{18,22}.0^{11,25}]pentacosa-3,5,7,9,11,13,15,17,21(24)-nonaene-1,1-bis(ylium)

> <ALOGPS_LOGP>
6.40

> <JCHEM_LOGP>
8.6393

> <ALOGPS_LOGS>
-5.45

> <JCHEM_MDDR_LIKE_RULE>
1

> <JCHEM_NEUTRAL_CHARGE>
0

> <JCHEM_NUMBER_OF_RINGS>
9

> <JCHEM_PHYSIOLOGICAL_CHARGE>
0

> <JCHEM_PKA>
4.163366393864092

> <JCHEM_PKA_STRONGEST_ACIDIC>
3.559323961913707

> <JCHEM_POLAR_SURFACE_AREA>
94.32

> <JCHEM_REFRACTIVITY>
194.5904000000001

> <JCHEM_ROTATABLE_BOND_COUNT>
9

> <JCHEM_RULE_OF_FIVE>
0

> <ALOGPS_SOLUBILITY>
2.74e-03 g/l

> <JCHEM_TRADITIONAL_IUPAC>
tetrahydrofolic acid

> <JCHEM_VEBER_RULE>
0

> <DRUGBANK_ID>
DB02468

> <SECONDARY_ACCESSION_NUMBERS>
EXPT00073

> <DRUG_GROUPS>
experimental

> <GENERIC_NAME>
12-Phenylheme

$$$$
