
  Mrv0541 02231217542D          

  8  7  0  0  0  0            999 V2000
    1.7605    1.8414    0.0000 O   0  0  0  0  0  0  0  0  0  0  0  0
    2.4750    1.4289    0.0000 C   0  0  0  0  0  0  0  0  0  0  0  0
    3.1895    1.8414    0.0000 C   0  0  0  0  0  0  0  0  0  0  0  0
    3.9039    1.4289    0.0000 C   0  0  0  0  0  0  0  0  0  0  0  0
    4.6184    1.8414    0.0000 C   0  0  0  0  0  0  0  0  0  0  0  0
    5.3329    1.4289    0.0000 C   0  0  0  0  0  0  0  0  0  0  0  0
    6.0474    1.8414    0.0000 O   0  0  0  0  0  0  0  0  0  0  0  0
    5.3329    0.6039    0.0000 O   0  0  0  0  0  0  0  0  0  0  0  0
  1  2  1  0  0  0  0
  2  3  1  0  0  0  0
  3  4  1  0  0  0  0
  4  5  1  0  0  0  0
  5  6  1  0  0  0  0
  6  7  1  0  0  0  0
  6  8  2  0  0  0  0
M  END
> <DATABASE_ID>
DB04781

> <DATABASE_NAME>
drugbank

> <SMILES>
OCCCCC(O)=O

> <INCHI_IDENTIFIER>
InChI=1S/C5H10O3/c6-4-2-1-3-5(7)8/h6H,1-4H2,(H,7,8)

> <INCHI_KEY>
PHOJOSOUIAQEDH-UHFFFAOYSA-N

> <FORMULA>
C5H10O3

> <MOLECULAR_WEIGHT>
118.1311

> <EXACT_MASS>
118.062994186

> <JCHEM_ACCEPTOR_COUNT>
3

> <JCHEM_ATOM_COUNT>
18

> <JCHEM_AVERAGE_NEUTRAL_MICROSPECIES_CHARGE>
-0.9960867196968944

> <JCHEM_AVERAGE_POLARIZABILITY>
12.181396768408051

> <JCHEM_BIOAVAILABILITY>
1

> <JCHEM_DONOR_COUNT>
2

> <JCHEM_FORMAL_CHARGE>
0

> <JCHEM_GHOSE_FILTER>
0

> <JCHEM_IUPAC>
5-hydroxypentanoic acid

> <ALOGPS_LOGP>
-0.23

> <JCHEM_LOGP>
-0.07035115399999997

> <ALOGPS_LOGS>
0.31

> <JCHEM_MDDR_LIKE_RULE>
0

> <JCHEM_NEUTRAL_CHARGE>
-1

> <JCHEM_NUMBER_OF_RINGS>
0

> <JCHEM_PHYSIOLOGICAL_CHARGE>
-1

> <JCHEM_PKA>
16.91852576987235

> <JCHEM_PKA_STRONGEST_ACIDIC>
4.594243850553478

> <JCHEM_PKA_STRONGEST_BASIC>
-1.959636980631238

> <JCHEM_POLAR_SURFACE_AREA>
57.53

> <JCHEM_REFRACTIVITY>
28.4013

> <JCHEM_ROTATABLE_BOND_COUNT>
4

> <JCHEM_RULE_OF_FIVE>
1

> <ALOGPS_SOLUBILITY>
2.43e+02 g/l

> <JCHEM_TRADITIONAL_IUPAC>
tetrahydrofolic acid

> <JCHEM_VEBER_RULE>
0

> <DRUGBANK_ID>
DB04781

> <DRUG_GROUPS>
experimental

> <GENERIC_NAME>
5-hydroxyvaleric acid

> <SYNONYMS>
4-oxy-butan-carbonsäure; 5-hydroxy-pentansäure; 5-hydroxypentanoic acid; delta-hydroxypentanoic acid; delta-hydroxyvaleric acid

$$$$
