
  Mrv0541 02231217142D          

 11 10  0  0  1  0            999 V2000
    1.0461    1.4289    0.0000 C   0  0  0  0  0  0  0  0  0  0  0  0
    1.7605    1.8414    0.0000 C   0  0  0  0  0  0  0  0  0  0  0  0
    1.7605    2.6664    0.0000 O   0  0  0  0  0  0  0  0  0  0  0  0
    2.4750    1.4289    0.0000 C   0  0  0  0  0  0  0  0  0  0  0  0
    3.1895    1.8414    0.0000 S   0  0  0  0  0  0  0  0  0  0  0  0
    3.9039    1.4289    0.0000 C   0  0  0  0  0  0  0  0  0  0  0  0
    4.6184    1.8414    0.0000 C   0  0  2  0  0  0  0  0  0  0  0  0
    4.6184    2.6664    0.0000 N   0  0  0  0  0  0  0  0  0  0  0  0
    5.3329    1.4289    0.0000 C   0  0  0  0  0  0  0  0  0  0  0  0
    6.0474    1.8414    0.0000 O   0  0  0  0  0  0  0  0  0  0  0  0
    5.3329    0.6039    0.0000 O   0  0  0  0  0  0  0  0  0  0  0  0
  1  2  1  0  0  0  0
  2  3  2  0  0  0  0
  2  4  1  0  0  0  0
  4  5  1  0  0  0  0
  5  6  1  0  0  0  0
  6  7  1  0  0  0  0
  7  8  1  6  0  0  0
  7  9  1  0  0  0  0
  9 10  1  0  0  0  0
  9 11  2  0  0  0  0
M  END
> <DATABASE_ID>
DB03858

> <DATABASE_NAME>
drugbank

> <SMILES>
CC(=O)CSC[C@H](N)C(O)=O

> <INCHI_IDENTIFIER>
InChI=1S/C6H11NO3S/c1-4(8)2-11-3-5(7)6(9)10/h5H,2-3,7H2,1H3,(H,9,10)/t5-/m0/s1

> <INCHI_KEY>
BYMSHHJFWDLNBG-YFKPBYRVSA-N

> <FORMULA>
C6H11NO3S

> <MOLECULAR_WEIGHT>
177.221

> <EXACT_MASS>
177.045963913

> <JCHEM_ACCEPTOR_COUNT>
4

> <JCHEM_ATOM_COUNT>
22

> <JCHEM_AVERAGE_NEUTRAL_MICROSPECIES_CHARGE>
-0.007992447550564719

> <JCHEM_AVERAGE_POLARIZABILITY>
17.756090119385103

> <JCHEM_BIOAVAILABILITY>
1

> <JCHEM_DONOR_COUNT>
2

> <JCHEM_FORMAL_CHARGE>
0

> <JCHEM_GHOSE_FILTER>
0

> <JCHEM_IUPAC>
(2R)-2-amino-3-[(2-oxopropyl)sulfanyl]propanoic acid

> <ALOGPS_LOGP>
-2.10

> <JCHEM_LOGP>
-2.9090262510141933

> <ALOGPS_LOGS>
-1.07

> <JCHEM_MDDR_LIKE_RULE>
0

> <JCHEM_NEUTRAL_CHARGE>
0

> <JCHEM_NUMBER_OF_RINGS>
0

> <JCHEM_PHYSIOLOGICAL_CHARGE>
0

> <JCHEM_PKA>
16.52262480646127

> <JCHEM_PKA_STRONGEST_ACIDIC>
2.1631426762037296

> <JCHEM_PKA_STRONGEST_BASIC>
9.093042907846035

> <JCHEM_POLAR_SURFACE_AREA>
80.39000000000001

> <JCHEM_REFRACTIVITY>
42.657900000000005

> <JCHEM_ROTATABLE_BOND_COUNT>
5

> <JCHEM_RULE_OF_FIVE>
1

> <ALOGPS_SOLUBILITY>
1.49e+01 g/l

> <JCHEM_TRADITIONAL_IUPAC>
biotin

> <JCHEM_VEBER_RULE>
0

> <DRUGBANK_ID>
DB03858

> <SECONDARY_ACCESSION_NUMBERS>
EXPT01030

> <DRUG_GROUPS>
experimental

> <GENERIC_NAME>
S-Acetonylcysteine

$$$$
