
  Mrv0541 02231215382D          

 12 12  0  0  1  0            999 V2000
    1.5783    2.2433    0.0000 N   0  0  0  0  0  0  0  0  0  0  0  0
    2.1913    1.6913    0.0000 C   0  0  1  0  0  0  0  0  0  0  0  0
    2.0198    0.8843    0.0000 C   0  0  0  0  0  0  0  0  0  0  0  0
    1.2352    0.6294    0.0000 C   0  0  0  0  0  0  0  0  0  0  0  0
    0.9803   -0.1553    0.0000 C   0  0  0  0  0  0  0  0  0  0  0  0
    0.1553   -0.1553    0.0000 O   0  0  0  0  0  0  0  0  0  0  0  0
   -0.0997    0.6294    0.0000 N   0  0  0  0  0  0  0  0  0  0  0  0
    0.5678    1.1143    0.0000 C   0  0  0  0  0  0  0  0  0  0  0  0
    0.5678    1.9393    0.0000 O   0  0  0  0  0  0  0  0  0  0  0  0
    2.9760    1.9462    0.0000 C   0  0  0  0  0  0  0  0  0  0  0  0
    3.1475    2.7532    0.0000 O   0  0  0  0  0  0  0  0  0  0  0  0
    3.5891    1.3942    0.0000 O   0  0  0  0  0  0  0  0  0  0  0  0
  2  1  1  6  0  0  0
  2  3  1  0  0  0  0
  3  4  1  0  0  0  0
  4  5  2  0  0  0  0
  5  6  1  0  0  0  0
  6  7  1  0  0  0  0
  7  8  1  0  0  0  0
  4  8  1  0  0  0  0
  8  9  2  0  0  0  0
  2 10  1  0  0  0  0
 10 11  1  0  0  0  0
 10 12  2  0  0  0  0
M  END
> <DATABASE_ID>
DB01664

> <DATABASE_NAME>
drugbank

> <SMILES>
N[C@@H](CC1=CONC1=O)C(O)=O

> <INCHI_IDENTIFIER>
InChI=1S/C6H8N2O4/c7-4(6(10)11)1-3-2-12-8-5(3)9/h2,4H,1,7H2,(H,8,9)(H,10,11)/t4-/m0/s1

> <INCHI_KEY>
ZKLGQYGPVBFAQQ-BYPYZUCNSA-N

> <FORMULA>
C6H8N2O4

> <MOLECULAR_WEIGHT>
172.1387

> <EXACT_MASS>
172.048406754

> <JCHEM_ACCEPTOR_COUNT>
5

> <JCHEM_ATOM_COUNT>
20

> <JCHEM_AVERAGE_NEUTRAL_MICROSPECIES_CHARGE>
-0.8633596339642041

> <JCHEM_AVERAGE_POLARIZABILITY>
15.013996726843164

> <JCHEM_BIOAVAILABILITY>
1

> <JCHEM_DONOR_COUNT>
3

> <JCHEM_FORMAL_CHARGE>
0

> <JCHEM_GHOSE_FILTER>
0

> <JCHEM_IUPAC>
(2S)-2-amino-3-(3-oxo-2,3-dihydro-1,2-oxazol-4-yl)propanoic acid

> <ALOGPS_LOGP>
-2.79

> <JCHEM_LOGP>
-3.6391579972102597

> <ALOGPS_LOGS>
-0.55

> <JCHEM_MDDR_LIKE_RULE>
0

> <JCHEM_NEUTRAL_CHARGE>
-1

> <JCHEM_NUMBER_OF_RINGS>
1

> <JCHEM_PHYSIOLOGICAL_CHARGE>
-1

> <JCHEM_PKA>
6.215105459921307

> <JCHEM_PKA_STRONGEST_ACIDIC>
1.7733954374412906

> <JCHEM_PKA_STRONGEST_BASIC>
9.362304958074617

> <JCHEM_POLAR_SURFACE_AREA>
101.65

> <JCHEM_REFRACTIVITY>
37.451100000000004

> <JCHEM_ROTATABLE_BOND_COUNT>
3

> <JCHEM_RULE_OF_FIVE>
1

> <ALOGPS_SOLUBILITY>
4.89e+01 g/l

> <JCHEM_TRADITIONAL_IUPAC>
biotin

> <JCHEM_VEBER_RULE>
0

> <DRUGBANK_ID>
DB01664

> <SECONDARY_ACCESSION_NUMBERS>
EXPT02903

> <DRUG_GROUPS>
experimental

> <GENERIC_NAME>
(S)-DES-ME-AMPA

> <SYNONYMS>
(S)-2-amino-3-(3-hydroxy-isoxazol-4-yl)propionic acid

$$$$
