
  Mrv0541 02231217572D          

 39 41  0  0  0  0            999 V2000
    2.3645   -1.8460    0.0000 S   0  0  0  0  0  0  0  0  0  0  0  0
    6.0031   -2.9224    0.0000 O   0  0  0  0  0  0  0  0  0  0  0  0
    9.4885   -0.1299    0.0000 O   0  0  0  0  0  0  0  0  0  0  0  0
    5.7085   -0.1964    0.0000 O   0  0  0  0  0  0  0  0  0  0  0  0
    2.7770   -2.5604    0.0000 O   0  0  0  0  0  0  0  0  0  0  0  0
    1.9520   -1.1315    0.0000 O   0  0  0  0  0  0  0  0  0  0  0  0
   11.6158    1.7788    0.0000 N   0  0  0  0  0  0  0  0  0  0  0  0
    3.0791   -1.4335    0.0000 N   0  0  0  0  0  0  0  0  0  0  0  0
   11.8720    2.5630    0.0000 C   0  0  0  0  0  0  0  0  0  0  0  0
   12.1667    1.1648    0.0000 C   0  0  0  0  0  0  0  0  0  0  0  0
   10.8085    1.6087    0.0000 C   0  0  0  0  0  0  0  0  0  0  0  0
   12.6793    2.7331    0.0000 C   0  0  0  0  0  0  0  0  0  0  0  0
   12.9740    1.3349    0.0000 C   0  0  0  0  0  0  0  0  0  0  0  0
   10.5521    0.8245    0.0000 C   0  0  0  0  0  0  0  0  0  0  0  0
   12.9356    3.5173    0.0000 C   0  0  0  0  0  0  0  0  0  0  0  0
   13.5250    0.7208    0.0000 C   0  0  0  0  0  0  0  0  0  0  0  0
    9.7449    0.6543    0.0000 C   0  0  0  0  0  0  0  0  0  0  0  0
    6.4846   -2.2585    0.0000 C   0  0  0  0  0  0  0  0  0  0  0  0
    6.0031   -1.5946    0.0000 C   0  0  0  0  0  0  0  0  0  0  0  0
    7.3097   -2.2585    0.0000 C   0  0  0  0  0  0  0  0  0  0  0  0
    5.2224   -1.8460    0.0000 C   0  0  0  0  0  0  0  0  0  0  0  0
    7.7222   -2.9730    0.0000 C   0  0  0  0  0  0  0  0  0  0  0  0
   13.7429    3.6875    0.0000 C   0  0  0  0  0  0  0  0  0  0  0  0
   14.3323    0.8909    0.0000 C   0  0  0  0  0  0  0  0  0  0  0  0
    5.2224   -2.6710    0.0000 C   0  0  0  0  0  0  0  0  0  0  0  0
    6.2594   -0.8104    0.0000 C   0  0  0  0  0  0  0  0  0  0  0  0
    8.5472   -2.9730    0.0000 C   0  0  0  0  0  0  0  0  0  0  0  0
    4.5080   -1.4335    0.0000 C   0  0  0  0  0  0  0  0  0  0  0  0
    7.0667   -0.6402    0.0000 C   0  0  0  0  0  0  0  0  0  0  0  0
    3.7935   -1.8460    0.0000 C   0  0  0  0  0  0  0  0  0  0  0  0
    8.6813   -0.3000    0.0000 C   0  0  0  0  0  0  0  0  0  0  0  0
    4.5080   -3.0835    0.0000 C   0  0  0  0  0  0  0  0  0  0  0  0
    3.7935   -2.6710    0.0000 C   0  0  0  0  0  0  0  0  0  0  0  0
    7.3230    0.1440    0.0000 C   0  0  0  0  0  0  0  0  0  0  0  0
    7.6177   -1.2543    0.0000 C   0  0  0  0  0  0  0  0  0  0  0  0
    8.1303    0.3141    0.0000 C   0  0  0  0  0  0  0  0  0  0  0  0
    8.4250   -1.0842    0.0000 C   0  0  0  0  0  0  0  0  0  0  0  0
    8.9597   -3.6875    0.0000 C   0  0  0  0  0  0  0  0  0  0  0  0
    1.6500   -2.2585    0.0000 C   0  0  0  0  0  0  0  0  0  0  0  0
  1  5  2  0  0  0  0
  1  6  2  0  0  0  0
  1  8  1  0  0  0  0
  1 39  1  0  0  0  0
  2 18  1  0  0  0  0
  2 25  1  0  0  0  0
  3 17  1  0  0  0  0
  3 31  1  0  0  0  0
  4 26  2  0  0  0  0
  7  9  1  0  0  0  0
  7 10  1  0  0  0  0
  7 11  1  0  0  0  0
  8 30  1  0  0  0  0
  9 12  1  0  0  0  0
 10 13  1  0  0  0  0
 11 14  1  0  0  0  0
 12 15  1  0  0  0  0
 13 16  1  0  0  0  0
 14 17  1  0  0  0  0
 15 23  1  0  0  0  0
 16 24  1  0  0  0  0
 18 19  2  0  0  0  0
 18 20  1  0  0  0  0
 19 21  1  0  0  0  0
 19 26  1  0  0  0  0
 20 22  1  0  0  0  0
 21 25  2  0  0  0  0
 21 28  1  0  0  0  0
 22 27  1  0  0  0  0
 25 32  1  0  0  0  0
 26 29  1  0  0  0  0
 27 38  1  0  0  0  0
 28 30  2  0  0  0  0
 29 34  2  0  0  0  0
 29 35  1  0  0  0  0
 30 33  1  0  0  0  0
 31 36  2  0  0  0  0
 31 37  1  0  0  0  0
 32 33  2  0  0  0  0
 34 36  1  0  0  0  0
 35 37  2  0  0  0  0
M  END
> <DATABASE_ID>
DB04855

> <DATABASE_NAME>
drugbank

> <SMILES>
CCCCN(CCCC)CCCOC1=CC=C(C=C1)C(=O)C1=C(CCCC)OC2=C1C=C(NS(C)(=O)=O)C=C2

> <INCHI_IDENTIFIER>
InChI=1S/C31H44N2O5S/c1-5-8-12-29-30(27-23-25(32-39(4,35)36)15-18-28(27)38-29)31(34)24-13-16-26(17-14-24)37-22-11-21-33(19-9-6-2)20-10-7-3/h13-18,23,32H,5-12,19-22H2,1-4H3

> <INCHI_KEY>
ZQTNQVWKHCQYLQ-UHFFFAOYSA-N

> <FORMULA>
C31H44N2O5S

> <MOLECULAR_WEIGHT>
556.756

> <EXACT_MASS>
556.297093218

> <JCHEM_ACCEPTOR_COUNT>
5

> <JCHEM_ATOM_COUNT>
83

> <JCHEM_AVERAGE_NEUTRAL_MICROSPECIES_CHARGE>
0.9929697471399417

> <JCHEM_AVERAGE_POLARIZABILITY>
66.05334860306354

> <JCHEM_BIOAVAILABILITY>
0

> <JCHEM_DONOR_COUNT>
1

> <JCHEM_FORMAL_CHARGE>
0

> <JCHEM_GHOSE_FILTER>
0

> <JCHEM_IUPAC>
N-(2-butyl-3-{4-[3-(dibutylamino)propoxy]benzoyl}-1-benzofuran-5-yl)methanesulfonamide

> <ALOGPS_LOGP>
6.46

> <JCHEM_LOGP>
5.181386837074793

> <ALOGPS_LOGS>
-5.44

> <JCHEM_MDDR_LIKE_RULE>
1

> <JCHEM_NEUTRAL_CHARGE>
1

> <JCHEM_NUMBER_OF_RINGS>
3

> <JCHEM_PHYSIOLOGICAL_CHARGE>
1

> <JCHEM_PKA_STRONGEST_ACIDIC>
9.181579162568708

> <JCHEM_PKA_STRONGEST_BASIC>
10.309280292807985

> <JCHEM_POLAR_SURFACE_AREA>
88.85

> <JCHEM_REFRACTIVITY>
158.12839999999994

> <JCHEM_ROTATABLE_BOND_COUNT>
17

> <JCHEM_RULE_OF_FIVE>
0

> <ALOGPS_SOLUBILITY>
2.01e-03 g/l

> <JCHEM_TRADITIONAL_IUPAC>
tetrahydrofolic acid

> <JCHEM_VEBER_RULE>
0

> <DRUGBANK_ID>
DB04855

> <DRUG_GROUPS>
approved

> <GENERIC_NAME>
Dronedarone

> <SYNONYMS>
Dronedarona; Dronedarone; N-(2-butyl-3-(4-(3-(dibutylamino)propoxy)benzoyl)-5-benzofuranyl)-methanesulfonamide; N-(2-butyl-3-(p-(3-(dibutylamino)propoxy)benzoyl)-5-benzofuranyl)methanesulfonamide

> <PRODUCTS>
Asn-dronedarone; Multaq

> <SALTS>
Dronedarone hydrochloride

$$$$
