
  Mrv0541 06161412062D          

 22 24  0  0  0  0            999 V2000
    6.7124    0.3627    0.0000 C   0  0  0  0  0  0  0  0  0  0  0  0
    7.2427   -0.5557    0.0000 C   0  0  0  0  0  0  0  0  0  0  0  0
    1.4289   -1.6500    0.0000 C   0  0  0  0  0  0  0  0  0  0  0  0
    2.1434   -0.4125    0.0000 C   0  0  0  0  0  0  0  0  0  0  0  0
    5.0012    1.2375    0.0000 C   0  0  0  0  0  0  0  0  0  0  0  0
    7.1447   -2.4750    0.0000 C   0  0  0  0  0  0  0  0  0  0  0  0
    4.2868    0.8250    0.0000 C   0  0  0  0  0  0  0  0  0  0  0  0
    6.4302   -2.8875    0.0000 C   0  0  0  0  0  0  0  0  0  0  0  0
    3.5723   -1.2375    0.0000 C   0  0  0  0  0  0  0  0  0  0  0  0
    5.7157    0.8250    0.0000 C   0  0  0  0  0  0  0  0  0  0  0  0
    7.1447   -1.6500    0.0000 C   0  0  0  0  0  0  0  0  0  0  0  0
    4.2868    0.0000    0.0000 C   0  0  0  0  0  0  0  0  0  0  0  0
    5.7157   -2.4750    0.0000 C   0  0  0  0  0  0  0  0  0  0  0  0
    2.8578   -1.6500    0.0000 C   0  0  0  0  0  0  0  0  0  0  0  0
    4.2868   -1.6500    0.0000 C   0  0  0  0  0  0  0  0  0  0  0  0
    5.7157    0.0000    0.0000 C   0  0  0  0  0  0  0  0  0  0  0  0
    6.4302   -1.2375    0.0000 C   0  0  0  0  0  0  0  0  0  0  0  0
    5.0012   -0.4125    0.0000 C   0  0  0  0  0  0  0  0  0  0  0  0
    5.7157   -1.6500    0.0000 C   0  0  0  0  0  0  0  0  0  0  0  0
    6.4302   -0.4125    0.0000 C   0  0  0  0  0  0  0  0  0  0  0  0
    2.1434   -1.2375    0.0000 N   0  0  0  0  0  0  0  0  0  0  0  0
    5.0012   -1.2375    0.0000 N   0  0  0  0  0  0  0  0  0  0  0  0
  7  5  2  0  0  0  0
  8  6  2  0  0  0  0
 10  5  1  0  0  0  0
 11  6  1  0  0  0  0
 12  7  1  0  0  0  0
 13  8  1  0  0  0  0
 14  9  1  0  0  0  0
 15  9  1  0  0  0  0
 16 10  2  0  0  0  0
 17 11  2  0  0  0  0
 18 12  2  0  0  0  0
 18 16  1  0  0  0  0
 19 13  2  0  0  0  0
 19 17  1  0  0  0  0
 20  1  1  0  0  0  0
 20  2  1  0  0  0  0
 20 16  1  0  0  0  0
 20 17  1  0  0  0  0
 21  3  1  0  0  0  0
 21  4  1  0  0  0  0
 21 14  1  0  0  0  0
 22 15  1  0  0  0  0
 22 18  1  0  0  0  0
 22 19  1  0  0  0  0
M  END
> <DATABASE_ID>
DB08996

> <DATABASE_NAME>
drugbank

> <SMILES>
CN(C)CCCN1C2=CC=CC=C2C(C)(C)C2=CC=CC=C12

> <INCHI_IDENTIFIER>
InChI=1S/C20H26N2/c1-20(2)16-10-5-7-12-18(16)22(15-9-14-21(3)4)19-13-8-6-11-17(19)20/h5-8,10-13H,9,14-15H2,1-4H3

> <INCHI_KEY>
RYQOGSFEJBUZBX-UHFFFAOYSA-N

> <FORMULA>
C20H26N2

> <MOLECULAR_WEIGHT>
294.4338

> <EXACT_MASS>
294.209598842

> <JCHEM_ACCEPTOR_COUNT>
2

> <JCHEM_ATOM_COUNT>
48

> <JCHEM_AVERAGE_NEUTRAL_MICROSPECIES_CHARGE>
0.9936864776775

> <JCHEM_AVERAGE_POLARIZABILITY>
35.86948942071866

> <JCHEM_BIOAVAILABILITY>
1

> <JCHEM_DONOR_COUNT>
0

> <JCHEM_FORMAL_CHARGE>
0

> <JCHEM_GHOSE_FILTER>
1

> <JCHEM_IUPAC>
[3-(9,9-dimethyl-9,10-dihydroacridin-10-yl)propyl]dimethylamine

> <ALOGPS_LOGP>
4.96

> <JCHEM_LOGP>
4.421066345666667

> <ALOGPS_LOGS>
-3.93

> <JCHEM_MDDR_LIKE_RULE>
0

> <JCHEM_NEUTRAL_CHARGE>
1

> <JCHEM_NUMBER_OF_RINGS>
3

> <JCHEM_PHYSIOLOGICAL_CHARGE>
1

> <JCHEM_PKA_STRONGEST_BASIC>
9.196977069511535

> <JCHEM_POLAR_SURFACE_AREA>
6.48

> <JCHEM_REFRACTIVITY>
105.52269999999997

> <JCHEM_ROTATABLE_BOND_COUNT>
4

> <JCHEM_RULE_OF_FIVE>
1

> <ALOGPS_SOLUBILITY>
3.43e-02 g/l

> <JCHEM_TRADITIONAL_IUPAC>
biotin

> <JCHEM_VEBER_RULE>
1

> <DRUGBANK_ID>
DB08996

> <DRUG_GROUPS>
experimental; withdrawn

> <GENERIC_NAME>
Dimetacrine

> <SYNONYMS>
3-(9,9-dimethylacridin-10-yl)-N,N-dimethyl-propan-1-amine; Dimetacrine; Istonil; Istonyl; Linostil; Miroistonil

> <SALTS>
Dimetacrine bitartrate; Dimetacrine tartrate

$$$$
