
  Mrv0541 05041410162D          

 22 23  0  0  0  0            999 V2000
    2.4249    0.2002    0.0000 C   0  0  0  0  0  0  0  0  0  0  0  0
    1.5317    0.8491    0.0000 C   0  0  0  0  0  0  0  0  0  0  0  0
    3.3032    2.9033    0.0000 C   0  0  0  0  0  0  0  0  0  0  0  0
    2.1991    2.9033    0.0000 C   0  0  0  0  0  0  0  0  0  0  0  0
    4.2829   -1.7354    0.0000 C   0  0  0  0  0  0  0  0  0  0  0  0
    5.7725    2.5701    0.0000 C   0  0  0  0  0  0  0  0  0  0  0  0
    5.1594    3.1221    0.0000 C   0  0  0  0  0  0  0  0  0  0  0  0
    5.6010    1.7631    0.0000 C   0  0  0  0  0  0  0  0  0  0  0  0
    4.3748    2.8672    0.0000 C   0  0  0  0  0  0  0  0  0  0  0  0
    4.8163    1.5082    0.0000 C   0  0  0  0  0  0  0  0  0  0  0  0
    3.6486    0.3532    0.0000 C   0  0  0  0  0  0  0  0  0  0  0  0
    4.2032    2.0602    0.0000 C   0  0  0  0  0  0  0  0  0  0  0  0
    3.1637    1.0206    0.0000 C   0  0  0  0  0  0  0  0  0  0  0  0
    3.4186    1.8053    0.0000 C   0  0  0  0  0  0  0  0  0  0  0  0
    2.3387    1.0206    0.0000 C   0  0  0  0  0  0  0  0  0  0  0  0
    2.7512    2.2902    0.0000 C   0  0  0  0  0  0  0  0  0  0  0  0
    2.0837    1.8053    0.0000 N   0  0  0  0  0  0  0  0  0  0  0  0
    1.2991    2.0602    0.0000 O   0  0  0  0  0  0  0  0  0  0  0  0
    4.4654   -0.5830    0.0000 O   0  0  0  0  0  0  0  0  0  0  0  0
    3.1305   -1.5528    0.0000 O   0  0  0  0  0  0  0  0  0  0  0  0
    3.3130   -0.4005    0.0000 S   0  0  0  0  0  0  0  0  0  0  0  0
    3.7980   -1.0679    0.0000 S   0  0  0  0  0  0  0  0  0  0  0  0
  7  6  2  0  0  0  0
  8  6  1  0  0  0  0
  9  7  1  0  0  0  0
 10  8  2  0  0  0  0
 12  9  2  0  0  0  0
 12 10  1  0  0  0  0
 13 11  1  0  0  0  0
 14 12  1  0  0  0  0
 14 13  2  0  0  0  0
 15  1  1  0  0  0  0
 15  2  1  0  0  0  0
 15 13  1  0  0  0  0
 16  3  1  0  0  0  0
 16  4  1  0  0  0  0
 16 14  1  0  0  0  0
 17 15  1  0  0  0  0
 17 16  1  0  0  0  0
 18 17  1  0  0  0  0
 21 11  1  0  0  0  0
 22  5  1  0  0  0  0
 22 19  2  0  0  0  0
 22 20  2  0  0  0  0
 22 21  1  0  0  0  0
M  END
> <DATABASE_ID>
DB08456

> <DATABASE_NAME>
drugbank

> <SMILES>
CC1(C)N(O)C(C)(C)C(=C1CSS(C)(=O)=O)C1=CC=CC=C1

> <INCHI_IDENTIFIER>
InChI=1S/C16H23NO3S2/c1-15(2)13(11-21-22(5,19)20)14(16(3,4)17(15)18)12-9-7-6-8-10-12/h6-10,18H,11H2,1-5H3

> <INCHI_KEY>
ZXJJZPNUOZSZBU-UHFFFAOYSA-N

> <FORMULA>
C16H23NO3S2

> <MOLECULAR_WEIGHT>
341.489

> <EXACT_MASS>
341.111934987

> <JCHEM_ACCEPTOR_COUNT>
4

> <JCHEM_ATOM_COUNT>
45

> <JCHEM_AVERAGE_NEUTRAL_MICROSPECIES_CHARGE>
2.5691934297371625e-07

> <JCHEM_AVERAGE_POLARIZABILITY>
36.39715025010112

> <JCHEM_BIOAVAILABILITY>
1

> <JCHEM_DONOR_COUNT>
1

> <JCHEM_FORMAL_CHARGE>
0

> <JCHEM_GHOSE_FILTER>
1

> <JCHEM_IUPAC>
3-[(methanesulfonylsulfanyl)methyl]-2,2,5,5-tetramethyl-4-phenyl-2,5-dihydro-1H-pyrrol-1-ol

> <ALOGPS_LOGP>
2.49

> <JCHEM_LOGP>
2.0848648840000004

> <ALOGPS_LOGS>
-3.74

> <JCHEM_MDDR_LIKE_RULE>
0

> <JCHEM_NEUTRAL_CHARGE>
0

> <JCHEM_NUMBER_OF_RINGS>
2

> <JCHEM_PHYSIOLOGICAL_CHARGE>
0

> <JCHEM_PKA_STRONGEST_ACIDIC>
14.756237254380922

> <JCHEM_PKA_STRONGEST_BASIC>
0.4383499104071377

> <JCHEM_POLAR_SURFACE_AREA>
57.61

> <JCHEM_REFRACTIVITY>
92.60669999999999

> <JCHEM_ROTATABLE_BOND_COUNT>
4

> <JCHEM_RULE_OF_FIVE>
1

> <ALOGPS_SOLUBILITY>
6.24e-02 g/l

> <JCHEM_TRADITIONAL_IUPAC>
biotin

> <JCHEM_VEBER_RULE>
0

> <DRUGBANK_ID>
DB08456

> <DRUG_GROUPS>
experimental

> <GENERIC_NAME>
S-[(1-Hydroxy-2,2,5,5-tetramethyl-4-phenyl-2,5-dihydro-1H-pyrrol-3-yl)methyl] methanesulfonothioate

$$$$
