
  Mrv0541 02231216212D          

 46 50  0  0  0  0            999 V2000
   -3.6734   -3.0557    0.0000 O   0  0  0  0  0  0  0  0  0  0  0  0
   -3.2609   -2.3412    0.0000 P   0  0  0  0  0  0  0  0  0  0  0  0
   -2.5465   -2.7537    0.0000 O   0  0  0  0  0  0  0  0  0  0  0  0
   -3.9754   -1.9287    0.0000 O   0  0  0  0  0  0  0  0  0  0  0  0
   -2.8484   -1.6267    0.0000 C   0  0  0  0  0  0  0  0  0  0  0  0
   -2.1340   -2.0392    0.0000 F   0  0  0  0  0  0  0  0  0  0  0  0
   -3.5629   -1.2142    0.0000 F   0  0  0  0  0  0  0  0  0  0  0  0
   -2.4359   -0.9123    0.0000 C   0  0  0  0  0  0  0  0  0  0  0  0
   -2.8484   -0.1978    0.0000 C   0  0  0  0  0  0  0  0  0  0  0  0
   -2.4359    0.5167    0.0000 C   0  0  0  0  0  0  0  0  0  0  0  0
   -1.6109    0.5167    0.0000 C   0  0  0  0  0  0  0  0  0  0  0  0
   -1.1984    1.2311    0.0000 C   0  0  0  0  0  0  0  0  0  0  0  0
   -0.3734    1.2311    0.0000 C   0  0  0  0  0  0  0  0  0  0  0  0
    0.4516    1.2311    0.0000 C   0  0  0  0  0  0  0  0  0  0  0  0
    1.0646    1.7832    0.0000 C   0  0  0  0  0  0  0  0  0  0  0  0
    0.8931    2.5902    0.0000 C   0  0  0  0  0  0  0  0  0  0  0  0
    1.5062    3.1422    0.0000 C   0  0  0  0  0  0  0  0  0  0  0  0
    2.2908    2.8872    0.0000 C   0  0  0  0  0  0  0  0  0  0  0  0
    2.4624    2.0803    0.0000 C   0  0  0  0  0  0  0  0  0  0  0  0
    1.8493    1.5282    0.0000 C   0  0  0  0  0  0  0  0  0  0  0  0
    2.9039    3.4393    0.0000 C   0  0  0  0  0  0  0  0  0  0  0  0
    3.4560    2.8262    0.0000 F   0  0  0  0  0  0  0  0  0  0  0  0
    2.3519    4.0524    0.0000 F   0  0  0  0  0  0  0  0  0  0  0  0
    3.5170    3.9913    0.0000 P   0  0  0  0  0  0  0  0  0  0  0  0
    4.1301    4.5433    0.0000 O   0  0  0  0  0  0  0  0  0  0  0  0
    4.0691    3.3782    0.0000 O   0  0  0  0  0  0  0  0  0  0  0  0
    2.9650    4.6044    0.0000 O   0  0  0  0  0  0  0  0  0  0  0  0
   -0.1185    0.4465    0.0000 N   0  0  0  0  0  0  0  0  0  0  0  0
   -0.6034   -0.2209    0.0000 N   0  0  0  0  0  0  0  0  0  0  0  0
   -0.1185   -0.8884    0.0000 N   0  0  0  0  0  0  0  0  0  0  0  0
    0.6661   -0.6334    0.0000 C   0  0  0  0  0  0  0  0  0  0  0  0
    0.6661    0.1916    0.0000 C   0  0  0  0  0  0  0  0  0  0  0  0
    1.3806    0.6041    0.0000 C   0  0  0  0  0  0  0  0  0  0  0  0
    2.0951    0.1916    0.0000 C   0  0  0  0  0  0  0  0  0  0  0  0
    2.0951   -0.6334    0.0000 C   0  0  0  0  0  0  0  0  0  0  0  0
    1.3806   -1.0459    0.0000 C   0  0  0  0  0  0  0  0  0  0  0  0
   -0.3734    2.0561    0.0000 C   0  0  0  0  0  0  0  0  0  0  0  0
   -1.0879    2.4686    0.0000 C   0  0  0  0  0  0  0  0  0  0  0  0
   -1.0879    3.2936    0.0000 C   0  0  0  0  0  0  0  0  0  0  0  0
   -0.3734    3.7061    0.0000 C   0  0  0  0  0  0  0  0  0  0  0  0
   -0.3734    4.5311    0.0000 F   0  0  0  0  0  0  0  0  0  0  0  0
    0.3410    3.2936    0.0000 C   0  0  0  0  0  0  0  0  0  0  0  0
    1.0555    3.7061    0.0000 F   0  0  0  0  0  0  0  0  0  0  0  0
    0.3410    2.4686    0.0000 C   0  0  0  0  0  0  0  0  0  0  0  0
   -1.1984   -0.1978    0.0000 C   0  0  0  0  0  0  0  0  0  0  0  0
   -1.6109   -0.9123    0.0000 C   0  0  0  0  0  0  0  0  0  0  0  0
  1  2  1  0  0  0  0
  2  3  1  0  0  0  0
  2  4  2  0  0  0  0
  2  5  1  0  0  0  0
  5  6  1  0  0  0  0
  5  7  1  0  0  0  0
  5  8  1  0  0  0  0
  8  9  2  0  0  0  0
  9 10  1  0  0  0  0
 10 11  2  0  0  0  0
 11 12  1  0  0  0  0
 12 13  1  0  0  0  0
 13 14  1  0  0  0  0
 14 15  1  0  0  0  0
 15 16  2  0  0  0  0
 16 17  1  0  0  0  0
 17 18  2  0  0  0  0
 18 19  1  0  0  0  0
 19 20  2  0  0  0  0
 15 20  1  0  0  0  0
 18 21  1  0  0  0  0
 21 22  1  0  0  0  0
 21 23  1  0  0  0  0
 21 24  1  0  0  0  0
 24 25  1  0  0  0  0
 24 26  1  0  0  0  0
 24 27  2  0  0  0  0
 13 28  1  0  0  0  0
 28 29  1  0  0  0  0
 29 30  2  0  0  0  0
 30 31  1  0  0  0  0
 31 32  2  0  0  0  0
 28 32  1  0  0  0  0
 32 33  1  0  0  0  0
 33 34  2  0  0  0  0
 34 35  1  0  0  0  0
 35 36  2  0  0  0  0
 31 36  1  0  0  0  0
 13 37  1  0  0  0  0
 37 38  2  0  0  0  0
 38 39  1  0  0  0  0
 39 40  2  0  0  0  0
 40 41  1  0  0  0  0
 40 42  1  0  0  0  0
 42 43  1  0  0  0  0
 42 44  2  0  0  0  0
 37 44  1  0  0  0  0
 11 45  1  0  0  0  0
 45 46  2  0  0  0  0
  8 46  1  0  0  0  0
M  END
> <DATABASE_ID>
DB02651

> <DATABASE_NAME>
drugbank

> <SMILES>
OP(O)(=O)C(F)(F)C1=CC=C(CC(CC2=CC=C(C=C2)C(F)(F)P(O)(O)=O)(N2N=NC3=C2C=CC=C3)C2=CC=C(F)C(F)=C2)C=C1

> <INCHI_IDENTIFIER>
InChI=1S/C29H23F6N3O6P2/c30-23-14-13-22(15-24(23)31)27(38-26-4-2-1-3-25(26)36-37-38,16-18-5-9-20(10-6-18)28(32,33)45(39,40)41)17-19-7-11-21(12-8-19)29(34,35)46(42,43)44/h1-15H,16-17H2,(H2,39,40,41)(H2,42,43,44)

> <INCHI_KEY>
BTAGTGWPDROBMG-UHFFFAOYSA-N

> <FORMULA>
C29H23F6N3O6P2

> <MOLECULAR_WEIGHT>
685.4474

> <EXACT_MASS>
685.096627737

> <JCHEM_ACCEPTOR_COUNT>
8

> <JCHEM_ATOM_COUNT>
69

> <JCHEM_AVERAGE_NEUTRAL_MICROSPECIES_CHARGE>
-3.3427749367696395

> <JCHEM_AVERAGE_POLARIZABILITY>
57.5332772498226

> <JCHEM_BIOAVAILABILITY>
0

> <JCHEM_DONOR_COUNT>
4

> <JCHEM_FORMAL_CHARGE>
0

> <JCHEM_GHOSE_FILTER>
0

> <JCHEM_IUPAC>
({4-[2-(1H-1,2,3-benzotriazol-1-yl)-3-{4-[difluoro(phosphono)methyl]phenyl}-2-(3,4-difluorophenyl)propyl]phenyl}difluoromethyl)phosphonic acid

> <ALOGPS_LOGP>
3.64

> <JCHEM_LOGP>
5.1491616341982

> <ALOGPS_LOGS>
-4.53

> <JCHEM_MDDR_LIKE_RULE>
1

> <JCHEM_NEUTRAL_CHARGE>
-3

> <JCHEM_NUMBER_OF_RINGS>
5

> <JCHEM_PHYSIOLOGICAL_CHARGE>
-4

> <JCHEM_PKA>
0.9321971440536678

> <JCHEM_PKA_STRONGEST_ACIDIC>
-0.029216060431382234

> <JCHEM_PKA_STRONGEST_BASIC>
0.45181541517372936

> <JCHEM_POLAR_SURFACE_AREA>
145.76999999999998

> <JCHEM_REFRACTIVITY>
166.05829999999995

> <JCHEM_ROTATABLE_BOND_COUNT>
10

> <JCHEM_RULE_OF_FIVE>
0

> <ALOGPS_SOLUBILITY>
2.02e-02 g/l

> <JCHEM_TRADITIONAL_IUPAC>
biotin

> <JCHEM_VEBER_RULE>
0

> <DRUGBANK_ID>
DB02651

> <SECONDARY_ACCESSION_NUMBERS>
EXPT02473

> <DRUG_GROUPS>
experimental

> <GENERIC_NAME>
{[2-(1h-1,2,3-Benzotriazol-1-Yl)-2-(3,4-Difluorophenyl)Propane-1,3-Diyl]Bis[4,1-Phenylene(Difluoromethylene)]}Bis(Phosphonic Acid)

$$$$
