
  Mrv0541 05031420112D          

 21 21  0  0  1  0            999 V2000
   -1.4289   -1.6500    0.0000 C   0  0  0  0  0  0  0  0  0  0  0  0
    1.4289   -1.6500    0.0000 C   0  0  0  0  0  0  0  0  0  0  0  0
    2.1434    1.2375    0.0000 C   0  0  0  0  0  0  0  0  0  0  0  0
   -0.7145   -1.2375    0.0000 C   0  0  0  0  0  0  0  0  0  0  0  0
    1.4289    0.8250    0.0000 C   0  0  2  0  0  0  0  0  0  0  0  0
    0.0000    0.0000    0.0000 C   0  0  2  0  0  0  0  0  0  0  0  0
    0.7145    1.2375    0.0000 C   0  0  2  0  0  0  0  0  0  0  0  0
    0.0000    0.8250    0.0000 C   0  0  2  0  0  0  0  0  0  0  0  0
    0.7145   -0.4125    0.0000 C   0  0  2  0  0  0  0  0  0  0  0  0
   -0.7145   -0.4125    0.0000 N   0  0  0  0  0  0  0  0  0  0  0  0
    2.1434    2.0625    0.0000 O   0  0  0  0  0  0  0  0  0  0  0  0
   -0.0000   -1.6500    0.0000 O   0  0  0  0  0  0  0  0  0  0  0  0
    0.7145    2.0625    0.0000 O   0  0  0  0  0  0  0  0  0  0  0  0
   -0.7145    1.2375    0.0000 O   0  0  0  0  0  0  0  0  0  0  0  0
    0.7145   -1.2375    0.0000 O   0  0  0  0  0  0  0  0  0  0  0  0
    1.4289   -0.0000    0.0000 O   0  0  0  0  0  0  0  0  0  0  0  0
    1.1468    1.6002    0.0000 H   0  0  0  0  0  0  0  0  0  0  0  0
   -0.8125    0.1433    0.0000 H   0  0  0  0  0  0  0  0  0  0  0  0
    1.2448    1.8695    0.0000 H   0  0  0  0  0  0  0  0  0  0  0  0
   -0.8125    0.6817    0.0000 H   0  0  0  0  0  0  0  0  0  0  0  0
   -0.0000   -0.8250    0.0000 H   0  0  0  0  0  0  0  0  0  0  0  0
  4  1  1  0  0  0  0
  5  3  1  1  0  0  0
  7  5  1  0  0  0  0
  8  6  1  0  0  0  0
  8  7  1  0  0  0  0
  9  6  1  0  0  0  0
 10  4  1  0  0  0  0
  6 10  1  6  0  0  0
 11  3  1  0  0  0  0
 12  4  2  0  0  0  0
  7 13  1  6  0  0  0
  8 14  1  1  0  0  0
 15  2  1  0  0  0  0
  9 15  1  1  0  0  0
 16  5  1  0  0  0  0
 16  9  1  0  0  0  0
  5 17  1  6  0  0  0
  6 18  1  1  0  0  0
  7 19  1  1  0  0  0
  8 20  1  6  0  0  0
  9 21  1  6  0  0  0
M  END
> <DATABASE_ID>
DB04426

> <DATABASE_NAME>
drugbank

> <SMILES>
[H][C@]1(CO)O[C@@]([H])(OC)[C@]([H])(NC(C)=O)[C@@]([H])(O)[C@]1([H])O

> <INCHI_IDENTIFIER>
InChI=1S/C9H17NO6/c1-4(12)10-6-8(14)7(13)5(3-11)16-9(6)15-2/h5-9,11,13-14H,3H2,1-2H3,(H,10,12)/t5-,6-,7-,8-,9-/m1/s1

> <INCHI_KEY>
ZEVOCXOZYFLVKN-JGKVKWKGSA-N

> <FORMULA>
C9H17NO6

> <MOLECULAR_WEIGHT>
235.2344

> <EXACT_MASS>
235.105587281

> <JCHEM_ACCEPTOR_COUNT>
6

> <JCHEM_ATOM_COUNT>
33

> <JCHEM_AVERAGE_NEUTRAL_MICROSPECIES_CHARGE>
-6.736959791571783e-06

> <JCHEM_AVERAGE_POLARIZABILITY>
22.47944746560472

> <JCHEM_BIOAVAILABILITY>
1

> <JCHEM_DONOR_COUNT>
4

> <JCHEM_FORMAL_CHARGE>
0

> <JCHEM_GHOSE_FILTER>
0

> <JCHEM_IUPAC>
N-[(2R,3R,4R,5S,6R)-4,5-dihydroxy-6-(hydroxymethyl)-2-methoxyoxan-3-yl]acetamide

> <ALOGPS_LOGP>
-1.77

> <JCHEM_LOGP>
-2.5774479080000003

> <ALOGPS_LOGS>
0.00

> <JCHEM_MDDR_LIKE_RULE>
0

> <JCHEM_NEUTRAL_CHARGE>
0

> <JCHEM_NUMBER_OF_RINGS>
1

> <JCHEM_PHYSIOLOGICAL_CHARGE>
0

> <JCHEM_PKA>
13.009755124237532

> <JCHEM_PKA_STRONGEST_ACIDIC>
12.267521747116588

> <JCHEM_PKA_STRONGEST_BASIC>
-1.5714656009495018

> <JCHEM_POLAR_SURFACE_AREA>
108.25000000000001

> <JCHEM_REFRACTIVITY>
51.77590000000001

> <JCHEM_ROTATABLE_BOND_COUNT>
3

> <JCHEM_RULE_OF_FIVE>
1

> <ALOGPS_SOLUBILITY>
2.37e+02 g/l

> <JCHEM_TRADITIONAL_IUPAC>
biotin

> <JCHEM_VEBER_RULE>
0

> <DRUGBANK_ID>
DB04426

> <SECONDARY_ACCESSION_NUMBERS>
EXPT02108; DB02612

> <DRUG_GROUPS>
experimental

> <GENERIC_NAME>
Alpha-Methyl-N-Acetyl-D-Glucosamine

$$$$
