
  Mrv0541 05041412122D          

 20 20  0  0  0  0            999 V2000
   -1.4289    2.4750    0.0000 C   0  0  0  0  0  0  0  0  0  0  0  0
   -0.0000   -2.4750    0.0000 C   0  0  0  0  0  0  0  0  0  0  0  0
   -2.1434    2.0625    0.0000 C   0  0  0  0  0  0  0  0  0  0  0  0
    0.7145   -2.8875    0.0000 C   0  0  0  0  0  0  0  0  0  0  0  0
    1.4289    0.8250    0.0000 C   0  0  0  0  0  0  0  0  0  0  0  0
   -0.7145    2.0625    0.0000 C   0  0  0  0  0  0  0  0  0  0  0  0
   -0.0000   -1.6500    0.0000 C   0  0  0  0  0  0  0  0  0  0  0  0
    0.7145    1.2375    0.0000 C   0  0  0  0  0  0  0  0  0  0  0  0
    1.4289    0.0000    0.0000 C   0  0  0  0  0  0  0  0  0  0  0  0
   -2.1434    1.2375    0.0000 C   0  0  0  0  0  0  0  0  0  0  0  0
    1.4289   -2.4750    0.0000 C   0  0  0  0  0  0  0  0  0  0  0  0
   -0.7145    1.2375    0.0000 C   0  0  0  0  0  0  0  0  0  0  0  0
    0.7145   -1.2375    0.0000 C   0  0  0  0  0  0  0  0  0  0  0  0
    0.0000    0.8250    0.0000 C   0  0  0  0  0  0  0  0  0  0  0  0
    0.7145   -0.4125    0.0000 C   0  0  0  0  0  0  0  0  0  0  0  0
   -1.4289    0.8250    0.0000 N   0  0  0  0  0  0  0  0  0  0  0  0
    1.4289   -1.6500    0.0000 N   0  0  0  0  0  0  0  0  0  0  0  0
    0.0000    0.0000    0.0000 N   0  0  0  0  0  0  0  0  0  0  0  0
    3.6682    0.0000    0.0000 Cl  0  5  0  0  0  0  0  0  0  0  0  0
    0.0000   -4.5375    0.0000 Pt  0  2  0  0  0  0  0  0  0  0  0  0
  3  1  2  0  0  0  0
  4  2  2  0  0  0  0
  6  1  1  0  0  0  0
  7  2  1  0  0  0  0
  8  5  2  0  0  0  0
  9  5  1  0  0  0  0
 10  3  1  0  0  0  0
 11  4  1  0  0  0  0
 12  6  2  0  0  0  0
 13  7  2  0  0  0  0
 14  8  1  0  0  0  0
 14 12  1  0  0  0  0
 15  9  2  0  0  0  0
 15 13  1  0  0  0  0
 16 10  2  0  0  0  0
 16 12  1  0  0  0  0
 17 11  2  0  0  0  0
 17 13  1  0  0  0  0
 18 14  2  0  0  0  0
 18 15  1  0  0  0  0
M  CHG  2  19  -1  20   2
M  END
> <DATABASE_ID>
DB01912

> <DATABASE_NAME>
drugbank

> <SMILES>
[Cl-].[Pt++].C1=CC=C(N=C1)C1=CC=CC(=N1)C1=CC=CC=N1

> <INCHI_IDENTIFIER>
InChI=1S/C15H11N3.ClH.Pt/c1-3-10-16-12(6-1)14-8-5-9-15(18-14)13-7-2-4-11-17-13;;/h1-11H;1H;/q;;+2/p-1

> <INCHI_KEY>
XTQMQLRZXBEQCS-UHFFFAOYSA-M

> <FORMULA>
C15H11ClN3Pt

> <MOLECULAR_WEIGHT>
463.805

> <EXACT_MASS>
463.028924523

> <JCHEM_ACCEPTOR_COUNT>
3

> <JCHEM_ATOM_COUNT>
31

> <JCHEM_AVERAGE_NEUTRAL_MICROSPECIES_CHARGE>
0.00022713306973108006

> <JCHEM_AVERAGE_POLARIZABILITY>
25.55699327593388

> <JCHEM_BIOAVAILABILITY>
1

> <JCHEM_DONOR_COUNT>
0

> <JCHEM_FORMAL_CHARGE>
1

> <JCHEM_GHOSE_FILTER>
1

> <JCHEM_IUPAC>
platinum(2+) 6-(pyridin-2-yl)-2,2'-bipyridine chloride

> <ALOGPS_LOGP>
2.78

> <JCHEM_LOGP>
3.1580805616666665

> <ALOGPS_LOGS>
-3.26

> <JCHEM_MDDR_LIKE_RULE>
0

> <JCHEM_NEUTRAL_CHARGE>
0

> <JCHEM_NUMBER_OF_RINGS>
3

> <JCHEM_PHYSIOLOGICAL_CHARGE>
0

> <JCHEM_PKA_STRONGEST_BASIC>
3.264160849582949

> <JCHEM_POLAR_SURFACE_AREA>
38.67

> <JCHEM_REFRACTIVITY>
68.3717

> <JCHEM_ROTATABLE_BOND_COUNT>
2

> <JCHEM_RULE_OF_FIVE>
1

> <ALOGPS_SOLUBILITY>
1.29e-01 g/l

> <JCHEM_TRADITIONAL_IUPAC>
tetrahydrofolic acid

> <JCHEM_VEBER_RULE>
1

> <DRUGBANK_ID>
DB01912

> <SECONDARY_ACCESSION_NUMBERS>
EXPT03097

> <DRUG_GROUPS>
experimental

> <GENERIC_NAME>
2,2':6',2''-Terpyridine Platinum(Ii)

$$$$
