
  Mrv0541 02231214272D          

 13 13  0  0  1  0            999 V2000
    0.0000    0.0000    0.0000 O   0  0  0  0  0  0  0  0  0  0  0  0
   -0.8974   -1.9370    0.0000 O   0  0  0  0  0  0  0  0  0  0  0  0
    0.8974   -1.9370    0.0000 O   0  0  0  0  0  0  0  0  0  0  0  0
    0.6674   -0.4849    0.0000 C   0  0  0  0  0  0  0  0  0  0  0  0
    1.4521   -0.2300    0.0000 O   0  0  0  0  0  0  0  0  0  0  0  0
    0.4125   -1.2695    0.0000 C   0  0  0  0  0  0  0  0  0  0  0  0
   -0.4125   -1.2695    0.0000 C   0  0  0  0  0  0  0  0  0  0  0  0
   -2.8109   -0.0724    0.0000 O   0  0  0  0  0  0  0  0  0  0  0  0
   -2.0964   -0.4849    0.0000 C   0  0  0  0  0  0  0  0  0  0  0  0
   -1.3819   -0.0724    0.0000 C   0  0  2  0  0  0  0  0  0  0  0  0
   -1.3819    0.7526    0.0000 O   0  0  0  0  0  0  0  0  0  0  0  0
   -0.6674   -0.4849    0.0000 C   0  0  1  0  0  0  0  0  0  0  0  0
   -1.2508   -1.0683    0.0000 H   0  0  0  0  0  0  0  0  0  0  0  0
  1  4  1  0  0  0  0
 12  1  1  0  0  0  0
  7  2  1  0  0  0  0
  6  3  1  0  0  0  0
  4  5  2  0  0  0  0
  4  6  1  0  0  0  0
  6  7  2  0  0  0  0
 12  7  1  0  0  0  0
  8  9  1  0  0  0  0
  9 10  1  0  0  0  0
 12 10  1  0  0  0  0
 10 11  1  6  0  0  0
 12 13  1  6  0  0  0
M  END
> <DATABASE_ID>
DB00126

> <DATABASE_NAME>
drugbank

> <SMILES>
[H][C@@]1(OC(=O)C(O)=C1O)[C@@H](O)CO

> <INCHI_IDENTIFIER>
InChI=1S/C6H8O6/c7-1-2(8)5-3(9)4(10)6(11)12-5/h2,5,7-10H,1H2/t2-,5+/m0/s1

> <INCHI_KEY>
CIWBSHSKHKDKBQ-JLAZNSOCSA-N

> <FORMULA>
C6H8O6

> <MOLECULAR_WEIGHT>
176.1241

> <EXACT_MASS>
176.032087988

> <JCHEM_ACCEPTOR_COUNT>
5

> <JCHEM_ATOM_COUNT>
20

> <JCHEM_AVERAGE_NEUTRAL_MICROSPECIES_CHARGE>
-0.998558988537393

> <JCHEM_AVERAGE_POLARIZABILITY>
14.932525092170716

> <JCHEM_BIOAVAILABILITY>
1

> <JCHEM_DONOR_COUNT>
4

> <JCHEM_FORMAL_CHARGE>
0

> <JCHEM_GHOSE_FILTER>
0

> <JCHEM_IUPAC>
(5R)-5-[(1S)-1,2-dihydroxyethyl]-3,4-dihydroxy-2,5-dihydrofuran-2-one

> <ALOGPS_LOGP>
-1.58

> <JCHEM_LOGP>
-1.9135588756666668

> <ALOGPS_LOGS>
0.14

> <JCHEM_MDDR_LIKE_RULE>
0

> <JCHEM_NEUTRAL_CHARGE>
-1

> <JCHEM_NUMBER_OF_RINGS>
1

> <JCHEM_PHYSIOLOGICAL_CHARGE>
-1

> <JCHEM_PKA>
11.194661934216315

> <JCHEM_PKA_STRONGEST_ACIDIC>
4.1599476901451

> <JCHEM_PKA_STRONGEST_BASIC>
-2.979728932431362

> <JCHEM_POLAR_SURFACE_AREA>
107.22

> <JCHEM_REFRACTIVITY>
37.0321

> <JCHEM_ROTATABLE_BOND_COUNT>
2

> <JCHEM_RULE_OF_FIVE>
1

> <ALOGPS_SOLUBILITY>
2.45e+02 g/l

> <JCHEM_TRADITIONAL_IUPAC>
tetrahydrofolic acid

> <JCHEM_VEBER_RULE>
0

> <DRUGBANK_ID>
DB00126

> <SECONDARY_ACCESSION_NUMBERS>
NUTR00001; APRD00084; EXPT00568; DB11167; DB11316; DB11170; DB09541; DB11317

> <DRUG_GROUPS>
approved; nutraceutical

> <GENERIC_NAME>
Ascorbic acid

> <SYNONYMS>
acide ascorbique; ácido ascórbico; Acidum ascorbicum; acidum ascorbinicum; Ascorbate; Ascorbic acid; Ascorbinsäure; L-(+)-ascorbic acid; L-Ascorbate; L-Ascorbic Acid; Vitamin C; Vitamina C

> <PRODUCTS>
24 Multivitamins + Minerals; 50 Plus; 50 Plus Multiple Vitamins & Minerals; A & C Powder; A.C.E.S. Capsules; Abavite; Acerotab; Aces Formula/formule A A S; Acetabolan III Vitamin and Mineral Supplement; Acetabolan-II Vitamin and Mineral Supplement; Acetaminophen, Ascorbic acid, Chlorpheniramine Maleate; Acti-scorb 1000 Caplet 1000mg; Acti-scorb 500 Caplet 500mg; Active FE; Active OB; Adc Comprimes; Adeks - Dps; Adeks Tablets; Adrenergy Tablets; Adult Formula 50+; Adult Infuvite Multiple Vitamins; Advanced AM PM; Advanced B & T Formula; Alkadrenergy Tablets; All Natural Source Juicy Orange Vitamin C; Allbee C 800 Tab; Allbee With C 550 Cap; Allbee With Vitamin C Cap; Am Caps; Amd; Amerix Multivitamin; Amerix Vitamin C; Amladex; Anaplex Tab; Animal Shaped Chew Vit C Tab 250mg; Animal Shapes; Animal Shapes w/Iron Chewtabs; Antiflu Kids; Antlerviron; Armax; Aromacura Shower Filter; Aronamin Gold; Ascor; Ascor L 500; Ascorbex 500 Tab; Ascorbic 500 Tab 500mg; Ascorbic Acid; Ascorbic Acid 500mg; Ascorbic Acid Cap 500mg; Ascorbic Acid Inj 500mg/ml; Ascorbic Acid Injection USP 500 mg/ml; Ascorbic Acid Powder; Ascorbic Acid Tab 1000mg; Ascorbic Acid Tab 100mg; Ascorbic Acid Tab 250mg; Ascorbic Acid Tab 500mg; Ascorbic Acid Tab 500mg USP W Non-med Cherry; Avengers Vitamin and Mineral Supplement; Avon Nutrivance Vitamin E Plus; Avon Vitadvance Multi-kids Complete; AzesChew; Azesco; B & J Formula Dietary Supplement; B C Antistress Cap; B Complex 500 Tab; B Complex Plus C 300mg Tab; B Complex W C Forte Cap; B Complex W C and B12 Inj; B Complex W Vit C W Non-med Yeast&liver Tab; B Complex W Vitamin C Fortis Cap; B Complex With C 300mg; B Complex With C 300mg Tab; B Complex With C 550mg; B Plus C 300 mg; B Plus C 300mg Timed Release; B Stress C + Iron & Vite; B Totum 500; B Virol; B With C 500 Cap; B-2 100mg With C 20mg; B-complex With Vitamin C, Biotin, Folic Acid; B-plex; B-plus - Tab; BABOR Baborganic Biological Enzyme Cleanser; Bacmin; Bal-Care DHA; Bal-Care DHA Essential; Balance Ace - Cap; Balanced B-complex Vit + Vit C&e Tab; Balanced C Complex; Bear Essentials; Beminal 500 Tab; Beminal W C Fortis Inj; Beminal With C Fortis Cap; Beminal With C Fortis Pws; Beta A With Vitamins C and E Plus Selenium; Beta C & E With Selenium; Beta C and E Tab; Beta-CE Cap; Beta-carotene 10,000 Iu With Vitamins C & E; Beta-carotene,vitamin C,e and Selenium Combo; Betac Ascorbic Acid Injection, USP 500mg/ml; Betacept Special Formula Vitamins Cap; Betafant Tab; Bev C 1725 Tab 1000mg; Bio C 300 Tab; Bio C 600 Tab; Bio Efferlife Vitamin C 1000mg; Bio Flavono C Tab 100mg; Bio-cee Dietary Supplement; BioFerr 90; Bioflavonoids With Rose Hips C Nu Life; Biovim Tab; Biovita; Bodysmarts With Vitamins A, C and E; Bseltzer; Buffered Vitamin C Plus Magnesium; Buffered Vitamin C Powder With Ca Mg and K; Buffered Vitamin C Pwr W Cal-mag-potassium; Buffered Vitamin C Tab 500mg; C 1000; C 106 Tab; C 3000; C 350; C 500 Complete Tab 500mg; C 500 Mg Chewable; C 500mg Ascorbic Acid; C Forte; C Rola 300 Waf; C Rola Tab 100mg; C Vite 100 Tab 100mg; C Vite 150 Tab 150mg; C-1000 Tab 1000mg; C-1000 Tr Srt 1000mg; C-500 Caplet; C-500 Liq 50mg/ml; C-B Complex; C-Nate DHA; C-apnto-B6 Vitamins W Magnesium Tab; C-curity-vitamin C Cap; C-force; C-plus - Tab; C-rolla-250 Tab 250mg Chewable; C. Vit-min Formula; C.A.G. Tab; C.E.b12 Complex Pwr; C.H.V. Formula; C1000 W Flavanoids Tab; C500 Tab; Cal & Mag Hvp Chel Plus C Potass & Zinc Tab; Cal Mag Drink With Vitamin C; Cal-mag Complete With Zinc, C and D; Cal-mag Vitamin C and Zinc Tab; Calcium Ascorbate Ctr Srt 450mg; Calcium Complex High Grade; Calcium Magnesium Avec Vitamine C; Calcium PNV; Calcium With Mg Zn Mn Cu CR Si and Vit. C & D; Calcium With Vitamins C and D Tab; Calmax; Calplus; Carbassist Tablets; Carbaway; Card-floe II Tab; Carti-aide Tab; Cataplex A-C Tab; Cataplex C Tab 5.7mg; Cavan Alpha; Cavan Folate DHA; Cavan Folate OB; Cavan Prenatal; Cavan-EC SOD DHA; Cda-21 Vitamins With Non-medicinal Probiotic Complex; Ce Vi Sol Dps; Cedevita Plus Vitamin Supplement; Cedevita Sugar-free Vitamin Supplement; Cell-wise; Cell-wise Natural Source; Cellular Formula; Central-vite 18 Essential; Century Complete; Chelated Cal-mag(2:1)with Zn Vit.c and D; Chelated Cal/mag/zn With Vitamins; Chew C Berry Tablets - 125mg; Chew.multiple Vits.with Extra C for Children; Chewable Acerola C 500mg; Chewable Adult Multivitamins With Minerals; Chewable C Tab 100mg; Chewable C Vitamin 300 Mg With Acerola; Chewable Children's Complete Multivitamins With Essential Minerals; Chewable Multiple Vit Plus Iron for Children; Chewable Multiple Vitamins Plus Extra C; Chewable Multiple Vitamins Plus Iron Tab; Chewable Multiple Vitamins Tab; Chewable Vit C 100mg; Chewable Vitamin C 100mg; Chewable Vitamin C 100mg - Tab; Chewable Vitamin C 250 mg; Chewable Vitamin C 250mg; Chewable Vitamin C 250mg With Orange Juice; Chewable Vitamin C 500 Mg Tablet With Orange Juice; Chewable Vitamin C 500 mg; Chewable Vitamin C 500mg; Chewable Vitamin C 500mg Tab; Chewable Vitamin C 500mg Tablets; Chewable Vitamin C Tab 1000mg; Chewable Vitamin C Tab. 500 Mg Grape Flavour; Chewable Vitamin C Tablet 500mg; Chewable Vitamin C Wafers 500mg; Chewable Wafers Vitamin C 500 Mg - Tablet; Children Choice Multivit Chewable Tab; Children Choice Multivitamin W Iron Chew Tab; Children Pediatric Vitamins Drops; Children Vitamin Drops; Children's Chew Multi & Min Tab; Children's Chewable Multi Vit W Iron; Children's Chewable Multi Vitamins; Children's Chewable Multi Vitamins With Iron Tablets; Children's Chewable Multi-vitamin; Children's Chewable Multi-vitamin Complete With Minerals; Children's Chewable Multivitamin Complete With Minerals; Children's Chewable Multivitamin and Multimineral; Children's Chewable Multivitamins With Minerals; Children's Chewable Multivitamins and Minerals; Children's Chewable Tab; Children's Chewable Vit and Min Tab; Children's Chewable With Iron; Children's Multivitamins; Children's Multivitamins With Iron; Children's Vitamins Chewable; Children's Vitamins W Iron Chewable; Childrens Chew Multi Vitamin Tab; Childrens Chewab Vitamin W Chel Minerals; Childrens Chewable Multiple Vitamins; Childrens Chewable Multiple Vitamins Plus Fe; Childrens Chewable Multiple Vitamins W.iron; Childrens Chewable Multivitamins; Childrens Chewable Multivitamins W Iron; Childrens Chewable Tab; Childrens Chewable Vitamin Tab; Childrens Chewable Vitamins; Childrens Chewable Vitamins W Iron; Childrens Multiple Vit and Min Chew Tab; Choice OB DHA; Chromagen; Cilobana Cpa Tab; CitraNatal 90 DHA; CitraNatal Assure; CitraNatal B-Calm; CitraNatal Bloom; CitraNatal Bloom DHA; CitraNatal DHA; CitraNatal Essence; CitraNatal Rx; Citranatal B-calm; Citric C Tab; Citron Chaud Cumberland Pws; Citron Chaud DM Cumberland Pws; Citron Chaud DM Option + Pws; Citron Chaud Extra Fort; Clairfore; Classic Swiss One 10 Multivitamin and Mineral Tab; CleanFlex; Cmp Plex; Coen.q10w.vit.c and E Beta-car.se Cu Zn Mn; Cold & Flu; Cold and Sinus; Collag-EN; Complete Multivitamins and Minerals Tablets Timed Release; Complete Natal DHA; Complete One A Day Tab; Complete One-A-day - Tab; Complete-RF Prenatal; CompleteNate Chewable; Comprime De Vitamine C 250mg; Concept DHA; Concept OB; Contac Extend-C Sustained Release Capsules; Corvita; Corvita 150; Corvite; Corvite Free; Cps Capsules; Cran C; Croq-vit Pour Enfants; Cyroplex; Cyruta Tab; D Pantothenic 500mg With 100mg C; DaVITE; Daily Energy Brand Vitamin & Mineral Drink Mix; Daily Support C; Daily-Vite; Dalivit; Davimet; Dayavite; Db-7 Dietary Supplement; Derma-force; Dermamed Nutrition for troubled skin; Dexifol; Dexivite; Deyanling(Cranberry Flavored Collagen Peptide); Dia-vite; Diacomp - Cap; Dialyvite; Dialyvite 3000; Dialyvite 5000; Dialyvite Supreme D; Dialyvite with Zinc; Diaplex; Dinosaurs Im-rap; Docosavit; Doctor's Choice Brand for Men; Dothelle DHA; Dr Cellapy SR Premium; Dr. AVi MULTIVITAMIN with Zinc, Real Ginger, Lemon and Lemongrass; Dr. AVi VITAMIN C 1000 mg with Zinc, Real Ginger, Honey, Lemon and Lemongrass; Duet DHA; Duet DHA 400; Duet DHA 400 ec; Duet DHA Balanced; DuetDHA Balanced; DuetDHA Complete; Duo Cvp Cap 200mg; Dynam Ampoule Et Tablet; Dyzbac; E 400iu W Selenium 100mcg; E.V.C. Vitamins Tab; EC + Complex; Earthpals Children's Chewables Multi-vitamin & Mineral Tablets; Eden With Vitamins A, C, and E; Edge OB; Efferlife Calcium 500mg + Vitamin D3 440 Iu + Vitamin C 125mg; Efferlife Multivitamins and Minerals; Effervescent Vit C 1000mg; Effervescent Vitamin C Powder With Ca and mg; Eky Efferlife Vitamin C 1000mg With Zinc; Elite OB Prenatal Multivitamin; Emuol V; Enrich Core Pack - Children Vitamin and Mineral Supplement; Envirocomplex; Enviroflex - Tab; Enzogenol; Escavite; Escavite D; Escavite Lq; Essential Vitamins and Minerals; Ester C 1000 mg; Ester-C Tablet; Evc - Liq; Evc Liquid Vitamins A,c,b6 With Beta Caro&zn; Everyday Multiple Vitamins; Everyday Multiple Vitamins With Iron; Exitox Tab 200mg; Extra 11; Extra C 1000; Extra Once A Day; Extra P.N. Vitamin-mineral Drink Mix; Extra Strength Pharmacitron; Extra Strength Tylenol Total Cough, Cold & Flu; Extra-Virt Plus DHA; Extreme C; FE C Tab; FE C Tab Plus; FUSION Sprinkles; FeRiva; FeRiva 21 7; FeRiva FA; FeRivaFA; Fem - Control; Fem - Pmt; Fem - Protect; Feminex 300 Tab; Feminique W Iron and Calcium Tab; Femitab Tab; Feonyx; Fero Grad 500; Ferotrin; Ferra Naka Plus Vitamins; FerraPlus 90; Ferralet 90; Ferrex 150 Plus; Ferrex 28; FerroGels Forte; Fib-C Melts; Fizz Multivitamins for Kids W C Loz; Floravit - Syr; Floriva; Floriva Plus; Focalgin 90 DHA; Focalgin CA; Focalgin DSS; FolaGent DHA; FolaMax; FolaMed DHA; Folcal DHA; Folet DHA; Folet One; Folic Acid & Vitamin C; Folic Acid 1mg With C 20mg; Folic Acid 1mg With Vitamin C; Folic Acid With Vitamin B12 and Vitamin C; Foliflex; Folika-MG; Folika-NC; Folika-T; Folika-V; Folinex; Folitin-Z; Folivane-F; Folivane-OB; Folivane-PRx DHA; Folivane-Plus with Ascorbic Acid Precursors; Foltabs Prenatal; Foltabs Prenatal Plus DHA; Folvite-FE; Food Nutrition Inc. Men's Vitamin and Mineral Supplement; For Kids Only Chewable Multivitamins; For Men; Formula # 2 Pwr 15mg/g; Formula 14 Dietary Supplement; Formula A.R.-th Dietary Supplement; Formula B; Formula C-500 Caplet; Formula CF; Formula Cn; Formula Cp Cap; Formula Csp With Vitamins A C and Zinc Loz; Formula Cw; Formula Cw-caplet; Formula F L W; Formula F.E.S. Vitamins Tab; Formula Fm Vitamins & Minerals Tab; Formula Gly; Formula Hh; Formula Im-vitamins and Minerals Tab; Formula Imgrd - Tab; Formula Inf; Formula Lf; Formula No. 2 Plus K Liq; Formula O; Formula O.C.; Formula Osg; Formula R Tab; Formula Tc Vitamin C Tab 200mg USP; Formula Vitamin C Tab 15mg; Formule 7561 Caps; Formule No 204 Profil Tab; Fortamines 10 Capsules; Fortamines-10 Comprimes; Fortifi-plus; Fortistress Tab; Forty Plus Vitamin Supplement; Fruity Bita C Tablets 125mg; Fusion; Fusion Activator Formula Tab; Fusion Plus; Garfield Chewable Multivitamins Tab; Garfield Chewable Multivits Plus Iron Tab; Gemvites Jr Tab Chewable; Genicin Vita-Q; Genicin Vita-S; Geri-plus Cap; Germacil; Gestamine Comprimes; Gesticare DHA; Ginsamin Energy; Glyco Lite Ect; Glyco Plus Ect; Glyco-aide Tab; Gnc C-complex Formula 500mg; Gnc Chewable Citrus Free Vit.c Tabs 500mg; Gnc Timed Release Vitamin C 1500mg Tablets; Gnc Timed Release Vitamin C Tablets 500mg; Golf Vitamin and Mineral Supplement; Good Health Formula; Good Night/pm Formula Tab; Grand Master Formula Tab; Great Day/am Formula Tab; Grippalin & C Tab; Guardyn Tab; Gynedyn Tab; H.W. Children's Chewable Multi Vit & Mineral; HICELl; Hemarexin Tab; Hematogen; Hematogen FA; Hematogen Forte; Hi Potency B52 B Complex Tab; Hi Potency Multi Tab; Hi Potency Stress B Tension With C; Hicell; High Potency Multivitamins & Minerals Caplets; High Potency Vitamin B Complex + C Tab; Hill.vite; Hoa 1; Homosistrol Capsules; Homosistrox Capsules; Hot Lemon Cold & Sore Throat Night; Hot Lemon Cold and Flu Relief Extra Strength; Hot Lemon Cold and Flu Relief Regular Strength; Hot Lemon Cold and Flu Relief Super Strength; Hot Lemon Extra Strength; Hot Lemon Extra Strength Cold & Congestion; Hot Lemon Extra Strength Cold & Sinus Night; Hot Lemon Regular - Pwr; Hot Lemon Relief - Extra Strength; Hot Lemon Relief Pck-pws; Hot Lemon Relief Powder; Hot Lemon Relief Powder Extra Strength; Hot Lemon Relief Powder Regular Strength; Hot Lemon Relief Regular Strength; Hot Lemon Relief for Cold Symptoms Ext Str; Hot Lemon Relief for Cold Symptoms Pws; Hot Lemon Relief for Symptoms Of Cold and Flu; Hot Lemon Relief for Symptoms Of Cold and Flu Extra Strength; Hot Lemon Relief for Symptoms Of Cold and Flu Forte; Hot Lemon Relief for Symptoms Of Cold and Flu Regular Strength; Hot Lemon Relief for Symptoms Of Cough and Cold; Hot Lemon Relief-extra Strength Pck-pws; Hot Lemon Ultra Strength Total Flu Night; Hot Lemon for Colds Powder; Hvp Chelated Cal/mag With Zinc and Vitamins C and D; Hy C 3000 Anatabs; Hylavite; Hylazinc; Hypo Vites Tab; Hyporyl - Tab; I-care Multivitamin and Multimineral Tablets; INATAL Ultra; Iberet 500; Icaps; Icaps Time Release; Igatan F; Imedeen; Imm Formula; Imm Formula Cap; Immune Support; Imubolic; Inatal Advance; Infa Drops Multivitamins; Infant Multivitamin Drops; Infant's Multiple Vitamin Drops; Infantol Drops; Infants' Multiple Vitamin Drops; Infants' Vitamin Drops; Infuvite Adult Multiple Vitamins; Inner Health Vitamin Supplement Capsules; Innersource Tab; Insur-all Vitamin Supplement; Integra; Integra F; Integra Plus; Iron; Iron 25mg With Vit B-cmplx, Vit C, Cu & Mo; Iron Complex; Iron Plus Manganese, B12, Folic Acid & C; Iron Plus Tab; Iron Polysaccharides Folic Acid DHA; Iron Vitamins B6,b12,c,folic Acid Tab; Iron With Vitamins C and E - Tab; Isotonix Atx Vitamin Mineral Formula; Isotonix Multitech Vitamin Mineral Supplemen; Itabs Plus; J.T. Formula; Jenliva; Junior Multi Vitamins - Regular; K.L. Vitamin-mineral; Kama Caze Syrup; Kamu Jay Liq 300mg/tsp; Kamu Jay Multi Complex Tab; Kamu Jay Tab 150mg; Kanga C; Kanga Sport Vitamins B & C Plus Minerals; Kanga-B Vitamin B Group + C; Kanga-V Multivitamins & Minerals; Kanga-kid Multi-vitamin & Mineral; Kanga-kid Vitamin C; Kenwood Liquid Supplement; Kid's Choice Children's Chewable Vitamins - Tab; Kidmag Vitamins W Magnesium Tab; Kids Stuff Tablets; Kids Stuff With Iron Tablets; Kimchi Vitamin chewable multivitamin; Kindervites; Kolvac; L-Methyl PNV DHA; L.C. Supplement; L.G.I.T.; LYDIA PINKHAM Herbal Supplement; Lemon Time; Leonas Vitamin C; Lexazin; Life Vit C Timed Release Tab 1000mg; Life Vit C Timed Release Tab 500mg; Lipall Plus Tab; Lipo-B-C Tab; Liqud Vitamin C; Liqui C-300; Liqui Infant Vitamins; Liqui Vita; Liquid Vitamin C; Liquid Vitamin C 500mg; Livron Plus Tab; Lorid; Luna Vitamin and Mineral Bar for Women; Lysamine Diet Supp Amp-tab; M-Natal Plus; M.V.I. 12; M.V.I. Adult; M.V.I. Paediatric; M.V.I. Pediatric; M.V.I.-12; MVC-Fluoride; MYNEPHROCAPS DIALYSIS/STRESS Vitamin Supplement; Macuvex; Macuzin; Magnum-75 Vitamin and Mineral Supplement; Mangadyn; Marnatal F; Master Key Multi Vitamin Multi Mineral Formula 2; Materna; Materna - Tab; Materna-tab; MaxFe; Maxaron Forte; Maxi 10 Tab; Maxi 6 Liq; Maximum Once A Day; Maxum Multi-vite; Mebolex; Mebolic; Mega Balance; Mega C 1000 Complex Tab 1000mg; Mega C 500 Complex; Mega C 500 Complex Tab 500mg; Mega C Acid Inj 500mg/ml; Mega C500 Complex Tab 500mg; Mega Plex III - Pck; Mega Plex IV - Pck; Mega Vitaminerals; Mega-C-acid Plus; Mega-vim 75 With Beta-carotene - Tablets; Megavite Rx; Megavites Tab; Men's; Men's 50+; Men's Biomultiple Vitamin and Mineral Supplement; Meplex T 750; Metreton Tab; Milk Calcium With Vitamins C, D, and Phosphorous; Milltrium Senior Vitamin and Mineral Supplement; Moms Choice Rx; Mor-vites Tab; MoviPrep; Moviprep; Mr. Tumee Multi-vitamin; Mr. Tumee Worms; Multi #2; Multi - N.T.O.x Formula - Tab; Multi 1000; Multi 12 Injection; Multi Enfants Tab; Multi Flow Tablets; Multi II IV Vi Tab; Multi Mins Liquid; Multi Nt-OX; Multi Plex I - Tab; Multi Plex II - Tab; Multi Spectrum - Tablet; Multi Tabs; Multi Vitamin & Minerals; Multi Vitamin - Mineral; Multi Vitamin Drops with Fluoride; Multi Vitamin Drops with Fluoride and Iron; Multi Vitamin Drops with Fluoride with Iron; Multi Vitamin Plus Iron; Multi Vitamin and Fluoride; Multi Vitamin and Mineral vitamin; Multi Vitamin with Fluoride; Multi Vitamin, Iron and Fluoride; Multi Vitamin-mineral Formula; Multi Vitamines - Liq; Multi Vitamins & Minerals; Multi Vite Liq Junior; Multi-11; Multi-12 Pediatric; Multi-12/k1 Pediatric; Multi-Nate 30; Multi-Vit with Fluoride; Multi-Vit with Fluoride and Iron; Multi-Vitamin; Multi-Vitamin Drops with Fluoride and Iron; Multi-Vitamin Fluoride; Multi-Vitamin Fluoride Drops; Multi-Vitamin Fluoride and Iron Drops; Multi-Vitamin With Fluoride; Multi-Vitamin with Fluoride; Multi-actin; Multi-force for Adults Tab; Multi-force for Women Tab; Multi-fruits Chewable Vitamin C 500mg Tablet; Multi-kid; Multi-min Electro C Pow Plus B2; Multi-phyto Capsules; Multi-vitamin Dietary Supplement; Multi-vitamines Enfants Comprime; Multi-vitamins; Multi-vitamins With Minerals; MultiVitamin Drops with Fluoride and Iron; MultiVitamin with Fluoride; MultiVitamin with Fluoride Chewable; MultiVitamin with Fluoride Drops; MultiVitamin, Iron and Fluoride Drops; Multicaps; Multinate DHA; Multinate DHA Extra; Multipack II; Multiple Vit Plus Iron Tab; Multiple Vitamin Plus Minerals Tab; Multiple Vitamin Tab; Multiple Vitamins; Multiple Vitamins & Minerals Tablets; Multiple Vitamins - Tablet; Multiple Vitamins Childrens Chewable; Multiple Vitamins Plus Iron - Tab; Multiple Vitamins Plus Iron Tab; Multiple Vitamins Plus Iron for Women; Multiple Vitamins Tab; Multiple Vitamins W Iron Tab; Multiple Vitamins W Minerals Tab; Multiple Vitamins With Iron; Multiple Vitamins With Minerals Tablets; Multiple Vitamins and Minerals; Multiple Vitamins and Minerals Capsules; Multiple Vitamins and Minerals Tab; Multitabs; Multitam; Multivit Et Fer Ampoules Et Comprimes; Multivit with Fluoride; Multivitamin; Multivitamin & Minerals (iron Free); Multivitamin & Multimineral; Multivitamin Drops with Fluoride; Multivitamin and Mineral; Multivitamin with Fluoride; Multivitamin with fluoride; Multivitamines; Multivitamines Et Mineraux; Multivitamines Et Mineraux Junior Regulier; Multivitamines Et Mineraux Reguliers / Regular Multivitamins and Minerals; Multivitamins; Multivitamins W Iron; Multivitamins W Minerals Extra Strength; Multivitamins and Minerals - Complete; Multivitamins and Minerals Tablets; Multivitamins and Minerals With Betacarotene Tablets; Multivitamins and Minerals for Men; Multivitamins and Minerals for Women; Multivitamins and Minerals for Young Men; Multivitamins and Minerals for Young Women; Multivitamins and Multiminerals Formula Regular Tablet; Multra Plex; Multra With Iron; Munit-E Tablet; Mvc; Mvc 9 Plus 3 Inj; Mvc 9+4 Inj; Mycelized Childrens Multi-vitamin Liq; Myhephron Dialysis and Stress Supplement; NEONATAL Complete; NESTABS ABC Prenatal Multi-vitamin/Mineral Supplement with DHA/EPA; NEWSTEM Rx IPL VITA C Energy Ampoule; Nata Komplete; NataChew; NataFort; Natal-V RX Multi-vitamin/Multi-mineral; Natalvirt 90dha; Natalvirt Ca; Natalvirt FLT; Natavite; Natelle One; Natura Magnesium Plus Vitamin C; Natural Source C 250 Tab 250mg Chewable; Natural Source Spectrum With Beta Carotene; Neo Citran A Powder; Neo Citran Powder; Neo Vites Tab; Neo-vites & Minerals Tab; Neomultivite; Neonatal DHA; Neonatal Fe; Neonatal Plus Vitamin; Neonatal Vitamin; Neonatal19; NephPlex Rx; Nephrocaps; Nephrocaps-QT; Nephron FA; New Clairfore; Nexa Plus; Nexa Select; Nexa Select Rx Prenatal Vitamin with Plant-Based DHA; Ni-C-E-LE Plus; Niacinamide 250mg With 50mg C; Niacinamide 250mg With Vitamin C; Nicadan; Niferex; Nighttime Extra Strength Contac Complete Cough, Cold & Flu Plus Vitamin C; Niron Komplete; Nitro Vites - Tab; Niva-Plus; No440 Cap; NovaFerrum; NovaFerrum Multivitamin with Iron Pediatric Drops; NovaMV Multivitamin; Novel Vita; Now; NuFera; Numark Multivitamins; Nutra Boost; Nutra-Z; Nutra-clear; Nutria; Nutrilite Double X; Nutrol C Cap 150mg; Nutrol C Tab 150mg; Nutrol V Capsule; O-Cal FA multivitamin; O-Cal Prenatal Vitamin; OB Complete Prenatal; Obagi; Ocuvel; Ocuvite Tab; Ocuvite Vitamin and Mineral Supplement; Ocuvite Vitamin and Mineral Supplement Capsules; Olympian Multi Vit Plus Minerals Tab; Omega-3 Rx Complete; Omniquin; Omnivex; Onccor; Oncovite; One A Day Advance Adults; One A Day Advance Adults 50+; One A Day Advance Fem; One A Day Multiple Vit W Minerals; One A Day Tab; One A Day With Non-medicinal Echinacea; One Daily VITES; One Daily Vitamin and Mineral Dietary Supplement; One Per Day Vitamin and Mineral Dietary Supplement; One Tablet Daily Mens Formula; One-A-day Advance Fem - Tablets; One-A-day Advance Men's; Only One - Tablet; Optivite Vitamin and Mineral Supplement Tablet; Orange C Tablets 150mg; Orange Chewable; Orange Flavored Crystal Chews Tab; Orifer F; Original Bioscal Forte Multi-vitamin Supplement Capsules; Orti C; Osteo Factors; Osteo Formula Tab; Osteo Regime; Osteo Tablets; Osteo-force; P-plus; P.N. Vitamin-mineral Drink; P.N.P. Vitamin Drink; PEG-3350, Electrolytes, and Ascorbate; PM Caps; PNV Ferrous Fumarate Docusate Folic Acid; PNV Prenatal Plus Multivitamin; PNV Prenatal Vitamin; PNV Prenatal Vitamin Plus Vitamin A; PNV Tabs 20-1; PNV Tabs 29-1; PNV-First; PNV-Omega; PNV-Select; PR Natal 400; PR Natal 400 ec; PR Natal 430; PR Natal 430 ec; PRENATE Enhance; PRENATE Restore; PROTECT IRON Liquid; Palm Springs Multvit and Min Tab; Paramettes Beta Carotene With Vitamins C & E; Paramettes Chewable Multivitamins Plus Iron; Paramettes Chewable Multivits With Iron Tab; Paramettes Multivits Plus Iron Tab (teens); Paramettes Syrup; Pediatric Infuvite Multiple Vitamins; Pediatric Infuvite Multiple Vitamins for Infusion; Peg-3350, Sodium Sulfate, Sodium Chloride, Potassium Chloride, Sodium Ascorbate and Ascorbic Acid; Penta-thion Pwr; Perfect Harvest; Pharmacitron; Phytomin C Tab 500mg; Phytomin-C 500 Tab 500mg; Phytoplex B Liq; Phytopure; Phytovim Cap; Plenvu; Ply Vi Sol Chewable Tab; Pnv Ob DHA; Pnv-OB-dha; Pnv-dha; Poly Vi Flor Chewable Tab; Poly-Vitamin with Fluoride; Polymine Avec Zinc Et Cuivre; Powertech Vitamin and Mineral Supplement; PreFol-DHA; PreGen DHA; PreGenna; PreNatal 19; PreNatal Vitamins Plus; PreNexa; PreNexa premier; PrePLUS; PreQue 10; PreTAB; PreferaOB ONE; PreferaOB One; Pregvit; Pregvit Folic 4; Pregvit Folic 5; Premium Prenatal; Premium Prenatal - Tablets; Prena1; Prena1 Plus; Prenaissance; Prenara; Prenatabs FA; Prenatal; Prenatal Formula Tab; Prenatal Mega Antioxidant; Prenatal Plus; Prenatal Plus Iron; Prenatal Plus Multivitamin Plus DHA MiniCaps; Prenatal Plus Vitamins; Prenatal Supplement - Tab; Prenatal Vitamin No 53 Iron Fum Folic Acid Docusate CA DHA; Prenatal Vitamin and Mineral Supplement; Prenatal Vitamin and Mineral Supplement -tab; Prenatal Vitamin and Mineral Supplement Tab; Prenatal Vitamins Plus; Prenatal Vitamins Plus Low Iron; Prenatal Vitamins and Minerals Tablets; Prenatal and Post Partum Supplement; Prenatal, DHA; Prenate DHA; Prenate Elite; Prenate Essential; Prenate Mini; Prenate Pixie; Prenate Star; Prenatrix; Prenatryl; Prenatvite; Prenatvite Complete; Prenatvite Plus; Preplus; Pretrate; Prevital Tab; Prim - Royal P.M.T.; Pro Enz Tab; Pro Hers Vanilla; Pro-ace; ProFola; Prometa; Protect Cardio AF; Protect Plus SO 60; Provida OB; Puralor; Q.T. #4 Vitamin and Mineral Dietary Supplement; Q.T. Vitamin and Mineral Drink Mix; Quflora FE; Quflora FE Pediatric Drops; Quflora Gummies; Quflora Pediatric; Quflora Pediatric Drops; RE FAC-x; RE Nata; RE Nata OB; RE Prenatal Multivitamin with Iron; RayaVit; Re Kar C Plus; Re Ob 90 DHA; Reaphirm Plant Source DHA; Redoxon-cal; Reebok; Reliv So Sense Daily Vitamin Supplement; Relnate DHA; Remedient; Remedium - Liq Orl; RenaPlex; RenaPlex-D; Renadyn Tab; Renal Caps Dialysis/Stress Vitamin Supplement; Renate; Renate DHA; Reno Caps; Replavite; Revit Multi-vitamins and Minerals; Revit Plus Cap; Revit Tab; Revitalize Multi-vitamin and Mineral Complex; Revival 1 Tab; Rhume Et De LA Grippe (extra-fort); Ribotin-E; Right Choice A.M. Multi Formula - Caplet; Rocky Mountain Multiple Vit and Min Mega Tab; Rocky Mountain Oj's Chewable Vitamin C Tab; Rogenic; Rose Hips 500plus Nu Life; Rulavite DHA; Sago-C-500 Tab 500mg; Samson; Scorbatate; Se-Natal 19; Se-Plete DHA; Se-Vate 21/7; Select OB; Select-OB Plus DHA Prenatal Supplement Plus DHA; Selenium '100' Plus C&e; Selenium 200mcg Plus C & E Tab; Selenium Plus; Selenium Plus C & E; Senior Multi One; SetonET; SetonET-EC; Sincera - Tablets; Sodium Ascorbate and Ascorbic Acid Pwr; Somarexin and C 1000; Somavit Brand Vitamins and Minerals Complex; Sopalamine 3b Plus; Sopalamine/3b Plus C; Spark Cap; Spd Tab; Special C; Spectra 301 Vitamin and Mineral Supp; Spectrum 2 Cap; Spectrum Performa Multivitamins and Minerals Tablets; Stress B & C Caplet; Stress B Capsules With Vitamin C; Stress B Complex With C and E Tab; Stress B Complex With C, E & Iron; Stress B Complex With C, E and Iron Tab; Stress B Complex With C,e, Zinc and Copper; Stress B With 1000 Mg Vitamin C; Stress B&c Tab; Stress B-complex Plus Iron With Vitamins C&e; Stress Complex 600 Avec Vit E Cuivre Zinc; Stress Ctr Srt; Stress Formula; Stress Formula + Iron; Stress Formula B-comp + 500mg Vit C Tab; Stress Formula Multi-B Comp + 500mg Vit C Cap; Stress Formula Multivitamin Tablets USP; Stress Formula Tab; Stress Formula Vit B With C Complex; Stress Forte Plus Lipotropic Factors; Stress Tab; Stress Tab With Iron and Vitamin E; Stress Tab With Zinc, Copper and Vitamin E; Stress Tablets; Stress Vitamin B With C Complex Tablets; Stressmates; Stresstabs + Zinc-copper; Strovite Forte Caplet; Strovite One Caplets; Sun-rype Vitaburst; Super 7 Vitamin and Mineral Supplement; Super Ao Formula; Super B Compound W 500mg Vit C; Super B.P. Vitamin C; Super C 1000mg; Super C With Non-medicinal Rosehips Tab; Super C-complex-1000 Extra Strength; Super C-complex-1500 Ultra Strength; Super C-complex-500 Regular Strength; Super Charged Energy; Super Citro Cee Srt 500mg; Super Daily No 2; Super Kids Chewable Multivitamin Multimineral (chewable Tablets); Super Multi; Super Pantoplex; Super Stress Capsules; Super Stress Mega B Plus 1000mg Vit C Tab; Super Vita Vim Multivitamins and Minerals; Super Vita-vim With Beta-carotene - Tab; Super-A Vitamins With Selenium Dietary Supplement; Super-cell; Super-pote Vitamin Supplement; Supplement De Multivitamines Infusion Arome Fruits Rouges; Supplement De Vitamine C; Supplement De Vitamines Et Mineraux; Supravite C 1000; Supravite Pour Enfants; Supravite Stress Avec Vit E; Supravite Stress Avec Vit E Cuivre Et Zinc; Supravite Stress Avec Vit E Et Fer; Surbex 500 Filmtab; Surbex-500 With Iron; Surbex-500 With Zinc; Sustained Release Vitamin C 500mg; Sveets; Sveets Orange Burst; Sweet Sixteen - Tab; Swical-energy 3e Age; Swiss Camu C Tab 150mg; Swiss One; Swiss One Multi Vit & Chel Min Tab; Swiss One Multivitamin and Mineral Caplet; Swiss One Timed Release Tab; Swiss Total One; Synergisti-C; Synergistic Manganese Cap; Synergistic Manganese Capsules; Synergistic Selenium; TL-Care DHA; TL-Fluorivite; TL-Fol 500; TL-Folate; TL-Icon; TL-Select; TL-Select DHA; TRONVite; Tandem DHA; Tar-end; Taron BC; Taron-C DHA; Taron-prex Prenatal; Tender Age Multi Vitamins; Tender Age Vit Adc Drops; Tendera-OB; Theraplex Acp; Thiamine HCl 100mg W C 20mg; Thrivite 19; Thrivite Rx; Thymunase Tab; Tianshi Beneficial Capsules; Time Rel Vit C Tab 1000mg; Time Release C 500mg; Timed C 1000 + Caplet 1000mg; Timed Release C 1000mg Srt; Timed Release C 1000mg Tab; Timed Release Ester-C 1000mg; Timed Release Vit. C-1000 Caplet; Timed Release Vita-vim Srt; Timed Release Vitamin C 500 mg; Timed Release Vitamin C Tablet With Bioflavanoids; Timed Release and Esterified Vitamin C-1000; Timed Release and Esterified Vitamin C-500; Timedose Vitamin C 1000mg; Timedose Vitamin C Tab 500mg; Tl-hem 150; Tobakient; Tonicol Et A-D-C Ampoules/comprimes; Tonimol Cap Liq; Total Flu; Total Living Concepts Formula One - Tab; Totalvit Plus; Tozal; Tri Adrenopan; Tri C 500 Src; Tri Vi Flor Tab; Tri-Vit With Fluoride And Iron Drops; Tri-Vit with Fluoride Drops; Tri-Vitamin with Fluoride; Tri-Vitamin with iron and fluoride; Tri-Vite Drops with Fluoride; TriAdvance; TriStart DHA; TriStart FREE; TriStart ONE; Tricare Prenatal; Tricare Prenatal 2-part Daily Prenatal Vitamin System; Tricare Prenatal Compleat; Tricare Prenatal DHA One; Tricare Prenatal DHA One Rx Multivitamin; Tricare Prenatal DHA One With Folate; Tricare Prenatal Quick Dissolve; Tricon; Trigels-F Forte; Trinatal GT; Trinatal Rx 1; Trinatal Ultra; Trinaz; TriphroCaps; Triple Vitamin Drops with Fluoride; Triple-Vitamin Drops with Fluoride; Triveen-Duo DHA; Triveen-PRx RNF; Tropicana Calcium & Vitamin C Supplement; Tropicana Calcium and Vitamin C Supplement; Tropicana Vitamin C Supplement; Twin G.F. Powder; Twin G.F. Powder Vanilla Flavor; Twin Opti Pwr; Twin Ultra Liquid Fruit Punch Flavor; Twin Ultra Liquid Grape Flavor; Twin Ultra Liquid Lemon-lime Flavor; Twin Ultra Liquid Orange Flavor; Ultimate Tab; UltimateCare ONE; Ultra Hr; Usana Megavitamin Tablets - Tab; V & M Vitamin and Mineral Supplement; V-V Dietary Supplement; VIL-Rx; VITAFOL Gummies; VITAMINS A, C, D and FLUORIDE; VP-HEME One; VP-Iron-C; VP-Iron-C Plus; VP-Vite Rx; Vasculine; Vasodyn Tab; Vasula Tab; Vege 1 Daily Tab; Vege Swiss One Multivitamin W Chel Mins Tab; VemaVite-PRx 2 with Fish-Based DHA; Vena-Bal DHA; Venexa; Venexa FE; Ventrixyl; Ventrixyl Fe; Vi-daylin Adc Vitamins Drops for Infants; Viamon Ampoules Et Comprimes; Vie-CA-rad Capsules; Vigo Multivitamins Drops/lozenge; Vimeral Tab; Vinacal; Vinate AZ; Vinate Care; Virt Nate; Virt Vite GT; Virt-Advance; Virt-C DHA; Virt-Caps; Virt-Care One; Virt-Nate; Virt-Nate DHA; Virt-PN; Virt-PN DHA; Virt-PN Plus; Virt-Pn; Virt-Select PRENATAL/POSTNATAL; Virt-Tabs; Virt-Vite Plus; VirtPrex; Vista Advanced AREDS2 Formula; Vit B Complex Plus Vit C 550mg; Vit C Chew Tab 250mg; Vit C Chew Tab 300mg; Vit C Chew Tab 500mg; Vit C Ctr 1000mg; Vit C Ctr 500mg; Vit C Sustained Release Tab 1000mg; Vit C Tab 1000mg; Vit C Tab 250mg; Vit C Tab 500mg; Vit C Timed Release Tab 500mg; Vit C W Calc-mag and Potass Powder; Vit-HA Multi Vitamin and Zinc Supplement; Vit.c With N-M.bioflav.rose Hips and Rutin; Vita B + C 500 Tab; Vita C 550 Ampoules Buvables 550mg/amp; Vita C Tab 150mg; Vita Day Tab; Vita Plex Tab; Vita Rich; Vita Vim Multivitamins and Minerals Tab; Vita Vim With Beta Carotene-caplet; Vita-Pac; Vita-Rx Diabetic Vitamin; Vita-vim - Tab; Vita-vim With Beta-carotene - Tab; Vita-worth Vitamin C Tablets 500mg; VitaPhil Aide; VitaXyme; Vitachrom Gc; Vitaday Junior Tab; Vitaday Tab; Vitafant; Vitaflex Dietary Suplement; Vitafol Caplet; Vitafol Fe Plus; Vitafol OB Caplet; Vitafol One; Vitafol Plus; Vitafol Ultra; Vitafol-OB Plus DHA Prenatal Supplement Plus DHA; Vital Be-100; Vital-D Rx; Vitalife - Capsule; Vitalis; Vitamin & Mineral Formula 1 Dietary Supplement; Vitamin B + C Cap; Vitamin B Complex + C 300mg Cap; Vitamin B Complex + C 600mg Tab; Vitamin B Complex Plus 300mg Vitamin C; Vitamin B Complex Plus C 300mg Timed Release; Vitamin B Complex W C 300mg Tab; Vitamin B Complex W C Tab; Vitamin B Compound W C Tab 500mg; Vitamin B Compound W Vit C 250mg Tab; Vitamin B Compound With Vitamin C Fortis Capsule Dtc; Vitamin B Cpd W Vit C Tab; Vitamin C; Vitamin C & Zinc Tab; Vitamin C + Zinc Tab; Vitamin C 100 Mg Chewable Tablets; Vitamin C 100 Mg Orange Chewable; Vitamin C 1000; Vitamin C 1000 Mg - Tablet; Vitamin C 1000 Mg Chewable - Tablet; Vitamin C 1000 Mg Timed Release - Tablet; Vitamin C 1000 mg; Vitamin C 1000mg; Vitamin C 1000mg Cap; Vitamin C 1000mg Chewable Tablets; Vitamin C 1000mg Dietary Supplement; Vitamin C 1000mg Time Release; Vitamin C 1000mg Time Release Form; Vitamin C 1000mg Timed Release Tablets; Vitamin C 1000mg W/ Non-medicinal Echinacea; Vitamin C 1000mg W/rose Hips Timed Release Tablet; Vitamin C 100mg Capsules; Vitamin C 1500mg - Tab; Vitamin C 1500mg Time Released Srt; Vitamin C 1500mg Timed Release Tablet; Vitamin C 250 Mg Chewable; Vitamin C 250 Mg Chewable - Tablet; Vitamin C 250 Mg Orange Chewable; Vitamin C 250 mg; Vitamin C 250mg Chewable; Vitamin C 250mg Chewable Orange Tablets; Vitamin C 250mg With Non-medicinal Echinacea & Lemon Bioflavonoids; Vitamin C 250mg With Non-medicinal Rose Hips; Vitamin C 250mg With Non-medicinal Rose Hips Dietary Supplement; Vitamin C 300mg Plus Acerola Tab; Vitamin C 350 Tab 350mg; Vitamin C 400mg Tab; Vitamin C 500 Mg (mixed Citrus Flavour); Vitamin C 500 Mg (natural Source Orange Flavour); Vitamin C 500 Mg 5 Fruit Chewable; Vitamin C 500 Mg Chewable - Tablet; Vitamin C 500 Mg Orange Chewable; Vitamin C 500 Mg Tab; Vitamin C 500 Mg With Rosehips; Vitamin C 500 Tab Chewable; Vitamin C 500 mg; Vitamin C 500mg; Vitamin C 500mg (chewable Orange); Vitamin C 500mg Caps Time Release; Vitamin C 500mg Chewable; Vitamin C 500mg Chewable Orange Tablets; Vitamin C 500mg Chewable Tablets; Vitamin C 500mg Chewable Tablets Tropical Flavour; Vitamin C 500mg Src Time Release; Vitamin C 500mg Tab; Vitamin C 500mg Tablets; Vitamin C 500mg Time Release; Vitamin C 500mg Timed Release; Vitamin C 500mg Timed Release Tab USP; Vitamin C 500mg Timed Release Tablets; Vitamin C 500mg With Non-medicinal Echinacea; Vitamin C 500mg With Non-medicinal Rose Hips; Vitamin C 600mg; Vitamin C Ascorbic Acid Tab 1000mg; Vitamin C Cap 1000mg; Vitamin C Chew Sug Fr 500mg; Vitamin C Chewable; Vitamin C Chewable 250mg; Vitamin C Chewable 500mg; Vitamin C Crystals; Vitamin C Crystals 5gm/5ml; Vitamin C Crystals Pwr 4000mg/tsp; Vitamin C Extra Time Released Tab 1800mg; Vitamin C Orange Chewable Tab 500mg USP; Vitamin C Powder; Vitamin C Src 500mg Timed Release; Vitamin C Srt 1.5gm; Vitamin C Srt 1000mg; Vitamin C Srt 1500mg; Vitamin C Srt 500mg; Vitamin C Sustained Release Tabs 1000mg; Vitamin C Tab 1000mg; Vitamin C Tab 1000mg Chewable; Vitamin C Tab 1000mg Timed Release; Vitamin C Tab 1000mg USP; Vitamin C Tab 100mg; Vitamin C Tab 100mg Chewable; Vitamin C Tab 100mg Chewable Orange; Vitamin C Tab 100mg Orange Flavoured Chewable; Vitamin C Tab 1500mg Timed Release; Vitamin C Tab 250mg; Vitamin C Tab 250mg Chewable; Vitamin C Tab 250mg Chewable Orange; Vitamin C Tab 250mg Orange Flavoured Chewable; Vitamin C Tab 250mg USP; Vitamin C Tab 250mg Watkins; Vitamin C Tab 500 mg; Vitamin C Tab 500mg; Vitamin C Tab 500mg Chewable; Vitamin C Tab 500mg Chewable Orange; Vitamin C Tab 500mg Orange Flavor; Vitamin C Tab 500mg Orange Flavoured Chewable; Vitamin C Tab 500mg USP; Vitamin C Tab USP; Vitamin C Tablets 1000mg; Vitamin C Tablets 1500mg Timed Release; Vitamin C Tablets 250mg; Vitamin C Tablets 500mg; Vitamin C Tablets Chewable 250mg; Vitamin C Tablets Chewable 500mg; Vitamin C Tablets Sustained Release 500mg; Vitamin C Tablets Time Release 1000mg; Vitamin C Tablets Time Release 500mg; Vitamin C Tablets USP 500mg; Vitamin C Timed Release Tab 1000mg; Vitamin C Timed Release Tab 1500mg; Vitamin C Timed Release Tab 500mg; Vitamin C Ultra Fine Pwr 1000mg/tsp; Vitamin C W Chelates Tab; Vitamin C Wafers 100mg; Vitamin C With Acerola Tab; Vitamin C and Zinc Lozenges; Vitamin C-force 1000mg Tablets; Vitamin C-force 500mg Tablets; Vitamin E + 3 (extra Strength); Vitamin E + 3 Extra Strength With Zinc; Vitamin E 400 Iu With Selenium, Vitamin C & Manganese; Vitamin and Mineral Supp Formula 1; Vitamin and Mineral Supplement Capsules; Vitamine C - Liq Orl 50mg/ml; Vitamine C 1000 Action Prolongee; Vitamine C 1000 Tab 1000mg; Vitamine C 1000mg-liq; Vitamine C 100mg 5 Fruits-tab; Vitamine C 100mg Tab Masticable; Vitamine C 150 mg; Vitamine C 250 Mg Masticable - Tablet; Vitamine C 250 Mg USP - Tablet; Vitamine C 250mg Tab Masticable; Vitamine C 500; Vitamine C 500 A L'orange; Vitamine C 500 Action Prolongee; Vitamine C 500 Mg Raisin - Tablet; Vitamine C 500 Mg USP - Tablet; Vitamine C 500mg 5-fruits - Tab; Vitamine C 500mg 5-fruits Tab; Vitamine C Cap 500mg; Vitamine C Croquable Tab 500mg; Vitamine C Liq 500mg/10ml; Vitamine C Tab 100mg; Vitamine C Tab 100mg Masticables; Vitamine C Tab 100mg USP; Vitamine C Tab 250mg; Vitamine C Tab Masticable 250mg USP; Vitamine C Timed Release Tab 500mg; Vitamine-C 100mg - Croquer (orange); Vitamines Et Mineraux; Vitamines Et Mineraux Comprimes; Vitamines Pour Bebes Et Enfants; Vitaminol; Vitamins A, C & E Cap.; Vitamins A, C, D and Fluoride Drops; Vitamins C Plus E W.beta Carotene and Se; Vitaphil 90 DHA; Vitaphil DHA; Vitaplex; Vitarain Vitamin Shower Filter; Vitarich C; Vitasure; Vitazyme; Vitogen B Stress C Vit E Zinc & Cop; Vitogen B Stress C600; Vitramyn; Vitranol; Vitranol Fe; Vitrexate; Vitrexate FE; Vitrexyl; Vitrexyl plus Iron; Viva CT Prenatal; Viva Kids - Tab; Vol-Care Rx; Vol-Nate; Vol-Plus; Vol-Tab Rx; Vp-pnv-dha; Vtb Vitamin and Mineral Supplement; Webber E Plus 3 Cap; Wellness Formula; WesCap-C-DHA; WesCap-PN DHA; WesCaps; WesNate DHA; WesTab Plus; WestGel DHA; Women's Biomultiple Vitamin and Mineral Supplement; Women's Change Formula; Women's Formula; Women's Support Tablets; Xvite; Xyzbac; Xyzbac G; Xyzmune; Yumaki Original Mint Tooth; Z Bec Tab; Z-force Vitamin and Mineral Supplement; Zalvit; Zatean-Pn; Zatean-Pn DHA; Zatean-Pn Plus; Zavitrol; Zeldana; Zinc 50mg W Vitamin C; Zinc C Lozenges; Zinc Lozenges With Vitamin C; Zinc Lozenges With Vitamin C - Loz; Zinc Lozenges With Vitamin C Dietary Supplement; Zinc Lozenges With Vitamin C In A Nonmedicinal Base With Echinacea Lozenge; Zinc Lozenges With Vitamin C and Non-medicinal Echinacea; Zinc Plus Extra C; Zinc Plus Lozenges; Zinc Plus Vitamins C & B6 Lozenges; Zinc With C - Loz; Zinc With C Lozenge; Zinc With C Lozenges; Zinc With Vitamin C Lozenge; Zinc and Vitamin C Lozenges; Zinc-C Lozenges; Zinc-C-lozenges; Zintrexyl-C; Ziphex; Zoo Chews; Zoo Chews Plus Iron; Zyvana; Zyvit; arthronSAN; healthy mamaBE WELL ROUNDED BE WELL ROUNDED; natelle COMPLETE; vitaMedMD One Rx; vitaMedMD Rx Plus

> <INTERNATIONAL_BRANDS>
Ascoltin; Ascorbicap

$$$$
