
  Mrv0541 02231216032D          

  8  7  0  0  1  0            999 V2000
   -0.1914    0.7145    0.0000 C   0  0  0  0  0  0  0  0  0  0  0  0
    0.5230    1.1270    0.0000 S   0  0  0  0  0  0  0  0  0  0  0  0
    1.2375    0.7145    0.0000 C   0  0  0  0  0  0  0  0  0  0  0  0
    1.9520    1.1270    0.0000 C   0  0  2  0  0  0  0  0  0  0  0  0
    1.9520    1.9520    0.0000 N   0  0  0  0  0  0  0  0  0  0  0  0
    2.6664    0.7145    0.0000 C   0  0  0  0  0  0  0  0  0  0  0  0
    3.3809    1.1270    0.0000 O   0  0  0  0  0  0  0  0  0  0  0  0
    2.6664   -0.1105    0.0000 O   0  0  0  0  0  0  0  0  0  0  0  0
  1  2  1  0  0  0  0
  2  3  1  0  0  0  0
  3  4  1  0  0  0  0
  4  5  1  6  0  0  0
  4  6  1  0  0  0  0
  6  7  1  0  0  0  0
  6  8  2  0  0  0  0
M  END
> <DATABASE_ID>
DB02216

> <DATABASE_NAME>
drugbank

> <SMILES>
CSC[C@H](N)C(O)=O

> <INCHI_IDENTIFIER>
InChI=1S/C4H9NO2S/c1-8-2-3(5)4(6)7/h3H,2,5H2,1H3,(H,6,7)/t3-/m0/s1

> <INCHI_KEY>
IDIDJDIHTAOVLG-VKHMYHEASA-N

> <FORMULA>
C4H9NO2S

> <MOLECULAR_WEIGHT>
135.185

> <EXACT_MASS>
135.035399227

> <JCHEM_ACCEPTOR_COUNT>
3

> <JCHEM_ATOM_COUNT>
17

> <JCHEM_AVERAGE_NEUTRAL_MICROSPECIES_CHARGE>
-0.0070603165079560215

> <JCHEM_AVERAGE_POLARIZABILITY>
13.55671322858222

> <JCHEM_BIOAVAILABILITY>
1

> <JCHEM_DONOR_COUNT>
2

> <JCHEM_FORMAL_CHARGE>
0

> <JCHEM_GHOSE_FILTER>
0

> <JCHEM_IUPAC>
(2R)-2-amino-3-(methylsulfanyl)propanoic acid

> <ALOGPS_LOGP>
-2.21

> <JCHEM_LOGP>
-2.404744262255893

> <ALOGPS_LOGS>
-0.31

> <JCHEM_MDDR_LIKE_RULE>
0

> <JCHEM_NEUTRAL_CHARGE>
0

> <JCHEM_NUMBER_OF_RINGS>
0

> <JCHEM_PHYSIOLOGICAL_CHARGE>
0

> <JCHEM_PKA_STRONGEST_ACIDIC>
2.4449295067998698

> <JCHEM_PKA_STRONGEST_BASIC>
9.146384026498897

> <JCHEM_POLAR_SURFACE_AREA>
63.32

> <JCHEM_REFRACTIVITY>
32.8746

> <JCHEM_ROTATABLE_BOND_COUNT>
3

> <JCHEM_RULE_OF_FIVE>
1

> <ALOGPS_SOLUBILITY>
6.58e+01 g/l

> <JCHEM_TRADITIONAL_IUPAC>
tetrahydrofolic acid

> <JCHEM_VEBER_RULE>
0

> <DRUGBANK_ID>
DB02216

> <SECONDARY_ACCESSION_NUMBERS>
EXPT01076; EXPT02919

> <DRUG_GROUPS>
experimental

> <GENERIC_NAME>
S-Methylcysteine

$$$$
