
  Mrv0541 02231215422D          

  6  5  0  0  0  0            999 V2000
   -0.1914    0.7145    0.0000 C   0  0  0  0  0  0  0  0  0  0  0  0
    0.5230    1.1270    0.0000 O   0  0  0  0  0  0  0  0  0  0  0  0
    1.2375    0.7145    0.0000 C   0  0  0  0  0  0  0  0  0  0  0  0
    1.9520    1.1270    0.0000 C   0  0  0  0  0  0  0  0  0  0  0  0
    2.6664    0.7145    0.0000 O   0  0  0  0  0  0  0  0  0  0  0  0
    3.3809    1.1270    0.0000 C   0  0  0  0  0  0  0  0  0  0  0  0
  1  2  1  0  0  0  0
  2  3  1  0  0  0  0
  3  4  1  0  0  0  0
  4  5  1  0  0  0  0
  5  6  1  0  0  0  0
M  END
> <DATABASE_ID>
DB01749

> <DATABASE_NAME>
drugbank

> <SMILES>
COCCOC

> <INCHI_IDENTIFIER>
InChI=1S/C4H10O2/c1-5-3-4-6-2/h3-4H2,1-2H3

> <INCHI_KEY>
XTHFKEDIFFGKHM-UHFFFAOYSA-N

> <FORMULA>
C4H10O2

> <MOLECULAR_WEIGHT>
90.121

> <EXACT_MASS>
90.068079564

> <JCHEM_ACCEPTOR_COUNT>
2

> <JCHEM_ATOM_COUNT>
16

> <JCHEM_AVERAGE_NEUTRAL_MICROSPECIES_CHARGE>
1.8748006447035583e-11

> <JCHEM_AVERAGE_POLARIZABILITY>
10.30419339877725

> <JCHEM_BIOAVAILABILITY>
1

> <JCHEM_DONOR_COUNT>
0

> <JCHEM_FORMAL_CHARGE>
0

> <JCHEM_GHOSE_FILTER>
0

> <JCHEM_IUPAC>
1,2-dimethoxyethane

> <ALOGPS_LOGP>
0.03

> <JCHEM_LOGP>
0.07757392666666685

> <ALOGPS_LOGS>
0.30

> <JCHEM_MDDR_LIKE_RULE>
0

> <JCHEM_NEUTRAL_CHARGE>
0

> <JCHEM_NUMBER_OF_RINGS>
0

> <JCHEM_PHYSIOLOGICAL_CHARGE>
0

> <JCHEM_PKA_STRONGEST_BASIC>
-3.815819931516785

> <JCHEM_POLAR_SURFACE_AREA>
18.46

> <JCHEM_REFRACTIVITY>
24.055999999999997

> <JCHEM_ROTATABLE_BOND_COUNT>
3

> <JCHEM_RULE_OF_FIVE>
1

> <ALOGPS_SOLUBILITY>
1.81e+02 g/l

> <JCHEM_TRADITIONAL_IUPAC>
tetrahydrofolic acid

> <JCHEM_VEBER_RULE>
1

> <DRUGBANK_ID>
DB01749

> <SECONDARY_ACCESSION_NUMBERS>
EXPT01306

> <DRUG_GROUPS>
experimental

> <GENERIC_NAME>
1,2-Dimethoxyethane

$$$$
