
  Mrv0541 05031420552D          

 11 12  0  0  1  0            999 V2000
    1.6436    0.3570    0.0000 C   0  0  0  0  0  0  0  0  0  0  0  0
    0.2526    0.2537    0.0000 C   0  0  0  0  0  0  0  0  0  0  0  0
    0.9094   -2.4949    0.0000 C   0  0  0  0  0  0  0  0  0  0  0  0
    1.9362   -1.4148    0.0000 C   0  0  0  0  0  0  0  0  0  0  0  0
    1.6411   -2.0402    0.0000 C   0  0  0  0  0  0  0  0  0  0  0  0
    0.5004   -1.3997    0.0000 C   0  0  0  0  0  0  0  0  0  0  0  0
    1.1407   -0.9495    0.0000 C   0  0  2  0  0  0  0  0  0  0  0  0
    0.9807   -0.1341    0.0000 C   0  0  0  0  0  0  0  0  0  0  0  0
    0.9106   -1.6699    0.0000 C   0  0  1  0  0  0  0  0  0  0  0  0
    0.1351   -2.0602    0.0000 N   0  0  0  0  0  0  0  0  0  0  0  0
    1.3902   -0.1631    0.0000 H   0  0  0  0  0  0  0  0  0  0  0  0
  5  4  1  0  0  0  0
  7  4  1  0  0  0  0
  7  6  1  0  0  0  0
  8  1  1  0  0  0  0
  8  2  1  0  0  0  0
  8  7  1  0  0  0  0
  9  3  1  6  0  0  0
  9  5  1  0  0  0  0
  9  8  1  0  0  0  0
 10  6  1  0  0  0  0
 10  9  1  0  0  0  0
  7 11  1  1  0  0  0
M  END
> <DATABASE_ID>
DB02409

> <DATABASE_NAME>
drugbank

> <SMILES>
[H][C@@]12CC[C@@](C)(NC1)C2(C)C

> <INCHI_IDENTIFIER>
InChI=1S/C9H17N/c1-8(2)7-4-5-9(8,3)10-6-7/h7,10H,4-6H2,1-3H3/t7-,9-/m1/s1

> <INCHI_KEY>
OLTRGBMOWPXXIG-VXNVDRBHSA-N

> <FORMULA>
C9H17N

> <MOLECULAR_WEIGHT>
139.238

> <EXACT_MASS>
139.136099549

> <JCHEM_ACCEPTOR_COUNT>
1

> <JCHEM_ATOM_COUNT>
27

> <JCHEM_AVERAGE_NEUTRAL_MICROSPECIES_CHARGE>
0.9999557556934838

> <JCHEM_AVERAGE_POLARIZABILITY>
17.041027731406476

> <JCHEM_BIOAVAILABILITY>
1

> <JCHEM_DONOR_COUNT>
1

> <JCHEM_FORMAL_CHARGE>
0

> <JCHEM_GHOSE_FILTER>
0

> <JCHEM_IUPAC>
(1R,4S)-1,7,7-trimethyl-2-azabicyclo[2.2.1]heptane

> <ALOGPS_LOGP>
2.06

> <JCHEM_LOGP>
1.6322450179999999

> <ALOGPS_LOGS>
-1.50

> <JCHEM_MDDR_LIKE_RULE>
0

> <JCHEM_NEUTRAL_CHARGE>
1

> <JCHEM_NUMBER_OF_RINGS>
2

> <JCHEM_PHYSIOLOGICAL_CHARGE>
1

> <JCHEM_PKA_STRONGEST_BASIC>
11.354123392142155

> <JCHEM_POLAR_SURFACE_AREA>
12.03

> <JCHEM_REFRACTIVITY>
42.753499999999995

> <JCHEM_ROTATABLE_BOND_COUNT>
0

> <JCHEM_RULE_OF_FIVE>
1

> <ALOGPS_SOLUBILITY>
4.38e+00 g/l

> <JCHEM_TRADITIONAL_IUPAC>
biotin

> <JCHEM_VEBER_RULE>
1

> <DRUGBANK_ID>
DB02409

> <SECONDARY_ACCESSION_NUMBERS>
EXPT00106

> <DRUG_GROUPS>
experimental

> <GENERIC_NAME>
(1r,4s)-2-Azabornane

$$$$
