
  Mrv0541 05041412052D          

 23 23  0  0  0  0            999 V2000
    0.0000   -0.8250    0.0000 C   0  0  0  0  0  0  0  0  0  0  0  0
    4.2868    1.6500    0.0000 C   0  0  0  0  0  0  0  0  0  0  0  0
    1.4289   -2.4750    0.0000 C   0  0  0  0  0  0  0  0  0  0  0  0
    2.8579   -0.8250    0.0000 C   0  0  0  0  0  0  0  0  0  0  0  0
    2.8579   -2.4750    0.0000 C   0  0  0  0  0  0  0  0  0  0  0  0
    0.7145   -1.2375    0.0000 C   0  0  0  0  0  0  0  0  0  0  0  0
    3.5724    1.2375    0.0000 C   0  0  0  0  0  0  0  0  0  0  0  0
    2.1434   -2.0625    0.0000 C   0  0  0  0  0  0  0  0  0  0  0  0
    2.1434   -1.2375    0.0000 C   0  0  0  0  0  0  0  0  0  0  0  0
    3.5724    0.4125    0.0000 C   0  0  0  0  0  0  0  0  0  0  0  0
    1.4289   -0.8250    0.0000 C   0  0  0  0  0  0  0  0  0  0  0  0
    4.2868    0.0000    0.0000 C   0  0  0  0  0  0  0  0  0  0  0  0
    0.7145   -2.0625    0.0000 N   0  0  0  0  0  0  0  0  0  0  0  0
    2.8579    0.0000    0.0000 N   0  0  0  0  0  0  0  0  0  0  0  0
    2.8579    1.6500    0.0000 O   0  0  0  0  0  0  0  0  0  0  0  0
    1.4289    0.0000    0.0000 O   0  0  0  0  0  0  0  0  0  0  0  0
    5.0013    0.4125    0.0000 O   0  0  0  0  0  0  0  0  0  0  0  0
    4.2868   -0.8250    0.0000 O   0  0  0  0  0  0  0  0  0  0  0  0
    4.2868   -4.1250    0.0000 O   0  0  0  0  0  0  0  0  0  0  0  0
    3.1599   -4.4270    0.0000 O   0  0  0  0  0  0  0  0  0  0  0  0
    3.9849   -2.9980    0.0000 O   0  0  0  0  0  0  0  0  0  0  0  0
    2.8579   -3.3000    0.0000 O   0  0  0  0  0  0  0  0  0  0  0  0
    3.5724   -3.7125    0.0000 P   0  0  0  0  0  0  0  0  0  0  0  0
  6  1  1  0  0  0  0
  7  2  1  0  0  0  0
  8  3  1  0  0  0  0
  8  5  1  0  0  0  0
  9  4  1  0  0  0  0
  9  8  2  0  0  0  0
 10  7  1  0  0  0  0
 11  6  2  0  0  0  0
 11  9  1  0  0  0  0
 12 10  1  0  0  0  0
 13  3  2  0  0  0  0
 13  6  1  0  0  0  0
 14  4  1  0  0  0  0
 14 10  1  0  0  0  0
 15  7  1  0  0  0  0
 16 11  1  0  0  0  0
 17 12  2  0  0  0  0
 18 12  1  0  0  0  0
 22  5  1  0  0  0  0
 23 19  1  0  0  0  0
 23 20  1  0  0  0  0
 23 21  2  0  0  0  0
 23 22  1  0  0  0  0
M  END
> <DATABASE_ID>
DB03576

> <DATABASE_NAME>
drugbank

> <SMILES>
CC(O)C(NCC1=C(COP(O)(O)=O)C=NC(C)=C1O)C(O)=O

> <INCHI_IDENTIFIER>
InChI=1S/C12H19N2O8P/c1-6-11(16)9(4-14-10(7(2)15)12(17)18)8(3-13-6)5-22-23(19,20)21/h3,7,10,14-16H,4-5H2,1-2H3,(H,17,18)(H2,19,20,21)

> <INCHI_KEY>
IZWQBQLGLAKRMN-UHFFFAOYSA-N

> <FORMULA>
C12H19N2O8P

> <MOLECULAR_WEIGHT>
350.2616

> <EXACT_MASS>
350.087902106

> <JCHEM_ACCEPTOR_COUNT>
9

> <JCHEM_ATOM_COUNT>
42

> <JCHEM_AVERAGE_NEUTRAL_MICROSPECIES_CHARGE>
-1.9726613429796964

> <JCHEM_AVERAGE_POLARIZABILITY>
31.460753457950858

> <JCHEM_BIOAVAILABILITY>
1

> <JCHEM_DONOR_COUNT>
6

> <JCHEM_FORMAL_CHARGE>
0

> <JCHEM_GHOSE_FILTER>
0

> <JCHEM_IUPAC>
3-hydroxy-2-[({3-hydroxy-2-methyl-5-[(phosphonooxy)methyl]pyridin-4-yl}methyl)amino]butanoic acid

> <ALOGPS_LOGP>
-1.94

> <JCHEM_LOGP>
-5.251219729596354

> <ALOGPS_LOGS>
-2.36

> <JCHEM_MDDR_LIKE_RULE>
0

> <JCHEM_NEUTRAL_CHARGE>
-2

> <JCHEM_NUMBER_OF_RINGS>
1

> <JCHEM_PHYSIOLOGICAL_CHARGE>
-2

> <JCHEM_PKA>
1.9428053138744998

> <JCHEM_PKA_STRONGEST_ACIDIC>
1.0000194175773425

> <JCHEM_PKA_STRONGEST_BASIC>
9.245137351057618

> <JCHEM_POLAR_SURFACE_AREA>
169.44

> <JCHEM_REFRACTIVITY>
77.9513

> <JCHEM_ROTATABLE_BOND_COUNT>
8

> <JCHEM_RULE_OF_FIVE>
0

> <ALOGPS_SOLUBILITY>
1.52e+00 g/l

> <JCHEM_TRADITIONAL_IUPAC>
tetrahydrofolic acid

> <JCHEM_VEBER_RULE>
0

> <DRUGBANK_ID>
DB03576

> <SECONDARY_ACCESSION_NUMBERS>
EXPT03066

> <DRUG_GROUPS>
experimental

> <GENERIC_NAME>
N-Pyridoxyl-Threonine-5-Monophosphate

$$$$
