
  Mrv0541 05041407312D          

 34 35  0  0  1  0            999 V2000
    0.0000   -1.6500    0.0000 C   0  0  0  0  0  0  0  0  0  0  0  0
    2.1434    1.2375    0.0000 C   0  0  0  0  0  0  0  0  0  0  0  0
    2.1434   -3.7125    0.0000 C   0  0  0  0  0  0  0  0  0  0  0  0
    2.8579    0.8250    0.0000 C   0  0  2  0  0  0  0  0  0  0  0  0
    2.1434   -2.8875    0.0000 C   0  0  2  0  0  0  0  0  0  0  0  0
    3.5724    1.2375    0.0000 C   0  0  2  0  0  0  0  0  0  0  0  0
    2.8579   -2.4750    0.0000 C   0  0  2  0  0  0  0  0  0  0  0  0
    4.2868    0.8250    0.0000 C   0  0  1  0  0  0  0  0  0  0  0  0
    4.2868    0.0000    0.0000 C   0  0  1  0  0  0  0  0  0  0  0  0
    2.1434   -1.2375    0.0000 C   0  0  1  0  0  0  0  0  0  0  0  0
    2.8579   -1.6500    0.0000 C   0  0  1  0  0  0  0  0  0  0  0  0
    1.4289   -1.6500    0.0000 C   0  0  1  0  0  0  0  0  0  0  0  0
    3.5724   -0.4125    0.0000 C   0  0  2  0  0  0  0  0  0  0  0  0
    2.1434    2.0625    0.0000 O   0  0  0  0  0  0  0  0  0  0  0  0
    1.4289   -4.1250    0.0000 O   0  0  0  0  0  0  0  0  0  0  0  0
    3.5724    2.0625    0.0000 O   0  0  0  0  0  0  0  0  0  0  0  0
    3.5724   -2.8875    0.0000 O   0  0  0  0  0  0  0  0  0  0  0  0
    5.0013    1.2375    0.0000 O   0  0  0  0  0  0  0  0  0  0  0  0
    5.0013   -0.4125    0.0000 O   0  0  0  0  0  0  0  0  0  0  0  0
    2.1434   -0.4125    0.0000 O   0  0  0  0  0  0  0  0  0  0  0  0
    0.7145   -1.2375    0.0000 O   0  0  0  0  0  0  0  0  0  0  0  0
    1.4289   -2.4750    0.0000 O   0  0  0  0  0  0  0  0  0  0  0  0
    2.8579    0.0000    0.0000 O   0  0  0  0  0  0  0  0  0  0  0  0
    3.5724   -1.2375    0.0000 O   0  0  0  0  0  0  0  0  0  0  0  0
    2.5757    1.6002    0.0000 H   0  0  0  0  0  0  0  0  0  0  0  0
    2.9559   -3.0308    0.0000 H   0  0  0  0  0  0  0  0  0  0  0  0
    3.0421    1.8695    0.0000 H   0  0  0  0  0  0  0  0  0  0  0  0
    3.1401   -3.2502    0.0000 H   0  0  0  0  0  0  0  0  0  0  0  0
    4.2868    1.6500    0.0000 H   0  0  0  0  0  0  0  0  0  0  0  0
    5.0013    0.4125    0.0000 H   0  0  0  0  0  0  0  0  0  0  0  0
    2.8579   -0.8250    0.0000 H   0  0  0  0  0  0  0  0  0  0  0  0
    3.5724   -2.0625    0.0000 H   0  0  0  0  0  0  0  0  0  0  0  0
    1.4289   -0.8250    0.0000 H   0  0  0  0  0  0  0  0  0  0  0  0
    4.2868   -0.8250    0.0000 H   0  0  0  0  0  0  0  0  0  0  0  0
  4  2  1  6  0  0  0
  5  3  1  1  0  0  0
  6  4  1  0  0  0  0
  7  5  1  0  0  0  0
  8  6  1  0  0  0  0
  9  8  1  0  0  0  0
 11  7  1  0  0  0  0
 11 10  1  0  0  0  0
 12 10  1  0  0  0  0
 13  9  1  0  0  0  0
 14  2  1  0  0  0  0
 15  3  1  0  0  0  0
  6 16  1  1  0  0  0
  7 17  1  6  0  0  0
  8 18  1  6  0  0  0
  9 19  1  6  0  0  0
 10 20  1  1  0  0  0
 21  1  1  0  0  0  0
 12 21  1  6  0  0  0
 22  5  1  0  0  0  0
 22 12  1  0  0  0  0
 23  4  1  0  0  0  0
 23 13  1  0  0  0  0
 11 24  1  1  0  0  0
 13 24  1  1  0  0  0
  4 25  1  1  0  0  0
  5 26  1  6  0  0  0
  6 27  1  6  0  0  0
  7 28  1  1  0  0  0
  8 29  1  1  0  0  0
  9 30  1  1  0  0  0
 10 31  1  6  0  0  0
 11 32  1  6  0  0  0
 12 33  1  1  0  0  0
 13 34  1  6  0  0  0
M  END
> <DATABASE_ID>
DB02357

> <DATABASE_NAME>
drugbank

> <SMILES>
[H][C@]1(O)[C@]([H])(O)[C@@]([H])(CO)O[C@]([H])(O[C@@]2([H])[C@]([H])(O)[C@@]([H])(CO)O[C@]([H])(OC)[C@@]2([H])O)[C@@]1([H])O

> <INCHI_IDENTIFIER>
InChI=1S/C13H24O11/c1-21-12-10(20)11(7(17)5(3-15)22-12)24-13-9(19)8(18)6(16)4(2-14)23-13/h4-20H,2-3H2,1H3/t4-,5-,6-,7-,8+,9+,10+,11+,12+,13-/m1/s1

> <INCHI_KEY>
WOKXHOIRHHAHDA-ZEEOCKJESA-N

> <FORMULA>
C13H24O11

> <MOLECULAR_WEIGHT>
356.3231

> <EXACT_MASS>
356.13186161

> <JCHEM_ACCEPTOR_COUNT>
11

> <JCHEM_ATOM_COUNT>
48

> <JCHEM_AVERAGE_NEUTRAL_MICROSPECIES_CHARGE>
-2.0587282893064e-05

> <JCHEM_AVERAGE_POLARIZABILITY>
32.90830792288808

> <JCHEM_BIOAVAILABILITY>
0

> <JCHEM_DONOR_COUNT>
7

> <JCHEM_FORMAL_CHARGE>
0

> <JCHEM_GHOSE_FILTER>
0

> <JCHEM_IUPAC>
(2R,3S,4S,5S,6R)-2-{[(2R,3R,4S,5S,6S)-3,5-dihydroxy-2-(hydroxymethyl)-6-methoxyoxan-4-yl]oxy}-6-(hydroxymethyl)oxane-3,4,5-triol

> <ALOGPS_LOGP>
-2.65

> <JCHEM_LOGP>
-4.060248359999999

> <ALOGPS_LOGS>
0.20

> <JCHEM_MDDR_LIKE_RULE>
0

> <JCHEM_NEUTRAL_CHARGE>
0

> <JCHEM_NUMBER_OF_RINGS>
2

> <JCHEM_PHYSIOLOGICAL_CHARGE>
0

> <JCHEM_PKA>
12.458967607958598

> <JCHEM_PKA_STRONGEST_ACIDIC>
11.940493774612973

> <JCHEM_PKA_STRONGEST_BASIC>
-2.9810835653396

> <JCHEM_POLAR_SURFACE_AREA>
178.52999999999997

> <JCHEM_REFRACTIVITY>
73.0879

> <JCHEM_ROTATABLE_BOND_COUNT>
5

> <JCHEM_RULE_OF_FIVE>
0

> <ALOGPS_SOLUBILITY>
5.70e+02 g/l

> <JCHEM_TRADITIONAL_IUPAC>
biotin

> <JCHEM_VEBER_RULE>
0

> <DRUGBANK_ID>
DB02357

> <SECONDARY_ACCESSION_NUMBERS>
EXPT02145

> <DRUG_GROUPS>
experimental

> <GENERIC_NAME>
Methyl-O3-(Alpha-D-Mannose)-Alpha-D-Mannose

$$$$
