
  Mrv0541 05041403082D          

 16 15  0  0  1  0            999 V2000
    2.2539    0.0000    0.0000 C   0  0  0  0  0  0  0  0  0  0  0  0
    1.5395    0.4125    0.0000 C   0  0  1  0  0  0  0  0  0  0  0  0
    2.9684    0.4125    0.0000 C   0  0  1  0  0  0  0  0  0  0  0  0
    0.8250    0.0000    0.0000 C   0  0  2  0  0  0  0  0  0  0  0  0
    3.6829   -0.0000    0.0000 C   0  0  0  0  0  0  0  0  0  0  0  0
    0.1105    0.4125    0.0000 C   0  0  0  0  0  0  0  0  0  0  0  0
    1.5395    1.2375    0.0000 O   0  0  0  0  0  0  0  0  0  0  0  0
    2.9684    1.2375    0.0000 O   0  0  0  0  0  0  0  0  0  0  0  0
    0.8250   -0.8250    0.0000 O   0  0  0  0  0  0  0  0  0  0  0  0
    4.3974    0.4125    0.0000 O   0  0  0  0  0  0  0  0  0  0  0  0
    3.6829   -0.8250    0.0000 O   0  5  0  0  0  0  0  0  0  0  0  0
   -0.6039    0.0000    0.0000 O   0  0  0  0  0  0  0  0  0  0  0  0
    0.1105    1.2375    0.0000 O   0  5  0  0  0  0  0  0  0  0  0  0
    1.5395   -0.4125    0.0000 H   0  0  0  0  0  0  0  0  0  0  0  0
    2.9684   -0.4125    0.0000 H   0  0  0  0  0  0  0  0  0  0  0  0
    0.8250    0.8250    0.0000 H   0  0  0  0  0  0  0  0  0  0  0  0
  2  1  1  0  0  0  0
  3  1  1  0  0  0  0
  4  2  1  0  0  0  0
  5  3  1  0  0  0  0
  6  4  1  0  0  0  0
  2  7  1  6  0  0  0
  3  8  1  1  0  0  0
  4  9  1  6  0  0  0
 10  5  2  0  0  0  0
 11  5  1  0  0  0  0
 12  6  2  0  0  0  0
 13  6  1  0  0  0  0
  2 14  1  6  0  0  0
  3 15  1  1  0  0  0
  4 16  1  6  0  0  0
M  CHG  2  11  -1  13  -1
M  END
> <DATABASE_ID>
DB03212

> <DATABASE_NAME>
drugbank

> <SMILES>
[H][C@](O)(C[C@]([H])(O)[C@@]([H])(O)C([O-])=O)C([O-])=O

> <INCHI_IDENTIFIER>
InChI=1S/C6H10O7/c7-2(4(9)6(12)13)1-3(8)5(10)11/h2-4,7-9H,1H2,(H,10,11)(H,12,13)/p-2/t2-,3-,4+/m0/s1

> <INCHI_KEY>
WZLURCXZSPTANB-YVZJFKFKSA-L

> <FORMULA>
C6H8O7

> <MOLECULAR_WEIGHT>
192.1235

> <EXACT_MASS>
192.02700261

> <JCHEM_ACCEPTOR_COUNT>
7

> <JCHEM_ATOM_COUNT>
21

> <JCHEM_AVERAGE_NEUTRAL_MICROSPECIES_CHARGE>
-1.9996604608897885

> <JCHEM_AVERAGE_POLARIZABILITY>
15.528061755528732

> <JCHEM_BIOAVAILABILITY>
1

> <JCHEM_DONOR_COUNT>
3

> <JCHEM_FORMAL_CHARGE>
-2

> <JCHEM_GHOSE_FILTER>
0

> <JCHEM_IUPAC>
(2R,3S,5S)-2,3,5-trihydroxyhexanedioate

> <ALOGPS_LOGP>
-1.45

> <JCHEM_LOGP>
-2.3991750916666663

> <ALOGPS_LOGS>
0.39

> <JCHEM_MDDR_LIKE_RULE>
0

> <JCHEM_NEUTRAL_CHARGE>
-2

> <JCHEM_NUMBER_OF_RINGS>
0

> <JCHEM_PHYSIOLOGICAL_CHARGE>
-2

> <JCHEM_PKA>
3.681071367294181

> <JCHEM_PKA_STRONGEST_ACIDIC>
2.9560701212600518

> <JCHEM_PKA_STRONGEST_BASIC>
-3.3049712396842987

> <JCHEM_POLAR_SURFACE_AREA>
140.95

> <JCHEM_REFRACTIVITY>
58.7155

> <JCHEM_ROTATABLE_BOND_COUNT>
5

> <JCHEM_RULE_OF_FIVE>
1

> <ALOGPS_SOLUBILITY>
5.60e+02 g/l

> <JCHEM_TRADITIONAL_IUPAC>
biotin

> <JCHEM_VEBER_RULE>
0

> <DRUGBANK_ID>
DB03212

> <SECONDARY_ACCESSION_NUMBERS>
EXPT01307

> <DRUG_GROUPS>
experimental

> <GENERIC_NAME>
4-Deoxyglucarate

$$$$
