
  Mrv0541 05041413162D          

  8  8  0  0  1  0            999 V2000
    1.4289   -0.0000    0.0000 C   0  0  0  0  0  0  0  0  0  0  0  0
    1.4289    0.8250    0.0000 C   0  0  0  0  0  0  0  0  0  0  0  0
    0.7145   -0.4125    0.0000 C   0  0  0  0  0  0  0  0  0  0  0  0
    0.0000    0.8250    0.0000 C   0  0  0  0  0  0  0  0  0  0  0  0
    0.7145    1.2375    0.0000 C   0  0  2  0  0  0  0  0  0  0  0  0
    0.7145    2.0625    0.0000 N   0  0  0  0  0  0  0  0  0  0  0  0
    0.0000   -0.0000    0.0000 N   0  0  0  0  0  0  0  0  0  0  0  0
    1.4289    1.6500    0.0000 H   0  0  0  0  0  0  0  0  0  0  0  0
  2  1  1  0  0  0  0
  3  1  1  0  0  0  0
  5  2  1  0  0  0  0
  5  4  1  0  0  0  0
  5  6  1  6  0  0  0
  7  3  2  0  0  0  0
  7  4  1  0  0  0  0
  5  8  1  1  0  0  0
M  END
> <DATABASE_ID>
DB04504

> <DATABASE_NAME>
drugbank

> <SMILES>
[H][C@@]1(N)CCC=NC1

> <INCHI_IDENTIFIER>
InChI=1S/C5H10N2/c6-5-2-1-3-7-4-5/h3,5H,1-2,4,6H2/t5-/m1/s1

> <INCHI_KEY>
SEECZTVWJNGUEJ-RXMQYKEDSA-N

> <FORMULA>
C5H10N2

> <MOLECULAR_WEIGHT>
98.1463

> <EXACT_MASS>
98.08439833

> <JCHEM_ACCEPTOR_COUNT>
2

> <JCHEM_ATOM_COUNT>
17

> <JCHEM_AVERAGE_NEUTRAL_MICROSPECIES_CHARGE>
1.588351194209651

> <JCHEM_AVERAGE_POLARIZABILITY>
10.97015753968048

> <JCHEM_BIOAVAILABILITY>
1

> <JCHEM_DONOR_COUNT>
1

> <JCHEM_FORMAL_CHARGE>
0

> <JCHEM_GHOSE_FILTER>
0

> <JCHEM_IUPAC>
(3R)-2,3,4,5-tetrahydropyridin-3-amine

> <ALOGPS_LOGP>
-0.25

> <JCHEM_LOGP>
-0.6558381623333335

> <ALOGPS_LOGS>
-0.82

> <JCHEM_MDDR_LIKE_RULE>
0

> <JCHEM_NEUTRAL_CHARGE>
2

> <JCHEM_NUMBER_OF_RINGS>
1

> <JCHEM_PHYSIOLOGICAL_CHARGE>
2

> <JCHEM_PKA_STRONGEST_BASIC>
9.71422934765533

> <JCHEM_POLAR_SURFACE_AREA>
38.379999999999995

> <JCHEM_REFRACTIVITY>
29.1874

> <JCHEM_ROTATABLE_BOND_COUNT>
0

> <JCHEM_RULE_OF_FIVE>
1

> <ALOGPS_SOLUBILITY>
1.48e+01 g/l

> <JCHEM_TRADITIONAL_IUPAC>
tetrahydrofolic acid

> <JCHEM_VEBER_RULE>
1

> <DRUGBANK_ID>
DB04504

> <SECONDARY_ACCESSION_NUMBERS>
EXPT03253

> <DRUG_GROUPS>
experimental

> <GENERIC_NAME>
(3s)-2,3,4,5-Tetrahydropyridin-3-Amine

$$$$
