
  Mrv0541 05041402182D          

 39 41  0  0  1  0            999 V2000
    4.6356    9.9587    0.0000 C   0  0  0  0  0  0  0  0  0  0  0  0
    2.4752    7.4641    0.0000 C   0  0  0  0  0  0  0  0  0  0  0  0
    5.4457    9.8028    0.0000 C   0  0  0  0  0  0  0  0  0  0  0  0
    2.7453    6.6846    0.0000 C   0  0  0  0  0  0  0  0  0  0  0  0
    4.0955    9.3351    0.0000 C   0  0  0  0  0  0  0  0  0  0  0  0
    3.0153    8.0878    0.0000 C   0  0  0  0  0  0  0  0  0  0  0  0
    5.7158    9.0232    0.0000 C   0  0  0  0  0  0  0  0  0  0  0  0
    3.5554    6.5287    0.0000 C   0  0  0  0  0  0  0  0  0  0  0  0
    8.4162    3.4105    0.0000 C   0  0  0  0  0  0  0  0  0  0  0  0
    8.1462    4.1900    0.0000 C   0  0  0  0  0  0  0  0  0  0  0  0
    5.4457    3.2546    0.0000 C   0  0  0  0  0  0  0  0  0  0  0  0
    5.9858    6.0609    0.0000 C   0  0  0  0  0  0  0  0  0  0  0  0
    4.3655    8.5555    0.0000 C   0  0  0  0  0  0  0  0  0  0  0  0
    3.8255    7.9319    0.0000 C   0  0  0  0  0  0  0  0  0  0  0  0
    5.1757    8.3996    0.0000 C   0  0  0  0  0  0  0  0  0  0  0  0
    4.0955    7.1523    0.0000 C   0  0  0  0  0  0  0  0  0  0  0  0
    9.2263    3.2546    0.0000 C   0  0  1  0  0  0  0  0  0  0  0  0
    6.2559    5.2814    0.0000 C   0  0  1  0  0  0  0  0  0  0  0  0
    7.3360    4.3459    0.0000 C   0  0  0  0  0  0  0  0  0  0  0  0
    5.7158    2.4750    0.0000 C   0  0  0  0  0  0  0  0  0  0  0  0
    5.4457    7.6200    0.0000 C   0  0  2  0  0  0  0  0  0  0  0  0
    4.9056    6.9964    0.0000 C   0  0  2  0  0  0  0  0  0  0  0  0
    5.7158    4.6577    0.0000 C   0  0  0  0  0  0  0  0  0  0  0  0
    9.4964    2.4750    0.0000 C   0  0  0  0  0  0  0  0  0  0  0  0
    9.7664    3.8782    0.0000 N   0  0  0  0  0  0  0  0  0  0  0  0
    5.9858    3.8782    0.0000 N   0  0  0  0  0  0  0  0  0  0  0  0
    7.0660    5.1255    0.0000 N   0  0  0  0  0  0  0  0  0  0  0  0
    6.7959    3.7223    0.0000 O   0  0  0  0  0  0  0  0  0  0  0  0
    6.5259    2.3191    0.0000 O   0  0  0  0  0  0  0  0  0  0  0  0
    5.1757    1.8514    0.0000 O   0  0  0  0  0  0  0  0  0  0  0  0
    6.2559    7.4641    0.0000 O   0  0  0  0  0  0  0  0  0  0  0  0
    4.9056    4.8137    0.0000 O   0  0  0  0  0  0  0  0  0  0  0  0
   10.3065    2.3191    0.0000 O   0  0  0  0  0  0  0  0  0  0  0  0
    8.9563    1.8514    0.0000 O   0  0  0  0  0  0  0  0  0  0  0  0
    5.1757    6.2168    0.0000 S   0  0  0  0  0  0  0  0  0  0  0  0
    8.6863    2.6309    0.0000 H   0  0  0  0  0  0  0  0  0  0  0  0
    5.4457    5.4373    0.0000 H   0  0  0  0  0  0  0  0  0  0  0  0
    5.9858    8.2437    0.0000 H   0  0  0  0  0  0  0  0  0  0  0  0
    4.3655    6.3728    0.0000 H   0  0  0  0  0  0  0  0  0  0  0  0
  3  1  2  0  0  0  0
  4  2  2  0  0  0  0
  5  1  1  0  0  0  0
  6  2  1  0  0  0  0
  7  3  1  0  0  0  0
  8  4  1  0  0  0  0
 10  9  1  0  0  0  0
 13  5  2  0  0  0  0
 14  6  2  0  0  0  0
 14 13  1  0  0  0  0
 15  7  2  0  0  0  0
 15 13  1  0  0  0  0
 16  8  2  0  0  0  0
 16 14  1  0  0  0  0
 17  9  1  0  0  0  0
 18 12  1  0  0  0  0
 19 10  1  0  0  0  0
 20 11  1  0  0  0  0
 21 15  1  0  0  0  0
 22 16  1  0  0  0  0
 22 21  1  0  0  0  0
 23 18  1  0  0  0  0
 24 17  1  0  0  0  0
 17 25  1  1  0  0  0
 26 11  1  0  0  0  0
 26 23  1  0  0  0  0
 18 27  1  1  0  0  0
 27 19  1  0  0  0  0
 28 19  2  0  0  0  0
 29 20  1  0  0  0  0
 30 20  2  0  0  0  0
 21 31  1  1  0  0  0
 32 23  2  0  0  0  0
 33 24  1  0  0  0  0
 34 24  2  0  0  0  0
 35 12  1  0  0  0  0
 22 35  1  6  0  0  0
 17 36  1  1  0  0  0
 18 37  1  1  0  0  0
 21 38  1  6  0  0  0
 22 39  1  1  0  0  0
M  END
> <DATABASE_ID>
DB01834

> <DATABASE_NAME>
drugbank

> <SMILES>
[H][C@](N)(CCC(=O)N[C@@]([H])(CS[C@]1([H])C2=CC=CC=C2C2=CC=CC=C2[C@@]1([H])O)C(=O)NCC(O)=O)C(O)=O

> <INCHI_IDENTIFIER>
InChI=1S/C24H27N3O7S/c25-17(24(33)34)9-10-19(28)27-18(23(32)26-11-20(29)30)12-35-22-16-8-4-2-6-14(16)13-5-1-3-7-15(13)21(22)31/h1-8,17-18,21-22,31H,9-12,25H2,(H,26,32)(H,27,28)(H,29,30)(H,33,34)/t17-,18-,21+,22+/m0/s1

> <INCHI_KEY>
JNNIZILNBMPOAC-MOXQZVSFSA-N

> <FORMULA>
C24H27N3O7S

> <MOLECULAR_WEIGHT>
501.552

> <EXACT_MASS>
501.156970923

> <JCHEM_ACCEPTOR_COUNT>
8

> <JCHEM_ATOM_COUNT>
62

> <JCHEM_AVERAGE_NEUTRAL_MICROSPECIES_CHARGE>
-1.0044718188310553

> <JCHEM_AVERAGE_POLARIZABILITY>
50.24819677077046

> <JCHEM_BIOAVAILABILITY>
0

> <JCHEM_DONOR_COUNT>
6

> <JCHEM_FORMAL_CHARGE>
0

> <JCHEM_GHOSE_FILTER>
0

> <JCHEM_IUPAC>
(2S)-2-amino-4-{[(1R)-1-[(carboxymethyl)carbamoyl]-2-{[(9R,10R)-10-hydroxy-9,10-dihydrophenanthren-9-yl]sulfanyl}ethyl]carbamoyl}butanoic acid

> <ALOGPS_LOGP>
-1.31

> <JCHEM_LOGP>
-2.249934472363233

> <ALOGPS_LOGS>
-4.21

> <JCHEM_MDDR_LIKE_RULE>
1

> <JCHEM_NEUTRAL_CHARGE>
-1

> <JCHEM_NUMBER_OF_RINGS>
3

> <JCHEM_PHYSIOLOGICAL_CHARGE>
-1

> <JCHEM_PKA>
3.588410475837236

> <JCHEM_PKA_STRONGEST_ACIDIC>
1.8012398056232084

> <JCHEM_PKA_STRONGEST_BASIC>
9.311645015204263

> <JCHEM_POLAR_SURFACE_AREA>
179.05

> <JCHEM_REFRACTIVITY>
127.87739999999994

> <JCHEM_ROTATABLE_BOND_COUNT>
11

> <JCHEM_RULE_OF_FIVE>
0

> <ALOGPS_SOLUBILITY>
3.10e-02 g/l

> <JCHEM_TRADITIONAL_IUPAC>
tetrahydrofolic acid

> <JCHEM_VEBER_RULE>
0

> <DRUGBANK_ID>
DB01834

> <SECONDARY_ACCESSION_NUMBERS>
EXPT01641

> <DRUG_GROUPS>
experimental

> <GENERIC_NAME>
(9R,10R)-9-(S-glutathionyl)-10-hydroxy-9,10-dihydrophenanthrene

$$$$
