
  Mrv0541 05041407262D          

 15 15  0  0  1  0            999 V2000
    1.4289    0.8250    0.0000 C   0  0  0  0  0  0  0  0  0  0  0  0
    0.7145    1.2375    0.0000 C   0  0  1  0  0  0  0  0  0  0  0  0
    1.4289   -0.0000    0.0000 C   0  0  0  0  0  0  0  0  0  0  0  0
    0.0000    0.8250    0.0000 C   0  0  1  0  0  0  0  0  0  0  0  0
    2.1434   -0.4125    0.0000 C   0  0  0  0  0  0  0  0  0  0  0  0
    0.0000    0.0000    0.0000 C   0  0  2  0  0  0  0  0  0  0  0  0
    0.7145    2.0625    0.0000 O   0  0  0  0  0  0  0  0  0  0  0  0
   -0.7145    1.2375    0.0000 O   0  0  0  0  0  0  0  0  0  0  0  0
    2.8579   -0.0000    0.0000 O   0  0  0  0  0  0  0  0  0  0  0  0
    2.1434   -1.2375    0.0000 O   0  0  0  0  0  0  0  0  0  0  0  0
   -0.7145   -0.4125    0.0000 O   0  0  0  0  0  0  0  0  0  0  0  0
    0.7145   -0.4125    0.0000 O   0  0  0  0  0  0  0  0  0  0  0  0
    1.4289    1.6500    0.0000 H   0  0  0  0  0  0  0  0  0  0  0  0
    0.0000    1.6500    0.0000 H   0  0  0  0  0  0  0  0  0  0  0  0
   -0.7145    0.4125    0.0000 H   0  0  0  0  0  0  0  0  0  0  0  0
  2  1  1  0  0  0  0
  3  1  2  0  0  0  0
  4  2  1  0  0  0  0
  5  3  1  0  0  0  0
  6  4  1  0  0  0  0
  2  7  1  1  0  0  0
  4  8  1  1  0  0  0
  9  5  2  0  0  0  0
 10  5  1  0  0  0  0
  6 11  1  1  0  0  0
 12  3  1  0  0  0  0
 12  6  1  0  0  0  0
  2 13  1  6  0  0  0
  4 14  1  6  0  0  0
  6 15  1  6  0  0  0
M  END
> <DATABASE_ID>
DB02734

> <DATABASE_NAME>
drugbank

> <SMILES>
[H][C@@]1(O)OC(=C[C@]([H])(O)[C@]1([H])O)C(O)=O

> <INCHI_IDENTIFIER>
InChI=1S/C6H8O6/c7-2-1-3(5(9)10)12-6(11)4(2)8/h1-2,4,6-8,11H,(H,9,10)/t2-,4-,6+/m0/s1

> <INCHI_KEY>
IAKKJSVSFCTLRY-NVFHJIOMSA-N

> <FORMULA>
C6H8O6

> <MOLECULAR_WEIGHT>
176.1241

> <EXACT_MASS>
176.032087988

> <JCHEM_ACCEPTOR_COUNT>
6

> <JCHEM_ATOM_COUNT>
20

> <JCHEM_AVERAGE_NEUTRAL_MICROSPECIES_CHARGE>
-0.9999471775028841

> <JCHEM_AVERAGE_POLARIZABILITY>
14.764095226753977

> <JCHEM_BIOAVAILABILITY>
1

> <JCHEM_DONOR_COUNT>
4

> <JCHEM_FORMAL_CHARGE>
0

> <JCHEM_GHOSE_FILTER>
0

> <JCHEM_IUPAC>
(2R,3S,4S)-2,3,4-trihydroxy-3,4-dihydro-2H-pyran-6-carboxylic acid

> <ALOGPS_LOGP>
-1.67

> <JCHEM_LOGP>
-1.8733359183333338

> <ALOGPS_LOGS>
0.07

> <JCHEM_MDDR_LIKE_RULE>
0

> <JCHEM_NEUTRAL_CHARGE>
-1

> <JCHEM_NUMBER_OF_RINGS>
1

> <JCHEM_PHYSIOLOGICAL_CHARGE>
-1

> <JCHEM_PKA>
11.261990851418723

> <JCHEM_PKA_STRONGEST_ACIDIC>
3.10443318707626

> <JCHEM_PKA_STRONGEST_BASIC>
-3.4543177068355377

> <JCHEM_POLAR_SURFACE_AREA>
107.22000000000001

> <JCHEM_REFRACTIVITY>
36.1518

> <JCHEM_ROTATABLE_BOND_COUNT>
1

> <JCHEM_RULE_OF_FIVE>
1

> <ALOGPS_SOLUBILITY>
2.08e+02 g/l

> <JCHEM_TRADITIONAL_IUPAC>
biotin

> <JCHEM_VEBER_RULE>
0

> <DRUGBANK_ID>
DB02734

> <SECONDARY_ACCESSION_NUMBERS>
EXPT02117

> <DRUG_GROUPS>
experimental

> <GENERIC_NAME>
4-Deoxy-D-Mannuronic Acid

$$$$
