
  Mrv0541 02231217102D          

  9  8  0  0  1  0            999 V2000
    4.6184    2.6664    0.0000 N   0  3  0  0  0  0  0  0  0  0  0  0
    4.6184    1.8414    0.0000 C   0  0  1  0  0  0  0  0  0  0  0  0
    3.9039    1.4289    0.0000 C   0  0  0  0  0  0  0  0  0  0  0  0
    3.1895    1.8414    0.0000 C   0  0  0  0  0  0  0  0  0  0  0  0
    2.4750    1.4289    0.0000 C   0  0  0  0  0  0  0  0  0  0  0  0
    1.7605    1.8414    0.0000 O   0  0  0  0  0  0  0  0  0  0  0  0
    5.3329    1.4289    0.0000 C   0  0  0  0  0  0  0  0  0  0  0  0
    6.0474    1.8414    0.0000 O   0  0  0  0  0  0  0  0  0  0  0  0
    5.3329    0.6039    0.0000 O   0  0  0  0  0  0  0  0  0  0  0  0
  2  1  1  6  0  0  0
  2  3  1  0  0  0  0
  3  4  1  0  0  0  0
  4  5  1  0  0  0  0
  5  6  2  0  0  0  0
  2  7  1  0  0  0  0
  7  8  1  0  0  0  0
  7  9  2  0  0  0  0
M  CHG  1   1   1
M  END
> <DATABASE_ID>
DB03774

> <DATABASE_NAME>
drugbank

> <SMILES>
[NH3+][C@@H](CCC=O)C(O)=O

> <INCHI_IDENTIFIER>
InChI=1S/C5H9NO3/c6-4(5(8)9)2-1-3-7/h3-4H,1-2,6H2,(H,8,9)/p+1/t4-/m0/s1

> <INCHI_KEY>
KABXUUFDPUOJMW-BYPYZUCNSA-O

> <FORMULA>
C5H10NO3

> <MOLECULAR_WEIGHT>
132.1378

> <EXACT_MASS>
132.066068191

> <JCHEM_ACCEPTOR_COUNT>
3

> <JCHEM_ATOM_COUNT>
19

> <JCHEM_AVERAGE_NEUTRAL_MICROSPECIES_CHARGE>
-0.007619887491369326

> <JCHEM_AVERAGE_POLARIZABILITY>
12.870119050278625

> <JCHEM_BIOAVAILABILITY>
1

> <JCHEM_DONOR_COUNT>
2

> <JCHEM_FORMAL_CHARGE>
1

> <JCHEM_GHOSE_FILTER>
0

> <JCHEM_IUPAC>
(1S)-1-carboxy-4-oxobutan-1-aminium

> <ALOGPS_LOGP>
-1.15

> <JCHEM_LOGP>
-3.3526724660638783

> <ALOGPS_LOGS>
-0.85

> <JCHEM_MDDR_LIKE_RULE>
0

> <JCHEM_NEUTRAL_CHARGE>
0

> <JCHEM_NUMBER_OF_RINGS>
0

> <JCHEM_PHYSIOLOGICAL_CHARGE>
0

> <JCHEM_PKA>
17.236781654650766

> <JCHEM_PKA_STRONGEST_ACIDIC>
2.1217414025388672

> <JCHEM_PKA_STRONGEST_BASIC>
9.113974151678242

> <JCHEM_POLAR_SURFACE_AREA>
82.00999999999999

> <JCHEM_REFRACTIVITY>
41.655100000000004

> <JCHEM_ROTATABLE_BOND_COUNT>
4

> <JCHEM_RULE_OF_FIVE>
1

> <ALOGPS_SOLUBILITY>
2.37e+01 g/l

> <JCHEM_TRADITIONAL_IUPAC>
biotin

> <JCHEM_VEBER_RULE>
0

> <DRUGBANK_ID>
DB03774

> <SECONDARY_ACCESSION_NUMBERS>
EXPT01861

> <DRUG_GROUPS>
experimental

> <GENERIC_NAME>
Glutamyl Group

$$$$
