
  Mrv0541 05041405382D          

 38 38  0  0  1  0            999 V2000
    1.4289    0.8250    0.0000 C   0  0  1  0  0  0  0  0  0  0  0  0
    0.7145    1.2375    0.0000 C   0  0  1  0  0  0  0  0  0  0  0  0
    1.4289   -0.0000    0.0000 C   0  0  1  0  0  0  0  0  0  0  0  0
    0.0000    0.8250    0.0000 C   0  0  2  0  0  0  0  0  0  0  0  0
    0.7145   -0.4125    0.0000 C   0  0  2  0  0  0  0  0  0  0  0  0
    0.0000    0.0000    0.0000 C   0  0  2  0  0  0  0  0  0  0  0  0
    2.1434    1.2375    0.0000 O   0  0  0  0  0  0  0  0  0  0  0  0
    2.1434    2.8875    0.0000 O   0  0  0  0  0  0  0  0  0  0  0  0
    1.0164    3.1895    0.0000 O   0  0  0  0  0  0  0  0  0  0  0  0
    1.8414    1.7605    0.0000 O   0  0  0  0  0  0  0  0  0  0  0  0
    3.2704   -0.7145    0.0000 O   0  0  0  0  0  0  0  0  0  0  0  0
    2.4454    0.7145    0.0000 O   0  0  0  0  0  0  0  0  0  0  0  0
    3.5724    0.4125    0.0000 O   0  0  0  0  0  0  0  0  0  0  0  0
    0.1105    2.0625    0.0000 O   0  0  0  0  0  0  0  0  0  0  0  0
   -1.5395    2.0625    0.0000 O   0  0  0  0  0  0  0  0  0  0  0  0
   -0.7145    2.8875    0.0000 O   0  0  0  0  0  0  0  0  0  0  0  0
    2.1434   -2.0625    0.0000 O   0  0  0  0  0  0  0  0  0  0  0  0
    1.0164   -2.3645    0.0000 O   0  0  0  0  0  0  0  0  0  0  0  0
    1.8414   -0.9355    0.0000 O   0  0  0  0  0  0  0  0  0  0  0  0
   -2.1434    0.4125    0.0000 O   0  0  0  0  0  0  0  0  0  0  0  0
   -1.0164    0.7145    0.0000 O   0  0  0  0  0  0  0  0  0  0  0  0
   -1.8414   -0.7145    0.0000 O   0  0  0  0  0  0  0  0  0  0  0  0
    0.7145    2.0625    0.0000 O   0  0  0  0  0  0  0  0  0  0  0  0
    2.1434   -0.4125    0.0000 O   0  0  0  0  0  0  0  0  0  0  0  0
   -0.7145    1.2375    0.0000 O   0  0  0  0  0  0  0  0  0  0  0  0
    0.7145   -1.2375    0.0000 O   0  0  0  0  0  0  0  0  0  0  0  0
   -0.7145   -0.4125    0.0000 O   0  0  0  0  0  0  0  0  0  0  0  0
    1.4289    2.4750    0.0000 P   0  0  0  0  0  0  0  0  0  0  0  0
    2.8579   -0.0000    0.0000 P   0  0  0  0  0  0  0  0  0  0  0  0
   -0.7145    2.0625    0.0000 P   0  0  0  0  0  0  0  0  0  0  0  0
    1.4289   -1.6500    0.0000 P   0  0  0  0  0  0  0  0  0  0  0  0
   -1.4289    0.0000    0.0000 P   0  0  0  0  0  0  0  0  0  0  0  0
    1.1468    1.6002    0.0000 H   0  0  0  0  0  0  0  0  0  0  0  0
    1.2448    1.8695    0.0000 H   0  0  0  0  0  0  0  0  0  0  0  0
    2.1434    0.4125    0.0000 H   0  0  0  0  0  0  0  0  0  0  0  0
    0.0000    1.6500    0.0000 H   0  0  0  0  0  0  0  0  0  0  0  0
    1.4289   -0.8250    0.0000 H   0  0  0  0  0  0  0  0  0  0  0  0
   -0.7145    0.4125    0.0000 H   0  0  0  0  0  0  0  0  0  0  0  0
  2  1  1  0  0  0  0
  3  1  1  0  0  0  0
  4  2  1  0  0  0  0
  5  3  1  0  0  0  0
  6  4  1  0  0  0  0
  6  5  1  0  0  0  0
  1  7  1  6  0  0  0
  2 23  1  1  0  0  0
  3 24  1  6  0  0  0
  4 25  1  6  0  0  0
  5 26  1  1  0  0  0
  6 27  1  6  0  0  0
 28  8  1  0  0  0  0
 28  9  1  0  0  0  0
 28 10  2  0  0  0  0
 28 23  1  0  0  0  0
 29 11  1  0  0  0  0
 29 12  1  0  0  0  0
 29 13  2  0  0  0  0
 29 24  1  0  0  0  0
 30 14  1  0  0  0  0
 30 15  1  0  0  0  0
 30 16  2  0  0  0  0
 30 25  1  0  0  0  0
 31 17  1  0  0  0  0
 31 18  1  0  0  0  0
 31 19  2  0  0  0  0
 31 26  1  0  0  0  0
 32 20  1  0  0  0  0
 32 21  1  0  0  0  0
 32 22  2  0  0  0  0
 32 27  1  0  0  0  0
  1 33  1  1  0  0  0
  2 34  1  6  0  0  0
  3 35  1  1  0  0  0
  4 36  1  1  0  0  0
  5 37  1  6  0  0  0
  6 38  1  1  0  0  0
M  END
> <DATABASE_ID>
DB03344

> <DATABASE_NAME>
drugbank

> <SMILES>
[H][C@]1(O)[C@]([H])(OP(O)(O)=O)[C@@]([H])(OP(O)(O)=O)[C@@]([H])(OP(O)(O)=O)[C@]([H])(OP(O)(O)=O)[C@@]1([H])OP(O)(O)=O

> <INCHI_IDENTIFIER>
InChI=1S/C6H17O21P5/c7-1-2(23-28(8,9)10)4(25-30(14,15)16)6(27-32(20,21)22)5(26-31(17,18)19)3(1)24-29(11,12)13/h1-7H,(H2,8,9,10)(H2,11,12,13)(H2,14,15,16)(H2,17,18,19)(H2,20,21,22)/t1-,2-,3-,4+,5+,6+/m0/s1

> <INCHI_KEY>
CTPQAXVNYGZUAJ-ADOSBGCESA-N

> <FORMULA>
C6H17O21P5

> <MOLECULAR_WEIGHT>
580.0554

> <EXACT_MASS>
579.895040166

> <JCHEM_ACCEPTOR_COUNT>
16

> <JCHEM_ATOM_COUNT>
49

> <JCHEM_AVERAGE_NEUTRAL_MICROSPECIES_CHARGE>
-9.848428621767926

> <JCHEM_AVERAGE_POLARIZABILITY>
38.162023944499765

> <JCHEM_BIOAVAILABILITY>
0

> <JCHEM_DONOR_COUNT>
11

> <JCHEM_FORMAL_CHARGE>
0

> <JCHEM_GHOSE_FILTER>
0

> <JCHEM_IUPAC>
{[(1S,2R,3S,4R,5S,6R)-2-hydroxy-3,4,5,6-tetrakis(phosphonooxy)cyclohexyl]oxy}phosphonic acid

> <ALOGPS_LOGP>
-0.14

> <JCHEM_LOGP>
-4.399839808666667

> <ALOGPS_LOGS>
-1.64

> <JCHEM_MDDR_LIKE_RULE>
0

> <JCHEM_NEUTRAL_CHARGE>
-10

> <JCHEM_NUMBER_OF_RINGS>
1

> <JCHEM_PHYSIOLOGICAL_CHARGE>
-10

> <JCHEM_PKA>
0.6363247192687776

> <JCHEM_PKA_STRONGEST_ACIDIC>
0.1881270613850377

> <JCHEM_POLAR_SURFACE_AREA>
354.03000000000003

> <JCHEM_REFRACTIVITY>
90.13949999999997

> <JCHEM_ROTATABLE_BOND_COUNT>
10

> <JCHEM_RULE_OF_FIVE>
0

> <ALOGPS_SOLUBILITY>
1.34e+01 g/l

> <JCHEM_TRADITIONAL_IUPAC>
tetrahydrofolic acid

> <JCHEM_VEBER_RULE>
0

> <DRUGBANK_ID>
DB03344

> <SECONDARY_ACCESSION_NUMBERS>
EXPT01818

> <DRUG_GROUPS>
experimental

> <GENERIC_NAME>
Inositol-(1,3,4,5,6)-Pentakisphosphate

$$$$
