
  Mrv0541 02231216452D          

  7  6  0  0  0  0            999 V2000
    2.8875   -0.7145    0.0000 O   0  0  0  0  0  0  0  0  0  0  0  0
    2.0625   -0.7145    0.0000 P   0  0  0  0  0  0  0  0  0  0  0  0
    2.0625    0.1105    0.0000 O   0  0  0  0  0  0  0  0  0  0  0  0
    2.0625   -1.5395    0.0000 O   0  0  0  0  0  0  0  0  0  0  0  0
    1.2375   -0.7145    0.0000 C   0  0  0  0  0  0  0  0  0  0  0  0
    0.8250    0.0000    0.0000 C   0  0  0  0  0  0  0  0  0  0  0  0
    0.0000    0.0000    0.0000 O   0  0  0  0  0  0  0  0  0  0  0  0
  1  2  1  0  0  0  0
  2  3  1  0  0  0  0
  2  4  2  0  0  0  0
  2  5  1  0  0  0  0
  5  6  1  0  0  0  0
  6  7  2  0  0  0  0
M  END
> <DATABASE_ID>
DB03174

> <DATABASE_NAME>
drugbank

> <SMILES>
OP(O)(=O)CC=O

> <INCHI_IDENTIFIER>
InChI=1S/C2H5O4P/c3-1-2-7(4,5)6/h1H,2H2,(H2,4,5,6)

> <INCHI_KEY>
YEMKIGUKNDOZEG-UHFFFAOYSA-N

> <FORMULA>
C2H5O4P

> <MOLECULAR_WEIGHT>
124.0325

> <EXACT_MASS>
123.99254516

> <JCHEM_ACCEPTOR_COUNT>
4

> <JCHEM_ATOM_COUNT>
12

> <JCHEM_AVERAGE_NEUTRAL_MICROSPECIES_CHARGE>
-1.1141124616634157

> <JCHEM_AVERAGE_POLARIZABILITY>
8.748391812249181

> <JCHEM_BIOAVAILABILITY>
1

> <JCHEM_DONOR_COUNT>
2

> <JCHEM_FORMAL_CHARGE>
0

> <JCHEM_GHOSE_FILTER>
0

> <JCHEM_IUPAC>
(2-oxoethyl)phosphonic acid

> <ALOGPS_LOGP>
-1.10

> <JCHEM_LOGP>
-1.8696854596666668

> <ALOGPS_LOGS>
-0.73

> <JCHEM_MDDR_LIKE_RULE>
0

> <JCHEM_NEUTRAL_CHARGE>
-1

> <JCHEM_NUMBER_OF_RINGS>
0

> <JCHEM_PHYSIOLOGICAL_CHARGE>
-1

> <JCHEM_PKA>
8.191054551722203

> <JCHEM_PKA_STRONGEST_ACIDIC>
1.6883643188825028

> <JCHEM_PKA_STRONGEST_BASIC>
-7.255448610798288

> <JCHEM_POLAR_SURFACE_AREA>
74.6

> <JCHEM_REFRACTIVITY>
22.7086

> <JCHEM_ROTATABLE_BOND_COUNT>
2

> <JCHEM_RULE_OF_FIVE>
1

> <ALOGPS_SOLUBILITY>
2.32e+01 g/l

> <JCHEM_TRADITIONAL_IUPAC>
tetrahydrofolic acid

> <JCHEM_VEBER_RULE>
0

> <DRUGBANK_ID>
DB03174

> <SECONDARY_ACCESSION_NUMBERS>
EXPT02628

> <DRUG_GROUPS>
experimental

> <GENERIC_NAME>
Phosphonoacetaldehyde

$$$$
