
  Mrv0541 08271307202D          

 21 20  0  0  0  0            999 V2000
   -4.8395   -2.4454    0.0000 C   0  0  0  0  0  0  0  0  0  0  0  0
    3.7342   -2.4454    0.0000 C   0  0  0  0  0  0  0  0  0  0  0  0
   -1.9816    0.8546    0.0000 C   0  0  0  0  0  0  0  0  0  0  0  0
   -4.1250   -2.8579    0.0000 C   0  0  0  0  0  0  0  0  0  0  0  0
    3.0197   -2.8579    0.0000 C   0  0  0  0  0  0  0  0  0  0  0  0
   -1.9816    0.0296    0.0000 C   0  0  0  0  0  0  0  0  0  0  0  0
   -3.4105   -2.4454    0.0000 C   0  0  0  0  0  0  0  0  0  0  0  0
    2.3052   -2.4454    0.0000 C   0  0  0  0  0  0  0  0  0  0  0  0
   -1.2671   -0.3829    0.0000 C   0  0  0  0  0  0  0  0  0  0  0  0
   -1.2671   -2.8579    0.0000 C   0  0  0  0  0  0  0  0  0  0  0  0
    0.1618   -2.8579    0.0000 C   0  0  0  0  0  0  0  0  0  0  0  0
   -0.5526   -2.4454    0.0000 C   0  0  0  0  0  0  0  0  0  0  0  0
   -2.6961   -2.8579    0.0000 C   0  0  0  0  0  0  0  0  0  0  0  0
    1.5908   -2.8579    0.0000 C   0  0  0  0  0  0  0  0  0  0  0  0
   -1.2671   -1.2079    0.0000 C   0  0  0  0  0  0  0  0  0  0  0  0
   -2.6961   -3.6829    0.0000 O   0  0  0  0  0  0  0  0  0  0  0  0
    1.5908   -3.6829    0.0000 O   0  0  0  0  0  0  0  0  0  0  0  0
   -1.9816   -1.6204    0.0000 O   0  0  0  0  0  0  0  0  0  0  0  0
   -1.9816   -2.4454    0.0000 O   0  0  0  0  0  0  0  0  0  0  0  0
    0.8763   -2.4454    0.0000 O   0  0  0  0  0  0  0  0  0  0  0  0
   -0.5526   -1.6204    0.0000 O   0  0  0  0  0  0  0  0  0  0  0  0
  4  1  1  0  0  0  0
  5  2  1  0  0  0  0
  6  3  1  0  0  0  0
  7  4  1  0  0  0  0
  8  5  1  0  0  0  0
  9  6  1  0  0  0  0
 12 10  1  0  0  0  0
 12 11  1  0  0  0  0
 13  7  1  0  0  0  0
 14  8  1  0  0  0  0
 15  9  1  0  0  0  0
 16 13  2  0  0  0  0
 17 14  2  0  0  0  0
 18 15  2  0  0  0  0
 19 10  1  0  0  0  0
 19 13  1  0  0  0  0
 20 11  1  0  0  0  0
 20 14  1  0  0  0  0
 21 12  1  0  0  0  0
 21 15  1  0  0  0  0
M  END
> <DATABASE_ID>
DB12709

> <DATABASE_NAME>
drugbank

> <SMILES>
CCCC(=O)OCC(COC(=O)CCC)OC(=O)CCC

> <INCHI_IDENTIFIER>
InChI=1S/C15H26O6/c1-4-7-13(16)19-10-12(21-15(18)9-6-3)11-20-14(17)8-5-2/h12H,4-11H2,1-3H3

> <INCHI_KEY>
UYXTWWCETRIEDR-UHFFFAOYSA-N

> <FORMULA>
C15H26O6

> <MOLECULAR_WEIGHT>
302.3633

> <EXACT_MASS>
302.172938564

> <JCHEM_ACCEPTOR_COUNT>
3

> <JCHEM_ATOM_COUNT>
47

> <JCHEM_AVERAGE_NEUTRAL_MICROSPECIES_CHARGE>
0.0

> <JCHEM_AVERAGE_POLARIZABILITY>
32.967612632123036

> <JCHEM_BIOAVAILABILITY>
1

> <JCHEM_DONOR_COUNT>
0

> <JCHEM_FORMAL_CHARGE>
0

> <JCHEM_GHOSE_FILTER>
1

> <JCHEM_IUPAC>
1,3-bis(butanoyloxy)propan-2-yl butanoate

> <ALOGPS_LOGP>
2.71

> <JCHEM_LOGP>
2.9196757443333334

> <ALOGPS_LOGS>
-2.98

> <JCHEM_MDDR_LIKE_RULE>
0

> <JCHEM_NEUTRAL_CHARGE>
0

> <JCHEM_NUMBER_OF_RINGS>
0

> <JCHEM_PHYSIOLOGICAL_CHARGE>
0

> <JCHEM_PKA_STRONGEST_BASIC>
-6.565759760414948

> <JCHEM_POLAR_SURFACE_AREA>
78.9

> <JCHEM_REFRACTIVITY>
75.65429999999999

> <JCHEM_ROTATABLE_BOND_COUNT>
14

> <JCHEM_RULE_OF_FIVE>
1

> <ALOGPS_SOLUBILITY>
3.17e-01 g/l

> <JCHEM_TRADITIONAL_IUPAC>
tetrahydrofolic acid

> <JCHEM_VEBER_RULE>
0

> <DRUGBANK_ID>
DB12709

> <DRUG_GROUPS>
investigational

> <GENERIC_NAME>
Tributyrin

$$$$
