
  Mrv0541 02231218002D          

 23 25  0  0  1  0            999 V2000
    4.5079    0.8107    0.0000 O   0  0  0  0  0  0  0  0  0  0  0  0
    2.3644   -0.4268    0.0000 N   0  0  0  0  0  0  0  0  0  0  0  0
    3.0790   -0.8393    0.0000 C   0  0  1  0  0  0  0  0  0  0  0  0
    3.7934   -0.4268    0.0000 C   0  0  0  0  0  0  0  0  0  0  0  0
    3.0790   -1.6643    0.0000 C   0  0  0  0  0  0  0  0  0  0  0  0
    3.7934    0.3982    0.0000 C   0  0  0  0  0  0  0  0  0  0  0  0
    1.6500   -0.8393    0.0000 C   0  0  0  0  0  0  0  0  0  0  0  0
    2.3644    0.3982    0.0000 C   0  0  0  0  0  0  0  0  0  0  0  0
    3.7934   -2.0768    0.0000 C   0  0  0  0  0  0  0  0  0  0  0  0
    2.3644   -2.0768    0.0000 C   0  0  0  0  0  0  0  0  0  0  0  0
    4.5079    1.6357    0.0000 C   0  0  0  0  0  0  0  0  0  0  0  0
    5.2223    2.0482    0.0000 C   0  0  0  0  0  0  0  0  0  0  0  0
    3.7934   -2.9018    0.0000 C   0  0  0  0  0  0  0  0  0  0  0  0
    2.3644   -2.9018    0.0000 C   0  0  0  0  0  0  0  0  0  0  0  0
    5.2223    2.8732    0.0000 C   0  0  0  0  0  0  0  0  0  0  0  0
    3.0790   -3.3143    0.0000 C   0  0  0  0  0  0  0  0  0  0  0  0
    3.7934    2.0482    0.0000 C   0  0  0  0  0  0  0  0  0  0  0  0
    5.9599    1.6071    0.0000 C   0  0  0  0  0  0  0  0  0  0  0  0
    4.5079    3.2857    0.0000 C   0  0  0  0  0  0  0  0  0  0  0  0
    3.7934    2.8732    0.0000 C   0  0  0  0  0  0  0  0  0  0  0  0
    5.9599    3.3143    0.0000 C   0  0  0  0  0  0  0  0  0  0  0  0
    6.7073    2.0311    0.0000 C   0  0  0  0  0  0  0  0  0  0  0  0
    6.7073    2.8904    0.0000 C   0  0  0  0  0  0  0  0  0  0  0  0
  1  6  1  0  0  0  0
  1 11  1  0  0  0  0
  3  2  1  1  0  0  0
  2  7  1  0  0  0  0
  2  8  1  0  0  0  0
  3  4  1  0  0  0  0
  3  5  1  0  0  0  0
  4  6  1  0  0  0  0
  5  9  2  0  0  0  0
  5 10  1  0  0  0  0
  9 13  1  0  0  0  0
 10 14  2  0  0  0  0
 11 12  1  0  0  0  0
 11 17  2  0  0  0  0
 12 15  1  0  0  0  0
 12 18  2  0  0  0  0
 13 16  2  0  0  0  0
 14 16  1  0  0  0  0
 15 19  1  0  0  0  0
 15 21  2  0  0  0  0
 17 20  1  0  0  0  0
 18 22  1  0  0  0  0
 19 20  2  0  0  0  0
 21 23  1  0  0  0  0
 22 23  2  0  0  0  0
M  END
> <DATABASE_ID>
DB04884

> <DATABASE_NAME>
drugbank

> <SMILES>
CN(C)[C@@H](CCOC1=CC=CC2=CC=CC=C12)C1=CC=CC=C1

> <INCHI_IDENTIFIER>
InChI=1S/C21H23NO/c1-22(2)20(18-10-4-3-5-11-18)15-16-23-21-14-8-12-17-9-6-7-13-19(17)21/h3-14,20H,15-16H2,1-2H3/t20-/m0/s1

> <INCHI_KEY>
USRHYDPUVLEVMC-FQEVSTJZSA-N

> <FORMULA>
C21H23NO

> <MOLECULAR_WEIGHT>
305.4134

> <EXACT_MASS>
305.177964363

> <JCHEM_ACCEPTOR_COUNT>
2

> <JCHEM_ATOM_COUNT>
46

> <JCHEM_AVERAGE_NEUTRAL_MICROSPECIES_CHARGE>
0.9891270356647844

> <JCHEM_AVERAGE_POLARIZABILITY>
34.997023761555866

> <JCHEM_BIOAVAILABILITY>
1

> <JCHEM_DONOR_COUNT>
0

> <JCHEM_FORMAL_CHARGE>
0

> <JCHEM_GHOSE_FILTER>
1

> <JCHEM_IUPAC>
dimethyl[(1S)-3-(naphthalen-1-yloxy)-1-phenylpropyl]amine

> <ALOGPS_LOGP>
4.75

> <JCHEM_LOGP>
4.667895755666667

> <ALOGPS_LOGS>
-5.56

> <JCHEM_MDDR_LIKE_RULE>
1

> <JCHEM_NEUTRAL_CHARGE>
1

> <JCHEM_NUMBER_OF_RINGS>
3

> <JCHEM_PHYSIOLOGICAL_CHARGE>
1

> <JCHEM_PKA_STRONGEST_BASIC>
8.958904109021285

> <JCHEM_POLAR_SURFACE_AREA>
12.47

> <JCHEM_REFRACTIVITY>
96.13870000000004

> <JCHEM_ROTATABLE_BOND_COUNT>
6

> <JCHEM_RULE_OF_FIVE>
1

> <ALOGPS_SOLUBILITY>
8.37e-04 g/l

> <JCHEM_TRADITIONAL_IUPAC>
tetrahydrofolic acid

> <JCHEM_VEBER_RULE>
1

> <DRUGBANK_ID>
DB04884

> <DRUG_GROUPS>
investigational

> <GENERIC_NAME>
Dapoxetine

> <SYNONYMS>
Dapoxetina; Dapoxetine; Dapoxetinum

> <INTERNATIONAL_BRANDS>
Priligy

> <SALTS>
Dapoxetine hydrochloride

$$$$
