
  Mrv0541 02231217282D          

  8  8  0  0  0  0            999 V2000
    0.0000    2.4750    0.0000 O   0  0  0  0  0  0  0  0  0  0  0  0
    0.7145    2.0625    0.0000 C   0  0  0  0  0  0  0  0  0  0  0  0
    0.7145    1.2375    0.0000 C   0  0  0  0  0  0  0  0  0  0  0  0
    1.4289    0.8250    0.0000 C   0  0  0  0  0  0  0  0  0  0  0  0
    1.4289    0.0000    0.0000 C   0  0  0  0  0  0  0  0  0  0  0  0
    0.7145   -0.4125    0.0000 C   0  0  0  0  0  0  0  0  0  0  0  0
    0.0000    0.0000    0.0000 N   0  0  0  0  0  0  0  0  0  0  0  0
    0.0000    0.8250    0.0000 C   0  0  0  0  0  0  0  0  0  0  0  0
  1  2  1  0  0  0  0
  2  3  1  0  0  0  0
  3  4  2  0  0  0  0
  4  5  1  0  0  0  0
  5  6  2  0  0  0  0
  6  7  1  0  0  0  0
  7  8  2  0  0  0  0
  3  8  1  0  0  0  0
M  END
> <DATABASE_ID>
DB04145

> <DATABASE_NAME>
drugbank

> <SMILES>
OCC1=CC=CN=C1

> <INCHI_IDENTIFIER>
InChI=1S/C6H7NO/c8-5-6-2-1-3-7-4-6/h1-4,8H,5H2

> <INCHI_KEY>
MVQVNTPHUGQQHK-UHFFFAOYSA-N

> <FORMULA>
C6H7NO

> <MOLECULAR_WEIGHT>
109.1259

> <EXACT_MASS>
109.052763851

> <JCHEM_ACCEPTOR_COUNT>
2

> <JCHEM_ATOM_COUNT>
15

> <JCHEM_AVERAGE_NEUTRAL_MICROSPECIES_CHARGE>
0.005324452425461817

> <JCHEM_AVERAGE_POLARIZABILITY>
11.227756199860895

> <JCHEM_BIOAVAILABILITY>
1

> <JCHEM_DONOR_COUNT>
1

> <JCHEM_FORMAL_CHARGE>
0

> <JCHEM_GHOSE_FILTER>
0

> <JCHEM_IUPAC>
(pyridin-3-yl)methanol

> <ALOGPS_LOGP>
-0.13

> <JCHEM_LOGP>
-0.011776378333333407

> <ALOGPS_LOGS>
0.46

> <JCHEM_MDDR_LIKE_RULE>
0

> <JCHEM_NEUTRAL_CHARGE>
0

> <JCHEM_NUMBER_OF_RINGS>
1

> <JCHEM_PHYSIOLOGICAL_CHARGE>
0

> <JCHEM_PKA_STRONGEST_ACIDIC>
14.690153284532906

> <JCHEM_PKA_STRONGEST_BASIC>
4.728595177886644

> <JCHEM_POLAR_SURFACE_AREA>
33.120000000000005

> <JCHEM_REFRACTIVITY>
30.716999999999995

> <JCHEM_ROTATABLE_BOND_COUNT>
1

> <JCHEM_RULE_OF_FIVE>
1

> <ALOGPS_SOLUBILITY>
3.12e+02 g/l

> <JCHEM_TRADITIONAL_IUPAC>
biotin

> <JCHEM_VEBER_RULE>
1

> <DRUGBANK_ID>
DB04145

> <SECONDARY_ACCESSION_NUMBERS>
EXPT02720

> <DRUG_GROUPS>
experimental

> <GENERIC_NAME>
Nicotinyl alcohol

> <SYNONYMS>
3-pyridinemethanol; beta-pyridylcarbinol; Nicotinic alcohol; Nicotinyl alcohol; Pyridylcarbinol; Pyridylmethanol

$$$$
