
  Mrv0541 05041411302D          

 14 15  0  0  1  0            999 V2000
   -0.7145   -0.4125    0.0000 C   0  0  0  0  0  0  0  0  0  0  0  0
   -0.7145   -1.2375    0.0000 C   0  0  0  0  0  0  0  0  0  0  0  0
    0.0000    0.0000    0.0000 C   0  0  0  0  0  0  0  0  0  0  0  0
    0.0000   -1.6500    0.0000 C   0  0  0  0  0  0  0  0  0  0  0  0
    0.7145   -0.4125    0.0000 C   0  0  0  0  0  0  0  0  0  0  0  0
    0.7145   -1.2375    0.0000 C   0  0  0  0  0  0  0  0  0  0  0  0
    1.4289   -0.0000    0.0000 C   0  0  2  0  0  0  0  0  0  0  0  0
    2.1434   -1.2375    0.0000 C   0  0  1  0  0  0  0  0  0  0  0  0
    2.8579   -1.6500    0.0000 N   0  0  0  0  0  0  0  0  0  0  0  0
    1.4289    0.8250    0.0000 O   0  0  0  0  0  0  0  0  0  0  0  0
    1.4289   -1.6500    0.0000 O   0  0  0  0  0  0  0  0  0  0  0  0
    2.1434   -0.4125    0.0000 S   0  0  0  0  0  0  0  0  0  0  0  0
    0.7145    0.4125    0.0000 H   0  0  0  0  0  0  0  0  0  0  0  0
    2.1434   -2.0625    0.0000 H   0  0  0  0  0  0  0  0  0  0  0  0
  2  1  2  0  0  0  0
  3  1  1  0  0  0  0
  4  2  1  0  0  0  0
  5  3  2  0  0  0  0
  6  4  2  0  0  0  0
  6  5  1  0  0  0  0
  7  5  1  0  0  0  0
  8  9  1  1  0  0  0
  7 10  1  6  0  0  0
 11  6  1  0  0  0  0
 11  8  1  0  0  0  0
 12  7  1  0  0  0  0
 12  8  1  0  0  0  0
  7 13  1  1  0  0  0
  8 14  1  6  0  0  0
M  END
> <DATABASE_ID>
DB03972

> <DATABASE_NAME>
drugbank

> <SMILES>
[H][C@]1(N)OC2=CC=CC=C2[C@]([H])(O)S1

> <INCHI_IDENTIFIER>
InChI=1S/C8H9NO2S/c9-8-11-6-4-2-1-3-5(6)7(10)12-8/h1-4,7-8,10H,9H2/t7-,8+/m1/s1

> <INCHI_KEY>
DVFUKUONLVBBEH-SFYZADRCSA-N

> <FORMULA>
C8H9NO2S

> <MOLECULAR_WEIGHT>
183.228

> <EXACT_MASS>
183.035399227

> <JCHEM_ACCEPTOR_COUNT>
3

> <JCHEM_ATOM_COUNT>
21

> <JCHEM_AVERAGE_NEUTRAL_MICROSPECIES_CHARGE>
0.0868137202350842

> <JCHEM_AVERAGE_POLARIZABILITY>
17.96961236482105

> <JCHEM_BIOAVAILABILITY>
1

> <JCHEM_DONOR_COUNT>
2

> <JCHEM_FORMAL_CHARGE>
0

> <JCHEM_GHOSE_FILTER>
1

> <JCHEM_IUPAC>
(2S,4R)-2-amino-2,4-dihydro-1,3-benzoxathiin-4-ol

> <ALOGPS_LOGP>
-0.07

> <JCHEM_LOGP>
1.9887060389999998

> <ALOGPS_LOGS>
-1.17

> <JCHEM_MDDR_LIKE_RULE>
0

> <JCHEM_NEUTRAL_CHARGE>
0

> <JCHEM_NUMBER_OF_RINGS>
2

> <JCHEM_PHYSIOLOGICAL_CHARGE>
0

> <JCHEM_PKA_STRONGEST_ACIDIC>
12.869897158790538

> <JCHEM_PKA_STRONGEST_BASIC>
5.97803629634807

> <JCHEM_POLAR_SURFACE_AREA>
55.480000000000004

> <JCHEM_REFRACTIVITY>
47.574200000000005

> <JCHEM_ROTATABLE_BOND_COUNT>
0

> <JCHEM_RULE_OF_FIVE>
1

> <ALOGPS_SOLUBILITY>
1.25e+01 g/l

> <JCHEM_TRADITIONAL_IUPAC>
tetrahydrofolic acid

> <JCHEM_VEBER_RULE>
0

> <DRUGBANK_ID>
DB03972

> <SECONDARY_ACCESSION_NUMBERS>
EXPT02966

> <DRUG_GROUPS>
experimental

> <GENERIC_NAME>
2-Amino-4h-1,3-Benzoxathiin-4-Ol

$$$$
