
  Mrv0541 05031423592D          

 12 11  0  0  1  0            999 V2000
   -1.2375   -0.7145    0.0000 C   0  0  0  0  0  0  0  0  0  0  0  0
    0.8250    0.0000    0.0000 C   0  0  0  0  0  0  0  0  0  0  0  0
    0.0000    0.0000    0.0000 C   0  0  0  0  0  0  0  0  0  0  0  0
    1.2375   -0.7145    0.0000 C   0  0  1  0  0  0  0  0  0  0  0  0
    0.8250   -1.4289    0.0000 C   0  0  0  0  0  0  0  0  0  0  0  0
    2.0625   -0.7145    0.0000 N   0  0  0  0  0  0  0  0  0  0  0  0
    1.2375   -2.1434    0.0000 O   0  0  0  0  0  0  0  0  0  0  0  0
   -0.0000   -1.4289    0.0000 O   0  0  0  0  0  0  0  0  0  0  0  0
   -0.4125   -0.7145    0.0000 O   0  0  0  0  0  0  0  0  0  0  0  0
    1.2375    0.7145    0.0000 H   0  0  0  0  0  0  0  0  0  0  0  0
   -0.4125    0.7145    0.0000 H   0  0  0  0  0  0  0  0  0  0  0  0
    0.4125   -0.7145    0.0000 H   0  0  0  0  0  0  0  0  0  0  0  0
  3  2  2  0  0  0  0
  4  2  1  0  0  0  0
  5  4  1  0  0  0  0
  4  6  1  1  0  0  0
  7  5  2  0  0  0  0
  8  5  1  0  0  0  0
  9  1  1  0  0  0  0
  9  3  1  0  0  0  0
 10  2  1  0  0  0  0
 11  3  1  0  0  0  0
  4 12  1  1  0  0  0
M  END
> <DATABASE_ID>
DB03611

> <DATABASE_NAME>
drugbank

> <SMILES>
[H]\C(OC)=C(/[H])[C@]([H])(N)C(O)=O

> <INCHI_IDENTIFIER>
InChI=1S/C5H9NO3/c1-9-3-2-4(6)5(7)8/h2-4H,6H2,1H3,(H,7,8)/b3-2-/t4-/m0/s1

> <INCHI_KEY>
HLOPMQJRUIOMJO-SWOZAWMQSA-N

> <FORMULA>
C5H9NO3

> <MOLECULAR_WEIGHT>
131.1299

> <EXACT_MASS>
131.058243159

> <JCHEM_ACCEPTOR_COUNT>
4

> <JCHEM_ATOM_COUNT>
18

> <JCHEM_AVERAGE_NEUTRAL_MICROSPECIES_CHARGE>
-0.013038547539387348

> <JCHEM_AVERAGE_POLARIZABILITY>
12.407671940977828

> <JCHEM_BIOAVAILABILITY>
1

> <JCHEM_DONOR_COUNT>
2

> <JCHEM_FORMAL_CHARGE>
0

> <JCHEM_GHOSE_FILTER>
0

> <JCHEM_IUPAC>
(2S,3Z)-2-amino-4-methoxybut-3-enoic acid

> <ALOGPS_LOGP>
-2.54

> <JCHEM_LOGP>
-2.9434885073308825

> <ALOGPS_LOGS>
0.27

> <JCHEM_MDDR_LIKE_RULE>
0

> <JCHEM_NEUTRAL_CHARGE>
0

> <JCHEM_NUMBER_OF_RINGS>
0

> <JCHEM_PHYSIOLOGICAL_CHARGE>
0

> <JCHEM_PKA_STRONGEST_ACIDIC>
2.190015727180587

> <JCHEM_PKA_STRONGEST_BASIC>
8.876919509167415

> <JCHEM_POLAR_SURFACE_AREA>
72.55000000000001

> <JCHEM_REFRACTIVITY>
31.6403

> <JCHEM_ROTATABLE_BOND_COUNT>
3

> <JCHEM_RULE_OF_FIVE>
1

> <ALOGPS_SOLUBILITY>
2.42e+02 g/l

> <JCHEM_TRADITIONAL_IUPAC>
biotin

> <JCHEM_VEBER_RULE>
0

> <DRUGBANK_ID>
DB03611

> <SECONDARY_ACCESSION_NUMBERS>
EXPT00504

> <DRUG_GROUPS>
experimental

> <GENERIC_NAME>
L-2-amino-4-methoxy-cis-but-3-enoic acid

$$$$
