
  Mrv0541 09051417052D          

 20 22  0  0  0  0            999 V2000
    5.7158    0.8250    0.0000 C   0  0  0  0  0  0  0  0  0  0  0  0
    4.2868    0.8250    0.0000 C   0  0  0  0  0  0  0  0  0  0  0  0
    5.0013    2.0625    0.0000 C   0  0  0  0  0  0  0  0  0  0  0  0
    1.4289    0.8250    0.0000 C   0  0  0  0  0  0  0  0  0  0  0  0
    0.7145    2.0625    0.0000 C   0  0  0  0  0  0  0  0  0  0  0  0
    5.0013    1.2375    0.0000 C   0  0  0  0  0  0  0  0  0  0  0  0
    0.7145    1.2375    0.0000 C   0  0  0  0  0  0  0  0  0  0  0  0
    3.5724    1.2375    0.0000 C   0  0  0  0  0  0  0  0  0  0  0  0
    2.1434    1.2375    0.0000 C   0  0  0  0  0  0  0  0  0  0  0  0
    4.2868    2.4750    0.0000 C   0  0  0  0  0  0  0  0  0  0  0  0
    1.4289    2.4750    0.0000 C   0  0  0  0  0  0  0  0  0  0  0  0
    3.5724    2.0625    0.0000 C   0  0  0  0  0  0  0  0  0  0  0  0
    2.1434    2.0625    0.0000 C   0  0  0  0  0  0  0  0  0  0  0  0
    2.8579    0.8250    0.0000 C   0  0  0  0  0  0  0  0  0  0  0  0
    2.8579    2.4750    0.0000 C   0  0  0  0  0  0  0  0  0  0  0  0
   -0.0000    0.8250    0.0000 O   0  0  0  0  0  0  0  0  0  0  0  0
    4.2868    3.3000    0.0000 O   0  0  0  0  0  0  0  0  0  0  0  0
    1.4289    3.3000    0.0000 O   0  0  0  0  0  0  0  0  0  0  0  0
    2.8579    0.0000    0.0000 O   0  0  0  0  0  0  0  0  0  0  0  0
    2.8579    3.3000    0.0000 O   0  0  0  0  0  0  0  0  0  0  0  0
  6  1  1  0  0  0  0
  6  2  2  0  0  0  0
  6  3  1  0  0  0  0
  7  4  2  0  0  0  0
  7  5  1  0  0  0  0
  8  2  1  0  0  0  0
  9  4  1  0  0  0  0
 10  3  2  0  0  0  0
 11  5  2  0  0  0  0
 12  8  2  0  0  0  0
 12 10  1  0  0  0  0
 13  9  2  0  0  0  0
 13 11  1  0  0  0  0
 14  8  1  0  0  0  0
 14  9  1  0  0  0  0
 15 12  1  0  0  0  0
 15 13  1  0  0  0  0
 16  7  1  0  0  0  0
 17 10  1  0  0  0  0
 18 11  1  0  0  0  0
 19 14  2  0  0  0  0
 20 15  2  0  0  0  0
M  END
> <DATABASE_ID>
DB07715

> <DATABASE_NAME>
drugbank

> <SMILES>
CC1=CC2=C(C(O)=C1)C(=O)C1=C(C=C(O)C=C1O)C2=O

> <INCHI_IDENTIFIER>
InChI=1S/C15H10O5/c1-6-2-8-12(10(17)3-6)15(20)13-9(14(8)19)4-7(16)5-11(13)18/h2-5,16-18H,1H3

> <INCHI_KEY>
RHMXXJGYXNZAPX-UHFFFAOYSA-N

> <FORMULA>
C15H10O5

> <MOLECULAR_WEIGHT>
270.2369

> <EXACT_MASS>
270.05282343

> <JCHEM_ACCEPTOR_COUNT>
5

> <JCHEM_ATOM_COUNT>
30

> <JCHEM_AVERAGE_NEUTRAL_MICROSPECIES_CHARGE>
-0.40672782323663403

> <JCHEM_AVERAGE_POLARIZABILITY>
26.57511755920581

> <JCHEM_BIOAVAILABILITY>
1

> <JCHEM_DONOR_COUNT>
3

> <JCHEM_FORMAL_CHARGE>
0

> <JCHEM_GHOSE_FILTER>
1

> <JCHEM_IUPAC>
1,3,8-trihydroxy-6-methyl-9,10-dihydroanthracene-9,10-dione

> <ALOGPS_LOGP>
2.66

> <JCHEM_LOGP>
3.821431499

> <ALOGPS_LOGS>
-3.09

> <JCHEM_MDDR_LIKE_RULE>
0

> <JCHEM_NEUTRAL_CHARGE>
0

> <JCHEM_NUMBER_OF_RINGS>
3

> <JCHEM_PHYSIOLOGICAL_CHARGE>
-1

> <JCHEM_PKA>
8.291031378388995

> <JCHEM_PKA_STRONGEST_ACIDIC>
7.286292674874626

> <JCHEM_PKA_STRONGEST_BASIC>
-5.359786679140307

> <JCHEM_POLAR_SURFACE_AREA>
94.82999999999998

> <JCHEM_REFRACTIVITY>
72.1349

> <JCHEM_ROTATABLE_BOND_COUNT>
0

> <JCHEM_RULE_OF_FIVE>
1

> <ALOGPS_SOLUBILITY>
2.22e-01 g/l

> <JCHEM_TRADITIONAL_IUPAC>
biotin

> <JCHEM_VEBER_RULE>
0

> <DRUGBANK_ID>
DB07715

> <SECONDARY_ACCESSION_NUMBERS>
DB12653

> <DRUG_GROUPS>
investigational

> <GENERIC_NAME>
Emodin

> <SYNONYMS>
1,3,8-trihydroxy-6-methyl-9,10-anthracenedione; 1,3,8-trihydroxy-6-methyl-9,10-anthraquinone; Schuttgelb

$$$$
