
  Mrv0541 02231217052D          

  9  8  0  0  0  0            999 V2000
   -0.1914   -0.7145    0.0000 O   0  0  0  0  0  0  0  0  0  0  0  0
    0.5230   -1.1270    0.0000 N   0  0  0  0  0  0  0  0  0  0  0  0
    1.2375   -0.7145    0.0000 C   0  0  0  0  0  0  0  0  0  0  0  0
    1.2375    0.1105    0.0000 O   0  0  0  0  0  0  0  0  0  0  0  0
    1.9520   -1.1270    0.0000 C   0  0  0  0  0  0  0  0  0  0  0  0
    2.6664   -0.7145    0.0000 P   0  0  0  0  0  0  0  0  0  0  0  0
    3.3809   -0.3020    0.0000 O   0  0  0  0  0  0  0  0  0  0  0  0
    3.0789   -1.4289    0.0000 O   0  0  0  0  0  0  0  0  0  0  0  0
    2.2539    0.0000    0.0000 O   0  0  0  0  0  0  0  0  0  0  0  0
  1  2  1  0  0  0  0
  2  3  1  0  0  0  0
  3  4  2  0  0  0  0
  3  5  1  0  0  0  0
  5  6  1  0  0  0  0
  6  7  1  0  0  0  0
  6  8  1  0  0  0  0
  6  9  2  0  0  0  0
M  END
> <DATABASE_ID>
DB03645

> <DATABASE_NAME>
drugbank

> <SMILES>
ONC(=O)CP(O)(O)=O

> <INCHI_IDENTIFIER>
InChI=1S/C2H6NO5P/c4-2(3-5)1-9(6,7)8/h5H,1H2,(H,3,4)(H2,6,7,8)

> <INCHI_KEY>
LDKRAXXVBWHMRH-UHFFFAOYSA-N

> <FORMULA>
C2H6NO5P

> <MOLECULAR_WEIGHT>
155.0465

> <EXACT_MASS>
154.998358819

> <JCHEM_ACCEPTOR_COUNT>
5

> <JCHEM_ATOM_COUNT>
15

> <JCHEM_AVERAGE_NEUTRAL_MICROSPECIES_CHARGE>
-1.1424551864356296

> <JCHEM_AVERAGE_POLARIZABILITY>
11.003661547041547

> <JCHEM_BIOAVAILABILITY>
1

> <JCHEM_DONOR_COUNT>
4

> <JCHEM_FORMAL_CHARGE>
0

> <JCHEM_GHOSE_FILTER>
0

> <JCHEM_IUPAC>
[(hydroxycarbamoyl)methyl]phosphonic acid

> <ALOGPS_LOGP>
-1.30

> <JCHEM_LOGP>
-2.521418272333333

> <ALOGPS_LOGS>
-0.91

> <JCHEM_MDDR_LIKE_RULE>
0

> <JCHEM_NEUTRAL_CHARGE>
-1

> <JCHEM_NUMBER_OF_RINGS>
0

> <JCHEM_PHYSIOLOGICAL_CHARGE>
-1

> <JCHEM_PKA>
8.084902869718666

> <JCHEM_PKA_STRONGEST_ACIDIC>
1.6579703891763677

> <JCHEM_PKA_STRONGEST_BASIC>
-5.5258844395426205

> <JCHEM_POLAR_SURFACE_AREA>
106.86000000000001

> <JCHEM_REFRACTIVITY>
27.220799999999997

> <JCHEM_ROTATABLE_BOND_COUNT>
2

> <JCHEM_RULE_OF_FIVE>
1

> <ALOGPS_SOLUBILITY>
1.90e+01 g/l

> <JCHEM_TRADITIONAL_IUPAC>
biotin

> <JCHEM_VEBER_RULE>
0

> <DRUGBANK_ID>
DB03645

> <SECONDARY_ACCESSION_NUMBERS>
EXPT02491

> <DRUG_GROUPS>
experimental

> <GENERIC_NAME>
Phosphonoacetohydroxamic Acid

$$$$
