
  Mrv0541 02231215522D          

 13 12  0  0  1  0            999 V2000
    7.2849    3.3809    0.0000 N   0  0  0  0  0  0  0  0  0  0  0  0
    7.2849    2.5559    0.0000 C   0  0  1  0  0  0  0  0  0  0  0  0
    6.5704    2.1434    0.0000 C   0  0  0  0  0  0  0  0  0  0  0  0
    5.8559    2.5559    0.0000 C   0  0  0  0  0  0  0  0  0  0  0  0
    5.1414    2.1434    0.0000 C   0  0  0  0  0  0  0  0  0  0  0  0
    4.4270    2.5559    0.0000 C   0  0  0  0  0  0  0  0  0  0  0  0
    3.7125    2.1434    0.0000 B   0  5  0  0  0  0  0  0  0  0  0  0
    2.9980    1.7309    0.0000 O   0  0  0  0  0  0  0  0  0  0  0  0
    4.1250    1.4289    0.0000 O   0  0  0  0  0  0  0  0  0  0  0  0
    3.3000    2.8579    0.0000 O   0  0  0  0  0  0  0  0  0  0  0  0
    7.9993    2.1434    0.0000 C   0  0  0  0  0  0  0  0  0  0  0  0
    8.7138    2.5559    0.0000 O   0  0  0  0  0  0  0  0  0  0  0  0
    7.9993    1.3184    0.0000 O   0  0  0  0  0  0  0  0  0  0  0  0
  2  1  1  6  0  0  0
  2  3  1  0  0  0  0
  3  4  1  0  0  0  0
  4  5  1  0  0  0  0
  5  6  1  0  0  0  0
  6  7  1  0  0  0  0
  7  8  1  0  0  0  0
  7  9  1  0  0  0  0
  7 10  1  0  0  0  0
  2 11  1  0  0  0  0
 11 12  1  0  0  0  0
 11 13  2  0  0  0  0
M  CHG  1   7  -1
M  END
> <DATABASE_ID>
DB01983

> <DATABASE_NAME>
drugbank

> <SMILES>
N[C@@H](CCCC[B-](O)(O)O)C(O)=O

> <INCHI_IDENTIFIER>
InChI=1S/C6H15BNO5/c8-5(6(9)10)3-1-2-4-7(11,12)13/h5,11-13H,1-4,8H2,(H,9,10)/q-1/t5-/m0/s1

> <INCHI_KEY>
BLVGFZFOWWBCCZ-YFKPBYRVSA-N

> <FORMULA>
C6H15BNO5

> <MOLECULAR_WEIGHT>
191.998

> <EXACT_MASS>
192.104328061

> <JCHEM_ACCEPTOR_COUNT>
6

> <JCHEM_ATOM_COUNT>
28

> <JCHEM_AVERAGE_NEUTRAL_MICROSPECIES_CHARGE>
-0.0029575024299136987

> <JCHEM_AVERAGE_POLARIZABILITY>
19.64016738046063

> <JCHEM_BIOAVAILABILITY>
1

> <JCHEM_DONOR_COUNT>
5

> <JCHEM_FORMAL_CHARGE>
-1

> <JCHEM_GHOSE_FILTER>
0

> <JCHEM_IUPAC>
[(5S)-5-amino-5-carboxypentyl]trihydroxyboranuide

> <ALOGPS_LOGP>
-2.94

> <JCHEM_LOGP>
-4.96256356243727

> <ALOGPS_LOGS>
-1.87

> <JCHEM_MDDR_LIKE_RULE>
0

> <JCHEM_NEUTRAL_CHARGE>
-1

> <JCHEM_NUMBER_OF_RINGS>
0

> <JCHEM_PHYSIOLOGICAL_CHARGE>
-1

> <JCHEM_PKA>
16.32731639573274

> <JCHEM_PKA_STRONGEST_ACIDIC>
1.9046267256242775

> <JCHEM_PKA_STRONGEST_BASIC>
9.526608282553976

> <JCHEM_POLAR_SURFACE_AREA>
124.01000000000002

> <JCHEM_REFRACTIVITY>
40.8796

> <JCHEM_ROTATABLE_BOND_COUNT>
6

> <JCHEM_RULE_OF_FIVE>
1

> <ALOGPS_SOLUBILITY>
2.83e+00 g/l

> <JCHEM_TRADITIONAL_IUPAC>
biotin

> <JCHEM_VEBER_RULE>
0

> <DRUGBANK_ID>
DB01983

> <SECONDARY_ACCESSION_NUMBERS>
EXPT00396

> <DRUG_GROUPS>
experimental

> <GENERIC_NAME>
2(S)-Amino-6-Boronohexanoic Acid

$$$$
