 
  Mrv0541 06041322152D          
 
 32 34  0  0  0  0            999 V2000
    6.8476  -12.0865    0.0000 C   0  0  0  0  0  0  0  0  0  0  0  0
    7.0951  -11.3027    0.0000 N   0  0  0  0  0  0  0  0  0  0  0  0
    7.9202  -11.3027    0.0000 C   0  0  0  0  0  0  0  0  0  0  0  0
    8.1677  -12.0865    0.0000 N   0  0  0  0  0  0  0  0  0  0  0  0
    7.5077  -12.5815    0.0000 C   0  0  0  0  0  0  0  0  0  0  0  0
    8.9514  -12.3340    0.0000 C   0  0  0  0  0  0  0  0  0  0  0  0
    8.9514  -13.1590    0.0000 C   0  0  0  0  0  0  0  0  0  0  0  0
    9.6527  -11.9215    0.0000 C   0  0  0  0  0  0  0  0  0  0  0  0
   10.3952  -12.3340    0.0000 C   0  0  0  0  0  0  0  0  0  0  0  0
   10.3952  -13.1590    0.0000 C   0  0  0  0  0  0  0  0  0  0  0  0
    9.6527  -13.5715    0.0000 C   0  0  0  0  0  0  0  0  0  0  0  0
    7.5077  -13.4065    0.0000 O   0  0  0  0  0  0  0  0  0  0  0  0
   11.0965  -13.5715    0.0000 C   0  0  0  0  0  0  0  0  0  0  0  0
   11.8390  -13.9840    0.0000 N   0  0  0  0  0  0  0  0  0  0  0  0
   11.0965  -11.9215    0.0000 C   0  0  0  0  0  0  0  0  0  0  0  0
   11.8390  -11.5090    0.0000 F   0  0  0  0  0  0  0  0  0  0  0  0
   11.5090  -12.6228    0.0000 F   0  0  0  0  0  0  0  0  0  0  0  0
   10.6840  -11.2202    0.0000 F   0  0  0  0  0  0  0  0  0  0  0  0
    8.4079  -10.6373    0.0000 S   0  0  0  0  0  0  0  0  0  0  0  0
    6.1332  -11.6740    0.0000 C   0  0  0  0  0  0  0  0  0  0  0  0
    6.3931  -12.7750    0.0000 C   0  0  0  0  0  0  0  0  0  0  0  0
    6.6074  -10.6373    0.0000 C   0  0  0  0  0  0  0  0  0  0  0  0
    6.9999   -9.9210    0.0000 C   0  0  0  0  0  0  0  0  0  0  0  0
    6.5708   -9.2576    0.0000 C   0  0  0  0  0  0  0  0  0  0  0  0
    5.7461   -9.2355    0.0000 C   0  0  0  0  0  0  0  0  0  0  0  0
    5.3541   -9.9525    0.0000 C   0  0  0  0  0  0  0  0  0  0  0  0
    5.7831  -10.6572    0.0000 C   0  0  0  0  0  0  0  0  0  0  0  0
    5.3338   -8.5186    0.0000 C   0  0  0  0  0  0  0  0  0  0  0  0
    4.4966   -8.5581    0.0000 N   0  0  0  0  0  0  0  0  0  0  0  0
    4.0420   -7.8503    0.0000 C   0  0  0  0  0  0  0  0  0  0  0  0
    5.7186   -7.8159    0.0000 O   0  0  0  0  0  0  0  0  0  0  0  0
    6.9795   -8.5304    0.0000 F   0  0  0  0  0  0  0  0  0  0  0  0
  1  2  1  0  0  0  0
  2  3  1  0  0  0  0
  3  4  1  0  0  0  0
  4  5  1  0  0  0  0
  1  5  1  0  0  0  0
  4  6  1  0  0  0  0
  7  6  2  0  0  0  0
  8  9  2  0  0  0  0
  9 10  1  0  0  0  0
 10 11  2  0  0  0  0
  7 11  1  0  0  0  0
  6  8  1  0  0  0  0
  5 12  2  0  0  0  0
 10 13  1  0  0  0  0
 13 14  3  0  0  0  0
  9 15  1  0  0  0  0
 15 16  1  0  0  0  0
 15 17  1  0  0  0  0
 15 18  1  0  0  0  0
  3 19  2  0  0  0  0
  1 20  1  0  0  0  0
  1 21  1  0  0  0  0
  2 22  1  0  0  0  0
 22 23  2  0  0  0  0
 23 24  1  0  0  0  0
 24 25  2  0  0  0  0
 25 26  1  0  0  0  0
 26 27  2  0  0  0  0
 22 27  1  0  0  0  0
 25 28  1  0  0  0  0
 28 29  1  0  0  0  0
 29 30  1  0  0  0  0
 28 31  2  0  0  0  0
 24 32  1  0  0  0  0
M  END
> <DATABASE_ID>
DB08899

> <DATABASE_NAME>
drugbank

> <SMILES>
CNC(=O)C1=C(F)C=C(C=C1)N1C(=S)N(C(=O)C1(C)C)C1=CC=C(C#N)C(=C1)C(F)(F)F

> <INCHI_IDENTIFIER>
InChI=1S/C21H16F4N4O2S/c1-20(2)18(31)28(12-5-4-11(10-26)15(8-12)21(23,24)25)19(32)29(20)13-6-7-14(16(22)9-13)17(30)27-3/h4-9H,1-3H3,(H,27,30)

> <INCHI_KEY>
WXCXUHSOUPDCQV-UHFFFAOYSA-N

> <FORMULA>
C21H16F4N4O2S

> <MOLECULAR_WEIGHT>
464.436

> <EXACT_MASS>
464.093009286

> <JCHEM_ACCEPTOR_COUNT>
3

> <JCHEM_ATOM_COUNT>
48

> <JCHEM_AVERAGE_NEUTRAL_MICROSPECIES_CHARGE>
-8.78829049127493e-07

> <JCHEM_AVERAGE_POLARIZABILITY>
42.686351645781855

> <JCHEM_BIOAVAILABILITY>
1

> <JCHEM_DONOR_COUNT>
1

> <JCHEM_FORMAL_CHARGE>
0

> <JCHEM_GHOSE_FILTER>
1

> <JCHEM_IUPAC>
4-{3-[4-cyano-3-(trifluoromethyl)phenyl]-5,5-dimethyl-4-oxo-2-sulfanylideneimidazolidin-1-yl}-2-fluoro-N-methylbenzamide

> <ALOGPS_LOGP>
3.75

> <JCHEM_LOGP>
4.1554112399999985

> <ALOGPS_LOGS>
-5.53

> <JCHEM_MDDR_LIKE_RULE>
0

> <JCHEM_NEUTRAL_CHARGE>
0

> <JCHEM_NUMBER_OF_RINGS>
3

> <JCHEM_PHYSIOLOGICAL_CHARGE>
0

> <JCHEM_PKA_STRONGEST_ACIDIC>
13.054718263686743

> <JCHEM_PKA_STRONGEST_BASIC>
-1.5542381586613685

> <JCHEM_POLAR_SURFACE_AREA>
76.44

> <JCHEM_REFRACTIVITY>
113.4796

> <JCHEM_ROTATABLE_BOND_COUNT>
4

> <JCHEM_RULE_OF_FIVE>
1

> <ALOGPS_SOLUBILITY>
1.36e-03 g/l

> <JCHEM_TRADITIONAL_IUPAC>
biotin

> <JCHEM_VEBER_RULE>
0

> <DRUGBANK_ID>
DB08899

> <SECONDARY_ACCESSION_NUMBERS>
DB05094

> <DRUG_GROUPS>
approved

> <GENERIC_NAME>
Enzalutamide

> <SYNONYMS>
Enzalutamida; Enzalutamide

> <PRODUCTS>
Xtandi

$$$$
