
  Mrv0541 02231217502D          

 34 36  0  0  1  0            999 V2000
    0.0000    0.8250    0.0000 O   0  0  0  0  0  0  0  0  0  0  0  0
    0.0000    0.0000    0.0000 C   0  0  0  0  0  0  0  0  0  0  0  0
   -0.7145   -0.4125    0.0000 C   0  0  1  0  0  0  0  0  0  0  0  0
   -0.7145   -1.2375    0.0000 O   0  0  0  0  0  0  0  0  0  0  0  0
   -1.4289   -1.6500    0.0000 C   0  0  2  0  0  0  0  0  0  0  0  0
   -1.4289   -2.4750    0.0000 O   0  0  0  0  0  0  0  0  0  0  0  0
   -0.7145   -2.8875    0.0000 C   0  0  1  0  0  0  0  0  0  0  0  0
    0.0000   -2.4750    0.0000 C   0  0  2  0  0  0  0  0  0  0  0  0
    0.0000   -1.6500    0.0000 O   0  0  0  0  0  0  0  0  0  0  0  0
    0.7145   -2.8875    0.0000 C   0  0  1  0  0  0  0  0  0  0  0  0
    1.4289   -2.4750    0.0000 O   0  0  0  0  0  0  0  0  0  0  0  0
    0.7145   -3.7125    0.0000 C   0  0  2  0  0  0  0  0  0  0  0  0
    1.4289   -4.1250    0.0000 O   0  0  0  0  0  0  0  0  0  0  0  0
    2.1434   -3.7125    0.0000 C   0  0  0  0  0  0  0  0  0  0  0  0
    2.8579   -4.1250    0.0000 C   0  0  0  0  0  0  0  0  0  0  0  0
    3.5724   -3.7125    0.0000 C   0  0  0  0  0  0  0  0  0  0  0  0
    4.2868   -4.1250    0.0000 C   0  0  0  0  0  0  0  0  0  0  0  0
    5.0013   -3.7125    0.0000 C   0  0  0  0  0  0  0  0  0  0  0  0
    5.7158   -4.1250    0.0000 C   0  0  0  0  0  0  0  0  0  0  0  0
    6.4302   -3.7125    0.0000 C   0  0  0  0  0  0  0  0  0  0  0  0
    7.1447   -4.1250    0.0000 C   0  0  0  0  0  0  0  0  0  0  0  0
    7.1447   -4.9500    0.0000 C   0  0  0  0  0  0  0  0  0  0  0  0
    6.4302   -5.3625    0.0000 C   0  0  0  0  0  0  0  0  0  0  0  0
    5.7158   -4.9500    0.0000 C   0  0  0  0  0  0  0  0  0  0  0  0
    0.0000   -4.1250    0.0000 O   0  0  0  0  0  0  0  0  0  0  0  0
   -0.7145   -3.7125    0.0000 C   0  0  2  0  0  0  0  0  0  0  0  0
   -1.4289   -4.1250    0.0000 C   0  0  0  0  0  0  0  0  0  0  0  0
   -2.1434   -3.7125    0.0000 O   0  0  0  0  0  0  0  0  0  0  0  0
   -2.1434   -1.2375    0.0000 C   0  0  2  0  0  0  0  0  0  0  0  0
   -2.8579   -1.6500    0.0000 O   0  0  0  0  0  0  0  0  0  0  0  0
   -2.1434   -0.4125    0.0000 C   0  0  1  0  0  0  0  0  0  0  0  0
   -2.8579    0.0000    0.0000 O   0  0  0  0  0  0  0  0  0  0  0  0
   -1.4289    0.0000    0.0000 C   0  0  2  0  0  0  0  0  0  0  0  0
   -1.4289    0.8250    0.0000 O   0  0  0  0  0  0  0  0  0  0  0  0
  1  2  1  0  0  0  0
  3  2  1  1  0  0  0
  3  4  1  0  0  0  0
  4  5  1  0  0  0  0
  5  6  1  6  0  0  0
  7  6  1  1  0  0  0
  7  8  1  0  0  0  0
  8  9  1  6  0  0  0
  8 10  1  0  0  0  0
 10 11  1  1  0  0  0
 10 12  1  0  0  0  0
 12 13  1  6  0  0  0
 13 14  1  0  0  0  0
 14 15  1  0  0  0  0
 15 16  1  0  0  0  0
 16 17  1  0  0  0  0
 17 18  1  0  0  0  0
 18 19  1  0  0  0  0
 19 20  1  0  0  0  0
 20 21  1  0  0  0  0
 21 22  1  0  0  0  0
 22 23  1  0  0  0  0
 23 24  1  0  0  0  0
 19 24  1  0  0  0  0
 12 25  1  0  0  0  0
 25 26  1  0  0  0  0
  7 26  1  0  0  0  0
 26 27  1  6  0  0  0
 27 28  1  0  0  0  0
  5 29  1  0  0  0  0
 29 30  1  6  0  0  0
 29 31  1  0  0  0  0
 31 32  1  1  0  0  0
 31 33  1  0  0  0  0
  3 33  1  0  0  0  0
 33 34  1  6  0  0  0
M  END
> <DATABASE_ID>
DB04664

> <DATABASE_NAME>
drugbank

> <SMILES>
OC[C@H]1O[C@H](O[C@H]2[C@H](O)[C@@H](O)[C@H](OCCCCCC3CCCCC3)O[C@@H]2CO)[C@H](O)[C@@H](O)[C@@H]1O

> <INCHI_IDENTIFIER>
InChI=1S/C23H42O11/c24-11-14-16(26)17(27)19(29)23(32-14)34-21-15(12-25)33-22(20(30)18(21)28)31-10-6-2-5-9-13-7-3-1-4-8-13/h13-30H,1-12H2/t14-,15-,16-,17+,18-,19-,20-,21-,22-,23-/m1/s1

> <INCHI_KEY>
RVTGFZGNOSKUDA-ZNGNCRBCSA-N

> <FORMULA>
C23H42O11

> <MOLECULAR_WEIGHT>
494.573

> <EXACT_MASS>
494.272712186

> <JCHEM_ACCEPTOR_COUNT>
11

> <JCHEM_ATOM_COUNT>
76

> <JCHEM_AVERAGE_NEUTRAL_MICROSPECIES_CHARGE>
-1.9006992299223602e-05

> <JCHEM_AVERAGE_POLARIZABILITY>
53.22349278541226

> <JCHEM_BIOAVAILABILITY>
0

> <JCHEM_DONOR_COUNT>
7

> <JCHEM_FORMAL_CHARGE>
0

> <JCHEM_GHOSE_FILTER>
0

> <JCHEM_IUPAC>
(2R,3R,4S,5S,6R)-2-{[(2R,3S,4R,5R,6R)-6-[(5-cyclohexylpentyl)oxy]-4,5-dihydroxy-2-(hydroxymethyl)oxan-3-yl]oxy}-6-(hydroxymethyl)oxane-3,4,5-triol

> <ALOGPS_LOGP>
0.28

> <JCHEM_LOGP>
-0.24564416166666675

> <ALOGPS_LOGS>
-2.00

> <JCHEM_MDDR_LIKE_RULE>
1

> <JCHEM_NEUTRAL_CHARGE>
0

> <JCHEM_NUMBER_OF_RINGS>
3

> <JCHEM_PHYSIOLOGICAL_CHARGE>
0

> <JCHEM_PKA>
12.486202997409404

> <JCHEM_PKA_STRONGEST_ACIDIC>
11.93997597977382

> <JCHEM_PKA_STRONGEST_BASIC>
-2.9810835652988272

> <JCHEM_POLAR_SURFACE_AREA>
178.53

> <JCHEM_REFRACTIVITY>
117.3139

> <JCHEM_ROTATABLE_BOND_COUNT>
11

> <JCHEM_RULE_OF_FIVE>
0

> <ALOGPS_SOLUBILITY>
4.92e+00 g/l

> <JCHEM_TRADITIONAL_IUPAC>
biotin

> <JCHEM_VEBER_RULE>
0

> <DRUGBANK_ID>
DB04664

> <DRUG_GROUPS>
experimental

> <GENERIC_NAME>
Cyclohexyl-pentyl-maltoside

> <SYNONYMS>
5-cyclohexyl-1-pentyl-beta-D-maltoside; CYMAL-5; CYMAL(R)-5

$$$$
