
  Mrv0541 09131211472D          

 26 28  0  0  0  0            999 V2000
   -5.7158    8.2500    0.0000 C   0  0  0  0  0  0  0  0  0  0  0  0
   -5.0013    9.4875    0.0000 C   0  0  0  0  0  0  0  0  0  0  0  0
   -1.4289    3.3000    0.0000 C   0  0  0  0  0  0  0  0  0  0  0  0
   -0.7145    3.7125    0.0000 C   0  0  0  0  0  0  0  0  0  0  0  0
   -2.1434    3.7125    0.0000 C   0  0  0  0  0  0  0  0  0  0  0  0
   -0.7145    4.5375    0.0000 C   0  0  0  0  0  0  0  0  0  0  0  0
   -2.1434    4.5375    0.0000 C   0  0  0  0  0  0  0  0  0  0  0  0
   -0.7145    8.6625    0.0000 C   0  0  0  0  0  0  0  0  0  0  0  0
    0.0000    7.4250    0.0000 C   0  0  0  0  0  0  0  0  0  0  0  0
   -1.4289    8.2500    0.0000 C   0  0  0  0  0  0  0  0  0  0  0  0
   -0.7145    7.0125    0.0000 C   0  0  0  0  0  0  0  0  0  0  0  0
   -2.8579    8.2500    0.0000 C   0  0  0  0  0  0  0  0  0  0  0  0
   -3.5724    7.0125    0.0000 C   0  0  0  0  0  0  0  0  0  0  0  0
   -3.5724    8.6625    0.0000 C   0  0  0  0  0  0  0  0  0  0  0  0
   -4.2868    7.4250    0.0000 C   0  0  0  0  0  0  0  0  0  0  0  0
   -1.4289    5.7750    0.0000 C   0  0  0  0  0  0  0  0  0  0  0  0
   -5.0013    8.6625    0.0000 C   0  0  0  0  0  0  0  0  0  0  0  0
   -1.4289    4.9500    0.0000 C   0  0  0  0  0  0  0  0  0  0  0  0
    0.0000    8.2500    0.0000 C   0  0  0  0  0  0  0  0  0  0  0  0
   -1.4289    7.4250    0.0000 C   0  0  0  0  0  0  0  0  0  0  0  0
   -2.8579    7.4250    0.0000 C   0  0  0  0  0  0  0  0  0  0  0  0
   -2.1434    6.1875    0.0000 C   0  0  0  0  0  0  0  0  0  0  0  0
    0.7145    8.6625    0.0000 Cl  0  0  0  0  0  0  0  0  0  0  0  0
   -4.2868    8.2500    0.0000 N   0  0  0  0  0  0  0  0  0  0  0  0
   -2.1434    7.0125    0.0000 N   0  0  0  0  0  0  0  0  0  0  0  0
   -2.8579    5.7750    0.0000 O   0  0  0  0  0  0  0  0  0  0  0  0
  4  3  2  0  0  0  0
  5  3  1  0  0  0  0
  6  4  1  0  0  0  0
  7  5  2  0  0  0  0
 10  8  1  0  0  0  0
 11  9  2  0  0  0  0
 14 12  1  0  0  0  0
 15 13  1  0  0  0  0
 17  1  1  0  0  0  0
 17  2  1  0  0  0  0
 18  6  2  0  0  0  0
 18  7  1  0  0  0  0
 18 16  1  0  0  0  0
 19  8  2  0  0  0  0
 19  9  1  0  0  0  0
 20 10  2  0  0  0  0
 20 11  1  0  0  0  0
 21 12  1  0  0  0  0
 21 13  1  0  0  0  0
 22 16  1  0  0  0  0
 23 19  1  0  0  0  0
 24 14  1  0  0  0  0
 24 15  1  0  0  0  0
 24 17  1  0  0  0  0
 25 20  1  0  0  0  0
 25 21  1  0  0  0  0
 25 22  1  0  0  0  0
 26 22  2  0  0  0  0
M  END
> <DATABASE_ID>
DB13653

> <DATABASE_NAME>
drugbank

> <SMILES>
CC(C)N1CCC(CC1)N(C(=O)CC1=CC=CC=C1)C1=CC=C(Cl)C=C1

> <INCHI_IDENTIFIER>
InChI=1S/C22H27ClN2O/c1-17(2)24-14-12-21(13-15-24)25(20-10-8-19(23)9-11-20)22(26)16-18-6-4-3-5-7-18/h3-11,17,21H,12-16H2,1-2H3

> <INCHI_KEY>
XHOJAWVAWFHGHL-UHFFFAOYSA-N

> <FORMULA>
C22H27ClN2O

> <MOLECULAR_WEIGHT>
370.916

> <EXACT_MASS>
370.181191203

> <JCHEM_ACCEPTOR_COUNT>
2

> <JCHEM_ATOM_COUNT>
53

> <JCHEM_AVERAGE_NEUTRAL_MICROSPECIES_CHARGE>
0.9855444872236514

> <JCHEM_AVERAGE_POLARIZABILITY>
40.87553385644177

> <JCHEM_BIOAVAILABILITY>
1

> <JCHEM_DONOR_COUNT>
0

> <JCHEM_FORMAL_CHARGE>
0

> <JCHEM_GHOSE_FILTER>
1

> <JCHEM_IUPAC>
N-(4-chlorophenyl)-2-phenyl-N-[1-(propan-2-yl)piperidin-4-yl]acetamide

> <ALOGPS_LOGP>
4.59

> <JCHEM_LOGP>
4.313595854333333

> <ALOGPS_LOGS>
-4.69

> <JCHEM_MDDR_LIKE_RULE>
0

> <JCHEM_NEUTRAL_CHARGE>
1

> <JCHEM_NUMBER_OF_RINGS>
3

> <JCHEM_PHYSIOLOGICAL_CHARGE>
1

> <JCHEM_PKA_STRONGEST_BASIC>
8.833642729785103

> <JCHEM_POLAR_SURFACE_AREA>
23.55

> <JCHEM_REFRACTIVITY>
108.18209999999999

> <JCHEM_ROTATABLE_BOND_COUNT>
5

> <JCHEM_RULE_OF_FIVE>
1

> <ALOGPS_SOLUBILITY>
7.49e-03 g/l

> <JCHEM_TRADITIONAL_IUPAC>
biotin

> <JCHEM_VEBER_RULE>
1

> <DRUGBANK_ID>
DB13653

> <DRUG_GROUPS>
experimental

> <GENERIC_NAME>
Lorcainide

> <SYNONYMS>
Lorcainide

$$$$
