
  Mrv0541 02231217492D          

 15 16  0  0  0  0            999 V2000
    0.0000   -2.4750    0.0000 O   0  0  0  0  0  0  0  0  0  0  0  0
    0.0000   -1.6500    0.0000 C   0  0  0  0  0  0  0  0  0  0  0  0
   -0.7145   -1.2375    0.0000 O   0  0  0  0  0  0  0  0  0  0  0  0
    0.7145   -1.2375    0.0000 C   0  0  0  0  0  0  0  0  0  0  0  0
    0.7145   -0.4125    0.0000 C   0  0  0  0  0  0  0  0  0  0  0  0
    0.0000    0.0000    0.0000 O   0  0  0  0  0  0  0  0  0  0  0  0
    1.4289    0.0000    0.0000 C   0  0  0  0  0  0  0  0  0  0  0  0
    2.1434   -0.4125    0.0000 C   0  0  0  0  0  0  0  0  0  0  0  0
    2.8579    0.0000    0.0000 C   0  0  0  0  0  0  0  0  0  0  0  0
    3.5724   -0.4125    0.0000 C   0  0  0  0  0  0  0  0  0  0  0  0
    3.5724   -1.2375    0.0000 C   0  0  0  0  0  0  0  0  0  0  0  0
    4.2868   -1.6500    0.0000 O   0  0  0  0  0  0  0  0  0  0  0  0
    2.8579   -1.6500    0.0000 C   0  0  0  0  0  0  0  0  0  0  0  0
    2.1434   -1.2375    0.0000 C   0  0  0  0  0  0  0  0  0  0  0  0
    1.4289   -1.6500    0.0000 C   0  0  0  0  0  0  0  0  0  0  0  0
  1  2  1  0  0  0  0
  2  3  2  0  0  0  0
  2  4  1  0  0  0  0
  4  5  2  0  0  0  0
  5  6  1  0  0  0  0
  5  7  1  0  0  0  0
  7  8  2  0  0  0  0
  8  9  1  0  0  0  0
  9 10  2  0  0  0  0
 10 11  1  0  0  0  0
 11 12  1  0  0  0  0
 11 13  2  0  0  0  0
 13 14  1  0  0  0  0
  8 14  1  0  0  0  0
 14 15  2  0  0  0  0
  4 15  1  0  0  0  0
M  END
> <DATABASE_ID>
DB04641

> <DATABASE_NAME>
drugbank

> <SMILES>
OC(=O)C1=C(O)C=C2C=CC(O)=CC2=C1

> <INCHI_IDENTIFIER>
InChI=1S/C11H8O4/c12-8-2-1-6-5-10(13)9(11(14)15)4-7(6)3-8/h1-5,12-13H,(H,14,15)

> <INCHI_KEY>
QMWOUSYSNFCKAZ-UHFFFAOYSA-N

> <FORMULA>
C11H8O4

> <MOLECULAR_WEIGHT>
204.1788

> <EXACT_MASS>
204.042258744

> <JCHEM_ACCEPTOR_COUNT>
4

> <JCHEM_ATOM_COUNT>
23

> <JCHEM_AVERAGE_NEUTRAL_MICROSPECIES_CHARGE>
-1.0015560106856927

> <JCHEM_AVERAGE_POLARIZABILITY>
19.765434845016745

> <JCHEM_BIOAVAILABILITY>
1

> <JCHEM_DONOR_COUNT>
3

> <JCHEM_FORMAL_CHARGE>
0

> <JCHEM_GHOSE_FILTER>
1

> <JCHEM_IUPAC>
3,7-dihydroxynaphthalene-2-carboxylic acid

> <ALOGPS_LOGP>
2.38

> <JCHEM_LOGP>
2.663174837333333

> <ALOGPS_LOGS>
-2.62

> <JCHEM_MDDR_LIKE_RULE>
0

> <JCHEM_NEUTRAL_CHARGE>
-1

> <JCHEM_NUMBER_OF_RINGS>
2

> <JCHEM_PHYSIOLOGICAL_CHARGE>
-1

> <JCHEM_PKA>
9.794152770385821

> <JCHEM_PKA_STRONGEST_ACIDIC>
2.691047411302435

> <JCHEM_PKA_STRONGEST_BASIC>
-5.496940951452176

> <JCHEM_POLAR_SURFACE_AREA>
77.76

> <JCHEM_REFRACTIVITY>
53.72619999999999

> <JCHEM_ROTATABLE_BOND_COUNT>
1

> <JCHEM_RULE_OF_FIVE>
1

> <ALOGPS_SOLUBILITY>
4.90e-01 g/l

> <JCHEM_TRADITIONAL_IUPAC>
tetrahydrofolic acid

> <JCHEM_VEBER_RULE>
0

> <DRUGBANK_ID>
DB04641

> <DRUG_GROUPS>
experimental

> <GENERIC_NAME>
3,7-DIHYDROXYNAPHTHALENE-2-CARBOXYLIC ACID

$$$$
