
  Mrv0541 02241215122D          

  1  0  0  0  0  0            999 V2000
    0.0000    0.0000    0.0000 He  0  0  0  0  0  0  0  0  0  0  0  0
M  END
> <DATABASE_ID>
DB09155

> <DATABASE_NAME>
drugbank

> <SMILES>
[He]

> <INCHI_IDENTIFIER>
InChI=1S/He

> <INCHI_KEY>
SWQJXJOGLNCZEY-UHFFFAOYSA-N

> <FORMULA>
He

> <MOLECULAR_WEIGHT>
4.0026

> <EXACT_MASS>
4.00260325

> <JCHEM_ACCEPTOR_COUNT>
0

> <JCHEM_ATOM_COUNT>
1

> <JCHEM_AVERAGE_NEUTRAL_MICROSPECIES_CHARGE>
0.0

> <JCHEM_AVERAGE_POLARIZABILITY>
1.7784

> <JCHEM_BIOAVAILABILITY>
1

> <JCHEM_DONOR_COUNT>
0

> <JCHEM_FORMAL_CHARGE>
0

> <JCHEM_GHOSE_FILTER>
0

> <JCHEM_IUPAC>
helium

> <JCHEM_LOGP>
0.0

> <JCHEM_MDDR_LIKE_RULE>
0

> <JCHEM_NEUTRAL_CHARGE>
0

> <JCHEM_NUMBER_OF_RINGS>
0

> <JCHEM_PHYSIOLOGICAL_CHARGE>
0

> <JCHEM_POLAR_SURFACE_AREA>
0.0

> <JCHEM_REFRACTIVITY>
0.0

> <JCHEM_ROTATABLE_BOND_COUNT>
0

> <JCHEM_RULE_OF_FIVE>
1

> <JCHEM_TRADITIONAL_IUPAC>
tetrahydrofolic acid

> <JCHEM_VEBER_RULE>
1

> <DRUGBANK_ID>
DB09155

> <DRUG_GROUPS>
approved; investigational; vet_approved

> <GENERIC_NAME>
Helium

> <SYNONYMS>
[He]; atomic helium; Helium

> <PRODUCTS>
COMPRESSED Gas OXIDIZING, N.O.S.; COMPRESSED Gas, N.O.S.; Carbon Monox, Helium, Oxygen, Nitrogen L.D.M.; Co-HE-O2-N2 Mixture; Compressed, N.O.S.; Gaseous Inh Mixture 20% Oxygen 80% Helium; Heliox; Heliox 70/30; Helium; Helium / Oxygen Mixture; Helium 100%; Helium Compressed USP; Helium Oxygen; Helium Oxygen Mix; Helium Oxygen Mix 70/30; Helium Oxygen Mix 80/20; Helium Oxygen Mixture; Helium Oxygen Nitrogen mixture; Helium Oxygen mixture; Helium USP; Helium, Oxygen; Helium-Oxygen-Nitrogen Mixture; Helium-oxygen Mix Gas; Helium-oxygen Mixture; Helium/Oxygen Mixture 70/30; Helium/Oxygen Mixture 80/20; Lung Diffusion Test Mix Nohco; Lung Diffusion Test Mixture; Lung Diffusion Test Mixture Gas; Oxygen Helium Mixture; Oxygen Helium Mixture 20/80; Oxygen Helium Mixture 30/70; Oxygen Helium Mixture 40/60; Oxygen In Helium Mix; Oxygen In Helium Mixture; Oxygen USP, Helium USP, Medical Gas Mixture

$$$$
