
  Mrv0541 02231216212D          

  9  8  0  0  1  0            999 V2000
    1.9520    0.1187    0.0000 N   0  0  0  0  0  0  0  0  0  0  0  0
    1.9520    0.9437    0.0000 C   0  0  2  0  0  0  0  0  0  0  0  0
    1.2375    1.3562    0.0000 C   0  0  0  0  0  0  0  0  0  0  0  0
    0.5230    0.9437    0.0000 C   0  0  0  0  0  0  0  0  0  0  0  0
   -0.1914    1.3562    0.0000 O   0  0  0  0  0  0  0  0  0  0  0  0
    0.5230    0.1187    0.0000 O   0  0  0  0  0  0  0  0  0  0  0  0
    2.6664    1.3562    0.0000 C   0  0  0  0  0  0  0  0  0  0  0  0
    3.3809    0.9437    0.0000 O   0  0  0  0  0  0  0  0  0  0  0  0
    2.6664    2.1812    0.0000 O   0  0  0  0  0  0  0  0  0  0  0  0
  2  1  1  6  0  0  0
  2  3  1  0  0  0  0
  3  4  1  0  0  0  0
  4  5  1  0  0  0  0
  4  6  2  0  0  0  0
  2  7  1  0  0  0  0
  7  8  1  0  0  0  0
  7  9  2  0  0  0  0
M  END
> <DATABASE_ID>
DB02655

> <DATABASE_NAME>
drugbank

> <SMILES>
N[C@H](CC(O)=O)C(O)=O

> <INCHI_IDENTIFIER>
InChI=1S/C4H7NO4/c5-2(4(8)9)1-3(6)7/h2H,1,5H2,(H,6,7)(H,8,9)/t2-/m1/s1

> <INCHI_KEY>
CKLJMWTZIZZHCS-UWTATZPHSA-N

> <FORMULA>
C4H7NO4

> <MOLECULAR_WEIGHT>
133.1027

> <EXACT_MASS>
133.037507717

> <JCHEM_ACCEPTOR_COUNT>
5

> <JCHEM_ATOM_COUNT>
16

> <JCHEM_AVERAGE_NEUTRAL_MICROSPECIES_CHARGE>
-0.9896009128120873

> <JCHEM_AVERAGE_POLARIZABILITY>
11.347850299850892

> <JCHEM_BIOAVAILABILITY>
1

> <JCHEM_DONOR_COUNT>
3

> <JCHEM_FORMAL_CHARGE>
0

> <JCHEM_GHOSE_FILTER>
0

> <JCHEM_IUPAC>
(2R)-2-aminobutanedioic acid

> <ALOGPS_LOGP>
-3.52

> <JCHEM_LOGP>
-3.5037527551764525

> <ALOGPS_LOGS>
0.03

> <JCHEM_MDDR_LIKE_RULE>
0

> <JCHEM_NEUTRAL_CHARGE>
-1

> <JCHEM_NUMBER_OF_RINGS>
0

> <JCHEM_PHYSIOLOGICAL_CHARGE>
-1

> <JCHEM_PKA>
5.113750094894903

> <JCHEM_PKA_STRONGEST_ACIDIC>
1.7025435921010492

> <JCHEM_PKA_STRONGEST_BASIC>
9.614153755159162

> <JCHEM_POLAR_SURFACE_AREA>
100.62

> <JCHEM_REFRACTIVITY>
26.532700000000002

> <JCHEM_ROTATABLE_BOND_COUNT>
3

> <JCHEM_RULE_OF_FIVE>
1

> <ALOGPS_SOLUBILITY>
1.42e+02 g/l

> <JCHEM_TRADITIONAL_IUPAC>
tetrahydrofolic acid

> <JCHEM_VEBER_RULE>
0

> <DRUGBANK_ID>
DB02655

> <SECONDARY_ACCESSION_NUMBERS>
EXPT01114

> <DRUG_GROUPS>
experimental

> <GENERIC_NAME>
D-Aspartic Acid

$$$$
