
  Mrv0541 05041405292D          

 18 19  0  0  1  0            999 V2000
    3.3523    1.1104    0.0000 C   0  0  0  0  0  0  0  0  0  0  0  0
    3.3523    1.9354    0.0000 C   0  0  0  0  0  0  0  0  0  0  0  0
    2.6378    0.6979    0.0000 C   0  0  0  0  0  0  0  0  0  0  0  0
    2.6378    2.3479    0.0000 C   0  0  0  0  0  0  0  0  0  0  0  0
    0.6538    1.5229    0.0000 C   0  0  0  0  0  0  0  0  0  0  0  0
    1.9233    1.1104    0.0000 C   0  0  0  0  0  0  0  0  0  0  0  0
    1.1387    0.8555    0.0000 C   0  0  0  0  0  0  0  0  0  0  0  0
    1.9233    1.9354    0.0000 C   0  0  0  0  0  0  0  0  0  0  0  0
    1.4358   -0.5422    0.0000 C   0  0  1  0  0  0  0  0  0  0  0  0
    0.8838    0.0709    0.0000 C   0  0  1  0  0  0  0  0  0  0  0  0
    1.1809   -1.3268    0.0000 C   0  0  0  0  0  0  0  0  0  0  0  0
    2.2428   -0.3707    0.0000 N   0  0  0  0  0  0  0  0  0  0  0  0
    1.1387    2.1904    0.0000 N   0  0  0  0  0  0  0  0  0  0  0  0
    0.0768   -0.1006    0.0000 O   0  0  0  0  0  0  0  0  0  0  0  0
    1.7329   -1.9399    0.0000 O   0  0  0  0  0  0  0  0  0  0  0  0
    0.3739   -1.4984    0.0000 O   0  0  0  0  0  0  0  0  0  0  0  0
    0.6288   -0.7137    0.0000 H   0  0  0  0  0  0  0  0  0  0  0  0
    1.6908    0.2424    0.0000 H   0  0  0  0  0  0  0  0  0  0  0  0
  2  1  2  0  0  0  0
  3  1  1  0  0  0  0
  4  2  1  0  0  0  0
  6  3  2  0  0  0  0
  7  5  2  0  0  0  0
  7  6  1  0  0  0  0
  8  4  2  0  0  0  0
  8  6  1  0  0  0  0
 10  7  1  0  0  0  0
 10  9  1  0  0  0  0
 11  9  1  0  0  0  0
  9 12  1  1  0  0  0
 13  5  1  0  0  0  0
 13  8  1  0  0  0  0
 10 14  1  6  0  0  0
 15 11  2  0  0  0  0
 16 11  1  0  0  0  0
  9 17  1  1  0  0  0
 10 18  1  6  0  0  0
M  END
> <DATABASE_ID>
DB04159

> <DATABASE_NAME>
drugbank

> <SMILES>
[H][C@@](N)(C(O)=O)[C@@]([H])(O)C1=CNC2=CC=CC=C12

> <INCHI_IDENTIFIER>
InChI=1S/C11H12N2O3/c12-9(11(15)16)10(14)7-5-13-8-4-2-1-3-6(7)8/h1-5,9-10,13-14H,12H2,(H,15,16)/t9-,10-/m0/s1

> <INCHI_KEY>
ITFHGBKXKUVKBW-UWVGGRQHSA-N

> <FORMULA>
C11H12N2O3

> <MOLECULAR_WEIGHT>
220.2246

> <EXACT_MASS>
220.08479226

> <JCHEM_ACCEPTOR_COUNT>
4

> <JCHEM_ATOM_COUNT>
28

> <JCHEM_AVERAGE_NEUTRAL_MICROSPECIES_CHARGE>
-0.014450836542962132

> <JCHEM_AVERAGE_POLARIZABILITY>
21.587112112097664

> <JCHEM_BIOAVAILABILITY>
1

> <JCHEM_DONOR_COUNT>
4

> <JCHEM_FORMAL_CHARGE>
0

> <JCHEM_GHOSE_FILTER>
0

> <JCHEM_IUPAC>
(2S,3S)-2-amino-3-hydroxy-3-(1H-indol-3-yl)propanoic acid

> <ALOGPS_LOGP>
-1.23

> <JCHEM_LOGP>
-2.0038115622383503

> <ALOGPS_LOGS>
-1.37

> <JCHEM_MDDR_LIKE_RULE>
0

> <JCHEM_NEUTRAL_CHARGE>
0

> <JCHEM_NUMBER_OF_RINGS>
2

> <JCHEM_PHYSIOLOGICAL_CHARGE>
0

> <JCHEM_PKA>
13.989102978389742

> <JCHEM_PKA_STRONGEST_ACIDIC>
2.299924436678859

> <JCHEM_PKA_STRONGEST_BASIC>
8.833191872669339

> <JCHEM_POLAR_SURFACE_AREA>
99.34000000000002

> <JCHEM_REFRACTIVITY>
57.4103

> <JCHEM_ROTATABLE_BOND_COUNT>
3

> <JCHEM_RULE_OF_FIVE>
1

> <ALOGPS_SOLUBILITY>
9.39e+00 g/l

> <JCHEM_TRADITIONAL_IUPAC>
biotin

> <JCHEM_VEBER_RULE>
0

> <DRUGBANK_ID>
DB04159

> <SECONDARY_ACCESSION_NUMBERS>
EXPT01793

> <DRUG_GROUPS>
experimental

> <GENERIC_NAME>
Beta-Hydroxytryptophane

$$$$
