
  Mrv0541 05041412152D          

 12 13  0  0  0  0            999 V2000
    3.3523    1.1104    0.0000 C   0  0  0  0  0  0  0  0  0  0  0  0
    3.3523    1.9354    0.0000 C   0  0  0  0  0  0  0  0  0  0  0  0
    2.6378    0.6979    0.0000 C   0  0  0  0  0  0  0  0  0  0  0  0
    2.6378    2.3479    0.0000 C   0  0  0  0  0  0  0  0  0  0  0  0
    1.9233    1.1104    0.0000 C   0  0  0  0  0  0  0  0  0  0  0  0
    1.9233    1.9354    0.0000 C   0  0  0  0  0  0  0  0  0  0  0  0
    0.6538    1.5229    0.0000 C   0  0  0  0  0  0  0  0  0  0  0  0
   -0.1712    1.5229    0.0000 C   0  0  0  0  0  0  0  0  0  0  0  0
    1.1387    0.8555    0.0000 N   0  0  0  0  0  0  0  0  0  0  0  0
    1.1387    2.1904    0.0000 N   0  0  0  0  0  0  0  0  0  0  0  0
   -0.5837    0.8085    0.0000 O   0  0  0  0  0  0  0  0  0  0  0  0
   -0.5837    2.2374    0.0000 O   0  0  0  0  0  0  0  0  0  0  0  0
  2  1  2  0  0  0  0
  3  1  1  0  0  0  0
  4  2  1  0  0  0  0
  5  3  2  0  0  0  0
  6  4  2  0  0  0  0
  6  5  1  0  0  0  0
  8  7  1  0  0  0  0
  9  5  1  0  0  0  0
  9  7  1  0  0  0  0
 10  6  1  0  0  0  0
 10  7  2  0  0  0  0
 11  8  1  0  0  0  0
 12  8  2  0  0  0  0
M  END
> <DATABASE_ID>
DB03028

> <DATABASE_NAME>
drugbank

> <SMILES>
OC(=O)C1=NC2=CC=CC=C2N1

> <INCHI_IDENTIFIER>
InChI=1S/C8H6N2O2/c11-8(12)7-9-5-3-1-2-4-6(5)10-7/h1-4H,(H,9,10)(H,11,12)

> <INCHI_KEY>
RHXSYTACTOMVLJ-UHFFFAOYSA-N

> <FORMULA>
C8H6N2O2

> <MOLECULAR_WEIGHT>
162.1454

> <EXACT_MASS>
162.042927446

> <JCHEM_ACCEPTOR_COUNT>
3

> <JCHEM_ATOM_COUNT>
18

> <JCHEM_AVERAGE_NEUTRAL_MICROSPECIES_CHARGE>
-0.9594992239759808

> <JCHEM_AVERAGE_POLARIZABILITY>
15.648907621725428

> <JCHEM_BIOAVAILABILITY>
1

> <JCHEM_DONOR_COUNT>
2

> <JCHEM_FORMAL_CHARGE>
0

> <JCHEM_GHOSE_FILTER>
0

> <JCHEM_IUPAC>
1H-1,3-benzodiazole-2-carboxylic acid

> <ALOGPS_LOGP>
1.30

> <JCHEM_LOGP>
0.7669174686255896

> <ALOGPS_LOGS>
-1.72

> <JCHEM_MDDR_LIKE_RULE>
0

> <JCHEM_NEUTRAL_CHARGE>
-1

> <JCHEM_NUMBER_OF_RINGS>
2

> <JCHEM_PHYSIOLOGICAL_CHARGE>
-1

> <JCHEM_PKA>
11.876584835887824

> <JCHEM_PKA_STRONGEST_ACIDIC>
1.8267355930530107

> <JCHEM_PKA_STRONGEST_BASIC>
3.6389521662016757

> <JCHEM_POLAR_SURFACE_AREA>
65.97999999999999

> <JCHEM_REFRACTIVITY>
41.7019

> <JCHEM_ROTATABLE_BOND_COUNT>
1

> <JCHEM_RULE_OF_FIVE>
1

> <ALOGPS_SOLUBILITY>
3.12e+00 g/l

> <JCHEM_TRADITIONAL_IUPAC>
tetrahydrofolic acid

> <JCHEM_VEBER_RULE>
0

> <DRUGBANK_ID>
DB03028

> <SECONDARY_ACCESSION_NUMBERS>
EXPT03110

> <DRUG_GROUPS>
experimental

> <GENERIC_NAME>
1h-Benoximidazole-2-Carboxylic Acid

$$$$
