 
  Mrv0541 07171214112D          
 
 58 60  0  0  1  0            999 V2000
   22.2740  -12.4108    0.0000 C   0  0  2  0  0  0  0  0  0  0  0  0
   22.2740  -13.2452    0.0000 C   0  0  1  0  0  0  0  0  0  0  0  0
   21.5505  -11.9996    0.0000 O   0  0  0  0  0  0  0  0  0  0  0  0
   22.9851  -11.9996    0.0000 O   0  0  0  0  0  0  0  0  0  0  0  0
   21.5505  -13.6685    0.0000 C   0  0  2  0  0  0  0  0  0  0  0  0
   23.0756  -13.9933    0.0000 N   0  0  0  0  0  0  0  0  0  0  0  0
   20.8353  -12.4108    0.0000 C   0  0  1  0  0  0  0  0  0  0  0  0
   23.8114  -11.9996    0.0000 P   0  0  0  0  0  0  0  0  0  0  0  0
   20.8353  -13.2452    0.0000 C   0  0  1  0  0  0  0  0  0  0  0  0
   21.5505  -14.4865    0.0000 O   0  0  0  0  0  0  0  0  0  0  0  0
   23.0838  -14.8195    0.0000 C   0  0  0  0  0  0  0  0  0  0  0  0
   20.1283  -11.9996    0.0000 C   0  0  0  0  0  0  0  0  0  0  0  0
   24.6376  -11.9996    0.0000 O   0  0  0  0  0  0  0  0  0  0  0  0
   23.8114  -11.1776    0.0000 O   0  0  0  0  0  0  0  0  0  0  0  0
   23.8114  -12.8218    0.0000 O   0  0  0  0  0  0  0  0  0  0  0  0
   20.1200  -13.6521    0.0000 O   0  0  0  0  0  0  0  0  0  0  0  0
   20.8353  -14.8977    0.0000 C   0  0  1  0  0  0  0  0  0  0  0  0
   23.7908  -15.2264    0.0000 C   0  0  0  0  0  0  0  0  0  0  0  0
   22.3685  -15.2306    0.0000 O   0  0  0  0  0  0  0  0  0  0  0  0
   20.1160  -11.1734    0.0000 O   0  0  0  0  0  0  0  0  0  0  0  0
   25.4556  -11.9996    0.0000 P   0  0  0  0  0  0  0  0  0  0  0  0
   20.8312  -15.7239    0.0000 C   0  0  0  0  0  0  0  0  0  0  0  0
   20.1200  -14.4865    0.0000 C   0  0  0  0  0  0  0  0  0  0  0  0
   26.2819  -11.9996    0.0000 O   0  0  0  0  0  0  0  0  0  0  0  0
   25.4556  -11.1776    0.0000 O   0  0  0  0  0  0  0  0  0  0  0  0
   25.4556  -12.8218    0.0000 O   0  0  0  0  0  0  0  0  0  0  0  0
   19.9186  -16.4267    0.0000 N   0  0  0  0  0  0  0  0  0  0  0  0
   21.5465  -16.1349    0.0000 O   0  0  0  0  0  0  0  0  0  0  0  0
   26.4544  -12.8054    0.0000 C   0  0  0  0  0  0  0  0  0  0  0  0
   19.9104  -17.2407    0.0000 C   0  0  2  0  0  0  0  0  0  0  0  0
   27.2395  -13.0561    0.0000 C   0  0  1  0  0  0  0  0  0  0  0  0
   19.1212  -17.5120    0.0000 C   0  0  0  0  0  0  0  0  0  0  0  0
   20.6092  -17.7051    0.0000 C   0  0  0  0  0  0  0  0  0  0  0  0
   27.9014  -12.5834    0.0000 O   0  0  0  0  0  0  0  0  0  0  0  0
   27.5109  -13.8412    0.0000 C   0  0  2  0  0  0  0  0  0  0  0  0
   18.4511  -17.0270    0.0000 N   0  0  0  0  0  0  0  0  0  0  0  0
   19.1212  -18.3300    0.0000 O   0  0  0  0  0  0  0  0  0  0  0  0
   28.5755  -13.0725    0.0000 C   0  0  2  0  0  0  0  0  0  0  0  0
   28.3331  -13.8412    0.0000 C   0  0  2  0  0  0  0  0  0  0  0  0
   27.0258  -14.5154    0.0000 O   0  0  0  0  0  0  0  0  0  0  0  0
   18.1347  -16.1760    0.0000 C   0  0  2  0  0  0  0  0  0  0  0  0
   29.2169  -11.7365    0.0000 N   0  0  0  0  0  0  0  0  0  0  0  0
   28.8181  -14.5072    0.0000 O   0  0  0  0  0  0  0  0  0  0  0  0
   17.3371  -15.9788    0.0000 C   0  0  0  0  0  0  0  0  0  0  0  0
   18.7553  -15.6459    0.0000 C   0  0  0  0  0  0  0  0  0  0  0  0
   28.5098  -11.3091    0.0000 C   0  0  0  0  0  0  0  0  0  0  0  0
   29.9444  -11.3091    0.0000 C   0  0  0  0  0  0  0  0  0  0  0  0
   16.7164  -16.5090    0.0000 C   0  0  0  0  0  0  0  0  0  0  0  0
   19.5569  -15.6436    0.0000 O   0  0  0  0  0  0  0  0  0  0  0  0
   18.4718  -14.8853    0.0000 O   0  0  0  0  0  0  0  0  0  0  0  0
   28.5098  -10.4788    0.0000 N   0  0  0  0  0  0  0  0  0  0  0  0
   27.7946  -11.7202    0.0000 O   0  0  0  0  0  0  0  0  0  0  0  0
   29.9444  -10.4788    0.0000 C   0  0  0  0  0  0  0  0  0  0  0  0
   16.0095  -16.0898    0.0000 C   0  0  0  0  0  0  0  0  0  0  0  0
   29.2209  -10.0636    0.0000 C   0  0  0  0  0  0  0  0  0  0  0  0
   15.3106  -16.5049    0.0000 O   0  0  0  0  0  0  0  0  0  0  0  0
   16.0053  -15.2593    0.0000 O   0  0  0  0  0  0  0  0  0  0  0  0
   29.2209   -9.2414    0.0000 O   0  0  0  0  0  0  0  0  0  0  0  0
  1  2  1  0  0  0  0
  1  3  1  0  0  0  0
  1  4  1  6  0  0  0
  2  5  1  0  0  0  0
  2  6  1  6  0  0  0
  3  7  1  0  0  0  0
  4  8  1  0  0  0  0
  5  9  1  0  0  0  0
  5 10  1  1  0  0  0
  6 11  1  0  0  0  0
  7 12  1  1  0  0  0
  8 13  1  0  0  0  0
  8 14  1  0  0  0  0
  8 15  2  0  0  0  0
  9 16  1  6  0  0  0
 10 17  1  0  0  0  0
 11 18  1  0  0  0  0
 11 19  2  0  0  0  0
 12 20  1  0  0  0  0
 13 21  1  0  0  0  0
 17 22  1  0  0  0  0
 17 23  1  1  0  0  0
 21 24  1  0  0  0  0
 21 25  1  0  0  0  0
 21 26  2  0  0  0  0
 22 27  1  0  0  0  0
 22 28  2  0  0  0  0
 24 29  1  0  0  0  0
 30 27  1  1  0  0  0
 31 29  1  1  0  0  0
 30 32  1  0  0  0  0
 30 33  1  0  0  0  0
 31 34  1  0  0  0  0
 31 35  1  0  0  0  0
 32 36  1  0  0  0  0
 32 37  2  0  0  0  0
 34 38  1  0  0  0  0
 35 39  1  0  0  0  0
 35 40  1  6  0  0  0
 41 36  1  6  0  0  0
 38 42  1  1  0  0  0
 39 43  1  6  0  0  0
 41 44  1  0  0  0  0
 41 45  1  0  0  0  0
 42 46  1  0  0  0  0
 42 47  1  0  0  0  0
 44 48  1  0  0  0  0
 45 49  1  0  0  0  0
 45 50  2  0  0  0  0
 46 51  1  0  0  0  0
 46 52  2  0  0  0  0
 47 53  2  0  0  0  0
 48 54  1  0  0  0  0
 51 55  1  0  0  0  0
 54 56  1  0  0  0  0
 54 57  2  0  0  0  0
 55 58  2  0  0  0  0
  7  9  1  0  0  0  0
 38 39  1  0  0  0  0
 53 55  1  0  0  0  0
M  END
> <DATABASE_ID>
DB02314

> <DATABASE_NAME>
drugbank

> <SMILES>
C[C@H](NC(=O)[C@@H](C)O[C@H]1[C@H](O)[C@@H](CO)O[C@H](OP(O)(=O)OP(O)(=O)OC[C@H]2O[C@H]([C@H](O)[C@@H]2O)N2C=CC(=O)NC2=O)[C@@H]1NC(C)=O)C(=O)N[C@H](CCC(O)=O)C(O)=O

> <INCHI_IDENTIFIER>
InChI=1S/C28H43N5O23P2/c1-10(23(42)31-13(26(44)45)4-5-17(37)38)29-24(43)11(2)52-22-18(30-12(3)35)27(54-14(8-34)20(22)40)55-58(49,50)56-57(47,48)51-9-15-19(39)21(41)25(53-15)33-7-6-16(36)32-28(33)46/h6-7,10-11,13-15,18-22,25,27,34,39-41H,4-5,8-9H2,1-3H3,(H,29,43)(H,30,35)(H,31,42)(H,37,38)(H,44,45)(H,47,48)(H,49,50)(H,32,36,46)/t10-,11+,13+,14+,15+,18+,19+,20+,21+,22+,25+,27+/m0/s1

> <INCHI_KEY>
OJZCATPXPWFLHF-HPUCEMLMSA-N

> <FORMULA>
C28H43N5O23P2

> <MOLECULAR_WEIGHT>
879.6082

> <EXACT_MASS>
879.182405731

> <JCHEM_ACCEPTOR_COUNT>
20

> <JCHEM_ATOM_COUNT>
101

> <JCHEM_AVERAGE_NEUTRAL_MICROSPECIES_CHARGE>
-4.0007193055471015

> <JCHEM_AVERAGE_POLARIZABILITY>
76.18073239334939

> <JCHEM_BIOAVAILABILITY>
0

> <JCHEM_DONOR_COUNT>
12

> <JCHEM_FORMAL_CHARGE>
0

> <JCHEM_GHOSE_FILTER>
0

> <JCHEM_IUPAC>
(2R)-2-[(2S)-2-[(2R)-2-{[(2R,3R,4R,5S,6R)-2-({[({[(2R,3S,4R,5R)-5-(2,4-dioxo-1,2,3,4-tetrahydropyrimidin-1-yl)-3,4-dihydroxyoxolan-2-yl]methoxy}(hydroxy)phosphoryl)oxy](hydroxy)phosphoryl}oxy)-3-acetamido-5-hydroxy-6-(hydroxymethyl)oxan-4-yl]oxy}propanamido]propanamido]pentanedioic acid

> <ALOGPS_LOGP>
-1.24

> <JCHEM_LOGP>
-6.020957917666666

> <ALOGPS_LOGS>
-1.98

> <JCHEM_MDDR_LIKE_RULE>
1

> <JCHEM_NEUTRAL_CHARGE>
-4

> <JCHEM_NUMBER_OF_RINGS>
3

> <JCHEM_PHYSIOLOGICAL_CHARGE>
-4

> <JCHEM_PKA>
2.970916652767934

> <JCHEM_PKA_STRONGEST_ACIDIC>
1.7271156629644828

> <JCHEM_POLAR_SURFACE_AREA>
422.21

> <JCHEM_REFRACTIVITY>
178.27200000000008

> <JCHEM_ROTATABLE_BOND_COUNT>
20

> <JCHEM_RULE_OF_FIVE>
0

> <ALOGPS_SOLUBILITY>
9.13e+00 g/l

> <JCHEM_TRADITIONAL_IUPAC>
tetrahydrofolic acid

> <JCHEM_VEBER_RULE>
0

> <DRUGBANK_ID>
DB02314

> <SECONDARY_ACCESSION_NUMBERS>
EXPT03165

> <DRUG_GROUPS>
experimental

> <GENERIC_NAME>
Uridine-5'-Diphosphate-N-Acetylmuramoyl-L-Alanine-D-Glutamate

$$$$
