
  Mrv0541 05061306192D          

 18 19  0  0  0  0            999 V2000
    0.0000    3.3000    0.0000 C   0  0  0  0  0  0  0  0  0  0  0  0
    6.4302    1.2375    0.0000 C   0  0  0  0  0  0  0  0  0  0  0  0
    0.0000    2.4750    0.0000 C   0  0  0  0  0  0  0  0  0  0  0  0
    0.7145    3.7125    0.0000 C   0  0  0  0  0  0  0  0  0  0  0  0
    6.4302    2.0625    0.0000 C   0  0  0  0  0  0  0  0  0  0  0  0
    5.7158    0.8250    0.0000 C   0  0  0  0  0  0  0  0  0  0  0  0
    0.7145    2.0625    0.0000 C   0  0  0  0  0  0  0  0  0  0  0  0
    1.4289    3.3000    0.0000 C   0  0  0  0  0  0  0  0  0  0  0  0
    5.7158    2.4750    0.0000 C   0  0  0  0  0  0  0  0  0  0  0  0
    5.0013    1.2375    0.0000 C   0  0  0  0  0  0  0  0  0  0  0  0
    1.4289    2.4750    0.0000 C   0  0  0  0  0  0  0  0  0  0  0  0
    5.0013    2.0625    0.0000 C   0  0  0  0  0  0  0  0  0  0  0  0
    2.1434    2.0625    0.0000 C   0  0  0  0  0  0  0  0  0  0  0  0
    4.2868    2.4750    0.0000 C   0  0  0  0  0  0  0  0  0  0  0  0
    2.1434    1.2375    0.0000 O   0  0  0  0  0  0  0  0  0  0  0  0
    4.2868    3.3000    0.0000 O   0  0  0  0  0  0  0  0  0  0  0  0
    2.8579    2.4750    0.0000 O   0  0  0  0  0  0  0  0  0  0  0  0
    3.5724    2.0625    0.0000 O   0  0  0  0  0  0  0  0  0  0  0  0
  3  1  2  0  0  0  0
  4  1  1  0  0  0  0
  5  2  2  0  0  0  0
  6  2  1  0  0  0  0
  7  3  1  0  0  0  0
  8  4  2  0  0  0  0
  9  5  1  0  0  0  0
 10  6  2  0  0  0  0
 11  7  2  0  0  0  0
 11  8  1  0  0  0  0
 12  9  2  0  0  0  0
 12 10  1  0  0  0  0
 13 11  1  0  0  0  0
 14 12  1  0  0  0  0
 15 13  2  0  0  0  0
 16 14  2  0  0  0  0
 17 13  1  0  0  0  0
 18 14  1  0  0  0  0
 18 17  1  0  0  0  0
M  END
> <DATABASE_ID>
DB09096

> <DATABASE_NAME>
drugbank

> <SMILES>
O=C(OOC(=O)C1=CC=CC=C1)C1=CC=CC=C1

> <INCHI_IDENTIFIER>
InChI=1S/C14H10O4/c15-13(11-7-3-1-4-8-11)17-18-14(16)12-9-5-2-6-10-12/h1-10H

> <INCHI_KEY>
OMPJBNCRMGITSC-UHFFFAOYSA-N

> <FORMULA>
C14H10O4

> <MOLECULAR_WEIGHT>
242.2268

> <EXACT_MASS>
242.057908808

> <JCHEM_ACCEPTOR_COUNT>
2

> <JCHEM_ATOM_COUNT>
28

> <JCHEM_AVERAGE_NEUTRAL_MICROSPECIES_CHARGE>
0.0

> <JCHEM_AVERAGE_POLARIZABILITY>
24.157789380183168

> <JCHEM_BIOAVAILABILITY>
1

> <JCHEM_DONOR_COUNT>
0

> <JCHEM_FORMAL_CHARGE>
0

> <JCHEM_GHOSE_FILTER>
1

> <JCHEM_IUPAC>
benzoyl benzenecarboperoxoate

> <ALOGPS_LOGP>
2.75

> <JCHEM_LOGP>
3.946932388

> <ALOGPS_LOGS>
-3.92

> <JCHEM_MDDR_LIKE_RULE>
0

> <JCHEM_NEUTRAL_CHARGE>
0

> <JCHEM_NUMBER_OF_RINGS>
2

> <JCHEM_PHYSIOLOGICAL_CHARGE>
0

> <JCHEM_PKA_STRONGEST_BASIC>
-7.16941978800559

> <JCHEM_POLAR_SURFACE_AREA>
52.60000000000001

> <JCHEM_REFRACTIVITY>
64.77320000000002

> <JCHEM_ROTATABLE_BOND_COUNT>
5

> <JCHEM_RULE_OF_FIVE>
1

> <ALOGPS_SOLUBILITY>
2.94e-02 g/l

> <JCHEM_TRADITIONAL_IUPAC>
tetrahydrofolic acid

> <JCHEM_VEBER_RULE>
0

> <DRUGBANK_ID>
DB09096

> <DRUG_GROUPS>
approved

> <GENERIC_NAME>
Benzoyl peroxide

> <SYNONYMS>
Benzoyl benzenecarboperoxoate; Benzoyl peroxide; Bepio; Peróxido de benzoilo

> <PRODUCTS>
10 Acne Med; 10 Benzagel Gel - 10%; 111 Medco Benzoyl Peroxide; 2.5 Acne Med; 2.5 Benzagel 2.5%; 2.5 Benzagel 2.5% Acne Gel; 2.5 Benzagel Acne Lotion 2.5%; 24 Hour Acne Serum; 3 Step Acne System Well at Walgreens; 5 Acne Med; 5 Benzagel Liquid Acne Soap 5%; 5 Benzagel Lotion 5%; 5 Percent Benzoyl Peroxide Cleanser; 5% BP Face and Body Wash; AB Skincare Acne Spot Treatment; ACNE FORTE Acne Treatment Cream; ACNE WIPEOUT CLEAR PORE oil-FREE CLEANSER; ACNE WIPEOUT CLINICAL ACNE System; ACNE solutions CLEARING MOISTURIZER ACNE MEDICATION; ADAPALENE and BENZOYL PEROXIDE; AF Foam Clear Skin Acne Pore Cleanser; AKNETROL Acne Treatment; Acanya; Acetoxyl 10 Gel; Acetoxyl 2.5 Gel; Acetoxyl 20acne Gel; Acetoxyl 5 Gel; Acne Cleanser; Acne Cleansing Bar; Acne Clearing Treatment; Acne Clearning Treatment Face; Acne Control Cleanser; Acne Control Serum; Acne Cream; Acne Defense Daily Treatment Serum; Acne Eraser Cleanser; Acne Face and Body; Acne Face and Body Wash; Acne Fm Wsh Mx Cvs; Acne Foaming Cleanser; Acne Foaming Wash Daylodic; Acne Free Free 24 HR Acne Clearing System; Acne Free Oil Free Acne Cleanser 2.5 Benzoyl Peroxide; Acne Free SENSITIVE SKIN 24 HR Acne Clearing System; Acne Free SEVERE ACNE 24 HR Acne Clearing System; Acne Lotion; Acne Med; Acne Medication 10; Acne Medication 5; Acne Pore Cleanser; Acne Solutions Emergency; Acne Spot Corrector; Acne Spot Corrector Maximum Strength; Acne Spot Repair; Acne Spot Treatment; Acne TX Mask; Acne Therapy; Acne Therapy Cleansing Wash; Acne Treatment; Acne Treatment Gel; Acne Treatment Kit Prescription Care; Acne Treatment Lotion; Acne Treatment Serum; Acne Treatment System; Acne Vanishing Gel- 10% with Sulfur; Acne Vanishing Gel- 5%; Acne Vanishing Gel-10%; Acne Wipeout All Day Breakout Control; Acne and Blackhead Terminator; Acne defense Daily Treatment Serum Merle Norman; AcneFree Clear Skin Treatments 24 HOUR Acne Clearing System; AcneFree Clear Skin Treatments 24 HOUR Severe Acne Clearing System; AcneFree Clear Skin Treatments Advanced Deep Cleansing Duo; AcneFree Clear Skin Treatments Sonic Advanced Cleansing Duo; AcneFree Clear Skin Treatments Terminator 2.5; AcneFree Dermatology Inspired Care Oil Free 24 HR Acne Clearing System; AcneFree Dermatology Inspired Care Oil Free Acne Cleanser; AcneFree Dermatology Inspired Care Oil Free Deep Cleansing Duo; AcneFree Dermatology Inspired Care Sensitive Skin 24 Hr Acne Clearing System; AcneFree Dermatology Inspired Care Severe Acne 24 Hr Acne Clearing System; AcneFree Dermatology Inspired Care Severe Acne Terminator 10; AcneFree Energizing Acne Cleanser; AcneFree Energizing Acne Wash and Scrub; AcneFree Foam Severe Acne Pore Cleanser; AcneFree Oil-Free Acne Cleanser; AcneFree Original Strength Terminator; AcneFree Sensitive 24 HOUR Acne Clearing System; AcneFree Severe Antibacterial Cleansing Wash; AcneFree Severe Maximum Strength Repair; AcneFree Severe Terminator Maximum Strength; Acneban; Acnecare Dermacontrol Cream; Acnomel Bp 5 Lot 5%; Active Anti-acne Treatment Kit; Adapalene 0.1% / Benzoyl Peroxide 2.5% / Clindamycin 1%; Adapalene 0.1% / Benzoyl Peroxide 2.5% / Niacinamide 4%; Adapalene 0.3% / Benzoyl Peroxide 2.5% / Clindamycin 1%; Adapalene 0.3% / Benzoyl Peroxide 2.5% / Niacinamide 4%; Adapalene and Benzoyl Peroxide; Adapalene and Benzoyl Peroxide 0.1%/2.5% Gel Pad; Adapalene and Benzoyl Peroxide Swab; Adapalene and benzoyl peroxide; Adasept B.P.2.5 Acne Gel; Adasept B.P.5 Acne Gel; Adv 3n1 Exfol Cvs; Advanced 3 in 1 Exfoliating Cleanser; Advanced Acne Wash; Advantage Acne Control Kit; Age Intervention Duality; Age Intervention Duality Md; Aktipak; All-IN-one; All-day Acne Control; Aloe Clear - Acne Treatment; Ambi Acne Spot Treatment; Anti Bac Acne Clearing; Anti-Bacterial Wash with Exfoliating Beads for Blemish skin; Asepxia Acne Treatment; BP Cleanser; BP Cleansing; BP Gel 5.5%; BP Spot Treatment; BP Wash; BP Wash Acne Treatment Pack; BPO 3 Foaming; BPO 6 Foaming; BPO 9 Foaming; BPO Creamy Wash Complete Pack; Bencort; Benoxyl; Benoxyl 10% Wash; Benoxyl 5% Wash; Benoxyl-CR Advanced Acne Wash; BenoxylDoxy 30 Kit; BenoxylDoxy 60 Kit; Benprox; BenzEFoam; BenzEFoam Ultra; Benzac; Benzac Ac 5 Gel 5%; Benzac Ac Gel 10%; Benzac Acne Clearing Cleanser; Benzac Acne Gel 2.5%; Benzac Acne Gel 5%; Benzac Acne Wash 5%; Benzac W 5 Gel 5%; Benzac W Wash Gel 10%; Benzac W Wash Lot 5%; Benzac W10 Gel 10% USP; Benzaclin; Benzagel 10 Gel 10%; Benzagel 5 Gel; Benzagel 5 Gel 5%; Benzagel 5 Lotion; Benzagel 5 Wash; Benzagel 5 Wash 5%; Benzagel Spot-ON Acne Gel; Benzamycin; Benzamycin Pak; Benzashave; BenzePrO; BenzePrO Creamy Wash; BenzoDox 30 Kit; BenzoDox 60 Kit; Benzoazeline Forte; Benzoil 12hr Acne Treatment; Benzoyl Acne Wash -2.5% Benzoyl Peroxide; Benzoyl Peroxide; Benzoyl Peroxide 10% Gel; Benzoyl Peroxide 2.5% / Clindamycin 1% / Niacinamide 2% / Tretinoin 0.025%; Benzoyl Peroxide 2.5% / Clindamycin 1% / Niacinamide 4%; Benzoyl Peroxide 2.5%, Clindamycin Phosphate 1%, Niacinamide 2% / Tretinoin 0.05%; Benzoyl Peroxide 4; Benzoyl Peroxide 5% / Clindamycin 1% / Niacinamide 2% / Spironolactone 2%; Benzoyl Peroxide 5% / Clindamycin 1% / Niacinamide 2% / Spironolactone 2% / Tretinoin 0.025%; Benzoyl Peroxide 5% / Clindamycin 1% / Niacinamide 2% / Spironolactone 2% / Tretinoin 0.05%; Benzoyl Peroxide 5% / Clindamycin 1% / Niacinamide 2% / Tretinoin 0.05%; Benzoyl Peroxide 5% / Clindamycin 1% / Niacinamide 2% / Tretinoin 0.1%; Benzoyl Peroxide 5% / Clindamycin 1% / Niacinamide 4%; Benzoyl Peroxide 5% / Clindamycin1% / Niacinamide 2% / Tretinoin 0.025%; Benzoyl Peroxide 5% / Niacinamide 2% / Tretinoin 0.025%; Benzoyl Peroxide 5% Gel; Benzoyl Peroxide 8; Benzoyl Peroxide 8% / Niacinamide 4%; Benzoyl Peroxide Acne Medication; Benzoyl Peroxide Acne Treatment 5%; Benzoyl Peroxide Acne Treatment Wash 2.5%; Benzoyl Peroxide Acne Wash Kit; Benzoyl Peroxide Aqueous Base; Benzoyl Peroxide Cleanser; Benzoyl Peroxide Cleansing; Benzoyl Peroxide Creamy Wash; Benzoyl Peroxide Emollient; Benzoyl Peroxide Lotion; Benzoyl Peroxide Wash; Benzoyl Peroxide aqueous base; Benzoyl peroxide emollient; Benzoyl peroxide short contact; Bevoline; BeyondClear; Bio-Scriptives Repiderm; Bioelements Breakout Control; Blemish; Blemish Correcting Serum; Blemish Gel 5%; Bpo; Bpo 4%; Bpo 5% Cleanser; Bpo 6%; Bpo 8%; Bpo Facial Gel; Bpo5; Bpo5 Acne Treatment Gel; Bps; Bpt10.1 Acne Treatment; Bpt3.1 Acne Treatment; Breakout Clearing Daytime Treatment; Breakout Clearing Emergency Spot Fix; Breakout Control Acne Treatment; Breakout Control Bioelements; Brevoxyl; CA22 Benzoyl Peroxide Cleansing; CLEAR CELL Medicated Acne; CLEAR CELL Medicated Acne Scrub; CVS Acne Cleansing Bar; CVS Advance Acne Therapy Kit; CVS Health Acne Control Cleanser Acne Medication; CVS Health Maximum Strength Acne Treatment Acne Medication; CaraDerma; CeraVe Acne Foaming Cleanser; Cetaphil Acne Principles; Cetaphil Gentle Clear BPO Acne Cleanser; Clarifying Acne Vanishing Treatment; Clarifying Face and Body Wash; Clean & Clear Advantage Foam Acne Medication; Clean & Clear Advantage Plus 3-IN-1 Cleanser; Clean & Clear Persa-gel 5; Clean And Clear Continuous Control Acne Cleanser; Clean and Clear Advantage 2-in-1 Acne and Mark Eraser Kit; Clean and Clear Advantage 3 in 1 Exfoliating; Clean and Clear Advantage 3-in-1 Exfoliating Cleanser; Clean and Clear Advantage Acne Control; Clean and Clear Advantage Acne Control Cleanser; Clean and Clear Advantage Acne Targeting Treatment; Clean and Clear Advantage Fast Acting Treatment; Clean and Clear Continuous Control Acne Cleanser; Clean and Clear Persa-Gel 10; Clean and Clear persa-gel 10 Maximum Strength; Cleanser Acne Clearing Treatment; Clear Acne Treatment; Clear Acne Treatment Cream; Clear Action Benzoyl Peroxide Acne Treatment 5%; Clear Cell Clarifying Acne; Clear Cell Medicated Acne Facial Scrub; Clear Cell Medicated Acne Lotion; Clear Complexion Acne Serum; Clear Daily Skin Clearing Treatment 2.5% Benzoyl Peroxide Regular Strength; Clear Daily Skin Clearing Treatment 5% Benzoyl Peroxide Extra Strength; Clear Med 10%; Clear Med 5%; Clear Pore On-the Spot Acne Treatment, Vanishing; Clear Pore On-the Spot Acne Treatment,tinted; Clear Proof Acne System; Clear Proof Acne System The Go Set; Clear Proof Acne Treatment Acne Medication; Clear Skin Treatment Repairing Lotion; Clear Zit; Clear Zone Acne System Skin Purifying Moisturizer; Clear Zone Acne System Skin Purifying Wash; Clearasil Bp Plus Skin Tone Crm 5%; Clearasil Clear Skin Everyday Essentials; Clearasil Daily Clear Acne Treatment Cream Bp Plus; Clearasil Daily Clear Clear Skin; Clearasil Daily Clear Tinted Acne Treatment; Clearasil Daily Clear Vanishing Acne Treatment; Clearasil Rapid Rescue Spot Treatment; Clearasil Stubborn Acne Control 5in1 Concealing Treatment; Clearasil Stubborn Acne Control 5in1 Spot Treatment; Clearasil Ultra Acne System; Clearasil Ultra Fast Fix Acne; Clearasil Ultra Rapid Action Acne System; Clearasil Ultra Rapid Action Clear Skin; Clearasil Ultra Rapid Action Treatment; Clearasil Ultra Rapid Action Vanishing Treatment; Clearasil Ultra Tinted Rapid Action Treatment; Cleargenix Advanced Acne Treatment; Clearx 3 Blemish Creme; Clearz - It; Clearz-IT; Clease and Treat; Clenziderm Acne Therapeutic System; Clenziderm M.D. System Acne Therapeutic System; Clenziderm Normal To Dry Skin Acne Therapeutic System; Clenziderm Normal To Dry Skin/ Peau Normale À Sèche; Clenziderm Normal To Oily Skin Acne Therapeutic System; Clenziderm Therapeutic; Clinac Bpo 7; Clindamycin - Benzoyl Peroxide; Clindamycin Phosphate and Benzoyl Peroxide; Clindamycin Phosphate and Benzoyl Peroxide Clindamycin Phosphate and Benzoyl Peroxide; Clindamycin and Benzoyl Peroxide; Clindamycin phosphate and benzoyl peroxide; Clindoxyl Adv Gel; Clindoxyl Gel; Clinique Acne Solutions All-over Clearing Treatment; Clinique Acne Solutions Emergency Lotion; Clinique Skin Supplies for Men Acne Solutions Emergency Lotion; Complete Acne Therapy System; Complexion Clear Acne Treatment Rejuvenating; Continuous Control Acne Cleanser; Continuous Control Acne Cleanser Image Essentials; Controlling Cream; Coral Actives 2 Step Acne Treatment System; Coral Actives Penetrating Acne Serum; Creamy Acne Face Wash; Crmy Acne Wash Cvs; DDF Benzoyl Peroxide Acne Treatment; Daily Acne Control Cleanser; Daily Acne Wash; Daily Leave on Acne Treatment Mask; Deep Pore Acne Vanishing Treatment; Delos; DermaClear Purity Cleanser Level I; DermaClear Purity Cleanser Level II; Dermaclear Spot Treatment; Dermaharmony 10% Benzoyl Peroxide Cleansing Bar; Dermaharmony 5% Benzoyl Peroxide Cleansing Bar; Dermalogica Special Clearing Booster; Dermisa Acne Treatment; Dermisa CLEAR SKIN; Dermoxyl Aqua Gel 10%; Dermoxyl Aqua Gel 2.5%; Dermoxyl Aqua Gel 20%; Dermoxyl Aqua Gel 5%; Dermoxyl Gel 10%; Dermoxyl Gel 2.5%; Dermoxyl Gel 20%; Dermoxyl Gel 5%; Desquam-X Gel 10%; Desquam-X Gel 5%; Desquam-X Wash; Desquam-X Wash Lot 10%; Desquam-X Wash Lot 5%; Desquam-X wash; Differin Daily Deep Cleanser with BPO; Double Fight; Dr Song Acne; Dr. Lin Skincare Acne; Dr. Throwers Bpo 5; Duac; Dual Intensive Acne Treatment; Dual-shave 2 In 1; Dual-shave 2 In 1 for Her; ENVIO 30 Day Daily Essentials Duo; ENVIO 30 Day Daily Essentials Trio; ENVIO 90 Day Daily Essentials Duo; ENVIO 90 Day Daily Essentials Duo Sub Shipment; ENVIO 90 Day Daily Essentials Trio; ENVIO 90 Day Daily Essentials Trio Sub Shipment; Elette; Emergency Acne Vanishing Facial Cleanser; Emergency Acne Vanishing Treatment Wipes; Enzoclear Foam; Epiduo; Epiduo Forte; Epsolay; Eptex 4.5%; Equate Acne Wash Acne medication; Equate Beauty Acne Cleansing Bar; Equate Beauty Acne Foaming Cleanser; Equate Clear Complexion Facial Cleanser; Equate Maximum Strength Spot Treatment; Equate Purifying Cleanser; Equate Repairing; Eraser; Erythromycin and Benzoyl Peroxide; Erythromycin-Benzoyl Peroxide; Face Values Acne Medication; Family Care Acne Treatment; Family Dollar Acne Treatment; Foamimg Acne Face Wash; Foaming Acne Face Wash Walgreens; Formulab Treat for Adult Acne; Formulab Treat for Young Adult Acne; GLYTONE Acne BPO Clearing Cleanser; GLYTONE Acne BPO Treatment Gel; GMC Medical Acne Treatment; GMC Medical Acne-BPO; GNP Acne Treatment; Gel-creme Acne Bpo Gel-cream 5%; Glossier Zit Stick Breakout Eraser 5% Benzoyl Peroxide Gel Acne Treatment; Glossier zit stick breakout eraser; Glytone Acne; Glytone Acne 3P Treatment Gel; Glytone acne 3P; Good Neighbor Pharmacy Acne Treatment; Guthy Renker Proactiv Solution Advanced Blemish Treatment; Guthy Renker Proactiv Solution Extra Strength; Guthy Renker Proactiv Solution Extra Strength Cleanser; Guthy-Renker Proactiv Solution Renewing Cleanser; Guthy-Renker Proactiv Solution Repairing; H2 Oxyl 10%; H2 Oxyl 20%; H2 Oxyl 5%; H2oxyl 2.5%; HUMANE Acne Spot Treatment; HYR Acne Wash; Healthy Skin Moisturizer; Humane Acne Wash; Iman Perfect Response Blemish Gel; Imiquimod 5% / Levocetirizine Dihydrochloride 1% / Tretinoin 0.05%; Intensive Face and Body Acne Treatment; Invisible Acne Well at Walgreens; Johnson's Clean & Clear Persa-gel; Jon Ares Acne Control Step 1; Jon Ares Acne Control Step 2; Kaiser Permanente Benzoyl Peroxide; Kellett Clarifying Acne Treatment; Kivoria Acne Wash; L-Topical BENZOYL PEROXIDE 10%; L-Topical BENZOYL PEROXIDE 10% Gel; L-Topical BENZOYL PEROXIDE 5%; L-Topical BENZOYL PEROXIDE 5% Gel; La Roche Posay Laboratoire Dermatologique Effaclar Duo Acne Treatment; La Roche Posay Laboratoire DermatologiqueEffaclar Duo; La Roche-Posay Effaclar Duo Dual Action Acne Treatment; Lavoclen 4; Lavoclen 4 Acne Wash Kit; Lavoclen 8; Lavoclen 8 Acne Wash Kit; Lavoclen-4 Acne Wash Kit; Lavoclen-4 Creamy Wash; Lavoclen-8 Acne Wash Kit; Lavoclen-8 Creamy Wash; Leader Maximum Strength Invisible Acne; Let Me Be Perfectly Clear; Loroxide Lotion 5%; MD ACNE Customized treatment; MD-Acne Body Acne Treatment; MDacne Customized Cream (Benzoyl Peroxide); MEDPURA Benzoyl Peroxide; MEDPURA Benzoyl Peroxide Aqueous Base, Acne Treatment Gel; Magic Marker; Mary Kay Acne Treatment Acne Medication; Mask; MaxClarity; Maximum Strength Acne; Maximum Strength Acne Medication; Maximum Strength Acne Spot Treatment CVS Health; Maximum Strength Terminator 10; Meaningful Beauty Blemish Treatment; Medicated Acne Gel; Medicated Pumice Wash; Meijer Acne Foaming Cleanser Acne Treatment; Meijer Acne Treatment Acne medication; Meijer Invisible Acne Acne medication; Meijer Maximum Strength Foaming Acne Face Wash Acne Medication; Micronized BPO Scrub; Micronized BPO Wash; Micronized Benzoyl Peroxide Treatment; Modesa Acne Treatment; Nano Cleanse; Nature's Cure Acne Treatment; NeoBenz Micro; NeoBenz Micro Plus Pack; NeoBenz Micro SD; NeoBenz Micro Wash; NeoBenz Micro Wash Plus Pack; NeoBenz(R) Micro Benzoyl Peroxide Wash, 7%; Neostrata Acne Clear Medicated Treatment; Neuac; Neuac Kit; NeutraCure Restore; Neutrogena Acne Control; Neutrogena Acne Mask 5%; Neutrogena Clear Pore Acne Treatment; Neutrogena Clear Pore Cleanser Mask; Neutrogena Clear Pore Daily Scrub; Neutrogena Complete Acne Therapy Solution; Neutrogena Complete Acne Therapy System; Neutrogena On-the-Spot Acne Treatment Vanishing Formula; Neutrogena On-the-spot Acne Treat. 2.5% (also Tinted Formula); Neutrogena Rapid Clear Stubborn Acne Cleanser; Neutrogena Rapid Clear Stubborn Acne Spot; Neutrogena Rapid Clear Stubborn Daily Leave On Mask; Neutrogena SkinID Cleanser/Mask; Neutrogena SkiniD Anti Acne Treatment; Neutrogena Stubborn Acne AM Treatment; Neutrogena skiniD Anti Acne Treatment; Neutrogena* Acne Mask, Oil Absorbing Clay Base; Nighttime Control; NuCaraRXPAK; NuOx Acne Treatment; Nugen Acne Solution Mattifying Hydrator; Nujevi Acne; O Skin Acne Benzoyl Wash; O Skin Acne Moderate; OC Eight; OXY Advanced Care Sensitive Skin Acne Cleanser; OXY Advanced Care Soothing Cream Acne Cleanser; OXY Clinical Clearing Treatment; OXY Face Wash Maximum; OXY Maximum Action Treatment Pads; Obagi; Obagi Clenziderm Acne Gel; Obagi Clenziderm Acne Lotion; Obliterate; Oc8; Ocean Seas Dermatology Acne Treatment Cleanser; Oil Free Deep Cleansing Duo Cleansing Brush Oil Free Acne Cleanser; Oil-Free Acne Cleanser; Oil-free Acne Treatment; Oil-free Acne Wash Cleanser Mask; On Target; Onexton; Original Strength Terminator; Overnight Acne Control; Overnight Acne Control Lotion; Oxy 10 Acne Cleanser; Oxy 10 Tinted; Oxy 10 Vanishing; Oxy 5 Regular Strength Cover Up Crm 5%; Oxy 5 Regular Strength Vanishing Lot 5%; Oxy 5 Tinted; Oxy 5 Vanishing; Oxy Advanced Care Rapid Spot Treatment; Oxy Face Wash Maximum Aciton; Oxy Face Wash Mild; Oxy Maximum Action Advanced Face Wash; Oxy Maximum Action Advanced Face Wash Sensitive; Oxy Maximum Action Face Wash; Oxy Maximum Action Face Wash Sensitive; Oxy Maximum Action Spot Treatment; Oxy Maximum Action Spot Treatment Tinted; Oxy On-The-Go Acne Stick; Oxy Rapid Spot Treatment Maximum Action; Oxy Rapid Treatment Face Wash Maximum Action; Oxy Rapid Treatment Face Wash Sensitive Skin Maximum Action; Oxy Sensitive Face Wash Maximum Soothing; Oxy Total Care Clarifying Moisturizer; Oxyderm Lot 20%; Oxyderm Lotion 10%; Oxyderm Lotion 5%; PCA Acne; PCA SKIN Acne; PCA SKIN BPO Cleanser; PR Benzoyl Peroxide Wash; Pacnex HP; Pacnex LP; Pacnex MX; PanOxyl; PanOxyl -8; Panoxyl 10 Bar 10%; Panoxyl 10 Gel; Panoxyl 20 Gel; Panoxyl 5 Bar; Panoxyl 5 Gel; Panoxyl Acne Wash; Panoxyl Aquagel 10 - Gel 10%; Panoxyl Aquagel 2.5%; Panoxyl Aquagel 20 - Gel Top 20%; Panoxyl Aquagel 5%; Panoxyl Creamy Wash 4%; Panoxyl Wash 10 - Liq Top 10%; Panoxyl Wash 5% - Lot; Paula's Choice Clear Anti-acne Extra Strength System; Paula's Choice Clear Anti-acne Regular Strength System; Paulas Choice Clear Daily Skin Clearing Treatment; Peroderm 7 Wash; Perrigo Benzoyl Peroxide Aqueous Base; Perrigo Benzoyl Peroxide hydroalcoholic base; Perrigo Benzoyl Peroxide wash; Persaclear; Persol Acne Cream; Persol Forte Acne Cream; Pharmaskincare Acnecare Cleanser; Pharmaskincare Acnecare Dermacontrol Cream; Phisoderm Clear Confidence Spot Treatment; Physicians Care Alliance BPO Cleanser; Prescription Care Acne Treatment Kit Renewing Cleanser; Proactiv 3-step Acne Treatment System; Proactiv 3-step Convenience Pak; Proactiv Advanced Blemish Treatment; Proactiv Cleanse; Proactiv Emergency Blemish Relief; Proactiv Extra Strength Formula; Proactiv Extra Strength Formula Cleanser; Proactiv Extra Strength Formula Treatment; Proactiv Renewing Cleanser; Proactiv Repairing; Proactiv Repairing Mask; Proactiv Repairing Treatment; Proactiv Solution Advanced Blemish Treatment; Proactiv Solution Renewing Cleanser; Proactiv Solution Repairing Treatment; Proactiv Soothing Shave Gel; Proactiv Treat; Proactiv plus Pore Targeting Treatment; Proactiv+ 3 Piece Set; Proactiv+ Pore Targeting Solution; Proactiv+ Skin Smoothing Exfoliator; Proactivplus Skin Smoothing Exfoliator; Pumice Cleansing Scrub- 2.5% Benzoyl Peroxide; Pure Pefection Classic Replenishing Cleanser; Pure Perfection Classic Renewing Creme; Purifying Cleanser; REPLENIX ACNE Solution BENZOYL PEROXIDE WASH; Redness Relief Neutralizing Lotion; Reform; Rejuvenating Acne Cream; Relovox; Renewal Cleanser; Renewing Cleanser; Repair Lotion; Repairing Treatment; Replenix Acne; Replenix Acne 10% Wash Paraben Free With Aloe; Replenix Acne Solutions Acne Gel 2.5%; Replenix Acne Solutions Acne Gel 5%; Replenix Acne Solutions Wash; Reversion Acne Control Spot Treatment PM; Revitol Acne Treatment; Riax; Rodan & Fields/proactiv Solution: Renewing Cleanser; Rodan & Fields/proactiv Solution: Repairing Lotion; Rodan + Fields Unblemish Kit; Rodan Fields UNBLEMISH Regimen for Acne, Blemishes and Breakouts; Rodan and Fields Unblemish - Acne Medicated; Rodan+fields Spotless; Rodan+fields Unblemish; Rugby Acne Medication Benzoyl Peroxide; Rugby Benzoyl Peroxide Acne Medication; Rugby Benzoyl Peroxide Wash Acne Medication; SE BPO 3% Foaming Cloths; SE BPO 6% Foaming Cloths; SE BPO 9% Foaming Cloths; SE BPO Wash; SLMD AM Benzoyl Peroxide Acne Treatment; SLMD BP Body Wash; SLMD Spot Treatment; SPOTLESS Acne Clearing Treatment; SPOTLESS Daily Acne Wash; SPOTLESS Regimen for Acne, Blemishes and Breakouts; Sacheu Spot Eraser; Safeway Acne Treatment; Sandoz Adapalene / Benzoyl Peroxide; Sandoz Adapalene / Benzoyl Peroxide Forte; Se Bpo; Serious Action Exfoliant Wash; Serious Action Skin Medication No. 5; Serious Action Skin Wash; Shave Cream; Signature Care Acne Medication; Skin Id Personalized Acne Solution Anti-acne Treatment; Skin Id Personalized Acne Solution Cream Cleanser/mask; Skin Pharmacy Advanced Acne Therapy Kit; Skin Pharmacy Advanced Acne Therapy Targeted Treatment Wipes; SkinMedica Acne Treatment; SkinPharmacy Advanced Acne Therapy Active Clearing; SkinPharmacy Advanced Acne Therapy Kit; SkinPharmacy Advanced Acne Therapy Spot Treatment; SkinPharmacy Advanced Acne Therapy Targeted Treatment Wipes; SkinTx Acne Treatment System; Skincoach TREAT; Skinprint Acne Release; Skinprint Spot-On; Smart Release Bpo 10 Percent; Smart Release Bpo 5 Percent; Solimo Renewing Cleanser For Acne Prone Skin; Solimo Repairing Treatment For Acne Prone Skin; Solugel; Solutions Spot-On; Special Clearing Booster; Special Clearing Booster - Liq 5%; Spectro Acnecare Deep Pore Vanishing Lotion; Spectro Acnecare Spot Treatment; Spectro Acnecare Vanishing Lotion for Sensitive Skin; Spectro Acnecare Wash for Acne Prone Skin; Spot Acne Treatment; Spot Clearing Lotion; Spot On Treatment; Spotless Daily Acne; Stubborn Acne Am Treatment; Stubborn Acne Cleanser; Stubborn Acne Daily Leave-ON Mask; Stubborn Acne Solution; Stubborn Acne Spot Gel; Sulfoxyl Lotion Regular; Super Bump Relief; Supersonic Scrub; TRIDERMA Acne Spot Treatment; TULA Skincare Go Away Acne Spot Treatment; Tactupump; Tactupump Forte; Target Up and Up Acne Medication; Targeted Acne Spot Treatment; Targeted Acne Spot Treatment CVS; Taro-adapalene/benzoyl Peroxide; Taro-adapalene/benzoyl Peroxide Forte; Taro-benzoyl Peroxide / Clindamycin Kit; Taro-clindamycin/benzoyl Peroxide Gel; Terminator; Terminator 10; Terminator 5; TheraSpec Acne Cleanser; Timeless Prescription - Acne Repairing Step 3; Timeless Prescription - Renewing Acne Cleanser Step 1; Topical Cleanser; Touch Acne Treatment Benzoyl Peroxide; Triaz; Triple Action Acne Vanishing Treatment; Twyneo; UNBLEMISH Dual Intensive Acne Treatment; UNBLEMISH Regimen for Acne, Blemishes and Breakouts; UNBLEMISH Regimen for Acne, Blemishes and Breakouts Travel Size; Unblem Est; Unblemish; Unblemish Regimen for Acne and Post Acne Marks; University Medical Oil-Free Purifying Cleanser; University Medical Repairing; Vanishing Acne CVS; Vanishing Acne Treatment Cream CVS Health; Vanishing Acne Treatment daylogic; Vanoxide HC; Vie Naturelle Acne Body; Walgreens Acne Foaming Cleanser Acne Treatment; Walgreens Acne Foaming Wash Acne Medication; WinCo Foods Maximum Strength Acne Treatment; X Out Cleansing Wipes For On The Go Blemish Treatment; X Out Wash-IN Treatment; X-Out Wash-In Treatment; ZO Skin Health Acne Control Benzoyl Peroxide; Zaclir; Zap-IT Crm 5%; Zapzyt Acne; Zapzyt Acne Treatment Gel; Zitfree Acne Treatment; Zoderm; glo SKIN BEAUTY Clear Skin Spot Treatment; iBlanc Restora-Bright Acne Healing; myHELPER

$$$$
