
  Mrv0541 02231215492D          

  6  5  0  0  0  0            999 V2000
   -0.1914    0.7145    0.0000 C   0  0  0  0  0  0  0  0  0  0  0  0
    0.5230    1.1270    0.0000 C   0  0  0  0  0  0  0  0  0  0  0  0
    1.2375    0.7145    0.0000 C   0  0  0  0  0  0  0  0  0  0  0  0
    1.9520    1.1270    0.0000 C   0  0  0  0  0  0  0  0  0  0  0  0
    2.6664    0.7145    0.0000 C   0  0  0  0  0  0  0  0  0  0  0  0
    3.3809    1.1270    0.0000 O   0  0  0  0  0  0  0  0  0  0  0  0
  1  2  1  0  0  0  0
  2  3  1  0  0  0  0
  3  4  1  0  0  0  0
  4  5  1  0  0  0  0
  5  6  2  0  0  0  0
M  END
> <DATABASE_ID>
DB01919

> <DATABASE_NAME>
drugbank

> <SMILES>
CCCCC=O

> <INCHI_IDENTIFIER>
InChI=1S/C5H10O/c1-2-3-4-5-6/h5H,2-4H2,1H3

> <INCHI_KEY>
HGBOYTHUEUWSSQ-UHFFFAOYSA-N

> <FORMULA>
C5H10O

> <MOLECULAR_WEIGHT>
86.1323

> <EXACT_MASS>
86.073164942

> <JCHEM_ACCEPTOR_COUNT>
1

> <JCHEM_ATOM_COUNT>
16

> <JCHEM_AVERAGE_NEUTRAL_MICROSPECIES_CHARGE>
-1.1252526309631618e-11

> <JCHEM_AVERAGE_POLARIZABILITY>
10.321567480039405

> <JCHEM_BIOAVAILABILITY>
1

> <JCHEM_DONOR_COUNT>
0

> <JCHEM_FORMAL_CHARGE>
0

> <JCHEM_GHOSE_FILTER>
0

> <JCHEM_IUPAC>
pentanal

> <ALOGPS_LOGP>
1.41

> <JCHEM_LOGP>
1.2077112103333332

> <ALOGPS_LOGS>
-0.76

> <JCHEM_MDDR_LIKE_RULE>
0

> <JCHEM_NEUTRAL_CHARGE>
0

> <JCHEM_NUMBER_OF_RINGS>
0

> <JCHEM_PHYSIOLOGICAL_CHARGE>
0

> <JCHEM_PKA_STRONGEST_ACIDIC>
17.948749962955628

> <JCHEM_PKA_STRONGEST_BASIC>
-6.944302342827888

> <JCHEM_POLAR_SURFACE_AREA>
17.07

> <JCHEM_REFRACTIVITY>
25.5472

> <JCHEM_ROTATABLE_BOND_COUNT>
3

> <JCHEM_RULE_OF_FIVE>
1

> <ALOGPS_SOLUBILITY>
1.48e+01 g/l

> <JCHEM_TRADITIONAL_IUPAC>
biotin

> <JCHEM_VEBER_RULE>
1

> <DRUGBANK_ID>
DB01919

> <SECONDARY_ACCESSION_NUMBERS>
EXPT02684

> <DRUG_GROUPS>
experimental

> <GENERIC_NAME>
Pentanal

$$$$
