
  Mrv0541 02231215512D          

 51 50  0  0  1  0            999 V2000
   20.8461   12.8605    0.0000 C   0  0  0  0  0  0  0  0  0  0  0  0
   21.5605   13.2730    0.0000 C   0  0  0  0  0  0  0  0  0  0  0  0
   22.2750   12.8605    0.0000 C   0  0  0  0  0  0  0  0  0  0  0  0
   22.9895   13.2730    0.0000 C   0  0  0  0  0  0  0  0  0  0  0  0
   23.7039   12.8605    0.0000 C   0  0  0  0  0  0  0  0  0  0  0  0
   24.4184   13.2730    0.0000 C   0  0  0  0  0  0  0  0  0  0  0  0
   25.1329   12.8605    0.0000 C   0  0  0  0  0  0  0  0  0  0  0  0
   25.8474   13.2730    0.0000 C   0  0  0  0  0  0  0  0  0  0  0  0
   26.5618   12.8605    0.0000 C   0  0  0  0  0  0  0  0  0  0  0  0
   27.2763   13.2730    0.0000 C   0  0  0  0  0  0  0  0  0  0  0  0
   27.9908   12.8605    0.0000 C   0  0  0  0  0  0  0  0  0  0  0  0
   28.7052   13.2730    0.0000 C   0  0  0  0  0  0  0  0  0  0  0  0
   29.4197   12.8605    0.0000 C   0  0  0  0  0  0  0  0  0  0  0  0
   30.1342   13.2730    0.0000 C   0  0  0  0  0  0  0  0  0  0  0  0
   30.8487   12.8605    0.0000 C   0  0  0  0  0  0  0  0  0  0  0  0
   31.5631   13.2730    0.0000 C   0  0  0  0  0  0  0  0  0  0  0  0
   32.2776   12.8605    0.0000 C   0  0  0  0  0  0  0  0  0  0  0  0
   32.9921   13.2730    0.0000 C   0  0  0  0  0  0  0  0  0  0  0  0
   32.9921   14.0980    0.0000 O   0  0  0  0  0  0  0  0  0  0  0  0
   33.7065   12.8605    0.0000 O   0  0  0  0  0  0  0  0  0  0  0  0
   34.4210   13.2730    0.0000 C   0  0  0  0  0  0  0  0  0  0  0  0
   35.1355   12.8605    0.0000 C   0  0  1  0  0  0  0  0  0  0  0  0
   35.1355   12.0355    0.0000 C   0  0  0  0  0  0  0  0  0  0  0  0
   34.4210   11.6230    0.0000 O   0  0  0  0  0  0  0  0  0  0  0  0
   34.4210   10.7980    0.0000 P   0  0  2  0  0  0  0  0  0  0  0  0
   35.2460   10.7980    0.0000 O   0  0  0  0  0  0  0  0  0  0  0  0
   33.5960   10.7980    0.0000 O   0  0  0  0  0  0  0  0  0  0  0  0
   34.4210    9.9730    0.0000 O   0  0  0  0  0  0  0  0  0  0  0  0
   33.7065    9.5605    0.0000 C   0  0  0  0  0  0  0  0  0  0  0  0
   33.7065    8.7355    0.0000 C   0  0  0  0  0  0  0  0  0  0  0  0
   32.9921    8.3230    0.0000 N   0  0  0  0  0  0  0  0  0  0  0  0
   35.8499   13.2730    0.0000 O   0  0  0  0  0  0  0  0  0  0  0  0
   36.5644   12.8605    0.0000 C   0  0  0  0  0  0  0  0  0  0  0  0
   36.5644   12.0355    0.0000 O   0  0  0  0  0  0  0  0  0  0  0  0
   37.2789   13.2730    0.0000 C   0  0  0  0  0  0  0  0  0  0  0  0
   37.9934   12.8605    0.0000 C   0  0  0  0  0  0  0  0  0  0  0  0
   38.7078   13.2730    0.0000 C   0  0  0  0  0  0  0  0  0  0  0  0
   39.4223   12.8605    0.0000 C   0  0  0  0  0  0  0  0  0  0  0  0
   40.1368   13.2730    0.0000 C   0  0  0  0  0  0  0  0  0  0  0  0
   40.8512   12.8605    0.0000 C   0  0  0  0  0  0  0  0  0  0  0  0
   41.5657   13.2730    0.0000 C   0  0  0  0  0  0  0  0  0  0  0  0
   42.2802   12.8605    0.0000 C   0  0  0  0  0  0  0  0  0  0  0  0
   42.9947   13.2730    0.0000 C   0  0  0  0  0  0  0  0  0  0  0  0
   43.7091   12.8605    0.0000 C   0  0  0  0  0  0  0  0  0  0  0  0
   44.4236   13.2730    0.0000 C   0  0  0  0  0  0  0  0  0  0  0  0
   45.1381   12.8605    0.0000 C   0  0  0  0  0  0  0  0  0  0  0  0
   45.8525   13.2730    0.0000 C   0  0  0  0  0  0  0  0  0  0  0  0
   46.5670   12.8605    0.0000 C   0  0  0  0  0  0  0  0  0  0  0  0
   47.2815   13.2730    0.0000 C   0  0  0  0  0  0  0  0  0  0  0  0
   47.9960   12.8605    0.0000 C   0  0  0  0  0  0  0  0  0  0  0  0
   48.7104   13.2730    0.0000 C   0  0  0  0  0  0  0  0  0  0  0  0
  1  2  1  0  0  0  0
  2  3  1  0  0  0  0
  3  4  1  0  0  0  0
  4  5  1  0  0  0  0
  5  6  1  0  0  0  0
  6  7  1  0  0  0  0
  7  8  1  0  0  0  0
  8  9  1  0  0  0  0
  9 10  1  0  0  0  0
 10 11  1  0  0  0  0
 11 12  1  0  0  0  0
 12 13  1  0  0  0  0
 13 14  1  0  0  0  0
 14 15  1  0  0  0  0
 15 16  1  0  0  0  0
 16 17  1  0  0  0  0
 17 18  1  0  0  0  0
 18 19  2  0  0  0  0
 18 20  1  0  0  0  0
 20 21  1  0  0  0  0
 21 22  1  0  0  0  0
 22 23  1  0  0  0  0
 23 24  1  0  0  0  0
 25 24  1  1  0  0  0
 25 26  1  6  0  0  0
 25 27  2  0  0  0  0
 25 28  1  0  0  0  0
 28 29  1  0  0  0  0
 29 30  1  0  0  0  0
 30 31  1  0  0  0  0
 22 32  1  6  0  0  0
 32 33  1  0  0  0  0
 33 34  2  0  0  0  0
 33 35  1  0  0  0  0
 35 36  1  0  0  0  0
 36 37  1  0  0  0  0
 37 38  1  0  0  0  0
 38 39  1  0  0  0  0
 39 40  1  0  0  0  0
 40 41  1  0  0  0  0
 41 42  1  0  0  0  0
 42 43  1  0  0  0  0
 43 44  1  0  0  0  0
 44 45  1  0  0  0  0
 45 46  1  0  0  0  0
 46 47  1  0  0  0  0
 47 48  1  0  0  0  0
 48 49  1  0  0  0  0
 49 50  1  0  0  0  0
 50 51  1  0  0  0  0
M  END
> <DATABASE_ID>
DB01966

> <DATABASE_NAME>
drugbank

> <SMILES>
CCCCCCCCCCCCCCCCCC(=O)OC[C@@H](CO[P@](O)(=O)OCCN)OC(=O)CCCCCCCCCCCCCCCCC

> <INCHI_IDENTIFIER>
InChI=1S/C41H82NO8P/c1-3-5-7-9-11-13-15-17-19-21-23-25-27-29-31-33-40(43)47-37-39(38-49-51(45,46)48-36-35-42)50-41(44)34-32-30-28-26-24-22-20-18-16-14-12-10-8-6-4-2/h39H,3-38,42H2,1-2H3,(H,45,46)/t39-/m0/s1

> <INCHI_KEY>
LVNGJLRDBYCPGB-KDXMTYKHSA-N

> <FORMULA>
C41H82NO8P

> <MOLECULAR_WEIGHT>
748.0654

> <EXACT_MASS>
747.577805117

> <JCHEM_ACCEPTOR_COUNT>
5

> <JCHEM_ATOM_COUNT>
133

> <JCHEM_AVERAGE_NEUTRAL_MICROSPECIES_CHARGE>
-0.000992001480615401

> <JCHEM_AVERAGE_POLARIZABILITY>
94.69982679943321

> <JCHEM_BIOAVAILABILITY>
0

> <JCHEM_DONOR_COUNT>
2

> <JCHEM_FORMAL_CHARGE>
0

> <JCHEM_GHOSE_FILTER>
0

> <JCHEM_IUPAC>
(2-aminoethoxy)[(2S)-2,3-bis(octadecanoyloxy)propoxy]phosphinic acid

> <ALOGPS_LOGP>
8.91

> <JCHEM_LOGP>
12.229190019136755

> <ALOGPS_LOGS>
-7.14

> <JCHEM_MDDR_LIKE_RULE>
0

> <JCHEM_NEUTRAL_CHARGE>
0

> <JCHEM_NUMBER_OF_RINGS>
0

> <JCHEM_PHYSIOLOGICAL_CHARGE>
0

> <JCHEM_PKA_STRONGEST_ACIDIC>
1.8688003136581992

> <JCHEM_PKA_STRONGEST_BASIC>
9.999929336362278

> <JCHEM_POLAR_SURFACE_AREA>
134.38000000000002

> <JCHEM_REFRACTIVITY>
209.40789999999998

> <JCHEM_ROTATABLE_BOND_COUNT>
43

> <JCHEM_RULE_OF_FIVE>
0

> <ALOGPS_SOLUBILITY>
5.43e-05 g/l

> <JCHEM_TRADITIONAL_IUPAC>
biotin

> <JCHEM_VEBER_RULE>
0

> <DRUGBANK_ID>
DB01966

> <SECONDARY_ACCESSION_NUMBERS>
EXPT02546

> <DRUG_GROUPS>
experimental

> <GENERIC_NAME>
Di-Stearoyl-3-Sn-Phosphatidylethanolamine

$$$$
