
  Mrv0541 02231216262D          

  9  8  0  0  1  0            999 V2000
    1.7605    1.8414    0.0000 C   0  0  0  0  0  0  0  0  0  0  0  0
    2.4750    1.4289    0.0000 Hg  0  0  0  0  0  0  0  0  0  0  0  0
    3.1895    1.8414    0.0000 S   0  0  0  0  0  0  0  0  0  0  0  0
    3.9039    1.4289    0.0000 C   0  0  0  0  0  0  0  0  0  0  0  0
    4.6184    1.8414    0.0000 C   0  0  1  0  0  0  0  0  0  0  0  0
    4.6184    2.6664    0.0000 N   0  0  0  0  0  0  0  0  0  0  0  0
    5.3329    1.4289    0.0000 C   0  0  0  0  0  0  0  0  0  0  0  0
    6.0474    1.8414    0.0000 O   0  0  0  0  0  0  0  0  0  0  0  0
    5.3329    0.6039    0.0000 O   0  0  0  0  0  0  0  0  0  0  0  0
  1  2  1  0  0  0  0
  2  3  1  0  0  0  0
  3  4  1  0  0  0  0
  4  5  1  0  0  0  0
  5  6  1  1  0  0  0
  5  7  1  0  0  0  0
  7  8  1  0  0  0  0
  7  9  2  0  0  0  0
M  END
> <DATABASE_ID>
DB02750

> <DATABASE_NAME>
drugbank

> <SMILES>
C[Hg]SC[C@@H](N)C(O)=O

> <INCHI_IDENTIFIER>
InChI=1S/C3H7NO2S.CH3.Hg/c4-2(1-7)3(5)6;;/h2,7H,1,4H2,(H,5,6);1H3;/q;;+1/p-1/t2-;;/m1../s1

> <INCHI_KEY>
OMYFBIZVJYGJJA-YBBRRFGFSA-M

> <FORMULA>
C4H9HgNO2S

> <MOLECULAR_WEIGHT>
335.77

> <EXACT_MASS>
337.006024831

> <JCHEM_ACCEPTOR_COUNT>
3

> <JCHEM_ATOM_COUNT>
18

> <JCHEM_AVERAGE_NEUTRAL_MICROSPECIES_CHARGE>
-0.006188200390326748

> <JCHEM_AVERAGE_POLARIZABILITY>
15.58975679945053

> <JCHEM_BIOAVAILABILITY>
1

> <JCHEM_DONOR_COUNT>
2

> <JCHEM_FORMAL_CHARGE>
0

> <JCHEM_GHOSE_FILTER>
0

> <JCHEM_IUPAC>
(2S)-2-amino-3-[(methylmercurio)sulfanyl]propanoic acid

> <ALOGPS_LOGP>
-2.35

> <JCHEM_LOGP>
-3.402271373630318

> <ALOGPS_LOGS>
-1.22

> <JCHEM_MDDR_LIKE_RULE>
0

> <JCHEM_NEUTRAL_CHARGE>
0

> <JCHEM_NUMBER_OF_RINGS>
0

> <JCHEM_PHYSIOLOGICAL_CHARGE>
0

> <JCHEM_PKA_STRONGEST_ACIDIC>
1.7592205635233593

> <JCHEM_PKA_STRONGEST_BASIC>
9.205335706107192

> <JCHEM_POLAR_SURFACE_AREA>
63.32

> <JCHEM_REFRACTIVITY>
33.216

> <JCHEM_ROTATABLE_BOND_COUNT>
4

> <JCHEM_RULE_OF_FIVE>
1

> <ALOGPS_SOLUBILITY>
2.02e+01 g/l

> <JCHEM_TRADITIONAL_IUPAC>
biotin

> <JCHEM_VEBER_RULE>
0

> <DRUGBANK_ID>
DB02750

> <SECONDARY_ACCESSION_NUMBERS>
EXPT00956

> <DRUG_GROUPS>
experimental

> <GENERIC_NAME>
S-(Methylmercury)-L-Cysteine

$$$$
