
  Mrv0541 05061306072D          

 27 29  0  0  0  0            999 V2000
   -2.1434    2.0625    0.0000 C   0  0  0  0  0  0  0  0  0  0  0  0
    5.7158    2.4750    0.0000 C   0  0  0  0  0  0  0  0  0  0  0  0
   -1.4289    2.4750    0.0000 C   0  0  0  0  0  0  0  0  0  0  0  0
   -0.7145    2.0625    0.0000 C   0  0  0  0  0  0  0  0  0  0  0  0
   -2.1434   -1.2375    0.0000 C   0  0  0  0  0  0  0  0  0  0  0  0
   -1.4289   -1.6500    0.0000 C   0  0  0  0  0  0  0  0  0  0  0  0
   -2.1434   -0.4125    0.0000 C   0  0  0  0  0  0  0  0  0  0  0  0
   -0.7145   -1.2375    0.0000 C   0  0  0  0  0  0  0  0  0  0  0  0
   -1.4289    0.0000    0.0000 C   0  0  0  0  0  0  0  0  0  0  0  0
    0.0000    2.4750    0.0000 C   0  0  0  0  0  0  0  0  0  0  0  0
    1.4289    2.4750    0.0000 C   0  0  0  0  0  0  0  0  0  0  0  0
    1.4289    0.8250    0.0000 C   0  0  0  0  0  0  0  0  0  0  0  0
    3.5724    1.2375    0.0000 C   0  0  0  0  0  0  0  0  0  0  0  0
    0.0000    0.0000    0.0000 C   0  0  0  0  0  0  0  0  0  0  0  0
   -0.7145   -0.4125    0.0000 C   0  0  0  0  0  0  0  0  0  0  0  0
    0.7145    2.0625    0.0000 C   0  0  0  0  0  0  0  0  0  0  0  0
    2.1434    2.0625    0.0000 C   0  0  0  0  0  0  0  0  0  0  0  0
    3.5724    2.0625    0.0000 C   0  0  0  0  0  0  0  0  0  0  0  0
    2.1434    1.2375    0.0000 C   0  0  0  0  0  0  0  0  0  0  0  0
    0.7145    1.2375    0.0000 C   0  0  0  0  0  0  0  0  0  0  0  0
    2.8579    2.4750    0.0000 C   0  0  0  0  0  0  0  0  0  0  0  0
    4.2868    2.4750    0.0000 C   0  0  0  0  0  0  0  0  0  0  0  0
    2.8579    0.8250    0.0000 N   0  0  0  0  0  0  0  0  0  0  0  0
    2.8579    3.3000    0.0000 O   0  0  0  0  0  0  0  0  0  0  0  0
    4.2868    3.3000    0.0000 O   0  0  0  0  0  0  0  0  0  0  0  0
    5.0013    2.0625    0.0000 O   0  0  0  0  0  0  0  0  0  0  0  0
    0.0000    0.8250    0.0000 O   0  0  0  0  0  0  0  0  0  0  0  0
  3  1  1  0  0  0  0
  4  3  1  0  0  0  0
  6  5  2  0  0  0  0
  7  5  1  0  0  0  0
  8  6  1  0  0  0  0
  9  7  2  0  0  0  0
 10  4  1  0  0  0  0
 15  8  2  0  0  0  0
 15  9  1  0  0  0  0
 15 14  1  0  0  0  0
 16 10  1  0  0  0  0
 16 11  2  0  0  0  0
 17 11  1  0  0  0  0
 18 13  2  0  0  0  0
 19 12  1  0  0  0  0
 19 17  2  0  0  0  0
 20 12  2  0  0  0  0
 20 16  1  0  0  0  0
 21 17  1  0  0  0  0
 21 18  1  0  0  0  0
 22 18  1  0  0  0  0
 23 13  1  0  0  0  0
 23 19  1  0  0  0  0
 24 21  2  0  0  0  0
 25 22  2  0  0  0  0
 26  2  1  0  0  0  0
 26 22  1  0  0  0  0
 27 14  1  0  0  0  0
 27 20  1  0  0  0  0
M  END
> <DATABASE_ID>
DB11433

> <DATABASE_NAME>
drugbank

> <SMILES>
CCCCC1=CC2=C(NC=C(C(=O)OC)C2=O)C=C1OCC1=CC=CC=C1

> <INCHI_IDENTIFIER>
InChI=1S/C22H23NO4/c1-3-4-10-16-11-17-19(23-13-18(21(17)24)22(25)26-2)12-20(16)27-14-15-8-6-5-7-9-15/h5-9,11-13H,3-4,10,14H2,1-2H3,(H,23,24)

> <INCHI_KEY>
NNOPDLNHPOLRRE-UHFFFAOYSA-N

> <FORMULA>
C22H23NO4

> <MOLECULAR_WEIGHT>
365.4223

> <EXACT_MASS>
365.162708229

> <JCHEM_ACCEPTOR_COUNT>
4

> <JCHEM_ATOM_COUNT>
50

> <JCHEM_AVERAGE_NEUTRAL_MICROSPECIES_CHARGE>
-0.0007011107753712638

> <JCHEM_AVERAGE_POLARIZABILITY>
41.02265332536878

> <JCHEM_BIOAVAILABILITY>
1

> <JCHEM_DONOR_COUNT>
1

> <JCHEM_FORMAL_CHARGE>
0

> <JCHEM_GHOSE_FILTER>
1

> <JCHEM_IUPAC>
methyl 7-(benzyloxy)-6-butyl-4-oxo-1,4-dihydroquinoline-3-carboxylate

> <ALOGPS_LOGP>
4.34

> <JCHEM_LOGP>
5.330329666000001

> <ALOGPS_LOGS>
-5.68

> <JCHEM_MDDR_LIKE_RULE>
1

> <JCHEM_NEUTRAL_CHARGE>
0

> <JCHEM_NUMBER_OF_RINGS>
3

> <JCHEM_PHYSIOLOGICAL_CHARGE>
0

> <JCHEM_PKA_STRONGEST_ACIDIC>
10.153907866980049

> <JCHEM_PKA_STRONGEST_BASIC>
-1.8400724661545276

> <JCHEM_POLAR_SURFACE_AREA>
64.63000000000001

> <JCHEM_REFRACTIVITY>
105.78209999999996

> <JCHEM_ROTATABLE_BOND_COUNT>
8

> <JCHEM_RULE_OF_FIVE>
0

> <ALOGPS_SOLUBILITY>
7.63e-04 g/l

> <JCHEM_TRADITIONAL_IUPAC>
biotin

> <JCHEM_VEBER_RULE>
0

> <DRUGBANK_ID>
DB11433

> <DRUG_GROUPS>
vet_approved

> <GENERIC_NAME>
Nequinate

> <SYNONYMS>
Methyl benzoquate; Nequinate; Nequinato; Nequinatum

$$$$
