
  Mrv0541 05041404382D          

 47 47  0  0  1  0            999 V2000
   -1.4289    0.8250    0.0000 C   0  0  0  0  0  0  0  0  0  0  0  0
   -2.8579    0.8250    0.0000 C   0  0  0  0  0  0  0  0  0  0  0  0
   -3.5724    3.7125    0.0000 C   0  0  0  0  0  0  0  0  0  0  0  0
   -5.0013    3.7125    0.0000 C   0  0  0  0  0  0  0  0  0  0  0  0
    7.1447    2.4750    0.0000 C   0  0  0  0  0  0  0  0  0  0  0  0
    4.2868    3.3000    0.0000 C   0  0  0  0  0  0  0  0  0  0  0  0
   -6.4302    2.0625    0.0000 C   0  0  0  0  0  0  0  0  0  0  0  0
   -0.0000   -0.0000    0.0000 C   0  0  0  0  0  0  0  0  0  0  0  0
    0.7145   -0.4125    0.0000 C   0  0  0  0  0  0  0  0  0  0  0  0
   -0.0000    0.8250    0.0000 C   0  0  0  0  0  0  0  0  0  0  0  0
    1.4289   -0.0000    0.0000 C   0  0  0  0  0  0  0  0  0  0  0  0
    0.7145    1.2375    0.0000 C   0  0  0  0  0  0  0  0  0  0  0  0
    0.7145    2.0625    0.0000 C   0  0  0  0  0  0  0  0  0  0  0  0
   -0.0000    2.4750    0.0000 C   0  0  0  0  0  0  0  0  0  0  0  0
    2.1434    1.2375    0.0000 C   0  0  0  0  0  0  0  0  0  0  0  0
   -2.1434    1.2375    0.0000 C   0  0  0  0  0  0  0  0  0  0  0  0
   -4.2868    3.3000    0.0000 C   0  0  0  0  0  0  0  0  0  0  0  0
    6.4302    2.0625    0.0000 C   0  0  1  0  0  0  0  0  0  0  0  0
    4.2868    2.4750    0.0000 C   0  0  1  0  0  0  0  0  0  0  0  0
    1.4289    0.8250    0.0000 C   0  0  0  0  0  0  0  0  0  0  0  0
    2.1434    2.0625    0.0000 C   0  0  1  0  0  0  0  0  0  0  0  0
    1.4289    2.4750    0.0000 C   0  0  1  0  0  0  0  0  0  0  0  0
   -0.7145    2.0625    0.0000 C   0  0  0  0  0  0  0  0  0  0  0  0
   -2.1434    2.0625    0.0000 C   0  0  1  0  0  0  0  0  0  0  0  0
   -4.2868    2.4750    0.0000 C   0  0  1  0  0  0  0  0  0  0  0  0
    5.7158    2.4750    0.0000 C   0  0  0  0  0  0  0  0  0  0  0  0
    3.5724    2.0625    0.0000 C   0  0  0  0  0  0  0  0  0  0  0  0
   -2.8579    2.4750    0.0000 C   0  0  0  0  0  0  0  0  0  0  0  0
   -5.0013    2.0625    0.0000 C   0  0  0  0  0  0  0  0  0  0  0  0
    6.4302    1.2375    0.0000 N   0  0  0  0  0  0  0  0  0  0  0  0
    5.0013    2.0625    0.0000 N   0  0  0  0  0  0  0  0  0  0  0  0
    2.8579    2.4750    0.0000 N   0  0  0  0  0  0  0  0  0  0  0  0
   -1.4289    2.4750    0.0000 N   0  0  0  0  0  0  0  0  0  0  0  0
   -3.5724    2.0625    0.0000 N   0  0  0  0  0  0  0  0  0  0  0  0
    1.4289    3.3000    0.0000 O   0  0  0  0  0  0  0  0  0  0  0  0
   -0.7145    1.2375    0.0000 O   0  0  0  0  0  0  0  0  0  0  0  0
    5.7158    3.3000    0.0000 O   0  0  0  0  0  0  0  0  0  0  0  0
    3.5724    1.2375    0.0000 O   0  0  0  0  0  0  0  0  0  0  0  0
   -2.8579    3.3000    0.0000 O   0  0  0  0  0  0  0  0  0  0  0  0
   -5.0013    1.2375    0.0000 O   0  0  0  0  0  0  0  0  0  0  0  0
   -5.7158    2.4750    0.0000 O   0  0  0  0  0  0  0  0  0  0  0  0
    6.4302    2.8875    0.0000 H   0  0  0  0  0  0  0  0  0  0  0  0
    3.5724    2.8875    0.0000 H   0  0  0  0  0  0  0  0  0  0  0  0
    1.6131    1.4305    0.0000 H   0  0  0  0  0  0  0  0  0  0  0  0
    1.1468    1.6998    0.0000 H   0  0  0  0  0  0  0  0  0  0  0  0
   -2.8579    1.6500    0.0000 H   0  0  0  0  0  0  0  0  0  0  0  0
   -5.0013    2.8875    0.0000 H   0  0  0  0  0  0  0  0  0  0  0  0
  9  8  2  0  0  0  0
 10  8  1  0  0  0  0
 11  9  1  0  0  0  0
 12 10  2  0  0  0  0
 14 13  1  0  0  0  0
 16  1  1  0  0  0  0
 16  2  1  0  0  0  0
 17  3  1  0  0  0  0
 17  4  1  0  0  0  0
 18  5  1  0  0  0  0
 19  6  1  6  0  0  0
 20 11  2  0  0  0  0
 20 12  1  0  0  0  0
 20 15  1  0  0  0  0
 21 15  1  0  0  0  0
 22 13  1  0  0  0  0
 22 21  1  0  0  0  0
 23 14  1  0  0  0  0
 24 16  1  0  0  0  0
 25 17  1  0  0  0  0
 26 18  1  0  0  0  0
 27 19  1  0  0  0  0
 28 24  1  0  0  0  0
 29 25  1  0  0  0  0
 18 30  1  1  0  0  0
 31 19  1  0  0  0  0
 31 26  1  0  0  0  0
 21 32  1  6  0  0  0
 32 27  1  0  0  0  0
 33 23  1  0  0  0  0
 24 33  1  6  0  0  0
 25 34  1  1  0  0  0
 34 28  1  0  0  0  0
 22 35  1  1  0  0  0
 36 23  2  0  0  0  0
 37 26  2  0  0  0  0
 38 27  2  0  0  0  0
 39 28  2  0  0  0  0
 40 29  2  0  0  0  0
 41  7  1  0  0  0  0
 41 29  1  0  0  0  0
 18 42  1  1  0  0  0
 19 43  1  1  0  0  0
 21 44  1  6  0  0  0
 22 45  1  1  0  0  0
 24 46  1  6  0  0  0
 25 47  1  1  0  0  0
M  END
> <DATABASE_ID>
DB04191

> <DATABASE_NAME>
drugbank

> <SMILES>
[H][C@@](C)(N)C(=O)N[C@@]([H])(C)C(=O)N[C@@]([H])(CC1=CC=CC=C1)[C@@]([H])(O)CCC(=O)N[C@@]([H])(C(C)C)C(=O)N[C@@]([H])(C(C)C)C(=O)OC

> <INCHI_IDENTIFIER>
InChI=1S/C29H47N5O7/c1-16(2)24(28(39)34-25(17(3)4)29(40)41-7)33-23(36)14-13-22(35)21(15-20-11-9-8-10-12-20)32-27(38)19(6)31-26(37)18(5)30/h8-12,16-19,21-22,24-25,35H,13-15,30H2,1-7H3,(H,31,37)(H,32,38)(H,33,36)(H,34,39)/t18-,19-,21-,22-,24-,25-/m0/s1

> <INCHI_KEY>
IUDCAKKZLXFOQA-QJAPXLAMSA-N

> <FORMULA>
C29H47N5O7

> <MOLECULAR_WEIGHT>
577.7128

> <EXACT_MASS>
577.347548883

> <JCHEM_ACCEPTOR_COUNT>
7

> <JCHEM_ATOM_COUNT>
88

> <JCHEM_AVERAGE_NEUTRAL_MICROSPECIES_CHARGE>
0.9244414203058002

> <JCHEM_AVERAGE_POLARIZABILITY>
62.56004374034732

> <JCHEM_BIOAVAILABILITY>
0

> <JCHEM_DONOR_COUNT>
6

> <JCHEM_FORMAL_CHARGE>
0

> <JCHEM_GHOSE_FILTER>
0

> <JCHEM_IUPAC>
methyl (2S)-2-[(2S)-2-[(4S,5S)-5-[(2S)-2-[(2S)-2-aminopropanamido]propanamido]-4-hydroxy-6-phenylhexanamido]-3-methylbutanamido]-3-methylbutanoate

> <ALOGPS_LOGP>
1.22

> <JCHEM_LOGP>
0.5955733439999997

> <ALOGPS_LOGS>
-4.39

> <JCHEM_MDDR_LIKE_RULE>
0

> <JCHEM_NEUTRAL_CHARGE>
1

> <JCHEM_NUMBER_OF_RINGS>
1

> <JCHEM_PHYSIOLOGICAL_CHARGE>
1

> <JCHEM_PKA>
12.660506199331268

> <JCHEM_PKA_STRONGEST_ACIDIC>
12.05320267333141

> <JCHEM_PKA_STRONGEST_BASIC>
8.087668706669724

> <JCHEM_POLAR_SURFACE_AREA>
188.94999999999996

> <JCHEM_REFRACTIVITY>
152.4080000000001

> <JCHEM_ROTATABLE_BOND_COUNT>
17

> <JCHEM_RULE_OF_FIVE>
0

> <ALOGPS_SOLUBILITY>
2.37e-02 g/l

> <JCHEM_TRADITIONAL_IUPAC>
biotin

> <JCHEM_VEBER_RULE>
0

> <DRUGBANK_ID>
DB04191

> <SECONDARY_ACCESSION_NUMBERS>
EXPT01606

> <DRUG_GROUPS>
experimental

> <GENERIC_NAME>
Skf 107457

$$$$
