
  Mrv0541 02231216282D          

  5  4  0  0  0  0            999 V2000
    2.4750   -1.4289    0.0000 C   0  0  0  0  0  0  0  0  0  0  0  0
    2.0625   -0.7145    0.0000 O   0  0  0  0  0  0  0  0  0  0  0  0
    1.2375   -0.7145    0.0000 C   0  0  0  0  0  0  0  0  0  0  0  0
    0.8250    0.0000    0.0000 C   0  0  0  0  0  0  0  0  0  0  0  0
    0.0000    0.0000    0.0000 O   0  0  0  0  0  0  0  0  0  0  0  0
  1  2  1  0  0  0  0
  2  3  1  0  0  0  0
  3  4  1  0  0  0  0
  4  5  1  0  0  0  0
M  END
> <DATABASE_ID>
DB02806

> <DATABASE_NAME>
drugbank

> <SMILES>
COCCO

> <INCHI_IDENTIFIER>
InChI=1S/C3H8O2/c1-5-3-2-4/h4H,2-3H2,1H3

> <INCHI_KEY>
XNWFRZJHXBZDAG-UHFFFAOYSA-N

> <FORMULA>
C3H8O2

> <MOLECULAR_WEIGHT>
76.0944

> <EXACT_MASS>
76.0524295

> <JCHEM_ACCEPTOR_COUNT>
2

> <JCHEM_ATOM_COUNT>
13

> <JCHEM_AVERAGE_NEUTRAL_MICROSPECIES_CHARGE>
-7.3685932461284886e-09

> <JCHEM_AVERAGE_POLARIZABILITY>
8.218852115299116

> <JCHEM_BIOAVAILABILITY>
1

> <JCHEM_DONOR_COUNT>
1

> <JCHEM_FORMAL_CHARGE>
0

> <JCHEM_GHOSE_FILTER>
0

> <JCHEM_IUPAC>
2-methoxyethan-1-ol

> <ALOGPS_LOGP>
-0.78

> <JCHEM_LOGP>
-0.5655525769999998

> <ALOGPS_LOGS>
1.03

> <JCHEM_MDDR_LIKE_RULE>
0

> <JCHEM_NEUTRAL_CHARGE>
0

> <JCHEM_NUMBER_OF_RINGS>
0

> <JCHEM_PHYSIOLOGICAL_CHARGE>
0

> <JCHEM_PKA_STRONGEST_ACIDIC>
15.122038740886557

> <JCHEM_PKA_STRONGEST_BASIC>
-2.745420254736219

> <JCHEM_POLAR_SURFACE_AREA>
29.46

> <JCHEM_REFRACTIVITY>
19.304799999999997

> <JCHEM_ROTATABLE_BOND_COUNT>
2

> <JCHEM_RULE_OF_FIVE>
1

> <ALOGPS_SOLUBILITY>
8.12e+02 g/l

> <JCHEM_TRADITIONAL_IUPAC>
biotin

> <JCHEM_VEBER_RULE>
1

> <DRUGBANK_ID>
DB02806

> <SECONDARY_ACCESSION_NUMBERS>
EXPT02260

> <DRUG_GROUPS>
experimental

> <GENERIC_NAME>
2-Methoxyethanol

$$$$
