
  Mrv0541 02231215482D          

 10 10  0  0  0  0            999 V2000
    2.1434   -0.4125    0.0000 N   0  0  0  0  0  0  0  0  0  0  0  0
    1.4289    0.0000    0.0000 C   0  0  0  0  0  0  0  0  0  0  0  0
    0.7145   -0.4125    0.0000 C   0  0  0  0  0  0  0  0  0  0  0  0
    0.0000    0.0000    0.0000 C   0  0  0  0  0  0  0  0  0  0  0  0
    0.0000    0.8250    0.0000 C   0  0  0  0  0  0  0  0  0  0  0  0
    0.7145    1.2375    0.0000 C   0  0  0  0  0  0  0  0  0  0  0  0
    1.4289    0.8250    0.0000 C   0  0  0  0  0  0  0  0  0  0  0  0
    0.7145    2.0625    0.0000 B   0  0  0  0  0  0  0  0  0  0  0  0
    0.0000    2.4750    0.0000 O   0  0  0  0  0  0  0  0  0  0  0  0
    1.4289    2.4750    0.0000 O   0  0  0  0  0  0  0  0  0  0  0  0
  1  2  1  0  0  0  0
  2  3  2  0  0  0  0
  3  4  1  0  0  0  0
  4  5  2  0  0  0  0
  5  6  1  0  0  0  0
  6  7  2  0  0  0  0
  2  7  1  0  0  0  0
  6  8  1  0  0  0  0
  8  9  1  0  0  0  0
  8 10  1  0  0  0  0
M  END
> <DATABASE_ID>
DB01896

> <DATABASE_NAME>
drugbank

> <SMILES>
NC1=CC=CC(=C1)B(O)O

> <INCHI_IDENTIFIER>
InChI=1S/C6H8BNO2/c8-6-3-1-2-5(4-6)7(9)10/h1-4,9-10H,8H2

> <INCHI_KEY>
JMZFEHDNIAQMNB-UHFFFAOYSA-N

> <FORMULA>
C6H8BNO2

> <MOLECULAR_WEIGHT>
136.944

> <EXACT_MASS>
137.064808971

> <JCHEM_ACCEPTOR_COUNT>
3

> <JCHEM_ATOM_COUNT>
18

> <JCHEM_AVERAGE_NEUTRAL_MICROSPECIES_CHARGE>
-0.016065687905902015

> <JCHEM_AVERAGE_POLARIZABILITY>
14.426594988388871

> <JCHEM_BIOAVAILABILITY>
1

> <JCHEM_DONOR_COUNT>
3

> <JCHEM_FORMAL_CHARGE>
0

> <JCHEM_GHOSE_FILTER>
0

> <JCHEM_IUPAC>
(3-aminophenyl)boronic acid

> <ALOGPS_LOGP>
0.21

> <JCHEM_LOGP>
0.8565999999999998

> <ALOGPS_LOGS>
-1.73

> <JCHEM_MDDR_LIKE_RULE>
0

> <JCHEM_NEUTRAL_CHARGE>
0

> <JCHEM_NUMBER_OF_RINGS>
1

> <JCHEM_PHYSIOLOGICAL_CHARGE>
0

> <JCHEM_PKA>
11.083731195887195

> <JCHEM_PKA_STRONGEST_ACIDIC>
8.787966083315016

> <JCHEM_PKA_STRONGEST_BASIC>
3.1215054718426485

> <JCHEM_POLAR_SURFACE_AREA>
66.48

> <JCHEM_REFRACTIVITY>
35.3039

> <JCHEM_ROTATABLE_BOND_COUNT>
1

> <JCHEM_RULE_OF_FIVE>
1

> <ALOGPS_SOLUBILITY>
2.53e+00 g/l

> <JCHEM_TRADITIONAL_IUPAC>
tetrahydrofolic acid

> <JCHEM_VEBER_RULE>
0

> <DRUGBANK_ID>
DB01896

> <SECONDARY_ACCESSION_NUMBERS>
EXPT00538

> <DRUG_GROUPS>
experimental

> <GENERIC_NAME>
M-Aminophenylboronic Acid

$$$$
