
  Mrv0541 02231216242D          

  8  7  0  0  0  0            999 V2000
   -0.1914    0.7146    0.0000 C   0  0  0  0  0  0  0  0  0  0  0  0
    0.5230    1.1271    0.0000 C   0  0  0  0  0  0  0  0  0  0  0  0
    0.5230    1.9521    0.0000 O   0  0  0  0  0  0  0  0  0  0  0  0
    1.2376    0.7146    0.0000 N   0  0  0  0  0  0  0  0  0  0  0  0
    1.9521    1.1271    0.0000 C   0  0  0  0  0  0  0  0  0  0  0  0
    2.6666    0.7146    0.0000 C   0  0  0  0  0  0  0  0  0  0  0  0
    3.3812    1.1271    0.0000 O   0  0  0  0  0  0  0  0  0  0  0  0
    2.6666   -0.1105    0.0000 O   0  0  0  0  0  0  0  0  0  0  0  0
  1  2  1  0  0  0  0
  2  3  2  0  0  0  0
  2  4  1  0  0  0  0
  4  5  1  0  0  0  0
  5  6  1  0  0  0  0
  6  7  1  0  0  0  0
  6  8  2  0  0  0  0
M  END
> <DATABASE_ID>
DB02713

> <DATABASE_NAME>
drugbank

> <SMILES>
CC(=O)NCC(O)=O

> <INCHI_IDENTIFIER>
InChI=1S/C4H7NO3/c1-3(6)5-2-4(7)8/h2H2,1H3,(H,5,6)(H,7,8)

> <INCHI_KEY>
OKJIRPAQVSHGFK-UHFFFAOYSA-N

> <FORMULA>
C4H7NO3

> <MOLECULAR_WEIGHT>
117.1033

> <EXACT_MASS>
117.042593095

> <JCHEM_ACCEPTOR_COUNT>
3

> <JCHEM_ATOM_COUNT>
15

> <JCHEM_AVERAGE_NEUTRAL_MICROSPECIES_CHARGE>
-0.9994081364597233

> <JCHEM_AVERAGE_POLARIZABILITY>
10.690091704986068

> <JCHEM_BIOAVAILABILITY>
1

> <JCHEM_DONOR_COUNT>
2

> <JCHEM_FORMAL_CHARGE>
0

> <JCHEM_GHOSE_FILTER>
0

> <JCHEM_IUPAC>
2-acetamidoacetic acid

> <ALOGPS_LOGP>
-0.89

> <JCHEM_LOGP>
-1.3286289540000003

> <ALOGPS_LOGS>
-0.36

> <JCHEM_MDDR_LIKE_RULE>
0

> <JCHEM_NEUTRAL_CHARGE>
-1

> <JCHEM_NUMBER_OF_RINGS>
0

> <JCHEM_PHYSIOLOGICAL_CHARGE>
-1

> <JCHEM_PKA>
15.581933746898102

> <JCHEM_PKA_STRONGEST_ACIDIC>
3.772480582340469

> <JCHEM_PKA_STRONGEST_BASIC>
-2.0460057413187704

> <JCHEM_POLAR_SURFACE_AREA>
66.4

> <JCHEM_REFRACTIVITY>
25.4472

> <JCHEM_ROTATABLE_BOND_COUNT>
2

> <JCHEM_RULE_OF_FIVE>
1

> <ALOGPS_SOLUBILITY>
5.13e+01 g/l

> <JCHEM_TRADITIONAL_IUPAC>
biotin

> <JCHEM_VEBER_RULE>
0

> <DRUGBANK_ID>
DB02713

> <SECONDARY_ACCESSION_NUMBERS>
EXPT00379

> <DRUG_GROUPS>
experimental

> <GENERIC_NAME>
Acetylamino-Acetic Acid

$$$$
