
  Mrv0541 05031420352D          

 14 15  0  0  0  0            999 V2000
    1.3556   -2.3479    0.0000 C   0  0  0  0  0  0  0  0  0  0  0  0
    2.7845    0.1271    0.0000 C   0  0  0  0  0  0  0  0  0  0  0  0
    0.6411   -0.2854    0.0000 C   0  0  0  0  0  0  0  0  0  0  0  0
    0.6411   -1.1104    0.0000 C   0  0  0  0  0  0  0  0  0  0  0  0
    1.3556    0.1271    0.0000 C   0  0  0  0  0  0  0  0  0  0  0  0
   -0.6284   -0.6979    0.0000 C   0  0  0  0  0  0  0  0  0  0  0  0
    2.0701   -1.1104    0.0000 C   0  0  0  0  0  0  0  0  0  0  0  0
   -1.4534   -0.6979    0.0000 N   0  0  0  0  0  0  0  0  0  0  0  0
   -0.1435   -0.0305    0.0000 N   0  0  0  0  0  0  0  0  0  0  0  0
   -0.1435   -1.3654    0.0000 N   0  0  0  0  0  0  0  0  0  0  0  0
    1.3556   -1.5229    0.0000 N   0  0  0  0  0  0  0  0  0  0  0  0
    2.0701   -0.2854    0.0000 N   0  0  0  0  0  0  0  0  0  0  0  0
    1.3556    0.9521    0.0000 O   0  0  0  0  0  0  0  0  0  0  0  0
    2.7845   -1.5229    0.0000 O   0  0  0  0  0  0  0  0  0  0  0  0
  4  3  2  0  0  0  0
  5  3  1  0  0  0  0
  8  6  2  0  0  0  0
  9  3  1  0  0  0  0
  9  6  1  0  0  0  0
 10  4  1  0  0  0  0
 10  6  1  0  0  0  0
 11  1  1  0  0  0  0
 11  4  1  0  0  0  0
 11  7  1  0  0  0  0
 12  2  1  0  0  0  0
 12  5  1  0  0  0  0
 12  7  1  0  0  0  0
 13  5  2  0  0  0  0
 14  7  2  0  0  0  0
M  END
> <DATABASE_ID>
DB01778

> <DATABASE_NAME>
drugbank

> <SMILES>
CN1C2=C(NC(=N)N2)C(=O)N(C)C1=O

> <INCHI_IDENTIFIER>
InChI=1S/C7H9N5O2/c1-11-4-3(9-6(8)10-4)5(13)12(2)7(11)14/h1-2H3,(H3,8,9,10)

> <INCHI_KEY>
ZZESAIGPDOBLKZ-UHFFFAOYSA-N

> <FORMULA>
C7H9N5O2

> <MOLECULAR_WEIGHT>
195.1787

> <EXACT_MASS>
195.075624557

> <JCHEM_ACCEPTOR_COUNT>
5

> <JCHEM_ATOM_COUNT>
23

> <JCHEM_AVERAGE_NEUTRAL_MICROSPECIES_CHARGE>
0.9820822705076884

> <JCHEM_AVERAGE_POLARIZABILITY>
18.400688454877894

> <JCHEM_BIOAVAILABILITY>
1

> <JCHEM_DONOR_COUNT>
3

> <JCHEM_FORMAL_CHARGE>
0

> <JCHEM_GHOSE_FILTER>
0

> <JCHEM_IUPAC>
8-imino-1,3-dimethyl-2,3,6,7,8,9-hexahydro-1H-purine-2,6-dione

> <ALOGPS_LOGP>
-1.08

> <JCHEM_LOGP>
-1.2238459576666667

> <ALOGPS_LOGS>
-1.72

> <JCHEM_MDDR_LIKE_RULE>
0

> <JCHEM_NEUTRAL_CHARGE>
1

> <JCHEM_NUMBER_OF_RINGS>
2

> <JCHEM_PHYSIOLOGICAL_CHARGE>
1

> <JCHEM_PKA>
19.473621920698413

> <JCHEM_PKA_STRONGEST_ACIDIC>
11.265543718442299

> <JCHEM_PKA_STRONGEST_BASIC>
8.740353035851774

> <JCHEM_POLAR_SURFACE_AREA>
88.53

> <JCHEM_REFRACTIVITY>
67.89399999999998

> <JCHEM_ROTATABLE_BOND_COUNT>
0

> <JCHEM_RULE_OF_FIVE>
1

> <ALOGPS_SOLUBILITY>
3.68e+00 g/l

> <JCHEM_TRADITIONAL_IUPAC>
tetrahydrofolic acid

> <JCHEM_VEBER_RULE>
0

> <DRUGBANK_ID>
DB01778

> <SECONDARY_ACCESSION_NUMBERS>
EXPT00087

> <DRUG_GROUPS>
experimental

> <GENERIC_NAME>
8-Aminotheophylline

> <SYNONYMS>
8-Amino-1,3-dimethyl-3,7-dihydropurine-2,6-dione

$$$$
