
  Mrv0541 02231217522D          

 52 56  0  0  1  0            999 V2000
   -6.3235   -1.4223    0.0000 N   0  0  0  0  0  0  0  0  0  0  0  0
   -6.3235   -0.5973    0.0000 C   0  0  0  0  0  0  0  0  0  0  0  0
   -5.6091   -0.1848    0.0000 C   0  0  2  0  0  0  0  0  0  0  0  0
   -4.8946   -0.5973    0.0000 O   0  0  0  0  0  0  0  0  0  0  0  0
   -4.1801   -0.1848    0.0000 C   0  0  2  0  0  0  0  0  0  0  0  0
   -3.4656   -0.5973    0.0000 O   0  0  0  0  0  0  0  0  0  0  0  0
   -3.4656   -1.4223    0.0000 C   0  0  2  0  0  0  0  0  0  0  0  0
   -4.1331   -1.9072    0.0000 C   0  0  1  0  0  0  0  0  0  0  0  0
   -4.9177   -1.6523    0.0000 C   0  0  0  0  0  0  0  0  0  0  0  0
   -5.5308   -2.2043    0.0000 O   0  0  0  0  0  0  0  0  0  0  0  0
   -3.8781   -2.6919    0.0000 O   0  0  0  0  0  0  0  0  0  0  0  0
   -3.0531   -2.6919    0.0000 C   0  0  1  0  0  0  0  0  0  0  0  0
   -2.5682   -3.3593    0.0000 O   0  0  0  0  0  0  0  0  0  0  0  0
   -2.9038   -4.1130    0.0000 C   0  0  2  0  0  0  0  0  0  0  0  0
   -2.4189   -4.7804    0.0000 C   0  0  1  0  0  0  0  0  0  0  0  0
   -1.5984   -4.6942    0.0000 O   0  0  0  0  0  0  0  0  0  0  0  0
   -2.7544   -5.5341    0.0000 C   0  0  2  0  0  0  0  0  0  0  0  0
   -2.2695   -6.2015    0.0000 N   0  0  0  0  0  0  0  0  0  0  0  0
   -3.5749   -5.6203    0.0000 C   0  0  0  0  0  0  0  0  0  0  0  0
   -4.0598   -4.9529    0.0000 C   0  0  2  0  0  0  0  0  0  0  0  0
   -4.8803   -5.0391    0.0000 N   0  0  0  0  0  0  0  0  0  0  0  0
   -3.7243   -4.1992    0.0000 C   0  0  1  0  0  0  0  0  0  0  0  0
   -4.2092   -3.5318    0.0000 O   0  0  0  0  0  0  0  0  0  0  0  0
   -5.0297   -3.6180    0.0000 C   0  0  1  0  0  0  0  0  0  0  0  0
   -5.3652   -4.3717    0.0000 O   0  0  0  0  0  0  0  0  0  0  0  0
   -6.1857   -4.4579    0.0000 C   0  0  2  0  0  0  0  0  0  0  0  0
   -6.5213   -5.2116    0.0000 C   0  0  0  0  0  0  0  0  0  0  0  0
   -7.3417   -5.2978    0.0000 O   0  0  0  0  0  0  0  0  0  0  0  0
   -6.6706   -3.7905    0.0000 C   0  0  1  0  0  0  0  0  0  0  0  0
   -7.4911   -3.8767    0.0000 O   0  0  0  0  0  0  0  0  0  0  0  0
   -6.3351   -3.0368    0.0000 C   0  0  0  0  0  0  0  0  0  0  0  0
   -5.5146   -2.9506    0.0000 C   0  0  1  0  0  0  0  0  0  0  0  0
   -5.1790   -2.1969    0.0000 N   0  0  0  0  0  0  0  0  0  0  0  0
   -2.7982   -1.9072    0.0000 C   0  0  2  0  0  0  0  0  0  0  0  0
   -2.0136   -1.6523    0.0000 O   0  0  0  0  0  0  0  0  0  0  0  0
   -4.1801    0.6402    0.0000 C   0  0  2  0  0  0  0  0  0  0  0  0
   -3.4656    1.0527    0.0000 N   0  0  0  0  0  0  0  0  0  0  0  0
   -4.8946    1.0527    0.0000 C   0  0  1  0  0  0  0  0  0  0  0  0
   -4.8946    1.8777    0.0000 O   0  0  0  0  0  0  0  0  0  0  0  0
   -5.6091    0.6402    0.0000 C   0  0  2  0  0  0  0  0  0  0  0  0
   -6.3235    1.0527    0.0000 O   0  0  0  0  0  0  0  0  0  0  0  0
   -7.0380    0.6402    0.0000 C   0  0  1  0  0  0  0  0  0  0  0  0
   -7.0380   -0.1848    0.0000 O   0  0  0  0  0  0  0  0  0  0  0  0
   -7.7525   -0.5973    0.0000 C   0  0  2  0  0  0  0  0  0  0  0  0
   -7.7525   -1.4223    0.0000 C   0  0  0  0  0  0  0  0  0  0  0  0
   -8.4669   -1.8348    0.0000 O   0  0  0  0  0  0  0  0  0  0  0  0
   -8.4669   -0.1848    0.0000 C   0  0  1  0  0  0  0  0  0  0  0  0
   -9.1814   -0.5973    0.0000 O   0  0  0  0  0  0  0  0  0  0  0  0
   -8.4669    0.6402    0.0000 C   0  0  2  0  0  0  0  0  0  0  0  0
   -9.1814    1.0527    0.0000 O   0  0  0  0  0  0  0  0  0  0  0  0
   -7.7525    1.0527    0.0000 C   0  0  2  0  0  0  0  0  0  0  0  0
   -7.7525    1.8777    0.0000 O   0  0  0  0  0  0  0  0  0  0  0  0
  1  2  1  0  0  0  0
  3  2  1  1  0  0  0
  3  4  1  0  0  0  0
  4  5  1  0  0  0  0
  5  6  1  1  0  0  0
  7  6  1  1  0  0  0
  7  8  1  0  0  0  0
  8  9  1  6  0  0  0
  9 10  1  0  0  0  0
  8 11  1  0  0  0  0
 11 12  1  0  0  0  0
 12 13  1  6  0  0  0
 14 13  1  6  0  0  0
 14 15  1  0  0  0  0
 15 16  1  1  0  0  0
 15 17  1  0  0  0  0
 17 18  1  6  0  0  0
 17 19  1  0  0  0  0
 19 20  1  0  0  0  0
 20 21  1  6  0  0  0
 20 22  1  0  0  0  0
 14 22  1  0  0  0  0
 22 23  1  1  0  0  0
 24 23  1  1  0  0  0
 24 25  1  0  0  0  0
 25 26  1  0  0  0  0
 26 27  1  6  0  0  0
 27 28  1  0  0  0  0
 26 29  1  0  0  0  0
 29 30  1  1  0  0  0
 29 31  1  0  0  0  0
 31 32  1  0  0  0  0
 24 32  1  0  0  0  0
 32 33  1  1  0  0  0
 12 34  1  0  0  0  0
  7 34  1  0  0  0  0
 34 35  1  1  0  0  0
  5 36  1  0  0  0  0
 36 37  1  1  0  0  0
 36 38  1  0  0  0  0
 38 39  1  6  0  0  0
 38 40  1  0  0  0  0
  3 40  1  0  0  0  0
 40 41  1  1  0  0  0
 42 41  1  1  0  0  0
 42 43  1  0  0  0  0
 43 44  1  0  0  0  0
 44 45  1  6  0  0  0
 45 46  1  0  0  0  0
 44 47  1  0  0  0  0
 47 48  1  1  0  0  0
 47 49  1  0  0  0  0
 49 50  1  6  0  0  0
 49 51  1  0  0  0  0
 42 51  1  0  0  0  0
 51 52  1  6  0  0  0
M  END
> <DATABASE_ID>
DB04728

> <DATABASE_NAME>
drugbank

> <SMILES>
NC[C@@H]1O[C@H](O[C@@H]2[C@@H](CO)O[C@@H](O[C@@H]3[C@@H](O)[C@H](N)C[C@H](N)[C@H]3O[C@H]3O[C@H](CO)[C@@H](O)C[C@H]3N)[C@@H]2O)[C@H](N)[C@@H](O)[C@@H]1O[C@H]1O[C@H](CO)[C@@H](O)[C@H](O)[C@@H]1O

> <INCHI_IDENTIFIER>
InChI=1S/C29H55N5O18/c30-3-11-23(51-28-20(43)19(42)17(40)13(5-36)47-28)18(41)15(34)27(45-11)50-24-14(6-37)48-29(21(24)44)52-25-16(39)7(31)1-8(32)22(25)49-26-9(33)2-10(38)12(4-35)46-26/h7-29,35-44H,1-6,30-34H2/t7-,8+,9-,10+,11+,12-,13-,14-,15-,16+,17-,18-,19+,20+,21-,22-,23-,24-,25-,26-,27-,28-,29+/m1/s1

> <INCHI_KEY>
DBLVDAUGBTYDFR-SWMBIRFSSA-N

> <FORMULA>
C29H55N5O18

> <MOLECULAR_WEIGHT>
761.7697

> <EXACT_MASS>
761.354209981

> <JCHEM_ACCEPTOR_COUNT>
23

> <JCHEM_ATOM_COUNT>
107

> <JCHEM_AVERAGE_NEUTRAL_MICROSPECIES_CHARGE>
4.732261442561612

> <JCHEM_AVERAGE_POLARIZABILITY>
74.39347278564168

> <JCHEM_BIOAVAILABILITY>
0

> <JCHEM_DONOR_COUNT>
15

> <JCHEM_FORMAL_CHARGE>
0

> <JCHEM_GHOSE_FILTER>
0

> <JCHEM_IUPAC>
(2R,3S,4S,5S,6R)-2-{[(2S,3S,4R,5R,6R)-5-amino-2-(aminomethyl)-6-{[(2R,3S,4R,5S)-5-{[(1R,2R,3S,5R,6S)-3,5-diamino-2-{[(2S,3R,5S,6R)-3-amino-5-hydroxy-6-(hydroxymethyl)oxan-2-yl]oxy}-6-hydroxycyclohexyl]oxy}-4-hydroxy-2-(hydroxymethyl)oxolan-3-yl]oxy}-4-hydroxyoxan-3-yl]oxy}-6-(hydroxymethyl)oxane-3,4,5-triol

> <ALOGPS_LOGP>
-2.91

> <JCHEM_LOGP>
-9.388836914

> <ALOGPS_LOGS>
-1.06

> <JCHEM_MDDR_LIKE_RULE>
1

> <JCHEM_NEUTRAL_CHARGE>
5

> <JCHEM_NUMBER_OF_RINGS>
5

> <JCHEM_PHYSIOLOGICAL_CHARGE>
5

> <JCHEM_PKA>
12.609698057575738

> <JCHEM_PKA_STRONGEST_ACIDIC>
12.017412556724581

> <JCHEM_PKA_STRONGEST_BASIC>
9.766996799620323

> <JCHEM_POLAR_SURFACE_AREA>
406.2400000000001

> <JCHEM_REFRACTIVITY>
165.55900000000005

> <JCHEM_ROTATABLE_BOND_COUNT>
12

> <JCHEM_RULE_OF_FIVE>
0

> <ALOGPS_SOLUBILITY>
6.61e+01 g/l

> <JCHEM_TRADITIONAL_IUPAC>
tetrahydrofolic acid

> <JCHEM_VEBER_RULE>
0

> <DRUGBANK_ID>
DB04728

> <DRUG_GROUPS>
experimental

> <GENERIC_NAME>
Lividomycin A

> <SYNONYMS>
lividomicina

$$$$
