
  Mrv0541 02231217472D          

 49 51  0  0  1  0            999 V2000
   13.3597   -9.2112    0.0000 C   0  0  0  0  0  0  0  0  0  0  0  0
   12.5897   -8.9149    0.0000 C   0  0  0  0  0  0  0  0  0  0  0  0
   12.4614   -8.0999    0.0000 C   0  0  0  0  0  0  0  0  0  0  0  0
   11.9481   -9.4335    0.0000 C   0  0  0  0  0  0  0  0  0  0  0  0
   12.0764  -10.2485    0.0000 C   0  0  2  0  0  0  0  0  0  0  0  0
   11.4348  -10.7671    0.0000 N   0  0  0  0  0  0  0  0  0  0  0  0
   10.6649  -10.4707    0.0000 C   0  0  0  0  0  0  0  0  0  0  0  0
   10.5366   -9.6558    0.0000 O   0  0  0  0  0  0  0  0  0  0  0  0
   10.0233  -10.9893    0.0000 C   0  0  1  0  0  0  0  0  0  0  0  0
    9.2533  -10.6930    0.0000 N   0  0  0  0  0  0  0  0  0  0  0  0
    8.6117  -11.2116    0.0000 C   0  0  0  0  0  0  0  0  0  0  0  0
    8.7400  -12.0265    0.0000 O   0  0  0  0  0  0  0  0  0  0  0  0
    7.8418  -10.9152    0.0000 C   0  0  2  0  0  0  0  0  0  0  0  0
    7.7135  -10.1003    0.0000 C   0  0  0  0  0  0  0  0  0  0  0  0
    7.2002  -11.4338    0.0000 N   0  0  0  0  0  0  0  0  0  0  0  0
    6.4302  -11.1375    0.0000 C   0  0  0  0  0  0  0  0  0  0  0  0
    5.7886  -11.6561    0.0000 O   0  0  0  0  0  0  0  0  0  0  0  0
    6.3019  -10.3225    0.0000 C   0  0  0  0  0  0  0  0  0  0  0  0
    5.5672   -9.9473    0.0000 N   0  0  0  0  0  0  0  0  0  0  0  0
    5.6970   -9.1326    0.0000 O   0  0  0  0  0  0  0  0  0  0  0  0
    6.5119   -9.0043    0.0000 C   0  0  0  0  0  0  0  0  0  0  0  0
    6.8871   -8.2695    0.0000 C   0  0  0  0  0  0  0  0  0  0  0  0
    6.8858   -9.7397    0.0000 C   0  0  0  0  0  0  0  0  0  0  0  0
   10.1516  -11.8043    0.0000 C   0  0  0  0  0  0  0  0  0  0  0  0
    9.5100  -12.3229    0.0000 C   0  0  0  0  0  0  0  0  0  0  0  0
   10.9215  -12.1006    0.0000 C   0  0  0  0  0  0  0  0  0  0  0  0
   12.8464  -10.5448    0.0000 C   0  0  0  0  0  0  0  0  0  0  0  0
   12.9747  -11.3598    0.0000 O   0  0  0  0  0  0  0  0  0  0  0  0
   13.4880  -10.0262    0.0000 N   0  0  0  0  0  0  0  0  0  0  0  0
   14.2579  -10.3225    0.0000 C   0  0  1  0  0  0  0  0  0  0  0  0
   14.3863  -11.1375    0.0000 C   0  0  0  0  0  0  0  0  0  0  0  0
   15.1562  -11.4338    0.0000 C   0  0  2  0  0  0  0  0  0  0  0  0
   15.8485  -10.9851    0.0000 C   0  0  0  0  0  0  0  0  0  0  0  0
   16.4892  -11.5049    0.0000 C   0  0  0  0  0  0  0  0  0  0  0  0
   16.1928  -12.2749    0.0000 N   0  0  0  0  0  0  0  0  0  0  0  0
   15.3690  -12.2309    0.0000 C   0  0  0  0  0  0  0  0  0  0  0  0
   14.8492  -12.8716    0.0000 O   0  0  0  0  0  0  0  0  0  0  0  0
   14.8995   -9.8039    0.0000 C   0  0  0  0  0  0  0  0  0  0  0  0
   15.6695  -10.1003    0.0000 C   0  0  0  0  0  0  0  0  0  0  0  0
   16.3111   -9.5817    0.0000 C   0  0  0  0  0  0  0  0  0  0  0  0
   16.1828   -8.7667    0.0000 O   0  0  0  0  0  0  0  0  0  0  0  0
   17.0810   -9.8780    0.0000 O   0  0  0  0  0  0  0  0  0  0  0  0
   17.7226   -9.3594    0.0000 C   0  0  0  0  0  0  0  0  0  0  0  0
   18.4926   -9.6558    0.0000 C   0  0  0  0  0  0  0  0  0  0  0  0
   19.1342   -9.1371    0.0000 C   0  0  0  0  0  0  0  0  0  0  0  0
   19.9041   -9.4335    0.0000 C   0  0  0  0  0  0  0  0  0  0  0  0
   20.0325  -10.2485    0.0000 C   0  0  0  0  0  0  0  0  0  0  0  0
   19.3908  -10.7671    0.0000 C   0  0  0  0  0  0  0  0  0  0  0  0
   18.6209  -10.4707    0.0000 C   0  0  0  0  0  0  0  0  0  0  0  0
  1  2  1  0  0  0  0
  2  3  1  0  0  0  0
  2  4  1  0  0  0  0
  4  5  1  0  0  0  0
  5  6  1  1  0  0  0
  6  7  1  0  0  0  0
  7  8  2  0  0  0  0
  7  9  1  0  0  0  0
  9 10  1  6  0  0  0
 10 11  1  0  0  0  0
 11 12  2  0  0  0  0
 11 13  1  0  0  0  0
 13 14  1  1  0  0  0
 13 15  1  0  0  0  0
 15 16  1  0  0  0  0
 16 17  2  0  0  0  0
 16 18  1  0  0  0  0
 18 19  2  0  0  0  0
 19 20  1  0  0  0  0
 20 21  1  0  0  0  0
 21 22  1  0  0  0  0
 21 23  2  0  0  0  0
 18 23  1  0  0  0  0
  9 24  1  0  0  0  0
 24 25  1  0  0  0  0
 24 26  1  0  0  0  0
  5 27  1  0  0  0  0
 27 28  2  0  0  0  0
 27 29  1  0  0  0  0
 30 29  1  6  0  0  0
 30 31  1  0  0  0  0
 32 31  1  6  0  0  0
 32 33  1  0  0  0  0
 33 34  1  0  0  0  0
 34 35  1  0  0  0  0
 35 36  1  0  0  0  0
 32 36  1  0  0  0  0
 36 37  2  0  0  0  0
 30 38  1  0  0  0  0
 38 39  2  0  0  0  0
 39 40  1  0  0  0  0
 40 41  2  0  0  0  0
 40 42  1  0  0  0  0
 42 43  1  0  0  0  0
 43 44  1  0  0  0  0
 44 45  2  0  0  0  0
 45 46  1  0  0  0  0
 46 47  2  0  0  0  0
 47 48  1  0  0  0  0
 48 49  2  0  0  0  0
 44 49  1  0  0  0  0
M  END
> <DATABASE_ID>
DB04595

> <DATABASE_NAME>
drugbank

> <SMILES>
CC(C)C[C@H](NC(=O)[C@H](C(C)C)NC(=O)[C@H](C)NC(=O)C1=NOC(C)=C1)C(=O)N[C@H](\C=C\C(=O)OCC1=CC=CC=C1)C[C@@H]1CCNC1=O

> <INCHI_IDENTIFIER>
InChI=1S/C35H48N6O8/c1-20(2)16-27(39-35(47)30(21(3)4)40-31(43)23(6)37-34(46)28-17-22(5)49-41-28)33(45)38-26(18-25-14-15-36-32(25)44)12-13-29(42)48-19-24-10-8-7-9-11-24/h7-13,17,20-21,23,25-27,30H,14-16,18-19H2,1-6H3,(H,36,44)(H,37,46)(H,38,45)(H,39,47)(H,40,43)/b13-12+/t23-,25-,26+,27-,30-/m0/s1

> <INCHI_KEY>
IDBWWEGDLCFCTD-VNEMRZQUSA-N

> <FORMULA>
C35H48N6O8

> <MOLECULAR_WEIGHT>
680.791

> <EXACT_MASS>
680.353362542

> <JCHEM_ACCEPTOR_COUNT>
7

> <JCHEM_ATOM_COUNT>
97

> <JCHEM_AVERAGE_NEUTRAL_MICROSPECIES_CHARGE>
-2.6853951829455404e-05

> <JCHEM_AVERAGE_POLARIZABILITY>
72.40522523438898

> <JCHEM_BIOAVAILABILITY>
0

> <JCHEM_DONOR_COUNT>
5

> <JCHEM_FORMAL_CHARGE>
0

> <JCHEM_GHOSE_FILTER>
0

> <JCHEM_IUPAC>
benzyl (2E,4S)-4-[(2S)-4-methyl-2-[(2S)-3-methyl-2-[(2S)-2-[(5-methyl-1,2-oxazol-3-yl)formamido]propanamido]butanamido]pentanamido]-5-[(3S)-2-oxopyrrolidin-3-yl]pent-2-enoate

> <ALOGPS_LOGP>
2.21

> <JCHEM_LOGP>
2.340267483

> <ALOGPS_LOGS>
-4.24

> <JCHEM_MDDR_LIKE_RULE>
1

> <JCHEM_NEUTRAL_CHARGE>
0

> <JCHEM_NUMBER_OF_RINGS>
3

> <JCHEM_PHYSIOLOGICAL_CHARGE>
0

> <JCHEM_PKA>
12.43184943442317

> <JCHEM_PKA_STRONGEST_ACIDIC>
11.710732863711488

> <JCHEM_PKA_STRONGEST_BASIC>
-1.2224238302108306

> <JCHEM_POLAR_SURFACE_AREA>
197.82999999999998

> <JCHEM_REFRACTIVITY>
181.4452

> <JCHEM_ROTATABLE_BOND_COUNT>
18

> <JCHEM_RULE_OF_FIVE>
0

> <ALOGPS_SOLUBILITY>
3.93e-02 g/l

> <JCHEM_TRADITIONAL_IUPAC>
tetrahydrofolic acid

> <JCHEM_VEBER_RULE>
0

> <DRUGBANK_ID>
DB04595

> <DRUG_GROUPS>
experimental

> <GENERIC_NAME>
(E)-(4S,6S)-8-METHYL-6-((S)-3-METHYL-2-{(S)-2-[(5-METHYL-ISOXAZOLE-3-CARBONYL)-AMINO]-PROPIONYLAMINO}-BUTYRYLAMINO)-5-OXO-4-((R)-2-OXO-PYRROLIDIN-3-YLMETHYL)-NON-2-ENOIC ACID BENZYL ESTER

$$$$
