
  Mrv0541 02231217082D          

 12 13  0  0  0  0            999 V2000
    0.0000    0.8250    0.0000 C   0  0  0  0  0  0  0  0  0  0  0  0
    0.0000    0.0000    0.0000 C   0  0  0  0  0  0  0  0  0  0  0  0
   -0.7145   -0.4125    0.0000 C   0  0  0  0  0  0  0  0  0  0  0  0
   -0.7145   -1.2375    0.0000 C   0  0  0  0  0  0  0  0  0  0  0  0
    0.0000   -1.6500    0.0000 C   0  0  0  0  0  0  0  0  0  0  0  0
    0.7145   -1.2375    0.0000 C   0  0  0  0  0  0  0  0  0  0  0  0
    0.7145   -0.4125    0.0000 C   0  0  0  0  0  0  0  0  0  0  0  0
    1.4289    0.0000    0.0000 C   0  0  0  0  0  0  0  0  0  0  0  0
    2.1434   -0.4125    0.0000 C   0  0  0  0  0  0  0  0  0  0  0  0
    2.1434   -1.2375    0.0000 N   0  0  0  0  0  0  0  0  0  0  0  0
    1.4289   -1.6500    0.0000 C   0  0  0  0  0  0  0  0  0  0  0  0
    1.4289   -2.4750    0.0000 O   0  0  0  0  0  0  0  0  0  0  0  0
  1  2  1  0  0  0  0
  2  3  2  0  0  0  0
  3  4  1  0  0  0  0
  4  5  2  0  0  0  0
  5  6  1  0  0  0  0
  6  7  2  0  0  0  0
  2  7  1  0  0  0  0
  7  8  1  0  0  0  0
  8  9  1  0  0  0  0
  9 10  1  0  0  0  0
 10 11  1  0  0  0  0
  6 11  1  0  0  0  0
 11 12  2  0  0  0  0
M  END
> <DATABASE_ID>
DB03722

> <DATABASE_NAME>
drugbank

> <SMILES>
CC1=CC=CC2=C1CCNC2=O

> <INCHI_IDENTIFIER>
InChI=1S/C10H11NO/c1-7-3-2-4-9-8(7)5-6-11-10(9)12/h2-4H,5-6H2,1H3,(H,11,12)

> <INCHI_KEY>
RLLZPXDJYADIEU-UHFFFAOYSA-N

> <FORMULA>
C10H11NO

> <MOLECULAR_WEIGHT>
161.2004

> <EXACT_MASS>
161.084063979

> <JCHEM_ACCEPTOR_COUNT>
1

> <JCHEM_ATOM_COUNT>
23

> <JCHEM_AVERAGE_NEUTRAL_MICROSPECIES_CHARGE>
1.2102578045349863e-10

> <JCHEM_AVERAGE_POLARIZABILITY>
17.55083442467445

> <JCHEM_BIOAVAILABILITY>
1

> <JCHEM_DONOR_COUNT>
1

> <JCHEM_FORMAL_CHARGE>
0

> <JCHEM_GHOSE_FILTER>
1

> <JCHEM_IUPAC>
5-methyl-1,2,3,4-tetrahydroisoquinolin-1-one

> <ALOGPS_LOGP>
1.30

> <JCHEM_LOGP>
1.6008720716666665

> <ALOGPS_LOGS>
-2.33

> <JCHEM_MDDR_LIKE_RULE>
0

> <JCHEM_NEUTRAL_CHARGE>
0

> <JCHEM_NUMBER_OF_RINGS>
2

> <JCHEM_PHYSIOLOGICAL_CHARGE>
0

> <JCHEM_PKA_STRONGEST_ACIDIC>
14.84540324888368

> <JCHEM_PKA_STRONGEST_BASIC>
-0.8417369234448728

> <JCHEM_POLAR_SURFACE_AREA>
29.1

> <JCHEM_REFRACTIVITY>
48.383900000000004

> <JCHEM_ROTATABLE_BOND_COUNT>
0

> <JCHEM_RULE_OF_FIVE>
1

> <ALOGPS_SOLUBILITY>
7.53e-01 g/l

> <JCHEM_TRADITIONAL_IUPAC>
biotin

> <JCHEM_VEBER_RULE>
1

> <DRUGBANK_ID>
DB03722

> <SECONDARY_ACCESSION_NUMBERS>
EXPT01196

> <DRUG_GROUPS>
experimental

> <GENERIC_NAME>
3,4-Dihydro-5-Methyl-Isoquinolinone

$$$$
