
  Mrv0541 05041409402D          

 43 42  0  0  1  0            999 V2000
   -9.2664   -5.0013    0.0000 C   0  0  0  0  0  0  0  0  0  0  0  0
   10.0243   -4.5888    0.0000 C   0  0  0  0  0  0  0  0  0  0  0  0
    3.2112   -8.9052    0.0000 C   0  0  0  0  0  0  0  0  0  0  0  0
    4.6401   -8.0802    0.0000 C   0  0  0  0  0  0  0  0  0  0  0  0
    4.3381   -9.2072    0.0000 C   0  0  0  0  0  0  0  0  0  0  0  0
   -8.5520   -4.5888    0.0000 C   0  0  0  0  0  0  0  0  0  0  0  0
    9.3098   -5.0013    0.0000 C   0  0  0  0  0  0  0  0  0  0  0  0
   -7.8375   -5.0013    0.0000 C   0  0  0  0  0  0  0  0  0  0  0  0
    8.5953   -4.5888    0.0000 C   0  0  0  0  0  0  0  0  0  0  0  0
   -7.1230   -4.5888    0.0000 C   0  0  0  0  0  0  0  0  0  0  0  0
    7.8809   -5.0013    0.0000 C   0  0  0  0  0  0  0  0  0  0  0  0
   -6.4086   -5.0013    0.0000 C   0  0  0  0  0  0  0  0  0  0  0  0
    7.1664   -4.5888    0.0000 C   0  0  0  0  0  0  0  0  0  0  0  0
   -5.6941   -4.5888    0.0000 C   0  0  0  0  0  0  0  0  0  0  0  0
    6.4519   -5.0013    0.0000 C   0  0  0  0  0  0  0  0  0  0  0  0
   -4.9796   -5.0013    0.0000 C   0  0  0  0  0  0  0  0  0  0  0  0
    5.7374   -4.5888    0.0000 C   0  0  0  0  0  0  0  0  0  0  0  0
   -4.2651   -4.5888    0.0000 C   0  0  0  0  0  0  0  0  0  0  0  0
    5.0230   -5.0013    0.0000 C   0  0  0  0  0  0  0  0  0  0  0  0
   -3.5507   -5.0013    0.0000 C   0  0  0  0  0  0  0  0  0  0  0  0
    4.3085   -4.5888    0.0000 C   0  0  0  0  0  0  0  0  0  0  0  0
   -2.8362   -4.5888    0.0000 C   0  0  0  0  0  0  0  0  0  0  0  0
    3.5940   -5.0013    0.0000 C   0  0  0  0  0  0  0  0  0  0  0  0
   -2.1217   -5.0013    0.0000 C   0  0  0  0  0  0  0  0  0  0  0  0
    2.8796   -4.5888    0.0000 C   0  0  0  0  0  0  0  0  0  0  0  0
    3.5131   -7.7783    0.0000 C   0  0  0  0  0  0  0  0  0  0  0  0
    2.6881   -7.7783    0.0000 C   0  0  0  0  0  0  0  0  0  0  0  0
    0.0217   -4.5888    0.0000 C   0  0  0  0  0  0  0  0  0  0  0  0
    0.7362   -5.8263    0.0000 C   0  0  0  0  0  0  0  0  0  0  0  0
    0.7362   -5.0013    0.0000 C   0  0  2  0  0  0  0  0  0  0  0  0
   -1.4073   -4.5888    0.0000 C   0  0  0  0  0  0  0  0  0  0  0  0
    2.1651   -5.0013    0.0000 C   0  0  0  0  0  0  0  0  0  0  0  0
    3.9256   -8.4927    0.0000 N   0  3  0  0  0  0  0  0  0  0  0  0
   -1.4073   -3.7638    0.0000 O   0  0  0  0  0  0  0  0  0  0  0  0
    2.1651   -5.8263    0.0000 O   0  0  0  0  0  0  0  0  0  0  0  0
    0.6256   -7.0638    0.0000 O   0  0  0  0  0  0  0  0  0  0  0  0
    1.4506   -7.8888    0.0000 O   0  0  0  0  0  0  0  0  0  0  0  0
   -0.6928   -5.0013    0.0000 O   0  0  0  0  0  0  0  0  0  0  0  0
    2.2756   -7.0638    0.0000 O   0  0  0  0  0  0  0  0  0  0  0  0
    1.4506   -6.2388    0.0000 O   0  0  0  0  0  0  0  0  0  0  0  0
    1.4506   -4.5888    0.0000 O   0  0  0  0  0  0  0  0  0  0  0  0
    1.4506   -7.0638    0.0000 P   0  0  0  0  0  0  0  0  0  0  0  0
    0.0217   -5.4138    0.0000 H   0  0  0  0  0  0  0  0  0  0  0  0
  6  1  1  0  0  0  0
  7  2  1  0  0  0  0
  8  6  1  0  0  0  0
  9  7  1  0  0  0  0
 10  8  1  0  0  0  0
 11  9  1  0  0  0  0
 12 10  1  0  0  0  0
 13 11  1  0  0  0  0
 14 12  1  0  0  0  0
 15 13  1  0  0  0  0
 16 14  1  0  0  0  0
 17 15  1  0  0  0  0
 18 16  1  0  0  0  0
 19 17  1  0  0  0  0
 20 18  1  0  0  0  0
 21 19  1  0  0  0  0
 22 20  1  0  0  0  0
 23 21  1  0  0  0  0
 24 22  1  0  0  0  0
 25 23  1  0  0  0  0
 27 26  1  0  0  0  0
 30 28  1  0  0  0  0
 30 29  1  0  0  0  0
 31 24  1  0  0  0  0
 32 25  1  0  0  0  0
 33  3  1  0  0  0  0
 33  4  1  0  0  0  0
 33  5  1  0  0  0  0
 33 26  1  0  0  0  0
 34 31  2  0  0  0  0
 35 32  2  0  0  0  0
 38 28  1  0  0  0  0
 38 31  1  0  0  0  0
 39 27  1  0  0  0  0
 40 29  1  0  0  0  0
 30 41  1  6  0  0  0
 41 32  1  0  0  0  0
 42 36  2  0  0  0  0
 42 37  1  0  0  0  0
 42 39  1  0  0  0  0
 42 40  1  0  0  0  0
 30 43  1  6  0  0  0
M  CHG  1  33   1
M  END
> <DATABASE_ID>
DB02777

> <DATABASE_NAME>
drugbank

> <SMILES>
[H][C@@](COC(=O)CCCCCCCCCCC)(COP(O)(=O)OCC[N+](C)(C)C)OC(=O)CCCCCCCCCCC

> <INCHI_IDENTIFIER>
InChI=1S/C32H64NO8P/c1-6-8-10-12-14-16-18-20-22-24-31(34)38-28-30(29-40-42(36,37)39-27-26-33(3,4)5)41-32(35)25-23-21-19-17-15-13-11-9-7-2/h30H,6-29H2,1-5H3/p+1/t30-/m1/s1

> <INCHI_KEY>
IJFVSSZAOYLHEE-SSEXGKCCSA-O

> <FORMULA>
C32H65NO8P

> <MOLECULAR_WEIGHT>
622.8342

> <EXACT_MASS>
622.444779573

> <JCHEM_ACCEPTOR_COUNT>
4

> <JCHEM_ATOM_COUNT>
107

> <JCHEM_AVERAGE_NEUTRAL_MICROSPECIES_CHARGE>
7.1623261702624674e-06

> <JCHEM_AVERAGE_POLARIZABILITY>
74.12059459317499

> <JCHEM_BIOAVAILABILITY>
0

> <JCHEM_DONOR_COUNT>
1

> <JCHEM_FORMAL_CHARGE>
1

> <JCHEM_GHOSE_FILTER>
0

> <JCHEM_IUPAC>
[(2R)-2,3-bis(dodecanoyloxy)propoxy][2-(trimethylazaniumyl)ethoxy]phosphinic acid

> <ALOGPS_LOGP>
3.40

> <JCHEM_LOGP>
4.557247059194922

> <ALOGPS_LOGS>
-6.85

> <JCHEM_MDDR_LIKE_RULE>
0

> <JCHEM_NEUTRAL_CHARGE>
0

> <JCHEM_NUMBER_OF_RINGS>
0

> <JCHEM_PHYSIOLOGICAL_CHARGE>
0

> <JCHEM_PKA_STRONGEST_ACIDIC>
1.8550572064469142

> <JCHEM_PKA_STRONGEST_BASIC>
-6.744159309169687

> <JCHEM_POLAR_SURFACE_AREA>
108.36000000000001

> <JCHEM_REFRACTIVITY>
180.17880000000002

> <JCHEM_ROTATABLE_BOND_COUNT>
32

> <JCHEM_RULE_OF_FIVE>
0

> <ALOGPS_SOLUBILITY>
9.31e-05 g/l

> <JCHEM_TRADITIONAL_IUPAC>
biotin

> <JCHEM_VEBER_RULE>
0

> <DRUGBANK_ID>
DB02777

> <SECONDARY_ACCESSION_NUMBERS>
EXPT02605

> <DRUG_GROUPS>
experimental

> <GENERIC_NAME>
Diundecyl Phosphatidyl Choline

$$$$
