
  Mrv0541 02231214592D          

  2  0  0  0  0  0            999 V2000
    0.0000    0.0000    0.0000 K   0  3  0  0  0  0  0  0  0  0  0  0
    1.0000    0.0000    0.0000 Cl  0  5  0  0  0  0  0  0  0  0  0  0
M  CHG  2   1   1   2  -1
M  END
> <DATABASE_ID>
DB00761

> <DATABASE_NAME>
drugbank

> <SMILES>
[Cl-].[K+]

> <INCHI_IDENTIFIER>
InChI=1S/ClH.K/h1H;/q;+1/p-1

> <INCHI_KEY>
WCUXLLCKKVVCTQ-UHFFFAOYSA-M

> <FORMULA>
ClK

> <MOLECULAR_WEIGHT>
74.551

> <EXACT_MASS>
73.932559568

> <JCHEM_ACCEPTOR_COUNT>
0

> <JCHEM_ATOM_COUNT>
2

> <JCHEM_AVERAGE_NEUTRAL_MICROSPECIES_CHARGE>
1.0

> <JCHEM_AVERAGE_POLARIZABILITY>
1.7784

> <JCHEM_BIOAVAILABILITY>
1

> <JCHEM_DONOR_COUNT>
0

> <JCHEM_FORMAL_CHARGE>
0

> <JCHEM_GHOSE_FILTER>
0

> <JCHEM_IUPAC>
potassium chloride

> <ALOGPS_LOGP>
-0.05

> <JCHEM_LOGP>
0.2

> <ALOGPS_LOGS>
0.09

> <JCHEM_MDDR_LIKE_RULE>
0

> <JCHEM_NEUTRAL_CHARGE>
1

> <JCHEM_NUMBER_OF_RINGS>
0

> <JCHEM_PHYSIOLOGICAL_CHARGE>
1

> <JCHEM_PKA>
3.55

> <JCHEM_PKA_STRONGEST_ACIDIC>
3.09

> <JCHEM_POLAR_SURFACE_AREA>
0.0

> <JCHEM_REFRACTIVITY>
0.0

> <JCHEM_ROTATABLE_BOND_COUNT>
0

> <JCHEM_RULE_OF_FIVE>
1

> <ALOGPS_SOLUBILITY>
9.15e+01 g/l

> <JCHEM_TRADITIONAL_IUPAC>
tetrahydrofolic acid

> <JCHEM_VEBER_RULE>
1

> <DRUGBANK_ID>
DB00761

> <SECONDARY_ACCESSION_NUMBERS>
APRD01322

> <DRUG_GROUPS>
approved; withdrawn

> <GENERIC_NAME>
Potassium chloride

> <SYNONYMS>
Chlorid draselny; Chloride of potash; Kaliumchlorid; KCl; Monopotassium chloride; Muriate of potash; Potassium chloride; Sylvite

> <PRODUCTS>
(20 Mmol/l) Potassium Chloride In 3.3% Dextrose and 0.3% Sodium Chloride Injection USP; (20 Mmol/l) Potassium Chloride In 5% Dextrose Injection USP; (20 Mmol/l) Potassium Chloride In 5% Dextrose and 0.9% Sodium Chloride Injection USP; (20mmol/l) Potassium Chloride In 0.9% Sodium Chloride Injection USP; (20mmol/l) Potassium Chloride In 5% Dextrose and 0.2% Sodium Chloride Injection USP; (20mmol/l) Potassium Chloride In 5% Dextrose and 0.45% Sodium Chloride Injection USP; (40 Mmol/l) Potassium Chloride In 0.9% Sodium Chloride Injection USP; (40 Mmol/l) Potassium Chloride In 5% Dextrose Injection USP; (40 Mmols/l) Potassium Chloride In Lactated Ringer's Injection USP; (40mmol/l) Potassium Chloride In 3.3% Dextrose and 0.3% Sodium Chloride Injection USP; (40mmol/l)potassium Chloride In 5% Dextrose and 0.45% Sodium Chloride Injection USP; 0.15% Potassium Chloride In 3.3% Dextrose and 0.30% Sodium Chloride Injection; 0.15% Potassium Chloride In 5% Dextrose Injection USP; 0.15% Potassium Chloride In 5% Dextrose and 0.20% Sodium Chloride Injection USP; 0.15% Potassium Chloride In 5% Dextrose and 0.33% Sodium Chloride Injection USP; 0.15% Potassium Chloride In 5% Dextrose and 0.45% Sodium Chloride Injection; 0.15% Potassium Chloride In 5% Dextrose and 0.9% Sodium Chloride Injection; 0.30% Potassium Chloride In 5% Dextrose; 0.30% Potassium Chloride In 5% Dextrose and 0.45% Sodium Chloride Injection; 5% Dextrose In Lactated Ringer's Injection; Acetate Concentrate R07376; Acid Concentrate (r04938); Acid Concentrate (r04968); Acid Concentrate (r04969); Acid Concentrate (r04974); Acid Concentrate (r04975); Acid Concentrate (r04976); Acid Concentrate (r04981); Acid Concentrate (r04984); Acid Concentrate (ro4147); Acid Concentrate (ro4148); Acid Concentrate (ro9503); Acid Concentrate (rz262c); Acid Concentrate (rz271c); Acid Concentrate (rz272c); Acid Concentrate (rz274c); Acid Concentrate (rz275c); Acid Concentrate 2101; Acid Concentrate 2102; Acid Concentrate 2105; Acid Concentrate 2106; Acid Concentrate 2109; Acid Concentrate 2112; Acid Concentrate 2113; Acid Concentrate 2117; Acid Concentrate 2120; Acid Concentrate 2122; Acid Concentrate 2123; Acid Concentrate 2125; Acid Concentrate 2126; Acid Concentrate 2129; Acid Concentrate 2131; Acid Concentrate 2132; Acid Concentrate 2135; Acid Concentrate 2139; Acid Concentrate 2147; Acid Concentrate 2148; Acid Concentrate 2151; Acid Concentrate 2152; Acid Concentrate 2155; Acid Concentrate 2156; Acid Concentrate 2161; Acid Concentrate 2162; Acid Concentrate 2163; Acid Concentrate 2166; Acid Concentrate 2168; Acid Concentrate 2171; Acid Concentrate 2175; Acid Concentrate 2182; Acid Concentrate 2185; Acid Concentrate 2189; Acid Concentrate 2190; Acid Concentrate 2196; Acid Concentrate 2198; Acid Concentrate 3186; Acid Concentrate 3187; Acid Concentrate A1221; Acid Concentrate A1222; Acid Concentrate A1223; Acid Concentrate A1224; Acid Concentrate A1225; Acid Concentrate A1226; Acid Concentrate A1227; Acid Concentrate A1228; Acid Concentrate A1229; Acid Concentrate A1231; Acid Concentrate A1241; Acid Concentrate A1242; Acid Concentrate A1243; Acid Concentrate A1245; Acid Concentrate A1246; Acid Concentrate A1251; Acid Concentrate A1252; Acid Concentrate A1253; Acid Concentrate A1255; Acid Concentrate A1261; Acid Concentrate A1262; Acid Concentrate A1263; Acid Concentrate A1265; Acid Concentrate A1266; Acid Concentrate A1267; Acid Concentrate A1268; Acid Concentrate A1269; Acid Concentrate A1274; Acid Concentrate A1275; Acid Concentrate A1276; Acid Concentrate A1277; Acid Concentrate A1278; Acid Concentrate A1279; Acid Concentrate A1280; Acid Concentrate A1294; Acid Concentrate A1295; Acid Concentrate A1296; Acid Concentrate A1297; Acid Concentrate A1298; Acid Concentrate Bp Ro4151; Acid Concentrate Bp Ro9505; Acid Concentrate Bp Ro9506; Acid Concentrate Bp Ro9507; Acid Concentrate Bp Rz267c; Acid Concentrate Bp Rz278c; Acid Concentrate Bp Rz279c; Acid Concentrate D 12219 Liq; Acid Concentrate D-12287; Acid Concentrate D-18003; Acid Concentrate D-18006; Acid Concentrate D12028; Acid Concentrate D12054; Acid Concentrate D12067; Acid Concentrate D12092; Acid Concentrate D12093; Acid Concentrate D12094; Acid Concentrate D12095; Acid Concentrate D12112; Acid Concentrate D12117; Acid Concentrate D12119; Acid Concentrate D12132; Acid Concentrate D12135; Acid Concentrate D12143; Acid Concentrate D12150; Acid Concentrate D12167; Acid Concentrate D12184; Acid Concentrate D12185; Acid Concentrate D12188; Acid Concentrate D12196; Acid Concentrate D12197; Acid Concentrate D12200; Acid Concentrate D12201; Acid Concentrate D12204; Acid Concentrate D12205; Acid Concentrate D12207; Acid Concentrate D12209; Acid Concentrate D12220; Acid Concentrate D12221; Acid Concentrate D12236; Acid Concentrate D12247; Acid Concentrate D12248; Acid Concentrate D12250; Acid Concentrate D12252; Acid Concentrate D12255; Acid Concentrate D12259; Acid Concentrate D12261; Acid Concentrate D12262; Acid Concentrate D12264; Acid Concentrate D12265; Acid Concentrate D12267; Acid Concentrate D12268; Acid Concentrate D12269; Acid Concentrate D12272; Acid Concentrate D12275; Acid Concentrate D12282; Acid Concentrate D12284; Acid Concentrate D12285; Acid Concentrate D12286; Acid Concentrate D12290; Acid Concentrate D12291; Acid Concentrate D12292; Acid Concentrate D12293; Acid Concentrate D12294; Acid Concentrate D12299; Acid Concentrate D12300; Acid Concentrate D12301; Acid Concentrate D12302; Acid Concentrate D12303; Acid Concentrate D12305; Acid Concentrate D12308; Acid Concentrate D12309; Acid Concentrate D12310; Acid Concentrate D12311; Acid Concentrate D12315; Acid Concentrate D12316; Acid Concentrate D12318; Acid Concentrate D13001; Acid Concentrate D18001; Acid Concentrate D18009; Acid Concentrate Ro4137; Acid Concentrate Ro4138; Acid Concentrate Ro4144; Acid Concentrate Ro4145; Acid Concentrate Ro4947; Acid Concentrate Ro4979; Acid Concentrate Ro4983; Acid Concentrate Ro9500; Acid Concentrate Ro9501; Acid Concentrate Ro9502; Acid Concentrate Rx252c; Acid Concentrate Rx253c; Acid Concentrate Rz110c; Acid Concentrate Rz111c; Acid Concentrate Rz119c; Acid Concentrate Rz127c; Acid Concentrate Rz144c; Acid Concentrate Rz153c; Acid Concentrate Rz164c; Acid Concentrate Rz167c; Acid Concentrate Rz171c; Acid Concentrate Rz183c; Acid Concentrate Rz185c; Acid Concentrate Rz194c; Acid Concentrate Rz195c; Acid Concentrate Rz196c; Acid Concentrate Rz202c; Acid Concentrate Rz203c; Acid Concentrate Rz207c; Acid Concentrate Rz208c; Acid Concentrate Rz209c; Acid Concentrate Rz210c; Acid Concentrate Rz211c; Acid Concentrate Rz212c; Acid Concentrate Rz213c; Acid Concentrate Rz247c; Acid Concentrate Rz248c; Acid Concentrate Rz249c; Acid Concentrate Rz254c; Acid Concentrate Rz264c; Acid Concentrate Rz265c; Acid Concentrate(36.83x) R04900; Acid Concentrate(36.83x) R04906; Acid Concentrate-r04948 Liq; Acid Hemodialysis Conc Sb 1003; Adrenogist Tab; Aminosyn; Aminosyn II 10% With Electrolytes; Aminosyn II 7% M In 10% Dextrose(dual Chamber); Aminosyn II 8.5% M In 20% Dextrose (dual Chamber); Aminosyn II and Dextrose; Aminosyn II in Dextrose; Aminosyn II with Electrolytes; Aminosyn II with Electrolytes in Dextrose with Calcium; Amo Endosol Extra; Amo Endosol Solution; Anaplex Tab; Artisial; Balanced Salt; Balanced Salt Solution; Bi-peglyte; Bicarb Hemodial Conc 36.83; Bicarbolyte Bicar Hemodialsis Conc; Bicarbolyte Bicar Hemodialysis Conc; Bss; Bss Plus; Bss Sterile Irrigating Solution; Calcium Magnesium With Potassium Tab; Cardioplegic; Cardioplegic Solution; Children's Chew Multi & Min Tab; Chlorure de potassium Proamp; Citrasate C10125; Citrasate C1125; Citrasate C1150; Citrasate C2125; Citrasate C2150; Citrasate C3125; Citrasate C3150; Citrasate C4125; Clenz-Lyte; Colyte; Colyte with flavor packs; Concentrated Haemodialysis Solution Bp-rz266c; Concentrated Haemodialysis Solution Bp-rz270c; Cytosol Ophthalmics - Balanced Salt Solution; D-12043 Sol Conc Electrolyt Pour Dialy; D12006; D12046 Conc Electrolyte Renal Dialysis; D12230 Liq; Dextrose 2.5% In Half Strength Lactated Ringer's Injection, USP; Dextrose 5% and Electrolyte No75 Inj; Dextrose 50% Inj W Electrolytes PF Abbovac; Dextrose and Electrolyte No. 48; Dextrose and Electrolyte No. 75; Dextrose in Lactated Ringers; Dextrose in Ringers; Dialysis Solution 35 K2; Dialysis Solution 35 K4; Dialyte; Diphen; Effervescent Potassium Chloride; Electropeg Solution; Elliott's Solution A; Elliotts B; Epiklor; Epiklor/25; Eye Stream; Foliflex; Folitin-Z; Formula R Tab; Formule No 204 Profil Tab; FreAmine III; GaviLyte - C TM; GaviLyte - N; GaviLyte-H and Bisacodyl; Gavilyte G Tm; Glycerolyte 57 Solution; Glysol-500; GoLYTELY; Golytely Gi Lavage Solution; H-706; H-710; H.E.L.P.bicel; HUMCO Potassium Chloride 10 Percent; Haemosol H-200; Haemosol H-201; Haemosol H-206; Haemosol H-208; Haemosol H-223; Haemosol H-224; Haemosol H-225; Haemosol H-226; Haemosol H-227; Haemosol H-229; Haemosol H-230; Haemosol H-232; Haemosol H-250; Haemosol H-251; Haemosol H-252; Haemosol H-253; Haemosol H-254; Haemosol H-260; Haemosol H-320; Haemosol H-330; Haemosol H-331; Haemosol H-332; Haemosol H-401; Haemosol H-402; Haemosol H-404; Haemosol H-407; Haemosol H-408; Haemosol H-410; Haemosol H-602; Haemosol H-608; Haemosol H-615; Haemosol H-616; Haemosol H-617; Haemosol H-623; Haemosol H-624; Haemosol H-625; Haemosol H-630; Haemosol H-631; Haemosol H-661; Haemosol H-690; HalfLytely and Bisacodyl; HalfLytely and Bisacodyl Bowel Prep with Flavor Packs; Hemasate Ultra Hs1125; Hemasate Ultra Hs1150; Hemasate Ultra Hs2125; Hemasate Ultra Hs2150; Hemasate Ultra Hs3125; Hemasate Ultra Hs3150; Hemasate Ultra Hs4125; Hemosate Ultra Hs1125; Hemosate Ultra Hs1150; Hemosate Ultra Hs2125; Hemosate Ultra Hs2150; Hemosate Ultra Hs3125; Hemosate Ultra Hs3150; Hemosate Ultra Hs4125; Hemosol Lg2; Hemosol Lg4; Hi Potency Potassium Chloride; High Potency Multivitamins & Minerals Caplets; HydroGold 9; Hyperlyte (multi-electrolyte Concentrate); Iocare Balanced Salt Solution; Iodine-potassium Tablets; Ionosol B and Dextrose; Ionosol MB and Dextrose; Ionosol and Dextrose; Isolyte H With Dextrose 5% Inj; Isolyte H in Dextrose; Isolyte M In 5% Dextrose; Isolyte M in Dextrose; Isolyte P in Dextrose; Isolyte R In 5% Dextrose; Isolyte S; Isolyte S (multi-electrolyte Injection); Isolyte S Ph 7.4 (multi-electrolyte Injection); Isolyte S With 5% Dextrose Inj; Isolyte S in Dextrose; Isolyte S pH 7.4; Isoplate; Jamp-electropeg; Jamp-electropeg With Flavour Packet; Jamplyte; Jamplyte 280; K + 45; K C1-rougier; K Lor Granules 20meq; K Lyte Cl Pwr; K+36.8; K-Sol; K-Tab; K-dur; K-lyte Cl; K-med; K-med 900 Tab 900mg; K-tab; K1 Liq R04911; K1 Liq R04978; K2 Liq R04902; K2 With Glucose Liq R04977; Kabiven; Kalium Durules Srt 750mg; Kaochlor-10; Kaochlor-20; Kato Pws 1.5gm; Kcl Solution A 20%; Klean-prep; Klor Con M; Klor-Con; Klor-Con Extended-release; Klor-Con M; Klor-Con M10; Klor-Con M20; Klor-Con Sprinkle; Klor-con; Klor-con M; Klor-con M20; Klor-con/25; Klotrix; Lacellate Solution - 1000; Lacellate Solution - 250; Lacellate Solution - 500; Lactated Ringer's Injection; Lactated Ringer's Injection USP; Lactated Ringer's Injection, USP; Lactated Ringer's Irrigation; Lactated Ringer's Irrigation Sol; Lactated Ringer's and 5% Dextrose; Lactated Ringer's and 5% Injection, USP; Lactated Ringers; Lactated Ringers Irrigation; Lactated Ringers and Dextrose; Lypholyte; Lypholyte Multi-electrolyte Conc Inj; Lyteprep; Medi SM 24K Gold Hydrogel Peptide Mask Pack; Micro K Extencaps Src 600mg; Micro-K 10 Extencaps; Micro-K Extencaps; Micro-K-10 Extencaps Src 750mg; Moi-stir Oral Swabsticks; Moi-stir Spray; MoviPrep; Moviprep; Multiple Electrolyte Additive Inj; Multiple Electrolyte Additive Liq Formula 1; Multiple Electrolytes pH 5.5; Multiple Electrolytes pH 7.4; Multiple Vitamins and Minerals; Multivitamins and Minerals Tablets; Naturalyte H-200; Naturalyte H-201; Naturalyte H-206; Naturalyte H-208; Naturalyte H-223; Naturalyte H-224; Naturalyte H-225; Naturalyte H-226; Naturalyte H-227; Naturalyte H-229; Naturalyte H-230; Naturalyte H-232; Naturalyte H-251; Naturalyte H-252; Naturalyte H-260; Naturalyte H-320; Naturalyte H-330; Naturalyte H-331; Naturalyte H-332; Naturalyte H-401; Naturalyte H-402; Naturalyte H-407; Naturalyte H-408; Naturalyte H-410; Naturalyte H-602; Naturalyte H-608; Naturalyte H-615; Naturalyte H-616; Naturalyte H-617; Naturalyte H-623; Naturalyte H-624; Naturalyte H-625; Naturalyte H-630; Naturalyte H-631; Naturalyte H-661; Naturalyte H-690; Naturalyte H-706; Navstel; Neo K; Normosol-R; Normosol-R & 5% Dextrose; Normosol-R and Dextrose; Novo-lente K Tab 600mg; NuLYTELY; NuLYTELY With Flavor Packs; Nutrilyte; Nxstage Pureflow Dialysate Concentrate (sak 303); Nxstage Pureflow Dialysate Concentrate (sak 304); Nxstage Pureflow Dialysate Concentrate (sak 305); Nxstage Pureflow Dialysate Concentrate (sak-301); Nxstage Pureflow Dialysate Concentrate (sak-302); Nxstage Pureflow Solution Rfp-204-can; Nxstage Pureflow Solution Rfp-207-can; Nxstage Pureflow Solution Rfp-209-can; Ocl Solution; Odan Balanced Salt Solution; Olimel 3.3% E; Olimel 4.4% E; Olimel 5.7% E; Olimel 7.6% E; One A Day Advance Adults; One A Day Advance Adults 50+; One Daily Vitamin and Mineral Dietary Supplement; One Per Day Vitamin and Mineral Dietary Supplement; One Tablet Daily Mens Formula; One-A-day Advance Men's; Osteo Formula; PEG-3350 and Electrolytes; PEG-3350, Electrolytes, and Ascorbate; PEG-3350, sodium chloride, sodium bicarbonate and potassium chloride; PMS-peglyte; POLYETHYLENE GLYCOL 3350, SODIUM CHLORIDE, SODIUM BICARBONATE and POTASSIUM CHLORIDE; Peg-3350; Peg-3350, Sodium Sulfate, Sodium Chloride, Potassium Chloride, Sodium Ascorbate and Ascorbic Acid; Peglyte Powder; Peglyte Solution; Perikabiven; Periolimel 2.5% E; Phoxillum B22k4/0; Phoxillum Bk4/2.5; Physiolyte; Physiosol; Plasma-Lyte 148; Plasma-Lyte 148 and dextrose; Plasma-Lyte A; Plasma-Lyte M and Dextrose; Plasma-Lyte R; Plasma-lyte A Injection; Plasmalyte 148 In 5% Dextrose Inj; Plasmalyte 148 In Water; Plegisol; Plenvu; Polyethylene Glycol 3350 and Electrolytes; Polyethylene Glycol 3350 and electrolytes with Lemon Flavor; Polyethylene Glycol 3350 and electrolyteswith Orange Flavor; Polyethylene Glycol 3350, Sodium Chloride, Sodium Bicarbonate and Potassium Chloride - Unflavored; Polyethylene Glycol 3350, Sodium Chloride, Sodium Bicarbonate and Potassium Chloride with Lemon Flavor; Polyethylene Glycol 3350, Sodium Chloride, Sodium Bicarbonate and Potassium Chloride with Orange Flavor; Polyethylene Glycol-3350 and Electrolytes; Polyethylene Glycol-3350 and Electrolytes with Flavor Pack; Polyethylene Glycol-3350, Sodium Chloride, Potassium Chloride and Sodium Bicarbonate; Potas Chlor 20meq 5% Dex and Lactate Ringer; Potas Chlor 30meq 5% Dex and 0.2% Sod Chlor; Potass Chlor 10meq 5% Dex and 0.2% Sod Chlor; Potass Chlor 30meq 5% Dex and 0.33% Sod Chlor; Potass Chlor 30meq 5% Dex and 0.45% Sod Chlor; Potass Chlor 40meq 5% Dex and 0.2% Sod Chlor; Potass Chlor 40meq 5% Dex and 0.33% Sod Chlor; Potass Chlor 40meq 5% Dex and 0.9% Sod Chlor; Potass Chloride 10meq In 5% Dextrose Inj USP; Potass Chloride 30meq In 5% Dextrose Inj USP; Potass Chloride 5% Dextr 0.45% Sod Chlor Inj; Potassium 20meq 5% Dextrose and 0.33% Sodium Chloride; Potassium Chlor 40meq 5% Dex & Lac Ring; Potassium Chloride; Potassium Chloride 20 Meq In 0.9% Sodium Chloride; Potassium Chloride 20 Meq In 3.3% Dextrose and 0.3% Sodium Chloride; Potassium Chloride 20 Meq In 5% Dextrose; Potassium Chloride 20 Meq In 5% Dextrose and 0.225% Sodium Chloride; Potassium Chloride 20 Meq In 5% Dextrose and 0.45% Sodium Chloride; Potassium Chloride 20 Meq In 5% Dextrose and 0.9% Sodium Chloride; Potassium Chloride 40 Meq In 0.9% Sodium Chloride; Potassium Chloride 40 Meq In 3.3% Dextrose and 0.3% Sodium Chloride; Potassium Chloride 40 Meq In 5% Dextrose; Potassium Chloride 40 Meq In 5% Dextrose and 0.45% Sodium Chloride; Potassium Chloride 40 Meq In 5% Dextrose and 0.9% Sodium Chloride; Potassium Chloride Bp - Additive for Concentrated Haemodialysis Solutions; Potassium Chloride ER; Potassium Chloride Extended Release; Potassium Chloride Extended-Release; Potassium Chloride Extended-release; Potassium Chloride In Dextrose; Potassium Chloride In Lactated Ringer's Injection; Potassium Chloride In Sodium Chloride; Potassium Chloride In Sodium Chloride Injection USP; Potassium Chloride Inj 149mg/ml USP; Potassium Chloride Inj 2meq/ml; Potassium Chloride Inj 30meq; Potassium Chloride Inj 40meq; Potassium Chloride Inj USP Liq 149mg/ml; Potassium Chloride Injection; Potassium Chloride Injection 2meq/ml; Potassium Chloride and Dextrose; Potassium Chloride for Hemodialysis 7.55; Potassium Chloride for Injection Concentrate; Potassium Chloride for Injection Concentrate USP; Potassium Chloride for Injection Concentrate, USP (2 Meq/ml); Potassium Chloride for Oral Solution; Potassium Chloride in Dextrose; Potassium Chloride in Dextrose and Sodium Chloride; Potassium Chloride in Lactated Ringers and Dextrose; Potassium Chloride in Sodium Chloride; Potassium SR 600mg Tablets; Potassium and Iodine Tab; Potassium chloride; Potassium chloride extended release; Potassium-36.8 0.5-4.5 (code:k-30) - Powder; Potassium-novartis; Potrassium Chloride; PrismaSol; Prismasol 2; Prismasol 4; Prismasol B22gk4/0; Prismasol Bgk2/0; Prismasol Bgk2/3.5; Prismasol Bgk4/0/1.2; Prismasol Bgk4/2.5; Prismasol Bgk4/3.5; Pro-600k Srt 600mg; ProcalAmine; Proception Sperm Nutrient Douche; Prolax - Pws; R04903 Liq; R04909 Liq; R04919 Liq; R04922 Liq; R04931 Liq; R04936 Liq; R04946 Liq; R04972 Liq; R04973 Liq; Ribotin-E; Ringer's Inj; Ringer's Injection USP; Ringers; Ringers Irrigation; Ringers and Dextrose; Rogenic; Roychlor - 10% - Liq Orl; Rs-274; Salivart Aer; Salivart Oral Moisturizer; Sb 1000; Sb 1004; Sb-110; Sb-111; Sb-119; Sb-127; Sb-131; Sb-132; Selectbag One (ax125g); Selectbag One (ax150g); Selectbag One (ax200g); Selectbag One (ax225g); Selectbag One (ax250g); Selectbag One (ax2525g); Selectbag One (ax2550g); Selectbag One (ax275g); Selectbag One (ax325g); Selectbag One (ax350g); Selectbag One (ax450g); Slo-pot; Slow K; Smofkabiven; Smofkabiven Extra Nitrogen; Smofkabiven Peripheral; Spectrum Performa Multivitamins and Minerals Tablets; Ssp+; Strong Potass Chloride Inj 0.15gm/ml; Suclear; Super C-M-K; Super Charged Energy; Super Daily No 2; Super-cell; Sutab; TPN Electrolytes; TRILYTE with flavor packs; Tar-end; Thermotabs Buffered Salt Supplement; Tis-U-Sol; Tis-U-sol; Tis-U-sol Solution; Tqm Acid Concentrate A1280; TriLyte with Flavor Packs; Vamin N; Vivia Acid; Zintrexyl-C

> <INTERNATIONAL_BRANDS>
Kaon Cl; Kaon-CL 10; Micro-K; Sando-K; Slow-K

$$$$
