
  Mrv0541 02231217212D          

  9  8  0  0  1  0            999 V2000
    1.7605    1.8414    0.0000 C   0  0  0  0  0  0  0  0  0  0  0  0
    2.4750    1.4289    0.0000 S   0  0  0  0  0  0  0  0  0  0  0  0
    3.1895    1.8414    0.0000 C   0  0  0  0  0  0  0  0  0  0  0  0
    3.9039    1.4289    0.0000 C   0  0  0  0  0  0  0  0  0  0  0  0
    4.6184    1.8414    0.0000 C   0  0  2  0  0  0  0  0  0  0  0  0
    4.6184    2.6664    0.0000 N   0  0  0  0  0  0  0  0  0  0  0  0
    5.3329    1.4289    0.0000 P   0  0  1  0  0  0  0  0  0  0  0  0
    6.0474    1.8414    0.0000 O   0  0  0  0  0  0  0  0  0  0  0  0
    5.3329    0.6039    0.0000 O   0  0  0  0  0  0  0  0  0  0  0  0
  1  2  1  0  0  0  0
  2  3  1  0  0  0  0
  3  4  1  0  0  0  0
  4  5  1  0  0  0  0
  5  6  1  6  0  0  0
  5  7  1  0  0  0  0
  7  8  1  1  0  0  0
  7  9  2  0  0  0  0
M  END
> <DATABASE_ID>
DB04015

> <DATABASE_NAME>
drugbank

> <SMILES>
CSCC[C@H](N)P(O)=O

> <INCHI_IDENTIFIER>
InChI=1S/C4H12NO2PS/c1-9-3-2-4(5)8(6)7/h4,8H,2-3,5H2,1H3,(H,6,7)/t4-/m1/s1

> <INCHI_KEY>
CZRBNMUARBZMHQ-SCSAIBSYSA-N

> <FORMULA>
C4H12NO2PS

> <MOLECULAR_WEIGHT>
169.182

> <EXACT_MASS>
169.032635835

> <JCHEM_ACCEPTOR_COUNT>
3

> <JCHEM_ATOM_COUNT>
21

> <JCHEM_AVERAGE_NEUTRAL_MICROSPECIES_CHARGE>
-0.0014571605939128762

> <JCHEM_AVERAGE_POLARIZABILITY>
16.337461549596988

> <JCHEM_BIOAVAILABILITY>
1

> <JCHEM_DONOR_COUNT>
2

> <JCHEM_FORMAL_CHARGE>
0

> <JCHEM_GHOSE_FILTER>
0

> <JCHEM_IUPAC>
[(1R)-1-amino-3-(methylsulfanyl)propyl]phosphinic acid

> <ALOGPS_LOGP>
-1.31

> <JCHEM_LOGP>
-1.6796873832934014

> <ALOGPS_LOGS>
-0.76

> <JCHEM_MDDR_LIKE_RULE>
0

> <JCHEM_NEUTRAL_CHARGE>
0

> <JCHEM_NUMBER_OF_RINGS>
0

> <JCHEM_PHYSIOLOGICAL_CHARGE>
0

> <JCHEM_PKA_STRONGEST_ACIDIC>
0.24888829864128498

> <JCHEM_PKA_STRONGEST_BASIC>
9.835585662705558

> <JCHEM_POLAR_SURFACE_AREA>
63.32

> <JCHEM_REFRACTIVITY>
39.9087

> <JCHEM_ROTATABLE_BOND_COUNT>
4

> <JCHEM_RULE_OF_FIVE>
1

> <ALOGPS_SOLUBILITY>
2.97e+01 g/l

> <JCHEM_TRADITIONAL_IUPAC>
biotin

> <JCHEM_VEBER_RULE>
0

> <DRUGBANK_ID>
DB04015

> <SECONDARY_ACCESSION_NUMBERS>
EXPT02222

> <DRUG_GROUPS>
experimental

> <GENERIC_NAME>
Methionine Phosphinate

$$$$
