
  Mrv0541 02231215532D          

 17 19  0  0  0  0            999 V2000
    5.5322   -2.2844    0.0000 O   0  0  0  0  0  0  0  0  0  0  0  0
    4.7252   -2.1129    0.0000 C   0  0  0  0  0  0  0  0  0  0  0  0
    4.4703   -1.3283    0.0000 C   0  0  0  0  0  0  0  0  0  0  0  0
    3.6633   -1.1567    0.0000 N   0  0  0  0  0  0  0  0  0  0  0  0
    3.4084   -0.3721    0.0000 C   0  0  0  0  0  0  0  0  0  0  0  0
    3.9604    0.2410    0.0000 N   0  0  0  0  0  0  0  0  0  0  0  0
    3.7054    1.0256    0.0000 C   0  0  0  0  0  0  0  0  0  0  0  0
    2.8985    1.1971    0.0000 N   0  0  0  0  0  0  0  0  0  0  0  0
    2.3464    0.5840    0.0000 C   0  0  0  0  0  0  0  0  0  0  0  0
    2.6014   -0.2006    0.0000 C   0  0  0  0  0  0  0  0  0  0  0  0
    1.9339   -0.6855    0.0000 N   0  0  0  0  0  0  0  0  0  0  0  0
    1.2665   -0.2006    0.0000 C   0  0  0  0  0  0  0  0  0  0  0  0
    0.4595   -0.3721    0.0000 C   0  0  0  0  0  0  0  0  0  0  0  0
   -0.0925    0.2410    0.0000 C   0  0  0  0  0  0  0  0  0  0  0  0
    0.1624    1.0256    0.0000 C   0  0  0  0  0  0  0  0  0  0  0  0
    0.9694    1.1971    0.0000 C   0  0  0  0  0  0  0  0  0  0  0  0
    1.5214    0.5840    0.0000 N   0  0  0  0  0  0  0  0  0  0  0  0
  1  2  1  0  0  0  0
  2  3  1  0  0  0  0
  3  4  1  0  0  0  0
  4  5  1  0  0  0  0
  5  6  2  0  0  0  0
  6  7  1  0  0  0  0
  7  8  2  0  0  0  0
  8  9  1  0  0  0  0
  9 10  2  0  0  0  0
  5 10  1  0  0  0  0
 10 11  1  0  0  0  0
 11 12  2  0  0  0  0
 12 13  1  0  0  0  0
 13 14  2  0  0  0  0
 14 15  1  0  0  0  0
 15 16  2  0  0  0  0
 16 17  1  0  0  0  0
  9 17  1  0  0  0  0
 12 17  1  0  0  0  0
M  END
> <DATABASE_ID>
DB01994

> <DATABASE_NAME>
drugbank

> <SMILES>
OCCNC1=NC=NC2=C1N=C1C=CC=CN21

> <INCHI_IDENTIFIER>
InChI=1S/C11H11N5O/c17-6-4-12-10-9-11(14-7-13-10)16-5-2-1-3-8(16)15-9/h1-3,5,7,17H,4,6H2,(H,12,13,14)

> <INCHI_KEY>
QBILBVYKWQWDQJ-UHFFFAOYSA-N

> <FORMULA>
C11H11N5O

> <MOLECULAR_WEIGHT>
229.2379

> <EXACT_MASS>
229.096359999

> <JCHEM_ACCEPTOR_COUNT>
5

> <JCHEM_ATOM_COUNT>
28

> <JCHEM_AVERAGE_NEUTRAL_MICROSPECIES_CHARGE>
5.899727656801474e-07

> <JCHEM_AVERAGE_POLARIZABILITY>
23.9159260351012

> <JCHEM_BIOAVAILABILITY>
1

> <JCHEM_DONOR_COUNT>
2

> <JCHEM_FORMAL_CHARGE>
0

> <JCHEM_GHOSE_FILTER>
1

> <JCHEM_IUPAC>
2-({pyrido[2,1-h]purin-4-yl}amino)ethan-1-ol

> <ALOGPS_LOGP>
0.85

> <JCHEM_LOGP>
-0.014637029333333353

> <ALOGPS_LOGS>
-3.06

> <JCHEM_MDDR_LIKE_RULE>
0

> <JCHEM_NEUTRAL_CHARGE>
0

> <JCHEM_NUMBER_OF_RINGS>
3

> <JCHEM_PHYSIOLOGICAL_CHARGE>
0

> <JCHEM_PKA>
17.436579651616412

> <JCHEM_PKA_STRONGEST_ACIDIC>
15.33375887162096

> <JCHEM_PKA_STRONGEST_BASIC>
0.7781246497542389

> <JCHEM_POLAR_SURFACE_AREA>
75.34

> <JCHEM_REFRACTIVITY>
65.3086

> <JCHEM_ROTATABLE_BOND_COUNT>
3

> <JCHEM_RULE_OF_FIVE>
1

> <ALOGPS_SOLUBILITY>
1.99e-01 g/l

> <JCHEM_TRADITIONAL_IUPAC>
biotin

> <JCHEM_VEBER_RULE>
0

> <DRUGBANK_ID>
DB01994

> <SECONDARY_ACCESSION_NUMBERS>
EXPT02650

> <DRUG_GROUPS>
experimental

> <GENERIC_NAME>
2-(Pyrido[1,2-E]Purin-4-Yl)Amino-Ethanol

$$$$
