
  Mrv0541 05041405482D          

 18 17  0  0  1  0            999 V2000
    0.7145    1.2375    0.0000 C   0  0  0  0  0  0  0  0  0  0  0  0
    3.5724   -0.4125    0.0000 C   0  0  0  0  0  0  0  0  0  0  0  0
    2.8579    0.0000    0.0000 C   0  0  0  0  0  0  0  0  0  0  0  0
    4.2868    0.0000    0.0000 C   0  0  0  0  0  0  0  0  0  0  0  0
    2.1434   -0.4125    0.0000 C   0  0  0  0  0  0  0  0  0  0  0  0
    5.0013   -0.4125    0.0000 C   0  0  0  0  0  0  0  0  0  0  0  0
    0.7145   -0.4125    0.0000 C   0  0  0  0  0  0  0  0  0  0  0  0
    1.4289    0.8250    0.0000 C   0  0  1  0  0  0  0  0  0  0  0  0
    1.4289    0.0000    0.0000 C   0  0  1  0  0  0  0  0  0  0  0  0
    5.7158    0.0000    0.0000 C   0  0  0  0  0  0  0  0  0  0  0  0
    0.0000    0.0000    0.0000 C   0  0  0  0  0  0  0  0  0  0  0  0
    2.1434    1.2375    0.0000 N   0  0  0  0  0  0  0  0  0  0  0  0
    6.4302   -0.4125    0.0000 O   0  0  0  0  0  0  0  0  0  0  0  0
    5.7158    0.8250    0.0000 O   0  0  0  0  0  0  0  0  0  0  0  0
   -0.7145   -0.4125    0.0000 O   0  0  0  0  0  0  0  0  0  0  0  0
    0.0000    0.8250    0.0000 O   0  0  0  0  0  0  0  0  0  0  0  0
    0.7145    0.4125    0.0000 H   0  0  0  0  0  0  0  0  0  0  0  0
    1.4289   -0.8250    0.0000 H   0  0  0  0  0  0  0  0  0  0  0  0
  3  2  1  0  0  0  0
  4  2  1  0  0  0  0
  5  3  1  0  0  0  0
  6  4  1  0  0  0  0
  8  1  1  0  0  0  0
  9  5  1  0  0  0  0
  9  7  1  1  0  0  0
  9  8  1  0  0  0  0
 10  6  1  0  0  0  0
 11  7  1  0  0  0  0
  8 12  1  1  0  0  0
 13 10  2  0  0  0  0
 14 10  1  0  0  0  0
 15 11  2  0  0  0  0
 16 11  1  0  0  0  0
  8 17  1  1  0  0  0
  9 18  1  6  0  0  0
M  END
> <DATABASE_ID>
DB02941

> <DATABASE_NAME>
drugbank

> <SMILES>
[H][C@@](C)(N)[C@@]([H])(CCCCCC(O)=O)CC(O)=O

> <INCHI_IDENTIFIER>
InChI=1S/C11H21NO4/c1-8(12)9(7-11(15)16)5-3-2-4-6-10(13)14/h8-9H,2-7,12H2,1H3,(H,13,14)(H,15,16)/t8-,9-/m0/s1

> <INCHI_KEY>
NHQUUILSXUJSSP-IUCAKERBSA-N

> <FORMULA>
C11H21NO4

> <MOLECULAR_WEIGHT>
231.2887

> <EXACT_MASS>
231.147058165

> <JCHEM_ACCEPTOR_COUNT>
5

> <JCHEM_ATOM_COUNT>
37

> <JCHEM_AVERAGE_NEUTRAL_MICROSPECIES_CHARGE>
-0.9968940014779546

> <JCHEM_AVERAGE_POLARIZABILITY>
25.34635477076647

> <JCHEM_BIOAVAILABILITY>
1

> <JCHEM_DONOR_COUNT>
3

> <JCHEM_FORMAL_CHARGE>
0

> <JCHEM_GHOSE_FILTER>
0

> <JCHEM_IUPAC>
(3S)-3-[(1S)-1-aminoethyl]nonanedioic acid

> <ALOGPS_LOGP>
-1.99

> <JCHEM_LOGP>
-1.4635279207792655

> <ALOGPS_LOGS>
-2.26

> <JCHEM_MDDR_LIKE_RULE>
0

> <JCHEM_NEUTRAL_CHARGE>
-1

> <JCHEM_NUMBER_OF_RINGS>
0

> <JCHEM_PHYSIOLOGICAL_CHARGE>
-1

> <JCHEM_PKA>
4.773783538483739

> <JCHEM_PKA_STRONGEST_ACIDIC>
3.9848623691283205

> <JCHEM_PKA_STRONGEST_BASIC>
10.46472931629217

> <JCHEM_POLAR_SURFACE_AREA>
100.62000000000002

> <JCHEM_REFRACTIVITY>
59.0186

> <JCHEM_ROTATABLE_BOND_COUNT>
9

> <JCHEM_RULE_OF_FIVE>
1

> <ALOGPS_SOLUBILITY>
1.27e+00 g/l

> <JCHEM_TRADITIONAL_IUPAC>
biotin

> <JCHEM_VEBER_RULE>
0

> <DRUGBANK_ID>
DB02941

> <SECONDARY_ACCESSION_NUMBERS>
EXPT01858

> <DRUG_GROUPS>
experimental

> <GENERIC_NAME>
3-(1-Aminoethyl)Nonanedioic Acid

$$$$
