
  Mrv0541 02231216382D          

  9  9  0  0  0  0            999 V2000
    2.1434    1.2375    0.0000 C   0  0  0  0  0  0  0  0  0  0  0  0
    1.4289    0.8250    0.0000 C   0  0  0  0  0  0  0  0  0  0  0  0
    1.4289    0.0000    0.0000 C   0  0  0  0  0  0  0  0  0  0  0  0
    0.7145   -0.4125    0.0000 C   0  0  0  0  0  0  0  0  0  0  0  0
    0.0000    0.0000    0.0000 C   0  0  0  0  0  0  0  0  0  0  0  0
   -0.7145   -0.4125    0.0000 N   0  0  0  0  0  0  0  0  0  0  0  0
    0.0000    0.8250    0.0000 C   0  0  0  0  0  0  0  0  0  0  0  0
    0.7145    1.2375    0.0000 C   0  0  0  0  0  0  0  0  0  0  0  0
    0.7145    2.0625    0.0000 C   0  0  0  0  0  0  0  0  0  0  0  0
  1  2  1  0  0  0  0
  2  3  2  0  0  0  0
  3  4  1  0  0  0  0
  4  5  2  0  0  0  0
  5  6  1  0  0  0  0
  5  7  1  0  0  0  0
  7  8  2  0  0  0  0
  2  8  1  0  0  0  0
  8  9  1  0  0  0  0
M  END
> <DATABASE_ID>
DB03018

> <DATABASE_NAME>
drugbank

> <SMILES>
CC1=CC=C(N)C=C1C

> <INCHI_IDENTIFIER>
InChI=1S/C8H11N/c1-6-3-4-8(9)5-7(6)2/h3-5H,9H2,1-2H3

> <INCHI_KEY>
DOLQYFPDPKPQSS-UHFFFAOYSA-N

> <FORMULA>
C8H11N

> <MOLECULAR_WEIGHT>
121.1796

> <EXACT_MASS>
121.089149357

> <JCHEM_ACCEPTOR_COUNT>
1

> <JCHEM_ATOM_COUNT>
20

> <JCHEM_AVERAGE_NEUTRAL_MICROSPECIES_CHARGE>
0.01496324563822149

> <JCHEM_AVERAGE_POLARIZABILITY>
14.409760759792956

> <JCHEM_BIOAVAILABILITY>
1

> <JCHEM_DONOR_COUNT>
1

> <JCHEM_FORMAL_CHARGE>
0

> <JCHEM_GHOSE_FILTER>
0

> <JCHEM_IUPAC>
3,4-dimethylaniline

> <ALOGPS_LOGP>
1.82

> <JCHEM_LOGP>
2.1711626406666666

> <ALOGPS_LOGS>
-1.43

> <JCHEM_MDDR_LIKE_RULE>
0

> <JCHEM_NEUTRAL_CHARGE>
0

> <JCHEM_NUMBER_OF_RINGS>
1

> <JCHEM_PHYSIOLOGICAL_CHARGE>
0

> <JCHEM_PKA_STRONGEST_BASIC>
5.181573369928031

> <JCHEM_POLAR_SURFACE_AREA>
26.02

> <JCHEM_REFRACTIVITY>
40.840799999999994

> <JCHEM_ROTATABLE_BOND_COUNT>
0

> <JCHEM_RULE_OF_FIVE>
1

> <ALOGPS_SOLUBILITY>
4.49e+00 g/l

> <JCHEM_TRADITIONAL_IUPAC>
tetrahydrofolic acid

> <JCHEM_VEBER_RULE>
1

> <DRUGBANK_ID>
DB03018

> <SECONDARY_ACCESSION_NUMBERS>
EXPT00155

> <DRUG_GROUPS>
experimental

> <GENERIC_NAME>
3,4-dimethylaniline

> <SYNONYMS>
1-amino-3,4-dimethylbenzene; 3,4-dimethylaminobenzene; 3,4-dimethylbenzenamine; 3,4-dimethylbenzene-1-amine; 3,4-dimethylbenzeneamine; 3,4-dimethylphenylamine; 3,4-xylidine; 3,4-xylylamine; 4-amino-1,2-dimethylbenzene; 4-amino-o-xylene

$$$$
