
  Mrv0541 02231216582D          

 54 58  0  0  1  0            999 V2000
  -21.9310    7.2448    0.0000 C   0  0  0  0  0  0  0  0  0  0  0  0
  -22.1707    6.4554    0.0000 C   0  0  1  0  0  0  0  0  0  0  0  0
  -22.9742    6.2684    0.0000 N   0  0  0  0  0  0  0  0  0  0  0  0
  -23.2139    5.4790    0.0000 C   0  0  0  0  0  0  0  0  0  0  0  0
  -22.6502    4.8766    0.0000 C   0  0  0  0  0  0  0  0  0  0  0  0
  -21.8467    5.0637    0.0000 N   0  0  2  0  0  0  0  0  0  0  0  0
  -21.1700    4.5918    0.0000 C   0  0  0  0  0  0  0  0  0  0  0  0
  -20.5120    5.0895    0.0000 N   0  0  0  0  0  0  0  0  0  0  0  0
  -20.7821    5.8691    0.0000 C   0  0  1  0  0  0  0  0  0  0  0  0
  -20.3101    6.5457    0.0000 C   0  0  0  0  0  0  0  0  0  0  0  0
  -21.6069    5.8531    0.0000 C   0  0  2  0  0  0  0  0  0  0  0  0
  -19.7226    4.8498    0.0000 C   0  0  0  0  0  0  0  0  0  0  0  0
  -19.1203    5.4135    0.0000 C   0  0  0  0  0  0  0  0  0  0  0  0
  -18.3309    5.1738    0.0000 C   0  0  0  0  0  0  0  0  0  0  0  0
  -18.1438    4.3703    0.0000 C   0  0  0  0  0  0  0  0  0  0  0  0
  -17.3544    4.1306    0.0000 C   0  0  0  0  0  0  0  0  0  0  0  0
  -17.1674    3.3270    0.0000 C   0  0  1  0  0  0  0  0  0  0  0  0
  -17.7697    2.7633    0.0000 O   0  0  0  0  0  0  0  0  0  0  0  0
  -16.3780    3.0873    0.0000 C   0  0  1  0  0  0  0  0  0  0  0  0
  -15.7756    3.6511    0.0000 O   0  0  0  0  0  0  0  0  0  0  0  0
  -16.1909    2.2838    0.0000 C   0  0  2  0  0  0  0  0  0  0  0  0
  -16.7932    1.7200    0.0000 O   0  0  0  0  0  0  0  0  0  0  0  0
  -15.4015    2.0441    0.0000 C   0  0  0  0  0  0  0  0  0  0  0  0
  -15.2144    1.2406    0.0000 O   0  0  0  0  0  0  0  0  0  0  0  0
  -14.4250    1.0008    0.0000 C   0  0  1  0  0  0  0  0  0  0  0  0
  -13.7670    1.4985    0.0000 O   0  0  0  0  0  0  0  0  0  0  0  0
  -13.0904    1.0266    0.0000 C   0  0  2  0  0  0  0  0  0  0  0  0
  -12.3108    1.2966    0.0000 C   0  0  0  0  0  0  0  0  0  0  0  0
  -11.6872    0.7565    0.0000 O   0  0  0  0  0  0  0  0  0  0  0  0
  -10.9076    1.0266    0.0000 P   0  0  1  0  0  0  0  0  0  0  0  0
  -11.1777    1.8061    0.0000 O   0  0  0  0  0  0  0  0  0  0  0  0
  -10.6376    0.2470    0.0000 O   0  0  0  0  0  0  0  0  0  0  0  0
  -10.1281    1.2966    0.0000 O   0  0  0  0  0  0  0  0  0  0  0  0
   -9.5044    0.7565    0.0000 C   0  0  1  0  0  0  0  0  0  0  0  0
   -8.7249    1.0266    0.0000 C   0  0  0  0  0  0  0  0  0  0  0  0
   -8.1012    0.4865    0.0000 C   0  0  0  0  0  0  0  0  0  0  0  0
   -7.3217    0.7565    0.0000 C   0  0  0  0  0  0  0  0  0  0  0  0
   -6.6980    0.2165    0.0000 O   0  0  0  0  0  0  0  0  0  0  0  0
   -7.1658    1.5667    0.0000 O   0  0  0  0  0  0  0  0  0  0  0  0
   -9.6603   -0.0536    0.0000 C   0  0  0  0  0  0  0  0  0  0  0  0
   -9.0367   -0.5937    0.0000 O   0  0  0  0  0  0  0  0  0  0  0  0
  -10.4399   -0.3236    0.0000 O   0  0  0  0  0  0  0  0  0  0  0  0
  -13.3301    0.2372    0.0000 C   0  0  1  0  0  0  0  0  0  0  0  0
  -12.8324   -0.4208    0.0000 O   0  0  0  0  0  0  0  0  0  0  0  0
  -14.1550    0.2213    0.0000 C   0  0  2  0  0  0  0  0  0  0  0  0
  -14.6269   -0.4554    0.0000 O   0  0  0  0  0  0  0  0  0  0  0  0
  -18.7462    3.8065    0.0000 C   0  0  0  0  0  0  0  0  0  0  0  0
  -19.5355    4.0463    0.0000 C   0  0  0  0  0  0  0  0  0  0  0  0
  -22.8899    4.0872    0.0000 C   0  0  0  0  0  0  0  0  0  0  0  0
  -22.3261    3.4849    0.0000 O   0  0  0  0  0  0  0  0  0  0  0  0
  -23.6934    3.9002    0.0000 N   0  0  0  0  0  0  0  0  0  0  0  0
  -24.2572    4.5025    0.0000 C   0  0  0  0  0  0  0  0  0  0  0  0
  -25.0607    4.3154    0.0000 N   0  0  0  0  0  0  0  0  0  0  0  0
  -24.0174    5.2919    0.0000 N   0  0  0  0  0  0  0  0  0  0  0  0
  2  1  1  6  0  0  0
  2  3  1  0  0  0  0
  3  4  1  0  0  0  0
  4  5  2  0  0  0  0
  5  6  1  0  0  0  0
  6  7  1  1  0  0  0
  7  8  1  0  0  0  0
  8  9  1  0  0  0  0
  9 10  1  6  0  0  0
  9 11  1  0  0  0  0
  2 11  1  0  0  0  0
 11  6  1  1  0  0  0
  8 12  1  0  0  0  0
 12 13  2  0  0  0  0
 13 14  1  0  0  0  0
 14 15  2  0  0  0  0
 15 16  1  0  0  0  0
 16 17  1  0  0  0  0
 17 18  1  6  0  0  0
 17 19  1  0  0  0  0
 19 20  1  1  0  0  0
 19 21  1  0  0  0  0
 21 22  1  1  0  0  0
 21 23  1  0  0  0  0
 23 24  1  0  0  0  0
 25 24  1  1  0  0  0
 25 26  1  0  0  0  0
 26 27  1  0  0  0  0
 27 28  1  6  0  0  0
 28 29  1  0  0  0  0
 30 29  1  6  0  0  0
 30 31  1  1  0  0  0
 30 32  2  0  0  0  0
 30 33  1  0  0  0  0
 34 33  1  1  0  0  0
 34 35  1  0  0  0  0
 35 36  1  0  0  0  0
 36 37  1  0  0  0  0
 37 38  1  0  0  0  0
 37 39  2  0  0  0  0
 34 40  1  0  0  0  0
 40 41  1  0  0  0  0
 40 42  2  0  0  0  0
 27 43  1  0  0  0  0
 43 44  1  1  0  0  0
 43 45  1  0  0  0  0
 25 45  1  0  0  0  0
 45 46  1  6  0  0  0
 15 47  1  0  0  0  0
 47 48  2  0  0  0  0
 12 48  1  0  0  0  0
  5 49  1  0  0  0  0
 49 50  2  0  0  0  0
 49 51  1  0  0  0  0
 51 52  1  0  0  0  0
 52 53  1  0  0  0  0
 52 54  2  0  0  0  0
  4 54  1  0  0  0  0
M  END
> <DATABASE_ID>
DB03481

> <DATABASE_NAME>
drugbank

> <SMILES>
C[C@H]1[C@@H]2[C@@H](C)NC3=C(N2CN1C1=CC=C(C[C@@H](O)[C@@H](O)[C@H](O)CO[C@H]2O[C@H](CO[P@@](O)(=O)O[C@@H](CCC(O)=O)C(O)=O)[C@@H](O)[C@@H]2O)C=C1)C(=O)NC(N)=N3

> <INCHI_IDENTIFIER>
InChI=1S/C31H45N6O16P/c1-13-22-14(2)36(12-37(22)23-27(33-13)34-31(32)35-28(23)45)16-5-3-15(4-6-16)9-17(38)24(42)18(39)10-50-30-26(44)25(43)20(52-30)11-51-54(48,49)53-19(29(46)47)7-8-21(40)41/h3-6,13-14,17-20,22,24-26,30,38-39,42-44H,7-12H2,1-2H3,(H,40,41)(H,46,47)(H,48,49)(H4,32,33,34,35,45)/t13-,14+,17-,18-,19+,20-,22+,24-,25-,26+,30+/m1/s1

> <INCHI_KEY>
GBMIGEWJAPFSQI-FLVBPUPRSA-N

> <FORMULA>
C31H45N6O16P

> <MOLECULAR_WEIGHT>
788.6934

> <EXACT_MASS>
788.262965934

> <JCHEM_ACCEPTOR_COUNT>
19

> <JCHEM_ATOM_COUNT>
99

> <JCHEM_AVERAGE_NEUTRAL_MICROSPECIES_CHARGE>
-3.133432502562858

> <JCHEM_AVERAGE_POLARIZABILITY>
77.7843005397362

> <JCHEM_BIOAVAILABILITY>
0

> <JCHEM_DONOR_COUNT>
11

> <JCHEM_FORMAL_CHARGE>
0

> <JCHEM_GHOSE_FILTER>
0

> <JCHEM_IUPAC>
(2S)-2-[({[(2R,3S,4S,5S)-5-{[(2R,3R,4R)-5-{4-[(6R,6aS,7S)-3-amino-6,7-dimethyl-1-oxo-1H,2H,5H,6H,6aH,7H,8H,9H-imidazo[1,5-f]pteridin-8-yl]phenyl}-2,3,4-trihydroxypentyl]oxy}-3,4-dihydroxyoxolan-2-yl]methoxy}(hydroxy)phosphoryl)oxy]pentanedioic acid

> <ALOGPS_LOGP>
-1.15

> <JCHEM_LOGP>
-1.9149283466666662

> <ALOGPS_LOGS>
-2.73

> <JCHEM_MDDR_LIKE_RULE>
1

> <JCHEM_NEUTRAL_CHARGE>
-3

> <JCHEM_NUMBER_OF_RINGS>
5

> <JCHEM_PHYSIOLOGICAL_CHARGE>
-3

> <JCHEM_PKA>
3.224325607216167

> <JCHEM_PKA_STRONGEST_ACIDIC>
1.7683475442870804

> <JCHEM_PKA_STRONGEST_BASIC>
-0.7912905835736106

> <JCHEM_POLAR_SURFACE_AREA>
335.9599999999999

> <JCHEM_REFRACTIVITY>
190.08350000000007

> <JCHEM_ROTATABLE_BOND_COUNT>
17

> <JCHEM_RULE_OF_FIVE>
0

> <ALOGPS_SOLUBILITY>
1.48e+00 g/l

> <JCHEM_TRADITIONAL_IUPAC>
tetrahydrofolic acid

> <JCHEM_VEBER_RULE>
0

> <DRUGBANK_ID>
DB03481

> <SECONDARY_ACCESSION_NUMBERS>
EXPT01681

> <DRUG_GROUPS>
experimental

> <GENERIC_NAME>
5,10-Dimethylene Tetrahydromethanopterin

$$$$
