
  Mrv0541 04191212132D          

 24 25  0  0  1  0            999 V2000
    1.3047    0.3228    0.0000 C   0  0  0  0  0  0  0  0  0  0  0  0
    1.3047   -0.5022    0.0000 C   0  0  0  0  0  0  0  0  0  0  0  0
    0.5902   -0.9147    0.0000 C   0  0  0  0  0  0  0  0  0  0  0  0
   -0.1243   -0.5022    0.0000 C   0  0  0  0  0  0  0  0  0  0  0  0
   -0.1243    0.3228    0.0000 C   0  0  0  0  0  0  0  0  0  0  0  0
    0.5902    0.7353    0.0000 C   0  0  0  0  0  0  0  0  0  0  0  0
    3.4481    0.7353    0.0000 C   0  0  0  0  0  0  0  0  0  0  0  0
    3.4481    1.5603    0.0000 O   0  0  0  0  0  0  0  0  0  0  0  0
    2.7336    0.3228    0.0000 C   0  0  1  0  0  0  0  0  0  0  0  0
    2.0192    0.7353    0.0000 C   0  0  0  0  0  0  0  0  0  0  0  0
    2.7336   -0.5022    0.0000 N   0  0  0  0  0  0  0  0  0  0  0  0
    4.1626    0.3228    0.0000 O   0  0  0  0  0  0  0  0  0  0  0  0
    0.5902   -1.7397    0.0000 I   0  0  0  0  0  0  0  0  0  0  0  0
   -0.8387   -0.9147    0.0000 O   0  0  0  0  0  0  0  0  0  0  0  0
   -3.6966    0.7353    0.0000 O   0  0  0  0  0  0  0  0  0  0  0  0
   -3.6966   -0.9147    0.0000 I   0  0  0  0  0  0  0  0  0  0  0  0
   -1.5532   -0.5022    0.0000 C   0  0  0  0  0  0  0  0  0  0  0  0
   -2.9821   -0.5022    0.0000 C   0  0  0  0  0  0  0  0  0  0  0  0
   -2.2677   -0.9147    0.0000 C   0  0  0  0  0  0  0  0  0  0  0  0
   -1.5532    0.3228    0.0000 C   0  0  0  0  0  0  0  0  0  0  0  0
   -2.9821    0.3228    0.0000 C   0  0  0  0  0  0  0  0  0  0  0  0
   -0.8387    0.7353    0.0000 I   0  0  0  0  0  0  0  0  0  0  0  0
   -2.2677    0.7353    0.0000 C   0  0  0  0  0  0  0  0  0  0  0  0
   -2.2677    1.5603    0.0000 I   0  0  0  0  0  0  0  0  0  0  0  0
  9  7  1  0  0  0  0
  8  7  2  0  0  0  0
 12  7  1  0  0  0  0
 10  9  1  0  0  0  0
  9 11  1  6  0  0  0
  1 10  1  0  0  0  0
  4 14  1  0  0  0  0
  2  1  1  0  0  0  0
  6  1  2  0  0  0  0
  5  4  2  0  0  0  0
  3  4  1  0  0  0  0
  3  2  2  0  0  0  0
  5  6  1  0  0  0  0
 13  3  1  0  0  0  0
 14 17  1  0  0  0  0
 21 15  1  0  0  0  0
 18 16  1  0  0  0  0
 19 17  2  0  0  0  0
 18 19  1  0  0  0  0
 17 20  1  0  0  0  0
 20 23  2  0  0  0  0
 23 21  1  0  0  0  0
 18 21  2  0  0  0  0
  5 22  1  0  0  0  0
 23 24  1  0  0  0  0
M  END
> <DATABASE_ID>
DB00509

> <DATABASE_NAME>
drugbank

> <SMILES>
N[C@H](CC1=CC(I)=C(OC2=CC(I)=C(O)C(I)=C2)C(I)=C1)C(O)=O

> <INCHI_IDENTIFIER>
InChI=1S/C15H11I4NO4/c16-8-4-7(5-9(17)13(8)21)24-14-10(18)1-6(2-11(14)19)3-12(20)15(22)23/h1-2,4-5,12,21H,3,20H2,(H,22,23)/t12-/m1/s1

> <INCHI_KEY>
XUIIKFGFIJCVMT-GFCCVEGCSA-N

> <FORMULA>
C15H11I4NO4

> <MOLECULAR_WEIGHT>
776.87

> <EXACT_MASS>
776.686681525

> <JCHEM_ACCEPTOR_COUNT>
4

> <JCHEM_ATOM_COUNT>
35

> <JCHEM_AVERAGE_NEUTRAL_MICROSPECIES_CHARGE>
-0.27612989324114223

> <JCHEM_AVERAGE_POLARIZABILITY>
49.38409121273857

> <JCHEM_BIOAVAILABILITY>
1

> <JCHEM_DONOR_COUNT>
3

> <JCHEM_FORMAL_CHARGE>
0

> <JCHEM_GHOSE_FILTER>
0

> <JCHEM_IUPAC>
(2R)-2-amino-3-[4-(4-hydroxy-3,5-diiodophenoxy)-3,5-diiodophenyl]propanoic acid

> <ALOGPS_LOGP>
1.15

> <JCHEM_LOGP>
3.7273070498224867

> <ALOGPS_LOGS>
-4.94

> <JCHEM_MDDR_LIKE_RULE>
0

> <JCHEM_NEUTRAL_CHARGE>
0

> <JCHEM_NUMBER_OF_RINGS>
2

> <JCHEM_PHYSIOLOGICAL_CHARGE>
0

> <JCHEM_PKA>
7.426761076989792

> <JCHEM_PKA_STRONGEST_ACIDIC>
0.27345586539235944

> <JCHEM_PKA_STRONGEST_BASIC>
9.433364269995794

> <JCHEM_POLAR_SURFACE_AREA>
92.78000000000002

> <JCHEM_REFRACTIVITY>
126.788

> <JCHEM_ROTATABLE_BOND_COUNT>
5

> <JCHEM_RULE_OF_FIVE>
0

> <ALOGPS_SOLUBILITY>
8.98e-03 g/l

> <JCHEM_TRADITIONAL_IUPAC>
biotin

> <JCHEM_VEBER_RULE>
0

> <DRUGBANK_ID>
DB00509

> <SECONDARY_ACCESSION_NUMBERS>
APRD00911

> <DRUG_GROUPS>
approved; investigational

> <GENERIC_NAME>
Dextrothyroxine

> <SYNONYMS>
D-thyroxine; Dextrothyroxine; Dextrothyroxinum; O-(4-hydroxy-3,5-diiodophenyl)-3,5-diiodo-D-tyrosine

> <PRODUCTS>
Choloxin - Tab 4mg; Choloxin Tab 2mg; Choloxin Tablet 4mg

> <INTERNATIONAL_BRANDS>
Choloxin; Dynothel; Eulipos; Lisolipin

> <SALTS>
Dextrothyroxine sodium

$$$$
