
  Mrv0541 02231216222D          

 30 33  0  0  1  0            999 V2000
   -0.1663    8.8675    0.0000 N   0  0  0  0  0  0  0  0  0  0  0  0
    0.3857    8.2544    0.0000 C   0  0  0  0  0  0  0  0  0  0  0  0
    1.1927    8.4260    0.0000 N   0  0  0  0  0  0  0  0  0  0  0  0
    1.7447    7.8129    0.0000 C   0  0  0  0  0  0  0  0  0  0  0  0
    1.4898    7.0282    0.0000 N   0  0  0  0  0  0  0  0  0  0  0  0
    0.6828    6.8567    0.0000 C   0  0  0  0  0  0  0  0  0  0  0  0
    0.1308    7.4698    0.0000 C   0  0  0  0  0  0  0  0  0  0  0  0
   -0.6229    7.1343    0.0000 N   0  0  0  0  0  0  0  0  0  0  0  0
   -0.5366    6.3138    0.0000 C   0  0  0  0  0  0  0  0  0  0  0  0
    0.2703    6.1422    0.0000 N   0  0  0  0  0  0  0  0  0  0  0  0
    0.6059    5.3886    0.0000 C   0  0  2  0  0  0  0  0  0  0  0  0
    1.4129    5.2170    0.0000 O   0  0  0  0  0  0  0  0  0  0  0  0
    1.4991    4.3966    0.0000 C   0  0  1  0  0  0  0  0  0  0  0  0
    2.2136    3.9841    0.0000 C   0  0  0  0  0  0  0  0  0  0  0  0
    2.9280    4.3966    0.0000 O   0  0  0  0  0  0  0  0  0  0  0  0
    3.6425    3.9841    0.0000 P   0  0  2  0  0  0  0  0  0  0  0  0
    3.2300    3.2696    0.0000 O   0  0  0  0  0  0  0  0  0  0  0  0
    4.0550    4.6985    0.0000 O   0  0  0  0  0  0  0  0  0  0  0  0
    4.3570    3.5716    0.0000 O   0  0  0  0  0  0  0  0  0  0  0  0
    5.0714    3.9841    0.0000 P   0  0  0  0  0  0  0  0  0  0  0  0
    5.7859    4.3966    0.0000 O   0  0  0  0  0  0  0  0  0  0  0  0
    5.4839    3.2696    0.0000 O   0  0  0  0  0  0  0  0  0  0  0  0
    4.6589    4.6985    0.0000 O   0  0  0  0  0  0  0  0  0  0  0  0
    0.7454    4.0610    0.0000 C   0  0  1  0  0  0  0  0  0  0  0  0
    0.3329    3.3465    0.0000 O   0  0  0  0  0  0  0  0  0  0  0  0
   -0.4741    3.5181    0.0000 V   0  0  0  0  0  0  0  0  0  0  0  0
   -0.5603    2.6976    0.0000 O   0  0  0  0  0  0  0  0  0  0  0  0
   -1.2991    3.5181    0.0000 O   0  0  0  0  0  0  0  0  0  0  0  0
   -0.5603    4.3385    0.0000 O   0  0  0  0  0  0  0  0  0  0  0  0
    0.1934    4.6741    0.0000 C   0  0  2  0  0  0  0  0  0  0  0  0
  1  2  1  0  0  0  0
  2  3  2  0  0  0  0
  3  4  1  0  0  0  0
  4  5  2  0  0  0  0
  5  6  1  0  0  0  0
  6  7  2  0  0  0  0
  2  7  1  0  0  0  0
  7  8  1  0  0  0  0
  8  9  2  0  0  0  0
  9 10  1  0  0  0  0
  6 10  1  0  0  0  0
 11 10  1  6  0  0  0
 11 12  1  0  0  0  0
 12 13  1  0  0  0  0
 13 14  1  1  0  0  0
 14 15  1  0  0  0  0
 16 15  1  6  0  0  0
 16 17  1  1  0  0  0
 16 18  2  0  0  0  0
 16 19  1  0  0  0  0
 19 20  1  0  0  0  0
 20 21  1  0  0  0  0
 20 22  1  0  0  0  0
 20 23  2  0  0  0  0
 13 24  1  0  0  0  0
 24 25  1  1  0  0  0
 25 26  1  0  0  0  0
 26 27  2  0  0  0  0
 26 28  2  0  0  0  0
 26 29  1  0  0  0  0
 30 29  1  6  0  0  0
 11 30  1  0  0  0  0
 24 30  1  0  0  0  0
M  END
> <DATABASE_ID>
DB02661

> <DATABASE_NAME>
drugbank

> <SMILES>
NC1=NC=NC2=C1N=CN2[C@@H]1O[C@@H](CO[P@](O)(=O)OP(O)(O)=O)[C@H]2O[V](=O)(=O)O[C@H]12

> <INCHI_IDENTIFIER>
InChI=1S/C10H13N5O10P2.2O.V/c11-8-5-9(13-2-12-8)15(3-14-5)10-7(17)6(16)4(24-10)1-23-27(21,22)25-26(18,19)20;;;/h2-4,6-7,10H,1H2,(H,21,22)(H2,11,12,13)(H2,18,19,20);;;/q-2;;;+2/t4-,6+,7-,10+;;;/m0.../s1

> <INCHI_KEY>
WUULDHXBMSNFAO-YVAIFPRKSA-N

> <FORMULA>
C10H13N5O12P2V

> <MOLECULAR_WEIGHT>
508.1255

> <EXACT_MASS>
507.947557604

> <JCHEM_ACCEPTOR_COUNT>
12

> <JCHEM_ATOM_COUNT>
43

> <JCHEM_AVERAGE_NEUTRAL_MICROSPECIES_CHARGE>
-2.4218331208630515

> <JCHEM_AVERAGE_POLARIZABILITY>
37.6220607228544

> <JCHEM_BIOAVAILABILITY>
0

> <JCHEM_DONOR_COUNT>
4

> <JCHEM_FORMAL_CHARGE>
0

> <JCHEM_GHOSE_FILTER>
0

> <JCHEM_IUPAC>
[({[(3aR,4S,6R,6aS)-6-(6-amino-9H-purin-9-yl)-2,2-dioxo-tetrahydrofuro[3,4-d]1,3-dioxa-2-vanadacyclopentan-4-yl]methoxy}(hydroxy)phosphoryl)oxy]phosphonic acid

> <ALOGPS_LOGP>
-0.82

> <JCHEM_LOGP>
-4.443246337094082

> <ALOGPS_LOGS>
-2.24

> <JCHEM_MDDR_LIKE_RULE>
1

> <JCHEM_NEUTRAL_CHARGE>
-2

> <JCHEM_NUMBER_OF_RINGS>
4

> <JCHEM_PHYSIOLOGICAL_CHARGE>
-3

> <JCHEM_PKA>
2.2226610925257075

> <JCHEM_PKA_STRONGEST_ACIDIC>
1.7694352284074688

> <JCHEM_PKA_STRONGEST_BASIC>
4.928686310271758

> <JCHEM_POLAR_SURFACE_AREA>
244.73999999999995

> <JCHEM_REFRACTIVITY>
85.39839999999998

> <JCHEM_ROTATABLE_BOND_COUNT>
6

> <JCHEM_RULE_OF_FIVE>
0

> <ALOGPS_SOLUBILITY>
2.91e+00 g/l

> <JCHEM_TRADITIONAL_IUPAC>
biotin

> <JCHEM_VEBER_RULE>
0

> <DRUGBANK_ID>
DB02661

> <SECONDARY_ACCESSION_NUMBERS>
EXPT00592

> <DRUG_GROUPS>
experimental

> <GENERIC_NAME>
Adenosine-5'-diphosphate-2',3'-vanadate

$$$$
