
  Mrv0541 02231216322D          

 45 48  0  0  1  0            999 V2000
    9.8003   -9.4714    0.0000 C   0  0  0  0  0  0  0  0  0  0  0  0
    8.9902   -9.3155    0.0000 O   0  0  0  0  0  0  0  0  0  0  0  0
    8.7201   -8.5359    0.0000 C   0  0  0  0  0  0  0  0  0  0  0  0
    7.9100   -8.3800    0.0000 C   0  0  0  0  0  0  0  0  0  0  0  0
    7.6400   -7.6005    0.0000 C   0  0  0  0  0  0  0  0  0  0  0  0
    8.1801   -6.9768    0.0000 C   0  0  0  0  0  0  0  0  0  0  0  0
    8.9902   -7.1327    0.0000 C   0  0  0  0  0  0  0  0  0  0  0  0
    9.5303   -6.5091    0.0000 O   0  0  0  0  0  0  0  0  0  0  0  0
   10.3404   -6.6650    0.0000 C   0  0  0  0  0  0  0  0  0  0  0  0
    9.2602   -7.9123    0.0000 C   0  0  0  0  0  0  0  0  0  0  0  0
   10.0704   -8.0682    0.0000 O   0  0  0  0  0  0  0  0  0  0  0  0
   10.6105   -7.4446    0.0000 C   0  0  0  0  0  0  0  0  0  0  0  0
    6.8298   -7.4446    0.0000 C   0  0  0  0  0  0  0  0  0  0  0  0
    6.9857   -6.6344    0.0000 F   0  0  0  0  0  0  0  0  0  0  0  0
    6.6739   -8.2547    0.0000 F   0  0  0  0  0  0  0  0  0  0  0  0
    6.0197   -7.2887    0.0000 C   0  0  0  0  0  0  0  0  0  0  0  0
    5.7497   -6.5091    0.0000 O   0  0  0  0  0  0  0  0  0  0  0  0
    5.4796   -7.9123    0.0000 N   0  0  0  0  0  0  0  0  0  0  0  0
    5.7497   -8.6918    0.0000 C   0  0  0  0  0  0  0  0  0  0  0  0
    5.2096   -9.3155    0.0000 C   0  0  0  0  0  0  0  0  0  0  0  0
    4.3994   -9.1596    0.0000 C   0  0  0  0  0  0  0  0  0  0  0  0
    4.1294   -8.3800    0.0000 C   0  0  0  0  0  0  0  0  0  0  0  0
    4.6695   -7.7564    0.0000 C   0  0  1  0  0  0  0  0  0  0  0  0
    4.3994   -6.9768    0.0000 C   0  0  0  0  0  0  0  0  0  0  0  0
    4.9395   -6.3532    0.0000 O   0  0  0  0  0  0  0  0  0  0  0  0
    3.5893   -6.8209    0.0000 O   0  0  0  0  0  0  0  0  0  0  0  0
    3.3193   -6.0414    0.0000 C   0  0  1  0  0  0  0  0  0  0  0  0
    2.5091   -5.8855    0.0000 C   0  0  0  0  0  0  0  0  0  0  0  0
    2.2391   -5.1059    0.0000 C   0  0  0  0  0  0  0  0  0  0  0  0
    1.4289   -4.9500    0.0000 C   0  0  0  0  0  0  0  0  0  0  0  0
    1.1589   -4.1704    0.0000 C   0  0  0  0  0  0  0  0  0  0  0  0
    0.3488   -4.0145    0.0000 C   0  0  0  0  0  0  0  0  0  0  0  0
    0.0787   -3.2350    0.0000 C   0  0  0  0  0  0  0  0  0  0  0  0
    0.6188   -2.6113    0.0000 C   0  0  0  0  0  0  0  0  0  0  0  0
    1.4289   -2.7673    0.0000 C   0  0  0  0  0  0  0  0  0  0  0  0
    1.6990   -3.5468    0.0000 C   0  0  0  0  0  0  0  0  0  0  0  0
    3.8593   -5.4177    0.0000 C   0  0  0  0  0  0  0  0  0  0  0  0
    4.6695   -5.5736    0.0000 C   0  0  0  0  0  0  0  0  0  0  0  0
    5.2096   -4.9500    0.0000 C   0  0  0  0  0  0  0  0  0  0  0  0
    6.0197   -5.1059    0.0000 C   0  0  0  0  0  0  0  0  0  0  0  0
    6.5598   -4.4823    0.0000 C   0  0  0  0  0  0  0  0  0  0  0  0
    7.3699   -4.6382    0.0000 N   0  0  0  0  0  0  0  0  0  0  0  0
    7.6400   -5.4177    0.0000 C   0  0  0  0  0  0  0  0  0  0  0  0
    7.0999   -6.0414    0.0000 C   0  0  0  0  0  0  0  0  0  0  0  0
    6.2897   -5.8855    0.0000 C   0  0  0  0  0  0  0  0  0  0  0  0
  1  2  1  0  0  0  0
  2  3  1  0  0  0  0
  3  4  2  0  0  0  0
  4  5  1  0  0  0  0
  5  6  2  0  0  0  0
  6  7  1  0  0  0  0
  7  8  1  0  0  0  0
  8  9  1  0  0  0  0
  7 10  2  0  0  0  0
  3 10  1  0  0  0  0
 10 11  1  0  0  0  0
 11 12  1  0  0  0  0
  5 13  1  0  0  0  0
 13 14  1  0  0  0  0
 13 15  1  0  0  0  0
 13 16  1  0  0  0  0
 16 17  2  0  0  0  0
 16 18  1  0  0  0  0
 18 19  1  0  0  0  0
 19 20  1  0  0  0  0
 20 21  1  0  0  0  0
 21 22  1  0  0  0  0
 22 23  1  0  0  0  0
 18 23  1  0  0  0  0
 23 24  1  1  0  0  0
 24 25  2  0  0  0  0
 24 26  1  0  0  0  0
 27 26  1  1  0  0  0
 27 28  1  0  0  0  0
 28 29  1  0  0  0  0
 29 30  1  0  0  0  0
 30 31  1  0  0  0  0
 31 32  2  0  0  0  0
 32 33  1  0  0  0  0
 33 34  2  0  0  0  0
 34 35  1  0  0  0  0
 35 36  2  0  0  0  0
 31 36  1  0  0  0  0
 27 37  1  0  0  0  0
 37 38  1  0  0  0  0
 38 39  1  0  0  0  0
 39 40  1  0  0  0  0
 40 41  2  0  0  0  0
 41 42  1  0  0  0  0
 42 43  2  0  0  0  0
 43 44  1  0  0  0  0
 44 45  2  0  0  0  0
 40 45  1  0  0  0  0
M  END
> <DATABASE_ID>
DB02888

> <DATABASE_NAME>
drugbank

> <SMILES>
COC1=CC(=CC(OC)=C1OC)C(F)(F)C(=O)N1CCCC[C@H]1C(=O)O[C@@H](CCCC1=CC=CC=C1)CCCC1=CN=CC=C1

> <INCHI_IDENTIFIER>
InChI=1S/C35H42F2N2O6/c1-42-30-22-27(23-31(43-2)32(30)44-3)35(36,37)34(41)39-21-8-7-19-29(39)33(40)45-28(17-9-14-25-12-5-4-6-13-25)18-10-15-26-16-11-20-38-24-26/h4-6,11-13,16,20,22-24,28-29H,7-10,14-15,17-19,21H2,1-3H3/t28-,29-/m0/s1

> <INCHI_KEY>
NBYCDVVSYOMFMS-VMPREFPWSA-N

> <FORMULA>
C35H42F2N2O6

> <MOLECULAR_WEIGHT>
624.7146

> <EXACT_MASS>
624.301093496

> <JCHEM_ACCEPTOR_COUNT>
6

> <JCHEM_ATOM_COUNT>
87

> <JCHEM_AVERAGE_NEUTRAL_MICROSPECIES_CHARGE>
0.03501751454754875

> <JCHEM_AVERAGE_POLARIZABILITY>
64.55379445270438

> <JCHEM_BIOAVAILABILITY>
0

> <JCHEM_DONOR_COUNT>
0

> <JCHEM_FORMAL_CHARGE>
0

> <JCHEM_GHOSE_FILTER>
0

> <JCHEM_IUPAC>
(4S)-1-phenyl-7-(pyridin-3-yl)heptan-4-yl (2S)-1-[2,2-difluoro-2-(3,4,5-trimethoxyphenyl)acetyl]piperidine-2-carboxylate

> <ALOGPS_LOGP>
6.00

> <JCHEM_LOGP>
6.879235970666666

> <ALOGPS_LOGS>
-6.33

> <JCHEM_MDDR_LIKE_RULE>
1

> <JCHEM_NEUTRAL_CHARGE>
0

> <JCHEM_NUMBER_OF_RINGS>
4

> <JCHEM_PHYSIOLOGICAL_CHARGE>
0

> <JCHEM_PKA_STRONGEST_BASIC>
5.559765886806922

> <JCHEM_POLAR_SURFACE_AREA>
87.19000000000001

> <JCHEM_REFRACTIVITY>
165.88309999999998

> <JCHEM_ROTATABLE_BOND_COUNT>
16

> <JCHEM_RULE_OF_FIVE>
0

> <ALOGPS_SOLUBILITY>
2.95e-04 g/l

> <JCHEM_TRADITIONAL_IUPAC>
tetrahydrofolic acid

> <JCHEM_VEBER_RULE>
0

> <DRUGBANK_ID>
DB02888

> <SECONDARY_ACCESSION_NUMBERS>
EXPT00001

> <DRUG_GROUPS>
experimental

> <GENERIC_NAME>
FKB-001

$$$$
