
  Mrv0541 02231214442D          

101110  0  0  1  0            999 V2000
    0.0000    0.8250    0.0000 C   0  0  0  0  0  0  0  0  0  0  0  0
    0.7145    0.4125    0.0000 C   0  0  0  0  0  0  0  0  0  0  0  0
   -0.7145    0.4125    0.0000 C   0  0  0  0  0  0  0  0  0  0  0  0
    0.0000   -0.8250    0.0000 C   0  0  0  0  0  0  0  0  0  0  0  0
   -0.7145   -0.4125    0.0000 C   0  0  0  0  0  0  0  0  0  0  0  0
    0.7145   -0.4125    0.0000 C   0  0  0  0  0  0  0  0  0  0  0  0
    1.4290    0.8250    0.0000 O   0  0  0  0  0  0  0  0  0  0  0  0
   -1.4289    0.8250    0.0000 O   0  0  0  0  0  0  0  0  0  0  0  0
   -4.2867   -0.8249    0.0000 C   0  0  1  0  0  0  0  0  0  0  0  0
    4.2867   -0.8250    0.0000 C   0  0  1  0  0  0  0  0  0  0  0  0
   -3.5722   -0.4124    0.0000 C   0  0  0  0  0  0  0  0  0  0  0  0
    3.5723   -0.4125    0.0000 C   0  0  0  0  0  0  0  0  0  0  0  0
   -2.1433    0.4126    0.0000 C   0  0  0  0  0  0  0  0  0  0  0  0
    2.1433    0.4125    0.0000 C   0  0  0  0  0  0  0  0  0  0  0  0
   -2.1434   -0.4124    0.0000 C   0  0  0  0  0  0  0  0  0  0  0  0
    2.8578    0.8249    0.0000 C   0  0  0  0  0  0  0  0  0  0  0  0
    3.5723    0.4124    0.0000 C   0  0  0  0  0  0  0  0  0  0  0  0
    2.8578   -0.8250    0.0000 C   0  0  0  0  0  0  0  0  0  0  0  0
   -3.5722    0.4126    0.0000 C   0  0  0  0  0  0  0  0  0  0  0  0
   -2.8578    0.8251    0.0000 C   0  0  0  0  0  0  0  0  0  0  0  0
    2.1433   -0.4125    0.0000 C   0  0  0  0  0  0  0  0  0  0  0  0
    2.8578    1.6499    0.0000 Cl  0  0  0  0  0  0  0  0  0  0  0  0
   -5.0012   -0.4124    0.0000 O   0  0  0  0  0  0  0  0  0  0  0  0
   -1.4289   -0.8249    0.0000 Cl  0  0  0  0  0  0  0  0  0  0  0  0
    5.0011   -0.4126    0.0000 O   0  0  0  0  0  0  0  0  0  0  0  0
   -0.7143    2.8874    0.0000 C   0  0  1  0  0  0  0  0  0  0  0  0
   -0.7144    2.0625    0.0000 C   0  0  1  0  0  0  0  0  0  0  0  0
   -1.4288    3.2999    0.0000 C   0  0  2  0  0  0  0  0  0  0  0  0
   -1.4288    1.6500    0.0000 O   0  0  0  0  0  0  0  0  0  0  0  0
    0.7146    5.3623    0.0000 C   0  0  1  0  0  0  0  0  0  0  0  0
   -2.1433    2.8875    0.0000 C   0  0  1  0  0  0  0  0  0  0  0  0
    0.0001    4.1249    0.0000 C   0  0  1  0  0  0  0  0  0  0  0  0
   -2.1433    2.0625    0.0000 C   0  0  1  0  0  0  0  0  0  0  0  0
    0.7145    4.5374    0.0000 C   0  0  0  0  0  0  0  0  0  0  0  0
   -0.7143    4.5374    0.0000 O   0  0  0  0  0  0  0  0  0  0  0  0
    0.0001    5.7748    0.0000 C   0  0  1  0  0  0  0  0  0  0  0  0
    0.0000    3.2999    0.0000 O   0  0  0  0  0  0  0  0  0  0  0  0
   -0.7143    5.3624    0.0000 C   0  0  2  0  0  0  0  0  0  0  0  0
    1.5395    5.3623    0.0000 N   0  0  0  0  0  0  0  0  0  0  0  0
   -1.4288    4.1249    0.0000 O   0  0  0  0  0  0  0  0  0  0  0  0
   -2.8578    3.3000    0.0000 O   0  0  0  0  0  0  0  0  0  0  0  0
    0.0001    6.5998    0.0000 O   0  0  0  0  0  0  0  0  0  0  0  0
    1.1271    6.0768    0.0000 C   0  0  0  0  0  0  0  0  0  0  0  0
   -1.4288    5.7749    0.0000 C   0  0  0  0  0  0  0  0  0  0  0  0
    0.0000    1.6500    0.0000 O   0  0  0  0  0  0  0  0  0  0  0  0
   -2.8578    1.6500    0.0000 C   0  0  0  0  0  0  0  0  0  0  0  0
   -3.5722    2.0625    0.0000 O   0  0  0  0  0  0  0  0  0  0  0  0
   -2.8578   -0.8249    0.0000 C   0  0  0  0  0  0  0  0  0  0  0  0
    4.2867   -2.4750    0.0000 C   0  0  2  0  0  0  0  0  0  0  0  0
    0.7144   -2.8874    0.0000 N   0  0  0  0  0  0  0  0  0  0  0  0
    3.5722   -2.8874    0.0000 C   0  0  0  0  0  0  0  0  0  0  0  0
   -0.7144   -2.8874    0.0000 C   0  0  0  0  0  0  0  0  0  0  0  0
    2.8578   -2.4749    0.0000 N   0  0  0  0  0  0  0  0  0  0  0  0
   -0.0001   -2.4749    0.0000 C   0  0  1  0  0  0  0  0  0  0  0  0
    1.4289   -2.4749    0.0000 C   0  0  0  0  0  0  0  0  0  0  0  0
    2.1433   -2.8874    0.0000 C   0  0  2  0  0  0  0  0  0  0  0  0
    3.5722   -3.7124    0.0000 O   0  0  0  0  0  0  0  0  0  0  0  0
   -0.7145   -3.7123    0.0000 O   0  0  0  0  0  0  0  0  0  0  0  0
    1.4289   -1.6499    0.0000 O   0  0  0  0  0  0  0  0  0  0  0  0
    2.1433   -3.7124    0.0000 C   0  0  0  0  0  0  0  0  0  0  0  0
    1.4289   -4.1249    0.0000 C   0  0  0  0  0  0  0  0  0  0  0  0
    0.7144   -3.7124    0.0000 N   0  0  0  0  0  0  0  0  0  0  0  0
    1.4289   -4.9498    0.0000 O   0  0  0  0  0  0  0  0  0  0  0  0
    5.0011   -2.8875    0.0000 N   0  0  0  0  0  0  0  0  0  0  0  0
    5.7156   -2.4750    0.0000 C   0  0  0  0  0  0  0  0  0  0  0  0
    6.4300   -2.8875    0.0000 C   0  0  1  0  0  0  0  0  0  0  0  0
    5.7156   -1.6500    0.0000 O   0  0  0  0  0  0  0  0  0  0  0  0
    7.1444   -2.4750    0.0000 C   0  0  0  0  0  0  0  0  0  0  0  0
    6.4300   -3.7125    0.0000 N   0  0  0  0  0  0  0  0  0  0  0  0
    7.8589   -2.8875    0.0000 C   0  0  0  0  0  0  0  0  0  0  0  0
    7.1444   -4.1250    0.0000 C   0  0  0  0  0  0  0  0  0  0  0  0
    7.8589   -3.7125    0.0000 C   0  0  0  0  0  0  0  0  0  0  0  0
    8.5734   -2.4751    0.0000 C   0  0  0  0  0  0  0  0  0  0  0  0
   -4.2867   -2.4748    0.0000 C   0  0  2  0  0  0  0  0  0  0  0  0
   -1.4289   -2.4749    0.0000 N   0  0  0  0  0  0  0  0  0  0  0  0
   -2.1434   -2.8873    0.0000 C   0  0  1  0  0  0  0  0  0  0  0  0
   -5.7156   -2.4748    0.0000 O   0  0  0  0  0  0  0  0  0  0  0  0
   -3.5723   -2.8873    0.0000 N   0  0  0  0  0  0  0  0  0  0  0  0
   -2.8579   -2.4748    0.0000 C   0  0  0  0  0  0  0  0  0  0  0  0
   -2.8579   -1.6499    0.0000 O   0  0  0  0  0  0  0  0  0  0  0  0
   -6.4302   -3.7123    0.0000 C   0  0  0  0  0  0  0  0  0  0  0  0
   -6.4302   -2.8873    0.0000 O   0  0  0  0  0  0  0  0  0  0  0  0
   -7.1446   -4.1249    0.0000 O   0  0  0  0  0  0  0  0  0  0  0  0
   -5.7157   -4.1248    0.0000 C   0  0  1  0  0  0  0  0  0  0  0  0
   -5.0012   -3.7123    0.0000 N   0  0  0  0  0  0  0  0  0  0  0  0
   -5.0012   -2.8873    0.0000 C   0  0  0  0  0  0  0  0  0  0  0  0
   -2.8692   -5.3741    0.0000 C   0  0  0  0  0  0  0  0  0  0  0  0
   -2.1548   -5.7866    0.0000 C   0  0  0  0  0  0  0  0  0  0  0  0
   -2.1547   -4.1367    0.0000 C   0  0  0  0  0  0  0  0  0  0  0  0
   -2.8692   -4.5492    0.0000 C   0  0  0  0  0  0  0  0  0  0  0  0
   -1.4403   -5.3742    0.0000 C   0  0  0  0  0  0  0  0  0  0  0  0
   -1.4403   -4.5492    0.0000 C   0  0  0  0  0  0  0  0  0  0  0  0
   -2.1548   -6.6117    0.0000 O   0  0  0  0  0  0  0  0  0  0  0  0
   -5.7157   -4.9498    0.0000 C   0  0  0  0  0  0  0  0  0  0  0  0
   -6.4301   -5.3623    0.0000 C   0  0  0  0  0  0  0  0  0  0  0  0
   -5.7157   -6.5998    0.0000 C   0  0  0  0  0  0  0  0  0  0  0  0
   -5.0012   -5.3623    0.0000 C   0  0  0  0  0  0  0  0  0  0  0  0
   -6.4301   -6.1873    0.0000 C   0  0  0  0  0  0  0  0  0  0  0  0
   -7.1446   -6.5998    0.0000 O   0  0  0  0  0  0  0  0  0  0  0  0
   -5.0012   -6.1873    0.0000 C   0  0  0  0  0  0  0  0  0  0  0  0
   -4.2867   -6.5998    0.0000 O   0  0  0  0  0  0  0  0  0  0  0  0
 45  1  1  0  0  0  0
  2  1  2  0  0  0  0
  7  2  1  0  0  0  0
  3  1  1  0  0  0  0
  8  3  1  0  0  0  0
  4 54  1  0  0  0  0
  5  4  1  0  0  0  0
  5  3  2  0  0  0  0
  6  2  1  0  0  0  0
  6  4  2  0  0  0  0
 14  7  1  0  0  0  0
 13  8  1  0  0  0  0
 11  9  1  0  0  0  0
  9 23  1  6  0  0  0
  9 74  1  0  0  0  0
 10 25  1  1  0  0  0
 12 10  1  0  0  0  0
 10 49  1  0  0  0  0
 48 11  2  0  0  0  0
 19 11  1  0  0  0  0
 18 12  2  0  0  0  0
 17 12  1  0  0  0  0
 20 13  1  0  0  0  0
 15 13  2  0  0  0  0
 16 14  1  0  0  0  0
 21 14  2  0  0  0  0
 48 15  1  0  0  0  0
 24 15  1  0  0  0  0
 17 16  2  0  0  0  0
 22 16  1  0  0  0  0
 21 18  1  0  0  0  0
 20 19  2  0  0  0  0
 27 26  1  0  0  0  0
 28 26  1  0  0  0  0
 26 37  1  1  0  0  0
 27 45  1  6  0  0  0
 29 27  1  0  0  0  0
 28 40  1  6  0  0  0
 31 28  1  0  0  0  0
 33 29  1  0  0  0  0
 34 30  1  0  0  0  0
 30 39  1  1  0  0  0
 30 43  1  6  0  0  0
 36 30  1  0  0  0  0
 33 31  1  0  0  0  0
 31 41  1  1  0  0  0
 32 37  1  6  0  0  0
 34 32  1  0  0  0  0
 35 32  1  0  0  0  0
 33 46  1  6  0  0  0
 38 35  1  0  0  0  0
 38 36  1  0  0  0  0
 36 42  1  1  0  0  0
 38 44  1  1  0  0  0
 46 47  1  0  0  0  0
 51 49  1  0  0  0  0
 49 64  1  1  0  0  0
 52 75  1  0  0  0  0
 54 50  1  1  0  0  0
 55 50  1  0  0  0  0
 53 51  1  0  0  0  0
 57 51  2  0  0  0  0
 54 52  1  0  0  0  0
 58 52  2  0  0  0  0
 56 53  1  0  0  0  0
 56 55  1  0  0  0  0
 59 55  2  0  0  0  0
 56 60  1  1  0  0  0
 60 61  1  0  0  0  0
 61 63  2  0  0  0  0
 61 62  1  0  0  0  0
 65 64  1  0  0  0  0
 66 65  1  0  0  0  0
 67 65  2  0  0  0  0
 68 66  1  0  0  0  0
 66 69  1  1  0  0  0
 70 68  1  0  0  0  0
 71 69  1  0  0  0  0
 72 70  1  0  0  0  0
 73 70  1  0  0  0  0
 92 89  1  0  0  0  0
 76 89  1  0  0  0  0
 76 75  1  0  0  0  0
 74 78  1  6  0  0  0
 79 78  1  0  0  0  0
 76 79  1  6  0  0  0
 79 80  2  0  0  0  0
 81 82  2  0  0  0  0
 81 83  1  0  0  0  0
 84 81  1  1  0  0  0
 84 94  1  0  0  0  0
 84 85  1  0  0  0  0
 86 74  1  0  0  0  0
 77 86  2  0  0  0  0
 86 85  1  0  0  0  0
 88 87  2  0  0  0  0
 89 90  2  0  0  0  0
 90 87  1  0  0  0  0
 91 92  2  0  0  0  0
 91 88  1  0  0  0  0
 93 88  1  0  0  0  0
 94 95  2  0  0  0  0
 94 97  1  0  0  0  0
 95 98  1  0  0  0  0
 98 96  2  0  0  0  0
 96100  1  0  0  0  0
100 97  2  0  0  0  0
 98 99  1  0  0  0  0
100101  1  0  0  0  0
 97 87  1  0  0  0  0
M  END
> <DATABASE_ID>
DB00512

> <DATABASE_NAME>
drugbank

> <SMILES>
CN[C@H](CC(C)C)C(=O)N[C@@H]1[C@H](O)C2=CC=C(OC3=C(O[C@@H]4O[C@H](CO)[C@@H](O)[C@H](O)[C@H]4O[C@H]4C[C@](C)(N)[C@H](O)[C@H](C)O4)C4=CC(=C3)[C@@H](NC(=O)[C@H](CC(N)=O)NC1=O)C(=O)N[C@@H]1C3=CC(=C(O)C=C3)C3=C(O)C=C(O)C=C3[C@H](NC(=O)[C@@H](NC1=O)[C@H](O)C1=CC(Cl)=C(O4)C=C1)C(O)=O)C(Cl)=C2

> <INCHI_IDENTIFIER>
InChI=1S/C66H75Cl2N9O24/c1-23(2)12-34(71-5)58(88)76-49-51(83)26-7-10-38(32(67)14-26)97-40-16-28-17-41(55(40)101-65-56(54(86)53(85)42(22-78)99-65)100-44-21-66(4,70)57(87)24(3)96-44)98-39-11-8-27(15-33(39)68)52(84)50-63(93)75-48(64(94)95)31-18-29(79)19-37(81)45(31)30-13-25(6-9-36(30)80)46(60(90)77-50)74-61(91)47(28)73-59(89)35(20-43(69)82)72-62(49)92/h6-11,13-19,23-24,34-35,42,44,46-54,56-57,65,71,78-81,83-87H,12,20-22,70H2,1-5H3,(H2,69,82)(H,72,92)(H,73,89)(H,74,91)(H,75,93)(H,76,88)(H,77,90)(H,94,95)/t24-,34+,35-,42+,44-,46+,47+,48-,49+,50-,51+,52+,53+,54-,56+,57+,65-,66-/m0/s1

> <INCHI_KEY>
MYPYJXKWCTUITO-LYRMYLQWSA-N

> <FORMULA>
C66H75Cl2N9O24

> <MOLECULAR_WEIGHT>
1449.254

> <EXACT_MASS>
1447.430199787

> <JCHEM_ACCEPTOR_COUNT>
24

> <JCHEM_ATOM_COUNT>
176

> <JCHEM_AVERAGE_NEUTRAL_MICROSPECIES_CHARGE>
0.9560299930922711

> <JCHEM_AVERAGE_POLARIZABILITY>
137.8441607757569

> <JCHEM_BIOAVAILABILITY>
0

> <JCHEM_DONOR_COUNT>
19

> <JCHEM_FORMAL_CHARGE>
0

> <JCHEM_GHOSE_FILTER>
0

> <JCHEM_IUPAC>
(1S,2R,18R,19R,22S,25R,28R,40S)-48-{[(2S,3R,4S,5S,6R)-3-{[(2S,4S,5S,6S)-4-amino-5-hydroxy-4,6-dimethyloxan-2-yl]oxy}-4,5-dihydroxy-6-(hydroxymethyl)oxan-2-yl]oxy}-22-(carbamoylmethyl)-5,47-dichloro-2,18,32,35,37-pentahydroxy-19-[(2R)-4-methyl-2-(methylamino)pentanamido]-20,23,26,42,44-pentaoxo-7,13-dioxa-21,24,27,41,43-pentaazaoctacyclo[26.14.2.2^{3,6}.2^{14,17}.1^{8,12}.1^{29,33}.0^{10,25}.0^{34,39}]pentaconta-3,5,8,10,12(48),14,16,29(45),30,32,34,36,38,46,49-pentadecaene-40-carboxylic acid

> <ALOGPS_LOGP>
1.11

> <JCHEM_LOGP>
-4.39022472628069

> <ALOGPS_LOGS>
-3.81

> <JCHEM_MDDR_LIKE_RULE>
1

> <JCHEM_NEUTRAL_CHARGE>
1

> <JCHEM_NUMBER_OF_RINGS>
10

> <JCHEM_PHYSIOLOGICAL_CHARGE>
1

> <JCHEM_PKA>
8.339446552336973

> <JCHEM_PKA_STRONGEST_ACIDIC>
2.9872117631220667

> <JCHEM_PKA_STRONGEST_BASIC>
9.88870577561999

> <JCHEM_POLAR_SURFACE_AREA>
530.4899999999998

> <JCHEM_REFRACTIVITY>
346.6085000000003

> <JCHEM_ROTATABLE_BOND_COUNT>
13

> <JCHEM_RULE_OF_FIVE>
0

> <ALOGPS_SOLUBILITY>
2.25e-01 g/l

> <JCHEM_TRADITIONAL_IUPAC>
biotin

> <JCHEM_VEBER_RULE>
0

> <DRUGBANK_ID>
DB00512

> <SECONDARY_ACCESSION_NUMBERS>
APRD01287; EXPT03217

> <DRUG_GROUPS>
approved

> <GENERIC_NAME>
Vancomycin

> <SYNONYMS>
Vancomicina; Vancomycin; Vancomycine; Vancomycinum

> <PRODUCTS>
Firvanq; Jamp Vancomycin; Jamp-vancomycin; PMS-vancomycin; PMS-vancomycin 1 G; PMS-vancomycin 500 mg; Sterile Vancomycin HCl 5.0gm/vial; Sterile Vancomycin HCl USP 1.0gm/vial; Sterile Vancomycin HCl USP 500mg/vial; Sterile Vancomycin Hydrochloride; Sterile Vancomycin Hydrochloride, USP; Vancocin; Vancocin Cp Add-vantage Inj 500mg/vial; Vancocin Inj 1gm/vial Advantage; Vancomycin; Vancomycin HCl; Vancomycin Hydrochloride; Vancomycin Hydrochloride Capsules, USP; Vancomycin Hydrochloride for Injection; Vancomycin Hydrochloride for Injection USP; Vancomycin Hydrochloride for Injection, USP; Vancomycin Hydrocloride; Vancomycin Injection USP In 0.9% Sodium Chloride; Vancomycin Injection USP In 5% Dextrose; Vancomycin hydrochloride

> <INTERNATIONAL_BRANDS>
COVANC; Vancoled

> <SALTS>
Vancomycin hydrochloride

$$$$
