
  Mrv0541 05031422522D          

 95100  0  0  1  0            999 V2000
   -4.2868   -6.6000    0.0000 C   0  0  0  0  0  0  0  0  0  0  0  0
   -3.5724   -6.1875    0.0000 C   0  0  0  0  0  0  0  0  0  0  0  0
   -4.2868   -4.9500    0.0000 C   0  0  0  0  0  0  0  0  0  0  0  0
    1.4289   -4.9500    0.0000 C   0  0  0  0  0  0  0  0  0  0  0  0
   -7.1447   -9.9000    0.0000 C   0  0  0  0  0  0  0  0  0  0  0  0
   -0.0000   -4.1250    0.0000 C   0  0  0  0  0  0  0  0  0  0  0  0
   -8.5737   -6.6000    0.0000 C   0  0  0  0  0  0  0  0  0  0  0  0
   -4.2868   -7.4250    0.0000 C   0  0  2  0  0  0  0  0  0  0  0  0
   -3.5724   -5.3625    0.0000 C   0  0  0  0  0  0  0  0  0  0  0  0
   -2.8579   -6.6000    0.0000 C   0  0  1  0  0  0  0  0  0  0  0  0
    1.4289   -4.1250    0.0000 C   0  0  2  0  0  0  0  0  0  0  0  0
   -7.1447   -9.0750    0.0000 C   0  0  2  0  0  0  0  0  0  0  0  0
   -0.7145   -3.7125    0.0000 C   0  0  2  0  0  0  0  0  0  0  0  0
   -9.2881   -6.1875    0.0000 C   0  0  2  0  0  0  0  0  0  0  0  0
   -3.5724   -7.8375    0.0000 C   0  0  2  0  0  0  0  0  0  0  0  0
   -2.1434   -6.1875    0.0000 C   0  0  1  0  0  0  0  0  0  0  0  0
    2.1434   -3.7125    0.0000 C   0  0  2  0  0  0  0  0  0  0  0  0
   -9.2881   -5.3625    0.0000 C   0  0  2  0  0  0  0  0  0  0  0  0
   -3.5724   -8.6625    0.0000 C   0  0  1  0  0  0  0  0  0  0  0  0
  -10.0026   -4.9500    0.0000 C   0  0  1  0  0  0  0  0  0  0  0  0
    2.1434   -2.8875    0.0000 C   0  0  1  0  0  0  0  0  0  0  0  0
   -2.1434   -5.3625    0.0000 C   0  0  2  0  0  0  0  0  0  0  0  0
   -6.4302   -7.8375    0.0000 C   0  0  2  0  0  0  0  0  0  0  0  0
   -1.4289   -2.4750    0.0000 C   0  0  2  0  0  0  0  0  0  0  0  0
  -10.7171   -5.3625    0.0000 C   0  0  2  0  0  0  0  0  0  0  0  0
   -4.2868   -9.0750    0.0000 C   0  0  2  0  0  0  0  0  0  0  0  0
    1.4289   -2.4750    0.0000 C   0  0  2  0  0  0  0  0  0  0  0  0
   -7.1447   -7.4250    0.0000 C   0  0  2  0  0  0  0  0  0  0  0  0
   -2.1434   -2.8875    0.0000 C   0  0  2  0  0  0  0  0  0  0  0  0
   -2.8579   -4.9500    0.0000 C   0  0  2  0  0  0  0  0  0  0  0  0
   -6.4302   -8.6625    0.0000 C   0  0  2  0  0  0  0  0  0  0  0  0
   -0.7145   -2.8875    0.0000 C   0  0  2  0  0  0  0  0  0  0  0  0
  -10.7171   -6.1875    0.0000 C   0  0  2  0  0  0  0  0  0  0  0  0
   -7.8592   -7.8375    0.0000 C   0  0  1  0  0  0  0  0  0  0  0  0
   -5.0013   -8.6625    0.0000 C   0  0  2  0  0  0  0  0  0  0  0  0
    0.7145   -2.8875    0.0000 C   0  0  2  0  0  0  0  0  0  0  0  0
   -2.1434   -3.7125    0.0000 C   0  0  2  0  0  0  0  0  0  0  0  0
   -2.8579   -7.4250    0.0000 N   0  0  0  0  0  0  0  0  0  0  0  0
   -4.2868   -4.1250    0.0000 O   0  0  0  0  0  0  0  0  0  0  0  0
    2.1434   -5.3625    0.0000 O   0  0  0  0  0  0  0  0  0  0  0  0
   -7.8592  -10.3125    0.0000 O   0  0  0  0  0  0  0  0  0  0  0  0
   -0.0000   -4.9500    0.0000 O   0  0  0  0  0  0  0  0  0  0  0  0
   -1.4289   -6.6000    0.0000 O   0  0  0  0  0  0  0  0  0  0  0  0
    2.8579   -4.1250    0.0000 O   0  0  0  0  0  0  0  0  0  0  0  0
   -8.5737   -4.9500    0.0000 O   0  0  0  0  0  0  0  0  0  0  0  0
   -2.8579   -9.0750    0.0000 O   0  0  0  0  0  0  0  0  0  0  0  0
  -10.0026   -4.1250    0.0000 O   0  0  0  0  0  0  0  0  0  0  0  0
    2.8579   -2.4750    0.0000 O   0  0  0  0  0  0  0  0  0  0  0  0
   -1.4289   -4.9500    0.0000 O   0  0  0  0  0  0  0  0  0  0  0  0
   -5.7158   -7.4250    0.0000 O   0  0  0  0  0  0  0  0  0  0  0  0
   -1.4289   -1.6500    0.0000 O   0  0  0  0  0  0  0  0  0  0  0  0
  -11.4315   -4.9500    0.0000 O   0  0  0  0  0  0  0  0  0  0  0  0
   -4.2868   -9.9000    0.0000 O   0  0  0  0  0  0  0  0  0  0  0  0
    1.4289   -1.6500    0.0000 O   0  0  0  0  0  0  0  0  0  0  0  0
   -7.1447   -6.6000    0.0000 O   0  0  0  0  0  0  0  0  0  0  0  0
   -2.8579   -2.4750    0.0000 O   0  0  0  0  0  0  0  0  0  0  0  0
  -11.4315   -6.6000    0.0000 O   0  0  0  0  0  0  0  0  0  0  0  0
   -8.5737   -7.4250    0.0000 O   0  0  0  0  0  0  0  0  0  0  0  0
   -5.0013   -7.8375    0.0000 O   0  0  0  0  0  0  0  0  0  0  0  0
  -10.0026   -6.6000    0.0000 O   0  0  0  0  0  0  0  0  0  0  0  0
    0.7145   -3.7125    0.0000 O   0  0  0  0  0  0  0  0  0  0  0  0
   -7.8592   -8.6625    0.0000 O   0  0  0  0  0  0  0  0  0  0  0  0
   -1.4289   -4.1250    0.0000 O   0  0  0  0  0  0  0  0  0  0  0  0
   -2.8579   -4.1250    0.0000 O   0  0  0  0  0  0  0  0  0  0  0  0
   -5.7158   -9.0750    0.0000 O   0  0  0  0  0  0  0  0  0  0  0  0
   -0.0000   -2.4750    0.0000 O   0  0  0  0  0  0  0  0  0  0  0  0
   -3.5724   -7.0125    0.0000 H   0  0  0  0  0  0  0  0  0  0  0  0
   -3.3882   -7.2320    0.0000 H   0  0  0  0  0  0  0  0  0  0  0  0
    2.2414   -4.2683    0.0000 H   0  0  0  0  0  0  0  0  0  0  0  0
   -6.3322   -9.2183    0.0000 H   0  0  0  0  0  0  0  0  0  0  0  0
   -0.1842   -3.0805    0.0000 H   0  0  0  0  0  0  0  0  0  0  0  0
   -8.7578   -5.5555    0.0000 H   0  0  0  0  0  0  0  0  0  0  0  0
   -3.8545   -7.0623    0.0000 H   0  0  0  0  0  0  0  0  0  0  0  0
   -2.1434   -7.0125    0.0000 H   0  0  0  0  0  0  0  0  0  0  0  0
    2.4256   -4.4877    0.0000 H   0  0  0  0  0  0  0  0  0  0  0  0
   -8.4757   -5.5058    0.0000 H   0  0  0  0  0  0  0  0  0  0  0  0
   -2.8579   -8.2500    0.0000 H   0  0  0  0  0  0  0  0  0  0  0  0
   -9.2881   -4.5375    0.0000 H   0  0  0  0  0  0  0  0  0  0  0  0
    2.8579   -3.3000    0.0000 H   0  0  0  0  0  0  0  0  0  0  0  0
   -1.4289   -5.7750    0.0000 H   0  0  0  0  0  0  0  0  0  0  0  0
   -6.7124   -7.0623    0.0000 H   0  0  0  0  0  0  0  0  0  0  0  0
   -2.2414   -2.3317    0.0000 H   0  0  0  0  0  0  0  0  0  0  0  0
  -10.7171   -4.5375    0.0000 H   0  0  0  0  0  0  0  0  0  0  0  0
   -3.5724   -9.4875    0.0000 H   0  0  0  0  0  0  0  0  0  0  0  0
    2.1434   -2.0625    0.0000 H   0  0  0  0  0  0  0  0  0  0  0  0
   -6.6144   -6.7930    0.0000 H   0  0  0  0  0  0  0  0  0  0  0  0
   -2.4256   -2.1123    0.0000 H   0  0  0  0  0  0  0  0  0  0  0  0
   -3.5724   -4.5375    0.0000 H   0  0  0  0  0  0  0  0  0  0  0  0
   -6.1481   -9.4377    0.0000 H   0  0  0  0  0  0  0  0  0  0  0  0
    0.0980   -3.0308    0.0000 H   0  0  0  0  0  0  0  0  0  0  0  0
  -11.4315   -5.7750    0.0000 H   0  0  0  0  0  0  0  0  0  0  0  0
   -7.8592   -7.0125    0.0000 H   0  0  0  0  0  0  0  0  0  0  0  0
   -5.0013   -9.4875    0.0000 H   0  0  0  0  0  0  0  0  0  0  0  0
    0.7145   -2.0625    0.0000 H   0  0  0  0  0  0  0  0  0  0  0  0
   -2.8579   -3.3000    0.0000 H   0  0  0  0  0  0  0  0  0  0  0  0
  8  1  1  6  0  0  0
  9  2  2  0  0  0  0
  9  3  1  0  0  0  0
 10  2  1  0  0  0  0
 11  4  1  1  0  0  0
 12  5  1  1  0  0  0
 13  6  1  1  0  0  0
 14  7  1  1  0  0  0
 15  8  1  0  0  0  0
 16 10  1  0  0  0  0
 17 11  1  0  0  0  0
 18 14  1  0  0  0  0
 19 15  1  0  0  0  0
 20 18  1  0  0  0  0
 21 17  1  0  0  0  0
 22 16  1  0  0  0  0
 25 20  1  0  0  0  0
 26 19  1  0  0  0  0
 27 21  1  0  0  0  0
 28 23  1  0  0  0  0
 29 24  1  0  0  0  0
 30  9  1  0  0  0  0
 30 22  1  0  0  0  0
 31 12  1  0  0  0  0
 31 23  1  0  0  0  0
 32 13  1  0  0  0  0
 32 24  1  0  0  0  0
 33 25  1  0  0  0  0
 34 28  1  0  0  0  0
 35 26  1  0  0  0  0
 36 27  1  0  0  0  0
 37 29  1  0  0  0  0
 10 38  1  1  0  0  0
 15 38  1  1  0  0  0
 39  3  1  0  0  0  0
 40  4  1  0  0  0  0
 41  5  1  0  0  0  0
 42  6  1  0  0  0  0
 16 43  1  1  0  0  0
 17 44  1  6  0  0  0
 18 45  1  6  0  0  0
 19 46  1  6  0  0  0
 20 47  1  1  0  0  0
 21 48  1  1  0  0  0
 22 49  1  6  0  0  0
 23 50  1  1  0  0  0
 24 51  1  1  0  0  0
 25 52  1  6  0  0  0
 26 53  1  1  0  0  0
 27 54  1  6  0  0  0
 28 55  1  6  0  0  0
 29 56  1  6  0  0  0
 33 57  1  1  0  0  0
 58  7  1  0  0  0  0
 34 58  1  6  0  0  0
 59  8  1  0  0  0  0
 59 35  1  0  0  0  0
 60 14  1  0  0  0  0
 60 33  1  0  0  0  0
 61 11  1  0  0  0  0
 61 36  1  0  0  0  0
 62 12  1  0  0  0  0
 62 34  1  0  0  0  0
 63 13  1  0  0  0  0
 63 37  1  0  0  0  0
 30 64  1  1  0  0  0
 37 64  1  6  0  0  0
 31 65  1  6  0  0  0
 35 65  1  1  0  0  0
 32 66  1  6  0  0  0
 36 66  1  6  0  0  0
  8 67  1  1  0  0  0
 10 68  1  6  0  0  0
 11 69  1  6  0  0  0
 12 70  1  6  0  0  0
 13 71  1  6  0  0  0
 14 72  1  6  0  0  0
 15 73  1  6  0  0  0
 16 74  1  6  0  0  0
 17 75  1  1  0  0  0
 18 76  1  1  0  0  0
 19 77  1  1  0  0  0
 20 78  1  6  0  0  0
 21 79  1  6  0  0  0
 22 80  1  1  0  0  0
 23 81  1  6  0  0  0
 24 82  1  6  0  0  0
 25 83  1  1  0  0  0
 26 84  1  6  0  0  0
 27 85  1  1  0  0  0
 28 86  1  1  0  0  0
 29 87  1  1  0  0  0
 30 88  1  6  0  0  0
 31 89  1  1  0  0  0
 32 90  1  1  0  0  0
 33 91  1  6  0  0  0
 34 92  1  1  0  0  0
 35 93  1  6  0  0  0
 36 94  1  1  0  0  0
 37 95  1  1  0  0  0
M  END
> <DATABASE_ID>
DB03971

> <DATABASE_NAME>
drugbank

> <SMILES>
[H][C@]1(C)O[C@]([H])(O[C@]2([H])[C@@]([H])(CO)O[C@]([H])(OC[C@@]3([H])O[C@@]([H])(O)[C@]([H])(O)[C@@]([H])(O)[C@]3([H])O)[C@]([H])(O)[C@@]2([H])O)[C@]([H])(O)[C@@]([H])(O)[C@]1([H])N[C@@]1([H])C=C(CO)[C@@]([H])(O[C@@]2([H])O[C@]([H])(CO)[C@@]([H])(O[C@@]3([H])O[C@]([H])(CO)[C@@]([H])(O)[C@]([H])(O)[C@@]3([H])O)[C@]([H])(O)[C@@]2([H])O)[C@]([H])(O)[C@@]1([H])O

> <INCHI_IDENTIFIER>
InChI=1S/C37H63NO28/c1-8-15(19(46)26(53)35(59-8)65-31-12(5-41)62-34(28(55)23(31)50)58-7-14-18(45)20(47)25(52)33(57)60-14)38-10-2-9(3-39)30(22(49)16(10)43)64-37-29(56)24(51)32(13(6-42)63-37)66-36-27(54)21(48)17(44)11(4-40)61-36/h2,8,10-57H,3-7H2,1H3/t8-,10+,11-,12-,13-,14-,15-,16+,17-,18-,19+,20+,21+,22-,23-,24-,25-,26-,27-,28-,29-,30-,31-,32-,33-,34+,35-,36-,37-/m1/s1

> <INCHI_KEY>
MBNITLCAVXHYER-DHAMQIFDSA-N

> <FORMULA>
C37H63NO28

> <MOLECULAR_WEIGHT>
969.886

> <EXACT_MASS>
969.353660437

> <JCHEM_ACCEPTOR_COUNT>
29

> <JCHEM_ATOM_COUNT>
129

> <JCHEM_AVERAGE_NEUTRAL_MICROSPECIES_CHARGE>
0.682038534586214

> <JCHEM_AVERAGE_POLARIZABILITY>
92.09793352540709

> <JCHEM_BIOAVAILABILITY>
0

> <JCHEM_DONOR_COUNT>
20

> <JCHEM_FORMAL_CHARGE>
0

> <JCHEM_GHOSE_FILTER>
0

> <JCHEM_IUPAC>
(2R,3R,4S,5S,6R)-6-({[(2S,3R,4R,5S,6R)-5-{[(2R,3R,4S,5S,6R)-5-{[(1S,4R,5R,6S)-4-{[(2S,3R,4R,5S,6R)-3,4-dihydroxy-6-(hydroxymethyl)-5-{[(2R,3R,4S,5S,6R)-3,4,5-trihydroxy-6-(hydroxymethyl)oxan-2-yl]oxy}oxan-2-yl]oxy}-5,6-dihydroxy-3-(hydroxymethyl)cyclohex-2-en-1-yl]amino}-3,4-dihydroxy-6-methyloxan-2-yl]oxy}-3,4-dihydroxy-6-(hydroxymethyl)oxan-2-yl]oxy}methyl)oxane-2,3,4,5-tetrol

> <ALOGPS_LOGP>
-2.68

> <JCHEM_LOGP>
-11.156230148

> <ALOGPS_LOGS>
-0.98

> <JCHEM_MDDR_LIKE_RULE>
1

> <JCHEM_NEUTRAL_CHARGE>
1

> <JCHEM_NUMBER_OF_RINGS>
6

> <JCHEM_PHYSIOLOGICAL_CHARGE>
1

> <JCHEM_PKA>
11.82051318015656

> <JCHEM_PKA_STRONGEST_ACIDIC>
11.179834727390675

> <JCHEM_PKA_STRONGEST_BASIC>
7.331546185953025

> <JCHEM_POLAR_SURFACE_AREA>
479.4700000000002

> <JCHEM_REFRACTIVITY>
202.4290000000002

> <JCHEM_ROTATABLE_BOND_COUNT>
15

> <JCHEM_RULE_OF_FIVE>
0

> <ALOGPS_SOLUBILITY>
1.01e+02 g/l

> <JCHEM_TRADITIONAL_IUPAC>
biotin

> <JCHEM_VEBER_RULE>
0

> <DRUGBANK_ID>
DB03971

> <SECONDARY_ACCESSION_NUMBERS>
EXPT00291

> <DRUG_GROUPS>
experimental

> <GENERIC_NAME>
Acarbose Derived Hexasaccharide

$$$$
