
  Mrv0541 02231216222D          

 11 10  0  0  1  0            999 V2000
    1.7605    1.0164    0.0000 C   0  0  0  0  0  0  0  0  0  0  0  0
    2.4750    1.4289    0.0000 P   0  0  1  0  0  0  0  0  0  0  0  0
    2.8875    0.7145    0.0000 O   0  0  0  0  0  0  0  0  0  0  0  0
    2.0625    2.1434    0.0000 O   0  0  0  0  0  0  0  0  0  0  0  0
    3.1895    1.8414    0.0000 C   0  0  0  0  0  0  0  0  0  0  0  0
    3.9039    1.4289    0.0000 C   0  0  0  0  0  0  0  0  0  0  0  0
    4.6184    1.8414    0.0000 C   0  0  1  0  0  0  0  0  0  0  0  0
    4.6184    2.6664    0.0000 N   0  0  0  0  0  0  0  0  0  0  0  0
    5.3329    1.4289    0.0000 C   0  0  0  0  0  0  0  0  0  0  0  0
    6.0474    1.8414    0.0000 O   0  0  0  0  0  0  0  0  0  0  0  0
    5.3329    0.6039    0.0000 O   0  0  0  0  0  0  0  0  0  0  0  0
  2  1  1  1  0  0  0
  2  3  1  6  0  0  0
  2  4  2  0  0  0  0
  2  5  1  0  0  0  0
  5  6  1  0  0  0  0
  6  7  1  0  0  0  0
  7  8  1  1  0  0  0
  7  9  1  0  0  0  0
  9 10  1  0  0  0  0
  9 11  2  0  0  0  0
M  END
> <DATABASE_ID>
DB02663

> <DATABASE_NAME>
drugbank

> <SMILES>
C[P@@](O)(=O)CC[C@@H](N)C(O)=O

> <INCHI_IDENTIFIER>
InChI=1S/C5H12NO4P/c1-11(9,10)3-2-4(6)5(7)8/h4H,2-3,6H2,1H3,(H,7,8)(H,9,10)/t4-/m1/s1

> <INCHI_KEY>
IAJOBQBIJHVGMQ-SCSAIBSYSA-N

> <FORMULA>
C5H12NO4P

> <MOLECULAR_WEIGHT>
181.1268

> <EXACT_MASS>
181.050394389

> <JCHEM_ACCEPTOR_COUNT>
5

> <JCHEM_ATOM_COUNT>
23

> <JCHEM_AVERAGE_NEUTRAL_MICROSPECIES_CHARGE>
-1.0028990559936215

> <JCHEM_AVERAGE_POLARIZABILITY>
16.031637920881067

> <JCHEM_BIOAVAILABILITY>
1

> <JCHEM_DONOR_COUNT>
3

> <JCHEM_FORMAL_CHARGE>
0

> <JCHEM_GHOSE_FILTER>
0

> <JCHEM_IUPAC>
(2R)-2-amino-4-[hydroxy(methyl)phosphoryl]butanoic acid

> <ALOGPS_LOGP>
-2.48

> <JCHEM_LOGP>
-3.4630569337928323

> <ALOGPS_LOGS>
-0.59

> <JCHEM_MDDR_LIKE_RULE>
0

> <JCHEM_NEUTRAL_CHARGE>
-1

> <JCHEM_NUMBER_OF_RINGS>
0

> <JCHEM_PHYSIOLOGICAL_CHARGE>
-1

> <JCHEM_PKA>
2.7331677269471717

> <JCHEM_PKA_STRONGEST_ACIDIC>
1.8575278318808432

> <JCHEM_PKA_STRONGEST_BASIC>
9.52908597803123

> <JCHEM_POLAR_SURFACE_AREA>
100.62

> <JCHEM_REFRACTIVITY>
39.66100000000001

> <JCHEM_ROTATABLE_BOND_COUNT>
4

> <JCHEM_RULE_OF_FIVE>
1

> <ALOGPS_SOLUBILITY>
4.63e+01 g/l

> <JCHEM_TRADITIONAL_IUPAC>
biotin

> <JCHEM_VEBER_RULE>
0

> <DRUGBANK_ID>
DB02663

> <SECONDARY_ACCESSION_NUMBERS>
EXPT02645

> <DRUG_GROUPS>
experimental

> <GENERIC_NAME>
2-Amino-4-(Hydroxymethyl-Phosphinyl)Butanoic Acid

$$$$
