
  Mrv0541 02241221382D          

 22 24  0  0  0  0            999 V2000
    2.0548    1.1441    0.0000 Cl  0  0  0  0  0  0  0  0  0  0  0  0
    2.6596    1.7052    0.0000 C   0  0  0  0  0  0  0  0  0  0  0  0
    2.4760    2.5095    0.0000 C   0  0  0  0  0  0  0  0  0  0  0  0
    3.0808    3.0707    0.0000 C   0  0  0  0  0  0  0  0  0  0  0  0
    3.8691    2.8275    0.0000 C   0  0  0  0  0  0  0  0  0  0  0  0
    4.0527    2.0232    0.0000 C   0  0  0  0  0  0  0  0  0  0  0  0
    3.4479    1.4620    0.0000 C   0  0  0  0  0  0  0  0  0  0  0  0
    3.6315    0.6577    0.0000 C   0  0  0  0  0  0  0  0  0  0  0  0
    4.4358    0.4742    0.0000 N   0  0  0  0  0  0  0  0  0  0  0  0
    4.7938   -0.2691    0.0000 C   0  0  0  0  0  0  0  0  0  0  0  0
    5.6188   -0.2691    0.0000 O   0  0  0  0  0  0  0  0  0  0  0  0
    4.4358   -1.0124    0.0000 C   0  0  0  0  0  0  0  0  0  0  0  0
    4.9502   -1.6575    0.0000 O   0  0  0  0  0  0  0  0  0  0  0  0
    3.6315   -1.1960    0.0000 N   0  0  0  0  0  0  0  0  0  0  0  0
    2.9865   -0.6816    0.0000 C   0  0  0  0  0  0  0  0  0  0  0  0
    2.9865    0.1434    0.0000 C   0  0  0  0  0  0  0  0  0  0  0  0
    2.2720    0.5559    0.0000 C   0  0  0  0  0  0  0  0  0  0  0  0
    1.5575    0.1434    0.0000 C   0  0  0  0  0  0  0  0  0  0  0  0
    0.8431    0.5559    0.0000 Cl  0  0  0  0  0  0  0  0  0  0  0  0
    1.5575   -0.6816    0.0000 C   0  0  0  0  0  0  0  0  0  0  0  0
    2.2720   -1.0941    0.0000 C   0  0  0  0  0  0  0  0  0  0  0  0
    3.4479   -2.0003    0.0000 C   0  0  0  0  0  0  0  0  0  0  0  0
  1  2  1  0  0  0  0
  2  3  2  0  0  0  0
  3  4  1  0  0  0  0
  4  5  2  0  0  0  0
  5  6  1  0  0  0  0
  6  7  2  0  0  0  0
  2  7  1  0  0  0  0
  7  8  1  0  0  0  0
  8  9  2  0  0  0  0
  9 10  1  0  0  0  0
 10 11  1  0  0  0  0
 10 12  1  0  0  0  0
 12 13  2  0  0  0  0
 12 14  1  0  0  0  0
 14 15  1  0  0  0  0
 15 16  2  0  0  0  0
  8 16  1  0  0  0  0
 16 17  1  0  0  0  0
 17 18  2  0  0  0  0
 18 19  1  0  0  0  0
 18 20  1  0  0  0  0
 20 21  2  0  0  0  0
 15 21  1  0  0  0  0
 14 22  1  0  0  0  0
M  END
> <DATABASE_ID>
DB13872

> <DATABASE_NAME>
drugbank

> <SMILES>
CN1C2=C(C=C(Cl)C=C2)C(=NC(O)C1=O)C1=CC=CC=C1Cl

> <INCHI_IDENTIFIER>
InChI=1S/C16H12Cl2N2O2/c1-20-13-7-6-9(17)8-11(13)14(19-15(21)16(20)22)10-4-2-3-5-12(10)18/h2-8,15,21H,1H3

> <INCHI_KEY>
FJIKWRGCXUCUIG-UHFFFAOYSA-N

> <FORMULA>
C16H12Cl2N2O2

> <MOLECULAR_WEIGHT>
335.185

> <EXACT_MASS>
334.027583052

> <JCHEM_ACCEPTOR_COUNT>
3

> <JCHEM_ATOM_COUNT>
34

> <JCHEM_AVERAGE_NEUTRAL_MICROSPECIES_CHARGE>
-0.00021058995335251692

> <JCHEM_AVERAGE_POLARIZABILITY>
32.20307021824079

> <JCHEM_BIOAVAILABILITY>
1

> <JCHEM_DONOR_COUNT>
1

> <JCHEM_FORMAL_CHARGE>
0

> <JCHEM_GHOSE_FILTER>
1

> <JCHEM_IUPAC>
7-chloro-5-(2-chlorophenyl)-3-hydroxy-1-methyl-2,3-dihydro-1H-1,4-benzodiazepin-2-one

> <ALOGPS_LOGP>
2.92

> <JCHEM_LOGP>
3.391391556666667

> <ALOGPS_LOGS>
-4.31

> <JCHEM_MDDR_LIKE_RULE>
0

> <JCHEM_NEUTRAL_CHARGE>
0

> <JCHEM_NUMBER_OF_RINGS>
3

> <JCHEM_PHYSIOLOGICAL_CHARGE>
0

> <JCHEM_PKA_STRONGEST_ACIDIC>
10.676469443853929

> <JCHEM_PKA_STRONGEST_BASIC>
-2.156070814774956

> <JCHEM_POLAR_SURFACE_AREA>
52.900000000000006

> <JCHEM_REFRACTIVITY>
85.8151

> <JCHEM_ROTATABLE_BOND_COUNT>
1

> <JCHEM_RULE_OF_FIVE>
1

> <ALOGPS_SOLUBILITY>
1.64e-02 g/l

> <JCHEM_TRADITIONAL_IUPAC>
tetrahydrofolic acid

> <JCHEM_VEBER_RULE>
0

> <DRUGBANK_ID>
DB13872

> <DRUG_GROUPS>
approved

> <GENERIC_NAME>
Lormetazepam

> <SYNONYMS>
(Â±)-Lormetazepam; (RS)-Lormetazepam; 7-Chloro-1,3-dihydro-5-(o-chlorophenyl)-3-hydroxy-1-methyl-2H-1,4-benzodiazepin-2-one; 7-Chloro-5-(2-chlorophenyl)-1,3-dihydro-3-hydroxy-1-methyl-2H-1,4-benzodiazepin-2-one; Lormetazepam; Methyllorazepam; N-Methyllorazepam

$$$$
