
  Mrv0541 02231215412D          

  7  6  0  0  1  0            999 V2000
    2.0625    0.7145    0.0000 N   0  3  0  0  0  0  0  0  0  0  0  0
    1.2375    0.7145    0.0000 C   0  0  2  0  0  0  0  0  0  0  0  0
    0.8250    1.4289    0.0000 C   0  0  0  0  0  0  0  0  0  0  0  0
    1.2375    2.1434    0.0000 Cl  0  0  0  0  0  0  0  0  0  0  0  0
    0.8250    0.0000    0.0000 C   0  0  0  0  0  0  0  0  0  0  0  0
    1.2375   -0.7145    0.0000 O   0  5  0  0  0  0  0  0  0  0  0  0
    0.0000    0.0000    0.0000 O   0  0  0  0  0  0  0  0  0  0  0  0
  2  1  1  1  0  0  0
  2  3  1  0  0  0  0
  3  4  1  0  0  0  0
  2  5  1  0  0  0  0
  5  6  1  0  0  0  0
  5  7  2  0  0  0  0
M  CHG  2   1   1   6  -1
M  END
> <DATABASE_ID>
DB01735

> <DATABASE_NAME>
drugbank

> <SMILES>
[NH3+][C@H](CCl)C([O-])=O

> <INCHI_IDENTIFIER>
InChI=1S/C3H6ClNO2/c4-1-2(5)3(6)7/h2H,1,5H2,(H,6,7)/t2-/m1/s1

> <INCHI_KEY>
ASBJGPTTYPEMLP-UWTATZPHSA-N

> <FORMULA>
C3H6ClNO2

> <MOLECULAR_WEIGHT>
123.538

> <EXACT_MASS>
123.008706148

> <JCHEM_ACCEPTOR_COUNT>
2

> <JCHEM_ATOM_COUNT>
13

> <JCHEM_AVERAGE_NEUTRAL_MICROSPECIES_CHARGE>
-0.02954061584862533

> <JCHEM_AVERAGE_POLARIZABILITY>
10.48935139261242

> <JCHEM_BIOAVAILABILITY>
1

> <JCHEM_DONOR_COUNT>
1

> <JCHEM_FORMAL_CHARGE>
0

> <JCHEM_GHOSE_FILTER>
0

> <JCHEM_IUPAC>
(2S)-2-azaniumyl-3-chloropropanoate

> <ALOGPS_LOGP>
-1.57

> <JCHEM_LOGP>
-2.5328992268170216

> <ALOGPS_LOGS>
-1.03

> <JCHEM_MDDR_LIKE_RULE>
0

> <JCHEM_NEUTRAL_CHARGE>
0

> <JCHEM_NUMBER_OF_RINGS>
0

> <JCHEM_PHYSIOLOGICAL_CHARGE>
0

> <JCHEM_PKA_STRONGEST_ACIDIC>
1.703873341970538

> <JCHEM_PKA_STRONGEST_BASIC>
8.516486842376407

> <JCHEM_POLAR_SURFACE_AREA>
67.77000000000001

> <JCHEM_REFRACTIVITY>
47.221900000000005

> <JCHEM_ROTATABLE_BOND_COUNT>
2

> <JCHEM_RULE_OF_FIVE>
1

> <ALOGPS_SOLUBILITY>
1.66e+01 g/l

> <JCHEM_TRADITIONAL_IUPAC>
biotin

> <JCHEM_VEBER_RULE>
0

> <DRUGBANK_ID>
DB01735

> <SECONDARY_ACCESSION_NUMBERS>
EXPT00806

> <DRUG_GROUPS>
experimental

> <GENERIC_NAME>
3-Chloroalaninate

$$$$
