
  Mrv0541 05041411092D          

 45 47  0  0  1  0            999 V2000
    2.8579    2.4750    0.0000 C   0  0  0  0  0  0  0  0  0  0  0  0
    1.4289    2.4750    0.0000 C   0  0  0  0  0  0  0  0  0  0  0  0
    2.8579    3.3000    0.0000 C   0  0  0  0  0  0  0  0  0  0  0  0
    1.4289    3.3000    0.0000 C   0  0  0  0  0  0  0  0  0  0  0  0
   -2.1434    3.7125    0.0000 C   0  0  0  0  0  0  0  0  0  0  0  0
    0.7145    7.0125    0.0000 C   0  0  0  0  0  0  0  0  0  0  0  0
    2.1434    2.0625    0.0000 C   0  0  0  0  0  0  0  0  0  0  0  0
    2.1434    3.7125    0.0000 C   0  0  0  0  0  0  0  0  0  0  0  0
   -1.4289    3.3000    0.0000 C   0  0  2  0  0  0  0  0  0  0  0  0
    0.7145    6.1875    0.0000 C   0  0  2  0  0  0  0  0  0  0  0  0
    2.1434    1.2375    0.0000 C   0  0  1  0  0  0  0  0  0  0  0  0
   -1.4289    2.4750    0.0000 C   0  0  2  0  0  0  0  0  0  0  0  0
   -0.0000    5.7750    0.0000 C   0  0  2  0  0  0  0  0  0  0  0  0
   -0.7145    2.0625    0.0000 C   0  0  1  0  0  0  0  0  0  0  0  0
   -0.0000    4.9500    0.0000 C   0  0  1  0  0  0  0  0  0  0  0  0
    0.0000    2.4750    0.0000 C   0  0  1  0  0  0  0  0  0  0  0  0
    0.7145    4.5375    0.0000 C   0  0  1  0  0  0  0  0  0  0  0  0
    2.8579    0.8250    0.0000 C   0  0  0  0  0  0  0  0  0  0  0  0
   -0.0000    3.3000    0.0000 C   0  0  2  0  0  0  0  0  0  0  0  0
    1.4289    4.9500    0.0000 C   0  0  1  0  0  0  0  0  0  0  0  0
    1.4289    0.8250    0.0000 N   0  0  0  0  0  0  0  0  0  0  0  0
   -2.8579    3.3000    0.0000 O   0  0  0  0  0  0  0  0  0  0  0  0
    1.4289    7.4250    0.0000 O   0  0  0  0  0  0  0  0  0  0  0  0
   -2.1434    2.0625    0.0000 O   0  0  0  0  0  0  0  0  0  0  0  0
   -0.7145    6.1875    0.0000 O   0  0  0  0  0  0  0  0  0  0  0  0
   -0.7145    1.2375    0.0000 O   0  0  0  0  0  0  0  0  0  0  0  0
   -0.7145    4.5375    0.0000 O   0  0  0  0  0  0  0  0  0  0  0  0
    0.7145    2.0625    0.0000 O   0  0  0  0  0  0  0  0  0  0  0  0
    3.5724    1.2375    0.0000 O   0  0  0  0  0  0  0  0  0  0  0  0
    2.8579    0.0000    0.0000 O   0  0  0  0  0  0  0  0  0  0  0  0
    2.1434    4.5375    0.0000 O   0  0  0  0  0  0  0  0  0  0  0  0
   -0.7145    3.7125    0.0000 O   0  0  0  0  0  0  0  0  0  0  0  0
    1.4289    5.7750    0.0000 O   0  0  0  0  0  0  0  0  0  0  0  0
    0.7145    3.7125    0.0000 O   0  0  0  0  0  0  0  0  0  0  0  0
   -1.9592    2.6680    0.0000 H   0  0  0  0  0  0  0  0  0  0  0  0
   -0.0980    6.3308    0.0000 H   0  0  0  0  0  0  0  0  0  0  0  0
    2.8579    1.6500    0.0000 H   0  0  0  0  0  0  0  0  0  0  0  0
   -2.2414    2.6183    0.0000 H   0  0  0  0  0  0  0  0  0  0  0  0
   -0.2822    6.5502    0.0000 H   0  0  0  0  0  0  0  0  0  0  0  0
   -1.4289    1.6500    0.0000 H   0  0  0  0  0  0  0  0  0  0  0  0
   -0.7145    5.3625    0.0000 H   0  0  0  0  0  0  0  0  0  0  0  0
    0.0000    1.6500    0.0000 H   0  0  0  0  0  0  0  0  0  0  0  0
   -0.0000    4.1250    0.0000 H   0  0  0  0  0  0  0  0  0  0  0  0
    0.7145    2.8875    0.0000 H   0  0  0  0  0  0  0  0  0  0  0  0
    1.4289    4.1250    0.0000 H   0  0  0  0  0  0  0  0  0  0  0  0
  3  1  1  0  0  0  0
  4  2  2  0  0  0  0
  7  1  2  0  0  0  0
  7  2  1  0  0  0  0
  8  3  2  0  0  0  0
  8  4  1  0  0  0  0
  9  5  1  1  0  0  0
 10  6  1  1  0  0  0
 11  7  1  0  0  0  0
 12  9  1  0  0  0  0
 13 10  1  0  0  0  0
 14 12  1  0  0  0  0
 15 13  1  0  0  0  0
 16 14  1  0  0  0  0
 17 15  1  0  0  0  0
 18 11  1  0  0  0  0
 19 16  1  0  0  0  0
 20 17  1  0  0  0  0
 11 21  1  6  0  0  0
 22  5  1  0  0  0  0
 23  6  1  0  0  0  0
 12 24  1  6  0  0  0
 13 25  1  6  0  0  0
 14 26  1  1  0  0  0
 15 27  1  1  0  0  0
 16 28  1  1  0  0  0
 29 18  2  0  0  0  0
 30 18  1  0  0  0  0
 31  8  1  0  0  0  0
 20 31  1  6  0  0  0
 32  9  1  0  0  0  0
 32 19  1  0  0  0  0
 33 10  1  0  0  0  0
 33 20  1  0  0  0  0
 17 34  1  1  0  0  0
 19 34  1  6  0  0  0
  9 35  1  6  0  0  0
 10 36  1  6  0  0  0
 11 37  1  6  0  0  0
 12 38  1  1  0  0  0
 13 39  1  1  0  0  0
 14 40  1  6  0  0  0
 15 41  1  6  0  0  0
 16 42  1  6  0  0  0
 17 43  1  6  0  0  0
 19 44  1  1  0  0  0
 20 45  1  1  0  0  0
M  END
> <DATABASE_ID>
DB02675

> <DATABASE_NAME>
drugbank

> <SMILES>
[H][C@@](N)(C(O)=O)C1=CC=C(O[C@@]2([H])O[C@]([H])(CO)[C@@]([H])(O)[C@]([H])(O)[C@]2([H])O[C@@]2([H])O[C@]([H])(CO)[C@@]([H])(O)[C@]([H])(O)[C@]2([H])O)C=C1

> <INCHI_IDENTIFIER>
InChI=1S/C20H29NO13/c21-11(18(29)30)7-1-3-8(4-2-7)31-20-17(15(27)13(25)10(6-23)33-20)34-19-16(28)14(26)12(24)9(5-22)32-19/h1-4,9-17,19-20,22-28H,5-6,21H2,(H,29,30)/t9-,10-,11+,12-,13-,14+,15+,16+,17+,19-,20+/m1/s1

> <INCHI_KEY>
PHPOPZGUOBMSPZ-QHJSCRBTSA-N

> <FORMULA>
C20H29NO13

> <MOLECULAR_WEIGHT>
491.4432

> <EXACT_MASS>
491.163890019

> <JCHEM_ACCEPTOR_COUNT>
14

> <JCHEM_ATOM_COUNT>
63

> <JCHEM_AVERAGE_NEUTRAL_MICROSPECIES_CHARGE>
-0.02352688723984369

> <JCHEM_AVERAGE_POLARIZABILITY>
46.495759588494494

> <JCHEM_BIOAVAILABILITY>
0

> <JCHEM_DONOR_COUNT>
9

> <JCHEM_FORMAL_CHARGE>
0

> <JCHEM_GHOSE_FILTER>
0

> <JCHEM_IUPAC>
(2S)-2-amino-2-(4-{[(2R,3S,4S,5S,6R)-4,5-dihydroxy-6-(hydroxymethyl)-3-{[(2R,3S,4S,5S,6R)-3,4,5-trihydroxy-6-(hydroxymethyl)oxan-2-yl]oxy}oxan-2-yl]oxy}phenyl)acetic acid

> <ALOGPS_LOGP>
-2.49

> <JCHEM_LOGP>
-5.815834606374446

> <ALOGPS_LOGS>
-1.19

> <JCHEM_MDDR_LIKE_RULE>
1

> <JCHEM_NEUTRAL_CHARGE>
0

> <JCHEM_NUMBER_OF_RINGS>
3

> <JCHEM_PHYSIOLOGICAL_CHARGE>
0

> <JCHEM_PKA>
12.091255458307907

> <JCHEM_PKA_STRONGEST_ACIDIC>
1.379875543873941

> <JCHEM_PKA_STRONGEST_BASIC>
8.618268028151578

> <JCHEM_POLAR_SURFACE_AREA>
241.84999999999994

> <JCHEM_REFRACTIVITY>
106.89989999999999

> <JCHEM_ROTATABLE_BOND_COUNT>
8

> <JCHEM_RULE_OF_FIVE>
0

> <ALOGPS_SOLUBILITY>
3.17e+01 g/l

> <JCHEM_TRADITIONAL_IUPAC>
biotin

> <JCHEM_VEBER_RULE>
0

> <DRUGBANK_ID>
DB02675

> <SECONDARY_ACCESSION_NUMBERS>
EXPT02905

> <DRUG_GROUPS>
experimental

> <GENERIC_NAME>
(4-Hydroxymaltosephenyl)Glycine

$$$$
