
  Mrv0541 02231218022D          

181190  0  0  1  0            999 V2000
    6.7342   -9.9968    0.0000 C   0  0  0  0  0  0  0  0  0  0  0  0
    7.4408   -9.8030    0.0000 C   0  0  0  0  0  0  0  0  0  0  0  0
    7.1008   -9.0326    0.0000 C   0  0  0  0  0  0  0  0  0  0  0  0
    8.0307  -10.5563    0.0000 C   0  0  0  0  0  0  0  0  0  0  0  0
    7.3294  -10.9891    0.0000 C   0  0  0  0  0  0  0  0  0  0  0  0
    6.4067  -10.9659    0.0000 C   0  0  0  0  0  0  0  0  0  0  0  0
    5.6419  -10.5083    0.0000 C   0  0  0  0  0  0  0  0  0  0  0  0
    5.8095   -9.5699    0.0000 C   0  0  0  0  0  0  0  0  0  0  0  0
    6.2396   -8.7599    0.0000 C   0  0  0  0  0  0  0  0  0  0  0  0
    6.8685   -8.2146    0.0000 O   0  0  0  0  0  0  0  0  0  0  0  0
    6.4049   -9.5175    0.0000 N   0  0  0  0  0  0  0  0  0  0  0  0
    6.1092  -10.3513    0.0000 C   0  0  2  0  0  0  0  0  0  0  0  0
    5.3412   -9.9950    0.0000 C   0  0  0  0  0  0  0  0  0  0  0  0
    4.7465  -10.6299    0.0000 C   0  0  0  0  0  0  0  0  0  0  0  0
    4.6693  -11.3891    0.0000 N   0  0  0  0  0  0  0  0  0  0  0  0
    4.2118   -9.9075    0.0000 O   0  0  0  0  0  0  0  0  0  0  0  0
    5.6394  -11.2191    0.0000 C   0  0  0  0  0  0  0  0  0  0  0  0
    5.6391  -12.0748    0.0000 O   0  0  0  0  0  0  0  0  0  0  0  0
    5.0796  -11.8757    0.0000 N   0  0  0  0  0  0  0  0  0  0  0  0
    4.6915  -12.6178    0.0000 C   0  0  1  0  0  0  0  0  0  0  0  0
    3.8817  -12.7755    0.0000 C   0  0  1  0  0  0  0  0  0  0  0  0
    3.4815  -12.0541    0.0000 O   0  0  0  0  0  0  0  0  0  0  0  0
    4.0439  -11.4506    0.0000 C   0  0  0  0  0  0  0  0  0  0  0  0
    4.1652  -12.2000    0.0000 O   0  0  0  0  0  0  0  0  0  0  0  0
    4.0986  -10.5494    0.0000 C   0  0  2  0  0  0  0  0  0  0  0  0
    4.8200  -10.1492    0.0000 N   0  0  0  0  0  0  0  0  0  0  0  0
    4.8341   -9.3243    0.0000 C   0  0  0  0  0  0  0  0  0  0  0  0
    4.1982   -8.7369    0.0000 O   0  0  0  0  0  0  0  0  0  0  0  0
    5.5556   -8.9241    0.0000 C   0  0  2  0  0  0  0  0  0  0  0  0
    4.9045   -8.3301    0.0000 C   0  0  0  0  0  0  0  0  0  0  0  0
    5.5697   -8.0992    0.0000 N   0  0  0  0  0  0  0  0  0  0  0  0
    6.2911   -7.6990    0.0000 C   0  0  0  0  0  0  0  0  0  0  0  0
    7.0812   -7.3737    0.0000 O   0  0  0  0  0  0  0  0  0  0  0  0
    6.3052   -6.8742    0.0000 C   0  0  2  0  0  0  0  0  0  0  0  0
    5.5105   -6.5066    0.0000 C   0  0  0  0  0  0  0  0  0  0  0  0
    4.6725   -6.2932    0.0000 C   0  0  0  0  0  0  0  0  0  0  0  0
    3.9686   -6.7509    0.0000 C   0  0  0  0  0  0  0  0  0  0  0  0
    4.1360   -5.6399    0.0000 C   0  0  0  0  0  0  0  0  0  0  0  0
    7.0267   -6.4740    0.0000 N   0  0  0  0  0  0  0  0  0  0  0  0
    7.0408   -5.6491    0.0000 C   0  0  0  0  0  0  0  0  0  0  0  0
    6.4019   -5.1036    0.0000 O   0  0  0  0  0  0  0  0  0  0  0  0
    7.7622   -5.2489    0.0000 C   0  0  0  0  0  0  0  0  0  0  0  0
    7.7764   -4.4240    0.0000 N   0  0  0  0  0  0  0  0  0  0  0  0
    8.4978   -4.0238    0.0000 C   0  0  0  0  0  0  0  0  0  0  0  0
    9.3156   -4.1417    0.0000 O   0  0  0  0  0  0  0  0  0  0  0  0
    8.5119   -3.1989    0.0000 C   0  0  1  0  0  0  0  0  0  0  0  0
    9.2334   -2.7987    0.0000 N   0  0  0  0  0  0  0  0  0  0  0  0
    9.2475   -1.9738    0.0000 C   0  0  0  0  0  0  0  0  0  0  0  0
    8.5139   -1.6829    0.0000 O   0  0  0  0  0  0  0  0  0  0  0  0
    9.9689   -1.5736    0.0000 C   0  0  2  0  0  0  0  0  0  0  0  0
    9.9831   -0.7488    0.0000 N   0  0  0  0  0  0  0  0  0  0  0  0
   10.7045   -0.3486    0.0000 C   0  0  0  0  0  0  0  0  0  0  0  0
   11.1317   -1.0454    0.0000 O   0  0  0  0  0  0  0  0  0  0  0  0
   10.7186    0.4763    0.0000 C   0  0  1  0  0  0  0  0  0  0  0  0
   11.4401    0.8765    0.0000 N   0  0  0  0  0  0  0  0  0  0  0  0
   12.1474    0.4518    0.0000 C   0  0  0  0  0  0  0  0  0  0  0  0
   11.9076   -0.3205    0.0000 O   0  0  0  0  0  0  0  0  0  0  0  0
   12.8688    0.8520    0.0000 C   0  0  1  0  0  0  0  0  0  0  0  0
   13.0527    1.6841    0.0000 C   0  0  0  0  0  0  0  0  0  0  0  0
   13.4007    2.4445    0.0000 C   0  0  0  0  0  0  0  0  0  0  0  0
   13.8804    3.1264    0.0000 C   0  0  0  0  0  0  0  0  0  0  0  0
   14.5333    3.6433    0.0000 N   0  0  0  0  0  0  0  0  0  0  0  0
   13.5761    0.4274    0.0000 N   0  0  0  0  0  0  0  0  0  0  0  0
   13.5620   -0.3975    0.0000 C   0  0  0  0  0  0  0  0  0  0  0  0
   14.4136   -0.3204    0.0000 O   0  0  0  0  0  0  0  0  0  0  0  0
   12.8405   -0.7977    0.0000 C   0  0  1  0  0  0  0  0  0  0  0  0
   13.5928   -1.2177    0.0000 C   0  0  0  0  0  0  0  0  0  0  0  0
   13.5337   -2.0473    0.0000 C   0  0  0  0  0  0  0  0  0  0  0  0
   14.2410   -2.4719    0.0000 C   0  0  0  0  0  0  0  0  0  0  0  0
   14.2269   -3.2968    0.0000 C   0  0  0  0  0  0  0  0  0  0  0  0
   13.5054   -3.6970    0.0000 C   0  0  0  0  0  0  0  0  0  0  0  0
   12.8829   -3.6119    0.0000 C   0  0  0  0  0  0  0  0  0  0  0  0
   12.8123   -2.4475    0.0000 C   0  0  0  0  0  0  0  0  0  0  0  0
   12.8264   -1.6226    0.0000 N   0  0  0  0  0  0  0  0  0  0  0  0
   12.1050   -2.0228    0.0000 C   0  0  0  0  0  0  0  0  0  0  0  0
   11.2683   -2.0652    0.0000 O   0  0  0  0  0  0  0  0  0  0  0  0
   12.0908   -2.8477    0.0000 C   0  0  1  0  0  0  0  0  0  0  0  0
   11.3694   -3.2479    0.0000 N   0  0  0  0  0  0  0  0  0  0  0  0
   11.3553   -4.0728    0.0000 C   0  0  0  0  0  0  0  0  0  0  0  0
   12.0250   -3.6828    0.0000 O   0  0  0  0  0  0  0  0  0  0  0  0
   10.6338   -4.4730    0.0000 C   0  0  2  0  0  0  0  0  0  0  0  0
   10.6197   -5.2978    0.0000 N   0  0  0  0  0  0  0  0  0  0  0  0
    9.8983   -5.6980    0.0000 C   0  0  0  0  0  0  0  0  0  0  0  0
    9.0742   -5.5879    0.0000 O   0  0  0  0  0  0  0  0  0  0  0  0
    9.8841   -6.5229    0.0000 C   0  0  2  0  0  0  0  0  0  0  0  0
    9.1627   -6.9231    0.0000 N   0  0  0  0  0  0  0  0  0  0  0  0
    9.1486   -7.7480    0.0000 C   0  0  0  0  0  0  0  0  0  0  0  0
    9.8690   -8.0969    0.0000 O   0  0  0  0  0  0  0  0  0  0  0  0
    8.4272   -8.1482    0.0000 C   0  0  2  0  0  0  0  0  0  0  0  0
    8.4130   -8.9731    0.0000 N   0  0  0  0  0  0  0  0  0  0  0  0
    7.6916   -9.3733    0.0000 C   0  0  0  0  0  0  0  0  0  0  0  0
    7.7350   -8.5241    0.0000 O   0  0  0  0  0  0  0  0  0  0  0  0
    7.6775  -10.1982    0.0000 C   0  0  1  0  0  0  0  0  0  0  0  0
    8.6338  -10.3167    0.0000 C   0  0  0  0  0  0  0  0  0  0  0  0
    9.3722  -10.7741    0.0000 C   0  0  0  0  0  0  0  0  0  0  0  0
   10.0899  -11.2118    0.0000 C   0  0  0  0  0  0  0  0  0  0  0  0
   10.6868  -11.7917    0.0000 N   0  0  0  0  0  0  0  0  0  0  0  0
    6.9560  -10.5984    0.0000 N   0  0  0  0  0  0  0  0  0  0  0  0
    6.9419  -11.4232    0.0000 C   0  0  0  0  0  0  0  0  0  0  0  0
    7.8875  -11.3418    0.0000 O   0  0  0  0  0  0  0  0  0  0  0  0
    6.2205  -11.8234    0.0000 C   0  0  2  0  0  0  0  0  0  0  0  0
    6.2063  -12.6483    0.0000 N   0  0  0  0  0  0  0  0  0  0  0  0
    5.4849  -13.0485    0.0000 C   0  0  0  0  0  0  0  0  0  0  0  0
    5.5005  -13.8991    0.0000 O   0  0  0  0  0  0  0  0  0  0  0  0
    6.9278  -12.2481    0.0000 C   0  0  0  0  0  0  0  0  0  0  0  0
    7.6492  -11.8479    0.0000 C   0  0  0  0  0  0  0  0  0  0  0  0
    8.3565  -12.2726    0.0000 C   0  0  0  0  0  0  0  0  0  0  0  0
    8.3424  -13.0975    0.0000 C   0  0  0  0  0  0  0  0  0  0  0  0
    8.9556  -13.6729    0.0000 O   0  0  0  0  0  0  0  0  0  0  0  0
    7.6209  -13.4977    0.0000 C   0  0  0  0  0  0  0  0  0  0  0  0
    6.9136  -13.0730    0.0000 C   0  0  0  0  0  0  0  0  0  0  0  0
    9.1679   -8.7069    0.0000 C   0  0  1  0  0  0  0  0  0  0  0  0
    9.9852   -8.9990    0.0000 C   0  0  0  0  0  0  0  0  0  0  0  0
    9.3966   -9.5259    0.0000 O   0  0  0  0  0  0  0  0  0  0  0  0
   10.5914   -6.9476    0.0000 C   0  0  0  0  0  0  0  0  0  0  0  0
   11.3129   -6.5474    0.0000 C   0  0  0  0  0  0  0  0  0  0  0  0
   12.0202   -6.9721    0.0000 C   0  0  0  0  0  0  0  0  0  0  0  0
   12.0060   -7.7969    0.0000 C   0  0  0  0  0  0  0  0  0  0  0  0
   12.5965   -8.3989    0.0000 O   0  0  0  0  0  0  0  0  0  0  0  0
   11.2846   -8.1972    0.0000 C   0  0  0  0  0  0  0  0  0  0  0  0
   10.5773   -7.7725    0.0000 C   0  0  0  0  0  0  0  0  0  0  0  0
   11.3411   -4.8976    0.0000 C   0  0  0  0  0  0  0  0  0  0  0  0
   12.0626   -4.4974    0.0000 C   0  0  0  0  0  0  0  0  0  0  0  0
   12.7699   -4.9221    0.0000 C   0  0  0  0  0  0  0  0  0  0  0  0
   12.7557   -5.7470    0.0000 C   0  0  0  0  0  0  0  0  0  0  0  0
   13.5228   -6.1059    0.0000 O   0  0  0  0  0  0  0  0  0  0  0  0
   12.0343   -6.1472    0.0000 C   0  0  0  0  0  0  0  0  0  0  0  0
   11.3270   -5.7225    0.0000 C   0  0  0  0  0  0  0  0  0  0  0  0
   12.8599   -3.1521    0.0000 C   0  0  2  0  0  0  0  0  0  0  0  0
   13.0326   -4.1275    0.0000 C   0  0  0  0  0  0  0  0  0  0  0  0
   13.6136   -2.8646    0.0000 O   0  0  0  0  0  0  0  0  0  0  0  0
   10.0113    0.9010    0.0000 C   0  0  0  0  0  0  0  0  0  0  0  0
    9.2899    0.5008    0.0000 C   0  0  0  0  0  0  0  0  0  0  0  0
    8.5826    0.9255    0.0000 C   0  0  0  0  0  0  0  0  0  0  0  0
    8.5967    1.7503    0.0000 C   0  0  0  0  0  0  0  0  0  0  0  0
    7.8670    2.1598    0.0000 O   0  0  0  0  0  0  0  0  0  0  0  0
    7.9036    2.9999    0.0000 C   0  0  2  0  0  0  0  0  0  0  0  0
    8.6460    3.3596    0.0000 O   0  0  0  0  0  0  0  0  0  0  0  0
    8.7057    4.1824    0.0000 C   0  0  2  0  0  0  0  0  0  0  0  0
    9.4430    4.6110    0.0000 C   0  0  0  0  0  0  0  0  0  0  0  0
    9.9370    5.2842    0.0000 O   0  0  0  0  0  0  0  0  0  0  0  0
    8.0230    4.6456    0.0000 C   0  0  1  0  0  0  0  0  0  0  0  0
    8.1227    5.4871    0.0000 O   0  0  0  0  0  0  0  0  0  0  0  0
    7.2806    4.2859    0.0000 C   0  0  2  0  0  0  0  0  0  0  0  0
    6.9407    5.0608    0.0000 O   0  0  0  0  0  0  0  0  0  0  0  0
    7.2208    3.4630    0.0000 C   0  0  2  0  0  0  0  0  0  0  0  0
    6.4605    3.1119    0.0000 O   0  0  0  0  0  0  0  0  0  0  0  0
    5.7844    3.6112    0.0000 C   0  0  1  0  0  0  0  0  0  0  0  0
    5.8740    4.4313    0.0000 O   0  0  0  0  0  0  0  0  0  0  0  0
    5.2086    4.9190    0.0000 C   0  0  2  0  0  0  0  0  0  0  0  0
    5.2048    5.7700    0.0000 C   0  0  0  0  0  0  0  0  0  0  0  0
    4.7562    6.4726    0.0000 O   0  0  0  0  0  0  0  0  0  0  0  0
    4.4535    4.5865    0.0000 C   0  0  1  0  0  0  0  0  0  0  0  0
    3.7163    5.0004    0.0000 O   0  0  0  0  0  0  0  0  0  0  0  0
    4.3639    3.7664    0.0000 C   0  0  2  0  0  0  0  0  0  0  0  0
    3.5944    3.4170    0.0000 O   0  0  0  0  0  0  0  0  0  0  0  0
    5.0294    3.2788    0.0000 C   0  0  2  0  0  0  0  0  0  0  0  0
    4.9369    2.4389    0.0000 O   0  0  0  0  0  0  0  0  0  0  0  0
    9.3182    2.1506    0.0000 C   0  0  0  0  0  0  0  0  0  0  0  0
   10.0255    1.7259    0.0000 C   0  0  0  0  0  0  0  0  0  0  0  0
    9.2237   -1.0651    0.0000 C   0  0  1  0  0  0  0  0  0  0  0  0
    8.3953   -0.8115    0.0000 C   0  0  0  0  0  0  0  0  0  0  0  0
    8.9486   -0.2784    0.0000 O   0  0  0  0  0  0  0  0  0  0  0  0
    7.8046   -2.7742    0.0000 C   0  0  0  0  0  0  0  0  0  0  0  0
    7.0832   -3.1744    0.0000 C   0  0  0  0  0  0  0  0  0  0  0  0
    6.3759   -2.7498    0.0000 C   0  0  0  0  0  0  0  0  0  0  0  0
    6.3900   -1.9249    0.0000 C   0  0  0  0  0  0  0  0  0  0  0  0
    5.7677   -1.3594    0.0000 O   0  0  0  0  0  0  0  0  0  0  0  0
    7.1115   -1.5247    0.0000 C   0  0  0  0  0  0  0  0  0  0  0  0
    7.8188   -1.9494    0.0000 C   0  0  0  0  0  0  0  0  0  0  0  0
    3.4006  -10.1095    0.0000 C   0  0  0  0  0  0  0  0  0  0  0  0
    2.6707  -10.4939    0.0000 C   0  0  0  0  0  0  0  0  0  0  0  0
    1.9728  -10.0540    0.0000 C   0  0  0  0  0  0  0  0  0  0  0  0
    1.2292  -10.4501    0.0000 Cl  0  0  0  0  0  0  0  0  0  0  0  0
    2.0048   -9.2296    0.0000 C   0  0  0  0  0  0  0  0  0  0  0  0
    1.4312   -8.6103    0.0000 O   0  0  0  0  0  0  0  0  0  0  0  0
    2.7348   -8.8452    0.0000 C   0  0  0  0  0  0  0  0  0  0  0  0
    3.4327   -9.2851    0.0000 C   0  0  0  0  0  0  0  0  0  0  0  0
    3.4029  -13.5082    0.0000 C   0  0  0  0  0  0  0  0  0  0  0  0
    2.5825  -13.6873    0.0000 N   0  0  0  0  0  0  0  0  0  0  0  0
    3.5551  -14.3392    0.0000 O   0  0  0  0  0  0  0  0  0  0  0  0
  1  2  1  0  0  0  0
  2  3  1  0  0  0  0
  2  4  1  0  0  0  0
  4  5  1  0  0  0  0
  5  6  2  0  0  0  0
  6  7  1  0  0  0  0
  7  8  2  0  0  0  0
  8  9  1  0  0  0  0
  9 10  2  0  0  0  0
  9 11  1  0  0  0  0
 12 11  1  1  0  0  0
 12 13  1  0  0  0  0
 13 14  1  0  0  0  0
 14 15  1  0  0  0  0
 14 16  2  0  0  0  0
 12 17  1  0  0  0  0
 17 18  2  0  0  0  0
 17 19  1  0  0  0  0
 20 19  1  6  0  0  0
 20 21  1  0  0  0  0
 21 22  1  0  0  0  0
 22 23  1  0  0  0  0
 23 24  2  0  0  0  0
 23 25  1  0  0  0  0
 25 26  1  0  0  0  0
 26 27  1  0  0  0  0
 27 28  2  0  0  0  0
 27 29  1  0  0  0  0
 29 30  1  1  0  0  0
 29 31  1  0  0  0  0
 31 32  1  0  0  0  0
 32 33  2  0  0  0  0
 32 34  1  0  0  0  0
 34 35  1  6  0  0  0
 35 36  1  0  0  0  0
 36 37  1  0  0  0  0
 36 38  1  0  0  0  0
 34 39  1  0  0  0  0
 39 40  1  0  0  0  0
 40 41  2  0  0  0  0
 40 42  1  0  0  0  0
 42 43  1  0  0  0  0
 43 44  1  0  0  0  0
 44 45  2  0  0  0  0
 44 46  1  0  0  0  0
 46 47  1  0  0  0  0
 47 48  1  0  0  0  0
 48 49  2  0  0  0  0
 48 50  1  0  0  0  0
 50 51  1  0  0  0  0
 51 52  1  0  0  0  0
 52 53  2  0  0  0  0
 52 54  1  0  0  0  0
 54 55  1  0  0  0  0
 55 56  1  0  0  0  0
 56 57  2  0  0  0  0
 56 58  1  0  0  0  0
 58 59  1  1  0  0  0
 59 60  1  0  0  0  0
 60 61  1  0  0  0  0
 61 62  1  0  0  0  0
 58 63  1  0  0  0  0
 63 64  1  0  0  0  0
 64 65  2  0  0  0  0
 64 66  1  0  0  0  0
 66 67  1  6  0  0  0
 67 68  1  0  0  0  0
 68 69  2  0  0  0  0
 69 70  1  0  0  0  0
 70 71  2  0  0  0  0
 71 72  1  0  0  0  0
 72 73  2  0  0  0  0
 68 73  1  0  0  0  0
 66 74  1  0  0  0  0
 74 75  1  0  0  0  0
 75 76  2  0  0  0  0
 75 77  1  0  0  0  0
 77 78  1  0  0  0  0
 78 79  1  0  0  0  0
 79 80  2  0  0  0  0
 79 81  1  0  0  0  0
 81 82  1  0  0  0  0
 82 83  1  0  0  0  0
 83 84  2  0  0  0  0
 83 85  1  0  0  0  0
 85 86  1  0  0  0  0
 86 87  1  0  0  0  0
 87 88  2  0  0  0  0
 87 89  1  0  0  0  0
 89 90  1  0  0  0  0
 90 91  1  0  0  0  0
 91 92  2  0  0  0  0
 91 93  1  0  0  0  0
 93 94  1  1  0  0  0
 94 95  1  0  0  0  0
 95 96  1  0  0  0  0
 96 97  1  0  0  0  0
 93 98  1  0  0  0  0
 98 99  1  0  0  0  0
 99100  2  0  0  0  0
 99101  1  0  0  0  0
101102  1  0  0  0  0
102103  1  0  0  0  0
 20103  1  0  0  0  0
103104  2  0  0  0  0
101105  1  6  0  0  0
105106  2  0  0  0  0
106107  1  0  0  0  0
107108  2  0  0  0  0
108109  1  0  0  0  0
108110  1  0  0  0  0
110111  2  0  0  0  0
105111  1  0  0  0  0
 89112  1  6  0  0  0
112113  1  0  0  0  0
112114  1  1  0  0  0
 85115  1  1  0  0  0
115116  2  0  0  0  0
116117  1  0  0  0  0
117118  2  0  0  0  0
118119  1  0  0  0  0
118120  1  0  0  0  0
120121  2  0  0  0  0
115121  1  0  0  0  0
 81122  1  6  0  0  0
122123  2  0  0  0  0
123124  1  0  0  0  0
124125  2  0  0  0  0
125126  1  0  0  0  0
125127  1  0  0  0  0
127128  2  0  0  0  0
122128  1  0  0  0  0
 77129  1  6  0  0  0
129130  1  0  0  0  0
129131  1  1  0  0  0
 54132  1  6  0  0  0
132133  2  0  0  0  0
133134  1  0  0  0  0
134135  2  0  0  0  0
135136  1  0  0  0  0
137136  1  1  0  0  0
137138  1  0  0  0  0
138139  1  0  0  0  0
139140  1  1  0  0  0
140141  1  0  0  0  0
139142  1  0  0  0  0
142143  1  6  0  0  0
142144  1  0  0  0  0
144145  1  1  0  0  0
144146  1  0  0  0  0
137146  1  0  0  0  0
146147  1  1  0  0  0
148147  1  6  0  0  0
148149  1  0  0  0  0
149150  1  0  0  0  0
150151  1  1  0  0  0
151152  1  0  0  0  0
150153  1  0  0  0  0
153154  1  6  0  0  0
153155  1  0  0  0  0
155156  1  1  0  0  0
155157  1  0  0  0  0
148157  1  0  0  0  0
157158  1  1  0  0  0
135159  1  0  0  0  0
159160  2  0  0  0  0
132160  1  0  0  0  0
 50161  1  6  0  0  0
161162  1  0  0  0  0
161163  1  1  0  0  0
 46164  1  6  0  0  0
164165  2  0  0  0  0
165166  1  0  0  0  0
166167  2  0  0  0  0
167168  1  0  0  0  0
167169  1  0  0  0  0
169170  2  0  0  0  0
164170  1  0  0  0  0
 25171  1  1  0  0  0
171172  2  0  0  0  0
172173  1  0  0  0  0
173174  1  0  0  0  0
173175  2  0  0  0  0
175176  1  0  0  0  0
175177  1  0  0  0  0
177178  2  0  0  0  0
171178  1  0  0  0  0
 21179  1  6  0  0  0
179180  1  0  0  0  0
179181  2  0  0  0  0
M  END
> <DATABASE_ID>
DB04952

> <DATABASE_NAME>
drugbank

> <SMILES>
NCCC[C@H]1NC(=O)[C@@H](CC2=CC=CC=C2)NC(=O)[C@H]([C@@H](O)C)NC(=O)[C@H](NC(=O)[C@H](NC(=O)[C@@H]([C@@H](C)O)NC(=O)[C@@H](CCCN)NC(=O)[C@H](NC(=O)[C@@H](NC(=O)[C@@H](CC(N)=O)NC(=O)\C=C/C=C\CC(C)C)[C@@H](OC(=O)[C@H](NC(=O)[C@H](C)NC(=O)[C@H](CC(C)C)NC(=O)CNC(=O)[C@@H](NC(=O)[C@@H]([C@@H](C)O)NC(=O)[C@@H](NC1=O)C1=CC=C(C=C1)O[C@@H]1O[C@H](CO)[C@@H](O)[C@H](O)[C@@H]1O[C@H]1O[C@H](CO)[C@@H](O)[C@H](O)[C@@H]1O)C1=CC=C(O)C=C1)C1=CC(Cl)=C(O)C=C1)C(N)=O)C1=CC=C(O)C=C1)C1=CC=C(O)C=C1)C1=CC=C(O)C=C1

> <INCHI_IDENTIFIER>
InChI=1S/C119H154ClN21O40/c1-54(2)17-11-9-14-22-82(153)127-77(50-81(123)152)107(166)141-93-99(101(124)160)180-117(176)92(66-33-44-78(151)72(120)49-66)140-102(161)56(5)126-105(164)75(47-55(3)4)128-83(154)51-125-108(167)87(61-23-34-67(147)35-24-61)136-111(170)86(59(8)146)134-113(172)89(65-31-42-71(43-32-65)177-119-100(97(158)95(156)80(53-143)179-119)181-118-98(159)96(157)94(155)79(52-142)178-118)135-104(163)73(20-15-45-121)129-106(165)76(48-60-18-12-10-13-19-60)131-109(168)84(57(6)144)133-114(173)90(63-27-38-69(149)39-28-63)138-115(174)91(64-29-40-70(150)41-30-64)137-110(169)85(58(7)145)132-103(162)74(21-16-46-122)130-112(171)88(139-116(93)175)62-25-36-68(148)37-26-62/h9-14,18-19,22-44,49,54-59,73-77,79-80,84-100,118-119,142-151,155-159H,15-17,20-21,45-48,50-53,121-122H2,1-8H3,(H2,123,152)(H2,124,160)(H,125,167)(H,126,164)(H,127,153)(H,128,154)(H,129,165)(H,130,171)(H,131,168)(H,132,162)(H,133,173)(H,134,172)(H,135,163)(H,136,170)(H,137,169)(H,138,174)(H,139,175)(H,140,161)(H,141,166)/b11-9-,22-14-/t56-,57-,58+,59+,73+,74+,75-,76+,77+,79+,80+,84-,85+,86+,87-,88+,89-,90+,91+,92+,93-,94+,95+,96-,97-,98-,99+,100-,118+,119+/m0/s1

> <INCHI_KEY>
KGZHFKDNSAEOJX-GVRPVQITSA-N

> <FORMULA>
C119H154ClN21O40

> <MOLECULAR_WEIGHT>
2554.066

> <EXACT_MASS>
2552.03504662

> <JCHEM_ACCEPTOR_COUNT>
41

> <JCHEM_ATOM_COUNT>
335

> <JCHEM_AVERAGE_NEUTRAL_MICROSPECIES_CHARGE>
1.8497855778388037

> <JCHEM_AVERAGE_POLARIZABILITY>
255.29446620668014

> <JCHEM_BIOAVAILABILITY>
0

> <JCHEM_DONOR_COUNT>
36

> <JCHEM_FORMAL_CHARGE>
0

> <JCHEM_GHOSE_FILTER>
0

> <JCHEM_IUPAC>
(2R)-N-[(3R,6S,9S,15S,18R,21S,24R,27R,30S,33R,36R,39R,42R,45R,48S,49R)-24,42-bis(3-aminopropyl)-27-benzyl-49-carbamoyl-3-(3-chloro-4-hydroxyphenyl)-21-(4-{[(2S,3S,4S,5S,6R)-4,5-dihydroxy-6-(hydroxymethyl)-3-{[(2R,3S,4S,5S,6R)-3,4,5-trihydroxy-6-(hydroxymethyl)oxan-2-yl]oxy}oxan-2-yl]oxy}phenyl)-18,39-bis[(1R)-1-hydroxyethyl]-30-[(1S)-1-hydroxyethyl]-15,33,36,45-tetrakis(4-hydroxyphenyl)-6-methyl-9-(2-methylpropyl)-2,5,8,11,14,17,20,23,26,29,32,35,38,41,44,47-hexadecaoxo-1-oxa-4,7,10,13,16,19,22,25,28,31,34,37,40,43,46-pentadecaazacyclononatetracontan-48-yl]-2-[(2Z,4Z)-7-methylocta-2,4-dienamido]butanediamide

> <ALOGPS_LOGP>
1.70

> <JCHEM_LOGP>
-8.949877101596844

> <ALOGPS_LOGS>
-4.71

> <JCHEM_MDDR_LIKE_RULE>
1

> <JCHEM_NEUTRAL_CHARGE>
2

> <JCHEM_NUMBER_OF_RINGS>
10

> <JCHEM_PHYSIOLOGICAL_CHARGE>
2

> <JCHEM_PKA>
8.77103512203832

> <JCHEM_PKA_STRONGEST_ACIDIC>
7.853495148800401

> <JCHEM_PKA_STRONGEST_BASIC>
10.291933074773976

> <JCHEM_POLAR_SURFACE_AREA>
999.5900000000001

> <JCHEM_REFRACTIVITY>
632.1916000000007

> <JCHEM_ROTATABLE_BOND_COUNT>
35

> <JCHEM_RULE_OF_FIVE>
0

> <ALOGPS_SOLUBILITY>
5.03e-02 g/l

> <JCHEM_TRADITIONAL_IUPAC>
tetrahydrofolic acid

> <JCHEM_VEBER_RULE>
0

> <DRUGBANK_ID>
DB04952

> <DRUG_GROUPS>
investigational

> <GENERIC_NAME>
Ramoplanin

> <SYNONYMS>
Ramoplanin

$$$$
