
  Mrv0541 05041404002D          

 23 25  0  0  1  0            999 V2000
    1.7798    3.9841    0.0000 C   0  0  0  0  0  0  0  0  0  0  0  0
    3.9934    0.8250    0.0000 C   0  0  0  0  0  0  0  0  0  0  0  0
    1.5249    3.1994    0.0000 C   0  0  2  0  0  0  0  0  0  0  0  0
    2.5645    0.8250    0.0000 C   0  0  0  0  0  0  0  0  0  0  0  0
    1.7798    1.0799    0.0000 C   0  0  0  0  0  0  0  0  0  0  0  0
    2.5645    0.0000    0.0000 C   0  0  0  0  0  0  0  0  0  0  0  0
    0.7403    2.9445    0.0000 C   0  0  2  0  0  0  0  0  0  0  0  0
    0.7403    2.1195    0.0000 C   0  0  2  0  0  0  0  0  0  0  0  0
    1.5249    1.8646    0.0000 C   0  0  1  0  0  0  0  0  0  0  0  0
    3.2789   -0.4125    0.0000 C   0  0  0  0  0  0  0  0  0  0  0  0
    3.2789    1.2375    0.0000 N   0  0  0  0  0  0  0  0  0  0  0  0
    3.9934    0.0000    0.0000 N   0  0  0  0  0  0  0  0  0  0  0  0
    1.2949    0.4125    0.0000 N   0  0  0  0  0  0  0  0  0  0  0  0
    1.7798   -0.2549    0.0000 N   0  0  0  0  0  0  0  0  0  0  0  0
    1.2278    4.5972    0.0000 O   0  0  0  0  0  0  0  0  0  0  0  0
    0.0728    3.4294    0.0000 O   0  0  0  0  0  0  0  0  0  0  0  0
    0.0728    1.6346    0.0000 O   0  0  0  0  0  0  0  0  0  0  0  0
    3.2789   -1.2375    0.0000 O   0  0  0  0  0  0  0  0  0  0  0  0
    2.0098    2.5320    0.0000 O   0  0  0  0  0  0  0  0  0  0  0  0
    0.7772    3.5481    0.0000 H   0  0  0  0  0  0  0  0  0  0  0  0
    0.5829    3.7543    0.0000 H   0  0  0  0  0  0  0  0  0  0  0  0
    0.0052    2.4940    0.0000 H   0  0  0  0  0  0  0  0  0  0  0  0
    0.9415    1.2812    0.0000 H   0  0  0  0  0  0  0  0  0  0  0  0
  3  1  1  1  0  0  0
  5  4  2  0  0  0  0
  6  4  1  0  0  0  0
  7  3  1  0  0  0  0
  8  7  1  0  0  0  0
  9  5  1  1  0  0  0
  9  8  1  0  0  0  0
 10  6  1  0  0  0  0
 11  2  2  0  0  0  0
 11  4  1  0  0  0  0
 12  2  1  0  0  0  0
 12 10  1  0  0  0  0
 13  5  1  0  0  0  0
 14  6  2  0  0  0  0
 14 13  1  0  0  0  0
 15  1  1  0  0  0  0
  7 16  1  6  0  0  0
  8 17  1  6  0  0  0
 18 10  2  0  0  0  0
 19  3  1  0  0  0  0
 19  9  1  0  0  0  0
  3 20  1  6  0  0  0
  7 21  1  1  0  0  0
  8 22  1  1  0  0  0
  9 23  1  6  0  0  0
M  END
> <DATABASE_ID>
DB04198

> <DATABASE_NAME>
drugbank

> <SMILES>
[H][C@]1(CO)O[C@@]([H])(C2=C3N=CNC(=O)C3=NN2)[C@]([H])(O)[C@]1([H])O

> <INCHI_IDENTIFIER>
InChI=1S/C10H12N4O5/c15-1-3-7(16)8(17)9(19-3)5-4-6(14-13-5)10(18)12-2-11-4/h2-3,7-9,15-17H,1H2,(H,13,14)(H,11,12,18)/t3-,7-,8-,9+/m1/s1

> <INCHI_KEY>
MTCJZZBQNCXKAP-KSYZLYKTSA-N

> <FORMULA>
C10H12N4O5

> <MOLECULAR_WEIGHT>
268.2261

> <EXACT_MASS>
268.080769514

> <JCHEM_ACCEPTOR_COUNT>
7

> <JCHEM_ATOM_COUNT>
31

> <JCHEM_AVERAGE_NEUTRAL_MICROSPECIES_CHARGE>
-0.027709185693232972

> <JCHEM_AVERAGE_POLARIZABILITY>
24.57538775434802

> <JCHEM_BIOAVAILABILITY>
1

> <JCHEM_DONOR_COUNT>
5

> <JCHEM_FORMAL_CHARGE>
0

> <JCHEM_GHOSE_FILTER>
0

> <JCHEM_IUPAC>
3-[(2S,3R,4S,5R)-3,4-dihydroxy-5-(hydroxymethyl)oxolan-2-yl]-2H,6H,7H-pyrazolo[4,3-d]pyrimidin-7-one

> <ALOGPS_LOGP>
-1.88

> <JCHEM_LOGP>
-2.792208728333333

> <ALOGPS_LOGS>
-1.43

> <JCHEM_MDDR_LIKE_RULE>
0

> <JCHEM_NEUTRAL_CHARGE>
0

> <JCHEM_NUMBER_OF_RINGS>
3

> <JCHEM_PHYSIOLOGICAL_CHARGE>
0

> <JCHEM_PKA>
12.73837322209719

> <JCHEM_PKA_STRONGEST_ACIDIC>
8.62758751172244

> <JCHEM_PKA_STRONGEST_BASIC>
-2.314229720679212

> <JCHEM_POLAR_SURFACE_AREA>
140.06

> <JCHEM_REFRACTIVITY>
63.248099999999994

> <JCHEM_ROTATABLE_BOND_COUNT>
2

> <JCHEM_RULE_OF_FIVE>
1

> <ALOGPS_SOLUBILITY>
1.00e+01 g/l

> <JCHEM_TRADITIONAL_IUPAC>
tetrahydrofolic acid

> <JCHEM_VEBER_RULE>
0

> <DRUGBANK_ID>
DB04198

> <SECONDARY_ACCESSION_NUMBERS>
EXPT01452

> <DRUG_GROUPS>
experimental

> <GENERIC_NAME>
Formycin B

$$$$
