
  Mrv0541 05041410512D          

 14 13  0  0  1  0            999 V2000
    4.0954    0.7145    0.0000 C   0  0  0  0  0  0  0  0  0  0  0  0
    3.3809    1.1270    0.0000 C   0  0  0  0  0  0  0  0  0  0  0  0
    1.9520    1.1270    0.0000 C   0  0  0  0  0  0  0  0  0  0  0  0
    1.2375    0.7145    0.0000 C   0  0  1  0  0  0  0  0  0  0  0  0
    0.5230    1.1270    0.0000 C   0  0  0  0  0  0  0  0  0  0  0  0
    4.8099    1.1270    0.0000 B   0  5  0  0  0  0  0  0  0  0  0  0
    1.2375   -0.1105    0.0000 N   0  0  0  0  0  0  0  0  0  0  0  0
   -0.1914    0.7145    0.0000 O   0  0  0  0  0  0  0  0  0  0  0  0
    0.5230    1.9520    0.0000 O   0  0  0  0  0  0  0  0  0  0  0  0
    5.5243    1.5395    0.0000 O   0  0  0  0  0  0  0  0  0  0  0  0
    5.2224    0.4125    0.0000 O   0  0  0  0  0  0  0  0  0  0  0  0
    4.3974    1.8414    0.0000 O   0  0  0  0  0  0  0  0  0  0  0  0
    2.6664    0.7145    0.0000 S   0  0  0  0  0  0  0  0  0  0  0  0
    1.2375    1.5395    0.0000 H   0  0  0  0  0  0  0  0  0  0  0  0
  2  1  1  0  0  0  0
  4  3  1  0  0  0  0
  5  4  1  0  0  0  0
  6  1  1  0  0  0  0
  4  7  1  1  0  0  0
  8  5  2  0  0  0  0
  9  5  1  0  0  0  0
 10  6  1  0  0  0  0
 11  6  1  0  0  0  0
 12  6  1  0  0  0  0
 13  2  1  0  0  0  0
 13  3  1  0  0  0  0
  4 14  1  1  0  0  0
M  CHG  1   6  -1
M  END
> <DATABASE_ID>
DB03731

> <DATABASE_NAME>
drugbank

> <SMILES>
[H][C@](N)(CSCC[B-](O)(O)O)C(O)=O

> <INCHI_IDENTIFIER>
InChI=1S/C5H13BNO5S/c7-4(5(8)9)3-13-2-1-6(10,11)12/h4,10-12H,1-3,7H2,(H,8,9)/q-1/t4-/m0/s1

> <INCHI_KEY>
XLVRIIJULVQAMP-BYPYZUCNSA-N

> <FORMULA>
C5H13BNO5S

> <MOLECULAR_WEIGHT>
210.036

> <EXACT_MASS>
210.060748687

> <JCHEM_ACCEPTOR_COUNT>
6

> <JCHEM_ATOM_COUNT>
26

> <JCHEM_AVERAGE_NEUTRAL_MICROSPECIES_CHARGE>
-0.007104489736131519

> <JCHEM_AVERAGE_POLARIZABILITY>
20.53067039933636

> <JCHEM_BIOAVAILABILITY>
1

> <JCHEM_DONOR_COUNT>
5

> <JCHEM_FORMAL_CHARGE>
-1

> <JCHEM_GHOSE_FILTER>
0

> <JCHEM_IUPAC>
(2-{[(2R)-2-amino-2-carboxyethyl]sulfanyl}ethyl)trihydroxyboranuide

> <ALOGPS_LOGP>
-3.01

> <JCHEM_LOGP>
-5.443387433499351

> <ALOGPS_LOGS>
-2.20

> <JCHEM_MDDR_LIKE_RULE>
0

> <JCHEM_NEUTRAL_CHARGE>
-1

> <JCHEM_NUMBER_OF_RINGS>
0

> <JCHEM_PHYSIOLOGICAL_CHARGE>
-1

> <JCHEM_PKA>
16.31884268127425

> <JCHEM_PKA_STRONGEST_ACIDIC>
1.7847427028816232

> <JCHEM_PKA_STRONGEST_BASIC>
9.144997256490566

> <JCHEM_POLAR_SURFACE_AREA>
124.01000000000002

> <JCHEM_REFRACTIVITY>
44.097699999999996

> <JCHEM_ROTATABLE_BOND_COUNT>
6

> <JCHEM_RULE_OF_FIVE>
1

> <ALOGPS_SOLUBILITY>
1.46e+00 g/l

> <JCHEM_TRADITIONAL_IUPAC>
tetrahydrofolic acid

> <JCHEM_VEBER_RULE>
0

> <DRUGBANK_ID>
DB03731

> <SECONDARY_ACCESSION_NUMBERS>
EXPT02831

> <DRUG_GROUPS>
experimental

> <GENERIC_NAME>
S-2-(Boronoethyl)-L-Cysteine

$$$$
