
  Mrv0541 05041408122D          

 12 12  0  0  1  0            999 V2000
   -1.4974    0.3323    0.0000 C   0  0  0  0  0  0  0  0  0  0  0  0
    0.9803   -0.1553    0.0000 C   0  0  0  0  0  0  0  0  0  0  0  0
    1.2352    0.6294    0.0000 C   0  0  0  0  0  0  0  0  0  0  0  0
    0.1553   -0.1553    0.0000 C   0  0  0  0  0  0  0  0  0  0  0  0
   -0.8843    0.8843    0.0000 C   0  0  0  0  0  0  0  0  0  0  0  0
    0.5678    1.1143    0.0000 C   0  0  1  0  0  0  0  0  0  0  0  0
    0.5678    1.9393    0.0000 C   0  0  0  0  0  0  0  0  0  0  0  0
   -0.0997    0.6294    0.0000 N   0  0  0  0  0  0  0  0  0  0  0  0
   -1.0558    1.6913    0.0000 O   0  0  0  0  0  0  0  0  0  0  0  0
   -0.1467    2.3518    0.0000 O   0  0  0  0  0  0  0  0  0  0  0  0
    1.2822    2.3518    0.0000 O   0  0  0  0  0  0  0  0  0  0  0  0
    1.3028    1.4888    0.0000 H   0  0  0  0  0  0  0  0  0  0  0  0
  3  2  1  0  0  0  0
  4  2  1  0  0  0  0
  5  1  1  0  0  0  0
  6  3  1  0  0  0  0
  6  7  1  6  0  0  0
  8  4  1  0  0  0  0
  8  5  1  0  0  0  0
  8  6  1  0  0  0  0
  9  5  2  0  0  0  0
 10  7  2  0  0  0  0
 11  7  1  0  0  0  0
  6 12  1  1  0  0  0
M  END
> <DATABASE_ID>
DB03360

> <DATABASE_NAME>
drugbank

> <SMILES>
[H][C@]1(CCCN1C(C)=O)C(O)=O

> <INCHI_IDENTIFIER>
InChI=1S/C7H11NO3/c1-5(9)8-4-2-3-6(8)7(10)11/h6H,2-4H2,1H3,(H,10,11)/t6-/m0/s1

> <INCHI_KEY>
GNMSLDIYJOSUSW-LURJTMIESA-N

> <FORMULA>
C7H11NO3

> <MOLECULAR_WEIGHT>
157.1671

> <EXACT_MASS>
157.073893223

> <JCHEM_ACCEPTOR_COUNT>
3

> <JCHEM_ATOM_COUNT>
22

> <JCHEM_AVERAGE_NEUTRAL_MICROSPECIES_CHARGE>
-0.9992180461422795

> <JCHEM_AVERAGE_POLARIZABILITY>
15.470980940620365

> <JCHEM_BIOAVAILABILITY>
1

> <JCHEM_DONOR_COUNT>
1

> <JCHEM_FORMAL_CHARGE>
0

> <JCHEM_GHOSE_FILTER>
0

> <JCHEM_IUPAC>
(2S)-1-acetylpyrrolidine-2-carboxylic acid

> <ALOGPS_LOGP>
-0.51

> <JCHEM_LOGP>
-0.48719913400000003

> <ALOGPS_LOGS>
0.52

> <JCHEM_MDDR_LIKE_RULE>
0

> <JCHEM_NEUTRAL_CHARGE>
-1

> <JCHEM_NUMBER_OF_RINGS>
1

> <JCHEM_PHYSIOLOGICAL_CHARGE>
-1

> <JCHEM_PKA_STRONGEST_ACIDIC>
3.8935209219552904

> <JCHEM_PKA_STRONGEST_BASIC>
-1.7772266574923743

> <JCHEM_POLAR_SURFACE_AREA>
57.61

> <JCHEM_REFRACTIVITY>
37.6302

> <JCHEM_ROTATABLE_BOND_COUNT>
1

> <JCHEM_RULE_OF_FIVE>
1

> <ALOGPS_SOLUBILITY>
5.17e+02 g/l

> <JCHEM_TRADITIONAL_IUPAC>
tetrahydrofolic acid

> <JCHEM_VEBER_RULE>
0

> <DRUGBANK_ID>
DB03360

> <SECONDARY_ACCESSION_NUMBERS>
EXPT02279

> <DRUG_GROUPS>
experimental

> <GENERIC_NAME>
N-Acetylproline

> <SYNONYMS>
(2S)-1-acetylpyrrolidine-2-carboxylic acid; (S)-(-)-N-acetylproline; (S)-1-acetylpyrrolidine-2-carboxylic acid; (S)-N-acetylproline; 1-acetylproline; Acetyl proline; N-acetyl-L-proline

$$$$
