
  Mrv0541 02231215582D          

  9  9  0  0  0  0            999 V2000
    2.1913    1.6913    0.0000 O   0  0  0  0  0  0  0  0  0  0  0  0
    2.0198    0.8843    0.0000 C   0  0  0  0  0  0  0  0  0  0  0  0
    2.6329    0.3323    0.0000 O   0  0  0  0  0  0  0  0  0  0  0  0
    1.2352    0.6294    0.0000 C   0  0  0  0  0  0  0  0  0  0  0  0
    0.9803   -0.1553    0.0000 C   0  0  0  0  0  0  0  0  0  0  0  0
    0.1553   -0.1553    0.0000 O   0  0  0  0  0  0  0  0  0  0  0  0
   -0.0997    0.6294    0.0000 N   0  0  0  0  0  0  0  0  0  0  0  0
    0.5678    1.1143    0.0000 C   0  0  0  0  0  0  0  0  0  0  0  0
    0.5678    1.9393    0.0000 O   0  0  0  0  0  0  0  0  0  0  0  0
  1  2  1  0  0  0  0
  2  3  2  0  0  0  0
  2  4  1  0  0  0  0
  4  5  2  0  0  0  0
  5  6  1  0  0  0  0
  6  7  1  0  0  0  0
  7  8  2  0  0  0  0
  4  8  1  0  0  0  0
  8  9  1  0  0  0  0
M  END
> <DATABASE_ID>
DB02111

> <DATABASE_NAME>
drugbank

> <SMILES>
OC(=O)C1=CON=C1O

> <INCHI_IDENTIFIER>
InChI=1S/C4H3NO4/c6-3-2(4(7)8)1-9-5-3/h1H,(H,5,6)(H,7,8)

> <INCHI_KEY>
JLPHBZYAQYOJND-UHFFFAOYSA-N

> <FORMULA>
C4H3NO4

> <MOLECULAR_WEIGHT>
129.0709

> <EXACT_MASS>
129.006207589

> <JCHEM_ACCEPTOR_COUNT>
4

> <JCHEM_ATOM_COUNT>
12

> <JCHEM_AVERAGE_NEUTRAL_MICROSPECIES_CHARGE>
-1.9951860454924544

> <JCHEM_AVERAGE_POLARIZABILITY>
9.82224222455232

> <JCHEM_BIOAVAILABILITY>
1

> <JCHEM_DONOR_COUNT>
2

> <JCHEM_FORMAL_CHARGE>
0

> <JCHEM_GHOSE_FILTER>
0

> <JCHEM_IUPAC>
3-hydroxy-1,2-oxazole-4-carboxylic acid

> <ALOGPS_LOGP>
0.60

> <JCHEM_LOGP>
0.936266332

> <ALOGPS_LOGS>
-0.47

> <JCHEM_MDDR_LIKE_RULE>
0

> <JCHEM_NEUTRAL_CHARGE>
-2

> <JCHEM_NUMBER_OF_RINGS>
1

> <JCHEM_PHYSIOLOGICAL_CHARGE>
-2

> <JCHEM_PKA>
4.624363371454504

> <JCHEM_PKA_STRONGEST_ACIDIC>
3.816051006161923

> <JCHEM_PKA_STRONGEST_BASIC>
-2.7953871844396954

> <JCHEM_POLAR_SURFACE_AREA>
83.56

> <JCHEM_REFRACTIVITY>
27.050599999999996

> <JCHEM_ROTATABLE_BOND_COUNT>
1

> <JCHEM_RULE_OF_FIVE>
1

> <ALOGPS_SOLUBILITY>
4.39e+01 g/l

> <JCHEM_TRADITIONAL_IUPAC>
biotin

> <JCHEM_VEBER_RULE>
0

> <DRUGBANK_ID>
DB02111

> <SECONDARY_ACCESSION_NUMBERS>
EXPT01545

> <DRUG_GROUPS>
experimental

> <GENERIC_NAME>
3-hydroxyisoxazole-4-carboxylic acid

$$$$
