
  Mrv0541 09041214262D          

 49 51  0  0  0  0            999 V2000
    0.7145   -1.2375    0.0000 C   0  0  0  0  0  0  0  0  0  0  0  0
    2.1434   -3.7125    0.0000 C   0  0  0  0  0  0  0  0  0  0  0  0
    0.7145   -2.8875    0.0000 C   0  0  0  0  0  0  0  0  0  0  0  0
    0.0000   -1.6500    0.0000 C   0  0  2  0  0  0  0  0  0  0  0  0
    2.8579   -4.1250    0.0000 C   0  0  2  0  0  0  0  0  0  0  0  0
    0.7145   -3.7125    0.0000 C   0  0  2  0  0  0  0  0  0  0  0  0
   -0.7145   -1.2375    0.0000 C   0  0  2  0  0  0  0  0  0  0  0  0
   -1.4289   -1.6500    0.0000 C   0  0  1  0  0  0  0  0  0  0  0  0
    3.5724   -5.3625    0.0000 C   0  0  2  0  0  0  0  0  0  0  0  0
    0.0000   -4.9500    0.0000 C   0  0  2  0  0  0  0  0  0  0  0  0
    4.2868   -4.9500    0.0000 C   0  0  2  0  0  0  0  0  0  0  0  0
   -1.4289   -2.4750    0.0000 C   0  0  2  0  0  0  0  0  0  0  0  0
    0.7145   -5.3625    0.0000 C   0  0  2  0  0  0  0  0  0  0  0  0
    2.8579   -4.9500    0.0000 C   0  0  2  0  0  0  0  0  0  0  0  0
    0.0000   -4.1250    0.0000 C   0  0  2  0  0  0  0  0  0  0  0  0
    4.2868   -4.1250    0.0000 C   0  0  1  0  0  0  0  0  0  0  0  0
   -0.7145   -2.8875    0.0000 C   0  0  2  0  0  0  0  0  0  0  0  0
    1.4289   -4.9500    0.0000 C   0  0  2  0  0  0  0  0  0  0  0  0
    0.7145   -0.4125    0.0000 O   0  0  0  0  0  0  0  0  0  0  0  0
    2.1434   -2.8875    0.0000 O   0  0  0  0  0  0  0  0  0  0  0  0
    1.4289   -2.4750    0.0000 O   0  0  0  0  0  0  0  0  0  0  0  0
   -0.7145   -0.4125    0.0000 O   0  0  0  0  0  0  0  0  0  0  0  0
   -2.1434   -1.2375    0.0000 O   0  0  0  0  0  0  0  0  0  0  0  0
    3.5724   -6.1875    0.0000 O   0  0  0  0  0  0  0  0  0  0  0  0
   -0.7145   -5.3625    0.0000 O   0  0  0  0  0  0  0  0  0  0  0  0
    5.0013   -5.3625    0.0000 O   0  0  0  0  0  0  0  0  0  0  0  0
   -2.1434   -2.8875    0.0000 O   0  0  0  0  0  0  0  0  0  0  0  0
    0.7145   -6.1875    0.0000 O   0  0  0  0  0  0  0  0  0  0  0  0
    5.0013   -3.7125    0.0000 O   0  0  0  0  0  0  0  0  0  0  0  0
    3.5724   -3.7125    0.0000 O   0  0  0  0  0  0  0  0  0  0  0  0
    0.0000   -2.4750    0.0000 O   0  0  0  0  0  0  0  0  0  0  0  0
    1.4289   -4.1250    0.0000 O   0  0  0  0  0  0  0  0  0  0  0  0
    2.1434   -5.3625    0.0000 O   0  0  0  0  0  0  0  0  0  0  0  0
   -0.7145   -3.7125    0.0000 O   0  0  0  0  0  0  0  0  0  0  0  0
   -0.2822   -0.8748    0.0000 H   0  0  0  0  0  0  0  0  0  0  0  0
    2.3276   -4.7570    0.0000 H   0  0  0  0  0  0  0  0  0  0  0  0
   -0.0980   -3.5692    0.0000 H   0  0  0  0  0  0  0  0  0  0  0  0
   -0.1842   -0.6055    0.0000 H   0  0  0  0  0  0  0  0  0  0  0  0
   -1.4289   -0.8250    0.0000 H   0  0  0  0  0  0  0  0  0  0  0  0
    4.3848   -5.5058    0.0000 H   0  0  0  0  0  0  0  0  0  0  0  0
    0.2822   -5.7252    0.0000 H   0  0  0  0  0  0  0  0  0  0  0  0
    4.5690   -5.7252    0.0000 H   0  0  0  0  0  0  0  0  0  0  0  0
   -2.1434   -2.0625    0.0000 H   0  0  0  0  0  0  0  0  0  0  0  0
    0.1842   -5.9945    0.0000 H   0  0  0  0  0  0  0  0  0  0  0  0
    2.0454   -4.8067    0.0000 H   0  0  0  0  0  0  0  0  0  0  0  0
   -0.2822   -3.3498    0.0000 H   0  0  0  0  0  0  0  0  0  0  0  0
    5.0013   -4.5375    0.0000 H   0  0  0  0  0  0  0  0  0  0  0  0
   -1.4289   -3.3000    0.0000 H   0  0  0  0  0  0  0  0  0  0  0  0
    1.4289   -5.7750    0.0000 H   0  0  0  0  0  0  0  0  0  0  0  0
  4  1  1  1  0  0  0
  5  2  1  1  0  0  0
  6  3  1  1  0  0  0
  7  4  1  0  0  0  0
  8  7  1  0  0  0  0
 11  9  1  0  0  0  0
 12  8  1  0  0  0  0
 13 10  1  0  0  0  0
 14  5  1  0  0  0  0
 14  9  1  0  0  0  0
 15  6  1  0  0  0  0
 15 10  1  0  0  0  0
 16 11  1  0  0  0  0
 17 12  1  0  0  0  0
 18 13  1  0  0  0  0
 19  1  1  0  0  0  0
 20  2  1  0  0  0  0
 21  3  1  0  0  0  0
  7 22  1  6  0  0  0
  8 23  1  1  0  0  0
  9 24  1  1  0  0  0
 10 25  1  1  0  0  0
 11 26  1  6  0  0  0
 12 27  1  6  0  0  0
 13 28  1  6  0  0  0
 16 29  1  6  0  0  0
 30  5  1  0  0  0  0
 30 16  1  0  0  0  0
 31  4  1  0  0  0  0
 31 17  1  0  0  0  0
 32  6  1  0  0  0  0
 32 18  1  0  0  0  0
 14 33  1  6  0  0  0
 18 33  1  6  0  0  0
 15 34  1  6  0  0  0
 17 34  1  6  0  0  0
  4 35  1  6  0  0  0
  5 36  1  6  0  0  0
  6 37  1  6  0  0  0
  7 38  1  1  0  0  0
  8 39  1  6  0  0  0
  9 40  1  6  0  0  0
 10 41  1  6  0  0  0
 11 42  1  1  0  0  0
 12 43  1  1  0  0  0
 13 44  1  1  0  0  0
 14 45  1  1  0  0  0
 15 46  1  1  0  0  0
 16 47  1  1  0  0  0
 17 48  1  1  0  0  0
 18 49  1  1  0  0  0
M  END
> <DATABASE_ID>
DB03277

> <DATABASE_NAME>
drugbank

> <SMILES>
[H][C@]1(O)O[C@]([H])(CO)[C@@]([H])(O[C@@]2([H])O[C@]([H])(CO)[C@@]([H])(O[C@@]3([H])O[C@]([H])(CO)[C@@]([H])(O)[C@]([H])(O)[C@@]3([H])O)[C@]([H])(O)[C@@]2([H])O)[C@]([H])(O)[C@@]1([H])O

> <INCHI_IDENTIFIER>
InChI=1S/C18H32O16/c19-1-4-7(22)8(23)12(27)17(31-4)34-15-6(3-21)32-18(13(28)10(15)25)33-14-5(2-20)30-16(29)11(26)9(14)24/h4-29H,1-3H2/t4-,5-,6-,7-,8+,9-,10-,11-,12-,13-,14-,15-,16+,17-,18-/m1/s1

> <INCHI_KEY>
FYGDTMLNYKFZSV-PXXRMHSHSA-N

> <FORMULA>
C18H32O16

> <MOLECULAR_WEIGHT>
504.4371

> <EXACT_MASS>
504.169034976

> <JCHEM_ACCEPTOR_COUNT>
16

> <JCHEM_ATOM_COUNT>
66

> <JCHEM_AVERAGE_NEUTRAL_MICROSPECIES_CHARGE>
-8.102550319180806e-05

> <JCHEM_AVERAGE_POLARIZABILITY>
46.574034827393156

> <JCHEM_BIOAVAILABILITY>
0

> <JCHEM_DONOR_COUNT>
11

> <JCHEM_FORMAL_CHARGE>
0

> <JCHEM_GHOSE_FILTER>
0

> <JCHEM_IUPAC>
(2R,3R,4S,5S,6R)-2-{[(2R,3S,4R,5R,6R)-4,5-dihydroxy-2-(hydroxymethyl)-6-{[(2R,3S,4R,5R,6S)-4,5,6-trihydroxy-2-(hydroxymethyl)oxan-3-yl]oxy}oxan-3-yl]oxy}-6-(hydroxymethyl)oxane-3,4,5-triol

> <ALOGPS_LOGP>
-2.74

> <JCHEM_LOGP>
-6.474210509333335

> <ALOGPS_LOGS>
0.04

> <JCHEM_MDDR_LIKE_RULE>
1

> <JCHEM_NEUTRAL_CHARGE>
0

> <JCHEM_NUMBER_OF_RINGS>
3

> <JCHEM_PHYSIOLOGICAL_CHARGE>
0

> <JCHEM_PKA>
11.96130612207531

> <JCHEM_PKA_STRONGEST_ACIDIC>
11.215222724145232

> <JCHEM_PKA_STRONGEST_BASIC>
-3.648377575201405

> <JCHEM_POLAR_SURFACE_AREA>
268.67999999999995

> <JCHEM_REFRACTIVITY>
100.75

> <JCHEM_ROTATABLE_BOND_COUNT>
7

> <JCHEM_RULE_OF_FIVE>
0

> <ALOGPS_SOLUBILITY>
5.54e+02 g/l

> <JCHEM_TRADITIONAL_IUPAC>
tetrahydrofolic acid

> <JCHEM_VEBER_RULE>
0

> <DRUGBANK_ID>
DB03277

> <SECONDARY_ACCESSION_NUMBERS>
EXPT02187

> <DRUG_GROUPS>
experimental

> <GENERIC_NAME>
alpha-maltotriose

> <SYNONYMS>
Î±-maltotriose

$$$$
