
  Mrv0541 02231215582D          

 15 15  0  0  1  0            999 V2000
    0.0000   -1.6500    0.0000 C   0  0  0  0  0  0  0  0  0  0  0  0
    0.7145   -1.2375    0.0000 N   0  3  2  0  0  0  0  0  0  0  0  0
    1.4289   -1.6500    0.0000 C   0  0  0  0  0  0  0  0  0  0  0  0
    1.4289   -2.4750    0.0000 C   0  0  0  0  0  0  0  0  0  0  0  0
    2.1434   -2.8875    0.0000 C   0  0  0  0  0  0  0  0  0  0  0  0
    2.1434   -3.7125    0.0000 C   0  0  0  0  0  0  0  0  0  0  0  0
    2.8579   -4.1250    0.0000 C   0  0  0  0  0  0  0  0  0  0  0  0
    1.4289   -4.1250    0.0000 C   0  0  0  0  0  0  0  0  0  0  0  0
    0.7145   -0.4125    0.0000 C   0  0  2  0  0  0  0  0  0  0  0  0
    0.0000    0.0000    0.0000 C   0  0  0  0  0  0  0  0  0  0  0  0
    0.0000    0.8250    0.0000 C   0  0  0  0  0  0  0  0  0  0  0  0
    0.7145    1.2375    0.0000 C   0  0  0  0  0  0  0  0  0  0  0  0
    0.7145    2.0625    0.0000 C   0  0  0  0  0  0  0  0  0  0  0  0
    1.4289    0.8250    0.0000 C   0  0  0  0  0  0  0  0  0  0  0  0
    1.4289    0.0000    0.0000 C   0  0  0  0  0  0  0  0  0  0  0  0
  2  1  1  1  0  0  0
  2  3  1  0  0  0  0
  3  4  1  0  0  0  0
  4  5  1  0  0  0  0
  5  6  2  0  0  0  0
  6  7  1  0  0  0  0
  6  8  1  0  0  0  0
  9  2  1  6  0  0  0
  9 10  1  0  0  0  0
 10 11  1  0  0  0  0
 11 12  1  0  0  0  0
 12 13  1  0  0  0  0
 12 14  2  0  0  0  0
 14 15  1  0  0  0  0
  9 15  1  0  0  0  0
M  CHG  1   2   1
M  END
> <DATABASE_ID>
DB02099

> <DATABASE_NAME>
drugbank

> <SMILES>
C[N@H+](CCC=C(C)C)[C@@H]1CCC(C)=CC1

> <INCHI_IDENTIFIER>
InChI=1S/C14H25N/c1-12(2)6-5-11-15(4)14-9-7-13(3)8-10-14/h6-7,14H,5,8-11H2,1-4H3/p+1/t14-/m0/s1

> <INCHI_KEY>
GGPFTSMJRHEOJG-AWEZNQCLSA-O

> <FORMULA>
C14H26N

> <MOLECULAR_WEIGHT>
208.3629

> <EXACT_MASS>
208.206524837

> <JCHEM_ACCEPTOR_COUNT>
0

> <JCHEM_ATOM_COUNT>
41

> <JCHEM_AVERAGE_NEUTRAL_MICROSPECIES_CHARGE>
0.9997580790520653

> <JCHEM_AVERAGE_POLARIZABILITY>
27.325174159285048

> <JCHEM_BIOAVAILABILITY>
1

> <JCHEM_DONOR_COUNT>
1

> <JCHEM_FORMAL_CHARGE>
1

> <JCHEM_GHOSE_FILTER>
1

> <JCHEM_IUPAC>
(R,1R)-N,4-dimethyl-N-(4-methylpent-3-en-1-yl)cyclohex-3-en-1-aminium

> <ALOGPS_LOGP>
0.38

> <JCHEM_LOGP>
3.5207869069999997

> <ALOGPS_LOGS>
-5.03

> <JCHEM_MDDR_LIKE_RULE>
0

> <JCHEM_NEUTRAL_CHARGE>
1

> <JCHEM_NUMBER_OF_RINGS>
1

> <JCHEM_PHYSIOLOGICAL_CHARGE>
1

> <JCHEM_PKA_STRONGEST_BASIC>
10.616221446807552

> <JCHEM_POLAR_SURFACE_AREA>
4.44

> <JCHEM_REFRACTIVITY>
81.291

> <JCHEM_ROTATABLE_BOND_COUNT>
4

> <JCHEM_RULE_OF_FIVE>
1

> <ALOGPS_SOLUBILITY>
2.28e-03 g/l

> <JCHEM_TRADITIONAL_IUPAC>
tetrahydrofolic acid

> <JCHEM_VEBER_RULE>
1

> <DRUGBANK_ID>
DB02099

> <SECONDARY_ACCESSION_NUMBERS>
EXPT02848

> <DRUG_GROUPS>
experimental

> <GENERIC_NAME>
S-azabisabolene

$$$$
