
  Mrv0541 02231217122D          

 11 10  0  0  1  0            999 V2000
    4.6184    2.6664    0.0000 N   0  0  0  0  0  0  0  0  0  0  0  0
    4.6184    1.8414    0.0000 C   0  0  1  0  0  0  0  0  0  0  0  0
    3.9039    1.4289    0.0000 C   0  0  0  0  0  0  0  0  0  0  0  0
    3.1895    1.8414    0.0000 C   0  0  0  0  0  0  0  0  0  0  0  0
    2.4750    1.4289    0.0000 S   0  0  0  0  0  0  0  0  0  0  0  0
    1.7605    1.8414    0.0000 C   0  0  0  0  0  0  0  0  0  0  0  0
    1.0461    1.4289    0.0000 F   0  0  0  0  0  0  0  0  0  0  0  0
    1.7605    2.6664    0.0000 F   0  0  0  0  0  0  0  0  0  0  0  0
    5.3329    1.4289    0.0000 C   0  0  0  0  0  0  0  0  0  0  0  0
    6.0474    1.8414    0.0000 O   0  0  0  0  0  0  0  0  0  0  0  0
    5.3329    0.6039    0.0000 O   0  0  0  0  0  0  0  0  0  0  0  0
  2  1  1  6  0  0  0
  2  3  1  0  0  0  0
  3  4  1  0  0  0  0
  4  5  1  0  0  0  0
  5  6  1  0  0  0  0
  6  7  1  0  0  0  0
  6  8  1  0  0  0  0
  2  9  1  0  0  0  0
  9 10  1  0  0  0  0
  9 11  2  0  0  0  0
M  END
> <DATABASE_ID>
DB03816

> <DATABASE_NAME>
drugbank

> <SMILES>
N[C@@H](CCSC(F)F)C(O)=O

> <INCHI_IDENTIFIER>
InChI=1S/C5H9F2NO2S/c6-5(7)11-2-1-3(8)4(9)10/h3,5H,1-2,8H2,(H,9,10)/t3-/m0/s1

> <INCHI_KEY>
YHBNXKYHZMAFED-VKHMYHEASA-N

> <FORMULA>
C5H9F2NO2S

> <MOLECULAR_WEIGHT>
185.192

> <EXACT_MASS>
185.032205637

> <JCHEM_ACCEPTOR_COUNT>
3

> <JCHEM_ATOM_COUNT>
20

> <JCHEM_AVERAGE_NEUTRAL_MICROSPECIES_CHARGE>
-0.0031273358091745695

> <JCHEM_AVERAGE_POLARIZABILITY>
15.767581550411487

> <JCHEM_BIOAVAILABILITY>
1

> <JCHEM_DONOR_COUNT>
2

> <JCHEM_FORMAL_CHARGE>
0

> <JCHEM_GHOSE_FILTER>
0

> <JCHEM_IUPAC>
(2S)-2-amino-4-[(difluoromethyl)sulfanyl]butanoic acid

> <ALOGPS_LOGP>
-2.05

> <JCHEM_LOGP>
-1.1302659762821645

> <ALOGPS_LOGS>
-0.93

> <JCHEM_MDDR_LIKE_RULE>
0

> <JCHEM_NEUTRAL_CHARGE>
0

> <JCHEM_NUMBER_OF_RINGS>
0

> <JCHEM_PHYSIOLOGICAL_CHARGE>
0

> <JCHEM_PKA_STRONGEST_ACIDIC>
1.9532956531596704

> <JCHEM_PKA_STRONGEST_BASIC>
9.502217094114352

> <JCHEM_POLAR_SURFACE_AREA>
63.32

> <JCHEM_REFRACTIVITY>
37.7638

> <JCHEM_ROTATABLE_BOND_COUNT>
5

> <JCHEM_RULE_OF_FIVE>
1

> <ALOGPS_SOLUBILITY>
2.16e+01 g/l

> <JCHEM_TRADITIONAL_IUPAC>
biotin

> <JCHEM_VEBER_RULE>
0

> <DRUGBANK_ID>
DB03816

> <SECONDARY_ACCESSION_NUMBERS>
EXPT00119

> <DRUG_GROUPS>
experimental

> <GENERIC_NAME>
Difluoromethionine

$$$$
