
  Mrv0541 05031422382D          

 79 83  0  0  1  0            999 V2000
   -0.7145   -0.4125    0.0000 C   0  0  0  0  0  0  0  0  0  0  0  0
   -1.4289    2.4750    0.0000 C   0  0  0  0  0  0  0  0  0  0  0  0
   -2.1434    3.7125    0.0000 C   0  0  0  0  0  0  0  0  0  0  0  0
    0.7145    8.6625    0.0000 C   0  0  0  0  0  0  0  0  0  0  0  0
   -5.0013   -1.2375    0.0000 C   0  0  0  0  0  0  0  0  0  0  0  0
    2.1434    4.5375    0.0000 C   0  0  0  0  0  0  0  0  0  0  0  0
   -1.4289   -0.0000    0.0000 C   0  0  2  0  0  0  0  0  0  0  0  0
   -1.4289    3.3000    0.0000 C   0  0  0  0  0  0  0  0  0  0  0  0
   -0.7145    2.0625    0.0000 C   0  0  1  0  0  0  0  0  0  0  0  0
    1.4289    8.2500    0.0000 C   0  0  2  0  0  0  0  0  0  0  0  0
   -4.2868   -1.6500    0.0000 C   0  0  2  0  0  0  0  0  0  0  0  0
    1.4289    4.9500    0.0000 C   0  0  2  0  0  0  0  0  0  0  0  0
   -1.4289    0.8250    0.0000 C   0  0  2  0  0  0  0  0  0  0  0  0
   -0.0000    2.4750    0.0000 C   0  0  1  0  0  0  0  0  0  0  0  0
    2.1434    8.6625    0.0000 C   0  0  2  0  0  0  0  0  0  0  0  0
   -2.1434    1.2375    0.0000 C   0  0  1  0  0  0  0  0  0  0  0  0
    2.8579    8.2500    0.0000 C   0  0  1  0  0  0  0  0  0  0  0  0
   -0.0000    3.3000    0.0000 C   0  0  2  0  0  0  0  0  0  0  0  0
   -2.8579   -1.6500    0.0000 C   0  0  2  0  0  0  0  0  0  0  0  0
    0.7145    6.1875    0.0000 C   0  0  2  0  0  0  0  0  0  0  0  0
   -2.8579   -2.4750    0.0000 C   0  0  2  0  0  0  0  0  0  0  0  0
   -2.8579    0.8250    0.0000 C   0  0  2  0  0  0  0  0  0  0  0  0
    2.8579    7.4250    0.0000 C   0  0  2  0  0  0  0  0  0  0  0  0
   -0.0000    5.7750    0.0000 C   0  0  2  0  0  0  0  0  0  0  0  0
   -0.7145    3.7125    0.0000 C   0  0  2  0  0  0  0  0  0  0  0  0
   -3.5724   -1.2375    0.0000 C   0  0  2  0  0  0  0  0  0  0  0  0
    1.4289    5.7750    0.0000 C   0  0  2  0  0  0  0  0  0  0  0  0
   -3.5724   -2.8875    0.0000 C   0  0  1  0  0  0  0  0  0  0  0  0
   -2.8579   -0.0000    0.0000 C   0  0  2  0  0  0  0  0  0  0  0  0
    2.1434    7.0125    0.0000 C   0  0  2  0  0  0  0  0  0  0  0  0
   -0.0000    4.9500    0.0000 C   0  0  2  0  0  0  0  0  0  0  0  0
   -0.7145    1.2375    0.0000 N   0  0  0  0  0  0  0  0  0  0  0  0
   -2.1434    4.5375    0.0000 O   0  0  0  0  0  0  0  0  0  0  0  0
    0.7145    9.4875    0.0000 O   0  0  0  0  0  0  0  0  0  0  0  0
   -5.7158   -1.6500    0.0000 O   0  0  0  0  0  0  0  0  0  0  0  0
    2.1434    3.7125    0.0000 O   0  0  0  0  0  0  0  0  0  0  0  0
    0.7145    2.0625    0.0000 O   0  0  0  0  0  0  0  0  0  0  0  0
    2.1434    9.4875    0.0000 O   0  0  0  0  0  0  0  0  0  0  0  0
   -2.1434    2.0625    0.0000 O   0  0  0  0  0  0  0  0  0  0  0  0
    3.5724    8.6625    0.0000 O   0  0  0  0  0  0  0  0  0  0  0  0
    0.7145    3.7125    0.0000 O   0  0  0  0  0  0  0  0  0  0  0  0
   -2.1434   -1.2375    0.0000 O   0  0  0  0  0  0  0  0  0  0  0  0
    0.7145    7.0125    0.0000 O   0  0  0  0  0  0  0  0  0  0  0  0
   -2.1434   -2.8875    0.0000 O   0  0  0  0  0  0  0  0  0  0  0  0
   -3.5724    1.2375    0.0000 O   0  0  0  0  0  0  0  0  0  0  0  0
    3.5724    7.0125    0.0000 O   0  0  0  0  0  0  0  0  0  0  0  0
   -0.7145    6.1875    0.0000 O   0  0  0  0  0  0  0  0  0  0  0  0
   -3.5724   -3.7125    0.0000 O   0  0  0  0  0  0  0  0  0  0  0  0
   -2.1434   -0.4125    0.0000 O   0  0  0  0  0  0  0  0  0  0  0  0
   -4.2868   -2.4750    0.0000 O   0  0  0  0  0  0  0  0  0  0  0  0
    1.4289    7.4250    0.0000 O   0  0  0  0  0  0  0  0  0  0  0  0
    0.7145    4.5375    0.0000 O   0  0  0  0  0  0  0  0  0  0  0  0
   -0.7145    4.5375    0.0000 O   0  0  0  0  0  0  0  0  0  0  0  0
   -3.5724   -0.4125    0.0000 O   0  0  0  0  0  0  0  0  0  0  0  0
    2.1434    6.1875    0.0000 O   0  0  0  0  0  0  0  0  0  0  0  0
   -0.8986    0.6320    0.0000 H   0  0  0  0  0  0  0  0  0  0  0  0
   -1.2448    1.4305    0.0000 H   0  0  0  0  0  0  0  0  0  0  0  0
    1.1468    9.0252    0.0000 H   0  0  0  0  0  0  0  0  0  0  0  0
   -4.5690   -0.8748    0.0000 H   0  0  0  0  0  0  0  0  0  0  0  0
    1.9592    5.5820    0.0000 H   0  0  0  0  0  0  0  0  0  0  0  0
   -0.6165    0.6817    0.0000 H   0  0  0  0  0  0  0  0  0  0  0  0
   -0.0000    1.6500    0.0000 H   0  0  0  0  0  0  0  0  0  0  0  0
    1.6131    9.2945    0.0000 H   0  0  0  0  0  0  0  0  0  0  0  0
   -1.6131    1.8695    0.0000 H   0  0  0  0  0  0  0  0  0  0  0  0
    2.8579    9.0750    0.0000 H   0  0  0  0  0  0  0  0  0  0  0  0
    0.7145    2.8875    0.0000 H   0  0  0  0  0  0  0  0  0  0  0  0
   -2.0454   -1.7933    0.0000 H   0  0  0  0  0  0  0  0  0  0  0  0
   -0.0980    6.3308    0.0000 H   0  0  0  0  0  0  0  0  0  0  0  0
   -2.0454   -2.3317    0.0000 H   0  0  0  0  0  0  0  0  0  0  0  0
   -2.8579    1.6500    0.0000 H   0  0  0  0  0  0  0  0  0  0  0  0
    3.5724    7.8375    0.0000 H   0  0  0  0  0  0  0  0  0  0  0  0
   -0.2822    6.5502    0.0000 H   0  0  0  0  0  0  0  0  0  0  0  0
   -1.4289    4.1250    0.0000 H   0  0  0  0  0  0  0  0  0  0  0  0
   -4.1027   -0.6055    0.0000 H   0  0  0  0  0  0  0  0  0  0  0  0
    2.2414    5.6317    0.0000 H   0  0  0  0  0  0  0  0  0  0  0  0
   -2.8579   -3.3000    0.0000 H   0  0  0  0  0  0  0  0  0  0  0  0
   -3.5724    0.4125    0.0000 H   0  0  0  0  0  0  0  0  0  0  0  0
    2.8579    6.6000    0.0000 H   0  0  0  0  0  0  0  0  0  0  0  0
   -0.7145    5.3625    0.0000 H   0  0  0  0  0  0  0  0  0  0  0  0
  7  1  1  1  0  0  0
  8  2  2  0  0  0  0
  8  3  1  0  0  0  0
  9  2  1  0  0  0  0
 10  4  1  6  0  0  0
 11  5  1  6  0  0  0
 12  6  1  1  0  0  0
 13  7  1  0  0  0  0
 14  9  1  0  0  0  0
 15 10  1  0  0  0  0
 16 13  1  0  0  0  0
 17 15  1  0  0  0  0
 18 14  1  0  0  0  0
 21 19  1  0  0  0  0
 22 16  1  0  0  0  0
 23 17  1  0  0  0  0
 24 20  1  0  0  0  0
 25  8  1  0  0  0  0
 25 18  1  0  0  0  0
 26 11  1  0  0  0  0
 26 19  1  0  0  0  0
 27 12  1  0  0  0  0
 27 20  1  0  0  0  0
 28 21  1  0  0  0  0
 29 22  1  0  0  0  0
 30 23  1  0  0  0  0
 31 24  1  0  0  0  0
  9 32  1  1  0  0  0
 13 32  1  6  0  0  0
 33  3  1  0  0  0  0
 34  4  1  0  0  0  0
 35  5  1  0  0  0  0
 36  6  1  0  0  0  0
 14 37  1  1  0  0  0
 15 38  1  1  0  0  0
 16 39  1  1  0  0  0
 17 40  1  6  0  0  0
 18 41  1  6  0  0  0
 19 42  1  6  0  0  0
 20 43  1  1  0  0  0
 21 44  1  1  0  0  0
 22 45  1  6  0  0  0
 23 46  1  1  0  0  0
 24 47  1  6  0  0  0
 28 48  1  1  0  0  0
 49  7  1  0  0  0  0
 49 29  1  0  0  0  0
 50 11  1  0  0  0  0
 50 28  1  0  0  0  0
 51 10  1  0  0  0  0
 51 30  1  0  0  0  0
 52 12  1  0  0  0  0
 52 31  1  0  0  0  0
 25 53  1  1  0  0  0
 31 53  1  6  0  0  0
 26 54  1  1  0  0  0
 29 54  1  6  0  0  0
 27 55  1  6  0  0  0
 30 55  1  1  0  0  0
  7 56  1  6  0  0  0
  9 57  1  6  0  0  0
 10 58  1  1  0  0  0
 11 59  1  1  0  0  0
 12 60  1  6  0  0  0
 13 61  1  1  0  0  0
 14 62  1  6  0  0  0
 15 63  1  6  0  0  0
 16 64  1  6  0  0  0
 17 65  1  1  0  0  0
 18 66  1  1  0  0  0
 19 67  1  1  0  0  0
 20 68  1  6  0  0  0
 21 69  1  6  0  0  0
 22 70  1  1  0  0  0
 23 71  1  6  0  0  0
 24 72  1  1  0  0  0
 25 73  1  6  0  0  0
 26 74  1  6  0  0  0
 27 75  1  1  0  0  0
 28 76  1  6  0  0  0
 29 77  1  1  0  0  0
 30 78  1  6  0  0  0
 31 79  1  1  0  0  0
M  END
> <DATABASE_ID>
DB04453

> <DATABASE_NAME>
drugbank

> <SMILES>
[H][C@]1(C)O[C@]([H])(O[C@]2([H])[C@@]([H])(CO)O[C@]([H])(O)[C@]([H])(O)[C@@]2([H])O)[C@]([H])(O)[C@@]([H])(O)[C@]1([H])N[C@@]1([H])C=C(CO)[C@@]([H])(O[C@@]2([H])O[C@]([H])(CO)[C@@]([H])(O[C@@]3([H])O[C@]([H])(CO)[C@@]([H])(O)[C@]([H])(O)[C@@]3([H])O)[C@]([H])(O)[C@@]2([H])O)[C@]([H])(O)[C@@]1([H])O

> <INCHI_IDENTIFIER>
InChI=1S/C31H53NO23/c1-7-13(16(39)22(45)29(49-7)54-26-11(5-35)50-28(48)21(44)19(26)42)32-9-2-8(3-33)25(18(41)14(9)37)53-31-24(47)20(43)27(12(6-36)52-31)55-30-23(46)17(40)15(38)10(4-34)51-30/h2,7,9-48H,3-6H2,1H3/t7-,9+,10-,11-,12-,13-,14+,15-,16+,17+,18-,19-,20-,21-,22-,23-,24-,25-,26-,27-,28+,29-,30-,31-/m1/s1

> <INCHI_KEY>
JUCZMZWYUIRMPL-NPPSNIQKSA-N

> <FORMULA>
C31H53NO23

> <MOLECULAR_WEIGHT>
807.7454

> <EXACT_MASS>
807.300837007

> <JCHEM_ACCEPTOR_COUNT>
24

> <JCHEM_ATOM_COUNT>
108

> <JCHEM_AVERAGE_NEUTRAL_MICROSPECIES_CHARGE>
0.6820277150583995

> <JCHEM_AVERAGE_POLARIZABILITY>
77.28935406875107

> <JCHEM_BIOAVAILABILITY>
0

> <JCHEM_DONOR_COUNT>
17

> <JCHEM_FORMAL_CHARGE>
0

> <JCHEM_GHOSE_FILTER>
0

> <JCHEM_IUPAC>
(2R,3R,4S,5S,6R)-2-{[(2R,3S,4R,5R,6S)-6-{[(1R,4S,5S,6R)-4-{[(2R,3S,4S,5R,6R)-4,5-dihydroxy-2-methyl-6-{[(2R,3S,4R,5R,6S)-4,5,6-trihydroxy-2-(hydroxymethyl)oxan-3-yl]oxy}oxan-3-yl]amino}-5,6-dihydroxy-2-(hydroxymethyl)cyclohex-2-en-1-yl]oxy}-4,5-dihydroxy-2-(hydroxymethyl)oxan-3-yl]oxy}-6-(hydroxymethyl)oxane-3,4,5-triol

> <ALOGPS_LOGP>
-2.68

> <JCHEM_LOGP>
-9.385394502333334

> <ALOGPS_LOGS>
-0.81

> <JCHEM_MDDR_LIKE_RULE>
1

> <JCHEM_NEUTRAL_CHARGE>
1

> <JCHEM_NUMBER_OF_RINGS>
5

> <JCHEM_PHYSIOLOGICAL_CHARGE>
1

> <JCHEM_PKA>
11.901601573588314

> <JCHEM_PKA_STRONGEST_ACIDIC>
11.201108701627918

> <JCHEM_PKA_STRONGEST_BASIC>
7.331549130553094

> <JCHEM_POLAR_SURFACE_AREA>
400.3200000000001

> <JCHEM_REFRACTIVITY>
170.01570000000007

> <JCHEM_ROTATABLE_BOND_COUNT>
12

> <JCHEM_RULE_OF_FIVE>
0

> <ALOGPS_SOLUBILITY>
1.26e+02 g/l

> <JCHEM_TRADITIONAL_IUPAC>
tetrahydrofolic acid

> <JCHEM_VEBER_RULE>
0

> <DRUGBANK_ID>
DB04453

> <SECONDARY_ACCESSION_NUMBERS>
EXPT00557

> <DRUG_GROUPS>
experimental

> <GENERIC_NAME>
4-O-(4,6-Dideoxy-4-{[4-[(4-O-Hexopyranosylhexopyranosyl)Oxy]-5,6-Dihydroxy-3-(Hydroxymethyl)Cyclohex-2-En-1-Yl]Amino}Hexopyranosyl)Hexopyranose

$$$$
