
  Mrv0541 02231216462D          

 10  9  0  0  0  0            999 V2000
    1.7605    1.0164    0.0000 O   0  0  0  0  0  0  0  0  0  0  0  0
    2.4750    1.4289    0.0000 P   0  0  0  0  0  0  0  0  0  0  0  0
    2.8875    0.7145    0.0000 O   0  0  0  0  0  0  0  0  0  0  0  0
    2.0625    2.1434    0.0000 O   0  0  0  0  0  0  0  0  0  0  0  0
    3.1895    1.8414    0.0000 C   0  0  0  0  0  0  0  0  0  0  0  0
    3.9039    1.4289    0.0000 C   0  0  0  0  0  0  0  0  0  0  0  0
    4.6184    1.8414    0.0000 C   0  0  0  0  0  0  0  0  0  0  0  0
    4.6184    2.6664    0.0000 C   0  0  0  0  0  0  0  0  0  0  0  0
    5.3329    1.4289    0.0000 C   0  0  0  0  0  0  0  0  0  0  0  0
    6.0474    1.8414    0.0000 O   0  0  0  0  0  0  0  0  0  0  0  0
  1  2  1  0  0  0  0
  2  3  1  0  0  0  0
  2  4  2  0  0  0  0
  2  5  1  0  0  0  0
  5  6  1  0  0  0  0
  6  7  1  0  0  0  0
  7  8  2  0  0  0  0
  7  9  1  0  0  0  0
  9 10  2  0  0  0  0
M  END
> <DATABASE_ID>
DB03211

> <DATABASE_NAME>
drugbank

> <SMILES>
OP(O)(=O)CCC(=C)C=O

> <INCHI_IDENTIFIER>
InChI=1S/C5H9O4P/c1-5(4-6)2-3-10(7,8)9/h4H,1-3H2,(H2,7,8,9)

> <INCHI_KEY>
UBLMBCUBDKMVMQ-UHFFFAOYSA-N

> <FORMULA>
C5H9O4P

> <MOLECULAR_WEIGHT>
164.0963

> <EXACT_MASS>
164.023845288

> <JCHEM_ACCEPTOR_COUNT>
4

> <JCHEM_ATOM_COUNT>
19

> <JCHEM_AVERAGE_NEUTRAL_MICROSPECIES_CHARGE>
-1.0934192102382654

> <JCHEM_AVERAGE_POLARIZABILITY>
13.91123569382555

> <JCHEM_BIOAVAILABILITY>
1

> <JCHEM_DONOR_COUNT>
2

> <JCHEM_FORMAL_CHARGE>
0

> <JCHEM_GHOSE_FILTER>
0

> <JCHEM_IUPAC>
(3-methylidene-4-oxobutyl)phosphonic acid

> <ALOGPS_LOGP>
-0.85

> <JCHEM_LOGP>
-1.023435074

> <ALOGPS_LOGS>
-1.03

> <JCHEM_MDDR_LIKE_RULE>
0

> <JCHEM_NEUTRAL_CHARGE>
-1

> <JCHEM_NUMBER_OF_RINGS>
0

> <JCHEM_PHYSIOLOGICAL_CHARGE>
-1

> <JCHEM_PKA>
8.287967588124063

> <JCHEM_PKA_STRONGEST_ACIDIC>
1.8049979062108

> <JCHEM_PKA_STRONGEST_BASIC>
-4.473418956053736

> <JCHEM_POLAR_SURFACE_AREA>
74.6

> <JCHEM_REFRACTIVITY>
36.2933

> <JCHEM_ROTATABLE_BOND_COUNT>
4

> <JCHEM_RULE_OF_FIVE>
1

> <ALOGPS_SOLUBILITY>
1.54e+01 g/l

> <JCHEM_TRADITIONAL_IUPAC>
biotin

> <JCHEM_VEBER_RULE>
0

> <DRUGBANK_ID>
DB03211

> <SECONDARY_ACCESSION_NUMBERS>
EXPT01081

> <DRUG_GROUPS>
experimental

> <GENERIC_NAME>
(3-Formyl-but-3-Enyl)-Phosphonic Acid

$$$$
