
  Mrv0541 02241221312D          

  1  0  0  0  0  0            999 V2000
    0.0000    0.0000    0.0000 Mo  0  0  0  0  0  0  0  0  0  0  0  0
M  END
> <DATABASE_ID>
DB11137

> <DATABASE_NAME>
drugbank

> <SMILES>
[Mo]

> <INCHI_IDENTIFIER>
InChI=1S/Mo

> <INCHI_KEY>
ZOKXTWBITQBERF-UHFFFAOYSA-N

> <FORMULA>
Mo

> <MOLECULAR_WEIGHT>
95.94

> <EXACT_MASS>
97.905407846

> <JCHEM_ACCEPTOR_COUNT>
0

> <JCHEM_ATOM_COUNT>
1

> <JCHEM_AVERAGE_NEUTRAL_MICROSPECIES_CHARGE>
0.0

> <JCHEM_AVERAGE_POLARIZABILITY>
1.7784

> <JCHEM_BIOAVAILABILITY>
1

> <JCHEM_DONOR_COUNT>
0

> <JCHEM_FORMAL_CHARGE>
0

> <JCHEM_GHOSE_FILTER>
0

> <JCHEM_IUPAC>
molybdenum

> <JCHEM_LOGP>
0.0

> <JCHEM_MDDR_LIKE_RULE>
0

> <JCHEM_NEUTRAL_CHARGE>
0

> <JCHEM_NUMBER_OF_RINGS>
0

> <JCHEM_PHYSIOLOGICAL_CHARGE>
0

> <JCHEM_POLAR_SURFACE_AREA>
0.0

> <JCHEM_REFRACTIVITY>
0.0

> <JCHEM_ROTATABLE_BOND_COUNT>
0

> <JCHEM_RULE_OF_FIVE>
1

> <JCHEM_TRADITIONAL_IUPAC>
tetrahydrofolic acid

> <JCHEM_VEBER_RULE>
1

> <DRUGBANK_ID>
DB11137

> <DRUG_GROUPS>
approved

> <GENERIC_NAME>
Molybdenum

> <SYNONYMS>
molibdeno

> <PRODUCTS>
24 Multivitamins + Minerals; 50 Plus Multiple Vitamins & Minerals; Adult Formula 50+; Alkadrenergy Tablets; Body Rox; C. Vit-min Formula; Chelapro; Children's Chewable Tab; Dayavite; Extra Once A Day; Fem Time Tab; Foliflex; Folitin-Z; Formula Im-vitamins and Minerals Tab; Hi Potency Multi Tab; Innersource Tab; Iron 25mg With Vit B-cmplx, Vit C, Cu & Mo; Liquid Opti-minplex +d; Maximum Once A Day; Maxum Multi-vite; Mega Multiple Minerals; Men's; Men's 50+; Men's Biomultiple Vitamin and Mineral Supplement; Mineralex; Multi Vitamin - Mineral; Multi Vitamins & Minerals; Multi-actin; Multi-mins Minerals; Multi-vitamins With Minerals; Multimineral Tablets; Multitam; Multivitamins and Minerals With Betacarotene Tablets; Multivitamins and Minerals for Men; Multivitamins and Minerals for Women; Multra Plex; Natural Source Spectrum With Beta Carotene; Nutra Boost; Nutra-clear; Nutria; Onccor; One A Day Advance Adults; One A Day Advance Adults 50+; Only One - Tablet; Premium Prenatal; Premium Prenatal - Tablets; Prenatal Formula Tab; Prenatrix; Prenatryl; Pretrate; Pro Hers Vanilla; Pro Pcos Citrus; Prometa; Protect Plus SO 60; Revit Multi-vitamins and Minerals; Revitalize Multi-vitamin and Mineral Complex; Ribotin-E; Rocky Mountain Multiple Vit and Min Mega Tab; Senior Multi One; Spectrum 2 Cap; Strovite Forte Caplet; Swiss Total One; Twin G.F. Powder; Twin G.F. Powder Vanilla Flavor; Twin Opti Pwr; Usana Multimineral Tablets; Usana Multimineral Tablets - Tab; Venexa; Venexa FE; Ventrixyl; Ventrixyl Fe; Vitalife - Capsule; Vitramyn; Vitranol; Vitranol Fe; Vitrexate; Vitrexate FE; Vitrexyl; Vitrexyl plus Iron; Women's Biomultiple Vitamin and Mineral Supplement; Zintrexyl-C

$$$$
