
  Mrv0541 05041404212D          

 15 15  0  0  1  0            999 V2000
    1.4289    0.8250    0.0000 C   0  0  0  0  0  0  0  0  0  0  0  0
    0.7145    2.0625    0.0000 C   0  0  0  0  0  0  0  0  0  0  0  0
    0.7145    1.2375    0.0000 C   0  0  1  0  0  0  0  0  0  0  0  0
    1.4289   -0.0000    0.0000 C   0  0  1  0  0  0  0  0  0  0  0  0
    0.7145   -0.4125    0.0000 C   0  0  2  0  0  0  0  0  0  0  0  0
    0.0000    0.0000    0.0000 C   0  0  1  0  0  0  0  0  0  0  0  0
    0.0000    2.4750    0.0000 O   0  0  0  0  0  0  0  0  0  0  0  0
    2.1434   -0.4125    0.0000 O   0  0  0  0  0  0  0  0  0  0  0  0
    0.7145   -1.2375    0.0000 O   0  0  0  0  0  0  0  0  0  0  0  0
   -0.7145   -0.4125    0.0000 O   0  0  0  0  0  0  0  0  0  0  0  0
    0.0000    0.8250    0.0000 O   0  0  0  0  0  0  0  0  0  0  0  0
    1.4289    1.6500    0.0000 H   0  0  0  0  0  0  0  0  0  0  0  0
    2.1434    0.4125    0.0000 H   0  0  0  0  0  0  0  0  0  0  0  0
    1.4289   -0.8250    0.0000 H   0  0  0  0  0  0  0  0  0  0  0  0
   -0.0000   -0.8250    0.0000 H   0  0  0  0  0  0  0  0  0  0  0  0
  3  1  1  0  0  0  0
  3  2  1  6  0  0  0
  4  1  1  0  0  0  0
  5  4  1  0  0  0  0
  6  5  1  0  0  0  0
  7  2  1  0  0  0  0
  4  8  1  6  0  0  0
  5  9  1  1  0  0  0
  6 10  1  1  0  0  0
 11  3  1  0  0  0  0
 11  6  1  0  0  0  0
  3 12  1  1  0  0  0
  4 13  1  1  0  0  0
  5 14  1  6  0  0  0
  6 15  1  6  0  0  0
M  END
> <DATABASE_ID>
DB02670

> <DATABASE_NAME>
drugbank

> <SMILES>
[H][C@]1(O)C[C@@]([H])(CO)O[C@]([H])(O)[C@]1([H])O

> <INCHI_IDENTIFIER>
InChI=1S/C6H12O5/c7-2-3-1-4(8)5(9)6(10)11-3/h3-10H,1-2H2/t3-,4-,5+,6-/m0/s1

> <INCHI_KEY>
HDEMQQHXNOJATE-AZGQCCRYSA-N

> <FORMULA>
C6H12O5

> <MOLECULAR_WEIGHT>
164.1565

> <EXACT_MASS>
164.068473494

> <JCHEM_ACCEPTOR_COUNT>
5

> <JCHEM_ATOM_COUNT>
23

> <JCHEM_AVERAGE_NEUTRAL_MICROSPECIES_CHARGE>
-4.7661433042638765e-05

> <JCHEM_AVERAGE_POLARIZABILITY>
15.55687149620326

> <JCHEM_BIOAVAILABILITY>
1

> <JCHEM_DONOR_COUNT>
4

> <JCHEM_FORMAL_CHARGE>
0

> <JCHEM_GHOSE_FILTER>
0

> <JCHEM_IUPAC>
(2S,3R,4S,6S)-6-(hydroxymethyl)oxane-2,3,4-triol

> <ALOGPS_LOGP>
-2.55

> <JCHEM_LOGP>
-2.2422445370000004

> <ALOGPS_LOGS>
0.79

> <JCHEM_MDDR_LIKE_RULE>
0

> <JCHEM_NEUTRAL_CHARGE>
0

> <JCHEM_NUMBER_OF_RINGS>
1

> <JCHEM_PHYSIOLOGICAL_CHARGE>
0

> <JCHEM_PKA>
13.26749431294172

> <JCHEM_PKA_STRONGEST_ACIDIC>
11.327487110456788

> <JCHEM_PKA_STRONGEST_BASIC>
-2.944595153470533

> <JCHEM_POLAR_SURFACE_AREA>
90.15

> <JCHEM_REFRACTIVITY>
34.826299999999996

> <JCHEM_ROTATABLE_BOND_COUNT>
1

> <JCHEM_RULE_OF_FIVE>
1

> <ALOGPS_SOLUBILITY>
1.02e+03 g/l

> <JCHEM_TRADITIONAL_IUPAC>
tetrahydrofolic acid

> <JCHEM_VEBER_RULE>
0

> <DRUGBANK_ID>
DB02670

> <SECONDARY_ACCESSION_NUMBERS>
EXPT01533

> <DRUG_GROUPS>
experimental

> <GENERIC_NAME>
4-Deoxy-Alpha-D-Glucose

$$$$
