
  Mrv0541 02231215552D          

 14 13  0  0  1  0            999 V2000
    2.9980   -2.5559    0.0000 O   0  0  0  0  0  0  0  0  0  0  0  0
    3.7125   -2.1434    0.0000 C   0  0  0  0  0  0  0  0  0  0  0  0
    4.4270   -2.5559    0.0000 C   0  0  1  0  0  0  0  0  0  0  0  0
    4.4270   -3.3809    0.0000 O   0  0  0  0  0  0  0  0  0  0  0  0
    5.1414   -2.1434    0.0000 C   0  0  2  0  0  0  0  0  0  0  0  0
    5.1414   -1.3184    0.0000 O   0  0  0  0  0  0  0  0  0  0  0  0
    5.8559   -2.5559    0.0000 C   0  0  1  0  0  0  0  0  0  0  0  0
    5.8559   -3.3809    0.0000 O   0  0  0  0  0  0  0  0  0  0  0  0
    6.5704   -2.1434    0.0000 C   0  0  0  0  0  0  0  0  0  0  0  0
    7.2849   -2.5559    0.0000 O   0  0  0  0  0  0  0  0  0  0  0  0
    7.9993   -2.1434    0.0000 P   0  0  0  0  0  0  0  0  0  0  0  0
    8.7138   -1.7309    0.0000 O   0  0  0  0  0  0  0  0  0  0  0  0
    8.4118   -2.8579    0.0000 O   0  0  0  0  0  0  0  0  0  0  0  0
    7.5868   -1.4289    0.0000 O   0  0  0  0  0  0  0  0  0  0  0  0
  1  2  1  0  0  0  0
  2  3  1  0  0  0  0
  3  4  1  6  0  0  0
  3  5  1  0  0  0  0
  5  6  1  6  0  0  0
  5  7  1  0  0  0  0
  7  8  1  6  0  0  0
  7  9  1  0  0  0  0
  9 10  1  0  0  0  0
 10 11  1  0  0  0  0
 11 12  1  0  0  0  0
 11 13  1  0  0  0  0
 11 14  2  0  0  0  0
M  END
> <DATABASE_ID>
DB02630

> <DATABASE_NAME>
drugbank

> <SMILES>
OC[C@@H](O)[C@H](O)[C@@H](O)COP(O)(O)=O

> <INCHI_IDENTIFIER>
InChI=1S/C5H13O8P/c6-1-3(7)5(9)4(8)2-13-14(10,11)12/h3-9H,1-2H2,(H2,10,11,12)/t3-,4+,5+/m1/s1

> <INCHI_KEY>
VJDOAZKNBQCAGE-WISUUJSJSA-N

> <FORMULA>
C5H13O8P

> <MOLECULAR_WEIGHT>
232.1257

> <EXACT_MASS>
232.034803904

> <JCHEM_ACCEPTOR_COUNT>
7

> <JCHEM_ATOM_COUNT>
27

> <JCHEM_AVERAGE_NEUTRAL_MICROSPECIES_CHARGE>
-1.8585705160254322

> <JCHEM_AVERAGE_POLARIZABILITY>
19.124442040055392

> <JCHEM_BIOAVAILABILITY>
1

> <JCHEM_DONOR_COUNT>
6

> <JCHEM_FORMAL_CHARGE>
0

> <JCHEM_GHOSE_FILTER>
0

> <JCHEM_IUPAC>
{[(2S,3S,4R)-2,3,4,5-tetrahydroxypentyl]oxy}phosphonic acid

> <ALOGPS_LOGP>
-2.14

> <JCHEM_LOGP>
-3.2232499379999995

> <ALOGPS_LOGS>
-0.91

> <JCHEM_MDDR_LIKE_RULE>
0

> <JCHEM_NEUTRAL_CHARGE>
-2

> <JCHEM_NUMBER_OF_RINGS>
0

> <JCHEM_PHYSIOLOGICAL_CHARGE>
-2

> <JCHEM_PKA>
6.517789357699702

> <JCHEM_PKA_STRONGEST_ACIDIC>
1.491978913715834

> <JCHEM_PKA_STRONGEST_BASIC>
-2.974203813611499

> <JCHEM_POLAR_SURFACE_AREA>
147.68

> <JCHEM_REFRACTIVITY>
43.314

> <JCHEM_ROTATABLE_BOND_COUNT>
6

> <JCHEM_RULE_OF_FIVE>
0

> <ALOGPS_SOLUBILITY>
2.85e+01 g/l

> <JCHEM_TRADITIONAL_IUPAC>
tetrahydrofolic acid

> <JCHEM_VEBER_RULE>
0

> <DRUGBANK_ID>
DB02630

> <SECONDARY_ACCESSION_NUMBERS>
EXPT02071

> <DRUG_GROUPS>
experimental

> <GENERIC_NAME>
L-xylitol 5-phosphate

> <SYNONYMS>
Xylitol 5-P; Xylitol 5-phosphate

$$$$
