
  Mrv0541 02231217482D          

 37 41  0  0  1  0            999 V2000
    5.0013    9.4875    0.0000 O   0  0  0  0  0  0  0  0  0  0  0  0
    5.0013    8.6625    0.0000 C   0  0  0  0  0  0  0  0  0  0  0  0
    4.2868    8.2500    0.0000 N   0  0  0  0  0  0  0  0  0  0  0  0
    4.2868    7.4250    0.0000 C   0  0  0  0  0  0  0  0  0  0  0  0
    5.0013    7.0125    0.0000 C   0  0  0  0  0  0  0  0  0  0  0  0
    5.7158    7.4250    0.0000 C   0  0  0  0  0  0  0  0  0  0  0  0
    5.7158    8.2500    0.0000 C   0  0  0  0  0  0  0  0  0  0  0  0
    5.0013    6.1875    0.0000 C   0  0  1  0  0  0  0  0  0  0  0  0
    4.2868    5.7750    0.0000 C   0  0  0  0  0  0  0  0  0  0  0  0
    3.5724    6.1875    0.0000 C   0  0  0  0  0  0  0  0  0  0  0  0
    3.5724    7.0125    0.0000 C   0  0  0  0  0  0  0  0  0  0  0  0
    5.7158    5.7750    0.0000 N   0  0  0  0  0  0  0  0  0  0  0  0
    6.4302    6.1875    0.0000 C   0  0  0  0  0  0  0  0  0  0  0  0
    7.1447    5.7750    0.0000 C   0  0  0  0  0  0  0  0  0  0  0  0
    7.8592    6.1875    0.0000 C   0  0  0  0  0  0  0  0  0  0  0  0
    8.5737    5.7750    0.0000 C   0  0  0  0  0  0  0  0  0  0  0  0
    9.2881    6.1875    0.0000 C   0  0  0  0  0  0  0  0  0  0  0  0
   10.0026    5.7750    0.0000 C   0  0  0  0  0  0  0  0  0  0  0  0
   10.7171    6.1875    0.0000 C   0  0  0  0  0  0  0  0  0  0  0  0
   11.4315    5.7750    0.0000 C   0  0  0  0  0  0  0  0  0  0  0  0
   12.1460    6.1875    0.0000 C   0  0  0  0  0  0  0  0  0  0  0  0
   12.8605    5.7750    0.0000 C   0  0  0  0  0  0  0  0  0  0  0  0
   13.5749    6.1875    0.0000 N   0  0  0  0  0  0  0  0  0  0  0  0
   14.2894    5.7750    0.0000 C   0  0  0  0  0  0  0  0  0  0  0  0
   15.0039    6.1875    0.0000 C   0  0  0  0  0  0  0  0  0  0  0  0
   15.0039    7.0125    0.0000 C   0  0  0  0  0  0  0  0  0  0  0  0
   15.7184    7.4250    0.0000 C   0  0  0  0  0  0  0  0  0  0  0  0
   16.4328    7.0125    0.0000 C   0  0  0  0  0  0  0  0  0  0  0  0
   16.4328    6.1875    0.0000 C   0  0  0  0  0  0  0  0  0  0  0  0
   15.7184    5.7750    0.0000 C   0  0  0  0  0  0  0  0  0  0  0  0
   15.7184    4.9500    0.0000 N   0  0  0  0  0  0  0  0  0  0  0  0
   15.0039    4.5375    0.0000 C   0  0  0  0  0  0  0  0  0  0  0  0
   15.0039    3.7125    0.0000 C   0  0  0  0  0  0  0  0  0  0  0  0
   14.2894    3.3000    0.0000 C   0  0  0  0  0  0  0  0  0  0  0  0
   13.5749    3.7125    0.0000 C   0  0  0  0  0  0  0  0  0  0  0  0
   13.5749    4.5375    0.0000 C   0  0  0  0  0  0  0  0  0  0  0  0
   14.2894    4.9500    0.0000 C   0  0  0  0  0  0  0  0  0  0  0  0
  1  2  2  0  0  0  0
  2  3  1  0  0  0  0
  3  4  1  0  0  0  0
  4  5  2  0  0  0  0
  5  6  1  0  0  0  0
  6  7  2  0  0  0  0
  2  7  1  0  0  0  0
  5  8  1  0  0  0  0
  8  9  1  0  0  0  0
  9 10  1  0  0  0  0
 10 11  1  0  0  0  0
  4 11  1  0  0  0  0
  8 12  1  6  0  0  0
 12 13  1  0  0  0  0
 13 14  1  0  0  0  0
 14 15  1  0  0  0  0
 15 16  1  0  0  0  0
 16 17  1  0  0  0  0
 17 18  1  0  0  0  0
 18 19  1  0  0  0  0
 19 20  1  0  0  0  0
 20 21  1  0  0  0  0
 21 22  1  0  0  0  0
 22 23  1  0  0  0  0
 23 24  1  0  0  0  0
 24 25  2  0  0  0  0
 25 26  1  0  0  0  0
 26 27  1  0  0  0  0
 27 28  1  0  0  0  0
 28 29  1  0  0  0  0
 29 30  1  0  0  0  0
 25 30  1  0  0  0  0
 30 31  2  0  0  0  0
 31 32  1  0  0  0  0
 32 33  2  0  0  0  0
 33 34  1  0  0  0  0
 34 35  2  0  0  0  0
 35 36  1  0  0  0  0
 36 37  2  0  0  0  0
 24 37  1  0  0  0  0
 32 37  1  0  0  0  0
M  END
> <DATABASE_ID>
DB04614

> <DATABASE_NAME>
drugbank

> <SMILES>
O=C1NC2=C(C=C1)[C@@H](CCC2)NCCCCCCCCCCNC1=C2CCCCC2=NC2=CC=CC=C12

> <INCHI_IDENTIFIER>
InChI=1S/C32H44N4O/c37-31-21-20-24-27(18-13-19-28(24)36-31)33-22-11-5-3-1-2-4-6-12-23-34-32-25-14-7-9-16-29(25)35-30-17-10-8-15-26(30)32/h7,9,14,16,20-21,27,33H,1-6,8,10-13,15,17-19,22-23H2,(H,34,35)(H,36,37)/t27-/m1/s1

> <INCHI_KEY>
ROTFGKJJMRTWBD-HHHXNRCGSA-N

> <FORMULA>
C32H44N4O

> <MOLECULAR_WEIGHT>
500.718

> <EXACT_MASS>
500.35151205

> <JCHEM_ACCEPTOR_COUNT>
4

> <JCHEM_ATOM_COUNT>
81

> <JCHEM_AVERAGE_NEUTRAL_MICROSPECIES_CHARGE>
1.9848979652648566

> <JCHEM_AVERAGE_POLARIZABILITY>
61.12217634008

> <JCHEM_BIOAVAILABILITY>
0

> <JCHEM_DONOR_COUNT>
3

> <JCHEM_FORMAL_CHARGE>
0

> <JCHEM_GHOSE_FILTER>
0

> <JCHEM_IUPAC>
(5R)-5-({10-[(1,2,3,4-tetrahydroacridin-9-yl)amino]decyl}amino)-1,2,5,6,7,8-hexahydroquinolin-2-one

> <ALOGPS_LOGP>
6.89

> <JCHEM_LOGP>
5.87592139419977

> <ALOGPS_LOGS>
-5.82

> <JCHEM_MDDR_LIKE_RULE>
1

> <JCHEM_NEUTRAL_CHARGE>
2

> <JCHEM_NUMBER_OF_RINGS>
5

> <JCHEM_PHYSIOLOGICAL_CHARGE>
2

> <JCHEM_PKA_STRONGEST_ACIDIC>
11.334501820374326

> <JCHEM_PKA_STRONGEST_BASIC>
9.94170638989199

> <JCHEM_POLAR_SURFACE_AREA>
66.05000000000001

> <JCHEM_REFRACTIVITY>
155.79529999999994

> <JCHEM_ROTATABLE_BOND_COUNT>
13

> <JCHEM_RULE_OF_FIVE>
0

> <ALOGPS_SOLUBILITY>
7.51e-04 g/l

> <JCHEM_TRADITIONAL_IUPAC>
biotin

> <JCHEM_VEBER_RULE>
0

> <DRUGBANK_ID>
DB04614

> <DRUG_GROUPS>
experimental

> <GENERIC_NAME>
(R)-tacrine(10)-hupyridone

$$$$
