
  Mrv0541 05041405232D          

 15 14  0  0  1  0            999 V2000
    1.2375    0.7145    0.0000 C   0  0  0  0  0  0  0  0  0  0  0  0
    0.5230    1.1270    0.0000 C   0  0  0  0  0  0  0  0  0  0  0  0
    3.3809    1.1270    0.0000 C   0  0  0  0  0  0  0  0  0  0  0  0
    1.9520    1.1270    0.0000 C   0  0  1  0  0  0  0  0  0  0  0  0
    2.6664    0.7145    0.0000 C   0  0  2  0  0  0  0  0  0  0  0  0
   -0.1914    0.7145    0.0000 O   0  0  0  0  0  0  0  0  0  0  0  0
    1.9520    1.9520    0.0000 O   0  0  0  0  0  0  0  0  0  0  0  0
    2.6664   -0.1105    0.0000 O   0  0  0  0  0  0  0  0  0  0  0  0
    5.5243    1.5395    0.0000 O   0  0  0  0  0  0  0  0  0  0  0  0
    5.2224    0.4125    0.0000 O   0  0  0  0  0  0  0  0  0  0  0  0
    4.3974    1.8414    0.0000 O   0  0  0  0  0  0  0  0  0  0  0  0
    4.0954    0.7145    0.0000 O   0  0  0  0  0  0  0  0  0  0  0  0
    4.8099    1.1270    0.0000 P   0  0  0  0  0  0  0  0  0  0  0  0
    1.9520    0.3020    0.0000 H   0  0  0  0  0  0  0  0  0  0  0  0
    2.6664    1.5395    0.0000 H   0  0  0  0  0  0  0  0  0  0  0  0
  2  1  1  0  0  0  0
  4  1  1  0  0  0  0
  5  3  1  0  0  0  0
  5  4  1  0  0  0  0
  6  2  1  0  0  0  0
  4  7  1  1  0  0  0
  5  8  1  6  0  0  0
 12  3  1  0  0  0  0
 13  9  1  0  0  0  0
 13 10  1  0  0  0  0
 13 11  2  0  0  0  0
 13 12  1  0  0  0  0
  4 14  1  1  0  0  0
  5 15  1  6  0  0  0
M  END
> <DATABASE_ID>
DB04087

> <DATABASE_NAME>
drugbank

> <SMILES>
[H][C@](O)(CCO)[C@]([H])(O)COP(O)(O)=O

> <INCHI_IDENTIFIER>
InChI=1S/C5H13O7P/c6-2-1-4(7)5(8)3-12-13(9,10)11/h4-8H,1-3H2,(H2,9,10,11)/t4-,5+/m0/s1

> <INCHI_KEY>
YCHBTVQJICBXEI-CRCLSJGQSA-N

> <FORMULA>
C5H13O7P

> <MOLECULAR_WEIGHT>
216.1263

> <EXACT_MASS>
216.039889282

> <JCHEM_ACCEPTOR_COUNT>
6

> <JCHEM_ATOM_COUNT>
26

> <JCHEM_AVERAGE_NEUTRAL_MICROSPECIES_CHARGE>
-1.856630565169352

> <JCHEM_AVERAGE_POLARIZABILITY>
18.080574329026515

> <JCHEM_BIOAVAILABILITY>
1

> <JCHEM_DONOR_COUNT>
5

> <JCHEM_FORMAL_CHARGE>
0

> <JCHEM_GHOSE_FILTER>
0

> <JCHEM_IUPAC>
{[(2R,3S)-2,3,5-trihydroxypentyl]oxy}phosphonic acid

> <ALOGPS_LOGP>
-1.87

> <JCHEM_LOGP>
-2.532955257

> <ALOGPS_LOGS>
-0.82

> <JCHEM_MDDR_LIKE_RULE>
0

> <JCHEM_NEUTRAL_CHARGE>
-2

> <JCHEM_NUMBER_OF_RINGS>
0

> <JCHEM_PHYSIOLOGICAL_CHARGE>
-2

> <JCHEM_PKA>
6.524683387389331

> <JCHEM_PKA_STRONGEST_ACIDIC>
1.498874453939342

> <JCHEM_PKA_STRONGEST_BASIC>
-2.4113242948895506

> <JCHEM_POLAR_SURFACE_AREA>
127.45

> <JCHEM_REFRACTIVITY>
42.216899999999995

> <JCHEM_ROTATABLE_BOND_COUNT>
6

> <JCHEM_RULE_OF_FIVE>
1

> <ALOGPS_SOLUBILITY>
3.30e+01 g/l

> <JCHEM_TRADITIONAL_IUPAC>
biotin

> <JCHEM_VEBER_RULE>
0

> <DRUGBANK_ID>
DB04087

> <SECONDARY_ACCESSION_NUMBERS>
EXPT01769

> <DRUG_GROUPS>
experimental

> <GENERIC_NAME>
Open Form of 2'-Deoxy-Ribofuranose-5'-Phosphate

$$$$
