
  Mrv0541 02231214522D          

  6  4  0  0  0  0            999 V2000
    0.0000    0.0000    0.0000 Mg  0  2  0  0  0  0  0  0  0  0  0  0
    2.3645    0.8250    0.0000 O   0  5  0  0  0  0  0  0  0  0  0  0
    2.3645   -0.8250    0.0000 O   0  5  0  0  0  0  0  0  0  0  0  0
    3.1895    0.0000    0.0000 O   0  0  0  0  0  0  0  0  0  0  0  0
    2.3645    0.0000    0.0000 S   0  0  0  0  0  0  0  0  0  0  0  0
    1.5395    0.0000    0.0000 O   0  0  0  0  0  0  0  0  0  0  0  0
  2  5  1  0  0  0  0
  5  3  1  0  0  0  0
  5  4  2  0  0  0  0
  5  6  2  0  0  0  0
M  CHG  3   1   2   2  -1   3  -1
M  END
> <DATABASE_ID>
DB00653

> <DATABASE_NAME>
drugbank

> <SMILES>
[Mg++].[O-]S([O-])(=O)=O

> <INCHI_IDENTIFIER>
InChI=1S/Mg.H2O4S/c;1-5(2,3)4/h;(H2,1,2,3,4)/q+2;/p-2

> <INCHI_KEY>
CSNNHWWHGAXBCP-UHFFFAOYSA-L

> <FORMULA>
MgO4S

> <MOLECULAR_WEIGHT>
120.368

> <EXACT_MASS>
119.936771076

> <JCHEM_ACCEPTOR_COUNT>
4

> <JCHEM_ATOM_COUNT>
6

> <JCHEM_AVERAGE_NEUTRAL_MICROSPECIES_CHARGE>
-1.9999960608374163

> <JCHEM_AVERAGE_POLARIZABILITY>
5.805278247285029

> <JCHEM_BIOAVAILABILITY>
1

> <JCHEM_DONOR_COUNT>
0

> <JCHEM_FORMAL_CHARGE>
0

> <JCHEM_GHOSE_FILTER>
0

> <JCHEM_IUPAC>
magnesium(2+) sulfate

> <JCHEM_LOGP>
-0.8415520233333333

> <JCHEM_MDDR_LIKE_RULE>
0

> <JCHEM_NEUTRAL_CHARGE>
-2

> <JCHEM_NUMBER_OF_RINGS>
0

> <JCHEM_PHYSIOLOGICAL_CHARGE>
-2

> <JCHEM_PKA>
1.8964254257138706

> <JCHEM_PKA_STRONGEST_ACIDIC>
-3.0343490541919906

> <JCHEM_POLAR_SURFACE_AREA>
80.25999999999999

> <JCHEM_REFRACTIVITY>
11.5274

> <JCHEM_ROTATABLE_BOND_COUNT>
0

> <JCHEM_RULE_OF_FIVE>
1

> <JCHEM_TRADITIONAL_IUPAC>
tetrahydrofolic acid

> <JCHEM_VEBER_RULE>
0

> <DRUGBANK_ID>
DB00653

> <SECONDARY_ACCESSION_NUMBERS>
APRD01080

> <DRUG_GROUPS>
approved; investigational; vet_approved

> <GENERIC_NAME>
Magnesium sulfate

> <SYNONYMS>
Magnesium sulfate (1:1); Magnesium sulfate anhydrous; Magnesium sulphate; magnesium(II) sulfate; Magnesiumsulfat; MgSO4

> <PRODUCTS>
50% Magnesium Sulfate; Aqua De Folli Hair Booster; Aqua De Folli Hair Booster Mini; Aqua De Folli Hair Booster Pro; Assured Epsom Salt; Calcium Lactate Et Magnesium Sulfate; Centratex; ColPrep Kit; Concept DHA; Concept OB; Daily Care Epsom Salt; Dothelle DHA; Eau Purgative Riga; Elliotts B; Ellis Tonic; Epsal; Epsom Salt; Epsom Salt Baby Beauty; Epsom Salt Magnesium Sulfate; Epsom Salt Pws 100%; Epsom Salt Saline Laxative; Epsom Salt Soaking Solution; Epsom Salt Wish care; Epsom Salts; Epsom Salts Relief; Eucalyptus Scented Natural Epsom Salt; Flex Capsules; Folivane-OB; Formule 1705 - Liq; Green Tea Chamomile Natural Epsom Salt; Harmon Core Values Epsom Salt; Health Smart Natural Epsom Salt; Hemocyte Plus; Humco Epson Salt; Kabiven; Kanga Sport Vitamins B & C Plus Minerals; Kanga-kid Multi-vitamin & Mineral; Lucky Epsom Salt; MORTON Natural Epsom Salt; Magnesium Cap; Magnesium Sulfate; Magnesium Sulfate Dressing; Magnesium Sulfate In 5% Dextrose Inj(20mg/ml); Magnesium Sulfate In Dextrose; Magnesium Sulfate Inj 20% USP; Magnesium Sulfate Inj 50%; Magnesium Sulfate Injection 50% USP; Magnesium Sulfate Injection USP; Magnesium Sulfate Injection, Bp 49.3%; Magnesium Sulfate Injection, USP; Magnesium Sulfate in 5% Dextrose; Magnesium Sulfate in Dextrose; Magnesium Sulfate in Water; Multiple Electrolyte Additive Inj; Natural Epsom Salt; Natural Epsom Salt Lavender; Natural Epsom Salts; NuValu Epsom Salt; Pepsom Flying P Epsom Salt; Pepsom Salt Peppermint; Pepsom Sports Spearmint; Pepsom Sports Wintergreen; Perikabiven; Pro-laxol Liq; PureFe OB Plus; PureFe Plus; ROYAL Epsom Salt; Relief Epsom Salt; SUPREP Bowel Prep; Sel D Epsom; Smofkabiven; Smofkabiven Extra Nitrogen; Smofkabiven Peripheral; Sodium Sulfate, Potassium Sulfate and Magnesium Sulfate; Sodium Sulfate, Potassium Sulfate, Magnesium Sulfate; Solution Carda; Spearmint and Menthol scented Natural Epsom Salt; Suclear; Sutab; Tandem OB; Tandem Plus; Taron-C DHA; Tis-U-Sol; Tis-U-sol; Tis-U-sol Solution; Vamin N; Virt-C DHA; WesCap-C-DHA; Wish Ultra Natural Epsom Salt

> <SALTS>
Magnesium sulfate dihydrate; Magnesium sulfate heptahydrate; Magnesium sulfate monohydrate

$$$$
