
  Mrv0541 02231216502D          

 13 14  0  0  0  0            999 V2000
   -0.3984    0.7541    0.0000 C   0  0  0  0  0  0  0  0  0  0  0  0
   -0.1435   -0.0305    0.0000 N   0  0  0  0  0  0  0  0  0  0  0  0
   -0.6284   -0.6979    0.0000 C   0  0  0  0  0  0  0  0  0  0  0  0
   -1.4534   -0.6979    0.0000 O   0  0  0  0  0  0  0  0  0  0  0  0
   -0.1435   -1.3654    0.0000 N   0  0  0  0  0  0  0  0  0  0  0  0
    0.6411   -1.1104    0.0000 C   0  0  0  0  0  0  0  0  0  0  0  0
    0.6411   -0.2854    0.0000 C   0  0  0  0  0  0  0  0  0  0  0  0
    1.3556    0.1271    0.0000 N   0  0  0  0  0  0  0  0  0  0  0  0
    2.0701   -0.2854    0.0000 C   0  0  0  0  0  0  0  0  0  0  0  0
    2.7845    0.1271    0.0000 O   0  0  0  0  0  0  0  0  0  0  0  0
    2.0701   -1.1104    0.0000 N   0  0  0  0  0  0  0  0  0  0  0  0
    1.3556   -1.5229    0.0000 C   0  0  0  0  0  0  0  0  0  0  0  0
    1.3556   -2.3479    0.0000 O   0  0  0  0  0  0  0  0  0  0  0  0
  1  2  1  0  0  0  0
  2  3  1  0  0  0  0
  3  4  2  0  0  0  0
  3  5  1  0  0  0  0
  5  6  1  0  0  0  0
  6  7  2  0  0  0  0
  2  7  1  0  0  0  0
  7  8  1  0  0  0  0
  8  9  1  0  0  0  0
  9 10  2  0  0  0  0
  9 11  1  0  0  0  0
 11 12  1  0  0  0  0
  6 12  1  0  0  0  0
 12 13  2  0  0  0  0
M  END
> <DATABASE_ID>
DB03293

> <DATABASE_NAME>
drugbank

> <SMILES>
CN1C(=O)NC2=C1NC(=O)NC2=O

> <INCHI_IDENTIFIER>
InChI=1S/C6H6N4O3/c1-10-3-2(7-6(10)13)4(11)9-5(12)8-3/h1H3,(H,7,13)(H2,8,9,11,12)

> <INCHI_KEY>
XJEJWDFDVPDMAS-UHFFFAOYSA-N

> <FORMULA>
C6H6N4O3

> <MOLECULAR_WEIGHT>
182.1368

> <EXACT_MASS>
182.043990078

> <JCHEM_ACCEPTOR_COUNT>
3

> <JCHEM_ATOM_COUNT>
19

> <JCHEM_AVERAGE_NEUTRAL_MICROSPECIES_CHARGE>
-0.3705106135605228

> <JCHEM_AVERAGE_POLARIZABILITY>
15.6735958640445

> <JCHEM_BIOAVAILABILITY>
1

> <JCHEM_DONOR_COUNT>
3

> <JCHEM_FORMAL_CHARGE>
0

> <JCHEM_GHOSE_FILTER>
0

> <JCHEM_IUPAC>
9-methyl-2,3,6,7,8,9-hexahydro-1H-purine-2,6,8-trione

> <ALOGPS_LOGP>
-1.05

> <JCHEM_LOGP>
-1.32051687

> <ALOGPS_LOGS>
-1.70

> <JCHEM_MDDR_LIKE_RULE>
0

> <JCHEM_NEUTRAL_CHARGE>
0

> <JCHEM_NUMBER_OF_RINGS>
2

> <JCHEM_PHYSIOLOGICAL_CHARGE>
-1

> <JCHEM_PKA>
9.170273572362209

> <JCHEM_PKA_STRONGEST_ACIDIC>
7.253180751274491

> <JCHEM_PKA_STRONGEST_BASIC>
-6.233892959187559

> <JCHEM_POLAR_SURFACE_AREA>
90.53999999999999

> <JCHEM_REFRACTIVITY>
50.525299999999994

> <JCHEM_ROTATABLE_BOND_COUNT>
0

> <JCHEM_RULE_OF_FIVE>
1

> <ALOGPS_SOLUBILITY>
3.60e+00 g/l

> <JCHEM_TRADITIONAL_IUPAC>
tetrahydrofolic acid

> <JCHEM_VEBER_RULE>
0

> <DRUGBANK_ID>
DB03293

> <SECONDARY_ACCESSION_NUMBERS>
EXPT02255

> <DRUG_GROUPS>
experimental

> <GENERIC_NAME>
9-Methyl Uric Acid

$$$$
