
  Mrv0541 08291403392D          

 22 23  0  0  0  0            999 V2000
   -2.0625   -1.7605    0.0000 C   0  0  0  0  0  0  0  0  0  0  0  0
    2.0625   -3.1895    0.0000 C   0  0  0  0  0  0  0  0  0  0  0  0
    2.8579    0.8250    0.0000 C   0  0  0  0  0  0  0  0  0  0  0  0
   -1.2375   -1.7605    0.0000 C   0  0  0  0  0  0  0  0  0  0  0  0
    1.2375   -3.1895    0.0000 C   0  0  0  0  0  0  0  0  0  0  0  0
    0.7145   -0.4125    0.0000 C   0  0  0  0  0  0  0  0  0  0  0  0
    1.4289    0.0000    0.0000 C   0  0  0  0  0  0  0  0  0  0  0  0
    1.4289   -1.6500    0.0000 C   0  0  0  0  0  0  0  0  0  0  0  0
    2.8579    0.0000    0.0000 C   0  0  0  0  0  0  0  0  0  0  0  0
    0.7145   -1.2375    0.0000 C   0  0  0  0  0  0  0  0  0  0  0  0
    2.1434   -0.4125    0.0000 C   0  0  0  0  0  0  0  0  0  0  0  0
    2.1434   -1.2375    0.0000 C   0  0  0  0  0  0  0  0  0  0  0  0
    3.5724   -0.4125    0.0000 C   0  0  0  0  0  0  0  0  0  0  0  0
    3.5724   -1.2375    0.0000 C   0  0  0  0  0  0  0  0  0  0  0  0
    4.2868   -0.0000    0.0000 Cl  0  0  0  0  0  0  0  0  0  0  0  0
    4.2868   -1.6500    0.0000 O   0  0  0  0  0  0  0  0  0  0  0  0
   -0.8250   -2.4750    0.0000 O   0  0  0  0  0  0  0  0  0  0  0  0
    0.8250   -2.4750    0.0000 O   0  0  0  0  0  0  0  0  0  0  0  0
    2.8579   -1.6500    0.0000 O   0  0  0  0  0  0  0  0  0  0  0  0
    0.0000   -1.6500    0.0000 O   0  0  0  0  0  0  0  0  0  0  0  0
    0.0000   -2.4750    0.0000 P   0  0  0  0  0  0  0  0  0  0  0  0
    0.0000   -3.3000    0.0000 S   0  0  0  0  0  0  0  0  0  0  0  0
  4  1  1  0  0  0  0
  5  2  1  0  0  0  0
  7  6  2  0  0  0  0
  9  3  1  0  0  0  0
 10  6  1  0  0  0  0
 10  8  2  0  0  0  0
 11  7  1  0  0  0  0
 11  9  1  0  0  0  0
 12  8  1  0  0  0  0
 12 11  2  0  0  0  0
 13  9  2  0  0  0  0
 14 13  1  0  0  0  0
 15 13  1  0  0  0  0
 16 14  2  0  0  0  0
 17  4  1  0  0  0  0
 18  5  1  0  0  0  0
 19 12  1  0  0  0  0
 19 14  1  0  0  0  0
 20 10  1  0  0  0  0
 21 17  1  0  0  0  0
 21 18  1  0  0  0  0
 21 20  1  0  0  0  0
 22 21  2  0  0  0  0
M  END
> <DATABASE_ID>
DB11390

> <DATABASE_NAME>
drugbank

> <SMILES>
CCOP(=S)(OCC)OC1=CC2=C(C=C1)C(C)=C(Cl)C(=O)O2

> <INCHI_IDENTIFIER>
InChI=1S/C14H16ClO5PS/c1-4-17-21(22,18-5-2)20-10-6-7-11-9(3)13(15)14(16)19-12(11)8-10/h6-8H,4-5H2,1-3H3

> <INCHI_KEY>
BXNANOICGRISHX-UHFFFAOYSA-N

> <FORMULA>
C14H16ClO5PS

> <MOLECULAR_WEIGHT>
362.766

> <EXACT_MASS>
362.014458531

> <JCHEM_ACCEPTOR_COUNT>
1

> <JCHEM_ATOM_COUNT>
38

> <JCHEM_AVERAGE_NEUTRAL_MICROSPECIES_CHARGE>
0.0

> <JCHEM_AVERAGE_POLARIZABILITY>
34.607097180215796

> <JCHEM_BIOAVAILABILITY>
1

> <JCHEM_DONOR_COUNT>
0

> <JCHEM_FORMAL_CHARGE>
0

> <JCHEM_GHOSE_FILTER>
1

> <JCHEM_IUPAC>
O-3-chloro-4-methyl-2-oxo-2H-chromen-7-yl O,O-diethyl phosphorothioate

> <ALOGPS_LOGP>
4.50

> <JCHEM_LOGP>
4.1455163420000005

> <ALOGPS_LOGS>
-5.39

> <JCHEM_MDDR_LIKE_RULE>
0

> <JCHEM_NEUTRAL_CHARGE>
0

> <JCHEM_NUMBER_OF_RINGS>
2

> <JCHEM_PHYSIOLOGICAL_CHARGE>
0

> <JCHEM_PKA_STRONGEST_BASIC>
-7.337543274952751

> <JCHEM_POLAR_SURFACE_AREA>
53.99000000000001

> <JCHEM_REFRACTIVITY>
89.92840000000002

> <JCHEM_ROTATABLE_BOND_COUNT>
6

> <JCHEM_RULE_OF_FIVE>
1

> <ALOGPS_SOLUBILITY>
1.48e-03 g/l

> <JCHEM_TRADITIONAL_IUPAC>
tetrahydrofolic acid

> <JCHEM_VEBER_RULE>
0

> <DRUGBANK_ID>
DB11390

> <DRUG_GROUPS>
vet_approved

> <GENERIC_NAME>
Coumaphos

> <SYNONYMS>
3-Chloro-4-methyl-7-coumarinyl diethyl phosphorothioate; 3-Chloro-4-methyl-7-hydroxycoumarin diethyl thiophosphoric acid ester; 3-Chloro-7-diethoxyphosphinothioyloxy-4-methylcoumarin; 3-Chloro-7-hydroxy-4-methyl-coumarin O,O-diethyl phosphorothioate; Coumafos; Coumaphos; O-(3-chloro-4-methyl-2-oxo-2H-chromen-7-yl) O,O-diethyl thiophosphate; O,O-Diethyl 3-chloro-4-methyl-7-umbelliferone thiophosphate; O,O-Diethyl O-(3-chloro-4-methyl-2-oxo-2H-1-benzopyran-7-yl)phosphorothioate; Phosphorothioic acid, O-(3-chloro-4-methyl-2-oxo-2H-1-benzopyran-7-yl) O,O-diethyl ester

> <INTERNATIONAL_BRANDS>
Meldane

$$$$
