
  Mrv0541 05061305092D          

 16 18  0  0  0  0            999 V2000
    0.2046   -1.1567    0.0000 C   0  0  0  0  0  0  0  0  0  0  0  0
    5.3194    0.6825    0.0000 C   0  0  0  0  0  0  0  0  0  0  0  0
    3.7054    1.0256    0.0000 C   0  0  0  0  0  0  0  0  0  0  0  0
    2.8985    1.1971    0.0000 C   0  0  0  0  0  0  0  0  0  0  0  0
    0.9694    1.1971    0.0000 C   0  0  0  0  0  0  0  0  0  0  0  0
    0.1624    1.0256    0.0000 C   0  0  0  0  0  0  0  0  0  0  0  0
    3.4084   -0.3721    0.0000 C   0  0  0  0  0  0  0  0  0  0  0  0
    0.4595   -0.3721    0.0000 C   0  0  0  0  0  0  0  0  0  0  0  0
    3.9604    0.2410    0.0000 C   0  0  0  0  0  0  0  0  0  0  0  0
    2.3464    0.5840    0.0000 C   0  0  0  0  0  0  0  0  0  0  0  0
    1.5214    0.5840    0.0000 C   0  0  0  0  0  0  0  0  0  0  0  0
    2.6014   -0.2006    0.0000 C   0  0  0  0  0  0  0  0  0  0  0  0
    1.2665   -0.2006    0.0000 C   0  0  0  0  0  0  0  0  0  0  0  0
   -0.0925    0.2410    0.0000 N   0  0  0  0  0  0  0  0  0  0  0  0
    1.9339   -0.6855    0.0000 N   0  0  0  0  0  0  0  0  0  0  0  0
    4.7674    0.0694    0.0000 O   0  0  0  0  0  0  0  0  0  0  0  0
  4  3  2  0  0  0  0
  6  5  1  0  0  0  0
  8  1  1  0  0  0  0
  9  3  1  0  0  0  0
  9  7  2  0  0  0  0
 10  4  1  0  0  0  0
 11  5  1  0  0  0  0
 11 10  1  0  0  0  0
 12  7  1  0  0  0  0
 12 10  2  0  0  0  0
 13  8  1  0  0  0  0
 13 11  2  0  0  0  0
 14  6  1  0  0  0  0
 14  8  2  0  0  0  0
 15 12  1  0  0  0  0
 15 13  1  0  0  0  0
 16  2  1  0  0  0  0
 16  9  1  0  0  0  0
M  END
> <DATABASE_ID>
DB13875

> <DATABASE_NAME>
drugbank

> <SMILES>
COC1=CC2=C(C=C1)C1=C(N2)C(C)=NCC1

> <INCHI_IDENTIFIER>
InChI=1S/C13H14N2O/c1-8-13-11(5-6-14-8)10-4-3-9(16-2)7-12(10)15-13/h3-4,7,15H,5-6H2,1-2H3

> <INCHI_KEY>
RERZNCLIYCABFS-UHFFFAOYSA-N

> <FORMULA>
C13H14N2O

> <MOLECULAR_WEIGHT>
214.2631

> <EXACT_MASS>
214.11061308

> <JCHEM_ACCEPTOR_COUNT>
2

> <JCHEM_ATOM_COUNT>
30

> <JCHEM_AVERAGE_NEUTRAL_MICROSPECIES_CHARGE>
0.9017682802347052

> <JCHEM_AVERAGE_POLARIZABILITY>
24.199848953968377

> <JCHEM_BIOAVAILABILITY>
1

> <JCHEM_DONOR_COUNT>
1

> <JCHEM_FORMAL_CHARGE>
0

> <JCHEM_GHOSE_FILTER>
1

> <JCHEM_IUPAC>
7-methoxy-1-methyl-3H,4H,9H-pyrido[3,4-b]indole

> <ALOGPS_LOGP>
2.61

> <JCHEM_LOGP>
1.668211271

> <ALOGPS_LOGS>
-3.57

> <JCHEM_MDDR_LIKE_RULE>
0

> <JCHEM_NEUTRAL_CHARGE>
1

> <JCHEM_NUMBER_OF_RINGS>
3

> <JCHEM_PHYSIOLOGICAL_CHARGE>
1

> <JCHEM_PKA_STRONGEST_ACIDIC>
14.95494727483797

> <JCHEM_PKA_STRONGEST_BASIC>
7.9628432176524795

> <JCHEM_POLAR_SURFACE_AREA>
37.379999999999995

> <JCHEM_REFRACTIVITY>
64.1514

> <JCHEM_ROTATABLE_BOND_COUNT>
1

> <JCHEM_RULE_OF_FIVE>
1

> <ALOGPS_SOLUBILITY>
5.76e-02 g/l

> <JCHEM_TRADITIONAL_IUPAC>
tetrahydrofolic acid

> <JCHEM_VEBER_RULE>
1

> <DRUGBANK_ID>
DB13875

> <DRUG_GROUPS>
experimental

> <GENERIC_NAME>
Harmaline

> <SALTS>
Harmaline hydrochloride; Harmaline hydrochloride dihydrate

$$$$
