
  Mrv0541 05041411122D          

 29 29  0  0  1  0            999 V2000
   -1.0164    0.7145    0.0000 C   0  0  0  0  0  0  0  0  0  0  0  0
    0.7145   -0.4125    0.0000 C   0  0  0  0  0  0  0  0  0  0  0  0
    1.4289    0.8250    0.0000 C   0  0  0  0  0  0  0  0  0  0  0  0
    1.4289    0.0000    0.0000 C   0  0  0  0  0  0  0  0  0  0  0  0
   -0.0000    0.0000    0.0000 C   0  0  2  0  0  0  0  0  0  0  0  0
    0.7145    1.2375    0.0000 C   0  0  2  0  0  0  0  0  0  0  0  0
    0.0000    0.8250    0.0000 C   0  0  1  0  0  0  0  0  0  0  0  0
    2.1434   -0.4125    0.0000 C   0  0  0  0  0  0  0  0  0  0  0  0
   -1.8414   -0.7145    0.0000 C   0  0  0  0  0  0  0  0  0  0  0  0
   -1.4289    0.0000    0.0000 C   0  0  2  0  0  0  0  0  0  0  0  0
   -0.7145    1.2375    0.0000 O   0  0  0  0  0  0  0  0  0  0  0  0
    2.8579    0.0000    0.0000 O   0  0  0  0  0  0  0  0  0  0  0  0
    2.1434   -1.2375    0.0000 O   0  0  0  0  0  0  0  0  0  0  0  0
   -1.4289   -1.4289    0.0000 O   0  0  0  0  0  0  0  0  0  0  0  0
   -2.6664   -0.7145    0.0000 O   0  0  0  0  0  0  0  0  0  0  0  0
    2.1434    2.8875    0.0000 O   0  0  0  0  0  0  0  0  0  0  0  0
    1.0164    3.1895    0.0000 O   0  0  0  0  0  0  0  0  0  0  0  0
    1.8414    1.7605    0.0000 O   0  0  0  0  0  0  0  0  0  0  0  0
   -2.9684    1.2375    0.0000 O   0  0  0  0  0  0  0  0  0  0  0  0
   -2.1434    2.0625    0.0000 O   0  0  0  0  0  0  0  0  0  0  0  0
   -1.3184    1.2375    0.0000 O   0  0  0  0  0  0  0  0  0  0  0  0
   -0.7145   -0.4125    0.0000 O   0  0  0  0  0  0  0  0  0  0  0  0
    0.7145    2.0625    0.0000 O   0  0  0  0  0  0  0  0  0  0  0  0
   -2.1434    0.4125    0.0000 O   0  0  0  0  0  0  0  0  0  0  0  0
    1.4289    2.4750    0.0000 P   0  0  0  0  0  0  0  0  0  0  0  0
   -2.1434    1.2375    0.0000 P   0  0  0  0  0  0  0  0  0  0  0  0
   -0.0000   -0.8250    0.0000 H   0  0  0  0  0  0  0  0  0  0  0  0
    1.4289    1.6500    0.0000 H   0  0  0  0  0  0  0  0  0  0  0  0
   -0.7145    0.4125    0.0000 H   0  0  0  0  0  0  0  0  0  0  0  0
  4  2  1  0  0  0  0
  4  3  2  0  0  0  0
  5  2  1  0  0  0  0
  6  3  1  0  0  0  0
  7  5  1  0  0  0  0
  7  6  1  0  0  0  0
  8  4  1  0  0  0  0
 10  1  1  1  0  0  0
 10  9  1  0  0  0  0
  7 11  1  6  0  0  0
 12  8  2  0  0  0  0
 13  8  1  0  0  0  0
 14  9  2  0  0  0  0
 15  9  1  0  0  0  0
  5 22  1  1  0  0  0
 10 22  1  6  0  0  0
  6 23  1  6  0  0  0
 24 10  1  0  0  0  0
 25 16  1  0  0  0  0
 25 17  1  0  0  0  0
 25 18  2  0  0  0  0
 25 23  1  0  0  0  0
 26 19  1  0  0  0  0
 26 20  1  0  0  0  0
 26 21  2  0  0  0  0
 26 24  1  0  0  0  0
  5 27  1  6  0  0  0
  6 28  1  1  0  0  0
  7 29  1  1  0  0  0
M  END
> <DATABASE_ID>
DB03116

> <DATABASE_NAME>
drugbank

> <SMILES>
[H][C@]1(CC(=C[C@@]([H])(OP(O)(O)=O)[C@@]1([H])O)C(O)=O)O[C@@](C)(OP(O)(O)=O)C(O)=O

> <INCHI_IDENTIFIER>
InChI=1S/C10H16O14P2/c1-10(9(14)15,24-26(19,20)21)22-5-2-4(8(12)13)3-6(7(5)11)23-25(16,17)18/h3,5-7,11H,2H2,1H3,(H,12,13)(H,14,15)(H2,16,17,18)(H2,19,20,21)/t5-,6-,7+,10+/m1/s1

> <INCHI_KEY>
QUQKBSPZUVNKIF-JQCUSGDOSA-N

> <FORMULA>
C10H16O14P2

> <MOLECULAR_WEIGHT>
422.1732

> <EXACT_MASS>
422.001528244

> <JCHEM_ACCEPTOR_COUNT>
12

> <JCHEM_ATOM_COUNT>
42

> <JCHEM_AVERAGE_NEUTRAL_MICROSPECIES_CHARGE>
-5.714760356436504

> <JCHEM_AVERAGE_POLARIZABILITY>
32.55247593018507

> <JCHEM_BIOAVAILABILITY>
0

> <JCHEM_DONOR_COUNT>
7

> <JCHEM_FORMAL_CHARGE>
0

> <JCHEM_GHOSE_FILTER>
0

> <JCHEM_IUPAC>
(3R,4S,5R)-5-[(1S)-1-carboxy-1-(phosphonooxy)ethoxy]-4-hydroxy-3-(phosphonooxy)cyclohex-1-ene-1-carboxylic acid

> <ALOGPS_LOGP>
-1.32

> <JCHEM_LOGP>
-1.5778791083333334

> <ALOGPS_LOGS>
-1.73

> <JCHEM_MDDR_LIKE_RULE>
0

> <JCHEM_NEUTRAL_CHARGE>
-6

> <JCHEM_NUMBER_OF_RINGS>
1

> <JCHEM_PHYSIOLOGICAL_CHARGE>
-6

> <JCHEM_PKA>
1.4318761611447859

> <JCHEM_PKA_STRONGEST_ACIDIC>
0.7214472131848659

> <JCHEM_PKA_STRONGEST_BASIC>
-3.6301358536328903

> <JCHEM_POLAR_SURFACE_AREA>
237.57999999999993

> <JCHEM_REFRACTIVITY>
77.7438

> <JCHEM_ROTATABLE_BOND_COUNT>
8

> <JCHEM_RULE_OF_FIVE>
0

> <ALOGPS_SOLUBILITY>
7.87e+00 g/l

> <JCHEM_TRADITIONAL_IUPAC>
tetrahydrofolic acid

> <JCHEM_VEBER_RULE>
0

> <DRUGBANK_ID>
DB03116

> <SECONDARY_ACCESSION_NUMBERS>
EXPT02914

> <DRUG_GROUPS>
experimental

> <GENERIC_NAME>
5-(1-Carboxy-1-Phosphonooxy-Ethoxyl)-Shikimate-3-Phosphate

$$$$
