
  Mrv0541 02251208162D          

 63 63  0  0  0  0            999 V2000
   28.4576  -15.3793    0.0000 C   0  0  0  0  0  0  0  0  0  0  0  0
   27.6326  -15.3793    0.0000 O   0  0  0  0  0  0  0  0  0  0  0  0
   27.2205  -14.6647    0.0000 C   0  0  0  0  0  0  0  0  0  0  0  0
   27.6326  -13.9500    0.0000 C   0  0  0  0  0  0  0  0  0  0  0  0
   28.4576  -13.9500    0.0000 O   0  0  0  0  0  0  0  0  0  0  0  0
   27.2205  -13.2353    0.0000 C   0  0  0  0  0  0  0  0  0  0  0  0
   27.6326  -12.5206    0.0000 C   0  0  0  0  0  0  0  0  0  0  0  0
   26.3948  -13.2353    0.0000 C   0  0  0  0  0  0  0  0  0  0  0  0
   25.9827  -12.5206    0.0000 C   0  0  0  0  0  0  0  0  0  0  0  0
   25.1577  -12.5206    0.0000 C   0  0  0  0  0  0  0  0  0  0  0  0
   24.7449  -11.8066    0.0000 C   0  0  0  0  0  0  0  0  0  0  0  0
   25.1577  -11.0919    0.0000 C   0  0  0  0  0  0  0  0  0  0  0  0
   23.9200  -11.8066    0.0000 C   0  0  0  0  0  0  0  0  0  0  0  0
   23.5072  -12.5206    0.0000 C   0  0  0  0  0  0  0  0  0  0  0  0
   22.6822  -12.5206    0.0000 C   0  0  0  0  0  0  0  0  0  0  0  0
   22.2694  -13.2353    0.0000 C   0  0  0  0  0  0  0  0  0  0  0  0
   22.6815  -13.9500    0.0000 C   0  0  0  0  0  0  0  0  0  0  0  0
   21.4437  -13.2347    0.0000 C   0  0  0  0  0  0  0  0  0  0  0  0
   21.0309  -13.9487    0.0000 C   0  0  0  0  0  0  0  0  0  0  0  0
   20.2060  -13.9487    0.0000 C   0  0  0  0  0  0  0  0  0  0  0  0
   19.7925  -14.6628    0.0000 C   0  0  0  0  0  0  0  0  0  0  0  0
   20.6150  -16.0928    0.0000 C   0  0  0  0  0  0  0  0  0  0  0  0
   18.1426  -14.6597    0.0000 C   0  0  0  0  0  0  0  0  0  0  0  0
   17.9353  -15.0164    0.0000 C   0  0  0  0  0  0  0  0  0  0  0  0
   17.1103  -15.0145    0.0000 C   0  0  0  0  0  0  0  0  0  0  0  0
   16.6962  -15.7279    0.0000 C   0  0  0  0  0  0  0  0  0  0  0  0
   17.1071  -16.4432    0.0000 C   0  0  0  0  0  0  0  0  0  0  0  0
   15.8719  -15.7254    0.0000 C   0  0  0  0  0  0  0  0  0  0  0  0
   15.4616  -15.0088    0.0000 C   0  0  0  0  0  0  0  0  0  0  0  0
   14.6366  -15.0063    0.0000 C   0  0  0  0  0  0  0  0  0  0  0  0
   14.2251  -14.2909    0.0000 C   0  0  0  0  0  0  0  0  0  0  0  0
   14.6404  -13.5769    0.0000 C   0  0  0  0  0  0  0  0  0  0  0  0
   13.4008  -14.2885    0.0000 C   0  0  0  0  0  0  0  0  0  0  0  0
   12.9854  -15.0006    0.0000 C   0  0  0  0  0  0  0  0  0  0  0  0
   12.1604  -14.9987    0.0000 C   0  0  0  0  0  0  0  0  0  0  0  0
   11.7464  -15.7115    0.0000 C   0  0  0  0  0  0  0  0  0  0  0  0
   12.1572  -16.4274    0.0000 C   0  0  0  0  0  0  0  0  0  0  0  0
   10.9220  -15.7109    0.0000 C   0  0  0  0  0  0  0  0  0  0  0  0
   10.5092  -16.4268    0.0000 C   0  0  0  0  0  0  0  0  0  0  0  0
    9.6849  -16.4268    0.0000 C   0  0  0  0  0  0  0  0  0  0  0  0
    9.2727  -17.1415    0.0000 C   0  0  0  0  0  0  0  0  0  0  0  0
    9.6855  -17.8562    0.0000 C   0  0  0  0  0  0  0  0  0  0  0  0
    8.4470  -17.1422    0.0000 C   0  0  0  0  0  0  0  0  0  0  0  0
    8.0343  -16.4281    0.0000 C   0  0  0  0  0  0  0  0  0  0  0  0
    7.6227  -16.4287    0.0000 C   0  0  0  0  0  0  0  0  0  0  0  0
    7.2094  -15.7140    0.0000 C   0  0  0  0  0  0  0  0  0  0  0  0
    7.6208  -15.0000    0.0000 C   0  0  0  0  0  0  0  0  0  0  0  0
    6.3837  -15.7147    0.0000 C   0  0  0  0  0  0  0  0  0  0  0  0
    5.9716  -16.4294    0.0000 C   0  0  0  0  0  0  0  0  0  0  0  0
    5.1459  -16.4306    0.0000 C   0  0  0  0  0  0  0  0  0  0  0  0
    4.7350  -17.1459    0.0000 C   0  0  0  0  0  0  0  0  0  0  0  0
    5.1491  -17.8600    0.0000 C   0  0  0  0  0  0  0  0  0  0  0  0
    3.9094  -17.1490    0.0000 C   0  0  0  0  0  0  0  0  0  0  0  0
    3.4947  -16.4356    0.0000 C   0  0  0  0  0  0  0  0  0  0  0  0
    2.6704  -16.4388    0.0000 C   0  0  0  0  0  0  0  0  0  0  0  0
    2.2544  -15.7260    0.0000 C   0  0  0  0  0  0  0  0  0  0  0  0
    1.4301  -15.7310    0.0000 C   0  0  0  0  0  0  0  0  0  0  0  0
    2.6628  -15.0094    0.0000 C   0  0  0  0  0  0  0  0  0  0  0  0
   25.9827  -13.9500    0.0000 C   0  0  0  0  0  0  0  0  0  0  0  0
   25.1577  -13.9500    0.0000 O   0  0  0  0  0  0  0  0  0  0  0  0
   26.3948  -14.6647    0.0000 C   0  0  0  0  0  0  0  0  0  0  0  0
   25.9827  -15.3793    0.0000 O   0  0  0  0  0  0  0  0  0  0  0  0
   25.1577  -15.3793    0.0000 C   0  0  0  0  0  0  0  0  0  0  0  0
  1  2  1  0  0  0  0
  2  3  1  0  0  0  0
  3  4  1  0  0  0  0
  3 61  2  0  0  0  0
  4  5  1  0  0  0  0
  4  6  2  0  0  0  0
  6  7  1  0  0  0  0
  6  8  1  0  0  0  0
  8  9  1  0  0  0  0
  8 59  2  0  0  0  0
  9 10  1  0  0  0  0
 10 11  2  0  0  0  0
 11 12  1  0  0  0  0
 11 13  1  0  0  0  0
 13 14  1  0  0  0  0
 14 15  1  0  0  0  0
 15 16  2  0  0  0  0
 16 17  1  0  0  0  0
 16 18  1  0  0  0  0
 18 19  1  0  0  0  0
 19 20  1  0  0  0  0
 20 21  2  0  0  0  0
 21 22  1  0  0  0  0
 21 23  1  0  0  0  0
 23 24  1  0  0  0  0
 24 25  1  0  0  0  0
 25 26  2  0  0  0  0
 26 27  1  0  0  0  0
 26 28  1  0  0  0  0
 28 29  1  0  0  0  0
 29 30  1  0  0  0  0
 30 31  2  0  0  0  0
 31 32  1  0  0  0  0
 31 33  1  0  0  0  0
 33 34  1  0  0  0  0
 34 35  1  0  0  0  0
 35 36  2  0  0  0  0
 36 37  1  0  0  0  0
 36 38  1  0  0  0  0
 38 39  1  0  0  0  0
 39 40  1  0  0  0  0
 40 41  2  0  0  0  0
 41 42  1  0  0  0  0
 41 43  1  0  0  0  0
 43 44  1  0  0  0  0
 44 45  1  0  0  0  0
 45 46  2  0  0  0  0
 46 47  1  0  0  0  0
 46 48  1  0  0  0  0
 48 49  1  0  0  0  0
 49 50  1  0  0  0  0
 50 51  2  0  0  0  0
 51 52  1  0  0  0  0
 51 53  1  0  0  0  0
 53 54  1  0  0  0  0
 54 55  1  0  0  0  0
 55 56  2  0  0  0  0
 56 57  1  0  0  0  0
 56 58  1  0  0  0  0
 59 60  1  0  0  0  0
 59 61  1  0  0  0  0
 61 62  1  0  0  0  0
 62 63  1  0  0  0  0
M  END
> <DATABASE_ID>
DB11340

> <DATABASE_NAME>
drugbank

> <SMILES>
COC1=C(OC)C(O)=C(C\C=C(/C)CC\C=C(/C)CC\C=C(/C)CC\C=C(/C)CC\C=C(/C)CC\C=C(/C)CC\C=C(/C)CC\C=C(/C)CC\C=C(/C)CCC=C(C)C)C(C)=C1O

> <INCHI_IDENTIFIER>
InChI=1S/C59H92O4/c1-44(2)24-15-25-45(3)26-16-27-46(4)28-17-29-47(5)30-18-31-48(6)32-19-33-49(7)34-20-35-50(8)36-21-37-51(9)38-22-39-52(10)40-23-41-53(11)42-43-55-54(12)56(60)58(62-13)59(63-14)57(55)61/h24,26,28,30,32,34,36,38,40,42,60-61H,15-23,25,27,29,31,33,35,37,39,41,43H2,1-14H3/b45-26+,46-28+,47-30+,48-32+,49-34+,50-36+,51-38+,52-40+,53-42+

> <INCHI_KEY>
QNTNKSLOFHEFPK-UPTCCGCDSA-N

> <FORMULA>
C59H92O4

> <MOLECULAR_WEIGHT>
865.3594

> <EXACT_MASS>
864.699561432

> <JCHEM_ACCEPTOR_COUNT>
4

> <JCHEM_ATOM_COUNT>
155

> <JCHEM_AVERAGE_NEUTRAL_MICROSPECIES_CHARGE>
-0.0005512591728148452

> <JCHEM_AVERAGE_POLARIZABILITY>
112.45910522325084

> <JCHEM_BIOAVAILABILITY>
0

> <JCHEM_DONOR_COUNT>
2

> <JCHEM_FORMAL_CHARGE>
0

> <JCHEM_GHOSE_FILTER>
0

> <JCHEM_IUPAC>
2-[(2E,6E,10E,14E,18E,22E,26E,30E,34E)-3,7,11,15,19,23,27,31,35,39-decamethyltetraconta-2,6,10,14,18,22,26,30,34,38-decaen-1-yl]-5,6-dimethoxy-3-methylbenzene-1,4-diol

> <ALOGPS_LOGP>
9.68

> <JCHEM_LOGP>
18.230189505000002

> <ALOGPS_LOGS>
-6.57

> <JCHEM_MDDR_LIKE_RULE>
0

> <JCHEM_NEUTRAL_CHARGE>
0

> <JCHEM_NUMBER_OF_RINGS>
1

> <JCHEM_PHYSIOLOGICAL_CHARGE>
0

> <JCHEM_PKA>
12.153761006645082

> <JCHEM_PKA_STRONGEST_ACIDIC>
10.266548299637904

> <JCHEM_PKA_STRONGEST_BASIC>
-4.664919089384427

> <JCHEM_POLAR_SURFACE_AREA>
58.92

> <JCHEM_REFRACTIVITY>
286.4536

> <JCHEM_ROTATABLE_BOND_COUNT>
31

> <JCHEM_RULE_OF_FIVE>
0

> <ALOGPS_SOLUBILITY>
2.33e-04 g/l

> <JCHEM_TRADITIONAL_IUPAC>
biotin

> <JCHEM_VEBER_RULE>
0

> <DRUGBANK_ID>
DB11340

> <DRUG_GROUPS>
approved; investigational

> <GENERIC_NAME>
Ubiquinol

> <PRODUCTS>
Co-Balamin; Co-Veratrol

$$$$
