
  Mrv0541 02231216062D          

  8  8  0  0  0  0            999 V2000
    2.1434   -0.4125    0.0000 N   0  0  0  0  0  0  0  0  0  0  0  0
    1.4289    0.0000    0.0000 C   0  0  0  0  0  0  0  0  0  0  0  0
    0.7145   -0.4125    0.0000 C   0  0  0  0  0  0  0  0  0  0  0  0
    0.0000    0.0000    0.0000 N   0  0  0  0  0  0  0  0  0  0  0  0
    0.0000    0.8250    0.0000 C   0  0  0  0  0  0  0  0  0  0  0  0
    0.7145    1.2375    0.0000 C   0  0  0  0  0  0  0  0  0  0  0  0
    0.7145    2.0625    0.0000 Cl  0  0  0  0  0  0  0  0  0  0  0  0
    1.4289    0.8250    0.0000 N   0  0  0  0  0  0  0  0  0  0  0  0
  1  2  1  0  0  0  0
  2  3  2  0  0  0  0
  3  4  1  0  0  0  0
  4  5  2  0  0  0  0
  5  6  1  0  0  0  0
  6  7  1  0  0  0  0
  6  8  2  0  0  0  0
  2  8  1  0  0  0  0
M  END
> <DATABASE_ID>
DB02297

> <DATABASE_NAME>
drugbank

> <SMILES>
NC1=CN=CC(Cl)=N1

> <INCHI_IDENTIFIER>
InChI=1S/C4H4ClN3/c5-3-1-7-2-4(6)8-3/h1-2H,(H2,6,8)

> <INCHI_KEY>
JTPXVCKCLBROOJ-UHFFFAOYSA-N

> <FORMULA>
C4H4ClN3

> <MOLECULAR_WEIGHT>
129.548

> <EXACT_MASS>
129.00937485

> <JCHEM_ACCEPTOR_COUNT>
3

> <JCHEM_ATOM_COUNT>
12

> <JCHEM_AVERAGE_NEUTRAL_MICROSPECIES_CHARGE>
2.0689570517452284e-07

> <JCHEM_AVERAGE_POLARIZABILITY>
11.252862944709026

> <JCHEM_BIOAVAILABILITY>
1

> <JCHEM_DONOR_COUNT>
1

> <JCHEM_FORMAL_CHARGE>
0

> <JCHEM_GHOSE_FILTER>
0

> <JCHEM_IUPAC>
6-chloropyrazin-2-amine

> <ALOGPS_LOGP>
0.63

> <JCHEM_LOGP>
0.12765439133333328

> <ALOGPS_LOGS>
-0.37

> <JCHEM_MDDR_LIKE_RULE>
0

> <JCHEM_NEUTRAL_CHARGE>
0

> <JCHEM_NUMBER_OF_RINGS>
1

> <JCHEM_PHYSIOLOGICAL_CHARGE>
0

> <JCHEM_PKA_STRONGEST_ACIDIC>
19.584288834228516

> <JCHEM_PKA_STRONGEST_BASIC>
0.43996793116969873

> <JCHEM_POLAR_SURFACE_AREA>
51.8

> <JCHEM_REFRACTIVITY>
32.624199999999995

> <JCHEM_ROTATABLE_BOND_COUNT>
0

> <JCHEM_RULE_OF_FIVE>
1

> <ALOGPS_SOLUBILITY>
5.59e+01 g/l

> <JCHEM_TRADITIONAL_IUPAC>
biotin

> <JCHEM_VEBER_RULE>
0

> <DRUGBANK_ID>
DB02297

> <SECONDARY_ACCESSION_NUMBERS>
EXPT00917

> <DRUG_GROUPS>
experimental

> <GENERIC_NAME>
2-Amino-6-Chloropyrazine

$$$$
