
  Mrv0541 05041413572D          

 23 24  0  0  0  0            999 V2000
    4.2086    2.6841    0.0000 C   0  0  0  0  0  0  0  0  0  0  0  0
    0.0783    2.6841    0.0000 C   0  0  0  0  0  0  0  0  0  0  0  0
    3.5955    3.2361    0.0000 C   0  0  0  0  0  0  0  0  0  0  0  0
    0.6914    3.2361    0.0000 C   0  0  0  0  0  0  0  0  0  0  0  0
    1.2460    1.5291    0.0000 C   0  0  0  0  0  0  0  0  0  0  0  0
    0.4255    1.6153    0.0000 C   0  0  0  0  0  0  0  0  0  0  0  0
    4.2868    5.5286    0.0000 C   0  0  0  0  0  0  0  0  0  0  0  0
    2.8579    5.5286    0.0000 C   0  0  0  0  0  0  0  0  0  0  0  0
    3.5724    4.2911    0.0000 C   0  0  0  0  0  0  0  0  0  0  0  0
    3.5724    6.7661    0.0000 C   0  0  0  0  0  0  0  0  0  0  0  0
    5.0013    4.2911    0.0000 C   0  0  0  0  0  0  0  0  0  0  0  0
    3.5724    5.9411    0.0000 C   0  0  0  0  0  0  0  0  0  0  0  0
    4.2868    4.7036    0.0000 C   0  0  0  0  0  0  0  0  0  0  0  0
    2.8579    4.7036    0.0000 C   0  0  0  0  0  0  0  0  0  0  0  0
    2.8109    2.9812    0.0000 C   0  0  0  0  0  0  0  0  0  0  0  0
    1.4760    2.9812    0.0000 C   0  0  0  0  0  0  0  0  0  0  0  0
    2.1434    3.4661    0.0000 C   0  0  0  0  0  0  0  0  0  0  0  0
    3.5724    7.5911    0.0000 N   0  0  0  0  0  0  0  0  0  0  0  0
    5.7158    3.8786    0.0000 N   0  0  0  0  0  0  0  0  0  0  0  0
    2.5559    2.1965    0.0000 N   0  0  0  0  0  0  0  0  0  0  0  0
    1.7309    2.1965    0.0000 N   0  0  0  0  0  0  0  0  0  0  0  0
   -0.0594    0.9479    0.0000 O   0  0  0  0  0  0  0  0  0  0  0  0
    2.1434    4.2911    0.0000 O   0  0  0  0  0  0  0  0  0  0  0  0
  3  1  1  0  0  0  0
  4  2  1  0  0  0  0
  6  5  1  0  0  0  0
 12  7  2  0  0  0  0
 12  8  1  0  0  0  0
 12 10  1  0  0  0  0
 13  7  1  0  0  0  0
 13  9  2  0  0  0  0
 13 11  1  0  0  0  0
 14  8  2  0  0  0  0
 14  9  1  0  0  0  0
 15  3  1  0  0  0  0
 16  4  1  0  0  0  0
 17 15  1  0  0  0  0
 17 16  2  0  0  0  0
 18 10  3  0  0  0  0
 19 11  3  0  0  0  0
 20 15  2  0  0  0  0
 21  5  1  0  0  0  0
 21 16  1  0  0  0  0
 21 20  1  0  0  0  0
 22  6  1  0  0  0  0
 23 14  1  0  0  0  0
 23 17  1  0  0  0  0
M  END
> <DATABASE_ID>
DB11649

> <DATABASE_NAME>
drugbank

> <SMILES>
CCC1=NN(CCO)C(CC)=C1OC1=CC(=CC(=C1)C#N)C#N

> <INCHI_IDENTIFIER>
InChI=1S/C17H18N4O2/c1-3-15-17(16(4-2)21(20-15)5-6-22)23-14-8-12(10-18)7-13(9-14)11-19/h7-9,22H,3-6H2,1-2H3

> <INCHI_KEY>
MCPUZZJBAHRIPO-UHFFFAOYSA-N

> <FORMULA>
C17H18N4O2

> <MOLECULAR_WEIGHT>
310.3504

> <EXACT_MASS>
310.14297584

> <JCHEM_ACCEPTOR_COUNT>
4

> <JCHEM_ATOM_COUNT>
41

> <JCHEM_AVERAGE_NEUTRAL_MICROSPECIES_CHARGE>
1.5652205904922505e-05

> <JCHEM_AVERAGE_POLARIZABILITY>
33.29000565177032

> <JCHEM_BIOAVAILABILITY>
1

> <JCHEM_DONOR_COUNT>
1

> <JCHEM_FORMAL_CHARGE>
0

> <JCHEM_GHOSE_FILTER>
1

> <JCHEM_IUPAC>
5-{[3,5-diethyl-1-(2-hydroxyethyl)-1H-pyrazol-4-yl]oxy}benzene-1,3-dicarbonitrile

> <ALOGPS_LOGP>
2.55

> <JCHEM_LOGP>
2.4774731553333336

> <ALOGPS_LOGS>
-3.32

> <JCHEM_MDDR_LIKE_RULE>
0

> <JCHEM_NEUTRAL_CHARGE>
0

> <JCHEM_NUMBER_OF_RINGS>
2

> <JCHEM_PHYSIOLOGICAL_CHARGE>
0

> <JCHEM_PKA_STRONGEST_ACIDIC>
15.389179691547652

> <JCHEM_PKA_STRONGEST_BASIC>
2.1946898552030776

> <JCHEM_POLAR_SURFACE_AREA>
94.86000000000001

> <JCHEM_REFRACTIVITY>
97.82980000000002

> <JCHEM_ROTATABLE_BOND_COUNT>
6

> <JCHEM_RULE_OF_FIVE>
1

> <ALOGPS_SOLUBILITY>
1.50e-01 g/l

> <JCHEM_TRADITIONAL_IUPAC>
tetrahydrofolic acid

> <JCHEM_VEBER_RULE>
0

> <DRUGBANK_ID>
DB11649

> <DRUG_GROUPS>
investigational

> <GENERIC_NAME>
Lersivirine

> <SYNONYMS>
Lersivirine

$$$$
