
  Mrv0541 02231217012D          

  9  9  0  0  0  0            999 V2000
    2.1434    1.2375    0.0000 I   0  0  0  0  0  0  0  0  0  0  0  0
    1.4289    0.8250    0.0000 C   0  0  0  0  0  0  0  0  0  0  0  0
    1.4289    0.0000    0.0000 C   0  0  0  0  0  0  0  0  0  0  0  0
    0.7145   -0.4125    0.0000 N   0  0  0  0  0  0  0  0  0  0  0  0
    0.0000    0.0000    0.0000 C   0  0  0  0  0  0  0  0  0  0  0  0
   -0.7145   -0.4125    0.0000 O   0  0  0  0  0  0  0  0  0  0  0  0
    0.0000    0.8250    0.0000 N   0  0  0  0  0  0  0  0  0  0  0  0
    0.7145    1.2375    0.0000 C   0  0  0  0  0  0  0  0  0  0  0  0
    0.7145    2.0625    0.0000 O   0  0  0  0  0  0  0  0  0  0  0  0
  1  2  1  0  0  0  0
  2  3  2  0  0  0  0
  3  4  1  0  0  0  0
  4  5  1  0  0  0  0
  5  6  2  0  0  0  0
  5  7  1  0  0  0  0
  7  8  1  0  0  0  0
  2  8  1  0  0  0  0
  8  9  2  0  0  0  0
M  END
> <DATABASE_ID>
DB03554

> <DATABASE_NAME>
drugbank

> <SMILES>
IC1=CNC(=O)NC1=O

> <INCHI_IDENTIFIER>
InChI=1S/C4H3IN2O2/c5-2-1-6-4(9)7-3(2)8/h1H,(H2,6,7,8,9)

> <INCHI_KEY>
KSNXJLQDQOIRIP-UHFFFAOYSA-N

> <FORMULA>
C4H3IN2O2

> <MOLECULAR_WEIGHT>
237.9833

> <EXACT_MASS>
237.92392077

> <JCHEM_ACCEPTOR_COUNT>
2

> <JCHEM_ATOM_COUNT>
12

> <JCHEM_AVERAGE_NEUTRAL_MICROSPECIES_CHARGE>
-0.21844667699090234

> <JCHEM_AVERAGE_POLARIZABILITY>
14.654516345734894

> <JCHEM_BIOAVAILABILITY>
1

> <JCHEM_DONOR_COUNT>
2

> <JCHEM_FORMAL_CHARGE>
0

> <JCHEM_GHOSE_FILTER>
0

> <JCHEM_IUPAC>
5-iodo-1,2,3,4-tetrahydropyrimidine-2,4-dione

> <ALOGPS_LOGP>
-0.07

> <JCHEM_LOGP>
0.13039445200000005

> <ALOGPS_LOGS>
-1.47

> <JCHEM_MDDR_LIKE_RULE>
0

> <JCHEM_NEUTRAL_CHARGE>
0

> <JCHEM_NUMBER_OF_RINGS>
1

> <JCHEM_PHYSIOLOGICAL_CHARGE>
0

> <JCHEM_PKA>
12.464479235589506

> <JCHEM_PKA_STRONGEST_ACIDIC>
7.553621986566434

> <JCHEM_PKA_STRONGEST_BASIC>
-6.633152142186551

> <JCHEM_POLAR_SURFACE_AREA>
58.2

> <JCHEM_REFRACTIVITY>
39.31830000000001

> <JCHEM_ROTATABLE_BOND_COUNT>
0

> <JCHEM_RULE_OF_FIVE>
1

> <ALOGPS_SOLUBILITY>
8.12e+00 g/l

> <JCHEM_TRADITIONAL_IUPAC>
tetrahydrofolic acid

> <JCHEM_VEBER_RULE>
0

> <DRUGBANK_ID>
DB03554

> <SECONDARY_ACCESSION_NUMBERS>
EXPT01946

> <DRUG_GROUPS>
experimental

> <GENERIC_NAME>
5-Iodouracil

$$$$
