
  Mrv0541 05041409232D          

 55 54  0  0  1  0            999 V2000
  -12.9789   -7.1447    0.0000 C   0  0  0  0  0  0  0  0  0  0  0  0
   14.8854   -6.7322    0.0000 C   0  0  0  0  0  0  0  0  0  0  0  0
    3.7855  -11.0487    0.0000 C   0  0  0  0  0  0  0  0  0  0  0  0
    5.2144  -10.2237    0.0000 C   0  0  0  0  0  0  0  0  0  0  0  0
    4.9124  -11.3506    0.0000 C   0  0  0  0  0  0  0  0  0  0  0  0
  -12.2645   -6.7322    0.0000 C   0  0  0  0  0  0  0  0  0  0  0  0
   14.1710   -7.1447    0.0000 C   0  0  0  0  0  0  0  0  0  0  0  0
  -11.5500   -7.1447    0.0000 C   0  0  0  0  0  0  0  0  0  0  0  0
   13.4565   -6.7322    0.0000 C   0  0  0  0  0  0  0  0  0  0  0  0
  -10.8355   -6.7322    0.0000 C   0  0  0  0  0  0  0  0  0  0  0  0
   12.7420   -7.1447    0.0000 C   0  0  0  0  0  0  0  0  0  0  0  0
  -10.1211   -7.1447    0.0000 C   0  0  0  0  0  0  0  0  0  0  0  0
   12.0275   -6.7322    0.0000 C   0  0  0  0  0  0  0  0  0  0  0  0
   -9.4066   -6.7322    0.0000 C   0  0  0  0  0  0  0  0  0  0  0  0
   11.3131   -7.1447    0.0000 C   0  0  0  0  0  0  0  0  0  0  0  0
   -8.6921   -7.1447    0.0000 C   0  0  0  0  0  0  0  0  0  0  0  0
   10.5986   -6.7322    0.0000 C   0  0  0  0  0  0  0  0  0  0  0  0
   -7.9776   -6.7322    0.0000 C   0  0  0  0  0  0  0  0  0  0  0  0
    9.8841   -7.1447    0.0000 C   0  0  0  0  0  0  0  0  0  0  0  0
   -7.2632   -7.1447    0.0000 C   0  0  0  0  0  0  0  0  0  0  0  0
    9.1697   -6.7322    0.0000 C   0  0  0  0  0  0  0  0  0  0  0  0
   -6.5487   -6.7322    0.0000 C   0  0  0  0  0  0  0  0  0  0  0  0
    8.4552   -7.1447    0.0000 C   0  0  0  0  0  0  0  0  0  0  0  0
   -5.8342   -7.1447    0.0000 C   0  0  0  0  0  0  0  0  0  0  0  0
    7.7407   -6.7322    0.0000 C   0  0  0  0  0  0  0  0  0  0  0  0
   -5.1198   -6.7322    0.0000 C   0  0  0  0  0  0  0  0  0  0  0  0
    7.0262   -7.1447    0.0000 C   0  0  0  0  0  0  0  0  0  0  0  0
   -4.4053   -7.1447    0.0000 C   0  0  0  0  0  0  0  0  0  0  0  0
    6.3118   -6.7322    0.0000 C   0  0  0  0  0  0  0  0  0  0  0  0
   -3.6908   -6.7322    0.0000 C   0  0  0  0  0  0  0  0  0  0  0  0
    5.5973   -7.1447    0.0000 C   0  0  0  0  0  0  0  0  0  0  0  0
   -2.9763   -7.1447    0.0000 C   0  0  0  0  0  0  0  0  0  0  0  0
    4.8828   -6.7322    0.0000 C   0  0  0  0  0  0  0  0  0  0  0  0
   -2.2619   -6.7322    0.0000 C   0  0  0  0  0  0  0  0  0  0  0  0
    4.1684   -7.1447    0.0000 C   0  0  0  0  0  0  0  0  0  0  0  0
   -1.5474   -7.1447    0.0000 C   0  0  0  0  0  0  0  0  0  0  0  0
    3.4539   -6.7322    0.0000 C   0  0  0  0  0  0  0  0  0  0  0  0
    4.0874   -9.9217    0.0000 C   0  0  0  0  0  0  0  0  0  0  0  0
    3.2624   -9.9217    0.0000 C   0  0  0  0  0  0  0  0  0  0  0  0
    0.5960   -6.7322    0.0000 C   0  0  0  0  0  0  0  0  0  0  0  0
    1.3105   -7.9697    0.0000 C   0  0  0  0  0  0  0  0  0  0  0  0
    1.3105   -7.1447    0.0000 C   0  0  2  0  0  0  0  0  0  0  0  0
   -0.8329   -6.7322    0.0000 C   0  0  0  0  0  0  0  0  0  0  0  0
    2.7394   -7.1447    0.0000 C   0  0  0  0  0  0  0  0  0  0  0  0
    4.4999  -10.6362    0.0000 N   0  3  0  0  0  0  0  0  0  0  0  0
   -0.8329   -5.9072    0.0000 O   0  0  0  0  0  0  0  0  0  0  0  0
    2.7394   -7.9697    0.0000 O   0  0  0  0  0  0  0  0  0  0  0  0
    1.1999   -9.2072    0.0000 O   0  0  0  0  0  0  0  0  0  0  0  0
    2.0249  -10.0322    0.0000 O   0  0  0  0  0  0  0  0  0  0  0  0
   -0.1185   -7.1447    0.0000 O   0  0  0  0  0  0  0  0  0  0  0  0
    2.8499   -9.2072    0.0000 O   0  0  0  0  0  0  0  0  0  0  0  0
    2.0249   -8.3822    0.0000 O   0  0  0  0  0  0  0  0  0  0  0  0
    2.0249   -6.7322    0.0000 O   0  0  0  0  0  0  0  0  0  0  0  0
    2.0249   -9.2072    0.0000 P   0  0  0  0  0  0  0  0  0  0  0  0
    0.5960   -7.5572    0.0000 H   0  0  0  0  0  0  0  0  0  0  0  0
  6  1  1  0  0  0  0
  7  2  1  0  0  0  0
  8  6  1  0  0  0  0
  9  7  1  0  0  0  0
 10  8  1  0  0  0  0
 11  9  1  0  0  0  0
 12 10  1  0  0  0  0
 13 11  1  0  0  0  0
 14 12  1  0  0  0  0
 15 13  1  0  0  0  0
 16 14  1  0  0  0  0
 17 15  1  0  0  0  0
 18 16  1  0  0  0  0
 19 17  1  0  0  0  0
 20 18  1  0  0  0  0
 21 19  1  0  0  0  0
 22 20  1  0  0  0  0
 23 21  1  0  0  0  0
 24 22  1  0  0  0  0
 25 23  1  0  0  0  0
 26 24  1  0  0  0  0
 27 25  1  0  0  0  0
 28 26  1  0  0  0  0
 29 27  1  0  0  0  0
 30 28  1  0  0  0  0
 31 29  1  0  0  0  0
 32 30  1  0  0  0  0
 33 31  1  0  0  0  0
 34 32  1  0  0  0  0
 35 33  1  0  0  0  0
 36 34  1  0  0  0  0
 37 35  1  0  0  0  0
 39 38  1  0  0  0  0
 42 40  1  0  0  0  0
 42 41  1  0  0  0  0
 43 36  1  0  0  0  0
 44 37  1  0  0  0  0
 45  3  1  0  0  0  0
 45  4  1  0  0  0  0
 45  5  1  0  0  0  0
 45 38  1  0  0  0  0
 46 43  2  0  0  0  0
 47 44  2  0  0  0  0
 50 40  1  0  0  0  0
 50 43  1  0  0  0  0
 51 39  1  0  0  0  0
 52 41  1  0  0  0  0
 42 53  1  6  0  0  0
 53 44  1  0  0  0  0
 54 48  2  0  0  0  0
 54 49  1  0  0  0  0
 54 51  1  0  0  0  0
 54 52  1  0  0  0  0
 42 55  1  6  0  0  0
M  CHG  1  45   1
M  END
> <DATABASE_ID>
DB04178

> <DATABASE_NAME>
drugbank

> <SMILES>
[H][C@@](COC(=O)CCCCCCCCCCCCCCCCC)(COP(O)(=O)OCC[N+](C)(C)C)OC(=O)CCCCCCCCCCCCCCCCC

> <INCHI_IDENTIFIER>
InChI=1S/C44H88NO8P/c1-6-8-10-12-14-16-18-20-22-24-26-28-30-32-34-36-43(46)50-40-42(41-52-54(48,49)51-39-38-45(3,4)5)53-44(47)37-35-33-31-29-27-25-23-21-19-17-15-13-11-9-7-2/h42H,6-41H2,1-5H3/p+1/t42-/m1/s1

> <INCHI_KEY>
NRJAVPSFFCBXDT-HUESYALOSA-O

> <FORMULA>
C44H89NO8P

> <MOLECULAR_WEIGHT>
791.1531

> <EXACT_MASS>
790.632580341

> <JCHEM_ACCEPTOR_COUNT>
4

> <JCHEM_ATOM_COUNT>
143

> <JCHEM_AVERAGE_NEUTRAL_MICROSPECIES_CHARGE>
7.1623261702624674e-06

> <JCHEM_AVERAGE_POLARIZABILITY>
99.58738321421819

> <JCHEM_BIOAVAILABILITY>
0

> <JCHEM_DONOR_COUNT>
1

> <JCHEM_FORMAL_CHARGE>
1

> <JCHEM_GHOSE_FILTER>
0

> <JCHEM_IUPAC>
[(2R)-2,3-bis(octadecanoyloxy)propoxy][2-(trimethylazaniumyl)ethoxy]phosphinic acid

> <ALOGPS_LOGP>
5.83

> <JCHEM_LOGP>
9.89207103919492

> <ALOGPS_LOGS>
-7.45

> <JCHEM_MDDR_LIKE_RULE>
0

> <JCHEM_NEUTRAL_CHARGE>
0

> <JCHEM_NUMBER_OF_RINGS>
0

> <JCHEM_PHYSIOLOGICAL_CHARGE>
0

> <JCHEM_PKA_STRONGEST_ACIDIC>
1.8550572064469142

> <JCHEM_PKA_STRONGEST_BASIC>
-6.744159309169687

> <JCHEM_POLAR_SURFACE_AREA>
108.36000000000001

> <JCHEM_REFRACTIVITY>
235.39080000000004

> <JCHEM_ROTATABLE_BOND_COUNT>
44

> <JCHEM_RULE_OF_FIVE>
0

> <ALOGPS_SOLUBILITY>
2.96e-05 g/l

> <JCHEM_TRADITIONAL_IUPAC>
tetrahydrofolic acid

> <JCHEM_VEBER_RULE>
0

> <DRUGBANK_ID>
DB04178

> <SECONDARY_ACCESSION_NUMBERS>
EXPT02512

> <DRUG_GROUPS>
experimental

> <GENERIC_NAME>
Di-Stearoyl-3-Sn-Phosphatidylcholine

$$$$
