
  Mrv0541 02231217362D          

 10 10  0  0  0  0            999 V2000
    2.1434    2.0625    0.0000 O   0  0  0  0  0  0  0  0  0  0  0  0
    2.1434    1.2375    0.0000 C   0  0  0  0  0  0  0  0  0  0  0  0
    1.4289    0.8250    0.0000 C   0  0  0  0  0  0  0  0  0  0  0  0
    1.4289    0.0000    0.0000 C   0  0  0  0  0  0  0  0  0  0  0  0
    0.7145   -0.4125    0.0000 C   0  0  0  0  0  0  0  0  0  0  0  0
    0.0000    0.0000    0.0000 C   0  0  0  0  0  0  0  0  0  0  0  0
    0.0000    0.8250    0.0000 C   0  0  0  0  0  0  0  0  0  0  0  0
   -0.7145    1.2375    0.0000 F   0  0  0  0  0  0  0  0  0  0  0  0
    0.7145    1.2375    0.0000 C   0  0  0  0  0  0  0  0  0  0  0  0
    0.7145    2.0625    0.0000 F   0  0  0  0  0  0  0  0  0  0  0  0
  1  2  1  0  0  0  0
  2  3  1  0  0  0  0
  3  4  2  0  0  0  0
  4  5  1  0  0  0  0
  5  6  2  0  0  0  0
  6  7  1  0  0  0  0
  7  8  1  0  0  0  0
  7  9  2  0  0  0  0
  3  9  1  0  0  0  0
  9 10  1  0  0  0  0
M  END
> <DATABASE_ID>
DB04312

> <DATABASE_NAME>
drugbank

> <SMILES>
OCC1=CC=CC(F)=C1F

> <INCHI_IDENTIFIER>
InChI=1S/C7H6F2O/c8-6-3-1-2-5(4-10)7(6)9/h1-3,10H,4H2

> <INCHI_KEY>
JSFGDUIJQWWBGY-UHFFFAOYSA-N

> <FORMULA>
C7H6F2O

> <MOLECULAR_WEIGHT>
144.1187

> <EXACT_MASS>
144.038671224

> <JCHEM_ACCEPTOR_COUNT>
1

> <JCHEM_ATOM_COUNT>
16

> <JCHEM_AVERAGE_NEUTRAL_MICROSPECIES_CHARGE>
-4.018609477443409e-08

> <JCHEM_AVERAGE_POLARIZABILITY>
12.09594332810546

> <JCHEM_BIOAVAILABILITY>
1

> <JCHEM_DONOR_COUNT>
1

> <JCHEM_FORMAL_CHARGE>
0

> <JCHEM_GHOSE_FILTER>
0

> <JCHEM_IUPAC>
(2,3-difluorophenyl)methanol

> <ALOGPS_LOGP>
1.26

> <JCHEM_LOGP>
1.4912999213333333

> <ALOGPS_LOGS>
-1.78

> <JCHEM_MDDR_LIKE_RULE>
0

> <JCHEM_NEUTRAL_CHARGE>
0

> <JCHEM_NUMBER_OF_RINGS>
1

> <JCHEM_PHYSIOLOGICAL_CHARGE>
0

> <JCHEM_PKA_STRONGEST_ACIDIC>
14.394991329674173

> <JCHEM_PKA_STRONGEST_BASIC>
-3.063430792400516

> <JCHEM_POLAR_SURFACE_AREA>
20.23

> <JCHEM_REFRACTIVITY>
33.3067

> <JCHEM_ROTATABLE_BOND_COUNT>
1

> <JCHEM_RULE_OF_FIVE>
1

> <ALOGPS_SOLUBILITY>
2.39e+00 g/l

> <JCHEM_TRADITIONAL_IUPAC>
biotin

> <JCHEM_VEBER_RULE>
1

> <DRUGBANK_ID>
DB04312

> <SECONDARY_ACCESSION_NUMBERS>
EXPT01168

> <DRUG_GROUPS>
experimental

> <GENERIC_NAME>
2,3-Difluorobenzyl Alcohol

$$$$
