
  Mrv0541 05041402532D          

 20 20  0  0  0  0            999 V2000
   -2.8579    4.1250    0.0000 C   0  0  0  0  0  0  0  0  0  0  0  0
    0.7145    2.8875    0.0000 C   0  0  0  0  0  0  0  0  0  0  0  0
   -2.1434    3.7125    0.0000 C   0  0  0  0  0  0  0  0  0  0  0  0
   -1.4289    4.1250    0.0000 C   0  0  0  0  0  0  0  0  0  0  0  0
   -0.7145    3.7125    0.0000 C   0  0  0  0  0  0  0  0  0  0  0  0
    0.0000    4.1250    0.0000 C   0  0  0  0  0  0  0  0  0  0  0  0
    2.1434    3.7125    0.0000 C   0  0  0  0  0  0  0  0  0  0  0  0
    2.8579    4.9500    0.0000 C   0  0  0  0  0  0  0  0  0  0  0  0
    0.7145    3.7125    0.0000 C   0  0  0  0  0  0  0  0  0  0  0  0
    2.8579    4.1250    0.0000 C   0  0  0  0  0  0  0  0  0  0  0  0
    1.4289    4.1250    0.0000 C   0  0  0  0  0  0  0  0  0  0  0  0
    2.1434    5.3625    0.0000 C   0  0  0  0  0  0  0  0  0  0  0  0
    1.4289    4.9500    0.0000 C   0  0  0  0  0  0  0  0  0  0  0  0
    3.5724    3.7125    0.0000 N   0  0  0  0  0  0  0  0  0  0  0  0
    2.1434    6.1875    0.0000 N   0  0  0  0  0  0  0  0  0  0  0  0
    0.7145    5.3625    0.0000 O   0  0  0  0  0  0  0  0  0  0  0  0
    4.2868    4.1250    0.0000 O   0  0  0  0  0  0  0  0  0  0  0  0
    3.5724    2.8875    0.0000 O   0  0  0  0  0  0  0  0  0  0  0  0
    1.4289    6.6000    0.0000 O   0  0  0  0  0  0  0  0  0  0  0  0
    2.8579    6.6000    0.0000 O   0  0  0  0  0  0  0  0  0  0  0  0
  3  1  1  0  0  0  0
  4  3  1  0  0  0  0
  5  4  1  0  0  0  0
  6  5  1  0  0  0  0
  9  2  1  0  0  0  0
  9  6  1  0  0  0  0
 10  7  2  0  0  0  0
 10  8  1  0  0  0  0
 11  7  1  0  0  0  0
 11  9  1  0  0  0  0
 12  8  2  0  0  0  0
 13 11  2  0  0  0  0
 13 12  1  0  0  0  0
 14 10  1  0  0  0  0
 15 12  1  0  0  0  0
 16 13  1  0  0  0  0
 17 14  2  0  0  0  0
 18 14  2  0  0  0  0
 19 15  2  0  0  0  0
 20 15  2  0  0  0  0
M  END
> <DATABASE_ID>
DB07671

> <DATABASE_NAME>
drugbank

> <SMILES>
CCCCCC(C)C1=C(O)C(=CC(=C1)N(=O)=O)N(=O)=O

> <INCHI_IDENTIFIER>
InChI=1S/C13H18N2O5/c1-3-4-5-6-9(2)11-7-10(14(17)18)8-12(13(11)16)15(19)20/h7-9,16H,3-6H2,1-2H3

> <INCHI_KEY>
RROCMCBQTUYDSD-UHFFFAOYSA-N

> <FORMULA>
C13H18N2O5

> <MOLECULAR_WEIGHT>
282.2924

> <EXACT_MASS>
282.121571696

> <JCHEM_ACCEPTOR_COUNT>
5

> <JCHEM_ATOM_COUNT>
38

> <JCHEM_AVERAGE_NEUTRAL_MICROSPECIES_CHARGE>
-0.9962672535185892

> <JCHEM_AVERAGE_POLARIZABILITY>
28.27927470732351

> <JCHEM_BIOAVAILABILITY>
1

> <JCHEM_DONOR_COUNT>
1

> <JCHEM_FORMAL_CHARGE>
0

> <JCHEM_GHOSE_FILTER>
1

> <JCHEM_IUPAC>
2-(heptan-2-yl)-4,6-dinitrophenol

> <ALOGPS_LOGP>
4.76

> <JCHEM_LOGP>
4.572932683666668

> <ALOGPS_LOGS>
-4.36

> <JCHEM_MDDR_LIKE_RULE>
0

> <JCHEM_NEUTRAL_CHARGE>
-1

> <JCHEM_NUMBER_OF_RINGS>
1

> <JCHEM_PHYSIOLOGICAL_CHARGE>
-1

> <JCHEM_PKA_STRONGEST_ACIDIC>
4.573652639106145

> <JCHEM_PKA_STRONGEST_BASIC>
-7.547158751139278

> <JCHEM_POLAR_SURFACE_AREA>
111.87

> <JCHEM_REFRACTIVITY>
75.28309999999998

> <JCHEM_ROTATABLE_BOND_COUNT>
7

> <JCHEM_RULE_OF_FIVE>
1

> <ALOGPS_SOLUBILITY>
1.22e-02 g/l

> <JCHEM_TRADITIONAL_IUPAC>
biotin

> <JCHEM_VEBER_RULE>
0

> <DRUGBANK_ID>
DB07671

> <DRUG_GROUPS>
experimental

> <GENERIC_NAME>
2-[1-METHYLHEXYL]-4,6-DINITROPHENOL

$$$$
