
  Mrv0541 02231217162D          

 49 57  0  0  0  0            999 V2000
    1.0008    0.9760    0.0000 C   0  0  0  0  0  0  0  0  0  0  0  0
    1.6353    0.4486    0.0000 C   0  0  0  0  0  0  0  0  0  0  0  0
    2.4348    0.6519    0.0000 C   0  0  0  0  0  0  0  0  0  0  0  0
    2.9554    1.5893    0.0000 C   0  0  0  0  0  0  0  0  0  0  0  0
    3.6697    2.0020    0.0000 C   0  0  0  0  0  0  0  0  0  0  0  0
    3.9753    2.7684    0.0000 C   0  0  0  0  0  0  0  0  0  0  0  0
    3.5348    3.4660    0.0000 C   0  0  0  0  0  0  0  0  0  0  0  0
    3.9188    4.1962    0.0000 C   0  0  0  0  0  0  0  0  0  0  0  0
    4.7985    2.7146    0.0000 C   0  0  0  0  0  0  0  0  0  0  0  0
    5.3259    3.3490    0.0000 C   0  0  0  0  0  0  0  0  0  0  0  0
    5.0018    1.9151    0.0000 C   0  0  0  0  0  0  0  0  0  0  0  0
    4.3042    1.4746    0.0000 N   0  3  0  0  0  0  0  0  0  0  0  0
    4.3499    0.0000    0.0000 Fe  0  0  0  0  0  0  0  0  0  0  0  0
    5.8245    0.0457    0.0000 N   0  0  0  0  0  0  0  0  0  0  0  0
    6.2649   -0.6519    0.0000 C   0  0  0  0  0  0  0  0  0  0  0  0
    5.7444   -1.5893    0.0000 C   0  0  0  0  0  0  0  0  0  0  0  0
    5.0300   -2.0020    0.0000 C   0  0  0  0  0  0  0  0  0  0  0  0
    4.3956   -1.4746    0.0000 N   0  3  0  0  0  0  0  0  0  0  0  0
    3.6980   -1.9151    0.0000 C   0  0  0  0  0  0  0  0  0  0  0  0
    3.9013   -2.7146    0.0000 C   0  0  0  0  0  0  0  0  0  0  0  0
    3.3739   -3.3490    0.0000 C   0  0  0  0  0  0  0  0  0  0  0  0
    3.6596   -4.1230    0.0000 C   0  0  0  0  0  0  0  0  0  0  0  0
    3.1322   -4.7574    0.0000 C   0  0  0  0  0  0  0  0  0  0  0  0
    3.4180   -5.5313    0.0000 O   0  0  0  0  0  0  0  0  0  0  0  0
    2.3191   -4.6179    0.0000 O   0  0  0  0  0  0  0  0  0  0  0  0
    4.7245   -2.7684    0.0000 C   0  0  0  0  0  0  0  0  0  0  0  0
    5.1649   -3.4660    0.0000 C   0  0  0  0  0  0  0  0  0  0  0  0
    2.7605   -1.3945    0.0000 C   0  0  0  0  0  0  0  0  0  0  0  0
    2.1821   -1.9828    0.0000 C   0  0  0  0  0  0  0  0  0  0  0  0
    2.4024   -2.7779    0.0000 C   0  0  0  0  0  0  0  0  0  0  0  0
    1.8240   -3.3662    0.0000 C   0  0  0  0  0  0  0  0  0  0  0  0
    1.0254   -3.1594    0.0000 C   0  0  0  0  0  0  0  0  0  0  0  0
    0.8051   -2.3644    0.0000 C   0  0  0  0  0  0  0  0  0  0  0  0
    1.3835   -1.7761    0.0000 C   0  0  0  0  0  0  0  0  0  0  0  0
    2.3479   -0.6802    0.0000 C   0  0  0  0  0  0  0  0  0  0  0  0
    2.8752   -0.0457    0.0000 N   0  0  0  0  0  0  0  0  0  0  0  0
    1.5815   -0.3746    0.0000 C   0  0  0  0  0  0  0  0  0  0  0  0
    0.8839   -0.8150    0.0000 C   0  0  0  0  0  0  0  0  0  0  0  0
    0.1537   -0.4311    0.0000 C   0  0  0  0  0  0  0  0  0  0  0  0
   -0.5439   -0.8715    0.0000 C   0  0  0  0  0  0  0  0  0  0  0  0
   -0.5113   -1.6958    0.0000 O   0  0  0  0  0  0  0  0  0  0  0  0
   -1.2741   -0.4875    0.0000 O   0  0  0  0  0  0  0  0  0  0  0  0
    7.0645   -0.4486    0.0000 C   0  0  0  0  0  0  0  0  0  0  0  0
    7.6989   -0.9760    0.0000 C   0  0  0  0  0  0  0  0  0  0  0  0
    7.1183    0.3746    0.0000 C   0  0  0  0  0  0  0  0  0  0  0  0
    7.8159    0.8150    0.0000 C   0  0  0  0  0  0  0  0  0  0  0  0
    7.7833    1.6394    0.0000 C   0  0  0  0  0  0  0  0  0  0  0  0
    6.3519    0.6802    0.0000 C   0  0  0  0  0  0  0  0  0  0  0  0
    5.9392    1.3945    0.0000 C   0  0  0  0  0  0  0  0  0  0  0  0
  1  2  1  0  0  0  0
  2  3  2  0  0  0  0
  3  4  1  0  0  0  0
  4  5  2  0  0  0  0
  5  6  1  0  0  0  0
  6  7  1  0  0  0  0
  7  8  2  0  0  0  0
  6  9  2  0  0  0  0
  9 10  1  0  0  0  0
  9 11  1  0  0  0  0
 11 12  2  0  0  0  0
  5 12  1  0  0  0  0
 12 13  1  0  0  0  0
 13 14  1  0  0  0  0
 14 15  1  0  0  0  0
 15 16  2  0  0  0  0
 16 17  1  0  0  0  0
 17 18  2  0  0  0  0
 13 18  1  0  0  0  0
 18 19  1  0  0  0  0
 19 20  1  0  0  0  0
 20 21  1  0  0  0  0
 21 22  1  0  0  0  0
 22 23  1  0  0  0  0
 23 24  1  0  0  0  0
 23 25  2  0  0  0  0
 20 26  2  0  0  0  0
 17 26  1  0  0  0  0
 26 27  1  0  0  0  0
 19 28  2  0  0  0  0
 28 29  1  0  0  0  0
 29 30  2  0  0  0  0
 30 31  1  0  0  0  0
 31 32  2  0  0  0  0
 32 33  1  0  0  0  0
 33 34  2  0  0  0  0
 29 34  1  0  0  0  0
 28 35  1  0  0  0  0
 35 36  1  0  0  0  0
  3 36  1  0  0  0  0
 13 36  1  0  0  0  0
 35 37  2  0  0  0  0
  2 37  1  0  0  0  0
 37 38  1  0  0  0  0
 38 39  1  0  0  0  0
 39 40  1  0  0  0  0
 40 41  1  0  0  0  0
 40 42  2  0  0  0  0
 15 43  1  0  0  0  0
 43 44  1  0  0  0  0
 43 45  2  0  0  0  0
 45 46  1  0  0  0  0
 46 47  2  0  0  0  0
 45 48  1  0  0  0  0
 14 48  1  0  0  0  0
 48 49  2  0  0  0  0
 11 49  1  0  0  0  0
M  CHG  2  12   1  18   1
M  END
> <DATABASE_ID>
DB03906

> <DATABASE_NAME>
drugbank

> <SMILES>
CC1=C(C=C)C2=CC3=[N+]4C(=CC5=C(C)C(CCC(O)=O)=C6N5[Fe]44N2C1=CC1=[N+]4C(C(CCC(O)=O)=C1C)=C6C1=CC=CC=C1)C(C=C)=C3C

> <INCHI_IDENTIFIER>
InChI=1S/C40H38N4O4.Fe/c1-7-26-21(3)30-18-32-23(5)28(14-16-36(45)46)39(43-32)38(25-12-10-9-11-13-25)40-29(15-17-37(47)48)24(6)33(44-40)20-35-27(8-2)22(4)31(42-35)19-34(26)41-30;/h7-13,18-20H,1-2,14-17H2,3-6H3,(H4,41,42,43,44,45,46,47,48);/q;+4/p-2/b30-18-,31-19-,32-18-,33-20-,34-19-,35-20-,39-38-,40-38-;

> <INCHI_KEY>
RHCCVTLDOSIQDM-NULOGZTHSA-L

> <FORMULA>
C40H36FeN4O4

> <MOLECULAR_WEIGHT>
692.583

> <EXACT_MASS>
692.208597793

> <JCHEM_ACCEPTOR_COUNT>
4

> <JCHEM_ATOM_COUNT>
85

> <JCHEM_AVERAGE_NEUTRAL_MICROSPECIES_CHARGE>
0.001182282895769271

> <JCHEM_AVERAGE_POLARIZABILITY>
77.81403696276266

> <JCHEM_BIOAVAILABILITY>
1

> <JCHEM_DONOR_COUNT>
2

> <JCHEM_FORMAL_CHARGE>
2

> <JCHEM_GHOSE_FILTER>
0

> <JCHEM_IUPAC>
5,9-bis(2-carboxyethyl)-14,19-diethenyl-4,10,15,20-tetramethyl-7-phenyl-2lambda5,22,23lambda5,25-tetraaza-1-ferraoctacyclo[11.9.1.1^{1,8}.1^{3,21}.0^{2,6}.0^{16,23}.0^{18,22}.0^{11,25}]pentacosa-2,4,6,8,10,12,14,16(23),17,19,21(24)-undecaene-2,23-bis(ylium)

> <ALOGPS_LOGP>
0.38

> <JCHEM_LOGP>
3.8714516170565085

> <ALOGPS_LOGS>
-6.03

> <JCHEM_MDDR_LIKE_RULE>
1

> <JCHEM_NEUTRAL_CHARGE>
0

> <JCHEM_NUMBER_OF_RINGS>
9

> <JCHEM_PHYSIOLOGICAL_CHARGE>
0

> <JCHEM_PKA>
4.192247739208392

> <JCHEM_PKA_STRONGEST_ACIDIC>
3.5897029430455665

> <JCHEM_POLAR_SURFACE_AREA>
92.22

> <JCHEM_REFRACTIVITY>
194.90560000000002

> <JCHEM_ROTATABLE_BOND_COUNT>
9

> <JCHEM_RULE_OF_FIVE>
0

> <ALOGPS_SOLUBILITY>
7.17e-04 g/l

> <JCHEM_TRADITIONAL_IUPAC>
tetrahydrofolic acid

> <JCHEM_VEBER_RULE>
0

> <DRUGBANK_ID>
DB03906

> <SECONDARY_ACCESSION_NUMBERS>
EXPT00117

> <DRUG_GROUPS>
experimental

> <GENERIC_NAME>
2-Phenylheme

$$$$
