
  Mrv0541 05031423552D          

 42 46  0  0  1  0            999 V2000
    0.3343    3.3935    0.0000 C   0  0  0  0  0  0  0  0  0  0  0  0
   -0.7145    4.5375    0.0000 C   0  0  0  0  0  0  0  0  0  0  0  0
    0.0000    7.4250    0.0000 C   0  0  0  0  0  0  0  0  0  0  0  0
    1.4289    7.4250    0.0000 C   0  0  0  0  0  0  0  0  0  0  0  0
    0.6165    2.6183    0.0000 C   0  0  0  0  0  0  0  0  0  0  0  0
    7.1447    2.4750    0.0000 C   0  0  0  0  0  0  0  0  0  0  0  0
    6.4302    2.0625    0.0000 C   0  0  0  0  0  0  0  0  0  0  0  0
    7.1447    3.3000    0.0000 C   0  0  0  0  0  0  0  0  0  0  0  0
    3.5724    2.0625    0.0000 C   0  0  0  0  0  0  0  0  0  0  0  0
    1.4289    5.7750    0.0000 C   0  0  0  0  0  0  0  0  0  0  0  0
    2.1434    2.0625    0.0000 C   0  0  0  0  0  0  0  0  0  0  0  0
    1.4289    3.3000    0.0000 C   0  0  0  0  0  0  0  0  0  0  0  0
    0.0000    4.9500    0.0000 C   0  0  1  0  0  0  0  0  0  0  0  0
    2.8579    2.4750    0.0000 C   0  0  0  0  0  0  0  0  0  0  0  0
    5.7158    2.4750    0.0000 C   0  0  0  0  0  0  0  0  0  0  0  0
    4.2868    2.4750    0.0000 C   0  0  0  0  0  0  0  0  0  0  0  0
    0.7145    6.1875    0.0000 C   0  0  1  0  0  0  0  0  0  0  0  0
    6.4302    3.7125    0.0000 C   0  0  0  0  0  0  0  0  0  0  0  0
    2.1434    3.7125    0.0000 C   0  0  1  0  0  0  0  0  0  0  0  0
    1.4289    4.9500    0.0000 C   0  0  1  0  0  0  0  0  0  0  0  0
    2.8579    3.3000    0.0000 C   0  0  0  0  0  0  0  0  0  0  0  0
    5.7158    3.3000    0.0000 C   0  0  0  0  0  0  0  0  0  0  0  0
    4.2868    3.3000    0.0000 C   0  0  0  0  0  0  0  0  0  0  0  0
    0.0000    5.7750    0.0000 C   0  0  2  0  0  0  0  0  0  0  0  0
    5.0013    2.0625    0.0000 C   0  0  0  0  0  0  0  0  0  0  0  0
    3.5724    3.7125    0.0000 C   0  0  0  0  0  0  0  0  0  0  0  0
    5.0013    3.7125    0.0000 C   0  0  0  0  0  0  0  0  0  0  0  0
    1.4289    2.4750    0.0000 C   0  0  2  0  0  0  0  0  0  0  0  0
    0.7145    7.0125    0.0000 N   0  0  0  0  0  0  0  0  0  0  0  0
    6.4302    4.5375    0.0000 O   0  0  0  0  0  0  0  0  0  0  0  0
   -0.7145    6.1875    0.0000 O   0  0  0  0  0  0  0  0  0  0  0  0
    5.0013    1.2375    0.0000 O   0  0  0  0  0  0  0  0  0  0  0  0
    3.5724    4.5375    0.0000 O   0  0  0  0  0  0  0  0  0  0  0  0
    5.0013    4.5375    0.0000 O   0  0  0  0  0  0  0  0  0  0  0  0
    1.1468    1.6998    0.0000 O   0  0  0  0  0  0  0  0  0  0  0  0
    0.7145    4.5375    0.0000 O   0  0  0  0  0  0  0  0  0  0  0  0
    2.1434    4.5375    0.0000 O   0  0  0  0  0  0  0  0  0  0  0  0
   -0.8125    5.0933    0.0000 H   0  0  0  0  0  0  0  0  0  0  0  0
    1.4289    6.6000    0.0000 H   0  0  0  0  0  0  0  0  0  0  0  0
    1.4289    4.1250    0.0000 H   0  0  0  0  0  0  0  0  0  0  0  0
    2.1434    5.3625    0.0000 H   0  0  0  0  0  0  0  0  0  0  0  0
   -0.8125    5.6317    0.0000 H   0  0  0  0  0  0  0  0  0  0  0  0
  5  1  1  0  0  0  0
  7  6  2  0  0  0  0
  8  6  1  0  0  0  0
 13  2  1  1  0  0  0
 14  9  2  0  0  0  0
 14 11  1  0  0  0  0
 15  7  1  0  0  0  0
 16  9  1  0  0  0  0
 17 10  1  0  0  0  0
 18  8  2  0  0  0  0
 19 12  1  0  0  0  0
 20 10  1  0  0  0  0
 21 14  1  0  0  0  0
 21 19  1  0  0  0  0
 22 15  2  0  0  0  0
 22 18  1  0  0  0  0
 23 16  2  0  0  0  0
 24 13  1  0  0  0  0
 24 17  1  0  0  0  0
 25 15  1  0  0  0  0
 25 16  1  0  0  0  0
 26 21  2  0  0  0  0
 26 23  1  0  0  0  0
 27 22  1  0  0  0  0
 27 23  1  0  0  0  0
 28  5  1  1  0  0  0
 28 11  1  0  0  0  0
 28 12  1  0  0  0  0
 29  3  1  0  0  0  0
 29  4  1  0  0  0  0
 17 29  1  1  0  0  0
 30 18  1  0  0  0  0
 24 31  1  1  0  0  0
 32 25  2  0  0  0  0
 33 26  1  0  0  0  0
 34 27  2  0  0  0  0
 28 35  1  6  0  0  0
 36 13  1  0  0  0  0
 36 20  1  0  0  0  0
 19 37  1  6  0  0  0
 20 37  1  6  0  0  0
 13 38  1  6  0  0  0
 17 39  1  6  0  0  0
 19 40  1  1  0  0  0
 20 41  1  1  0  0  0
 24 42  1  6  0  0  0
M  END
> <DATABASE_ID>
DB04131

> <DATABASE_NAME>
drugbank

> <SMILES>
[H][C@@]1(C[C@]([H])(N(C)C)[C@]([H])(O)[C@]([H])(C)O1)O[C@@]1([H])C[C@](O)(CC)CC2=CC3=C(C(O)=C12)C(=O)C1=C(C=CC=C1O)C3=O

> <INCHI_IDENTIFIER>
InChI=1S/C28H33NO8/c1-5-28(35)11-14-9-16-23(27(34)22-15(25(16)32)7-6-8-18(22)30)26(33)21(14)19(12-28)37-20-10-17(29(3)4)24(31)13(2)36-20/h6-9,13,17,19-20,24,30-31,33,35H,5,10-12H2,1-4H3/t13-,17-,19-,20-,24+,28-/m0/s1

> <INCHI_KEY>
BLGDWFJQIHBUJY-NWJGULHDSA-N

> <FORMULA>
C28H33NO8

> <MOLECULAR_WEIGHT>
511.5635

> <EXACT_MASS>
511.220617037

> <JCHEM_ACCEPTOR_COUNT>
9

> <JCHEM_ATOM_COUNT>
70

> <JCHEM_AVERAGE_NEUTRAL_MICROSPECIES_CHARGE>
0.7393415524775659

> <JCHEM_AVERAGE_POLARIZABILITY>
54.75204892023706

> <JCHEM_BIOAVAILABILITY>
1

> <JCHEM_DONOR_COUNT>
4

> <JCHEM_FORMAL_CHARGE>
0

> <JCHEM_GHOSE_FILTER>
0

> <JCHEM_IUPAC>
(8S,10S)-10-{[(2R,4S,5S,6S)-4-(dimethylamino)-5-hydroxy-6-methyloxan-2-yl]oxy}-8-ethyl-1,8,11-trihydroxy-5,7,8,9,10,12-hexahydrotetracene-5,12-dione

> <ALOGPS_LOGP>
2.70

> <JCHEM_LOGP>
2.7390059751751377

> <ALOGPS_LOGS>
-3.32

> <JCHEM_MDDR_LIKE_RULE>
0

> <JCHEM_NEUTRAL_CHARGE>
1

> <JCHEM_NUMBER_OF_RINGS>
5

> <JCHEM_PHYSIOLOGICAL_CHARGE>
0

> <JCHEM_PKA>
8.310925422268468

> <JCHEM_PKA_STRONGEST_ACIDIC>
7.632820757182929

> <JCHEM_PKA_STRONGEST_BASIC>
9.100341067559738

> <JCHEM_POLAR_SURFACE_AREA>
136.76

> <JCHEM_REFRACTIVITY>
135.98429999999993

> <JCHEM_ROTATABLE_BOND_COUNT>
4

> <JCHEM_RULE_OF_FIVE>
0

> <ALOGPS_SOLUBILITY>
2.44e-01 g/l

> <JCHEM_TRADITIONAL_IUPAC>
biotin

> <JCHEM_VEBER_RULE>
0

> <DRUGBANK_ID>
DB04131

> <SECONDARY_ACCESSION_NUMBERS>
EXPT00485

> <DRUG_GROUPS>
experimental

> <GENERIC_NAME>
10-(4-Dimethylamino-5-Hydroxy-6-Methyl-Tetrahydro-Pyran-2-Yloxy)-8-Ethyl-1,8,11-Trihydroxy-7,8,9,10-Tetrahydro-Naphthacene-5,12-Dione

$$$$
