
  Mrv0541 02231219012D          

 48 52  0  0  0  0            999 V2000
   -0.6275   -1.3727    0.0000 C   0  0  0  0  0  0  0  0  0  0  0  0
   -0.4259   -1.8899    0.0000 C   0  0  0  0  0  0  0  0  0  0  0  0
   -1.4070   -1.1941    0.0000 C   0  0  0  0  0  0  0  0  0  0  0  0
   -0.0874   -0.7757    0.0000 N   0  0  0  0  0  0  0  0  0  0  0  0
    0.2471   -1.8860    0.0000 C   0  0  0  0  0  0  0  0  0  0  0  0
   -0.8898   -2.5744    0.0000 C   0  0  0  0  0  0  0  0  0  0  0  0
   -1.6504   -0.4297    0.0000 C   0  0  0  0  0  0  0  0  0  0  0  0
    0.5248   -1.3271    0.0000 C   0  0  0  0  0  0  0  0  0  0  0  0
    0.6845   -2.5857    0.0000 C   0  0  0  0  0  0  0  0  0  0  0  0
   -0.5286   -3.3196    0.0000 C   0  0  0  0  0  0  0  0  0  0  0  0
   -2.2892   -0.1749    0.0000 C   0  0  0  0  0  0  0  0  0  0  0  0
   -1.1104    0.1559    0.0000 N   0  0  0  0  0  0  0  0  0  0  0  0
    1.4374   -1.1141    0.0000 C   0  0  0  0  0  0  0  0  0  0  0  0
   -0.9925   -4.0041    0.0000 C   0  0  0  0  0  0  0  0  0  0  0  0
   -2.3271    0.4525    0.0000 C   0  0  0  0  0  0  0  0  0  0  0  0
   -2.9622   -0.6579    0.0000 C   0  0  0  0  0  0  0  0  0  0  0  0
   -1.7302    0.7187    0.0000 C   0  0  0  0  0  0  0  0  0  0  0  0
    1.5401   -0.2966    0.0000 C   0  0  0  0  0  0  0  0  0  0  0  0
   -1.8138   -3.9433    0.0000 O   0  0  0  0  0  0  0  0  0  0  0  0
   -0.6275   -4.7457    0.0000 O   0  0  0  0  0  0  0  0  0  0  0  0
   -3.0307    0.8822    0.0000 C   0  0  0  0  0  0  0  0  0  0  0  0
   -3.7152   -0.3156    0.0000 C   0  0  0  0  0  0  0  0  0  0  0  0
   -1.5552    1.5249    0.0000 C   0  0  0  0  0  0  0  0  0  0  0  0
    2.0458   -0.0380    0.0000 C   0  0  0  0  0  0  0  0  0  0  0  0
    0.9126    0.2738    0.0000 N   0  0  0  0  0  0  0  0  0  0  0  0
   -4.3882   -0.7985    0.0000 C   0  0  0  0  0  0  0  0  0  0  0  0
   -0.7606    1.7834    0.0000 C   0  0  0  0  0  0  0  0  0  0  0  0
    2.0420    0.6540    0.0000 C   0  0  0  0  0  0  0  0  0  0  0  0
    2.7493   -0.4715    0.0000 C   0  0  0  0  0  0  0  0  0  0  0  0
    1.4564    0.8860    0.0000 C   0  0  0  0  0  0  0  0  0  0  0  0
   -5.1373   -0.4563    0.0000 O   0  0  0  0  0  0  0  0  0  0  0  0
   -4.3007   -1.6199    0.0000 O   0  0  0  0  0  0  0  0  0  0  0  0
   -0.1445    1.2244    0.0000 N   0  0  0  0  0  0  0  0  0  0  0  0
   -0.5932    2.4147    0.0000 C   0  0  0  0  0  0  0  0  0  0  0  0
    2.7265    1.1180    0.0000 C   0  0  0  0  0  0  0  0  0  0  0  0
    3.4756   -0.0798    0.0000 C   0  0  0  0  0  0  0  0  0  0  0  0
    1.1978    1.6655    0.0000 C   0  0  0  0  0  0  0  0  0  0  0  0
    0.3993    1.8290    0.0000 C   0  0  0  0  0  0  0  0  0  0  0  0
    0.2547    2.3576    0.0000 C   0  0  0  0  0  0  0  0  0  0  0  0
   -1.0762    3.0877    0.0000 C   0  0  0  0  0  0  0  0  0  0  0  0
    4.1829   -0.5133    0.0000 C   0  0  0  0  0  0  0  0  0  0  0  0
    0.7757    2.9964    0.0000 C   0  0  0  0  0  0  0  0  0  0  0  0
    4.1563   -1.3385    0.0000 O   0  0  0  0  0  0  0  0  0  0  0  0
    4.9091   -0.1140    0.0000 O   0  0  0  0  0  0  0  0  0  0  0  0
    1.5933    2.8634    0.0000 C   0  0  0  0  0  0  0  0  0  0  0  0
    2.1142    3.5060    0.0000 C   0  0  0  0  0  0  0  0  0  0  0  0
    2.9318    3.3691    0.0000 O   0  0  0  0  0  0  0  0  0  0  0  0
    1.8214    4.2779    0.0000 O   0  0  0  0  0  0  0  0  0  0  0  0
  1  2  2  0  0  0  0
  1  3  1  0  0  0  0
  1  4  1  0  0  0  0
  2  5  1  0  0  0  0
  2  6  1  0  0  0  0
  3  7  1  0  0  0  0
  4  8  1  0  0  0  0
  5  9  1  0  0  0  0
  6 10  1  0  0  0  0
  7 11  2  0  0  0  0
  7 12  1  0  0  0  0
  8 13  1  0  0  0  0
 10 14  1  0  0  0  0
 11 15  1  0  0  0  0
 11 16  1  0  0  0  0
 12 17  1  0  0  0  0
 13 18  1  0  0  0  0
 14 19  1  0  0  0  0
 14 20  2  0  0  0  0
 15 21  1  0  0  0  0
 16 22  1  0  0  0  0
 17 23  1  0  0  0  0
 18 24  2  0  0  0  0
 18 25  1  0  0  0  0
 22 26  1  0  0  0  0
 23 27  1  0  0  0  0
 24 28  1  0  0  0  0
 24 29  1  0  0  0  0
 25 30  1  0  0  0  0
 26 31  1  0  0  0  0
 26 32  2  0  0  0  0
 27 33  1  0  0  0  0
 27 34  2  0  0  0  0
 28 35  1  0  0  0  0
 29 36  1  0  0  0  0
 30 37  1  0  0  0  0
 33 38  1  0  0  0  0
 34 39  1  0  0  0  0
 34 40  1  0  0  0  0
 36 41  1  0  0  0  0
 39 42  1  0  0  0  0
 41 43  1  0  0  0  0
 41 44  2  0  0  0  0
 42 45  1  0  0  0  0
 45 46  1  0  0  0  0
 46 47  1  0  0  0  0
 46 48  2  0  0  0  0
  5  8  2  0  0  0  0
 15 17  2  0  0  0  0
 28 30  2  0  0  0  0
 37 38  1  0  0  0  0
 38 39  2  0  0  0  0
M  END
> <DATABASE_ID>
DB04461

> <DATABASE_NAME>
drugbank

> <SMILES>
CC1=C2CC3=C(C)C(CCC(O)=O)=C(CC4=C(CCC(O)=O)C(C)=C(CC5=C(CCC(O)=O)C(C)=C(CC(N2)=C1CCC(O)=O)N5)N4)N3

> <INCHI_IDENTIFIER>
InChI=1S/C36H44N4O8/c1-17-21(5-9-33(41)42)29-14-27-19(3)22(6-10-34(43)44)30(39-27)15-28-20(4)24(8-12-36(47)48)32(40-28)16-31-23(7-11-35(45)46)18(2)26(38-31)13-25(17)37-29/h37-40H,5-16H2,1-4H3,(H,41,42)(H,43,44)(H,45,46)(H,47,48)

> <INCHI_KEY>
NIUVHXTXUXOFEB-UHFFFAOYSA-N

> <FORMULA>
C36H44N4O8

> <MOLECULAR_WEIGHT>
660.7566

> <EXACT_MASS>
660.315914404

> <JCHEM_ACCEPTOR_COUNT>
8

> <JCHEM_ATOM_COUNT>
92

> <JCHEM_AVERAGE_NEUTRAL_MICROSPECIES_CHARGE>
-3.9879824541275553

> <JCHEM_AVERAGE_POLARIZABILITY>
72.85338000201646

> <JCHEM_BIOAVAILABILITY>
0

> <JCHEM_DONOR_COUNT>
8

> <JCHEM_FORMAL_CHARGE>
0

> <JCHEM_GHOSE_FILTER>
0

> <JCHEM_IUPAC>
3-[9,14,20-tris(2-carboxyethyl)-5,10,15,19-tetramethyl-21,22,23,24-tetraazapentacyclo[16.2.1.1^{3,6}.1^{8,11}.1^{13,16}]tetracosa-1(20),3,5,8,10,13,15,18-octaen-4-yl]propanoic acid

> <ALOGPS_LOGP>
1.96

> <JCHEM_LOGP>
4.891239218666666

> <ALOGPS_LOGS>
-4.77

> <JCHEM_MDDR_LIKE_RULE>
1

> <JCHEM_NEUTRAL_CHARGE>
-4

> <JCHEM_NUMBER_OF_RINGS>
5

> <JCHEM_PHYSIOLOGICAL_CHARGE>
-4

> <JCHEM_PKA>
4.229360781234833

> <JCHEM_PKA_STRONGEST_ACIDIC>
3.8015317067975603

> <JCHEM_POLAR_SURFACE_AREA>
212.35999999999996

> <JCHEM_REFRACTIVITY>
181.86080000000013

> <JCHEM_ROTATABLE_BOND_COUNT>
12

> <JCHEM_RULE_OF_FIVE>
0

> <ALOGPS_SOLUBILITY>
1.12e-02 g/l

> <JCHEM_TRADITIONAL_IUPAC>
biotin

> <JCHEM_VEBER_RULE>
0

> <DRUGBANK_ID>
DB04461

> <SECONDARY_ACCESSION_NUMBERS>
EXPT00993

> <DRUG_GROUPS>
experimental

> <GENERIC_NAME>
Coproporphyrinogen III

> <SYNONYMS>
3,8,13,17-tetramethyl-5,10,15,20,22,24-hexahydroporphyrin-2,7,12,18-tetrapropionic acid; 5,10,15,20,22,24-hexahydro-3,8,13,17-tetramethyl-21H,23H-porphine-2,7,12,18-tetrapropanoic acid

$$$$
