
  Mrv0541 02231217112D          

 13 12  0  0  1  0            999 V2000
    7.2849    3.3809    0.0000 N   0  0  0  0  0  0  0  0  0  0  0  0
    7.2849    2.5559    0.0000 C   0  0  1  0  0  0  0  0  0  0  0  0
    6.5704    2.1434    0.0000 C   0  0  0  0  0  0  0  0  0  0  0  0
    5.8559    2.5559    0.0000 C   0  0  0  0  0  0  0  0  0  0  0  0
    5.1414    2.1434    0.0000 C   0  0  0  0  0  0  0  0  0  0  0  0
    4.4270    2.5559    0.0000 C   0  0  0  0  0  0  0  0  0  0  0  0
    3.7125    2.1434    0.0000 N   0  0  0  0  0  0  0  0  0  0  0  0
    2.9980    2.5559    0.0000 C   0  0  0  0  0  0  0  0  0  0  0  0
    2.2836    2.1434    0.0000 O   0  0  0  0  0  0  0  0  0  0  0  0
    2.9980    3.3809    0.0000 O   0  0  0  0  0  0  0  0  0  0  0  0
    7.9993    2.1434    0.0000 C   0  0  0  0  0  0  0  0  0  0  0  0
    8.7138    2.5559    0.0000 O   0  0  0  0  0  0  0  0  0  0  0  0
    7.9993    1.3184    0.0000 O   0  0  0  0  0  0  0  0  0  0  0  0
  2  1  1  6  0  0  0
  2  3  1  0  0  0  0
  3  4  1  0  0  0  0
  4  5  1  0  0  0  0
  5  6  1  0  0  0  0
  6  7  1  0  0  0  0
  7  8  1  0  0  0  0
  8  9  1  0  0  0  0
  8 10  2  0  0  0  0
  2 11  1  0  0  0  0
 11 12  1  0  0  0  0
 11 13  2  0  0  0  0
M  END
> <DATABASE_ID>
DB03801

> <DATABASE_NAME>
drugbank

> <SMILES>
N[C@@H](CCCCNC(O)=O)C(O)=O

> <INCHI_IDENTIFIER>
InChI=1S/C7H14N2O4/c8-5(6(10)11)3-1-2-4-9-7(12)13/h5,9H,1-4,8H2,(H,10,11)(H,12,13)/t5-/m0/s1

> <INCHI_KEY>
PWIKLEYMFKCERQ-YFKPBYRVSA-N

> <FORMULA>
C7H14N2O4

> <MOLECULAR_WEIGHT>
190.1971

> <EXACT_MASS>
190.095356946

> <JCHEM_ACCEPTOR_COUNT>
5

> <JCHEM_ATOM_COUNT>
27

> <JCHEM_AVERAGE_NEUTRAL_MICROSPECIES_CHARGE>
-1.0024044447982856

> <JCHEM_AVERAGE_POLARIZABILITY>
19.147054323544015

> <JCHEM_BIOAVAILABILITY>
1

> <JCHEM_DONOR_COUNT>
4

> <JCHEM_FORMAL_CHARGE>
0

> <JCHEM_GHOSE_FILTER>
0

> <JCHEM_IUPAC>
(2S)-2-amino-6-(carboxyamino)hexanoic acid

> <ALOGPS_LOGP>
-3.29

> <JCHEM_LOGP>
-2.750756374757065

> <ALOGPS_LOGS>
-1.15

> <JCHEM_MDDR_LIKE_RULE>
0

> <JCHEM_NEUTRAL_CHARGE>
-1

> <JCHEM_NUMBER_OF_RINGS>
0

> <JCHEM_PHYSIOLOGICAL_CHARGE>
-1

> <JCHEM_PKA>
4.19400523573113

> <JCHEM_PKA_STRONGEST_ACIDIC>
2.1427458995651767

> <JCHEM_PKA_STRONGEST_BASIC>
9.526532961064564

> <JCHEM_POLAR_SURFACE_AREA>
112.65

> <JCHEM_REFRACTIVITY>
44.107800000000005

> <JCHEM_ROTATABLE_BOND_COUNT>
6

> <JCHEM_RULE_OF_FIVE>
1

> <ALOGPS_SOLUBILITY>
1.35e+01 g/l

> <JCHEM_TRADITIONAL_IUPAC>
tetrahydrofolic acid

> <JCHEM_VEBER_RULE>
0

> <DRUGBANK_ID>
DB03801

> <SECONDARY_ACCESSION_NUMBERS>
EXPT01965

> <DRUG_GROUPS>
experimental

> <GENERIC_NAME>
Lysine Nz-Carboxylic Acid

$$$$
