
  Mrv0541 02231215372D          

 13 13  0  0  1  0            999 V2000
    2.1434    2.0625    0.0000 C   0  0  0  0  0  0  0  0  0  0  0  0
    2.1434    1.2375    0.0000 O   0  0  0  0  0  0  0  0  0  0  0  0
    1.4289    0.8250    0.0000 C   0  0  2  0  0  0  0  0  0  0  0  0
    1.4289    0.0000    0.0000 O   0  0  0  0  0  0  0  0  0  0  0  0
    0.7145   -0.4125    0.0000 C   0  0  2  0  0  0  0  0  0  0  0  0
    0.7145   -1.2375    0.0000 C   0  0  0  0  0  0  0  0  0  0  0  0
    1.4289   -1.6500    0.0000 O   0  0  0  0  0  0  0  0  0  0  0  0
    0.0000    0.0000    0.0000 C   0  0  1  0  0  0  0  0  0  0  0  0
   -0.7145   -0.4125    0.0000 S   0  0  0  0  0  0  0  0  0  0  0  0
    0.0000    0.8250    0.0000 C   0  0  2  0  0  0  0  0  0  0  0  0
   -0.7145    1.2375    0.0000 O   0  0  0  0  0  0  0  0  0  0  0  0
    0.7145    1.2375    0.0000 C   0  0  1  0  0  0  0  0  0  0  0  0
    0.7145    2.0625    0.0000 O   0  0  0  0  0  0  0  0  0  0  0  0
  1  2  1  0  0  0  0
  3  2  1  6  0  0  0
  3  4  1  0  0  0  0
  4  5  1  0  0  0  0
  5  6  1  6  0  0  0
  6  7  1  0  0  0  0
  5  8  1  0  0  0  0
  8  9  1  1  0  0  0
  8 10  1  0  0  0  0
 10 11  1  6  0  0  0
 10 12  1  0  0  0  0
  3 12  1  0  0  0  0
 12 13  1  1  0  0  0
M  END
> <DATABASE_ID>
DB01648

> <DATABASE_NAME>
drugbank

> <SMILES>
CO[C@@H]1O[C@H](CO)[C@@H](S)[C@H](O)[C@H]1O

> <INCHI_IDENTIFIER>
InChI=1S/C7H14O5S/c1-11-7-5(10)4(9)6(13)3(2-8)12-7/h3-10,13H,2H2,1H3/t3-,4-,5-,6-,7-/m1/s1

> <INCHI_KEY>
PFROTWRHYMLGHR-NYMZXIIRSA-N

> <FORMULA>
C7H14O5S

> <MOLECULAR_WEIGHT>
210.248

> <EXACT_MASS>
210.056194248

> <JCHEM_ACCEPTOR_COUNT>
5

> <JCHEM_ATOM_COUNT>
27

> <JCHEM_AVERAGE_NEUTRAL_MICROSPECIES_CHARGE>
-0.0031594523625838836

> <JCHEM_AVERAGE_POLARIZABILITY>
20.358093758227227

> <JCHEM_BIOAVAILABILITY>
1

> <JCHEM_DONOR_COUNT>
4

> <JCHEM_FORMAL_CHARGE>
0

> <JCHEM_GHOSE_FILTER>
0

> <JCHEM_IUPAC>
(2R,3R,4R,5S,6R)-6-(hydroxymethyl)-2-methoxy-5-sulfanyloxane-3,4-diol

> <ALOGPS_LOGP>
-0.79

> <JCHEM_LOGP>
-1.3341257456666669

> <ALOGPS_LOGS>
-0.71

> <JCHEM_MDDR_LIKE_RULE>
0

> <JCHEM_NEUTRAL_CHARGE>
0

> <JCHEM_NUMBER_OF_RINGS>
1

> <JCHEM_PHYSIOLOGICAL_CHARGE>
0

> <JCHEM_PKA>
12.470204001327145

> <JCHEM_PKA_STRONGEST_ACIDIC>
9.499487898526706

> <JCHEM_PKA_STRONGEST_BASIC>
-2.9603657616113654

> <JCHEM_POLAR_SURFACE_AREA>
79.15

> <JCHEM_REFRACTIVITY>
46.8846

> <JCHEM_ROTATABLE_BOND_COUNT>
2

> <JCHEM_RULE_OF_FIVE>
1

> <ALOGPS_SOLUBILITY>
4.06e+01 g/l

> <JCHEM_TRADITIONAL_IUPAC>
biotin

> <JCHEM_VEBER_RULE>
0

> <DRUGBANK_ID>
DB01648

> <SECONDARY_ACCESSION_NUMBERS>
EXPT01657

> <DRUG_GROUPS>
experimental

> <GENERIC_NAME>
Methyl 4-thio-beta-D-glucopyranoside

> <SYNONYMS>
Methyl 4-thio-Î²-D-glucopyranoside

$$$$
