 
  Mrv0541 06071313172D          
 
 36 39  0  0  0  0            999 V2000
    5.8656  -12.7691    0.0000 C   0  0  0  0  0  0  0  0  0  0  0  0
    5.8656  -13.5941    0.0000 C   0  0  0  0  0  0  0  0  0  0  0  0
    6.5801  -14.0066    0.0000 C   0  0  0  0  0  0  0  0  0  0  0  0
    7.2945  -13.5941    0.0000 C   0  0  0  0  0  0  0  0  0  0  0  0
    7.2945  -12.7691    0.0000 C   0  0  0  0  0  0  0  0  0  0  0  0
    6.5801  -12.3567    0.0000 N   0  0  0  0  0  0  0  0  0  0  0  0
    8.0090  -14.0066    0.0000 C   0  0  0  0  0  0  0  0  0  0  0  0
    8.7235  -13.5941    0.0000 C   0  0  0  0  0  0  0  0  0  0  0  0
    8.7235  -12.7691    0.0000 C   0  0  0  0  0  0  0  0  0  0  0  0
    8.0090  -12.3567    0.0000 C   0  0  0  0  0  0  0  0  0  0  0  0
    6.5801  -14.8317    0.0000 N   0  0  0  0  0  0  0  0  0  0  0  0
    9.4395  -12.3568    0.0000 O   0  0  0  0  0  0  0  0  0  0  0  0
   10.1551  -12.7699    0.0000 C   0  0  0  0  0  0  0  0  0  0  0  0
    7.2949  -15.2444    0.0000 C   0  0  0  0  0  0  0  0  0  0  0  0
    7.2949  -16.0692    0.0000 C   0  0  0  0  0  0  0  0  0  0  0  0
    8.0094  -16.4817    0.0000 C   0  0  0  0  0  0  0  0  0  0  0  0
    8.7238  -16.0692    0.0000 C   0  0  0  0  0  0  0  0  0  0  0  0
    8.7238  -15.2444    0.0000 C   0  0  0  0  0  0  0  0  0  0  0  0
    8.0094  -14.8319    0.0000 C   0  0  0  0  0  0  0  0  0  0  0  0
    9.4396  -16.4824    0.0000 Cl  0  0  0  0  0  0  0  0  0  0  0  0
   10.8576  -12.3647    0.0000 C   0  0  0  0  0  0  0  0  0  0  0  0
   11.5726  -12.7778    0.0000 C   0  0  0  0  0  0  0  0  0  0  0  0
   12.2682  -12.3764    0.0000 N   0  0  0  0  0  0  0  0  0  0  0  0
   12.9728  -12.7837    0.0000 C   0  0  0  0  0  0  0  0  0  0  0  0
   13.6880  -12.3712    0.0000 C   0  0  0  0  0  0  0  0  0  0  0  0
   13.6883  -11.5456    0.0000 N   0  0  0  0  0  0  0  0  0  0  0  0
   12.9837  -11.1383    0.0000 C   0  0  0  0  0  0  0  0  0  0  0  0
   12.2685  -11.5508    0.0000 C   0  0  0  0  0  0  0  0  0  0  0  0
    9.4318  -14.0241    0.0000 O   0  0  0  0  0  0  0  0  0  0  0  0
   10.1505  -13.6092    0.0000 C   0  0  0  0  0  0  0  0  0  0  0  0
    6.5871  -16.4777    0.0000 Cl  0  0  0  0  0  0  0  0  0  0  0  0
    9.4416  -14.8299    0.0000 O   0  0  0  0  0  0  0  0  0  0  0  0
   10.1661  -15.2484    0.0000 C   0  0  0  0  0  0  0  0  0  0  0  0
    5.1289  -14.0193    0.0000 C   0  0  0  0  0  0  0  0  0  0  0  0
    4.4102  -14.4342    0.0000 N   0  0  0  0  0  0  0  0  0  0  0  0
   14.4148  -11.1267    0.0000 C   0  0  0  0  0  0  0  0  0  0  0  0
  1  2  1  0  0  0  0
  2  3  2  0  0  0  0
  3  4  1  0  0  0  0
  4  5  1  0  0  0  0
  5  6  1  0  0  0  0
  1  6  2  0  0  0  0
  4  7  2  0  0  0  0
  7  8  1  0  0  0  0
  8  9  2  0  0  0  0
  9 10  1  0  0  0  0
  5 10  2  0  0  0  0
  3 11  1  0  0  0  0
  9 12  1  0  0  0  0
 12 13  1  0  0  0  0
 11 14  1  0  0  0  0
 14 15  2  0  0  0  0
 15 16  1  0  0  0  0
 16 17  2  0  0  0  0
 17 18  1  0  0  0  0
 18 19  2  0  0  0  0
 14 19  1  0  0  0  0
 17 20  1  0  0  0  0
 13 21  1  0  0  0  0
 21 22  1  0  0  0  0
 22 23  1  0  0  0  0
 23 24  1  0  0  0  0
 24 25  1  0  0  0  0
 25 26  1  0  0  0  0
 26 27  1  0  0  0  0
 27 28  1  0  0  0  0
 23 28  1  0  0  0  0
  8 29  1  0  0  0  0
 29 30  1  0  0  0  0
 15 31  1  0  0  0  0
 18 32  1  0  0  0  0
 32 33  1  0  0  0  0
  2 34  1  0  0  0  0
 34 35  3  0  0  0  0
 26 36  1  0  0  0  0
M  END
> <DATABASE_ID>
DB06616

> <DATABASE_NAME>
drugbank

> <SMILES>
COC1=CC(NC2=C(C=NC3=CC(OCCCN4CCN(C)CC4)=C(OC)C=C23)C#N)=C(Cl)C=C1Cl

> <INCHI_IDENTIFIER>
InChI=1S/C26H29Cl2N5O3/c1-32-6-8-33(9-7-32)5-4-10-36-25-13-21-18(11-24(25)35-3)26(17(15-29)16-30-21)31-22-14-23(34-2)20(28)12-19(22)27/h11-14,16H,4-10H2,1-3H3,(H,30,31)

> <INCHI_KEY>
UBPYILGKFZZVDX-UHFFFAOYSA-N

> <FORMULA>
C26H29Cl2N5O3

> <MOLECULAR_WEIGHT>
530.446

> <EXACT_MASS>
529.164745233

> <JCHEM_ACCEPTOR_COUNT>
8

> <JCHEM_ATOM_COUNT>
65

> <JCHEM_AVERAGE_NEUTRAL_MICROSPECIES_CHARGE>
0.9159242234552775

> <JCHEM_AVERAGE_POLARIZABILITY>
56.02075629535723

> <JCHEM_BIOAVAILABILITY>
1

> <JCHEM_DONOR_COUNT>
1

> <JCHEM_FORMAL_CHARGE>
0

> <JCHEM_GHOSE_FILTER>
0

> <JCHEM_IUPAC>
4-[(2,4-dichloro-5-methoxyphenyl)amino]-6-methoxy-7-[3-(4-methylpiperazin-1-yl)propoxy]quinoline-3-carbonitrile

> <ALOGPS_LOGP>
4.87

> <JCHEM_LOGP>
4.087721830999999

> <ALOGPS_LOGS>
-4.75

> <JCHEM_MDDR_LIKE_RULE>
1

> <JCHEM_NEUTRAL_CHARGE>
1

> <JCHEM_NUMBER_OF_RINGS>
4

> <JCHEM_PHYSIOLOGICAL_CHARGE>
1

> <JCHEM_PKA_STRONGEST_ACIDIC>
15.47738759107435

> <JCHEM_PKA_STRONGEST_BASIC>
8.028862312386158

> <JCHEM_POLAR_SURFACE_AREA>
82.88000000000002

> <JCHEM_REFRACTIVITY>
142.12089999999995

> <JCHEM_ROTATABLE_BOND_COUNT>
9

> <JCHEM_RULE_OF_FIVE>
0

> <ALOGPS_SOLUBILITY>
9.50e-03 g/l

> <JCHEM_TRADITIONAL_IUPAC>
tetrahydrofolic acid

> <JCHEM_VEBER_RULE>
0

> <DRUGBANK_ID>
DB06616

> <DRUG_GROUPS>
approved

> <GENERIC_NAME>
Bosutinib

> <SYNONYMS>
4-((2,4-dichloro-5-methoxyphenyl)amino)-6-methoxy-7-(3-(4-methyl-1-piperazinyl)propoxy)-3-quinolinecarbonitrile; Bosutinib

> <PRODUCTS>
Bosulif

> <SALTS>
Bosutinib monohydrate

$$$$
