
  Mrv0541 02231217452D          

 10  9  0  0  0  0            999 V2000
    1.7605   -1.8414    0.0000 O   0  0  0  0  0  0  0  0  0  0  0  0
    2.4750   -1.4289    0.0000 C   0  0  0  0  0  0  0  0  0  0  0  0
    2.4750   -0.6039    0.0000 O   0  0  0  0  0  0  0  0  0  0  0  0
    3.1895   -1.8414    0.0000 C   0  0  0  0  0  0  0  0  0  0  0  0
    3.9039   -1.4289    0.0000 N   0  3  0  0  0  0  0  0  0  0  0  0
    4.6184   -1.8414    0.0000 C   0  0  0  0  0  0  0  0  0  0  0  0
    5.3329   -1.4289    0.0000 P   0  0  0  0  0  0  0  0  0  0  0  0
    6.0474   -1.0164    0.0000 O   0  0  0  0  0  0  0  0  0  0  0  0
    5.7454   -2.1434    0.0000 O   0  0  0  0  0  0  0  0  0  0  0  0
    4.9204   -0.7145    0.0000 O   0  0  0  0  0  0  0  0  0  0  0  0
  1  2  1  0  0  0  0
  2  3  2  0  0  0  0
  2  4  1  0  0  0  0
  4  5  1  0  0  0  0
  5  6  1  0  0  0  0
  6  7  1  0  0  0  0
  7  8  1  0  0  0  0
  7  9  1  0  0  0  0
  7 10  2  0  0  0  0
M  CHG  1   5   1
M  END
> <DATABASE_ID>
DB04539

> <DATABASE_NAME>
drugbank

> <SMILES>
OC(=O)C[NH2+]CP(O)(O)=O

> <INCHI_IDENTIFIER>
InChI=1S/C3H8NO5P/c5-3(6)1-4-2-10(7,8)9/h4H,1-2H2,(H,5,6)(H2,7,8,9)/p+1

> <INCHI_KEY>
XDDAORKBJWWYJS-UHFFFAOYSA-O

> <FORMULA>
C3H9NO5P

> <MOLECULAR_WEIGHT>
170.081

> <EXACT_MASS>
170.021833915

> <JCHEM_ACCEPTOR_COUNT>
5

> <JCHEM_ATOM_COUNT>
19

> <JCHEM_AVERAGE_NEUTRAL_MICROSPECIES_CHARGE>
-1.7542873126142577

> <JCHEM_AVERAGE_POLARIZABILITY>
13.365391822753523

> <JCHEM_BIOAVAILABILITY>
1

> <JCHEM_DONOR_COUNT>
4

> <JCHEM_FORMAL_CHARGE>
1

> <JCHEM_GHOSE_FILTER>
0

> <JCHEM_IUPAC>
(carboxymethyl)(phosphonomethyl)azanium

> <ALOGPS_LOGP>
0.04

> <JCHEM_LOGP>
-3.0993062486863834

> <ALOGPS_LOGS>
-1.29

> <JCHEM_MDDR_LIKE_RULE>
0

> <JCHEM_NEUTRAL_CHARGE>
-2

> <JCHEM_NUMBER_OF_RINGS>
0

> <JCHEM_PHYSIOLOGICAL_CHARGE>
-2

> <JCHEM_PKA>
2.950780985456626

> <JCHEM_PKA_STRONGEST_ACIDIC>
-0.5832672592831109

> <JCHEM_PKA_STRONGEST_BASIC>
9.555003832872888

> <JCHEM_POLAR_SURFACE_AREA>
111.44

> <JCHEM_REFRACTIVITY>
42.769600000000004

> <JCHEM_ROTATABLE_BOND_COUNT>
4

> <JCHEM_RULE_OF_FIVE>
1

> <ALOGPS_SOLUBILITY>
1.07e+01 g/l

> <JCHEM_TRADITIONAL_IUPAC>
biotin

> <JCHEM_VEBER_RULE>
0

> <DRUGBANK_ID>
DB04539

> <SECONDARY_ACCESSION_NUMBERS>
EXPT01639

> <DRUG_GROUPS>
experimental

> <GENERIC_NAME>
Glyphosate

$$$$
