
  Mrv0541 02231214452D          

  4  3  0  0  0  0            999 V2000
    3.5219    0.4909    0.0000 N   0  0  0  0  0  0  0  0  0  0  0  0
    2.0929    0.4909    0.0000 N   0  0  0  0  0  0  0  0  0  0  0  0
    2.8075   -0.7466    0.0000 N   0  0  0  0  0  0  0  0  0  0  0  0
    2.8075    0.0784    0.0000 C   0  0  0  0  0  0  0  0  0  0  0  0
  1  4  1  0  0  0  0
  2  4  1  0  0  0  0
  3  4  2  0  0  0  0
M  END
> <DATABASE_ID>
DB00536

> <DATABASE_NAME>
drugbank

> <SMILES>
NC(N)=N

> <INCHI_IDENTIFIER>
InChI=1S/CH5N3/c2-1(3)4/h(H5,2,3,4)

> <INCHI_KEY>
ZRALSGWEFCBTJO-UHFFFAOYSA-N

> <FORMULA>
CH5N3

> <MOLECULAR_WEIGHT>
59.0705

> <EXACT_MASS>
59.048347175

> <JCHEM_ACCEPTOR_COUNT>
3

> <JCHEM_ATOM_COUNT>
9

> <JCHEM_AVERAGE_NEUTRAL_MICROSPECIES_CHARGE>
0.9999971716974311

> <JCHEM_AVERAGE_POLARIZABILITY>
5.570297022100641

> <JCHEM_BIOAVAILABILITY>
1

> <JCHEM_DONOR_COUNT>
3

> <JCHEM_FORMAL_CHARGE>
0

> <JCHEM_GHOSE_FILTER>
0

> <JCHEM_IUPAC>
guanidine

> <ALOGPS_LOGP>
-1.92

> <JCHEM_LOGP>
-1.236839015

> <ALOGPS_LOGS>
-0.71

> <JCHEM_MDDR_LIKE_RULE>
0

> <JCHEM_NEUTRAL_CHARGE>
1

> <JCHEM_NUMBER_OF_RINGS>
0

> <JCHEM_PHYSIOLOGICAL_CHARGE>
1

> <JCHEM_PKA_STRONGEST_BASIC>
12.547900248166645

> <JCHEM_POLAR_SURFACE_AREA>
75.89

> <JCHEM_REFRACTIVITY>
25.858800000000002

> <JCHEM_ROTATABLE_BOND_COUNT>
0

> <JCHEM_RULE_OF_FIVE>
1

> <ALOGPS_SOLUBILITY>
1.15e+01 g/l

> <JCHEM_TRADITIONAL_IUPAC>
tetrahydrofolic acid

> <JCHEM_VEBER_RULE>
0

> <DRUGBANK_ID>
DB00536

> <SECONDARY_ACCESSION_NUMBERS>
APRD01008; EXPT01546

> <DRUG_GROUPS>
approved

> <GENERIC_NAME>
Guanidine

> <SYNONYMS>
Aminomethanamidine; Gu; Guanidin; Guanidine; Imidourea; Iminourea

> <PRODUCTS>
Guanidine hydrochloride

> <SALTS>
Guanidine hydrochloride

$$$$
