
  Mrv0541 05031422152D          

 17 18  0  0  1  0            999 V2000
    3.3523    1.1104    0.0000 C   0  0  0  0  0  0  0  0  0  0  0  0
    3.3523    1.9354    0.0000 C   0  0  0  0  0  0  0  0  0  0  0  0
    2.6378    0.6979    0.0000 C   0  0  0  0  0  0  0  0  0  0  0  0
    0.8838    2.9750    0.0000 C   0  0  0  0  0  0  0  0  0  0  0  0
    0.6538    1.5229    0.0000 C   0  0  0  0  0  0  0  0  0  0  0  0
    1.1387    2.1904    0.0000 C   0  0  0  0  0  0  0  0  0  0  0  0
    2.6378    2.3479    0.0000 C   0  0  0  0  0  0  0  0  0  0  0  0
    0.0768    3.1465    0.0000 C   0  0  1  0  0  0  0  0  0  0  0  0
    1.9233    1.1104    0.0000 C   0  0  0  0  0  0  0  0  0  0  0  0
    1.9233    1.9354    0.0000 C   0  0  0  0  0  0  0  0  0  0  0  0
   -0.1781    3.9312    0.0000 C   0  0  0  0  0  0  0  0  0  0  0  0
    2.6378    3.1729    0.0000 N   0  0  0  0  0  0  0  0  0  0  0  0
   -0.4752    2.5334    0.0000 N   0  0  0  0  0  0  0  0  0  0  0  0
    1.1387    0.8555    0.0000 N   0  0  0  0  0  0  0  0  0  0  0  0
   -0.9851    4.1027    0.0000 O   0  0  0  0  0  0  0  0  0  0  0  0
    0.3739    4.5442    0.0000 O   0  0  0  0  0  0  0  0  0  0  0  0
    0.6288    3.7596    0.0000 H   0  0  0  0  0  0  0  0  0  0  0  0
  2  1  2  0  0  0  0
  3  1  1  0  0  0  0
  6  4  1  0  0  0  0
  6  5  2  0  0  0  0
  7  2  1  0  0  0  0
  8  4  1  0  0  0  0
  9  3  2  0  0  0  0
 10  6  1  0  0  0  0
 10  7  2  0  0  0  0
 10  9  1  0  0  0  0
 11  8  1  0  0  0  0
 12  7  1  0  0  0  0
  8 13  1  1  0  0  0
 14  5  1  0  0  0  0
 14  9  1  0  0  0  0
 15 11  2  0  0  0  0
 16 11  1  0  0  0  0
  8 17  1  1  0  0  0
M  END
> <DATABASE_ID>
DB02286

> <DATABASE_NAME>
drugbank

> <SMILES>
[H][C@](N)(CC1=CNC2=CC=CC(N)=C12)C(O)=O

> <INCHI_IDENTIFIER>
InChI=1S/C11H13N3O2/c12-7-2-1-3-9-10(7)6(5-14-9)4-8(13)11(15)16/h1-3,5,8,14H,4,12-13H2,(H,15,16)/t8-/m0/s1

> <INCHI_KEY>
JUDQOTGDEFNIKF-QMMMGPOBSA-N

> <FORMULA>
C11H13N3O2

> <MOLECULAR_WEIGHT>
219.2398

> <EXACT_MASS>
219.100776675

> <JCHEM_ACCEPTOR_COUNT>
4

> <JCHEM_ATOM_COUNT>
29

> <JCHEM_AVERAGE_NEUTRAL_MICROSPECIES_CHARGE>
-0.0031138855546302135

> <JCHEM_AVERAGE_POLARIZABILITY>
22.482850996092424

> <JCHEM_BIOAVAILABILITY>
1

> <JCHEM_DONOR_COUNT>
4

> <JCHEM_FORMAL_CHARGE>
0

> <JCHEM_GHOSE_FILTER>
0

> <JCHEM_IUPAC>
(2S)-2-amino-3-(4-amino-1H-indol-3-yl)propanoic acid

> <ALOGPS_LOGP>
-1.35

> <JCHEM_LOGP>
-1.9160567218903344

> <ALOGPS_LOGS>
-1.72

> <JCHEM_MDDR_LIKE_RULE>
0

> <JCHEM_NEUTRAL_CHARGE>
0

> <JCHEM_NUMBER_OF_RINGS>
2

> <JCHEM_PHYSIOLOGICAL_CHARGE>
0

> <JCHEM_PKA>
17.467603739685394

> <JCHEM_PKA_STRONGEST_ACIDIC>
1.8381523236524746

> <JCHEM_PKA_STRONGEST_BASIC>
9.398784316090985

> <JCHEM_POLAR_SURFACE_AREA>
105.13000000000001

> <JCHEM_REFRACTIVITY>
60.9032

> <JCHEM_ROTATABLE_BOND_COUNT>
3

> <JCHEM_RULE_OF_FIVE>
1

> <ALOGPS_SOLUBILITY>
4.17e+00 g/l

> <JCHEM_TRADITIONAL_IUPAC>
tetrahydrofolic acid

> <JCHEM_VEBER_RULE>
0

> <DRUGBANK_ID>
DB02286

> <SECONDARY_ACCESSION_NUMBERS>
EXPT00218

> <DRUG_GROUPS>
experimental

> <GENERIC_NAME>
2-amino-3-(4-amino-1H-indol-3-yl)propanoic acid

$$$$
