
  Mrv0541 02231215592D          

 11 13  0  0  0  0            999 V2000
   -0.4806   -2.6017    0.0000 O   0  0  0  0  0  0  0  0  0  0  0  0
    0.1163   -2.0322    0.0000 C   0  0  0  0  0  0  0  0  0  0  0  0
    0.8517   -1.6585    0.0000 C   0  0  2  0  0  0  0  0  0  0  0  0
    0.8517   -0.9111    0.0000 C   0  0  0  0  0  0  0  0  0  0  0  0
    1.3012   -0.1208    0.0000 C   0  0  1  0  0  0  0  0  0  0  0  0
    2.0368   -0.4945    0.0000 C   0  0  0  0  0  0  0  0  0  0  0  0
    2.0368   -1.2419    0.0000 C   0  0  1  0  0  0  0  0  0  0  0  0
    1.5873   -2.0322    0.0000 C   0  0  0  0  0  0  0  0  0  0  0  0
    1.3012   -1.6156    0.0000 C   0  0  0  0  0  0  0  0  0  0  0  0
    0.5657   -1.2419    0.0000 C   0  0  2  0  0  0  0  0  0  0  0  0
    0.5657   -0.4945    0.0000 C   0  0  0  0  0  0  0  0  0  0  0  0
  1  2  2  0  0  0  0
  3  2  1  6  0  0  0
  5 11  1  0  0  0  0
  5  4  1  1  0  0  0
  5  6  1  0  0  0  0
  2 10  1  0  0  0  0
  7  8  1  0  0  0  0
  3  8  1  0  0  0  0
  7  9  1  0  0  0  0
 10  9  1  1  0  0  0
  7  6  1  1  0  0  0
 10 11  1  0  0  0  0
  3  4  1  0  0  0  0
M  END
> <DATABASE_ID>
DB02125

> <DATABASE_NAME>
drugbank

> <SMILES>
O=C1[C@H]2C[C@@H]3C[C@@H](C[C@H]1C3)C2

> <INCHI_IDENTIFIER>
InChI=1S/C10H14O/c11-10-8-2-6-1-7(4-8)5-9(10)3-6/h6-9H,1-5H2/t6-,7+,8-,9+

> <INCHI_KEY>
IYKFYARMMIESOX-SPJNRGJMSA-N

> <FORMULA>
C10H14O

> <MOLECULAR_WEIGHT>
150.2176

> <EXACT_MASS>
150.10446507

> <JCHEM_ACCEPTOR_COUNT>
1

> <JCHEM_ATOM_COUNT>
25

> <JCHEM_AVERAGE_NEUTRAL_MICROSPECIES_CHARGE>
0.0

> <JCHEM_AVERAGE_POLARIZABILITY>
16.731835718959378

> <JCHEM_BIOAVAILABILITY>
1

> <JCHEM_DONOR_COUNT>
0

> <JCHEM_FORMAL_CHARGE>
0

> <JCHEM_GHOSE_FILTER>
0

> <JCHEM_IUPAC>
(1r,3r,5r,7r)-adamantan-2-one

> <ALOGPS_LOGP>
3.09

> <JCHEM_LOGP>
2.2207532086666673

> <ALOGPS_LOGS>
-2.65

> <JCHEM_MDDR_LIKE_RULE>
0

> <JCHEM_NEUTRAL_CHARGE>
0

> <JCHEM_NUMBER_OF_RINGS>
3

> <JCHEM_PHYSIOLOGICAL_CHARGE>
0

> <JCHEM_PKA_STRONGEST_BASIC>
-7.47604581903139

> <JCHEM_POLAR_SURFACE_AREA>
17.07

> <JCHEM_REFRACTIVITY>
42.8892

> <JCHEM_ROTATABLE_BOND_COUNT>
0

> <JCHEM_RULE_OF_FIVE>
1

> <ALOGPS_SOLUBILITY>
3.35e-01 g/l

> <JCHEM_TRADITIONAL_IUPAC>
biotin

> <JCHEM_VEBER_RULE>
1

> <DRUGBANK_ID>
DB02125

> <SECONDARY_ACCESSION_NUMBERS>
EXPT00435

> <DRUG_GROUPS>
experimental

> <GENERIC_NAME>
Adamantanone

$$$$
