
  Mrv0541 05041404002D          

 24 26  0  0  1  0            999 V2000
    3.9934   -1.6500    0.0000 C   0  0  0  0  0  0  0  0  0  0  0  0
    1.7798    3.9841    0.0000 C   0  0  0  0  0  0  0  0  0  0  0  0
    3.9934    0.8250    0.0000 C   0  0  0  0  0  0  0  0  0  0  0  0
    1.5249    3.1994    0.0000 C   0  0  2  0  0  0  0  0  0  0  0  0
    2.5645    0.8250    0.0000 C   0  0  0  0  0  0  0  0  0  0  0  0
    1.7798    1.0799    0.0000 C   0  0  0  0  0  0  0  0  0  0  0  0
    2.5645    0.0000    0.0000 C   0  0  0  0  0  0  0  0  0  0  0  0
    0.7403    2.9445    0.0000 C   0  0  2  0  0  0  0  0  0  0  0  0
    0.7403    2.1195    0.0000 C   0  0  2  0  0  0  0  0  0  0  0  0
    1.5249    1.8646    0.0000 C   0  0  1  0  0  0  0  0  0  0  0  0
    3.2789   -0.4125    0.0000 C   0  0  0  0  0  0  0  0  0  0  0  0
    3.2789   -1.2375    0.0000 N   0  0  0  0  0  0  0  0  0  0  0  0
    3.2789    1.2375    0.0000 N   0  0  0  0  0  0  0  0  0  0  0  0
    3.9934    0.0000    0.0000 N   0  0  0  0  0  0  0  0  0  0  0  0
    1.2949    0.4125    0.0000 N   0  0  0  0  0  0  0  0  0  0  0  0
    1.7798   -0.2549    0.0000 N   0  0  0  0  0  0  0  0  0  0  0  0
    1.2278    4.5972    0.0000 O   0  0  0  0  0  0  0  0  0  0  0  0
    0.0728    3.4294    0.0000 O   0  0  0  0  0  0  0  0  0  0  0  0
    0.0728    1.6346    0.0000 O   0  0  0  0  0  0  0  0  0  0  0  0
    2.0098    2.5320    0.0000 O   0  0  0  0  0  0  0  0  0  0  0  0
    0.7772    3.5481    0.0000 H   0  0  0  0  0  0  0  0  0  0  0  0
    0.5829    3.7543    0.0000 H   0  0  0  0  0  0  0  0  0  0  0  0
    0.0052    2.4940    0.0000 H   0  0  0  0  0  0  0  0  0  0  0  0
    0.9415    1.2812    0.0000 H   0  0  0  0  0  0  0  0  0  0  0  0
  4  2  1  1  0  0  0
  6  5  2  0  0  0  0
  7  5  1  0  0  0  0
  8  4  1  0  0  0  0
  9  8  1  0  0  0  0
 10  6  1  1  0  0  0
 10  9  1  0  0  0  0
 11  7  1  0  0  0  0
 12  1  1  0  0  0  0
 12 11  1  0  0  0  0
 13  3  2  0  0  0  0
 13  5  1  0  0  0  0
 14  3  1  0  0  0  0
 14 11  2  0  0  0  0
 15  6  1  0  0  0  0
 16  7  2  0  0  0  0
 16 15  1  0  0  0  0
 17  2  1  0  0  0  0
  8 18  1  6  0  0  0
  9 19  1  6  0  0  0
 20  4  1  0  0  0  0
 20 10  1  0  0  0  0
  4 21  1  6  0  0  0
  8 22  1  1  0  0  0
  9 23  1  1  0  0  0
 10 24  1  6  0  0  0
M  END
> <DATABASE_ID>
DB02066

> <DATABASE_NAME>
drugbank

> <SMILES>
[H][C@]1(CO)O[C@@]([H])(C2=C3N=CN=C(NC)C3=NN2)[C@]([H])(O)[C@]1([H])O

> <INCHI_IDENTIFIER>
InChI=1S/C11H15N5O4/c1-12-11-7-5(13-3-14-11)6(15-16-7)10-9(19)8(18)4(2-17)20-10/h3-4,8-10,17-19H,2H2,1H3,(H,15,16)(H,12,13,14)/t4-,8-,9-,10+/m1/s1

> <INCHI_KEY>
JRRNRCMIBCSOIH-LFAOKBQASA-N

> <FORMULA>
C11H15N5O4

> <MOLECULAR_WEIGHT>
281.2679

> <EXACT_MASS>
281.112403993

> <JCHEM_ACCEPTOR_COUNT>
8

> <JCHEM_ATOM_COUNT>
35

> <JCHEM_AVERAGE_NEUTRAL_MICROSPECIES_CHARGE>
-0.003969674864310136

> <JCHEM_AVERAGE_POLARIZABILITY>
27.47761248432892

> <JCHEM_BIOAVAILABILITY>
1

> <JCHEM_DONOR_COUNT>
5

> <JCHEM_FORMAL_CHARGE>
0

> <JCHEM_GHOSE_FILTER>
0

> <JCHEM_IUPAC>
(2R,3S,4R,5S)-2-(hydroxymethyl)-5-[7-(methylamino)-2H-pyrazolo[4,3-d]pyrimidin-3-yl]oxolane-3,4-diol

> <ALOGPS_LOGP>
-0.97

> <JCHEM_LOGP>
-2.024652326000001

> <ALOGPS_LOGS>
-1.66

> <JCHEM_MDDR_LIKE_RULE>
0

> <JCHEM_NEUTRAL_CHARGE>
0

> <JCHEM_NUMBER_OF_RINGS>
3

> <JCHEM_PHYSIOLOGICAL_CHARGE>
0

> <JCHEM_PKA>
12.806314751086353

> <JCHEM_PKA_STRONGEST_ACIDIC>
9.3996924320284

> <JCHEM_PKA_STRONGEST_BASIC>
0.3282769372843863

> <JCHEM_POLAR_SURFACE_AREA>
136.41000000000003

> <JCHEM_REFRACTIVITY>
69.6565

> <JCHEM_ROTATABLE_BOND_COUNT>
3

> <JCHEM_RULE_OF_FIVE>
1

> <ALOGPS_SOLUBILITY>
6.14e+00 g/l

> <JCHEM_TRADITIONAL_IUPAC>
biotin

> <JCHEM_VEBER_RULE>
0

> <DRUGBANK_ID>
DB02066

> <SECONDARY_ACCESSION_NUMBERS>
EXPT01450

> <DRUG_GROUPS>
experimental

> <GENERIC_NAME>
N7-Methyl-Formycin A

$$$$
