
  Mrv0541 02231216192D          

  6  5  0  0  0  0            999 V2000
    1.2375    2.1434    0.0000 C   0  0  0  0  0  0  0  0  0  0  0  0
    0.8250    1.4289    0.0000 C   0  0  0  0  0  0  0  0  0  0  0  0
    1.2375    0.7145    0.0000 Se  0  0  0  0  0  0  0  0  0  0  0  0
    0.8250    0.0000    0.0000 C   0  0  0  0  0  0  0  0  0  0  0  0
    1.2375   -0.7145    0.0000 N   0  0  0  0  0  0  0  0  0  0  0  0
    0.0000    0.0000    0.0000 N   0  0  0  0  0  0  0  0  0  0  0  0
  1  2  1  0  0  0  0
  2  3  1  0  0  0  0
  3  4  1  0  0  0  0
  4  5  1  0  0  0  0
  4  6  2  0  0  0  0
M  END
> <DATABASE_ID>
DB02589

> <DATABASE_NAME>
drugbank

> <SMILES>
CC[Se]C(N)=N

> <INCHI_IDENTIFIER>
InChI=1S/C3H8N2Se/c1-2-6-3(4)5/h2H2,1H3,(H3,4,5)

> <INCHI_KEY>
FFKYNFXDBBLWGF-UHFFFAOYSA-N

> <FORMULA>
C3H8N2Se

> <MOLECULAR_WEIGHT>
151.07

> <EXACT_MASS>
151.985270094

> <JCHEM_ACCEPTOR_COUNT>
3

> <JCHEM_ATOM_COUNT>
14

> <JCHEM_AVERAGE_NEUTRAL_MICROSPECIES_CHARGE>
0.9980574298531817

> <JCHEM_AVERAGE_POLARIZABILITY>
10.335953298664112

> <JCHEM_BIOAVAILABILITY>
1

> <JCHEM_DONOR_COUNT>
2

> <JCHEM_FORMAL_CHARGE>
0

> <JCHEM_GHOSE_FILTER>
0

> <JCHEM_IUPAC>
(ethylselanyl)methanimidamide

> <ALOGPS_LOGP>
-0.25

> <JCHEM_LOGP>
0.3692000000000003

> <ALOGPS_LOGS>
-1.36

> <JCHEM_MDDR_LIKE_RULE>
0

> <JCHEM_NEUTRAL_CHARGE>
1

> <JCHEM_NUMBER_OF_RINGS>
0

> <JCHEM_PHYSIOLOGICAL_CHARGE>
1

> <JCHEM_PKA_STRONGEST_BASIC>
9.710778821753685

> <JCHEM_POLAR_SURFACE_AREA>
49.870000000000005

> <JCHEM_REFRACTIVITY>
45.0985

> <JCHEM_ROTATABLE_BOND_COUNT>
2

> <JCHEM_RULE_OF_FIVE>
1

> <ALOGPS_SOLUBILITY>
6.60e+00 g/l

> <JCHEM_TRADITIONAL_IUPAC>
tetrahydrofolic acid

> <JCHEM_VEBER_RULE>
0

> <DRUGBANK_ID>
DB02589

> <SECONDARY_ACCESSION_NUMBERS>
EXPT01939

> <DRUG_GROUPS>
experimental

> <GENERIC_NAME>
Se-Ethyl-Isoselenourea

$$$$
