
  Mrv0541 05041402362D          

 15 15  0  0  1  0            999 V2000
    1.4289    0.8250    0.0000 C   0  0  0  0  0  0  0  0  0  0  0  0
    0.7145   -1.2375    0.0000 C   0  0  0  0  0  0  0  0  0  0  0  0
    0.7145   -0.4125    0.0000 C   0  0  2  0  0  0  0  0  0  0  0  0
    0.7145    1.2375    0.0000 C   0  0  2  0  0  0  0  0  0  0  0  0
    0.0000    0.0000    0.0000 C   0  0  2  0  0  0  0  0  0  0  0  0
    0.0000    0.8250    0.0000 C   0  0  2  0  0  0  0  0  0  0  0  0
    1.4289   -0.0000    0.0000 N   0  0  0  0  0  0  0  0  0  0  0  0
    1.4289   -1.6500    0.0000 O   0  0  0  0  0  0  0  0  0  0  0  0
    0.7145    2.0625    0.0000 O   0  0  0  0  0  0  0  0  0  0  0  0
   -0.7145   -0.4125    0.0000 O   0  0  0  0  0  0  0  0  0  0  0  0
   -0.7145    1.2375    0.0000 O   0  0  0  0  0  0  0  0  0  0  0  0
    0.1842   -1.0445    0.0000 H   0  0  0  0  0  0  0  0  0  0  0  0
    1.4289    1.6500    0.0000 H   0  0  0  0  0  0  0  0  0  0  0  0
   -0.2822   -0.7752    0.0000 H   0  0  0  0  0  0  0  0  0  0  0  0
    0.0000    1.6500    0.0000 H   0  0  0  0  0  0  0  0  0  0  0  0
  3  2  1  6  0  0  0
  4  1  1  0  0  0  0
  5  3  1  0  0  0  0
  6  4  1  0  0  0  0
  6  5  1  0  0  0  0
  7  1  1  0  0  0  0
  7  3  1  0  0  0  0
  8  2  1  0  0  0  0
  4  9  1  6  0  0  0
  5 10  1  1  0  0  0
  6 11  1  6  0  0  0
  3 12  1  1  0  0  0
  4 13  1  1  0  0  0
  5 14  1  6  0  0  0
  6 15  1  1  0  0  0
M  END
> <DATABASE_ID>
DB03955

> <DATABASE_NAME>
drugbank

> <SMILES>
[H][C@@]1(O)CN[C@]([H])(CO)[C@@]([H])(O)[C@]1([H])O

> <INCHI_IDENTIFIER>
InChI=1S/C6H13NO4/c8-2-3-5(10)6(11)4(9)1-7-3/h3-11H,1-2H2/t3-,4-,5-,6-/m1/s1

> <INCHI_KEY>
LXBIFEVIBLOUGU-KVTDHHQDSA-N

> <FORMULA>
C6H13NO4

> <MOLECULAR_WEIGHT>
163.1717

> <EXACT_MASS>
163.084457909

> <JCHEM_ACCEPTOR_COUNT>
5

> <JCHEM_ATOM_COUNT>
24

> <JCHEM_AVERAGE_NEUTRAL_MICROSPECIES_CHARGE>
0.9203421428180738

> <JCHEM_AVERAGE_POLARIZABILITY>
15.840167742216972

> <JCHEM_BIOAVAILABILITY>
1

> <JCHEM_DONOR_COUNT>
5

> <JCHEM_FORMAL_CHARGE>
0

> <JCHEM_GHOSE_FILTER>
0

> <JCHEM_IUPAC>
(2R,3R,4R,5R)-2-(hydroxymethyl)piperidine-3,4,5-triol

> <ALOGPS_LOGP>
-2.22

> <JCHEM_LOGP>
-2.885743183

> <ALOGPS_LOGS>
0.50

> <JCHEM_MDDR_LIKE_RULE>
0

> <JCHEM_NEUTRAL_CHARGE>
1

> <JCHEM_NUMBER_OF_RINGS>
1

> <JCHEM_PHYSIOLOGICAL_CHARGE>
1

> <JCHEM_PKA>
14.040882857401085

> <JCHEM_PKA_STRONGEST_ACIDIC>
12.906053630987143

> <JCHEM_PKA_STRONGEST_BASIC>
8.062727249499266

> <JCHEM_POLAR_SURFACE_AREA>
92.95

> <JCHEM_REFRACTIVITY>
36.5744

> <JCHEM_ROTATABLE_BOND_COUNT>
1

> <JCHEM_RULE_OF_FIVE>
1

> <ALOGPS_SOLUBILITY>
5.11e+02 g/l

> <JCHEM_TRADITIONAL_IUPAC>
tetrahydrofolic acid

> <JCHEM_VEBER_RULE>
0

> <DRUGBANK_ID>
DB03955

> <SECONDARY_ACCESSION_NUMBERS>
EXPT01145

> <DRUG_GROUPS>
experimental

> <GENERIC_NAME>
1-deoxymannojirimycin

> <SYNONYMS>
D-manno-Deoxynojirimycin

$$$$
