
  Mrv0541 02231216372D          

 11 11  0  0  0  0            999 V2000
    0.7145   -1.2375    0.0000 N   0  0  0  0  0  0  0  0  0  0  0  0
    0.7145   -0.4125    0.0000 C   0  0  0  0  0  0  0  0  0  0  0  0
    0.0000    0.0000    0.0000 C   0  0  0  0  0  0  0  0  0  0  0  0
    0.0000    0.8250    0.0000 C   0  0  0  0  0  0  0  0  0  0  0  0
    0.7145    1.2375    0.0000 C   0  0  0  0  0  0  0  0  0  0  0  0
    1.4289    0.8250    0.0000 C   0  0  0  0  0  0  0  0  0  0  0  0
    1.4289    0.0000    0.0000 C   0  0  0  0  0  0  0  0  0  0  0  0
    0.7145    2.0625    0.0000 As  0  0  0  0  0  0  0  0  0  0  0  0
    0.7145    2.8875    0.0000 O   0  0  0  0  0  0  0  0  0  0  0  0
    1.5395    2.0625    0.0000 O   0  0  0  0  0  0  0  0  0  0  0  0
   -0.1105    2.0625    0.0000 O   0  0  0  0  0  0  0  0  0  0  0  0
  1  2  1  0  0  0  0
  2  3  2  0  0  0  0
  3  4  1  0  0  0  0
  4  5  2  0  0  0  0
  5  6  1  0  0  0  0
  6  7  2  0  0  0  0
  2  7  1  0  0  0  0
  5  8  1  0  0  0  0
  8  9  1  0  0  0  0
  8 10  1  0  0  0  0
  8 11  2  0  0  0  0
M  END
> <DATABASE_ID>
DB03006

> <DATABASE_NAME>
drugbank

> <SMILES>
NC1=CC=C(C=C1)[As](O)(O)=O

> <INCHI_IDENTIFIER>
InChI=1S/C6H8AsNO3/c8-6-3-1-5(2-4-6)7(9,10)11/h1-4H,8H2,(H2,9,10,11)

> <INCHI_KEY>
XKNKHVGWJDPIRJ-UHFFFAOYSA-N

> <FORMULA>
C6H8AsNO3

> <MOLECULAR_WEIGHT>
217.0542

> <EXACT_MASS>
216.972014544

> <JCHEM_ACCEPTOR_COUNT>
4

> <JCHEM_ATOM_COUNT>
19

> <JCHEM_AVERAGE_NEUTRAL_MICROSPECIES_CHARGE>
-1.0139833696336777

> <JCHEM_AVERAGE_POLARIZABILITY>
16.276924555978283

> <JCHEM_BIOAVAILABILITY>
1

> <JCHEM_DONOR_COUNT>
3

> <JCHEM_FORMAL_CHARGE>
0

> <JCHEM_GHOSE_FILTER>
0

> <JCHEM_IUPAC>
(4-aminophenyl)arsonic acid

> <ALOGPS_LOGP>
-0.42

> <JCHEM_LOGP>
-0.1748284467214158

> <ALOGPS_LOGS>
-1.29

> <JCHEM_MDDR_LIKE_RULE>
0

> <JCHEM_NEUTRAL_CHARGE>
-1

> <JCHEM_NUMBER_OF_RINGS>
1

> <JCHEM_PHYSIOLOGICAL_CHARGE>
-1

> <JCHEM_PKA>
9.126357748383963

> <JCHEM_PKA_STRONGEST_ACIDIC>
3.9523158772838776

> <JCHEM_PKA_STRONGEST_BASIC>
2.731072532351664

> <JCHEM_POLAR_SURFACE_AREA>
83.55000000000001

> <JCHEM_REFRACTIVITY>
36.7468

> <JCHEM_ROTATABLE_BOND_COUNT>
1

> <JCHEM_RULE_OF_FIVE>
1

> <ALOGPS_SOLUBILITY>
1.10e+01 g/l

> <JCHEM_TRADITIONAL_IUPAC>
tetrahydrofolic acid

> <JCHEM_VEBER_RULE>
0

> <DRUGBANK_ID>
DB03006

> <SECONDARY_ACCESSION_NUMBERS>
EXPT00575

> <DRUG_GROUPS>
experimental; vet_approved

> <GENERIC_NAME>
Arsanilic acid

> <SYNONYMS>
(p-aminophenyl)arsonic acid; 4-aminobenzenearsonic acid; 4-Aminophenylarsonic acid; 4-Aminophenylarsonsäure; 4-arsanilic acid; Arsanilic acid; Arsanilsäure; atoxylic acid; p-arsanilic acid

$$$$
