
  Mrv0541 02231217242D          

  6  5  0  0  0  0            999 V2000
    2.4750   -1.4289    0.0000 O   0  0  0  0  0  0  0  0  0  0  0  0
    2.0625   -0.7145    0.0000 C   0  0  0  0  0  0  0  0  0  0  0  0
    1.2375   -0.7145    0.0000 C   0  0  0  0  0  0  0  0  0  0  0  0
    0.8250   -1.4289    0.0000 O   0  0  0  0  0  0  0  0  0  0  0  0
    0.8250    0.0000    0.0000 C   0  0  0  0  0  0  0  0  0  0  0  0
    0.0000    0.0000    0.0000 O   0  0  0  0  0  0  0  0  0  0  0  0
  1  2  1  0  0  0  0
  2  3  1  0  0  0  0
  3  4  1  0  0  0  0
  3  5  1  0  0  0  0
  5  6  1  0  0  0  0
M  END
> <DATABASE_ID>
DB09462

> <DATABASE_NAME>
drugbank

> <SMILES>
OCC(O)CO

> <INCHI_IDENTIFIER>
InChI=1S/C3H8O3/c4-1-3(6)2-5/h3-6H,1-2H2

> <INCHI_KEY>
PEDCQBHIVMGVHV-UHFFFAOYSA-N

> <FORMULA>
C3H8O3

> <MOLECULAR_WEIGHT>
92.0938

> <EXACT_MASS>
92.047344122

> <JCHEM_ACCEPTOR_COUNT>
3

> <JCHEM_ATOM_COUNT>
14

> <JCHEM_AVERAGE_NEUTRAL_MICROSPECIES_CHARGE>
-2.554350518207976e-07

> <JCHEM_AVERAGE_POLARIZABILITY>
8.934349980067854

> <JCHEM_BIOAVAILABILITY>
1

> <JCHEM_DONOR_COUNT>
3

> <JCHEM_FORMAL_CHARGE>
0

> <JCHEM_GHOSE_FILTER>
0

> <JCHEM_IUPAC>
propane-1,2,3-triol

> <ALOGPS_LOGP>
-1.93

> <JCHEM_LOGP>
-1.8390140226666665

> <ALOGPS_LOGS>
1.10

> <JCHEM_MDDR_LIKE_RULE>
0

> <JCHEM_NEUTRAL_CHARGE>
0

> <JCHEM_NUMBER_OF_RINGS>
0

> <JCHEM_PHYSIOLOGICAL_CHARGE>
0

> <JCHEM_PKA>
15.167747933654136

> <JCHEM_PKA_STRONGEST_ACIDIC>
13.605499310321004

> <JCHEM_PKA_STRONGEST_BASIC>
-2.9679773519640786

> <JCHEM_POLAR_SURFACE_AREA>
60.69

> <JCHEM_REFRACTIVITY>
20.516099999999998

> <JCHEM_ROTATABLE_BOND_COUNT>
2

> <JCHEM_RULE_OF_FIVE>
1

> <ALOGPS_SOLUBILITY>
1.17e+03 g/l

> <JCHEM_TRADITIONAL_IUPAC>
tetrahydrofolic acid

> <JCHEM_VEBER_RULE>
0

> <DRUGBANK_ID>
DB09462

> <SECONDARY_ACCESSION_NUMBERS>
EXPT01027; DB04077

> <DRUG_GROUPS>
approved; investigational

> <GENERIC_NAME>
Glycerin

> <SYNONYMS>
1,2,3-propanetriol; 1,2,3-trihydroxypropane; Glycerin; Glycerin, anhydrous; Glycerin,anhydrous; glycérine; Glycerine; Glycerinum; glycérol; Glycerol; Glyzerin; Monoctanoin component D; Ölsüß; Propanetriol; Trihydroxypropane

> <PRODUCTS>
2x First Essence; 3 en 1 Cleanser. Deep Cleansing; 3D Lifting; 3ce Liqu Id Eye Liner Black; 3ce Liqu Id Eye Liner Brown; 7 Select Redness Relief; 75% Olive Oil Marseille; AC Clear Sheet Mask; AC Control Daily Mask; ALA-C Cell clinic solution; AN12 Secret Therapy Feminine Cleanser; AN12 Skin Therapy Vita-B Aloe Soothing Gel; ANYPACK Multi Active hydroge l Eye; AT Alpha; AT Alpha Plus; ATONO2 Oxygen Baby Bath and; ATONO2 Oxygen Baby Cream; ATONO2 Oxygen Baby Soothing Gel; ATONO2 Oxygen Bubble Foam; ATONO2 Oxygen Pure Bath and; ATOPALM Hemorrhoidal Pain Relieving; ATOSIS Mist; AVOCADO OI L FIRMING MASK 7 Days; Ab Duo Whitening A; Absolute PPC; Ac All; Actifirm Recovery Toner Gowoonsesang Expert; Active Resurgence; Active Resurgence Eye; Active Resurgence Serum; Active Resurgence Toner; AdipoWin; Adult Glycerin Laxative; Advanced Cell Boosting EX Night; Advanced Cell Boosting EX Toner; Advanced Cell Boosting EX Watery; Advanced DNA Medicated Collection; Advanced DNA Medicated Collection Kit II; Advanced DNA Medicated Collection Kit III; Advanced Eye Relief Dry Eye Rejuvenation; Advanced Eye Relief/Dry Eye/ Environmental Lubricant; Africa Bird Homme All In One Moisturizer; Agarol Eml Strawberry; Agarol Plain; Agarol Plain Eml; Agarol Vanilla Laxative Liq; Age Defense Pro Prebiotic Technology Econature; All In One Dual Mask; All In One Multi Foam Cleanser; All in one glow concentate ampoule; All-IN-one Cleanser; Allvit Revital; Allvit Revital Skin; Allvit Skin Lighting Cleansing Foa m; Aloe Bha Skin Toner; Aloe Soothing; Aloe Vera Gel; Aloe Vera Sprayer; Aloevera Soothing Gel 98%; Alopel Foam; Always Bright Extra Brightening; Always Bright Lightening Oxy Peel; Always Bright Spot Lumedic; Always Decongest Relief Ample; Always Decongest Soothing Mask; Always Pure First Aid; Always Pure First Aid Toner; Amazing Ampoule; Amethyst ReElastic Transfusion DNA Kit; Amuldy Kids; Amuldy S; An Adc Egf Wrinkle Eye; An Adc Sp Intensive Wrinkle Eye; An12; An12 Anus Premium Cleanser; Ancee Dna Eye; Anti Wrinkle Effect Ample; Anti Wrinkle Effect Eye; Anti Wrinkle Eye Serum; Anti Wrinkle Hand Essence; Anti Wrinkle effect; Anti aging hydrogel mask pack; Antizom; Anypack Aloe Vera Sheet Mask; Anypack Aloe Vera Tencel Mask; Anypack Crysta L Season Second Skin Hydro Face Mask; Anypack Gold Season Second Skin Hydro Face Mask; Anypack Pearl Sheet Mask; Anypack Pearl Tencel Mask; Anypack Pomegranate Sheet Mask; Anypack Pomegranate Tencel Mask; Anypack Royal Jel Ly Sheet Mask; Anypack Royal Jel Ly Tencel Mask; Apple Bubble; Aqua Bab Modeling Mask; Aqua Collagen Hyaluronic Acid Hydro Mask; Aqua Collagen Marine Hydro Lip; Aqua Collagen Marine Hydro Mask; Aqua Collagen Marine Hydro Mask 25g; Aqua Collagen Solu Tion Marine Hydroge L Eye Crea M Mask; Aqua Collagen Solution Eye Treatment Mask; Aqua Collagen Solution Marine Hydrogel Eye; Aqua Rush; Aqua Rush Cover Cushion; Aqua Rush Serum; Aqua-ear Dps; Aquato; Aquato Baby; Aquato Plus Moisture; Aquato Plus Vital; Aquato Plus Water Blossom Top To Toe Wash; Arocell Pure Cleansing Pads; Artifical Tears; Artificial Tears; Artificial Tears Lubricant Eye Drops; Ashwagandha Ferment Mask; Ato All; Ato Pollen; Atopim; Atorak Ampoule; Atorak Intensive Moisture; Atorak Intensive Mousture; Avedana Glycerin Laxative; Avedana Hemorrhoidal Maximum Strength; B Bind Rejuvenating Neoendorphin Mask Pack; BABOR Baborganic Age Preventing Body Cream; BABOR HSR Lifting Eye Cream; BANACOCica-aid Centella Peptide emulsion; BANACOS Centellamide Cica Peptidecream; BANACOS Cica-aid Centella Peptide ampoule; BANACOS Cica-aid Centella Peptide toner; BIO SKIN Crystal Bio-Cellulose Mask; BK Cell 5DAYS OF SECRET AQUA MOISTURIZING; BK Cell 5DAYS OF SECRET MYSTIC CLEANSING; BK Cell 5DAYS OF SECRET PURITY WRINKLE LIFTING; BOTANIC HEAL boH Air Jet Daily Mask Hyaluronic Acid; BOTANIC HEAL boH Air Jet Daily Mask Madecassoside; BRTC Animal Horse; BRTC Animal Mask Shark; BRTC Animal Mask Swallow; BRTC Animal Msk Sheep; BRTC Bright Eye Vitalizer; BRTC Jasmine 3D Jelly Foundation; BRTC Make Over Mask Bewitch; BRTC Make Over Mask Empress; BRTC Make Over Mask Purity; BRTC Make Over Mask Temptation; Baborganic Pure Energizing Skin; Baborganic Pure Line Reducing; Baby Essence; Baby Head and Body Jelly Wash; Baby Oil; BabyO2; Balmers Hanryeoncho Scalp Scooling mud pack; Bano Anti-Oxidant InjectionMask; Bano Baby Face InjectionMask; Bano Water Glow InjectionMask; Bano White Jade InjectionMask; Banobagi Anti-oxidantInjection Mask; Banobagi Baby Face InjectionMask; Banobagi Gold Propolis InjectionMask; Banobagi Milk Thistle Repair; Banobagi Milk Thistle Repair Mask; Banobagi Milk Thistle Repair Serum; Banobagi Milk Thistle Repair Toner; Banobagi Silk Pearl InjectionMask; Banobagi Vita Cocktail Foil Mask Age; Banobagi Vita Cocktail Foil Mask Aqua; Banobagi Vita Cocktail Foil Mask Brightening; Banobagi Vita Genic Jelly Mask Hydrating; Banobagi Vita Genic Jelly Mask Lifting; Banobagi Vita Genic Jelly Mask Relaxing; Banobagi Vita Genic Jelly Mask Whitening; Banobagi Water Glow InjectionMask; Banobagi White Jade InjectionMask; BeauBeaute Collagen Hydroge l Essence Beauty Mask; BeauBeaute Placenta Hydroge l Essence Beauty Mask; Bee Venom; Bee Venom Cleansing Foam; Bee Venom Toner; Bee Venom Treatment Spot; Beevenom; Beevenom Emulsion; Beevenom Mask Sheet; Beevenom Sleeping Mask; Beevenom Toner; Benton Fermentation Essence; Benton Fermentation Eye; Better Than Nature Skin Softner; Beyond Rapid Relief; Biellee Pollen Whitening Wrinkle Time Repair Ampoule; Bio DNA Serum; Bio Miracle Amethyst Mask; Biotoc Regen; Biotrue Hydration Boost; Black Food MGgel Lip Zone Mask; Black Food MGgel Under Eye Mask; Black Food Recipe MGgel Mask; Black Paint Rubar; Blemish Potion; Blemish Serum; Blemish Soothing Moisturizer; Blemish Toner; Bliss GVS; Bliss GVS Children; Blister Balm Protective Lip Treatment; Blooming Shield Waterful; Blooming Shield to foam cleanser; Body Hair Moisturizing Oil; Body Scrub; Bodyholic Red Potion Hair and Body Mist; Bodyholic Sky Potion Hair and Body Mist; Bodyholic Yellow Potion Hair and Body Mist; Brtc Anti Blemish Complex; Brtc Blue Phyto Complex; Brtc Overnight Pore Tightener; Brtc Purple Vigor Complex; Brtc Tannin Pore Complex; Brtc Vitalizer Sleeping Pack; Brtc White Phyto Complex; Brucke A.C.C. Calming Mist; Bubble Refining Cleanser; Buddate Inonotus Obliquus Water Brilliance Mask; Buddate Lotus Moisture Essence; Bueno Anti-wrinkle Peptide; Bueno Salmon S.O.s Mask; Bulgarian Rose; Bulgarian Rose Ampoule; Bulgarian Rose Gel Toner; Burzangmury Gold; Burzangmury Gold Treatment; By Pharmicell Lab Beaucell Dual Hydrogel Mask; By Pharmicell Lab The Prestige; C-MORE Glycerin Lubricant Eye Drops; CAREALL Artifical Tears; CELDERMA Ninetalks Hydrogel Eye Patch; CELDERMA Ninetalks Hydrogel Eye Patch Box; CELDERMA Ninetalks Hydrogel Mask; CELDERMA Pearl Lace Hydrogel Mask; CELLSTORY Plus Cell Cleanser; CELLSTORY Plus Cellplant Meso-Care Program (1 week); CELLSTORY Plus Cellplant Meso-Care Program (4 week); CHICA Y CHICO Killing Star Cleanser; CIZAR First Calming; CIZAR First Calming Toner; CLIV Barrier Power; CLIV Barrier Power Ampoule; CLIV Character Mask Bee; CLIV Character Mask Panda; CLIV Character Mask Penguin; CLIV Character Mask Tiger; CLIV Ginseng Berry Premium; CLIV Ginseng Berry Premium Ampoule; CLIV Ginseng Berry Premium Eye; COOL MINT AROMATHERAPY MASK 27g; CP Bebe; CP Bebe wash; CP Medi; CP Medi theraphy; CVS Health Hemorrhoidal Cream; CVS Health Maximum Strength Sore Throat Fast Relief; CVS Hemorrhoidal; CVS Moisturizing Lubricating Eye; CVS Moisturizing Lubricating Eye Twin Pack; CVS Pharmacy Childrens GLYCERIN SUPPOSITORIES LAXATIVE; CVS Pharmacy GLYCERIN SUPPOSITORIES LAXATIVE; CVS Pharmacy Glycerin Laxative; Calming Skin; Camelia Body; Care Cleansing Foam; CareCella Bodyshaper Warming; CareCella Carboxy; CareCella Facial Line-up Lifting; CareCella Facial Line-up Tightening Serum; CareCella VFB Bio Peel Serum; CareCellla Facial Line-up; CareOne Maximum Redness Relief Eye Drops; CareOne Maximum Strength Redness Relief; Carrot Seed Oi L Calming Mask 7days; Cell Renew Bio Micro Peel Soft; Cellboosting Homme Skin; Cellboosting Whitening Toner; Cellisys EX EGF Intense Mask EGF; Cellisys EX EGF Wrinkle 29 Activator; Cellisys EX Wrinkle Solution; Cellmov Cell Line Mask; Cellpium Shinyline; Cellpium rich body; Cellzyme Ampoule; Cellzyme Secret Therapy; Cellzyme Secret Therapy 3845; Centella Scar; Cepacol Dual Relief; Cepacol Sore Throat; Cepacol Ultra Sore Throat; Ceviangs Hydro Effective Moisturizing; Ceviangs Revolutionary Ultra Rejuvenating Ampoule; Ceviangs Revolutionary Ultra Rejuvenating Ampoule Special; Ceviangs Ultra Hydro Effective Sun; Ceviangs Ultra Total B B; Chloraseptic Sore Throat Max; Cicatrix Skin Protectant; Claon; Clapiel Vita C Serum; Cleanser Balancing; Cleanser Sensitive Skin; Clear Eyes; Clear Eyes Acr By Murine; Clear Eyes Advanced Dry and Itchy; Clear Eyes Allergy; Clear Eyes Cooling Itchy Eye Relief; Clear Eyes Cooling Redness Relief; Clear Eyes Extra Strength Redness Relief; Clear Eyes Maximum Itchy Eye Relief; Clear Eyes Maximum Itchy Eye Relief Handy Pocket Pal; Clear Eyes Maximum Redness Relief; Clear Eyes Pure Relief Multisymptom; Clear Eyes Pure Relief for Dry Eyes; Clear Eyes Redness Relief; Clear Eyes Redness Relief Eye Drops Sterile; Clear Eyes Redness Relief Handy Pocket Pal; Clear Eyes for Dry Eyes; Clear Eyes for Dry Eyes Plus Redness Relief; Cleareyes Maximum Itchy Eye Relief; Cleareyes Redness Relief; Clenziderm Normal To Dry Skin Acne Therapeutic System; Clenziderm Therapeutic Moisturizer; Cliv Ryeoyun Snow White; Cliv Ryeoyun Snow White Ampoule; Cluederm BODY; Cluederm BODY 10.5g; Cluederm BODY 7.5g; Cluederm LIFTING; Co2 Carbonic Body Fit; Co2 Carbonic Pack; Co2 Polymer Mask Pack; Coca-Glycerine Control; Collagen Resurgence Laser Ampoule; Collagen Resurgence Mask; Colloidal Iodine; Collyrium Eye Drops; Complete Dermask; Cool Mint Aromatherapy Mask; Coral S; Correct Combo; Correct Essential Activator; Correway Personal Lubricant; Cotton Armpit; Cry for You Lubricant Eye Drops; Curel Alpha Hydroxy Dry Skin Lotion; Curel Therapeutic Moisturizing Lotion; DANCHUN JADE oriental herb cosmetics; DEARSIR Aqua Shuttle Essence Skin; DEARSIR Gentle Relief Cleansing Fo am; DEARSIR Perfection Fluid; DG Health Artifical Tears; DG Health Dry Eye Relief; DG Maximum Strength Redness Relief; DIAPIA 24K Gold Snail FirmingGel Mask; DIAPIA 24K Gold SnailGel Eye Patch; DIAPIA Collagen Goat Milk Ampoule Mask; DIAPIA HA Aqua Shining Mask; DOCTORS CHOICE Glycerin Lubricant Eye Drops; DR DEEP MULTIemulsion; DR. BABOR DERMA CELLULAR Ultimate Firming Decollete Mask; DR.SERSE Serum; DX1 OraGenomic Medicated DNA Collection Screen; DX2 OraGenomic Medicated DNA Collection Screen; Daily Rice Cleansing Mini Due Set; Daily Rice Rebalancing Cleansing Water; Daily turn over rice perfectoil foam cleanser; Dcs Blemish Care; Dcs Blemish Care Ampoule; Dcs Blemish Care Foam Cleanser; Dcs Intensive Vital; Dcs Intensive Vital Mask; Dcs Intensive Vital Toner; Dcs Merderm Jeju Lava Seawater Cleansing Foam; Dcs Pore Heating Cleansing; Dcs Pore Refining; Dcs Pore Tightening Serum; Dead Skin Perfect Cleanser; Deer Velvet Ampoule; Derm-apply; Derma Dr.lab Hydromoist Balancing Cream; Derma Dr.lab Hydromoist Day Gel Serum; Derma Dr.lab Hydromoist Essential Toner; Derma Dr.lab Hydromoist Mild Bubble Foam; Derma Dr.lab Hydromoist Water Gel Cream; Derma First Duo; Derma First Mask; Derma Honey Mask; Dermoessential Post Lnc; Dermoessential Post Lnc Mist; Dermoessential Post Lnc Serum; Desmaquillante Ojos Weye; Df-2; Dg Health Maximum Redness Relief; Diapia Adl Turmeric Pearl Foaming Cleanser; Diona Cell Illuminating Booster; Diona Cell Regeneration Booster; Disinfect Wipes; Disinfectant Cleaning Wipes; Disinfectant Wet Wipes; Disinfecting Wipes; Dna Couple Mask; Doctor Butler Hemorrhoid and Fissure Advanced Formula; DooBony Mosrepel; Double S Essence Clean; Double S Essence Clean 2g 5ea; Dr Angio; Dr Ciel Mineral Emulsion; Dr Ciel Mineral Skin; Dr Deep ALL in ONE Cleansing; Dr Deep Acpa Tea TreeLotion; Dr Deep AtodeepSoap; Dr Deep Baby Body WashNShampoo; Dr Deep BodyLotion; Dr Deep BodyLotion Mini; Dr Deep Deep Fresh; Dr Deep Enrich NourishingCream; Dr Deep Multi Emulsion Mini; Dr Deep Natural Mineral HandCream; Dr Deep NaturalShampoo; Dr Deep Propolis Synergy Serum; Dr Deep Real Body Wash; Dr Deep SkinToner Mini; Dr Deep Skintoner; Dr G Whitening FORTIFIER by EGF; Dr G deWrinkle BOOSTER ample by EGF; Dr G deWrinkle FORTIFIER by EGF; Dr Joe Lab Vitamin C Serum; Dr Varogel; Dr Vita Clinic Gently Vita Exfoliator; Dr. A Anti Pollution Pollustop Ato; Dr. Althea Foaming Cleanser and Bubble O2 Mask; Dr. B Anti Pollution Bubble Mask; Dr. Gloderm Tabrx Liftup Mask; Dr. Gloderm Tabrx Moisture; Dr. Gloderm Tabrx Moisture Mask; Dr. Gloderm Tabrx Whitening Mask; Dr. Gloderm Tabrx Wrinkletox Mask; Dr. Gloderm Time To Moisture Mask; Dr. Iaso Uv Total Base SPF 46 Pa; Dr. Iaso Vita White; Dr. Serse; Dr. Zonskin Nunssup Jara; Dr.Althea Herb Therapy Velvet Mask; Dr.G Actifirm Real Lifting; Dr.G Actifirm Real Lifting Cell Essence; Dr.G Actifirm Real Lifting Emulsion; Dr.G Actifirm Real Lifting eye; Dr.G Aqua Collagen Mask; Dr.G HONEY HAND CARE; Dr.G Hydra Fresh pH Mist; Dr.G Hydra Full of Water; Dr.G Hydra Intensive; Dr.G Hydra Intensive Bubble Foam Cleanser; Dr.G Hydra Intensive Cleansing Water; Dr.G LAVENDER HAND CARE; Dr.G OLIVE HAND CARE; Dr.G PORE MASK PEELING; Dr.G RED-BLEMISH CLEAR; Dr.G RED-BLEMISH SOOTHING AMPOULE; Dr.G Revital Enhancer; Dr.G Revital Enhancer Cleansing Foam; Dr.G Revital Enhancer Emulsion; Dr.G Revital Enhancer Toner; Dr.G Whitening Vita Mask; Dr.G Wrinkle Snail Mask; Dr.Jart All That Lift and Firm; Dr.Jart Prescriptment All That Lift and Firm; Dr.NUELL Brightening Mask Pack; Dr.NUELL Mugwort Shaking Pack; Dr.NUELL Propolis Real 90 Ampoule; Dr.NUELL True Deep Mosturizing; Dr.NUELL Vanishing BB; Dr.NUELL Water Full Skin Barrier Losesnce; Dr.althea Drink Up Essential Mist; Dr.g Aquasis Moisture Ampoule; Dr.g Aquasis Moisture Toner; Dr.g Dewrinkle Booster Ample By Egf; Dr.g Dewrinkle Fortifier By Egf; Dr.g Whitening Booster Ample By Egf; Dr.g Whitening Fortifier By Egf; Dr.g Whitening Reformer By Egf; Dr.isao Vita White Serum; Dry Eye Formula Lubricant Eye Drops; Dry Eye Tears; Dry eye relief; Dsc Pore Cleansing; Ducks Egg Gdii Foil Mask; DyNAmic Kit; DyNAmic Plus Pak Kit; Dynamiclear ORO; Dynarex Hydrogel; EASYDEW DAILY DOUBLE HYDRA Toner; EGF Crystal 10 ppm; EGF-FGF Ampoule; EXODERMA Brightening Mellow Foam; EXODERMA Brightening Peeling Gel; EXODERMA Calming Toner Pad; EXODERMA Multi-stick Balm; Ear Dry Leader; Easydew Daily DOUBLE HYDRA CREA M MASK; Easydew Daily Extra Mild Peeling; Easydew Daily Moist Cleansing Whip Foa M; Effective Hair Strengthen; Egf Duo Moisturizer; Elevate Hair Regrowth Foam; Elikin Anti Wrinkle MaskPack; Elikin Aqua MaskPack; Elikin Collagen MaskPack; Elikin Whitening MaskPack; ElishaCoy 24K Gold Mineral; ElishaCoy 24K Gold Mineral Essence; ElishaCoy Brightening Ampoule Solution Mask; ElishaCoy Moist Up Brightening CapsuleEssence; ElishaCoy Moist Up Hyalurone Ampoule Toner; ElishaCoy Moist Up Super Hyalurone; ElishaCoy Moist Up Super Hyalurone Ampoule Serum; ElishaCoy Refreshing Ampoule Solution Mask; ElishaCoy Revitalizing Ampoule Solution Mask; ElishaCoy Skin Refining Snail Cleanser; ElishaCoy Skin Refining Snail Essence; ElishaCoy Skin Refining Snail Mask; ElishaCoy Skin Refining Snail Skin; ElishaCoy Skin Repairing Snail Eye Balm; ElishaCoy Snail Hydrogel Eye; ElishaCoy Snail Hydrogel Mask; ElishaCoy Vita CapsuleCleanser; Endura; Ephyrel; Equaline Hemorrhoidal; Equate Eye Drops Dry Eye Relief; Equate Hemorrhoidal; Equate Lubricating Eye; Equate Redness and Dry Eye Relief Eye Drops; Equate Restore Dual Lubricating; Equate Restore Dual Sensitive Lubricant; Eros Anal Ease; Eros Aqua; Eros Aqua Based; Eros Aqua Sensations Water Based; Eros Explorer Man; Eros Extended Love 1 Top Level; Eros Extended Love 2 Top Level; Eros Extended Love 3 Top Level; Eros Extended Love Glide 1 Top Level; Eros Extended Love Glide 2 Top Level; Eros Extended Love Glide 3 Top Level; Eros Fisting Slide X; Eros Fisting Ultra X; Eros Relax Woman; Eros Tasty Fruits; Essential Body Moisturizing Essence; Essential Body Nutritive Butter; Essential Body Relaxing Essence; Essential Solution Caviar Mask Sheet; Essential Solution Coenzyme Q10 Mask Sheet; Essential Solution Collagen Mask Sheet; Essential Solution Honey Mask Sheet; Essential Solution Hyaluronic Acid Mask Sheet; Essential Solution Pearl Mask Sheet; Essential Solution Red Ginseng Mask Sheet; Essential Solution Vita A Mask Sheet; Essential Solution Vita C Mask Sheet; Evereden Multi-purpose Healing Balm; ExEm Foam; Exchange Select Artificial Tears Lubricant Eye Drops; Eye Contour Anti-puffiness and Dark Circles. Eye Correct; Eye Dclare II Lubricant Eye Drops; Eye Drops; Eye Drops Lubricating Tears; Eye Drops Redness and Dry Eye Relief; Eyeganics Organic Tears; FEDORA Oriental Spa Ampoule; FIRMING Camellia Mask; Fall in Rub (Love) Hand; Family Care Redness Relief; Family Wellness; Fedora CONCENTRATING HYDRO MOISTURIZER; Fedora CONCENTRATING HYDRO SERUM; Fedora CONCENTRATING HYDRO TONER; Fedora Cinderella; Fedora FIRMING INTENSIVE EYE; Fedora ORIENTAL SPA AMPOULE; Fikia Marine Brightening Serum; Fikia Marine Velvet Whitening; Find Bichon Cleansing Mask; First Aid Direct Industrial Eye Drops; Flavobac Health Guard Complete; Fleet; Flex Power Cream; Flexpower Recovery; Floria Whitening Emulsion; Fluidbase Max; Forever Lasting Precious Essential Water; Forever Lasting Precious Oil Essence; Formula H; Freds Dry Eye Relief; Fresh After Vacance Body Soothing; Fresh Med Solution; G3s Ampoule; GLOWING Marigold Mask; GMDANSU Ampoule; GNP Eye Drops Dry Eye Relief; GNP Eye Drops Redness and Dry Eye Relief; GNP EyeDrops Maximum Redness Relief; GNP Glycerin and Arificial Rose Water; Galactomyces Man Booster; Galentic Hydrogel; Gamma HCream; GenTeal Tears (Moderate); Gericare Artificial Tears Lubricant; Gericare Artificial Tears Lubricant Eye; Ginseng Berry Eye Lift; Ginseng Royal Silk Ampoule; Ginseng Royal Silk Eye; Ginseng Royal Silk Fo Am Cleanser; Ginseng Royal Silk Gold Hydro Mask; Ginseng Royal Silk Gold Hydro Mask 10ea; Ginseng Royal Silk Gold Hydro Mask 1ea; Ginseng Royal Silk Watery; Ginseng Stemcell Mask; Ginsenoside Rg1 Rejuvenating Moisturizing; Given By Nature Aloe Mask Sheet; Given By Nature Bamboo Mask Sheet; Given By Nature Cherry Blossom Mask Sheet; Given By Nature Green Tea Mask Sheet; Given By Nature Olive Mask Sheet; Given By Nature Rice Mask Sheet; Given By Nature Rose Hip Mask Sheet; Given By Nature Tea Tree Mask Sheet; Glizigen Gel Intimate; Glizigen Single Dose Intimate Gel; Glizigen Skin Protectant; Glizygen Skin Protectant; Gly-rectal Sup Pour Adultes; Glycerin; Glycerin Adult; Glycerin Laxative; Glycerin Liq; Glycerin Liq 100%; Glycerin Liquid; Glycerin Liquid Laxative Enema(Kaisalilu); Glycerin Suppositories; Glycerin Suppositories (children); Glycerin Suppositories Infant-children 90%; Glycerin Suppositories for Adults 90%; Glycerin USP; Glycerin USP (liquid); Glycerin, Lidocaine, Petrolatum, and Phenylephrine Hydrochloride; Glycerin, Phenylephrine Hydrochloride, Pramoxine, White Petrolatum; Glycerinated Phenol Saline; Glycerine Liq 100%; Glycerine Sup Pour Adultes; Glycerol-Saline Control; Glycerolyte 57 Solution; Glysol-500; Glyzigen Gel Intimate; Glyzigen Single Dose Intimate Gel; Gold Ducks Egg Gdii; Golden Ball Healer; Good Neighbor Pharmacy Redness Relief; Good Sense Hemorrhoidal Maximum Strength Pain Relief; GoodSense Redness Relief Plus; Goodsense Lubricating Eye Drops; Goodsense Maximum Strength Redness Relief Plus; Goojin Bio Serum; Grain Timeless Perfection; Greek Yogurt Pack Blue Berry; Greek Yogurt Pack Orange; Green Wheatgrass Facial Cleansing; Greentinol Eye Serum; Guerison All In One Tocx; Gujin Bio Serum; H2 365 Clean; HEB Eye Drops; HEB Maximum Strength Pain Relief Hemorrhoidal; HYDRA Rose Mask; Haesum Marine Fill; Haesum Marine Fill Serum; Haesum Marine Fill Softner; Hair Regenerator; Hair Treatment Premium; Hand Sanitizer; Hand Therapy Creme; Hand and Nature Anti Wrinkle Hand Almond Oil; Hand and Nature Anti Wrinkle Hand Aragon Oil; Hanskin Bio Prism Brightening Fo Aming Cleanser; Hanskin Hyaluron Skin Essence; Health Mart Redness Relief; Hemorrhoid Relief; Hemorrhoidal; Hemorrhoidal Anesthetic; Hemorrhoidal Cream; Hemorrhoidal Cream with Aloe; Hemorrhoidal Maximum Strength Pain Relief; Hemorrhoidal Relief; Hemorrhoidal Relief Cream; Hemorrhoidal With Lidocaine; Herbal Skin Toner; Hi-Drops; Honest Cleansing Foa M; Honest Tt Mist; Honey Bomb Beauty; Huitomi; Huitomi Pack; Huitomi Serum; Hum; Hum Body Liner; Hum CC; Humco Glycerin and Artificial Rose Water; Hwang Geum-San Gold Hair; Hyalucollagen Essence; Hyalucollagen Moisture; Hyalucollagen Moisture Skin; Hyalucollagen Moisture Toner; Hyalucollagen Moisturizer Normal and dry skin; Hyalucollagen Moisturizer combination skin; Hyd; Hydra Balancing Rose Mist; Hydra Lifting Firming Fresh Serum 24H; Hydra Lifting Firming Moisturizing Cream; Hydra Lifting Firming Plus Serum 24H; Hydra Moisture Day and Night; Hydra Treatment Toner; Hydra lifting Firming Nourishing Cream; Hydraface; HydroGold 9; I-Drop MGD; IC Clear LUBRICANT EYE DROPS; INIbebe Organic Soapberry Wash; INTEGRAL B Keep Calming Mist; Iaso Intensive Clear Conditioner; Iaso Progressive Age Care; Iaso for Men White EX 2-IN-1 Fluid Supreme; Iaso for Men White EX After Shave Supreme; Iaso for Men White EX Supreme; Illite Whitening; Im Sorry for My Skin Mask - Brightening; Im Sorry for My Skin Mask - Revitalizing; Im V-Tox; Im real Rice Smooth Toner; Im real TEA TREE SEBUM and Pore; Inclear; Infant Glycerin Laxative; Ing Ampoule; Inner Beauty Cleansing Tissue; Inner Cell Serum- Serum; Intense Care Galactomyces First Essence; Intense Care Galactomyces Whitening Essence; Intense Care Snail; Intense Care Snail Anti wrinkle Whitening Nutrition; Intense Care Snail Essence; Intense Care Snail Eye; Intense Care Snail Hydro Gel Mask; Intense Care Snail Skin; Intense Care Snail ampoule; Intensive Hydrating Cleanse Premium Dna Mask Pack; Intensive Vital Ampoule; J9 Ultra Advanced Intensive Recovery Serum; JAYJUN ALL IN ONE MULTI CLEANSING MASK Step 01 COTTON SW AB LIP AND EYE REMOVER; JAYJUN ALL IN ONE MULTI CLEANSING MASK Step 02 BUBBLE CLEANSING MASK; JCI MN Colloidal Iodine Cream; JENA CELL VL Gravity Essence for body only.; JNH a-Clear Propolis Spot Serum; JNH a-Clear Resurface Sulfur; Jasmine 3D Moist; Jasmine 3D Whipping Essence; Jasmine Eco Mist; Jayjun Anti Dust Therapy Mask Step 01 Jayjun Anti Dust Fresh Fo Am Cleanser; Jayjun Anti Dust Therapy Mask Step 02 Jayjun Anti Dust Therapy Mask; Jayjun Baby Pure Shining Mask Step1 Blooming Essence; Jayjun Baby Pure Shining Mask Step2 Baby Pure Shining Mask; Jayjun Baby Pure Shining Mask Step3 Hydro Eye; Jayjun Biocellulose Mask; Jayjun Blooming Rose Water; Jayjun Blooming Rose Water Toner; Jayjun Essential Calming Mask; Jayjun Essential Firming Mask; Jayjun Full Of Soothing; Jayjun Full Of Water; Jayjun Intensive Shining Mask Step 01 Blooming Essence; Jayjun Intensive Shining Mask Step 03 Hydro Eye; Jayjun Multi Vita Tone Up Mask; Jayjun Pollution Proof Refreshing Mask; Jayjun Purple Fragrance Mask; Jayjun Real Water Brightening Black Mask Step1 Real Water Cleansing Foa m; Jayjun Real Water Brightening Black Mask Step2 Jayjun Vita Snow Essence; Jayjun Real Water Brightening Black Mask Step3 Real Water Brightening Black Mask; Jayjun Rose Blossom Mask; Jayjun Soothing Facial Moisture; Jayjun Soothing Facial Moisture Toner; Jejuen Aloe Sleeping Pack; Jejuen Black Bean Ferment Serum; Jejuen Black Bean Ferment Sleeping; Jejuen Calming Aloe Ice Pack; Jejuen Calming Aloe Sheet Mask; Jejuen Calming Broccoli Ice Mask; Jejuen Camellia Nourishing Pack; Jejuen Hyaluron Sleeping Pack; Jejuen Lightening Blueberry Ice Mask; Jejuen Lightening Hanrabong Ice Pack; Jejuen Lightening Hanrabong Sheet Mask; Jejuen Lotus Bubble Foam Cleanser; Jejuen Lotus Placenta Eye; Jejuen No Sebum Lotus Ice Mask; Jejuen Nourishing Beet Ice Mask; Jejuen Nourishing Opuntia Ice Pack; Jejuen Nourishing Opuntia Sheet Mask; Jejuen Pore Tightening Peppermint Ice Pack; Jejuen Pore Tightening Peppermint Sheet Mask; Jejuen Radiance; Jejuen Radiance Ampoule; Jejuen Radiance Eye; Jejuen Radiance Foam Cleanser; Jejuen Radiance Toner; Jejuen Radiance Youth; Jejuen Rapeflower Pack; Jejuen Volcanic Ampoule Sleeping Pack; Jejuen Waterful Applemango Ice Pack; Jejuen Waterful Applemango Sheet Mask; Jejuen Waterful Peanut Ice Mask; Jena Cell Super cell serum PLUS; Jena Cell VL Volume Lift; Jena Cell VL Volume Lift Gravity Essence; Jenacell Supercell Serum; Kaewoon; Kidclean Disinfectant Wipes; Korean Cypress Hair; LANBELLE Cleansing; LANBELLE Clear Toner; LANBELLE EGF FGF Ampule; La face All in One; Lanbelle Anti-wrinkle Eye; Lanbelle Egf Duo Moisturizer; Lanbelle Lanbio; Lanbelle Lans Tamanu; Lanbelle Masque De Genie; Lanbelle Ultra Lifting Egf Ampoule; Lanbelle Vitamin Cell; Lanbelle Whitening Gelmaskpack Grapefruit Therapy; Lavietox B Project Re Set Firming Essence; Le-Blen FGF Serum; Le-Blen Nano Collagen Peptide Serum; Leader; Leader Dry Eye Relief Eye Drops; Leader Eye Drops Redness Relief; Leader Glycerin Laxative; Leader Lubricating Eye; Leader Lubricating Eye Drops; Leaders Mediu Brightening Milk Pack; Leaders Mediu Clearing Strawberry Pack; Leaders Mediu Glossy Honey Pack; Leaders Mediu Moisturizing Jasmine Pack; Leaders Mediu Nutrition Grain Pack; Lebody Face Renewal; Lebody Fit Body Massager; Lemon; Lemon Glycerin; Lemon Glycerine Swabsticks; Lenifen; Li om FERMENTATION FORM ELASTIC CARE SECRET SERUM; Lidl Redness Relief; Lift Eyecream; Lightening Brightening Moisturizing Serum; Limpiador De Ojos Weye; Limulus Bio Cellulose Mask; Liposyn III; Little Pore Daily Serum; Lohasys Mayu Ultra Moisture; Lohasys Mayu Ultra Moisture Care; Lohasys Mayu Ultra Moisture Care Hand; Lohasys Mayu Ultra Moisture Care Toner; Lohasys Snail Active HydroGel EyePatch EX; Longevity Recovery Moisturizing; Longevity Recovery Nourishing; Longevity Recovery Serum; LuBi AMPOULE; Lubricant Eye; Lubricant Eye Drops; Lubricant Eye Drops/ Artificial Tears; Lubriderm Intense Skin Repair; Luxury Revitalizing Moisturizing Cream; Luxury Revitalizing Nourishing Cream; Luxury Revitalizing Serum; M Eros Liquid Aqua Based; MEDICLEAR DUAL SPOT DAY and NIGHT; MEDIKOii Bio-Active Vital Shot Ampoule; MEDIKOii Bio-Active Vital Shot Ampoule Starter Kit; MEDIKOii Bio-Calming Relief Toner; MEDIKOii Bio-Repair CICA; MIRU Oriental Whitening Ampoule; MIZON ENJOY VITAL UP TIME Anti wrinkle Mask; Maccola; Madeca; Madeca Derma Mask; Madeca Derma Mask II; Magic Glow Pure Gel Mask; Man Power Pack; Max Hyaluronic Formula Ampoule; Max Hyaluronic Mask; Max Hyaluronic Stemcell Eye; Max Hyaluronic Stemcell Sleeping Pack; Max Hyaluronic Uv Stemcell Sun Block; Maximum Redness Relief Eye; MeWrinkle; Mecell Red Ginseng Collagen 3D Mask Pack; Mecell Rose Coenzyme Q10 Serum Mask Pack; MedActive Oral Relief; MedPride Lemon; Medi Hydro Dp; Medi Hydro Dp Bb; Medi Hydro Dp Mist; Medi Hydro Dp Stem C Ampoule; Medi Hydro Dp Toner; Medi Megaton 2080; Medi SM 24K Gold Hydrogel Peptide Mask Pack; Medi Stem Collagen; Medi Stem Collagen Ampoule; Medi Stem Collagen Toner; Medi Stem Eye; Medicell Scalp; Mediskin Intensive Brightening Mask Pack; Mediskin Intensive Firming Mask Pack; Mediskin Intensive Moisture Calming Mask Pack; Medpride Lemon Glycerin; Mefactory 3step Piggy Nose Pack Step 01 Pore Heating Sheet; Mefactory Cement Peel off Pack; Mefactory Piggy Peeling Pad; Meijer Dry Eye Relief; Meijer Lubricating Eye; Meijer Lubricating Eye Drops; Meijer Maximum Redness Relief and Lubricant; Meijer Redness Relief; Melano Out Cream; Melano Out Mask; Melatonin Sheet Mask; Merdevie Firecream; Mianju Mask Pack; Miel Rosada; Miin Foot; Mimisoon; Mineral All-In-One Cleansing; Mineral Multi Emulsion; Minica-S; Mint Blue Facial Mask; Miracle Ato; Miracle Ato Moisture Body Wash; Miracle FootCream Lavender; Miracle FootCream Lemon; Miracle SOS Green; Miracle of the Mose Hair Bar; Miractil; Modlina Peptide Soothing Essential Hydrogel Mask Pack; Moisture Cream; Moisture Drops; Moisture Essence Mist; Moisture hydrogel mask pack; Moisturizing Body; Mommy To Be Tummy; Monagra; Mons; Moran; Multi Action Balancing Toner; Multi Action Power; Multi Perfection Super; My Lovely Butts; Mycellcare All in One Serum; Mycellcare Feminine Cleanser; Mycellcare Feminine Mist; Mycellcare iT s; NMF Water Barrier MGgel Mask; NO itching; NWI Artificial Tears Eye; Nano Silver Toothpaste; Natural Cocktail Pack; Natural Olive Scalp Cooling Hair Essence; Natural Olive Scalp Cooling Hair Pack; Natural Savon 4in1 Plus; Naturalth Goat Milk Moisture; Naturalth Goat Milk Moisture Toner; Naturalth Goat Milk Premium Tone Up; Nature and Health Beauty (Moisturizing Cream, Whitening Cream); Nature and Health Beauty (Moisturizing Cream, Whitening Cream) (Mineral Oil and Glycerin); Natureplex Hemorrhoidal; Necbody All in one; Negative Skin Test Control - Glycerin; Neogen Code 9 Black Volume Cream; Neutracett All Purpose; Neutracett Tattoo; Neutracett Ulcer; New NBF GINGIVAL Gel; Niagara S; NoTS Special Collagen Real Skin Mask; Noblesse Homme Refresh; Noblesse Homme Refresh Toner; Non-sheet Serumst; Nourishing Cream; Nymphsyn Eye; Nymphsyn Face Mask; Nymphsyn Intensive Serum; Nymphsyn Maximizer; O Sha mpoo Premium; OASIS Tears Lubricant Eye; OASIS Tears Plus Preservative-Free Lubricant Eye; OASIS Tears Preservative-Free Lubricant Eye; OR Serum; OSEQUE CYBER SHINE Oxygen Mask Cleanser; Oasis TEARS PF PLUS Preservative-Free Lubricant Eye; Oasis Tears PF Preservative-Free Lubricant Eye; Ob-X; Obagi; Obeo 7way Moisture; Oerbeua Calming Mask; Oerbeua Clearing Mask; Oerbeua Energizing Mask; Oerbeua Firming Mask; Oerbeua Heating Pore Cray Pack; Oerbeua Hydrating Mask; Oerbeua Mattifying Mask; Oerbeua Moisture Mask; Oerbeua Nourishing Mask; Oerbeua Purifying Cleanser Foam; Oerbeua Radiant Mask; Oerbeua Shining Mask; Oerbeua Smoothing Mask; Oerbeua Soothing Mask; Olive 75% Marseille; Oozoo Face In-shot Mask Age Cure Ampoule 1; Oozoo Face In-shot Mask Age Cure Ampoule 2; Oozoo Face In-shot Mask Age Cure Mask; Oozoo Face In-shot Mask Hydro Lift Ampoule 2; Oozoo Face In-shot Mask Hydro Lift Mask; Oozoo Face In-shot Mask Illumination Ampoule 1; Oozoo Face In-shot Mask Illumination Ampoule 2; Oozoo Face In-shot Mask Illumination Mask; Oozoo Face In-shot Mask Intensive White Ampoule 2; Oozoo Face In-shot Mask Intensive White Mask; Oozoo Face In-shot Mask Nutrient Ampoule 2; Oozoo Face In-shot Mask Nutrient Mask; Optase; Optic Splash; Optimel Manuka Dry Eye Drops; Optimel Manuka Forte Eye Gel; Optrex Eye Drops; Orajel Dry Mouth Moistruizing; Organic rice-jelly hydrogel mask; Oriental Fermented; Origin Horse Sheet Mask; Original Power Energy Ampoule; Original Power Hydro Ampoule; Original Power Lifting Ampoule; Original Power Whitening and Lineless Ampoule; P.S.C Clear; P3 Ai; P3 Oa; P3 Rg; P9 Photo Cleanser; PREPARATION H Maximum Strength; PUREFORET Brightening; PUREFORET Brightening Toner; PUREFORET Hydrating; PUREFORET Hydrating Toner; PUREFORET Skin Balancing; PUREFORET Skin balancing; PUREFORET Soothing; PUREFORET Soothing Toner; Pain Relief; Pandas Dream Magic; Pearl ReWhite Transfusion DNA Kit; Pedia-Lax; Pediatric Glycerin; Pediatric Glycerin Laxative; Pepplus Special Skin Care Lifting Program; Pepticol 5s Ampoule; Peptide Easter; Peptide Effector II Mist Type; Peptide no sebum Repair; Perfect Calming; Perfect Calming Toner; Perfect V Lifting Premium Black Mask; Perfect V Lifting Premium Eye Mask; Perfect V Lifting Premium Mask; Perfect V Lifting Premium Plus Mask; Phyto Therapy Treatment; Pick Me Pad Azulene Moisture; Pick Me Pad Make-up Remover; Pick Me Pad Oil Control; Pink Sweet Potato Facial Cleansing; Placenta EX Ampoule; Placeutica Wire Lift Face Fit 365 Mask; Placeutica Wire Lift Face Fit Amoule; Placeutica Wire Lift Face Neck; Plagentra Baby; Plagentra Mothers Belly; Plant Stemcell VEGF bFGF Ample; Pleasure Garden Homme Sports Mask; Plu Body Scrub Berry Mix; Plu Body Scrub Coconut; Plu Body Scrub Hazelnut; Plu Body Scrub Prestige Silk Edition; Plu Moisture Honey Sugar Facial Scrub; Plu Refresh Peeling Facial Scrub; Plu Soft Peeling Facial Scrub; Polynesia Lagoon Water Hydro Emulsion; Polynesia Lagoon Water Hydro Eye; Polynesia Lagoon Water Hydro Skin; Pore Tightening Serum; Pororo Friends Moistful Mask Pack; Pororo Friends Smart Pore Guide Mask Pack; Pororo Friends Tong Tong Firming Mask Pack; Pororo Friends White Snow Mask Pack; Power Ampoule Anti wrinkle; Pranicura; Pranicura 5; Pranicura II; Preferred Plus Hemorrhoid; Premier Value Adult Glycerin Laxative; Premier Value Pediatric Glycerin Laxative; Premiu Serum Mask; Premium Dr. Althea Essential Skin Conditioner Silk Mask; Premium Dr. Althea Squalane Silk Mask; Premium natural BL hydrogel mask pack; Preparation H Cleansing Pads; Preparation H Rapid Relief; Preparation H Totables Pain Relief; Prestige Caviar Nourishing Daily Cream; Prestige Jeju Snail; Prestige Jeju Snail Essence; Prestige Jeju Snail Toner; Prevention Oncology Mouth Rinse; Pro Radiance Renascent An Infinite Energizer; Pro Radiance Renascent An Infinite Energizer Moisturizer; ProcalAmine; Professional Medicated DNA Collection; Prolong 101 Man; Pure Eyes Sterile Eyes; Pure Hydrogel Apple Zone; Pure Hydrogel Mask Pack; PureHeals Centella 70 Toning Swab; PureHeals Propolis 80; Purederm Black Food MGgel Eye Zone Mask; Pureforet Brightening; Pureforet Soothing; Purifying Oxygenating Moisturizing Cream; Purifying Oxygenating Serum; Purifying Skin Blanace; Purifying Sos Spot; QYO QYO Tangerine Bright Moist Body; QYO QYO Tangerine Bright Moist Foam Cleanser; Quality Choice Lubricant Tears Eye; Quality Choice Lubricating Eye Drops; Queen Perfume Hair; Queen79 Noble Gold Aquacream; Queen79 Noble Gold Eyecream; Queen79 Noble Gold Serum; Queen79 Noble Goldcream; Queens Rose Elysee Concen Trate Dual Ampoule; Querencia CREAMfor Nail; Quick Cleansing Dry Tissue; REFRESH OPTIVE Advanced; REFRESH OPTIVE Drops; REFRESH Optive Mega-3; Radiance Foam Cleanser; Ramosu Kindal Butter Balm; Rayderm Hydrating Mask; Rayderm Hydrating Toner; Rayderm Re-generating Cream; Rayderm Re-generating serum; ReNK Essential Hydra Ampoule; ReNK Essential Hydra Skin Softner; ReNK Time Lab Intense Age Renewal Skin Softner; ReNK Time Lab Intense Age Renewal Skin Softner 20mL; Real Squeeze Aloe Vera; Real Squeeze Aloe Vera Essence; Real Squeeze Aloe Vera Sleeping Pack; Real Squeeze Aloe Vera Toner; Reborncell M-clinic; RectiCare Complete; Recticare; Recticare Advanced; Red Eye Relief; Red Ginseng Fermented Toner; Red Ginseng Snail Ferment Mask; Red Ginseng Snail Gold Serum; Red Propolis 30 Vita Ampule; Refining Pore Clear Pack; Refresh Digital; Refresh Digital PF; Refresh Optive; Refresh Optive Advanced Sensitive; Refresh Optive Fusion; Refresh Optive Fusion Sensitive; Refresh Optive Gel Drops; Refresh Optive Single Vial; Refresh RELIEVA PF; Refresh Relieva; Refresh Relieva Preservative Free; Refresh Repair; Refresh Repair Preservative-free; Regener-Eyes LITE; Regener-Eyes PRO; RegenerEyes LITE; RegenerEyes PRO; Rejuvenation secret Serum; Remember Hydrosol Double Effect; Remember Serum; Renewal Serum; Renovating Regenerating Moisturizing Cream; Renovating Regenerating Nourishing Cream; Renovating Regenerating Serum; Repiel Perfect Fit Mask Firming; Repiel Perfect Fit Mask Lightening; Repiel Perfect Fit Mask Moisturizing; Repiel Perfect Fit Mask Soothing; Repiel Smart Foot Mask Ultra Rich; Repiel Smart Hand Mask Milky Moisture; Repiel Smart Nail Pack Miracle Butter; Repiel Timeless Aqua Shot Bio Mask; Repiel Timeless Line Shot Bio Mask; Repiel Timeless Mela Shot Bio Mask; Repiel Timeless Redness Shot Bio Mask; Repove R.E.p; RepoveSolutionA; RepoveSolutionB; Resurface Mask; Revitalizing C; Revitalizing C I2PL Corrector Ampoule; Revitalizing C I2pl Corrector Ampoule; Revitalizing C I2pl Mask; Revitalizing C Serum; Revitalizing C Toner; Revitalizing Facial Foam; Rexall Hemorrhoidal; Rexall Maximum Strength Hemorrhoidal; Rexall Sterile Artificial Tears Eye Drops; Rhinedrine Moisturizing Nasal Mist -liq Nas; Richway Amethyst Hydrogel Face Mask; Round Around Comfort Hydrating Water; Rubelli Wine Foot Packs; Rubelli Wine Hand Packs; Ruby ReBorn Transfusion DNA Kit; Ruby-Cell 4U; Ruby-Cell 4U Ampoule; Ruby-Cell 4U B B 10 in 1; Ruby-Cell 4U Bio Cellulose Mask; Ruby-Cell 4U Essential Silky Foaming Cleanser; Ruby-Cell 4U Mist; SISEUNDEUSI BLESS FACE and BODY; SK Dry Eye Relief; SK Maximum Redness Relief; SL Mineral All-In-One Cleansing; SL Mineral Multi Emulsion; SL Mineral Toner; SNAIL BEE HIGH CONTENT 120mL; SNP Cat Wrinkle Face Art Mask; SOLNARA Everything Blood circulation Nattokinase(Control blood pressure and Improve blood circulation); SOOTHING AND MOISTURE ALOE VERA 92PERCENT SOOTHING 300mL; SPA Mediterranee for hands Repair Hand; SPEARMINT Aromatherapy Mask 27g; SRB 3 Lighting White Nutri; Sallys Box Friendly Collagen Eye Patch; SanDaWha Moisturizing Baby; SanDaWha Soft Baby Wash; Sandawha Moisturizing Baby; Sanitize/Disinfect Wipes; Saphire ReHydro Transfusion DNA Kit; Sayak; Scar Serum; Seaweed Mediclear Healer Ampoule; Seaweed Mediclear Mask; Seaweed Mediclear Stemcell Bb; Select Brand Hemorrhoid; Sella Classic Natural Cleansing Bar; Sella Classic Natural Gold Serum; Sella Natural Baby; Sella Natural Body; Sella Natural Hair; Sella Premium Natural Cleansing Bar; Seniorclean Bio; Shea Butter Steam Fresh; Shea Butter Steam Moist; Shieldlife Ceramide Ion Mask; Shine Control Matte Effect Cream; Shine Control Moisturizing Matte Effect Cream; Shine Control Sebum Regulating Gel; Shopko Dry Eye Relief; Signature Care Eye Drops Redness and Dry Eye Relief; Signature Care Hemorrhoidal; Signature Care Hemorrhoidal Cream (with applicator); Silkriller 3D Gold Pure Rich Gel; Silkriller 3D Silver Pure Rich Gel; Silver Ion Antibacterial Gel; Siseundeusi Bless Bathandshampoo; Siseundeusi Bless Lip; Siseundeusi Luminant Pack Cleanser; Siseundeusi Scalp Essence; Siseundeusi Ultra Spot; Skederm Lifting; Skederm Vitamin C X30 Power Serum; Skin Doctors Photo Age Reverse; Skin Doctors Photo Age Reverse Night Serum; Skin-ion; Skinbutak Go Young Magic Toner; Skinbutak Go Young Magiccream; Skinbutak Go Young Magiclotion; Skinbutak Gold Magic Cleanser; Skinfood Cacao Hand Balm High Moist Type; Skinfood Honey Melon Hand Balm Moist Type; Skinfood Miracle Food 10 Solu Tion; Skinfood Miracle Food 10 Solu Tion 1ml; Skinfood Real Tea Ge L Mask Chamomile; Skinfood Real Tea Ge L Mask Lavender; Skinfood Real Tea Ge L Mask Rose; Skinovage Nanocell Age Protecting; Snail; Snail Bee High Content; Snail Bee High Content Essence; Snail Bee High Content Mask Pack; Snail Bee High Content Skin; Snail Bee High Content Steam; Snail Essential EX Wrinkle; Snail Essential EX Wrinkle Mask Sheet; Snail Essential EX Wrinkle Toner; Snail Green Caviar Hydro Mask; Snail Hydro Mask; Snail Pearl Hydro Mask; Snail Recover Healer; Snail Red Ginseng Hydro Mask; Snail Repair Whitening; Snail Solu Tion Gold; Snail Therapy 1000 Hydrogel Mask Sheet; Snail Therapy 70 Eye; Snaytox Anti Wrinkle Hydro Mask; Snaytox Wrinkle Filler Special Set; Solie Essence; Solie Toner; Soothe; Soothe Dry Eyes; Soothe TIRED EYES; Soothing and Moisture Aloe Vera 90 Percent Body; Soothing and Moisture Aloe Vera 90 Percent Toner; Soothing and Moisture Aloe Vera 92 Percent Soothing; Soriso Bright Aqua Pack; Soriso bright aqua Moisture; Soundbody Artificial Tears; Spot Care Blue One; Spot Care Pink One; Sterile Diluent for Allergenic Extract; Sterile Gentle Tears Leader; Stratuscare Adult Glycerin; Stratuscare Glycerin Laxative Pediatric; Sun Killing Grapefruit; Sunburn Soothing; Sunmark Hemorrhoidal; Sunmark Redness Relief; Super Aqua Ampoule; Super Aqua Cleansing Oil; Super Aqua Day; Super Aqua Eye; Super Aqua Facial Foam; Super Aqua Max Deep Moisture Hydrogel Mask Sheet; Super Aqua Max Fresh Watery; Super Aqua Max Soft Peeling; Super Aqua Max White C Crystal Essence; Super Aqua Max White C Waterful Toner; Super Aqua Night; Super Aqua Toner; Supia; Suria Calming Toner; Suria Premium Jojoba Foam Cleanser; Suria Whitening; Suyan Chungsoo; Suyan Chungsyu; Suyan Jeongbaek; Synovisol Irrigation Solution 2.6%; TAEYANGSOO Plavital CleansingSoap; TALS Acnic Intensive Spot Clear; TALS Cellular Rejuvenating Moisture Eye; TAMHADA II Synergy Anti-Wrinkle Face Mask; TAMHADA II Synergy Moisturing Mask; TAMHADA II Synergy Whitening Mask; TAMHADA Synergy Anti Wrinkle Face And Neck Mask; TAMHADA Synergy Moisturizing Mask; TAMHADA Synergy Whitening Mask; TEARS Naturale FORTE; THE BANHAM Peony 365 plus; THMHADA II Synergy Anti-Wrinkle Face Mask; TMC-A Anti Hairloss; TONYMOLY BCDation All Master; TONYMOLY Bio EX Active Cell-Whitening Cream; TONYMOLY Bio EX Active-Cell Essence; TONYMOLY Bio EX Active-Cell Eye-Face Cream; TONYMOLY Bio EX Active-Cell Night Cream; TONYMOLY Bio EX Active-Cell Real Serum; TONYMOLY Face Mix Skin Makeup Base 02 Mix Lavendar SPF20; TONYMOLY Fitting Foundation 23 SPF30 Natural Beige; TONYMOLY Intense Care Gold Syn-Ake Wrinkle Cream; TONYMOLY Intense Care Gold Syn-Ake Wrinkle Perfector; TONYMOLY My Sunny All In One Sun SPF45; TONYMOLY My Sunny Body and Family Sun Cream; TONYMOLY My Sunny Touch Free Sun Block; TONYMOLY My Sunny Watery Sun Gel; TONYMOLY Pandas Dream Brightening Eye Base; TONYMOLY Pandas Dream White Hand Cream; TONYMOLY Placenta Bound Toner; TONYMOLY Premium RX Camel Milk Cream; TONYMOLY Premium RX Horse Yu Hand Cream; TONYMOLY Pure Farm Pig Collagen Hydrogel Mask; TONYMOLY Timeless Ferment Snail Cream; TONYMOLY Timeless Ferment Snail Emulsion; TONYMOLY Timeless Ferment Snail Essence; TONYMOLY Timeless Ferment Snail Eye Cream; TONYMOLY Timeless Ferment Snail Toner; TONYMOLY Timeless GF-Factor Cream; TONYMOLY Timeless GF-Factor Emulsion; TONYMOLY Timeless GF-Factor Toner; Tamnamo Essential Hair; Tamnamo Plus Vital Hair; Tangerin Whitening Hand; Tangerine Hand; Target Eye Drops Maximum Redness Relief Eye; Tea Tree; Tea Tree Ampoule; Tea Tree Toner; Tears Lubricant; Tears lubricant; Ten Ten Cell; Thanks 12 Aqua Water Toner; Thanks 12 Rich Caviar Fo am Cleanser; Thanks 12 Rich Caviar Mask; The All Medicare V PLA Synergy Anti Wrinkle Face And Neck Mask; The All Medicare V PLA Synergy Moisturizing Mask; The All Medicare V PLA Synergy Whitening Mask; The Bamboo Of Damyang Moisture Toner; The Cica Serum Plus; The Classeum Co., Ltd.; The First Ampoule Essence; The First Ampoule Essence BB; The First Whitening Sleeping Mask; The Prestige; The21 DAYs HAIR NUTRIENT SERUM; Therapeutic Hand Cream; Timeless EGF Power Toner; Timeless Placenta Bound; Tomatox Magic Massage Pack; Tonymoly Intense Care Snail; Tonymoly Latte Art Cappuccino Cre am In Scrub; Tonymoly Naturalth Goat Milk Premium Eye; Too im Cell ALL IN ONE; TopCare Health Dry Eye Relief Eye Drops; Topcare Hemorrhoidal; Topcare Maximum Redness Relief Eye Drops; Topwin Speedy Enema; Tourmaline Relief Transfusion DNA Kit; Tracys Dog Personal Lubricant 300mL; Trofresh; Truezyme Active Enzyme Scalp and Hair; Truezyme Baby Face and Body; Truezyme Baby ShampooAndBody Wash; Truezyme Healing Multi Tonic; Truezyme Healing Scalp Tonic; Truezyme Water Lock Body Wash; Truffle EX Wrinkle Toner; Tucks Multi-Care Relief Kit (Tucks Hemorrhoidal and Tucks Medicated Cooling 40 Count); Ultra Hydra; Ultra Hydra Serum; Ultra Hydra Toner; Ultra Hydro Facial Foam; Ultra Moisturizing Essence; Ultra Nutrition Ampoule; Ultra Nutrition Day; Ultra Nutrition Eye; Ultra Nutrition Night; Ultra Nutrition Toner; Ultra Rejuve 7s Ampoule; Ultra Soothing Mask 1pc; Up and Up Hemorrhoidal; V Shaping Ampoule; VITA10 Brightening CapsuleMask; Vela Contour; Vela Contour Neck and chin toning firming serum; Vela Shape ACTIV Body firming toning tightening; Vela Shape Activ; Vela Shape Reaffirming; Vela Shape Reaffirming Body firming toning tightening; Vela Shape Resculpting; Vela Shape Resculpting Body firming toning tightening; Vicks Formula 44 Sore Throat; Visine ALL DAY COMFORT DRY EYE Relief; Visine Contact Lens; Visine Dry Eye Relief; Visine Maximum Strength Redness Relief Formula; Visine Tears Dry Eye Relief; Visine Tears Long Lasting Dry Eye Relief; Visine Tired Eye Dry Eye Relief; Visine Tired Eye Relief Lubricant; Visine Totality Multi Symptom Relief; Visine for Dry Eye Environmental Relief; Visine for Dry Eye Eye Revival; Visine for Dry Eye Tired Eye Relief; Visine for Dry Eye True Tears; Vision Clarity Eye Drop; Vitabrid C12 ATOSIS; Vitalising Tonic; Vitalizer; Vitalizer C10 Ampoule; Vitalizer Laser Aid BB; Vitalizer White; Vitalizing Energizing Moisturizing Cream; Vitalizing Energizing Nourishing Cream; Vitalizing Energizing Serum; Vitamin A Velvet Mask; Vitamin B5; Vitamin B5 Toner; Vitamin B5 Velvet Mask; Vitamin C Velvet Mask; Vitamin E Velvet Mask; Vitamin F Velvet Mask; Vitamin H Velvet Mask; Volcanic Homme Foam Cleanser; Volcanic Pore Heating; Volcanic Pore Heating Gel; Volcanic Pore Refining Mask; Volcanic Pore Tightening Mask; Volvian Golden Silkworm Water Bomb; WANGZA Mens Body Massage Cream; WELLAGE 4D Gold Essence; WELLAGE Concentrated Illumination Expert; WELLAGE Double Lift Mask Pack Moisturizing Hydrogel Mask; WELLAGE Intensive Repair Serum; WELLAGE Vita Blue Injec-tion Mask; WELLAGE Vita Red Injec-tion Mask; WELLAGE Vital Nio Enrich; WELLAGE Vital Nio Nutritional Rich; WELLAGE Vital Nio Waterlock Toner; Walgreens Adult Glycerin Laxative; Walgreens Children Glycerin Laxative; Walgreens Dual Action Lubricant Eye; Walgreens Eye Drops Maximum Redness Relief 15mL; Walgreens Lubricant Eye; Walgreens Lubricant Eye Solution; Walgreens Maximum Redness Relief; Walgreens Maximum Strength Hemorrhoidal; Walgreens Multi-Symptom Relief Eye Drops; Walgreens Redness Relief Eye Drops 15mL; Wannabe Bodyliner; Water Balance Sheet Mask; WeTTrust Gold; WeTTrust Gold Vaginal Care Essence; WeTTrust Inclear; Wellage Black Aqua Roll Mask Pack; Wellage Deep Layer Moisturizer Sleeping Mask; Wellage Post Procedure; Wellage White Aqua Roll Mask Pack; Wellage Wrinkle Reduced Vials; Wet Wipes; Whimela Shining Implant; White Flower Cheollasoo Foi L Mask Sheet; White Flower Mung Bean Foi L Mask Sheet; White Flower Pig Collagen Foi L Mask Sheet; White truffle Anti Wrinkle; White truffle Whitening; Wibi Lotion 23%; Woodward's Glycerin Suppositories for Adults; Wrinkle Power Filling; Wrinkle Repair Sheet Mask; Wrinkle Solution Concentrating Essence Special Set; XOUL Intensive Cell Re-vital Mist; XOUL Secret Solution Mask Pack; XOUL Y Zone Beauty Serum; Xoul Cell Illuminating 3 Step Mask; Xoul Intensive Cell Re-Vital; Xoul Intensive Cell Re-Vital Ampoule; Xoul Intensive Cell Recovery Serum; Xpect Industrial Eye Relief; YEJIMIIN Feminine Wash Jeju Herb; Yeast Ultra Deep Cleansing Whip Foam; Yeo Danbi; Youngcellogy Aios; Yozum Secret; ZNSP Ampoule; ZNSP Repair; ZUMISKIN Honey Boom; Zenibell Snail Intensive; Zenibell Snail Intensive Toner; Zenibell Snail IntensiveCream; Zygone; aewajin Derma Hydrocell; aewajin Derma Hydrocell 24k Gold Serum; eVESERUM; essenHERB Tea Tree 70 Sleeping Pack; essenHERB Tea Tree 90 Calming Toner; i Cellestin; i-Drops DECONGESTANT EYE DROPS; i-Drops LUBRICANT EYE DROPS; isLeaf Botanic Shield Deep Pore Cleasing Foam; isLeaf Botanic Shield Facial Barrier GelCream; isLeaf Botanic Shield Pollutant Defending Mask; isLeaf Botanic Shield Shieldig Mist; isLeaf Clinic Lime Cleansing Foam; isLeaf Energy Water; max2originale COENZYME Q10 LINT FREE GE L; max2originale PUREDROGE L GE L; max2originale SPECIAL MASCARA GOLD; max2originale VERY BERRY EYELINER; meijer Maximum Strength Sore Throat Fast Relief; misoli Shining Care Diamond Premium Gold Hydro G el Eye; myCellCare; repuera DermAtozyme 5% Gauze Dressing Mask; repuera DermAtozyme 5% Hydro Essential Ampule; repuera DermAtozyme 5% Ultra Moisture Cream

$$$$
