
  Mrv0541 02231215552D          

  6  5  0  0  0  0            999 V2000
   -0.1914    0.7145    0.0000 C   0  0  0  0  0  0  0  0  0  0  0  0
    0.5230    1.1270    0.0000 C   0  0  0  0  0  0  0  0  0  0  0  0
    1.2375    0.7145    0.0000 C   0  0  0  0  0  0  0  0  0  0  0  0
    1.9520    1.1270    0.0000 C   0  0  0  0  0  0  0  0  0  0  0  0
    2.6664    0.7145    0.0000 C   0  0  0  0  0  0  0  0  0  0  0  0
    3.3809    1.1270    0.0000 N   0  0  0  0  0  0  0  0  0  0  0  0
  1  2  1  0  0  0  0
  2  3  1  0  0  0  0
  3  4  1  0  0  0  0
  4  5  1  0  0  0  0
  5  6  1  0  0  0  0
M  END
> <DATABASE_ID>
DB02045

> <DATABASE_NAME>
drugbank

> <SMILES>
CCCCCN

> <INCHI_IDENTIFIER>
InChI=1S/C5H13N/c1-2-3-4-5-6/h2-6H2,1H3

> <INCHI_KEY>
DPBLXKKOBLCELK-UHFFFAOYSA-N

> <FORMULA>
C5H13N

> <MOLECULAR_WEIGHT>
87.1634

> <EXACT_MASS>
87.104799421

> <JCHEM_ACCEPTOR_COUNT>
1

> <JCHEM_ATOM_COUNT>
19

> <JCHEM_AVERAGE_NEUTRAL_MICROSPECIES_CHARGE>
0.9993773741669765

> <JCHEM_AVERAGE_POLARIZABILITY>
11.680418726738788

> <JCHEM_BIOAVAILABILITY>
1

> <JCHEM_DONOR_COUNT>
1

> <JCHEM_FORMAL_CHARGE>
0

> <JCHEM_GHOSE_FILTER>
0

> <JCHEM_IUPAC>
pentan-1-amine

> <ALOGPS_LOGP>
1.39

> <JCHEM_LOGP>
1.1430088143333337

> <ALOGPS_LOGS>
-0.69

> <JCHEM_MDDR_LIKE_RULE>
0

> <JCHEM_NEUTRAL_CHARGE>
1

> <JCHEM_NUMBER_OF_RINGS>
0

> <JCHEM_PHYSIOLOGICAL_CHARGE>
1

> <JCHEM_PKA_STRONGEST_BASIC>
10.205502377029477

> <JCHEM_POLAR_SURFACE_AREA>
26.02

> <JCHEM_REFRACTIVITY>
28.3934

> <JCHEM_ROTATABLE_BOND_COUNT>
3

> <JCHEM_RULE_OF_FIVE>
1

> <ALOGPS_SOLUBILITY>
1.80e+01 g/l

> <JCHEM_TRADITIONAL_IUPAC>
tetrahydrofolic acid

> <JCHEM_VEBER_RULE>
1

> <DRUGBANK_ID>
DB02045

> <SECONDARY_ACCESSION_NUMBERS>
EXPT00510

> <DRUG_GROUPS>
experimental

> <GENERIC_NAME>
Amylamine

$$$$
