
  Mrv0541 05031422282D          

 83 88  0  0  1  0            999 V2000
   -0.8568    1.7694    0.0000 C   0  0  0  0  0  0  0  0  0  0  0  0
   -0.2103   -0.9458    0.0000 C   0  0  0  0  0  0  0  0  0  0  0  0
    2.1361   -0.1588    0.0000 C   0  0  0  0  0  0  0  0  0  0  0  0
    3.4293    2.5199    0.0000 C   0  0  0  0  0  0  0  0  0  0  0  0
    5.8220   -3.4628    0.0000 C   0  0  0  0  0  0  0  0  0  0  0  0
    2.9201    0.0979    0.0000 C   0  0  0  0  0  0  0  0  0  0  0  0
    9.0900    7.0289    0.0000 C   0  0  0  0  0  0  0  0  0  0  0  0
    4.1082    5.7493    0.0000 C   0  0  0  0  0  0  0  0  0  0  0  0
    2.4109   -2.3242    0.0000 C   0  0  0  0  0  0  0  0  0  0  0  0
    2.8555   -3.6822    0.0000 C   0  0  0  0  0  0  0  0  0  0  0  0
   -0.5196    1.0165    0.0000 C   0  0  0  0  0  0  0  0  0  0  0  0
    7.2850    0.0233    0.0000 C   0  0  0  0  0  0  0  0  0  0  0  0
    7.4084   -0.5928    0.0000 C   0  0  0  0  0  0  0  0  0  0  0  0
    6.6707    0.5739    0.0000 C   0  0  0  0  0  0  0  0  0  0  0  0
    5.7815    3.2900    0.0000 C   0  0  0  0  0  0  0  0  0  0  0  0
    6.4604    6.5194    0.0000 C   0  0  0  0  0  0  0  0  0  0  0  0
    7.2444    6.7761    0.0000 C   0  0  0  0  0  0  0  0  0  0  0  0
    5.9512    4.0973    0.0000 C   0  0  0  0  0  0  0  0  0  0  0  0
    8.4044    5.0071    0.0000 C   0  0  0  0  0  0  0  0  0  0  0  0
    6.5225   -1.3339    0.0000 C   0  0  0  0  0  0  0  0  0  0  0  0
    9.0163    5.5605    0.0000 C   0  0  0  0  0  0  0  0  0  0  0  0
    4.8277    2.2259    0.0000 C   0  0  0  0  0  0  0  0  0  0  0  0
    0.7152    0.2185    0.0000 C   0  0  0  0  0  0  0  0  0  0  0  0
    2.5807   -1.5168    0.0000 C   0  0  0  0  0  0  0  0  0  0  0  0
    4.4236   -3.1688    0.0000 C   0  0  0  0  0  0  0  0  0  0  0  0
    4.3831    3.5840    0.0000 C   0  0  0  0  0  0  0  0  0  0  0  0
    6.9050    5.1614    0.0000 C   0  0  0  0  0  0  0  0  0  0  0  0
    1.6062    1.2125    0.0000 C   0  0  0  0  0  0  0  0  0  0  0  0
    0.5680   -0.6722    0.0000 C   0  0  0  0  0  0  0  0  0  0  0  0
    1.9663   -0.9662    0.0000 C   0  0  2  0  0  0  0  0  0  0  0  0
    4.0436    1.9693    0.0000 C   0  0  0  0  0  0  0  0  0  0  0  0
    5.2077   -2.9122    0.0000 C   0  0  2  0  0  0  0  0  0  0  0  0
    3.0899    0.9052    0.0000 C   0  0  2  0  0  0  0  0  0  0  0  0
    4.9974    3.0333    0.0000 C   0  0  1  0  0  0  0  0  0  0  0  0
    0.3011    0.9321    0.0000 C   0  0  2  0  0  0  0  0  0  0  0  0
    7.6890    5.4181    0.0000 C   0  0  0  0  0  0  0  0  0  0  0  0
    6.2907    5.7120    0.0000 C   0  0  0  0  0  0  0  0  0  0  0  0
    7.8588    6.2254    0.0000 C   0  0  0  0  0  0  0  0  0  0  0  0
    5.8866    0.3173    0.0000 C   0  0  1  0  0  0  0  0  0  0  0  0
    2.4755    1.4559    0.0000 C   0  0  1  0  0  0  0  0  0  0  0  0
    0.8517    1.5464    0.0000 C   0  0  0  0  0  0  0  0  0  0  0  0
    5.3369    4.6480    0.0000 C   0  0  2  0  0  0  0  0  0  0  0  0
    4.5528    4.3913    0.0000 C   0  0  2  0  0  0  0  0  0  0  0  0
    3.3647   -1.2602    0.0000 C   0  0  1  0  0  0  0  0  0  0  0  0
    3.8093   -2.6182    0.0000 C   0  0  1  0  0  0  0  0  0  0  0  0
    1.1823   -1.2229    0.0000 C   0  0  2  0  0  0  0  0  0  0  0  0
    3.8739    1.1619    0.0000 C   0  0  2  0  0  0  0  0  0  0  0  0
    3.9790   -1.8108    0.0000 C   0  0  2  0  0  0  0  0  0  0  0  0
    6.1615   -1.8481    0.0000 C   0  0  0  0  0  0  0  0  0  0  0  0
    6.3312   -1.0408    0.0000 C   0  0  0  0  0  0  0  0  0  0  0  0
    5.2723    0.8679    0.0000 C   0  0  0  0  0  0  0  0  0  0  0  0
    5.3774   -2.1048    0.0000 C   0  0  1  0  0  0  0  0  0  0  0  0
    8.6791    6.3135    0.0000 N   0  0  0  0  0  0  0  0  0  0  0  0
    5.7169   -0.4901    0.0000 N   0  0  0  0  0  0  0  0  0  0  0  0
    2.6628    2.2594    0.0000 O   0  0  0  0  0  0  0  0  0  0  0  0
    0.6784    2.3530    0.0000 O   0  0  0  0  0  0  0  0  0  0  0  0
    1.0126   -2.0302    0.0000 O   0  0  0  0  0  0  0  0  0  0  0  0
    6.7758   -2.3988    0.0000 O   0  0  0  0  0  0  0  0  0  0  0  0
    7.1153   -0.7841    0.0000 O   0  0  0  0  0  0  0  0  0  0  0  0
    5.4420    1.6753    0.0000 O   0  0  0  0  0  0  0  0  0  0  0  0
    5.9917   -2.6555    0.0000 O   0  0  0  0  0  0  0  0  0  0  0  0
    3.9385    4.9420    0.0000 O   0  0  0  0  0  0  0  0  0  0  0  0
    3.1950   -2.0675    0.0000 O   0  0  0  0  0  0  0  0  0  0  0  0
    3.0253   -2.8749    0.0000 O   0  0  0  0  0  0  0  0  0  0  0  0
    5.5066    5.4553    0.0000 O   0  0  0  0  0  0  0  0  0  0  0  0
    4.4882    0.6112    0.0000 O   0  0  0  0  0  0  0  0  0  0  0  0
    4.7631   -1.5541    0.0000 O   0  0  0  0  0  0  0  0  0  0  0  0
    5.5933    1.9186    0.0000 H   0  0  0  0  0  0  0  0  0  0  0  0
    1.5267    0.3671    0.0000 H   0  0  0  0  0  0  0  0  0  0  0  0
    2.7504   -0.7095    0.0000 H   0  0  0  0  0  0  0  0  0  0  0  0
    5.0380   -3.7195    0.0000 H   0  0  0  0  0  0  0  0  0  0  0  0
    2.3058    0.6485    0.0000 H   0  0  0  0  0  0  0  0  0  0  0  0
    5.6117    2.4826    0.0000 H   0  0  0  0  0  0  0  0  0  0  0  0
   -0.1467    0.2392    0.0000 H   0  0  0  0  0  0  0  0  0  0  0  0
    6.0563    1.1246    0.0000 H   0  0  0  0  0  0  0  0  0  0  0  0
    1.8795    2.0263    0.0000 H   0  0  0  0  0  0  0  0  0  0  0  0
    6.1209    4.9047    0.0000 H   0  0  0  0  0  0  0  0  0  0  0  0
    3.7688    4.1346    0.0000 H   0  0  0  0  0  0  0  0  0  0  0  0
    2.8141   -1.8745    0.0000 H   0  0  0  0  0  0  0  0  0  0  0  0
    3.6396   -3.4255    0.0000 H   0  0  0  0  0  0  0  0  0  0  0  0
    0.3982   -1.4795    0.0000 H   0  0  0  0  0  0  0  0  0  0  0  0
    3.2596    1.7126    0.0000 H   0  0  0  0  0  0  0  0  0  0  0  0
    3.3301   -2.3202    0.0000 H   0  0  0  0  0  0  0  0  0  0  0  0
 11  1  1  0  0  0  0
 13 12  1  0  0  0  0
 14 12  1  0  0  0  0
 17 16  1  0  0  0  0
 18 15  1  0  0  0  0
 20 13  1  0  0  0  0
 21 19  2  0  0  0  0
 29  2  1  0  0  0  0
 29 23  2  0  0  0  0
 30  3  1  6  0  0  0
 30 24  1  0  0  0  0
 31  4  1  0  0  0  0
 31 22  2  0  0  0  0
 32  5  1  6  0  0  0
 32 25  1  0  0  0  0
 33  6  1  6  0  0  0
 34 15  1  0  0  0  0
 34 22  1  1  0  0  0
 34 26  1  0  0  0  0
 35 11  1  1  0  0  0
 35 23  1  0  0  0  0
 36 19  1  0  0  0  0
 36 27  2  0  0  0  0
 37 16  2  0  0  0  0
 37 27  1  0  0  0  0
 38 17  2  0  0  0  0
 38 36  1  0  0  0  0
 39 14  1  0  0  0  0
 40 28  1  0  0  0  0
 40 33  1  0  0  0  0
 41 28  1  0  0  0  0
 41 35  1  0  0  0  0
 42 18  1  0  0  0  0
 43 26  1  0  0  0  0
 43 42  1  0  0  0  0
 44 24  1  0  0  0  0
 45 25  1  0  0  0  0
 46 29  1  0  0  0  0
 46 30  1  0  0  0  0
 47 31  1  1  0  0  0
 47 33  1  0  0  0  0
 48 44  1  0  0  0  0
 48 45  1  0  0  0  0
 50 49  1  0  0  0  0
 51 39  1  0  0  0  0
 52 32  1  0  0  0  0
 52 49  1  0  0  0  0
 53  7  1  0  0  0  0
 53 21  1  0  0  0  0
 53 38  1  0  0  0  0
 54 20  1  0  0  0  0
 54 39  1  0  0  0  0
 54 50  1  0  0  0  0
 40 55  1  6  0  0  0
 56 41  2  0  0  0  0
 46 57  1  6  0  0  0
 58 49  2  0  0  0  0
 59 50  2  0  0  0  0
 60 51  2  0  0  0  0
 52 61  1  6  0  0  0
 62  8  1  0  0  0  0
 43 62  1  1  0  0  0
 63  9  1  0  0  0  0
 44 63  1  1  0  0  0
 64 10  1  0  0  0  0
 45 64  1  6  0  0  0
 65 37  1  0  0  0  0
 42 65  1  6  0  0  0
 66 47  1  0  0  0  0
 66 51  1  0  0  0  0
 67 48  1  0  0  0  0
 67 52  1  0  0  0  0
 68 22  1  0  0  0  0
 69 23  1  0  0  0  0
 30 70  1  1  0  0  0
 32 71  1  1  0  0  0
 33 72  1  1  0  0  0
 34 73  1  6  0  0  0
 35 74  1  6  0  0  0
 39 75  1  1  0  0  0
 40 76  1  1  0  0  0
 42 77  1  1  0  0  0
 43 78  1  6  0  0  0
 44 79  1  6  0  0  0
 45 80  1  1  0  0  0
 46 81  1  1  0  0  0
 47 82  1  6  0  0  0
 48 83  1  6  0  0  0
M  END
> <DATABASE_ID>
DB03621

> <DATABASE_NAME>
drugbank

> <SMILES>
[H]\C(=C(\C)[C@@]1([H])OC(=O)[C@]2([H])CCCCN2C(=O)C(=O)[C@]2(O)O[C@@]([H])([C@]([H])(C[C@@]2([H])C)OC)[C@]([H])(C[C@@]([H])(C)[C@]([H])(O)\C(C)=C([H])\[C@@]([H])(CC)C(=O)C[C@]([H])(O)[C@@]1([H])C)OC)[C@]1([H])CC[C@@]([H])(OC2=CC=C3N(C)C=CC3=C2)[C@@]([H])(C1)OC

> <INCHI_IDENTIFIER>
InChI=1S/C52H76N2O13/c1-11-35-23-29(2)46(57)30(3)24-44(63-9)48-45(64-10)25-32(5)52(61,67-48)49(58)50(59)54-20-13-12-14-39(54)51(60)66-47(33(6)40(55)28-41(35)56)31(4)22-34-15-18-42(43(26-34)62-8)65-37-16-17-38-36(27-37)19-21-53(38)7/h16-17,19,21-23,27,30,32-35,39-40,42-48,55,57,61H,11-15,18,20,24-26,28H2,1-10H3/b29-23+,31-22+/t30-,32-,33-,34+,35-,39+,40+,42-,43-,44+,45+,46-,47-,48-,52-/m1/s1

> <INCHI_KEY>
APSPCHLQXFEUHG-CPBVNLROSA-N

> <FORMULA>
C52H76N2O13

> <MOLECULAR_WEIGHT>
937.1654

> <EXACT_MASS>
936.534740528

> <JCHEM_ACCEPTOR_COUNT>
12

> <JCHEM_ATOM_COUNT>
143

> <JCHEM_AVERAGE_NEUTRAL_MICROSPECIES_CHARGE>
-0.0011064741719538057

> <JCHEM_AVERAGE_POLARIZABILITY>
104.27219426547745

> <JCHEM_BIOAVAILABILITY>
0

> <JCHEM_DONOR_COUNT>
3

> <JCHEM_FORMAL_CHARGE>
0

> <JCHEM_GHOSE_FILTER>
0

> <JCHEM_IUPAC>
(1R,9S,12S,13R,14S,17R,18E,20S,21R,23S,24R,25S,27R)-17-ethyl-1,14,20-trihydroxy-23,25-dimethoxy-12-[(1E)-1-[(1R,3R,4R)-3-methoxy-4-[(1-methyl-1H-indol-5-yl)oxy]cyclohexyl]prop-1-en-2-yl]-13,19,21,27-tetramethyl-11,28-dioxa-4-azatricyclo[22.3.1.0^{4,9}]octacos-18-ene-2,3,10,16-tetrone

> <ALOGPS_LOGP>
4.48

> <JCHEM_LOGP>
6.957271855333335

> <ALOGPS_LOGS>
-5.31

> <JCHEM_MDDR_LIKE_RULE>
1

> <JCHEM_NEUTRAL_CHARGE>
0

> <JCHEM_NUMBER_OF_RINGS>
6

> <JCHEM_PHYSIOLOGICAL_CHARGE>
0

> <JCHEM_PKA>
14.192936992009178

> <JCHEM_PKA_STRONGEST_ACIDIC>
9.95560851273187

> <JCHEM_PKA_STRONGEST_BASIC>
-2.9370881516892027

> <JCHEM_POLAR_SURFACE_AREA>
192.51999999999992

> <JCHEM_REFRACTIVITY>
252.65680000000006

> <JCHEM_ROTATABLE_BOND_COUNT>
8

> <JCHEM_RULE_OF_FIVE>
0

> <ALOGPS_SOLUBILITY>
4.55e-03 g/l

> <JCHEM_TRADITIONAL_IUPAC>
biotin

> <JCHEM_VEBER_RULE>
0

> <DRUGBANK_ID>
DB03621

> <SECONDARY_ACCESSION_NUMBERS>
EXPT00237

> <DRUG_GROUPS>
experimental

> <GENERIC_NAME>
L-709,587

$$$$
