
  Mrv0541 02231217512D          

 22 24  0  0  1  0            999 V2000
    3.9934    2.4750    0.0000 O   0  0  0  0  0  0  0  0  0  0  0  0
    3.2789    2.0625    0.0000 C   0  0  0  0  0  0  0  0  0  0  0  0
    3.2789    1.2375    0.0000 C   0  0  2  0  0  0  0  0  0  0  0  0
    3.9934    0.8250    0.0000 C   0  0  1  0  0  0  0  0  0  0  0  0
    4.7079    1.2375    0.0000 O   0  0  0  0  0  0  0  0  0  0  0  0
    3.9934    0.0000    0.0000 C   0  0  2  0  0  0  0  0  0  0  0  0
    4.7079   -0.4125    0.0000 O   0  0  0  0  0  0  0  0  0  0  0  0
    3.2789   -0.4125    0.0000 C   0  0  1  0  0  0  0  0  0  0  0  0
    3.2789   -1.2375    0.0000 O   0  0  0  0  0  0  0  0  0  0  0  0
    2.5645    0.0000    0.0000 C   0  0  0  0  0  0  0  0  0  0  0  0
    1.7798   -0.2549    0.0000 N   0  0  0  0  0  0  0  0  0  0  0  0
    1.2949    0.4125    0.0000 C   0  0  0  0  0  0  0  0  0  0  0  0
    0.4699    0.4125    0.0000 C   0  0  0  0  0  0  0  0  0  0  0  0
    0.0574   -0.3020    0.0000 N   0  0  0  0  0  0  0  0  0  0  0  0
   -0.7676   -0.3020    0.0000 C   0  0  0  0  0  0  0  0  0  0  0  0
   -1.1801   -1.0164    0.0000 C   0  0  0  0  0  0  0  0  0  0  0  0
   -2.0051   -1.0164    0.0000 C   0  0  0  0  0  0  0  0  0  0  0  0
   -2.4176   -0.3020    0.0000 C   0  0  0  0  0  0  0  0  0  0  0  0
   -2.0051    0.4125    0.0000 C   0  0  0  0  0  0  0  0  0  0  0  0
   -1.1801    0.4125    0.0000 C   0  0  0  0  0  0  0  0  0  0  0  0
    1.7798    1.0799    0.0000 C   0  0  0  0  0  0  0  0  0  0  0  0
    2.5645    0.8250    0.0000 N   0  0  0  0  0  0  0  0  0  0  0  0
  1  2  1  0  0  0  0
  3  2  1  6  0  0  0
  3  4  1  0  0  0  0
  4  5  1  1  0  0  0
  4  6  1  0  0  0  0
  6  7  1  6  0  0  0
  6  8  1  0  0  0  0
  8  9  1  1  0  0  0
  8 10  1  0  0  0  0
 10 11  2  0  0  0  0
 11 12  1  0  0  0  0
 12 13  1  0  0  0  0
 13 14  1  0  0  0  0
 14 15  1  0  0  0  0
 15 16  2  0  0  0  0
 16 17  1  0  0  0  0
 17 18  2  0  0  0  0
 18 19  1  0  0  0  0
 19 20  2  0  0  0  0
 15 20  1  0  0  0  0
 12 21  2  0  0  0  0
 21 22  1  0  0  0  0
  3 22  1  0  0  0  0
 10 22  1  0  0  0  0
M  END
> <DATABASE_ID>
DB04712

> <DATABASE_NAME>
drugbank

> <SMILES>
OC[C@@H]1[C@@H](O)[C@H](O)[C@@H](O)C2=NC(CNC3=CC=CC=C3)=CN12

> <INCHI_IDENTIFIER>
InChI=1S/C15H19N3O4/c19-8-11-12(20)13(21)14(22)15-17-10(7-18(11)15)6-16-9-4-2-1-3-5-9/h1-5,7,11-14,16,19-22H,6,8H2/t11-,12-,13+,14-/m1/s1

> <INCHI_KEY>
ADKWVGPRAQKVKB-YIYPIFLZSA-N

> <FORMULA>
C15H19N3O4

> <MOLECULAR_WEIGHT>
305.3291

> <EXACT_MASS>
305.137556111

> <JCHEM_ACCEPTOR_COUNT>
6

> <JCHEM_ATOM_COUNT>
41

> <JCHEM_AVERAGE_NEUTRAL_MICROSPECIES_CHARGE>
0.0033238906275018256

> <JCHEM_AVERAGE_POLARIZABILITY>
32.2584961763727

> <JCHEM_BIOAVAILABILITY>
1

> <JCHEM_DONOR_COUNT>
5

> <JCHEM_FORMAL_CHARGE>
0

> <JCHEM_GHOSE_FILTER>
0

> <JCHEM_IUPAC>
(5R,6R,7S,8S)-5-(hydroxymethyl)-2-[(phenylamino)methyl]-5H,6H,7H,8H-imidazo[1,2-a]pyridine-6,7,8-triol

> <ALOGPS_LOGP>
0.12

> <JCHEM_LOGP>
-1.1875818033333332

> <ALOGPS_LOGS>
-1.66

> <JCHEM_MDDR_LIKE_RULE>
0

> <JCHEM_NEUTRAL_CHARGE>
0

> <JCHEM_NUMBER_OF_RINGS>
3

> <JCHEM_PHYSIOLOGICAL_CHARGE>
0

> <JCHEM_PKA>
13.422633161281357

> <JCHEM_PKA_STRONGEST_ACIDIC>
12.292866993887966

> <JCHEM_PKA_STRONGEST_BASIC>
4.54430008487771

> <JCHEM_POLAR_SURFACE_AREA>
110.77000000000001

> <JCHEM_REFRACTIVITY>
80.0004

> <JCHEM_ROTATABLE_BOND_COUNT>
4

> <JCHEM_RULE_OF_FIVE>
1

> <ALOGPS_SOLUBILITY>
6.65e+00 g/l

> <JCHEM_TRADITIONAL_IUPAC>
biotin

> <JCHEM_VEBER_RULE>
0

> <DRUGBANK_ID>
DB04712

> <DRUG_GROUPS>
experimental

> <GENERIC_NAME>
ANILINOMETHYL GLUCO-PHENYLIMIDAZOLE

$$$$
