
  Mrv0541 02241205152D          

  5  3  0  0  0  0            999 V2000
    0.0000    0.0000    0.0000 K   0  3  0  0  0  0  0  0  0  0  0  0
    3.2411    0.7145    0.0000 O   0  5  0  0  0  0  0  0  0  0  0  0
    2.8286    0.0000    0.0000 N   0  3  0  0  0  0  0  0  0  0  0  0
    3.2411   -0.7145    0.0000 O   0  5  0  0  0  0  0  0  0  0  0  0
    2.0036    0.0000    0.0000 O   0  0  0  0  0  0  0  0  0  0  0  0
  2  3  1  0  0  0  0
  3  4  1  0  0  0  0
  3  5  2  0  0  0  0
M  CHG  4   1   1   2  -1   3   1   4  -1
M  END
> <DATABASE_ID>
DB11090

> <DATABASE_NAME>
drugbank

> <SMILES>
[K+].[O-][N+]([O-])=O

> <INCHI_IDENTIFIER>
InChI=1S/K.NO3/c;2-1(3)4/q+1;-1

> <INCHI_KEY>
FGIUAXJPYTZDNR-UHFFFAOYSA-N

> <FORMULA>
KNO3

> <MOLECULAR_WEIGHT>
101.1032

> <EXACT_MASS>
100.951524732

> <JCHEM_ACCEPTOR_COUNT>
3

> <JCHEM_ATOM_COUNT>
5

> <JCHEM_AVERAGE_NEUTRAL_MICROSPECIES_CHARGE>
0.0

> <JCHEM_AVERAGE_POLARIZABILITY>
3.275441232355817

> <JCHEM_BIOAVAILABILITY>
1

> <JCHEM_DONOR_COUNT>
0

> <JCHEM_FORMAL_CHARGE>
0

> <JCHEM_GHOSE_FILTER>
0

> <JCHEM_IUPAC>
potassium nitrate

> <JCHEM_LOGP>
-2.574421943

> <JCHEM_MDDR_LIKE_RULE>
0

> <JCHEM_NEUTRAL_CHARGE>
-1

> <JCHEM_NUMBER_OF_RINGS>
0

> <JCHEM_PHYSIOLOGICAL_CHARGE>
-1

> <JCHEM_PKA_STRONGEST_BASIC>
-9.93762264919614

> <JCHEM_POLAR_SURFACE_AREA>
66.19999999999999

> <JCHEM_REFRACTIVITY>
8.3471

> <JCHEM_ROTATABLE_BOND_COUNT>
0

> <JCHEM_RULE_OF_FIVE>
1

> <JCHEM_TRADITIONAL_IUPAC>
tetrahydrofolic acid

> <JCHEM_VEBER_RULE>
0

> <DRUGBANK_ID>
DB11090

> <DRUG_GROUPS>
approved

> <GENERIC_NAME>
Potassium nitrate

> <SYNONYMS>
Potassium nitrate

> <PRODUCTS>
4 Pack; Advancew White Sensitive Maximum Strength Sensitivity Relief with Whitening; Aim Sensitive Cavity Protection; Alora Sensitivity; Alora Sensitivity Whitening; Alora Whitening; Aquafresh Sensitive Maximum Strength; Arm and Hammer Orajel Sensitive Freshening with Flavor Burst; Attitude Adult Fluoride-free - Sensitive - Spearmint; BIOTENE Sensitive; BeanGuard Sensitivetoothpaste; Big Lots Sound Body; Bio Spectra Attitude; CVS Enamel Guard; CVS Extra Whitening; CVS Maximum Strength; CVS Pharmacy Always White; CVS Pharmacy Strong White; Care One Maximum Strength; Colgate Advanced Sensitive Plus Whitening; Colgate Enamel Health Mineral Repair; Colgate Enamel Health Sensitivity MultiProtect; Colgate Enamel Health Sensitivity Relief; Colgate Enamel Renewal Deep Clean; Colgate Enamel Renewal Sensitivity; Colgate Enamel Renewal Whitening; Colgate Sensitive Complete Protection; Colgate Sensitive Enamel Protect; Colgate Sensitive Lasting Fresh Mint Burst; Colgate Sensitive Maximum Strength Mint Clean; Colgate Sensitive Maximum Strength Whitening; Colgate Sensitive Multiprotection; Colgate Sensitive Prevent and Repair; Colgate Sensitive Pro Relief; Colgate Sensitive Pro Relief Enamel Repair; Colgate Sensitive Pro Relief Whitening; Colgate Sensitive Smart White Fresh Mint; Colgate Sensitive Smartfoam With Whitening; Colgate Sensitive Whitening Fresh Mint; Colgate Sensitive Whitening for Sensitive Teeth and Cavity Protection; Colgate Sensitive multiprotection for Sensitive Teeth and Cavity Protection; Colgate Sensitive plus Whitening; Colgate Total Zx Pro-Shield Plus Sensitive; Colgate Ultra Relief; Crest 3D White Luxe; Crest 3DWhite Whitening Therapy Sensitivity Care; Crest Premium Plus Sensitivity Active Foam; Crest Pro Health Sensitivity Whitening plus Scope; Crest Sensi-Namel; Crest Sensi-Relief; Crest Sensitivity Clinical Sensitivity Relief; Crest Sensitivity Whitening plus Scope; DG health Sensitive Maximum Strength; DOCTRUST ONE S Tooth; Dentalux sensitive; Dollar General Maximum Strength; Dr. Sheffield Sensitive Care; Early Bird Wintergreen and Peppermint; EcoDent Res-Q-Dent; Enamel Health Multi-Protection; Exceed Total Care Sensitive Peppermint Tooth Polish; Exceed Total Care Sensitive Spearmint Tooth Polish; Family Wellness Maximum Strength; Family Wellness Sensitive Extra Whitening; FluoriMax 5000 Sensitive; Fluoridex; Fluoridex Daily Defense Sensitivity Relief; Fluoridex Daily Defense Sensitivity Relief SLS Free; Freshmint Sensitive; Freshmint Sensitive Toothpaste; Freshmist Sensitive; Genesis Sensitive Fresh Mint; Goodsense Sensitive Extra Whitening; Grafco Applicator 15 Cm; Grafco Applicator 30 Cm; Grafco Applicator 45 Cm; Grafco Silver Nitrate (75% Silver Nitrate, 25% Potassium Nitrate); HEB Enamel Protection Multi Action; HEB Extra Whitening; Hello; House Living; HyVee Inc Maximum Strength; HyVee Maximum Strength; Iodent Sensitive; Iodent Sensitive Extra Whitening; Iodent Sensitive Fresh Mint; Ionite H; Jason Oral Comfort Sensitive Teeth Very Berry Mint; Jason Total Protection Sensitive; Kiss My Face Enamel Extra; Kiss My Face Sensitive; Kiss My Face Sensitive Fluoride-Free Whitening - Citrus Mint; Kmart Corporation Maximum Strength; Kroger Enamel Protection Sensitive Gentle Whitening; Kroger Extra Whitening; Kroger Sensitive; Laura Lynn Extra Whitening Sensitive; Level Herbal Mint Five Sensitive Formula Anticavity; Live Better Extra Whitening; Lornamead Natural White; Lucky Super Soft Sensitive; MIPaste ONE; MIPaste One; Maximum Strength Sensitive Soothing Mint; Maximum Strength Sensitive True Mint; Meijer Enamel Guard; Meijer Maximum Strength; Mini Duo; NATEAN Clean plus Sensitivity Relief; Native Sensitivity; Natural White; Natural White Pro Sensitive Clean and Polish Toothtpaste; Natural White Wht. Tpt Sens.teeth-fresh Mint; Opalescence PF; Opalescence Sensitivity Relief Whitening; Oral-B Sensitive With Fluoride Toothpaste; PERIOSCIENCES SENSITIVE AO Pro; Pearl White; PreviDent 5000 Enamel Protect; PreviDent 5000 Sensitive; Quality Choice Natural White; Rembrandt Whitening Toothpaste for Sensitive Teeth; Repara Silver Nitrate Applicators; Rexall Sensitive Extra Whitening; Rexall Sensitive Freshmint; Rite Aid Extra Whitening; Rite Aid Sensitive Mint; Rite Aid Sensitive Toothpaste Extra Whitening; SENSODYNE Advanced Whitening; SENSODYNE PRONAMEL Daily Protection; SENSODYNE PRONAMEL Fresh Breath; SENSODYNE PRONAMEL Gentle Whitening; SENSODYNE PRONAMEL Intensive Enamel Repair Clean Mint; SENSODYNE PRONAMEL Intensive Enamel Repair Extra Fresh; SENSODYNE PRONAMEL Intensive Enamel Repair Whitening; SENSODYNE PRONAMEL Multi Action; SENSODYNE PRONAMEL mineral BOOST refreshing peppermint; SENSODYNE PRONAMEL mineral BOOST whitening action; SENSODYNE Pronamel iso-active; SENSODYNE iso-active; Salpetre Pwr; Saltpetre Pwr 100%; Schmidts WONDERMINT TOOTH AND MOUTH; Sensitive Anti-cavity; Sensitive Mint Tooth-paste; Sensitive MultiProtection with Tartar Control; Sensitive Teeth; Sensitive Teeth and Gums; Sensitive Tooth Paste Multi Action; Sensitive Tooth Paste Whitening; Sensitive Tooth Polish; Sensitive Whitening Enamel Guard; Sensitive Whitening Tooth-paste; Sensitive Whitening with Baking Soda; Sensitive With Fluoride Tpt; Sensitive fluoride-free - Wintermint; Sensodyne; Sensodyne CoolGel; Sensodyne Extra Whitening; Sensodyne Fresh Impact; Sensodyne Fresh Mint; Sensodyne Full Protection; Sensodyne Natural white; Sensodyne Nourish Gently Soothing; Sensodyne Nourish Healthy White; Sensodyne Original Flavor; Sensodyne Pronamel Gentle Whitening Advanced; Sensodyne Pronamel Strong and Bright Enamel Extra Fresh; Sensodyne Pronamel Strong and Bright Enamel Mint; Sensodyne Tartar Control; Sensodyne True white; Sensodyne-F Fluoride Toothpaste; Sensodyne-F Mint Toothpaste; SheerDesenZ Desensitizing Treatment; Signature Care Enamel Guard Sensitive Gentle Whitening; Signature Care Sensitive Maximum Strength; Silver Nitrate Applicators; Silver Nitrate Potassium Nitrate; Smart Sense Enamel Guard; Smart Sense Maximum Strength; Sodium Fluoride 5000 ppm Enamel Protect; Sodium Fluoride 5000 ppm Sensitive; Sodium Fluoride and Potassium Nitrate; Sound Body Sensitive Maximum Strength; Spearmint Eucalyptus; Spotlight Oral Care Kit for Sensitive Teeth; Spotlight Oral Care for Rebuilding Teeth; Spotlight Oral Care for Sensitive Teeth; SprinJene Natural Sensitivity Relief; SprinJene Natural Sensitivity and Gum; Styptstix; Swabs; Target Sensitive Whitening TP; Teeth Desensitizing and Remineralizing Gel; The Duo; The Natural Dentist Sensitivity; Toms Natural Fluoride-free Strength Sensitive Wintermint clinically proven to reduce painful sensitivity / no artificial dyes or sweeteners; Toms Natural Maximum Strength Sensitive Soothing Mint clinically proven to reduce painful sensitivity / no artificial dyes or sweeteners; Top Care Enamel Guard; TopCare Sensitive Extra Whitening; Topco Associates LLC Maximum Strength; Topol Plus Whitening Tpt for Sensitive Teeth; Twice Science Wellness Cooling Spearmint Eucalyptus; Twice Science and Wellness Calming Vanilla Lavender Mint; Twice Science and Wellness Invigorating Wintergreen and Peppermint; Twilight Peppermint with Vanilla and Lavender; Universal Sensitive Anti-cavity Fluoride; Up and UP Sensitive Toothpaste Enamel Strengthening formula; Up and UP Sensitive Toothpaste Enamel Strengthening formula plus whitening; Up and Up Sensitive Maximum Strength Mint; Up and Up Sensitive Maximum Strength Whitening; Up and Up Sensitive Toothpaste; Up and Up Sensitive Toothpaste Whitening; Vanilla Lavender Mint; Vet one; Wakefern Maximum Strength; Wal-Mart Stores Inc. Equate; Walgreen Sensitive Extra Whitening; Walgreens Maximum Strength Sensitive Fluoride; Walgreens Sensitive Dura-namel; Western Family Sensitive Whitening Fluoride; White Glo Charcoal Sensitive; Wintergreen Peppermint; equate Sensitive; equate beauty Enamel Protection Gentle Whitening For Sensitive Teeth; fluorodine ULTRA sensitive Fluoride Anticavity; iBrite

$$$$
