
  Mrv0541 09041212592D          

 17 16  0  0  0  0            999 V2000
   -1.1270   -0.3020    0.0000 C   0  0  0  0  0  0  0  0  0  0  0  0
    1.7309   -0.3020    0.0000 C   0  0  0  0  0  0  0  0  0  0  0  0
   -0.4125   -0.7145    0.0000 C   0  0  1  0  0  0  0  0  0  0  0  0
    1.0164   -0.7145    0.0000 C   0  0  2  0  0  0  0  0  0  0  0  0
    0.3020   -0.3020    0.0000 C   0  0  1  0  0  0  0  0  0  0  0  0
   -1.8414   -0.7145    0.0000 O   0  0  0  0  0  0  0  0  0  0  0  0
   -0.4125   -1.5395    0.0000 O   0  0  0  0  0  0  0  0  0  0  0  0
    1.0164   -1.5395    0.0000 O   0  0  0  0  0  0  0  0  0  0  0  0
    0.3020    0.5230    0.0000 O   0  0  0  0  0  0  0  0  0  0  0  0
    3.8743    0.1105    0.0000 O   0  0  0  0  0  0  0  0  0  0  0  0
    3.5724   -1.0164    0.0000 O   0  0  0  0  0  0  0  0  0  0  0  0
    2.7474    0.4125    0.0000 O   0  0  0  0  0  0  0  0  0  0  0  0
    2.4454   -0.7145    0.0000 O   0  0  0  0  0  0  0  0  0  0  0  0
    3.1599   -0.3020    0.0000 P   0  0  0  0  0  0  0  0  0  0  0  0
   -0.4125    0.1105    0.0000 H   0  0  0  0  0  0  0  0  0  0  0  0
    1.0164    0.1105    0.0000 H   0  0  0  0  0  0  0  0  0  0  0  0
    0.3020   -1.1270    0.0000 H   0  0  0  0  0  0  0  0  0  0  0  0
  3  1  1  0  0  0  0
  4  2  1  0  0  0  0
  5  3  1  0  0  0  0
  5  4  1  0  0  0  0
  6  1  2  0  0  0  0
  3  7  1  6  0  0  0
  4  8  1  6  0  0  0
  5  9  1  1  0  0  0
 13  2  1  0  0  0  0
 14 10  1  0  0  0  0
 14 11  1  0  0  0  0
 14 12  2  0  0  0  0
 14 13  1  0  0  0  0
  3 15  1  6  0  0  0
  4 16  1  6  0  0  0
  5 17  1  1  0  0  0
M  END
> <DATABASE_ID>
DB02053

> <DATABASE_NAME>
drugbank

> <SMILES>
[H][C@@](O)(COP(O)(O)=O)[C@@]([H])(O)[C@@]([H])(O)C=O

> <INCHI_IDENTIFIER>
InChI=1S/C5H11O8P/c6-1-3(7)5(9)4(8)2-13-14(10,11)12/h1,3-5,7-9H,2H2,(H2,10,11,12)/t3-,4+,5-/m0/s1

> <INCHI_KEY>
PPQRONHOSHZGFQ-LMVFSUKVSA-N

> <FORMULA>
C5H11O8P

> <MOLECULAR_WEIGHT>
230.1098

> <EXACT_MASS>
230.01915384

> <JCHEM_ACCEPTOR_COUNT>
7

> <JCHEM_ATOM_COUNT>
25

> <JCHEM_AVERAGE_NEUTRAL_MICROSPECIES_CHARGE>
-1.8588443703937811

> <JCHEM_AVERAGE_POLARIZABILITY>
17.784201759321817

> <JCHEM_BIOAVAILABILITY>
1

> <JCHEM_DONOR_COUNT>
5

> <JCHEM_FORMAL_CHARGE>
0

> <JCHEM_GHOSE_FILTER>
0

> <JCHEM_IUPAC>
{[(2R,3R,4R)-2,3,4-trihydroxy-5-oxopentyl]oxy}phosphonic acid

> <ALOGPS_LOGP>
-1.64

> <JCHEM_LOGP>
-3.0615916523333335

> <ALOGPS_LOGS>
-1.08

> <JCHEM_MDDR_LIKE_RULE>
0

> <JCHEM_NEUTRAL_CHARGE>
-2

> <JCHEM_NUMBER_OF_RINGS>
0

> <JCHEM_PHYSIOLOGICAL_CHARGE>
-2

> <JCHEM_PKA>
6.516820455580245

> <JCHEM_PKA_STRONGEST_ACIDIC>
1.491010208109525

> <JCHEM_PKA_STRONGEST_BASIC>
-3.5444508462421314

> <JCHEM_POLAR_SURFACE_AREA>
144.52

> <JCHEM_REFRACTIVITY>
42.256

> <JCHEM_ROTATABLE_BOND_COUNT>
6

> <JCHEM_RULE_OF_FIVE>
1

> <ALOGPS_SOLUBILITY>
1.93e+01 g/l

> <JCHEM_TRADITIONAL_IUPAC>
biotin

> <JCHEM_VEBER_RULE>
0

> <DRUGBANK_ID>
DB02053

> <SECONDARY_ACCESSION_NUMBERS>
EXPT02747

> <DRUG_GROUPS>
experimental

> <GENERIC_NAME>
Ribose-5-phosphate

> <SYNONYMS>
5-O-phosphono-D-ribose; aldehydo-D-ribose 5-phosphate; D-Ribose 5-phosphate

$$$$
