
  Mrv0541 05041403502D          

 38 41  0  0  1  0            999 V2000
   -0.7145    1.2375    0.0000 C   0  0  0  0  0  0  0  0  0  0  0  0
   -0.7145    2.0625    0.0000 C   0  0  0  0  0  0  0  0  0  0  0  0
    2.8579    6.6000    0.0000 C   0  0  0  0  0  0  0  0  0  0  0  0
    3.5724    6.1875    0.0000 C   0  0  0  0  0  0  0  0  0  0  0  0
    5.7158    2.4750    0.0000 C   0  0  0  0  0  0  0  0  0  0  0  0
    5.0013    2.8875    0.0000 C   0  0  0  0  0  0  0  0  0  0  0  0
   -0.0000    0.8250    0.0000 C   0  0  0  0  0  0  0  0  0  0  0  0
    0.0000    2.4750    0.0000 C   0  0  0  0  0  0  0  0  0  0  0  0
    6.4302    2.8875    0.0000 C   0  0  0  0  0  0  0  0  0  0  0  0
    2.1434    6.1875    0.0000 C   0  0  0  0  0  0  0  0  0  0  0  0
    1.4289    0.8250    0.0000 C   0  0  0  0  0  0  0  0  0  0  0  0
    2.1434    1.2375    0.0000 C   0  0  0  0  0  0  0  0  0  0  0  0
    3.5724    5.3625    0.0000 C   0  0  0  0  0  0  0  0  0  0  0  0
    5.7158    4.1250    0.0000 C   0  0  0  0  0  0  0  0  0  0  0  0
    4.2868    4.1250    0.0000 C   0  0  0  0  0  0  0  0  0  0  0  0
    1.4289    2.4750    0.0000 C   0  0  0  0  0  0  0  0  0  0  0  0
    5.0013    3.7125    0.0000 C   0  0  0  0  0  0  0  0  0  0  0  0
    0.7145    1.2375    0.0000 C   0  0  0  0  0  0  0  0  0  0  0  0
    0.7145    2.0625    0.0000 C   0  0  0  0  0  0  0  0  0  0  0  0
    6.4302    3.7125    0.0000 C   0  0  0  0  0  0  0  0  0  0  0  0
    2.1434    2.0625    0.0000 C   0  0  0  0  0  0  0  0  0  0  0  0
    3.5724    3.7125    0.0000 C   0  0  1  0  0  0  0  0  0  0  0  0
    2.1434    5.3625    0.0000 C   0  0  2  0  0  0  0  0  0  0  0  0
    7.1447    4.1250    0.0000 C   0  0  0  0  0  0  0  0  0  0  0  0
    2.8579    4.1250    0.0000 C   0  0  0  0  0  0  0  0  0  0  0  0
    1.4289    4.9500    0.0000 C   0  0  0  0  0  0  0  0  0  0  0  0
    7.8592    3.7125    0.0000 N   0  0  0  0  0  0  0  0  0  0  0  0
    7.1447    4.9500    0.0000 N   0  0  0  0  0  0  0  0  0  0  0  0
    3.5724    2.8875    0.0000 N   0  0  0  0  0  0  0  0  0  0  0  0
    2.8579    4.9500    0.0000 N   0  0  0  0  0  0  0  0  0  0  0  0
    2.1434    3.7125    0.0000 O   0  0  0  0  0  0  0  0  0  0  0  0
    1.4289    4.1250    0.0000 O   0  0  0  0  0  0  0  0  0  0  0  0
    0.7145    5.3625    0.0000 O   0  0  0  0  0  0  0  0  0  0  0  0
    3.2704    1.7605    0.0000 O   0  0  0  0  0  0  0  0  0  0  0  0
    2.4454    3.1895    0.0000 O   0  0  0  0  0  0  0  0  0  0  0  0
    2.8579    2.4750    0.0000 S   0  0  0  0  0  0  0  0  0  0  0  0
    3.5724    4.5375    0.0000 H   0  0  0  0  0  0  0  0  0  0  0  0
    1.4289    5.7750    0.0000 H   0  0  0  0  0  0  0  0  0  0  0  0
  2  1  2  0  0  0  0
  4  3  1  0  0  0  0
  6  5  2  0  0  0  0
  7  1  1  0  0  0  0
  8  2  1  0  0  0  0
  9  5  1  0  0  0  0
 10  3  1  0  0  0  0
 12 11  2  0  0  0  0
 13  4  1  0  0  0  0
 17  6  1  0  0  0  0
 17 14  2  0  0  0  0
 17 15  1  0  0  0  0
 18  7  2  0  0  0  0
 18 11  1  0  0  0  0
 19  8  2  0  0  0  0
 19 16  1  0  0  0  0
 19 18  1  0  0  0  0
 20  9  2  0  0  0  0
 20 14  1  0  0  0  0
 21 12  1  0  0  0  0
 21 16  2  0  0  0  0
 22 15  1  0  0  0  0
 23 10  1  0  0  0  0
 24 20  1  0  0  0  0
 25 22  1  0  0  0  0
 23 26  1  1  0  0  0
 27 24  2  0  0  0  0
 28 24  1  0  0  0  0
 22 29  1  1  0  0  0
 30 13  1  0  0  0  0
 30 23  1  0  0  0  0
 30 25  1  0  0  0  0
 31 25  2  0  0  0  0
 32 26  2  0  0  0  0
 33 26  1  0  0  0  0
 36 21  1  0  0  0  0
 36 29  1  0  0  0  0
 36 34  2  0  0  0  0
 36 35  2  0  0  0  0
 22 37  1  1  0  0  0
 23 38  1  6  0  0  0
M  END
> <DATABASE_ID>
DB04238

> <DATABASE_NAME>
drugbank

> <SMILES>
[H][C@@](CC1=CC(=CC=C1)C(N)=N)(NS(=O)(=O)C1=CC2=CC=CC=C2C=C1)C(=O)N1CCCC[C@]1([H])C(O)=O

> <INCHI_IDENTIFIER>
InChI=1S/C26H28N4O5S/c27-24(28)20-9-5-6-17(14-20)15-22(25(31)30-13-4-3-10-23(30)26(32)33)29-36(34,35)21-12-11-18-7-1-2-8-19(18)16-21/h1-2,5-9,11-12,14,16,22-23,29H,3-4,10,13,15H2,(H3,27,28)(H,32,33)/t22-,23+/m0/s1

> <INCHI_KEY>
GNANSBQAIRJZPA-XZOQPEGZSA-N

> <FORMULA>
C26H28N4O5S

> <MOLECULAR_WEIGHT>
508.589

> <EXACT_MASS>
508.178040716

> <JCHEM_ACCEPTOR_COUNT>
7

> <JCHEM_ATOM_COUNT>
64

> <JCHEM_AVERAGE_NEUTRAL_MICROSPECIES_CHARGE>
-0.0008046426915058562

> <JCHEM_AVERAGE_POLARIZABILITY>
51.779049441837586

> <JCHEM_BIOAVAILABILITY>
1

> <JCHEM_DONOR_COUNT>
4

> <JCHEM_FORMAL_CHARGE>
0

> <JCHEM_GHOSE_FILTER>
0

> <JCHEM_IUPAC>
(2R)-1-[(2S)-3-(3-carbamimidoylphenyl)-2-(naphthalene-2-sulfonamido)propanoyl]piperidine-2-carboxylic acid

> <ALOGPS_LOGP>
0.90

> <JCHEM_LOGP>
0.9513560667654272

> <ALOGPS_LOGS>
-4.57

> <JCHEM_MDDR_LIKE_RULE>
1

> <JCHEM_NEUTRAL_CHARGE>
0

> <JCHEM_NUMBER_OF_RINGS>
4

> <JCHEM_PHYSIOLOGICAL_CHARGE>
0

> <JCHEM_PKA>
10.019778784261502

> <JCHEM_PKA_STRONGEST_ACIDIC>
3.006874759009492

> <JCHEM_PKA_STRONGEST_BASIC>
11.471686005901283

> <JCHEM_POLAR_SURFACE_AREA>
153.65

> <JCHEM_REFRACTIVITY>
146.02030000000002

> <JCHEM_ROTATABLE_BOND_COUNT>
7

> <JCHEM_RULE_OF_FIVE>
0

> <ALOGPS_SOLUBILITY>
1.37e-02 g/l

> <JCHEM_TRADITIONAL_IUPAC>
biotin

> <JCHEM_VEBER_RULE>
0

> <DRUGBANK_ID>
DB04238

> <SECONDARY_ACCESSION_NUMBERS>
EXPT01409

> <DRUG_GROUPS>
experimental

> <GENERIC_NAME>
N-Alpha-(2-Naphthylsulfonyl)-N-(3-Amidino-L-Phenylalaninyl)-D-Pipecolinic Acid

$$$$
