
  Mrv0541 02231217442D          

 11 10  0  0  1  0            999 V2000
    7.2849    3.3809    0.0000 N   0  0  0  0  0  0  0  0  0  0  0  0
    7.2849    2.5559    0.0000 C   0  0  1  0  0  0  0  0  0  0  0  0
    6.5704    2.1434    0.0000 C   0  0  0  0  0  0  0  0  0  0  0  0
    5.8559    2.5559    0.0000 S   0  0  0  0  0  0  0  0  0  0  0  0
    5.1414    2.1434    0.0000 S   0  0  0  0  0  0  0  0  0  0  0  0
    4.4270    2.5559    0.0000 C   0  0  0  0  0  0  0  0  0  0  0  0
    3.7125    2.1434    0.0000 C   0  0  0  0  0  0  0  0  0  0  0  0
    2.9980    2.5559    0.0000 O   0  0  0  0  0  0  0  0  0  0  0  0
    7.9993    2.1434    0.0000 C   0  0  0  0  0  0  0  0  0  0  0  0
    8.7138    2.5559    0.0000 O   0  0  0  0  0  0  0  0  0  0  0  0
    7.9993    1.3184    0.0000 O   0  0  0  0  0  0  0  0  0  0  0  0
  2  1  1  6  0  0  0
  2  3  1  0  0  0  0
  3  4  1  0  0  0  0
  4  5  1  0  0  0  0
  5  6  1  0  0  0  0
  6  7  1  0  0  0  0
  7  8  1  0  0  0  0
  2  9  1  0  0  0  0
  9 10  1  0  0  0  0
  9 11  2  0  0  0  0
M  END
> <DATABASE_ID>
DB04530

> <DATABASE_NAME>
drugbank

> <SMILES>
N[C@@H](CSSCCO)C(O)=O

> <INCHI_IDENTIFIER>
InChI=1S/C5H11NO3S2/c6-4(5(8)9)3-11-10-2-1-7/h4,7H,1-3,6H2,(H,8,9)/t4-/m0/s1

> <INCHI_KEY>
YPUBRSXDQSFQBA-BYPYZUCNSA-N

> <FORMULA>
C5H11NO3S2

> <MOLECULAR_WEIGHT>
197.276

> <EXACT_MASS>
197.018034603

> <JCHEM_ACCEPTOR_COUNT>
4

> <JCHEM_ATOM_COUNT>
22

> <JCHEM_AVERAGE_NEUTRAL_MICROSPECIES_CHARGE>
-0.00901343361156621

> <JCHEM_AVERAGE_POLARIZABILITY>
19.350169723805273

> <JCHEM_BIOAVAILABILITY>
1

> <JCHEM_DONOR_COUNT>
3

> <JCHEM_FORMAL_CHARGE>
0

> <JCHEM_GHOSE_FILTER>
0

> <JCHEM_IUPAC>
(2R)-2-amino-3-[(2-hydroxyethyl)disulfanyl]propanoic acid

> <ALOGPS_LOGP>
-2.54

> <JCHEM_LOGP>
-3.2182559889105957

> <ALOGPS_LOGS>
-0.74

> <JCHEM_MDDR_LIKE_RULE>
0

> <JCHEM_NEUTRAL_CHARGE>
0

> <JCHEM_NUMBER_OF_RINGS>
0

> <JCHEM_PHYSIOLOGICAL_CHARGE>
0

> <JCHEM_PKA>
15.439304640387855

> <JCHEM_PKA_STRONGEST_ACIDIC>
2.0359209644416136

> <JCHEM_PKA_STRONGEST_BASIC>
9.040653435524714

> <JCHEM_POLAR_SURFACE_AREA>
83.55000000000001

> <JCHEM_REFRACTIVITY>
47.38440000000001

> <JCHEM_ROTATABLE_BOND_COUNT>
6

> <JCHEM_RULE_OF_FIVE>
1

> <ALOGPS_SOLUBILITY>
3.60e+01 g/l

> <JCHEM_TRADITIONAL_IUPAC>
biotin

> <JCHEM_VEBER_RULE>
0

> <DRUGBANK_ID>
DB04530

> <SECONDARY_ACCESSION_NUMBERS>
EXPT00954

> <DRUG_GROUPS>
experimental

> <GENERIC_NAME>
S,S-(2-Hydroxyethyl)Thiocysteine

$$$$
