
  Mrv0541 05041402332D          

 12 12  0  0  0  0            999 V2000
    1.4289   -0.0000    0.0000 C   0  0  0  0  0  0  0  0  0  0  0  0
    1.4289    0.8250    0.0000 C   0  0  0  0  0  0  0  0  0  0  0  0
    0.0000   -0.0000    0.0000 C   0  0  0  0  0  0  0  0  0  0  0  0
    0.7145   -0.4125    0.0000 C   0  0  0  0  0  0  0  0  0  0  0  0
    0.7145    1.2375    0.0000 C   0  0  0  0  0  0  0  0  0  0  0  0
    0.0000    0.8250    0.0000 C   0  0  0  0  0  0  0  0  0  0  0  0
    0.7145   -1.2375    0.0000 O   0  0  0  0  0  0  0  0  0  0  0  0
    0.7145    2.0625    0.0000 O   0  0  0  0  0  0  0  0  0  0  0  0
   -1.4289    1.6500    0.0000 O   0  0  0  0  0  0  0  0  0  0  0  0
   -0.3020    1.9520    0.0000 O   0  0  0  0  0  0  0  0  0  0  0  0
   -1.1270    0.5230    0.0000 O   0  0  0  0  0  0  0  0  0  0  0  0
   -0.7145    1.2375    0.0000 S   0  0  0  0  0  0  0  0  0  0  0  0
  2  1  2  0  0  0  0
  4  1  1  0  0  0  0
  4  3  2  0  0  0  0
  5  2  1  0  0  0  0
  6  3  1  0  0  0  0
  6  5  2  0  0  0  0
  7  4  1  0  0  0  0
  8  5  1  0  0  0  0
 12  6  1  0  0  0  0
 12  9  1  0  0  0  0
 12 10  2  0  0  0  0
 12 11  2  0  0  0  0
M  END
> <DATABASE_ID>
DB13529

> <DATABASE_NAME>
drugbank

> <SMILES>
OC1=CC(=C(O)C=C1)S(O)(=O)=O

> <INCHI_IDENTIFIER>
InChI=1S/C6H6O5S/c7-4-1-2-5(8)6(3-4)12(9,10)11/h1-3,7-8H,(H,9,10,11)

> <INCHI_KEY>
IKQCSJBQLWJEPU-UHFFFAOYSA-N

> <FORMULA>
C6H6O5S

> <MOLECULAR_WEIGHT>
190.174

> <EXACT_MASS>
189.993593992

> <JCHEM_ACCEPTOR_COUNT>
5

> <JCHEM_ATOM_COUNT>
18

> <JCHEM_AVERAGE_NEUTRAL_MICROSPECIES_CHARGE>
-1.0028650021279957

> <JCHEM_AVERAGE_POLARIZABILITY>
15.980552204019384

> <JCHEM_BIOAVAILABILITY>
1

> <JCHEM_DONOR_COUNT>
3

> <JCHEM_FORMAL_CHARGE>
0

> <JCHEM_GHOSE_FILTER>
0

> <JCHEM_IUPAC>
2,5-dihydroxybenzene-1-sulfonic acid

> <ALOGPS_LOGP>
-0.90

> <JCHEM_LOGP>
1.197021889333333

> <ALOGPS_LOGS>
-1.04

> <JCHEM_MDDR_LIKE_RULE>
0

> <JCHEM_NEUTRAL_CHARGE>
-1

> <JCHEM_NUMBER_OF_RINGS>
1

> <JCHEM_PHYSIOLOGICAL_CHARGE>
-1

> <JCHEM_PKA>
9.54169544920961

> <JCHEM_PKA_STRONGEST_ACIDIC>
-2.776088979723825

> <JCHEM_PKA_STRONGEST_BASIC>
-5.963743809778398

> <JCHEM_POLAR_SURFACE_AREA>
94.82999999999998

> <JCHEM_REFRACTIVITY>
40.6423

> <JCHEM_ROTATABLE_BOND_COUNT>
1

> <JCHEM_RULE_OF_FIVE>
1

> <ALOGPS_SOLUBILITY>
1.74e+01 g/l

> <JCHEM_TRADITIONAL_IUPAC>
tetrahydrofolic acid

> <JCHEM_VEBER_RULE>
0

> <DRUGBANK_ID>
DB13529

> <DRUG_GROUPS>
experimental; investigational

> <GENERIC_NAME>
Dobesilic acid

> <SALTS>
Calcium dobesilate; Calcium dobesilate monohydrate

$$$$
