
  Mrv0541 05041404252D          

 64 67  0  0  1  0            999 V2000
   -2.1434   -1.2375    0.0000 C   0  0  0  0  0  0  0  0  0  0  0  0
   -2.8579   -1.6500    0.0000 C   0  0  0  0  0  0  0  0  0  0  0  0
   -3.5724   -0.4125    0.0000 C   0  0  0  0  0  0  0  0  0  0  0  0
   -0.7145    1.2375    0.0000 C   0  0  0  0  0  0  0  0  0  0  0  0
   -0.7145   -0.4125    0.0000 C   0  0  0  0  0  0  0  0  0  0  0  0
   -1.4289   -1.6500    0.0000 C   0  0  2  0  0  0  0  0  0  0  0  0
   -3.5724   -1.2375    0.0000 C   0  0  2  0  0  0  0  0  0  0  0  0
   -2.8579   -2.4750    0.0000 C   0  0  1  0  0  0  0  0  0  0  0  0
   -0.7145    2.0625    0.0000 C   0  0  2  0  0  0  0  0  0  0  0  0
    0.0000   -0.0000    0.0000 C   0  0  2  0  0  0  0  0  0  0  0  0
   -1.4289   -2.4750    0.0000 C   0  0  2  0  0  0  0  0  0  0  0  0
   -4.2868   -1.6500    0.0000 C   0  0  2  0  0  0  0  0  0  0  0  0
   -3.5724   -2.8875    0.0000 C   0  0  1  0  0  0  0  0  0  0  0  0
   -0.7145   -2.8875    0.0000 C   0  0  1  0  0  0  0  0  0  0  0  0
   -4.2868   -2.4750    0.0000 C   0  0  1  0  0  0  0  0  0  0  0  0
    0.0000    3.3000    0.0000 C   0  0  2  0  0  0  0  0  0  0  0  0
    1.4289   -0.0000    0.0000 C   0  0  2  0  0  0  0  0  0  0  0  0
   -0.7145    3.7125    0.0000 C   0  0  2  0  0  0  0  0  0  0  0  0
    0.0000   -2.4750    0.0000 C   0  0  2  0  0  0  0  0  0  0  0  0
    1.4289    0.8250    0.0000 C   0  0  2  0  0  0  0  0  0  0  0  0
    0.0000    2.4750    0.0000 C   0  0  2  0  0  0  0  0  0  0  0  0
    0.7145   -0.4125    0.0000 C   0  0  2  0  0  0  0  0  0  0  0  0
   -1.4289    3.3000    0.0000 C   0  0  1  0  0  0  0  0  0  0  0  0
    0.0000   -1.6500    0.0000 C   0  0  2  0  0  0  0  0  0  0  0  0
    0.7145    1.2375    0.0000 C   0  0  2  0  0  0  0  0  0  0  0  0
   -2.1434   -2.8875    0.0000 N   0  0  0  0  0  0  0  0  0  0  0  0
   -4.2868    0.0000    0.0000 O   0  0  0  0  0  0  0  0  0  0  0  0
   -1.4289    0.8250    0.0000 O   0  0  0  0  0  0  0  0  0  0  0  0
   -1.4289   -0.0000    0.0000 O   0  0  0  0  0  0  0  0  0  0  0  0
   -5.0013   -1.2375    0.0000 O   0  0  0  0  0  0  0  0  0  0  0  0
   -3.5724   -3.7125    0.0000 O   0  0  0  0  0  0  0  0  0  0  0  0
   -0.7145   -3.7125    0.0000 O   0  0  0  0  0  0  0  0  0  0  0  0
   -5.0013   -2.8875    0.0000 O   0  0  0  0  0  0  0  0  0  0  0  0
    0.7145    3.7125    0.0000 O   0  0  0  0  0  0  0  0  0  0  0  0
    2.1434   -0.4125    0.0000 O   0  0  0  0  0  0  0  0  0  0  0  0
   -0.7145    4.5375    0.0000 O   0  0  0  0  0  0  0  0  0  0  0  0
    0.7145   -2.8875    0.0000 O   0  0  0  0  0  0  0  0  0  0  0  0
    2.1434    1.2375    0.0000 O   0  0  0  0  0  0  0  0  0  0  0  0
   -2.1434    3.7125    0.0000 O   0  0  0  0  0  0  0  0  0  0  0  0
   -0.7145   -1.2375    0.0000 O   0  0  0  0  0  0  0  0  0  0  0  0
   -1.4289    2.4750    0.0000 O   0  0  0  0  0  0  0  0  0  0  0  0
    0.0000    0.8250    0.0000 O   0  0  0  0  0  0  0  0  0  0  0  0
    0.7145   -1.2375    0.0000 O   0  0  0  0  0  0  0  0  0  0  0  0
    0.7145    2.0625    0.0000 O   0  0  0  0  0  0  0  0  0  0  0  0
   -2.1434   -2.0625    0.0000 H   0  0  0  0  0  0  0  0  0  0  0  0
   -2.8579   -0.8250    0.0000 H   0  0  0  0  0  0  0  0  0  0  0  0
   -2.3276   -1.8430    0.0000 H   0  0  0  0  0  0  0  0  0  0  0  0
    0.0980    1.9192    0.0000 H   0  0  0  0  0  0  0  0  0  0  0  0
    0.2822   -0.7752    0.0000 H   0  0  0  0  0  0  0  0  0  0  0  0
   -1.9592   -1.8430    0.0000 H   0  0  0  0  0  0  0  0  0  0  0  0
   -4.2868   -0.8250    0.0000 H   0  0  0  0  0  0  0  0  0  0  0  0
   -2.8579   -3.3000    0.0000 H   0  0  0  0  0  0  0  0  0  0  0  0
   -1.4289   -3.3000    0.0000 H   0  0  0  0  0  0  0  0  0  0  0  0
   -5.0013   -2.0625    0.0000 H   0  0  0  0  0  0  0  0  0  0  0  0
   -0.2822    4.0752    0.0000 H   0  0  0  0  0  0  0  0  0  0  0  0
    1.9592    0.6320    0.0000 H   0  0  0  0  0  0  0  0  0  0  0  0
   -0.1842    4.3445    0.0000 H   0  0  0  0  0  0  0  0  0  0  0  0
    0.0000   -3.3000    0.0000 H   0  0  0  0  0  0  0  0  0  0  0  0
    2.2414    0.6817    0.0000 H   0  0  0  0  0  0  0  0  0  0  0  0
    0.2822    1.6998    0.0000 H   0  0  0  0  0  0  0  0  0  0  0  0
    0.1842   -1.0445    0.0000 H   0  0  0  0  0  0  0  0  0  0  0  0
   -1.4289    4.1250    0.0000 H   0  0  0  0  0  0  0  0  0  0  0  0
    0.7145   -2.0625    0.0000 H   0  0  0  0  0  0  0  0  0  0  0  0
    1.4289    1.6500    0.0000 H   0  0  0  0  0  0  0  0  0  0  0  0
  6  1  1  1  0  0  0
  7  2  1  0  0  0  0
  7  3  1  1  0  0  0
  8  2  1  0  0  0  0
  9  4  1  1  0  0  0
 10  5  1  1  0  0  0
 11  6  1  0  0  0  0
 12  7  1  0  0  0  0
 13  8  1  0  0  0  0
 14 11  1  0  0  0  0
 15 12  1  0  0  0  0
 15 13  1  0  0  0  0
 18 16  1  0  0  0  0
 19 14  1  0  0  0  0
 20 17  1  0  0  0  0
 21  9  1  0  0  0  0
 21 16  1  0  0  0  0
 22 10  1  0  0  0  0
 22 17  1  0  0  0  0
 23 18  1  0  0  0  0
 24 19  1  0  0  0  0
 25 20  1  0  0  0  0
  8 26  1  6  0  0  0
 11 26  1  6  0  0  0
 27  3  1  0  0  0  0
 28  4  1  0  0  0  0
 29  5  1  0  0  0  0
 12 30  1  6  0  0  0
 13 31  1  6  0  0  0
 14 32  1  1  0  0  0
 15 33  1  1  0  0  0
 16 34  1  1  0  0  0
 17 35  1  1  0  0  0
 18 36  1  6  0  0  0
 19 37  1  6  0  0  0
 20 38  1  6  0  0  0
 23 39  1  6  0  0  0
 40  6  1  0  0  0  0
 40 24  1  0  0  0  0
 41  9  1  0  0  0  0
 41 23  1  0  0  0  0
 42 10  1  0  0  0  0
 42 25  1  0  0  0  0
 22 43  1  6  0  0  0
 24 43  1  6  0  0  0
 21 44  1  6  0  0  0
 25 44  1  6  0  0  0
  6 45  1  6  0  0  0
  7 46  1  6  0  0  0
  8 47  1  1  0  0  0
  9 48  1  6  0  0  0
 10 49  1  6  0  0  0
 11 50  1  1  0  0  0
 12 51  1  1  0  0  0
 13 52  1  1  0  0  0
 14 53  1  6  0  0  0
 15 54  1  6  0  0  0
 16 55  1  6  0  0  0
 17 56  1  6  0  0  0
 18 57  1  1  0  0  0
 19 58  1  1  0  0  0
 20 59  1  1  0  0  0
 21 60  1  1  0  0  0
 22 61  1  1  0  0  0
 23 62  1  1  0  0  0
 24 63  1  1  0  0  0
 25 64  1  1  0  0  0
M  END
> <DATABASE_ID>
DB04226

> <DATABASE_NAME>
drugbank

> <SMILES>
[H][C@]1(CO)C[C@]([H])(N[C@]2([H])[C@@]([H])(C)O[C@]([H])(O[C@@]3([H])[C@]([H])(O)[C@@]([H])(O)[C@@]([H])(O[C@@]4([H])[C@]([H])(O)[C@@]([H])(O)[C@@]([H])(O)O[C@]4([H])CO)O[C@]3([H])CO)[C@]([H])(O)[C@@]2([H])O)[C@]([H])(O)[C@@]([H])(O)[C@]1([H])O

> <INCHI_IDENTIFIER>
InChI=1S/C25H45NO18/c1-6-11(26-8-2-7(3-27)12(30)15(33)13(8)31)14(32)19(37)24(40-6)43-22-10(5-29)42-25(20(38)17(22)35)44-21-9(4-28)41-23(39)18(36)16(21)34/h6-39H,2-5H2,1H3/t6-,7-,8+,9-,10-,11-,12-,13+,14+,15+,16-,17-,18-,19-,20-,21-,22-,23+,24-,25-/m1/s1

> <INCHI_KEY>
CUAQESWNTOXZJZ-RTNAABQMSA-N

> <FORMULA>
C25H45NO18

> <MOLECULAR_WEIGHT>
647.6207

> <EXACT_MASS>
647.263663641

> <JCHEM_ACCEPTOR_COUNT>
19

> <JCHEM_ATOM_COUNT>
89

> <JCHEM_AVERAGE_NEUTRAL_MICROSPECIES_CHARGE>
0.8833791538228537

> <JCHEM_AVERAGE_POLARIZABILITY>
62.6767011924684

> <JCHEM_BIOAVAILABILITY>
0

> <JCHEM_DONOR_COUNT>
14

> <JCHEM_FORMAL_CHARGE>
0

> <JCHEM_GHOSE_FILTER>
0

> <JCHEM_IUPAC>
(2S,3R,4R,5S,6R)-5-{[(2R,3R,4R,5S,6R)-5-{[(2R,3R,4S,5S,6R)-3,4-dihydroxy-6-methyl-5-{[(1S,2S,3S,4R,5R)-2,3,4-trihydroxy-5-(hydroxymethyl)cyclohexyl]amino}oxan-2-yl]oxy}-3,4-dihydroxy-6-(hydroxymethyl)oxan-2-yl]oxy}-6-(hydroxymethyl)oxane-2,3,4-triol

> <ALOGPS_LOGP>
-2.83

> <JCHEM_LOGP>
-7.5571912983333345

> <ALOGPS_LOGS>
-0.54

> <JCHEM_MDDR_LIKE_RULE>
1

> <JCHEM_NEUTRAL_CHARGE>
1

> <JCHEM_NUMBER_OF_RINGS>
4

> <JCHEM_PHYSIOLOGICAL_CHARGE>
1

> <JCHEM_PKA>
12.010323275550904

> <JCHEM_PKA_STRONGEST_ACIDIC>
11.226601914276161

> <JCHEM_PKA_STRONGEST_BASIC>
7.879745232799299

> <JCHEM_POLAR_SURFACE_AREA>
321.17

> <JCHEM_REFRACTIVITY>
137.03859999999995

> <JCHEM_ROTATABLE_BOND_COUNT>
9

> <JCHEM_RULE_OF_FIVE>
0

> <ALOGPS_SOLUBILITY>
1.87e+02 g/l

> <JCHEM_TRADITIONAL_IUPAC>
biotin

> <JCHEM_VEBER_RULE>
0

> <DRUGBANK_ID>
DB04226

> <SECONDARY_ACCESSION_NUMBERS>
EXPT01543

> <DRUG_GROUPS>
experimental

> <GENERIC_NAME>
Dihydro-Acarbose

$$$$
