
  Mrv0541 02231217332D          

  4  3  0  0  0  0            999 V2000
    1.2375    0.7145    0.0000 N   0  0  0  0  0  0  0  0  0  0  0  0
    0.8250    0.0000    0.0000 C   0  0  0  0  0  0  0  0  0  0  0  0
    1.2375   -0.7145    0.0000 O   0  0  0  0  0  0  0  0  0  0  0  0
    0.0000    0.0000    0.0000 O   0  0  0  0  0  0  0  0  0  0  0  0
  1  2  1  0  0  0  0
  2  3  1  0  0  0  0
  2  4  2  0  0  0  0
M  END
> <DATABASE_ID>
DB04261

> <DATABASE_NAME>
drugbank

> <SMILES>
NC(O)=O

> <INCHI_IDENTIFIER>
InChI=1S/CH3NO2/c2-1(3)4/h2H2,(H,3,4)

> <INCHI_KEY>
KXDHJXZQYSOELW-UHFFFAOYSA-N

> <FORMULA>
CH3NO2

> <MOLECULAR_WEIGHT>
61.04

> <EXACT_MASS>
61.016378345

> <JCHEM_ACCEPTOR_COUNT>
2

> <JCHEM_ATOM_COUNT>
7

> <JCHEM_AVERAGE_NEUTRAL_MICROSPECIES_CHARGE>
-0.9991701129071553

> <JCHEM_AVERAGE_POLARIZABILITY>
4.678537514102712

> <JCHEM_BIOAVAILABILITY>
1

> <JCHEM_DONOR_COUNT>
2

> <JCHEM_FORMAL_CHARGE>
0

> <JCHEM_GHOSE_FILTER>
0

> <JCHEM_IUPAC>
carbamic acid

> <ALOGPS_LOGP>
-1.10

> <JCHEM_LOGP>
-0.5568912479999999

> <ALOGPS_LOGS>
0.79

> <JCHEM_MDDR_LIKE_RULE>
0

> <JCHEM_NEUTRAL_CHARGE>
-1

> <JCHEM_NUMBER_OF_RINGS>
0

> <JCHEM_PHYSIOLOGICAL_CHARGE>
-1

> <JCHEM_PKA_STRONGEST_ACIDIC>
3.9193795751141347

> <JCHEM_POLAR_SURFACE_AREA>
63.32

> <JCHEM_REFRACTIVITY>
11.3204

> <JCHEM_ROTATABLE_BOND_COUNT>
0

> <JCHEM_RULE_OF_FIVE>
1

> <ALOGPS_SOLUBILITY>
3.79e+02 g/l

> <JCHEM_TRADITIONAL_IUPAC>
tetrahydrofolic acid

> <JCHEM_VEBER_RULE>
0

> <DRUGBANK_ID>
DB04261

> <SECONDARY_ACCESSION_NUMBERS>
EXPT02453

> <DRUG_GROUPS>
experimental

> <GENERIC_NAME>
Carbamic Acid

$$$$
