
  Mrv0541 05041411472D          

 35 37  0  0  1  0            999 V2000
   -0.5683   -1.4940    0.0000 C   0  0  0  0  0  0  0  0  0  0  0  0
    3.3523    1.1104    0.0000 C   0  0  0  0  0  0  0  0  0  0  0  0
    0.6538    1.5229    0.0000 C   0  0  0  0  0  0  0  0  0  0  0  0
    0.0992   -1.0091    0.0000 C   0  0  2  0  0  0  0  0  0  0  0  0
    1.9233    1.9354    0.0000 C   0  0  0  0  0  0  0  0  0  0  0  0
    0.8838   -1.2640    0.0000 C   0  0  2  0  0  0  0  0  0  0  0  0
    1.3687   -0.5966    0.0000 C   0  0  2  0  0  0  0  0  0  0  0  0
    2.6378    2.3479    0.0000 C   0  0  0  0  0  0  0  0  0  0  0  0
    1.9233    1.1104    0.0000 C   0  0  0  0  0  0  0  0  0  0  0  0
    0.8838    0.0709    0.0000 C   0  0  2  0  0  0  0  0  0  0  0  0
    2.6378    3.1729    0.0000 N   0  0  0  0  0  0  0  0  0  0  0  0
    3.3523    1.9354    0.0000 N   0  0  0  0  0  0  0  0  0  0  0  0
    2.6378    0.6979    0.0000 N   0  0  0  0  0  0  0  0  0  0  0  0
    1.1387    2.1904    0.0000 N   0  0  0  0  0  0  0  0  0  0  0  0
    1.1387    0.8555    0.0000 N   0  0  0  0  0  0  0  0  0  0  0  0
    1.1387   -2.0486    0.0000 O   0  0  0  0  0  0  0  0  0  0  0  0
    2.1937   -0.5966    0.0000 O   0  0  0  0  0  0  0  0  0  0  0  0
   -5.4991   -2.4270    0.0000 O   0  0  0  0  0  0  0  0  0  0  0  0
   -5.3165   -1.2746    0.0000 O   0  0  0  0  0  0  0  0  0  0  0  0
   -4.3467   -2.6095    0.0000 O   0  0  0  0  0  0  0  0  0  0  0  0
   -3.0749   -1.0390    0.0000 O   0  0  0  0  0  0  0  0  0  0  0  0
   -3.7461   -2.5464    0.0000 O   0  0  0  0  0  0  0  0  0  0  0  0
   -1.5045   -2.3108    0.0000 O   0  0  0  0  0  0  0  0  0  0  0  0
   -1.3220   -1.1584    0.0000 O   0  0  0  0  0  0  0  0  0  0  0  0
    0.0992   -0.1841    0.0000 O   0  0  0  0  0  0  0  0  0  0  0  0
   -4.1642   -1.4572    0.0000 O   0  0  0  0  0  0  0  0  0  0  0  0
   -2.6568   -2.1283    0.0000 O   0  0  0  0  0  0  0  0  0  0  0  0
   -4.8316   -1.9421    0.0000 P   0  0  0  0  0  0  0  0  0  0  0  0
   -3.4105   -1.7927    0.0000 P   0  0  0  0  0  0  0  0  0  0  0  0
   -1.9894   -1.6433    0.0000 P   0  0  1  0  0  0  0  0  0  0  0  0
   -2.4743   -0.9759    0.0000 S   0  0  0  0  0  0  0  0  0  0  0  0
    0.4991   -1.7306    0.0000 H   0  0  0  0  0  0  0  0  0  0  0  0
    0.5351   -2.0117    0.0000 H   0  0  0  0  0  0  0  0  0  0  0  0
    1.7432   -1.3316    0.0000 H   0  0  0  0  0  0  0  0  0  0  0  0
    1.6986    0.1999    0.0000 H   0  0  0  0  0  0  0  0  0  0  0  0
  4  1  1  1  0  0  0
  6  4  1  0  0  0  0
  7  6  1  0  0  0  0
  8  5  2  0  0  0  0
  9  5  1  0  0  0  0
 10  7  1  0  0  0  0
 11  8  1  0  0  0  0
 12  2  2  0  0  0  0
 12  8  1  0  0  0  0
 13  2  1  0  0  0  0
 13  9  2  0  0  0  0
 14  3  2  0  0  0  0
 14  5  1  0  0  0  0
 15  3  1  0  0  0  0
 15  9  1  0  0  0  0
 10 15  1  1  0  0  0
  6 16  1  6  0  0  0
  7 17  1  6  0  0  0
 24  1  1  0  0  0  0
 25  4  1  0  0  0  0
 25 10  1  0  0  0  0
 28 18  1  0  0  0  0
 28 19  1  0  0  0  0
 28 20  2  0  0  0  0
 28 26  1  0  0  0  0
 29 21  1  0  0  0  0
 29 22  2  0  0  0  0
 29 26  1  0  0  0  0
 29 27  1  0  0  0  0
 30 23  1  1  0  0  0
 30 24  1  6  0  0  0
 30 27  1  0  0  0  0
 31 30  2  0  0  0  0
  4 32  1  6  0  0  0
  6 33  1  1  0  0  0
  7 34  1  1  0  0  0
 10 35  1  6  0  0  0
M  END
> <DATABASE_ID>
DB02355

> <DATABASE_NAME>
drugbank

> <SMILES>
[H][C@]1(CO[P@@](O)(=S)OP(O)(=O)OP(O)(O)=O)O[C@@]([H])(N2C=NC3=C(N)N=CN=C23)[C@]([H])(O)[C@]1([H])O

> <INCHI_IDENTIFIER>
InChI=1S/C10H16N5O12P3S/c11-8-5-9(13-2-12-8)15(3-14-5)10-7(17)6(16)4(25-10)1-24-30(23,31)27-29(21,22)26-28(18,19)20/h2-4,6-7,10,16-17H,1H2,(H,21,22)(H,23,31)(H2,11,12,13)(H2,18,19,20)/t4-,6-,7-,10-,30-/m1/s1

> <INCHI_KEY>
ROYJKVPBJVNHCQ-AJBXOXQOSA-N

> <FORMULA>
C10H16N5O12P3S

> <MOLECULAR_WEIGHT>
523.247

> <EXACT_MASS>
522.972901227

> <JCHEM_ACCEPTOR_COUNT>
13

> <JCHEM_ATOM_COUNT>
47

> <JCHEM_AVERAGE_NEUTRAL_MICROSPECIES_CHARGE>
-3.421347398653125

> <JCHEM_AVERAGE_POLARIZABILITY>
40.952553765537075

> <JCHEM_BIOAVAILABILITY>
0

> <JCHEM_DONOR_COUNT>
7

> <JCHEM_FORMAL_CHARGE>
0

> <JCHEM_GHOSE_FILTER>
0

> <JCHEM_IUPAC>
[({[(R)-{[(2R,3S,4R,5R)-5-(6-amino-9H-purin-9-yl)-3,4-dihydroxyoxolan-2-yl]methoxy}(hydroxy)sulfanylidene-lambda5-phosphanyl]oxy}(hydroxy)phosphoryl)oxy]phosphonic acid

> <ALOGPS_LOGP>
-0.36

> <JCHEM_LOGP>
-4.5131474927847375

> <ALOGPS_LOGS>
-2.41

> <JCHEM_MDDR_LIKE_RULE>
1

> <JCHEM_NEUTRAL_CHARGE>
-3

> <JCHEM_NUMBER_OF_RINGS>
3

> <JCHEM_PHYSIOLOGICAL_CHARGE>
-4

> <JCHEM_PKA>
1.0676380567780777

> <JCHEM_PKA_STRONGEST_ACIDIC>
0.9432224435416539

> <JCHEM_PKA_STRONGEST_BASIC>
4.924293597685889

> <JCHEM_POLAR_SURFACE_AREA>
262.05999999999995

> <JCHEM_REFRACTIVITY>
103.80519999999997

> <JCHEM_ROTATABLE_BOND_COUNT>
8

> <JCHEM_RULE_OF_FIVE>
0

> <ALOGPS_SOLUBILITY>
2.03e+00 g/l

> <JCHEM_TRADITIONAL_IUPAC>
tetrahydrofolic acid

> <JCHEM_VEBER_RULE>
0

> <DRUGBANK_ID>
DB02355

> <SECONDARY_ACCESSION_NUMBERS>
EXPT03009

> <DRUG_GROUPS>
experimental

> <GENERIC_NAME>
Adenosine-5'-Rp-Alpha-Thio-Triphosphate

$$$$
