
  Mrv0541 05031423272D          

 31 33  0  0  1  0            999 V2000
   -0.5683   -1.4940    0.0000 C   0  0  0  0  0  0  0  0  0  0  0  0
    3.3523    1.1104    0.0000 C   0  0  0  0  0  0  0  0  0  0  0  0
    0.6538    1.5229    0.0000 C   0  0  0  0  0  0  0  0  0  0  0  0
    0.0992   -1.0091    0.0000 C   0  0  2  0  0  0  0  0  0  0  0  0
    1.9233    1.9354    0.0000 C   0  0  0  0  0  0  0  0  0  0  0  0
    0.8838   -1.2640    0.0000 C   0  0  2  0  0  0  0  0  0  0  0  0
    1.3687   -0.5966    0.0000 C   0  0  2  0  0  0  0  0  0  0  0  0
    2.6378    2.3479    0.0000 C   0  0  0  0  0  0  0  0  0  0  0  0
    1.9233    1.1104    0.0000 C   0  0  0  0  0  0  0  0  0  0  0  0
    0.8838    0.0709    0.0000 C   0  0  2  0  0  0  0  0  0  0  0  0
    2.6378    3.1729    0.0000 N   0  0  0  0  0  0  0  0  0  0  0  0
    3.3523    1.9354    0.0000 N   0  0  0  0  0  0  0  0  0  0  0  0
    2.6378    0.6979    0.0000 N   0  0  0  0  0  0  0  0  0  0  0  0
    1.1387    2.1904    0.0000 N   0  0  0  0  0  0  0  0  0  0  0  0
    1.1387    0.8555    0.0000 N   0  0  0  0  0  0  0  0  0  0  0  0
    1.1387   -2.0486    0.0000 O   0  0  0  0  0  0  0  0  0  0  0  0
   -2.6568   -2.1283    0.0000 O   0  0  0  0  0  0  0  0  0  0  0  0
   -2.4743   -0.9759    0.0000 O   0  0  0  0  0  0  0  0  0  0  0  0
   -1.5045   -2.3108    0.0000 O   0  0  0  0  0  0  0  0  0  0  0  0
    1.8917   -1.7235    0.0000 O   0  0  0  0  0  0  0  0  0  0  0  0
    3.3207   -0.8985    0.0000 O   0  0  0  0  0  0  0  0  0  0  0  0
    3.0187   -2.0255    0.0000 O   0  0  0  0  0  0  0  0  0  0  0  0
   -1.3220   -1.1584    0.0000 O   0  0  0  0  0  0  0  0  0  0  0  0
    0.0992   -0.1841    0.0000 O   0  0  0  0  0  0  0  0  0  0  0  0
    2.1937   -0.5966    0.0000 O   0  0  0  0  0  0  0  0  0  0  0  0
   -1.9894   -1.6433    0.0000 P   0  0  0  0  0  0  0  0  0  0  0  0
    2.6062   -1.3110    0.0000 P   0  0  0  0  0  0  0  0  0  0  0  0
    0.4991   -1.7306    0.0000 H   0  0  0  0  0  0  0  0  0  0  0  0
    0.5351   -2.0117    0.0000 H   0  0  0  0  0  0  0  0  0  0  0  0
    1.7432   -1.3316    0.0000 H   0  0  0  0  0  0  0  0  0  0  0  0
    1.6986    0.1999    0.0000 H   0  0  0  0  0  0  0  0  0  0  0  0
  4  1  1  1  0  0  0
  6  4  1  0  0  0  0
  7  6  1  0  0  0  0
  8  5  2  0  0  0  0
  9  5  1  0  0  0  0
 10  7  1  0  0  0  0
 11  8  1  0  0  0  0
 12  2  2  0  0  0  0
 12  8  1  0  0  0  0
 13  2  1  0  0  0  0
 13  9  2  0  0  0  0
 14  3  2  0  0  0  0
 14  5  1  0  0  0  0
 15  3  1  0  0  0  0
 15  9  1  0  0  0  0
 10 15  1  1  0  0  0
  6 16  1  6  0  0  0
 23  1  1  0  0  0  0
 24  4  1  0  0  0  0
 24 10  1  0  0  0  0
  7 25  1  6  0  0  0
 26 17  1  0  0  0  0
 26 18  1  0  0  0  0
 26 19  2  0  0  0  0
 26 23  1  0  0  0  0
 27 20  1  0  0  0  0
 27 21  1  0  0  0  0
 27 22  2  0  0  0  0
 27 25  1  0  0  0  0
  4 28  1  6  0  0  0
  6 29  1  1  0  0  0
  7 30  1  1  0  0  0
 10 31  1  6  0  0  0
M  END
> <DATABASE_ID>
DB02098

> <DATABASE_NAME>
drugbank

> <SMILES>
[H][C@]1(COP(O)(O)=O)O[C@@]([H])(N2C=NC3=C(N)N=CN=C23)[C@]([H])(OP(O)(O)=O)[C@]1([H])O

> <INCHI_IDENTIFIER>
InChI=1S/C10H15N5O10P2/c11-8-5-9(13-2-12-8)15(3-14-5)10-7(25-27(20,21)22)6(16)4(24-10)1-23-26(17,18)19/h2-4,6-7,10,16H,1H2,(H2,11,12,13)(H2,17,18,19)(H2,20,21,22)/t4-,6-,7-,10-/m1/s1

> <INCHI_KEY>
AEOBEOJCBAYXBA-KQYNXXCUSA-N

> <FORMULA>
C10H15N5O10P2

> <MOLECULAR_WEIGHT>
427.2011

> <EXACT_MASS>
427.029414749

> <JCHEM_ACCEPTOR_COUNT>
12

> <JCHEM_ATOM_COUNT>
42

> <JCHEM_AVERAGE_NEUTRAL_MICROSPECIES_CHARGE>
-3.8926443544882425

> <JCHEM_AVERAGE_POLARIZABILITY>
33.915516970713554

> <JCHEM_BIOAVAILABILITY>
0

> <JCHEM_DONOR_COUNT>
6

> <JCHEM_FORMAL_CHARGE>
0

> <JCHEM_GHOSE_FILTER>
0

> <JCHEM_IUPAC>
{[(2R,3R,4R,5R)-5-(6-amino-9H-purin-9-yl)-3-hydroxy-4-(phosphonooxy)oxolan-2-yl]methoxy}phosphonic acid

> <ALOGPS_LOGP>
-1.62

> <JCHEM_LOGP>
-5.37322466163324

> <ALOGPS_LOGS>
-2.11

> <JCHEM_MDDR_LIKE_RULE>
1

> <JCHEM_NEUTRAL_CHARGE>
-4

> <JCHEM_NUMBER_OF_RINGS>
3

> <JCHEM_PHYSIOLOGICAL_CHARGE>
-4

> <JCHEM_PKA>
0.5817975309933493

> <JCHEM_PKA_STRONGEST_ACIDIC>
0.3539474548333457

> <JCHEM_PKA_STRONGEST_BASIC>
4.83945417124769

> <JCHEM_POLAR_SURFACE_AREA>
232.59999999999994

> <JCHEM_REFRACTIVITY>
84.94139999999999

> <JCHEM_ROTATABLE_BOND_COUNT>
6

> <JCHEM_RULE_OF_FIVE>
0

> <ALOGPS_SOLUBILITY>
3.29e+00 g/l

> <JCHEM_TRADITIONAL_IUPAC>
tetrahydrofolic acid

> <JCHEM_VEBER_RULE>
0

> <DRUGBANK_ID>
DB02098

> <SECONDARY_ACCESSION_NUMBERS>
EXPT00366

> <DRUG_GROUPS>
experimental

> <GENERIC_NAME>
Adenosine-2'-5'-Diphosphate

$$$$
