
  Mrv0541 02231215052D          

  3  2  0  0  0  0            999 V2000
    2.0930   -0.2063    0.0000 O   0  0  0  0  0  0  0  0  0  0  0  0
    2.8075    0.2063    0.0000 C   0  0  0  0  0  0  0  0  0  0  0  0
    3.5219   -0.2063    0.0000 C   0  0  0  0  0  0  0  0  0  0  0  0
  1  2  1  0  0  0  0
  2  3  1  0  0  0  0
M  END
> <DATABASE_ID>
DB00898

> <DATABASE_NAME>
drugbank

> <SMILES>
CCO

> <INCHI_IDENTIFIER>
InChI=1S/C2H6O/c1-2-3/h3H,2H2,1H3

> <INCHI_KEY>
LFQSCWFLJHTTHZ-UHFFFAOYSA-N

> <FORMULA>
C2H6O

> <MOLECULAR_WEIGHT>
46.0684

> <EXACT_MASS>
46.041864814

> <JCHEM_ACCEPTOR_COUNT>
1

> <JCHEM_ATOM_COUNT>
9

> <JCHEM_AVERAGE_NEUTRAL_MICROSPECIES_CHARGE>
3.6058714056519925e-10

> <JCHEM_AVERAGE_POLARIZABILITY>
5.303762677439426

> <JCHEM_BIOAVAILABILITY>
1

> <JCHEM_DONOR_COUNT>
1

> <JCHEM_FORMAL_CHARGE>
0

> <JCHEM_GHOSE_FILTER>
0

> <JCHEM_IUPAC>
ethanol

> <ALOGPS_LOGP>
-0.40

> <JCHEM_LOGP>
-0.1617691140000001

> <ALOGPS_LOGS>
1.10

> <JCHEM_MDDR_LIKE_RULE>
0

> <JCHEM_NEUTRAL_CHARGE>
0

> <JCHEM_NUMBER_OF_RINGS>
0

> <JCHEM_PHYSIOLOGICAL_CHARGE>
0

> <JCHEM_PKA_STRONGEST_ACIDIC>
16.47061524791562

> <JCHEM_PKA_STRONGEST_BASIC>
-2.155552890561707

> <JCHEM_POLAR_SURFACE_AREA>
20.23

> <JCHEM_REFRACTIVITY>
13.0099

> <JCHEM_ROTATABLE_BOND_COUNT>
0

> <JCHEM_RULE_OF_FIVE>
1

> <ALOGPS_SOLUBILITY>
5.79e+02 g/l

> <JCHEM_TRADITIONAL_IUPAC>
tetrahydrofolic acid

> <JCHEM_VEBER_RULE>
1

> <DRUGBANK_ID>
DB00898

> <SECONDARY_ACCESSION_NUMBERS>
APRD00738

> <DRUG_GROUPS>
approved

> <GENERIC_NAME>
Ethanol

> <SYNONYMS>
1-Hydroxyethane; Alcohol; Alcohol (ethyl); Alcohol anhydrous; Alcohol denatured; Alcohol etílico; Alcohol, denatured; Alcool éthylique; Alkohol; Äthanol; Äthylalkohol; Dehydrated ethanol; etanol; éthanol; Ethyl Alcohol; Grain alcohol; Hydroxyethane; Methylcarbinol; Spiritus vini

> <PRODUCTS>
(Biotemed) Instant Hand Sanitizer; (CPL) Hand Sanitiser; (ETHANOL62%) Dr keeps gel (ETHANOL); (ETHANOL70%) Dr keeps one gel (ETHANOL); (ETHANOL72%) Dr keeps 72 gel (ETHANOL); (ETHANOL72%) Dr keeps one gel (ETHANOL); (EZ-CARE) Hand Sanitizer; (Fruli) 75% Alcohol Disinfectant; (Fruli) Hand Antiseptic Rinse Free Gel; (Fruli) Quick-Dry Disposable Hand Sanitizer; (Qiqing) Chlorhexidine Gluconate Alcohol Disinfectant; 009931121(duns) Pocas International Corp Hand Sanitizer; 1.8oz Armstrong Hand Sanitizer with Aloe Vera and Vitamin E; 1.8oz Hand Sanitizer With Clip -assorted; 10 Person ANSI; 100 Canister Alcohol Wipes - Aloe Scent; 100 Canister Alcohol Wipes - Fresh Scent; 100% Pure Hand Sanitizer; 100% Pure Hand Sanitizer Hydrating; 100ml BERG and THYME Hand purifying; 100ml COCONUT Hand purifying; 100ml CUCUMBER Hand purifying; 100ml Gardenia Hand purifying; 100ml LAVENDER Hand purifying; 100ml LEMON Hand purifying; 100ml number 63 Hand purifying; 128oz 3785ml Hand Sani Hype-Labs; 128oz Hand Sanitizer Gel EverCare Labs; 128oz Hand Sanitizer Gel Lemongrass EverCare Labs; 128oz Hand Sanitizer Gel Peppermint EverCare Labs; 15pcs Antibactrial Wipes; 16.9OZ Hand Sanitizer; 16oz Hand Sanitizer Gel EverCare Labs; 16oz Hand Sanitizer Gel Lemongrass EverCare Labs; 16oz Hand Sanitizer Gel Peppermint EverCare Labs; 1902 Hand Sanitizer; 1904 Hand Sanitizer; 1SOURCE Advanced Hand Sanitizer; 1SOURCE Advanced Hand Sanitizer Liquid Foam; 1pcs Alcohol Cleaning Wet Wipes; 2 Clean Hand Sanitizer; 2 Pack Assured Instant Hand Sanitizer with moisturizers (Vitamin E and aloe); 2 Pack Assured Instant Hand Sanitizer with moisturizers (Vitamin E and aloe) lemon scented; 2-Pack Hand Sanitizer; 20 Pack Alcohol Hand Wipes - Aloe; 20 Pack Alcohol Hand Wipes - Fresh; 20 pack Alcohol Hand Wipes-Aloe; 20 pack Alcohol Hand Wipes-Fresh; 24k Sally Hershberger Instant Hand Sanitizer; 25 Person ANSI; 28 Mile Fools Gin Hand Sanitizer; 28 Mile Tough Town Hand Sanitizer; 29 ST. Honore Hand Sanitizer; 2Health 4ever Hand Sanitizer; 2XturalPlus Hand Clean Sanitizer gel; 2oz Alcohol; 2oz. Gel Hand Sanitizer Squeeze - Aloe; 2pack 2oz Hand Sanitizer- Classic; 2pk 2oz Hand Sanitiizer-aloe Vera; 2pk Traveler Hand Sanitizer Aloe Vera; 2pk Traveler Hand Sanitizer Classic; 2pk Traveler Hand Sanitizer Lavender; 3 Hand Sanitizers; 3 Hand Sanitizers Kit; 3 Pack Assured Instant Hand Sanitizer with moisturizers (Vitamin E and aloe) lemon scented; 3 Pack Assured Instant Hand Sanitizer with moisturizers (Vitamin E and moisturizers) lavender scented; 3 Pack Assured Instant Hand Sanitizer with moisturizers (aloe vera and moisturizers); 3 Pack Family Dollar instant Hand Sanitizers; 3 Pack Hand Sanitizer; 3 Pack Instant Hand Sanitizer with moisturizers; 3 Pack Instant Hand Sanitizer with moisturizers Aloe Scented; 3 Pack Instant Hand Sanitizer with moisturizers Lavender Scented; 315 Hand Sanitizer; 32oz Hand Sanitizer Gel EverCare Labs; 32oz Hand Sanitizer Gel Lemongrass EverCare Labs; 32oz Hand Sanitizer Gel Peppermint EverCare Labs; 33.8oz SaniPure Hand Sanitizer with Aloe Vera and Vitamin E; 390 Fit for Health 70 Alcohol Topical Solution; 3M Avagard; 3M Avagard D; 3M Avagard Foam; 3M Avagard Foaming Instant Hand Antiseptic; 3M Avagard Instant Hand Antiseptic with Moisturizers; 3M Hand Sanitizer; 3P Instant Hand Sanitizer; 3PK Hand Sanitizer; 3e Clean Hand Sanitizer; 4 Hands Sanitizer; 4 UKLEAN Hand Sanitizer; 4 Your Safety Hand Sanitizer; 4 oz. KHall Hand Sanitizer; 4 your safety Hand sanitizer; 4006 First Aid Kit; 4007 First Aid Kit; 4013 First Aid Kit; 4017 First Aid Kit; 4020 First Aid Kit; 4022 First Aid Kit; 4047 Fist Aid Kit; 4048 Fist Aid Kit; 4051 First Aid Kit; 4052 First Aid Kit; 4056 First Aid Kit; 4058 First Aid Kit; 4059 First Aid Kit; 4060 First Aid Kit; 4061 First Aid Kit; 4062 First Aid Kit; 4063 First Aid Kit; 4068 First Aid Kit; 4069 First Aid Kit; 4074 First Aid Kit; 4076 First Aid Kit; 4081 First Aid Kit; 4082 First Aid Kit; 4083 First Aid Kit; 4084 First Aid Kit; 4085 First Aid Kit; 4086 First Aid Kit; 4087 First Aid Kit; 4088 First Aid Kit; 4089 First Aid Kit; 4090 First Aid Kit; 4097 First Aid Kit; 4098 First Aid Kit; 4099 First Aid Kit; 4100 First Aid Kit; 4101 First Aid Kit; 4102 First Aid Kit; 4103 First Aid Kit; 4104 First Aid Kit; 4105 First Aid Kit; 4106 First Aid Kit; 4107 First Aid Kit; 4108 First Aid Kit; 4109 First Aid Kit; 4110 First Aid Kit; 4111 First Aid Kit; 4112 First Aid Kit; 4113 First Aid Kit; 4114 First Aid Kit; 4115 First Aid Kit; 4116 First Aid Kit; 4117 First Aid Kit; 4118 First Aid Kit; 4119 First Aid Kit; 4120 First Aid Kit; 4129 First Aid Kit; 4131 First Aid Kit; 4132 First Aid Kit; 4133 First Aid Kit; 4138 First Aid Kit; 4140 First Aid Kit; 4141 First Aid Kit; 4144 First Aid Kit; 4146 First Aid Kit; 4147 First Aid Kit; 4148 First Aid Kit; 4149 First Aid Kit; 4151 First Aid Kit; 4152 First Aid Kit; 4157 First Aid Kit; 4162 First Aid Kit; 4165 First Aid Kit; 4166 First Aid Kit; 4167 First Aid Kit; 4184 First Aid Kit; 4185 First Aid Kit; 4186 First Aid Kit; 4187 First Aid Kit; 4190 First Aid Kit; 4191 First Aid Kit; 4195 First Aid Kit; 4197 First Aid Kit; 4198 First Aid Kit; 4199 First Aid Kit; 4200 First Aid Kit; 4201 First Aid Kit; 4202 First Aid Kit; 4206 First Aid Kit; 4207 First Aid Kit; 4218 First Aid Kit; 4219 First Aid Kit; 4220 First Aid Kit; 4225 First Aid Kit; 4227 First Aid Kit; 4228 First Aid Kit; 4231First Aid Kit; 4235 First Aid Kit; 4238 First Aid Kit; 4239 First Aid Kit; 4248 First Aid Kit; 4251 First Aid Kit; 4252 First Aid Kit; 4253 First Aid Kit; 4254 First Aid Kit; 4255 First Aid Kit; 4259 First Aid Kit; 4260 First Aid Kit; 4261 First Aid Kit; 4264 First Aid Kit; 4265 First Aid Kit; 4266 First Aid Kit; 4267 First Aid Kit; 4268 First Aid Kit; 4269 First Aid Kit; 4270 First Aid Kit; 4271 First Aid Kit; 4272 First Aid Kit; 4273 First Aid Kit; 4278 First Aid Kit; 4284 First Aid Kit; 4285 First Aid Kit; 4286 First Aid Kit; 4288 First Aid Kit; 4289 First Aid Kit; 4293 First Aid Kit; 4295 First Aid Kit; 4298 First Aid Kit; 4299 First Aid Kit; 4300 First Aid Kit; 4302 First Aid Kit; 4303 First Aid Kit; 4307 First Aid Kit; 4308 First Aid Kit; 4310 First Aid Kit; 4311 First Aid Kit; 4312 First Aid Kit; 4314 First Aid Kit; 4315 First Aid Kit; 4318 First Aid Kit; 4319 First Aid Kit; 4323 First Aid Kit; 4326 First Aid Kit; 4327 First Aid Kit; 4332 First Aid Kit; 4333 First Aid Kit; 4334 First Aid Kit; 4335 First Aid Kit; 4336 First Aid Kit; 4337 First Aid Kit; 4340 First Aid Kit; 4342 First Aid Kit; 4347 First Aid Kit; 4348 First Aid Kit; 4359 First Aid Kit; 4360 First Aid Kit; 4362 First Aid Kit; 4363 First Aid Kit; 4364 First Aid Kit; 4365 First Aid Kit; 4369 First Aid Kit; 4370 First Aid Kit; 4376 First Aid Kit; 4378 First Aid Kit; 4379 First Aid Kit; 4380 First Aid Kit; 4381 First Aid Kit; 4382 First Aid Kit; 4383 First Aid Kit; 4384 First Aid Kit; 4385 First Aid Kit; 4386 First Aid Kit; 4387 First Aid Kit; 4388 First Aid Kit; 4390 First Aid Kit; 4391 First Aid Kit; 4392 First Aid Kit; 4393 First Aid Kit; 4397 First Aid Kit; 4398 First Aid Kit; 4399 First Aid Kit; 4400 First Aid Kit; 4401 First Aid Kit; 4402 First Aid Kit; 4K Handfull; 4oz Alcohol; 5 in 1 Clipper Spry; 50 Pack Alcohol Hand Wipes-Aloe Scent; 50 Pack Alcohol Hand Wipes-Fresh Scent; 50 Person ANSI; 503bou Rx Fresh Pure Hand; 503bou Rx Pure and Safe Sanitizer; 50ct Alcohol Wipes; 50ml Lychee Rose Hand Sanitizer; 5253 Hand Sanitizer; 5257 Hand Sanitizer; 5259 Hand Sanitizer; 5406 Hand Sanitizer; 5413 Hand Sanitizer; 59ml Citrus Delight Hand Sanitizer; 59ml Lychee Rose Hand Sanitizer; 59ml Summer Verbena Hand Sanitizer; 5Seconds Advanced Hand Sanitizer; 5Seconds Advanced Hand Sanitizer Liquid Foam; 5ml Hand Sanitizer; 6 Plants Hand Sweeper; 62% Alcohol Hand Sanitizer; 62% Alcohol Instant Hand Sanitizer; 62% Ethyl Alcohol Antiseptic Nasal; 62% Gel Hand Sanitizer; 62% Unscented; 62% v/v Unscented; 64oz Hand Sani Hype-Labs; 64oz Hand Sanitizer Gel EverCare Labs; 64oz Hand Sanitizer Gel Lemongrass EverCare Labs; 64oz Hand Sanitizer Gel Peppermint EverCare Labs; 65 Ethyl Alcohol Antiseptic Hand Sanitizer Wipes; 65% Alcohol Hand Sanitizer (no Water); 7 Eleven Hand Sanitizer; 7 Eleven Hand Sanitizer Mountain Spring Scent; 7 Select Instant Hand Sanitizer with Vitamin E and Moisturizers; 7-11 Instant Hand Sanitizer With Aloe And Vitamin E; 7.6OZ Hand Sanitizer; 70 Percent Alcohol Wipes; 70% Advanced Alcohol Gel Sanitizer IV; 70% Alcohol Hand Revive Sanitizer Gel; 70% Alcohol Hand Sanitizer; 70% Alcohol Hand Sanitizer (no Water); 70% Alcohol Hand Sanitzer; 70% Alcohol kill the most germs; 70% Alcohol/Alcool Hand Sanitizer; 70% Bioken Hand Sanitizer with aloe; 70% Disposable Disinfectant Gel; 70% Ethanol 16oz.; 70% Gel Hand Sanitizer; 70% Pana Instant Hand Sanitizer; 70% SafetyPlus Hand Sanitizer 32oz; 70% alcohol Hand Sanitizer Gel; 75 Alcohol Antiseptic Wipes; 75 Alcohol Hand Sanitizer; 75 Alcohol Hand Sanitizing Wipes; 75 Alcohol Wipes; 75% Alchohol Instant Hand Sanitizer; 75% Alcohol; 75% Alcohol Antibacterial; 75% Alcohol Antiseptic Wipe; 75% Alcohol Antiseptic Wipes; 75% Alcohol Disinfectant; 75% Alcohol Disinfectant Cleaning Wipes; 75% Alcohol Disnfectant; 75% Alcohol Disposable Disinfectant Gel; 75% Alcohol Free Hand Washing Gel; 75% Alcohol HAND SANITIZER WIPES; 75% Alcohol Hand Sanitizer; 75% Alcohol Hand Sanitizer Gel; 75% Alcohol Hand Sanitizer With Aloe Vera; 75% Alcohol Hand Sanitizergel; 75% Alcohol Hand Sanitizing Wipes; 75% Alcohol Hand Sanitzer; 75% Alcohol Hand Wipes; 75% Alcohol Hand sanitizer; 75% Alcohol Instant Hand Sanitizer; 75% Alcohol Instant Hand Sanitizer Gel; 75% Alcohol Instant hand sanitizer gel; 75% Alcohol Rinse-free antibacterial gel; 75% Alcohol Sanitary Wipes; 75% Alcohol Sanitizer; 75% Alcohol Washing-free Hand Sanitizer Gel; 75% Alcohol Wet Wipes; 75% Alcohol Wipes; 75% Alcohol wipes; 75% Disinfectant Alcohol; 75% Ethanol Disinfectant (Washing-free); 75% Ethanol Instant Hand Sanitizer Gel; 75% Ethyl Alcohol Disinfecting Wipes; 75% Ethyl Alcohol Gel Sanitizer; 75% Ethyl Alcohol Hand Sanitizer; 75% Hand Sanitizer; 75% Medical Alcohol; 75% Medical Alcohol Disinfectant; 75% alcohol wipes Step Solutions LLC Duns105607561; 75% alcohol wipes Step soulutions LLC Duns105607561; 75%Alcohol Disinfectant Wipes; 75%Alcohol Hygiene Wipe; 75%Alcohol disinfectan; 75%Alcohol disinfectant; 75%Alcohol wipes; 75%alcohol Disinfectant; 75%alcohol Wipes; 77 Disinfection Ethanol Liqui d; 7T Alcohol Hand Sanitizer; 7T Foaming Alcohol Hand Sanitizer; 8 oz Hand Sani Hype-Labs; 8 oz Hand Sanitizer Gel EverCare Labs; 8.45OZ Hand Sanitizer; 8.45oz Gel Hand Sanitizer Pump - Aloe Scent; 80 Ethyl Alcohol Antiseptic Hand Sanitizer; 80% Alcohol Gel; 80% Alcohol Hand Sanitizer; 80% Alcohol Liquid Hand Sanitizer; 80% Ethyl Alcohol Gel Sanitizer; 80% Gel Hand Sanitizer; 80% Hand Sanitizer; 80% with Denaturant and Fragrance; 8oz Antibacterial Hand Sanitizer; 8oz Hand Sanitizer Gel; 8oz Hand Sanitizer Gel Lemongrass EverCare Labs; 8oz Hand Sanitizer Gel Peppermint EverCare Labs; 8oz Hand Sanitizer W/pump Aloe Vera; 8oz Hand Sanitizer With Pump; 8oz Instant Hand Sanitizer Lavender; 90013 Hand Sanitizer; 90018 Sanitizer Pen; 90041 Sanitizer Stylus Pen; 9054 Hand Sanitizer; 95% Ethanol (190 Proof); 95% Medical Alcohol; 999 Hand Sanitizer; A La Maison Hand Sanitizer; A La Maison Hand Sanitizer - French Lavender; A La Maison Hand Sanitizer - Lemon Verbena; A Little Something Eucalyptus Mist Hand Sanitier; A Little Something Prosecco Bubbles Hand Sanitizer; A Little Walk Alcohol Sentinel; A1 American Defender Collection; A24 Antiseptic Hand Sanitizer gel; A2A Elite 8oz Gel Hand Sanitizer; A2A Hand Sanitizer; A2DC Hand Sanitizer; A2a Hand Sanitizer; ABC Supplies Hand Sanitizer; ABETTERDAY PERFECT CLEAN HAND SANITIZER Gel; ABETTERDAY PERFECT CLEAN HANDSANITIZER Gel; ACME FIRST AID Contains 404 PIECES; ACORE Bubble Gum Hand Sanitizer Boys; ACORE Bubble Gum Hand Sanitizer Girls; ACORE Cherry Hand Sanitizer Boys; ACORE Lavender Hand Sanitizer Girls; ACORE Lemonade Hand Sanitizer Boys; ACORE Peppermint Hand Sanitizer Boys; ACORE Peppermint Hand Sanitizer Girls; ACORE Watermelon Hand Sanitizer Girls; ACP Antibacterial Alcohol Wipes; ACP Hand Sanitizer; ACP Hand sanitizer; ACTIVE BARRIER Advanced Hand Sanitizer; ACURE Hand Sanitizer; ADFORM HAND SANITIZER Gel; ADIOS Antiseptic Wet Wipes; AEROCLEANSE Instant Hand Sanitizer; AFFEX CARE Hand Sanitizer(AC01-04-01); AFFEX Care Hand Sanitizer; AFFEX Care Ultra Hand Sanitizer; AFFEX Hand Sanitizer; AG Alcohol Antiseptic; AICOHOI Wipes; AIM-X antibacterial hand cleansing gel; AIMERSIE hand santizer 500ml 01; AIWINA Sanitizing Wet Wipes; ALAN623 HAND CLEAN Gel; ALCOGEL SOFT 70% Hand Sanitizer; ALCOGel Hand Sanitizer; ALCOHOL Pads; ALCOHOL Washing free LiquidGEL; ALCOHOL Wipe; ALCOHOL-BASED Dissinfectan Hand Sanitizer Gel; ALGOAR Hand Sanitizer; ALH Hand Sanitizer; ALH Hand Sanitizer Gen; ALOBON Hand Sanitizer; ALOBON SanitizerSpray; ALOE Chok Chok Hand; ALOE Hand Sanitizer; ALOE hand sanitizer 01; ALTAIO Hand Sanitizer; ALTAIO Hand Sanitizing Gel; ALTAIO Sanitizing Wipes; ALV71 PURE SANITIZER 100ml; ALV71 PURE SANITIZER 500ml; ALV71 PURE SANITIZER 50ml; AMASS 4 Thieves Sanitizer Serum; AMASS Basilisk Breath Hand Sanitizer Serum; AMASS Basilisk Breath Sanitizer Liquid; AMASS Basilisk Breath Sanitizer Serum; AMASS Botanics Hand Sanitizer; AMASS Four Thieves Sanitizer; AMASS Four Thieves Sanitizer Serum; AMASS Lavender and Fir Hand Sanitizer; AMASS Lemon Tisane Botanic Hand Sanitizer; AMASS Pseudo Citrine Sanitizer Liquid; AMASS Pseudo Citrine Sanitizer Serum; AMASS Puesto Pseudo Citrine Hand Sanitizer; AMBI Soothing Hand sanitizer; AMP Instant Hand Sanitizer; AMX Instant Hand Sanitizer; ANA BEAUTY Clean Hand Sanitizer gel; ANSIC Alcohol Wipes; ANTIBACTERIAL HANDS-FREE Gel; ANTIBACTERIAL Hand Sanitizer; ANTIBACTERIAL Hand Wipes; AOGel; AOGel Hand Sanitizer Kids; AP HanSan; AP Hand Sanitizer; APEX ASEPTIC Instant Hand Sanitizer with Aloe; APEX ASEPTIC Instant Hand Sanitizer with Aloe Cherry Blossom Scent; APHOGEE SERIOUS CARE and PROTECTION REFRESHING HAND SANITIZER; APRIL Bath and Shower Cucumber Melon Scented Antibacterial HAND SANITIZER; APRIL Bath and Shower Sweet Pea Scented Antibacterial HAND SANITIZER; APRIL Bath and Shower Warm Vanilla Sugar Scented Antibacterial HAND SANITIZER; APS Hand Sanitizer; AQ BRANDS hand sanitizing wipes; AQ disposable Antibacterial gel; AQ pure Instant Hand Sanitizer; ARAM Hand Sanitizing Wipe; ARAYUN Derma Hand Clean gel; ARC FIRST AID Contains 1000 PIECES; ARC FIRST AID Contains 303 PIECES; ARC FIRST AID Contains 303 PIECES HARDCASE; ARC FIRST AID Contains 404 PIECES; ARC FIRST AID Emergency Preparedness Contains 167 PIECES; ARMING Sanitizer Gel; ARMOUR Hand Cleaning Gel; ARiAS ANTISEPTIC HAND SANITIZER; AS IS Instant Hand Sanitizer; ASLDAN Hand Sanitizer Gel; ASLDAN Hand disinfection; ASSURED Instant Hand Sanitizer WITH MOISTURIZERS Aloe Vera and Moisturizers; ATODOC HAND gel SANITIZER; ATP Hand Sanitizer; ATP Hand Sanitizer Moisturizing Formula with Aloe; ATTIPURE Hand Sanitizer Gel; AZ Hand Sanitizer; AZX Wellness Hand Sanitizer; Aaron and Company Hand Sanitizer; Abbexa Hand Sanitizer; Abercrombie and Fitch Co. Hand Sanitizer; Abetterday Perfect Clean Hand Sanitizer; Abi Hand Sanitizer 8oz; Abi Hand Sanitizer 8oz Aloe; Above Hand Sanitizer Antiseptic; Absolutely Natural Cherry Blossom Hand Sanitizer; Absolutely Natural Rosemary and Mint Hand Sanitizer; Abundant Beauty by Design - Hand Sanitizer 70%; Abutol PARIS ANTISEPTIC HAND SANITIZER; Abutol Sanitizing Citrus Garden; Abutol Sanitizing English Lavender; Abutol Sanitizing Lemon and Mint; Abutol Sanitizing Pomegranate - Cherry Blossom; Abutol Sanitizing Waterfall; Abutol Sanitizing White Lilac; Accel Hand Sanitizer; Accessory Workshop Instant Hand Sanitizer; AccuBan Gel; AccuBan Wipes; Accurate Labs Antiseptic Hand Sanitizer; Acohol Hand Sanitizer Lander; Acqua Aroma Hand Sanitizer Gel; Acqua Di Gabriel; Acqua Marina; Acs Golden Touch Antiseptic Hand Sanitizer; Action Instant Hand Sanitizer; Actiprep; Actiprep Preoperative Skin Preparation; Activa; Active Guard Hand Sanitizer; ActiveClean; Activessence Caribbean Coconut; Activessence Marshmallow Cloud; Activessence Tahitian Vanilla; Activessence Wild Melon; Activex Antibacterial Hand Sanitizer Active; Acvioo Advanced Hand Sanitizer; Ad Gel; Ad-A-Guard(tm) Hand Sanitizer; Ada Gel; Adepts hand sanitizer; Adform Hand Sanitizer; Adirondack Botanical Organics Hand Sanitizer; Adora; Adore Bubble Gum Hand Sanitizer; Adore Cherry Hand Sanitizer; Adore Lavender Hand Sanitizer; Adore Lemonade Hand Sanitizer; Adore Peppermint Hand Sanitizer; Adore Watermelon Hand Sanitizer; Adoya Sanitizing Wipes; Adoya Sanitizing Wipes Lemongrass Scent; Adriana 12oz Hand Sanitizer; Adriana 12oz Hand Sanitizer -aloe Vera; Adriana 8oz Hand Sanitizer - Aloe Vera; Adriana 8oz Hand Sanitizer -original; Adriana Clip On Hand Sanitizer; Advance Hand Sanitizer; Advance Hand Sanitizer Moisturizing Formula With Aloe and Vitamin E; Advance Hand Sanitizer With Aloe; Advanced; Advanced 2 in 1 Hand Sanitizer; Advanced Alcohol Foaming Hand Sanitizer; Advanced Alcohol Gel Sanitizer; Advanced Alcohol Gel Sanitizer II; Advanced Alcohol Gel Sanitizer III; Advanced Alcohol Wipes; Advanced Clean Hand Sanitizer Mist; Advanced First Hand Sanitizer; Advanced Gel Hand Sanitizer; Advanced Gel Hand Sanitizer Refreshing Citrus; Advanced Gel Hand Sanitizer soothing Lavender; Advanced Gel Hand Sanitizer with Signature Scent; Advanced HAND SANITIZER; Advanced Hand Sanitizer; Advanced Hand Sanitizer 70 Percent; Advanced Hand Sanitizer Berries; Advanced Hand Sanitizer Foam with Aloe; Advanced Hand Sanitizer Gel; Advanced Hand Sanitizer Lavender; Advanced Hand Sanitizer Natural Aloe; Advanced Hand Sanitizer Singles; Advanced Hand Sanitizer Vitamin E; Advanced Hand Sanitizer with Aloe bottles; Advanced Hand SanitizerRefreshin; Advanced Hygienic Hand Sanitizer; Advanced Instant Hand Sanitizer alcohol gel; Advanced Local Health Hand Sanitizer; Advanced Purell; Advanced alcohol wipes 100 wipes 01; Adventure First Aid .5 Tin; Adventure First Aid Water Resistant; Adventure Hand Sanitizer; Adventure Hand Sanitizer - Fragrance 80%; Adventure Hand Sanitizer - Unscented 80%; Adventure Hand Sanitizer Fragrance; Adventure Medical Kits 1 Person First Aid; Adventure Medical Kits 1-2 Person First Aid; Adventure Medical Kits 1-2 Person National Ski Patrol First Aid; Adventure Medical Kits 1-4 Person First Aid; Aegle Hand Sanitizer; Aerie Antibacterial Hand Sanitizer; Aerium Clean Clear Sanitizer Gel 500ml; Aerium Hand Sanitizer 70% 100ml; Aerium Hand Sanitizer 70% 250ml; Aerium Hand Sanitizer 70% 500ml; Aerium Hand Sanitizer 70% 50ml; Aerium Hand Sanitizer 70% 946ml; Aerium Sanitizer 75% 100ml; Aerium Sanitizer 75% 250ml; Aerium Sanitizer 75% 500ml; Aerium Sanitizer 75% 50ml; AeroCleanse Hand Sanitizer; Aeroclean Hand Sanitizer; Aethera Hand Cleanser; Aethera Hand Sanitizer; Aevi Here and Now Hand Sanitizer; Aevi Whenever Wherever Hand Sanitizer; Afassco Hand Sanitizer; Afassco Instant Hand Sanitizer; Aflac hand sanitizer 236ml 01; Aflac hand sanitizer 59ml 01; After Bathe Alcohol Sentinel; After Bite Wipe; After Bite Wipe Insect Sting Relief; Aftermath Hand Sanitizer; Ag Linea Hand Sanitizer; Agachy Fast Clean Hand Sanitizer; Agachy Fast Clean Hand Sanitizingspray; Agella Beauty Botanical Extracts Hand Sanitizer; Aidplus Alcohol Cleansing Pad; Aidplus Sting Relief Prep Pad; Aiken Hand Sanitizer; Aillia Fresh Sanitizer; Aimbus hand sanitizer 500ml 01; Air Co Hand Sanitizer; Air and Water Christmas Berry Hand Sanitizer; Air and Water Hand Sanitizer - Christmas Berry; Air and Water Hand Sanitizer - Merry Peppermint; Air and Water Hand Sanitizer - Snow Mint; Air and Water Hand Sanitizer - Sugar Plum; Air and Water Hand Sanitizer Kit; Air and Water Sugar Plum Hand Sanitizer; Air raid card Waterless Alcohol Hand Sanitizer; Air raid card Waterless Alcohol Hand Sanitizer Gel; Aire-Master; Aire-Master Foaming Hand Sanitizer Fragrance Free; Aire-Master Sanitizer Gel vit e/a; Aire-Master Waterless Hand Sanitizer; Airome Hand Sanitizer Bergamot Lime; Airosol 75 Hand Sanitizer; Aislinn Hand Sanitizer Gel; Aiweier Alcohol Wipes; Aiweier Disinfecttant Wipes; Akileine Vaporisateur Antitranspirant; Akoia Hand Sanitizer; Aktive Hand Sanitizer; Aktive Sanitizing Wipes; Al CaFoam; Al kogel Hand Sanitizer; Al-San E3 Sanitizing; Alaska Beauty Elements Fresh Hand Sanitizer; Alaska Beauty Fresh Hand Antiseptic Cleanser; Alaska Beauty Hand Antiseptic Cleanser; Alcare Antiseptic Handrub; Alcare Elevate Antiseptic Handrub; Alcare Enhanced Foaming Hand Sanitizer; Alcare Extra Hand Sanitizer; Alcare Foamed Antiseptic Handrub; Alcare OR Foamed Antiseptic Handrub; Alcare Plus Foamed Antiseptic Handrub; Alchemy Living; Alchemy Living Hand Sanitizer; Alchemy-Spetec Hand Sanitizer; Alchohol Wipes; Alclene Hand Sanitizer; Alco Hand Sanitizer; Alco San; Alco-Cloth; Alco-Gel; Alco-San; Alco-gel - Top 60%; Alco-san Instant Skin Sanitizer; AlcoClean Hand Sanitizer; AlcoMax; AlcoShield; AlcoSoft Antibacterial Hand Sanitizer; Alcogel; Alcogenix antiseptic hand sanitizer; Alcohol; Alcohol - Hand Sanitizer; Alcohol 5% and Dextrose 5% Inj USP; Alcohol 5% and Dextrose 5% Injection USP; Alcohol 80% Topical Antiseptic, Hand Sanitizer; Alcohol Agent Sanitizer; Alcohol Antibacterial Gel(None-Rinse); Alcohol Antibacterial Solution Hand Sanitizer; Alcohol Antibacterial Wipes; Alcohol Antibacterial solution; Alcohol Antiseptic; Alcohol Antiseptic 70% Gelled Topical Solution; Alcohol Antiseptic 70% Topical Solution; Alcohol Antiseptic 71 Antiseptic Hand Rub Non sterile; Alcohol Antiseptic 80; Alcohol Antiseptic 80 Hand Sanitizer; Alcohol Antiseptic 80 Percent Topical; Alcohol Antiseptic 80 Topical - Hand Sanitizer; Alcohol Antiseptic 80 Topical Hand Sanitizer Non sterile; Alcohol Antiseptic 80%; Alcohol Antiseptic 80% Hand Sanitizer; Alcohol Antiseptic 80% Hand Sanitizer Non-sterile Solution; Alcohol Antiseptic 80% Topical; Alcohol Antiseptic 80% Topical Hand Sanitizer; Alcohol Antiseptic 80% Topical Solution; Alcohol Antiseptic 80% Topical Solution Hand Sanitizer Non-Sterile Solution; Alcohol Antiseptic Hand Rub Non-sterile; Alcohol Antiseptic Hand Sanitizer 80%; Alcohol Antiseptic Hand Sanitizer Non-Sterile Solution; Alcohol Antiseptic Hand Sanitizer Non-sterile; Alcohol Antiseptic Topical Solution; Alcohol Antiseptic Wipes; Alcohol Antiseptic, 80%; Alcohol Antispetic 62% Topical Solution Hand Sanitizer; Alcohol Based Foaming Hand Sanitizer; Alcohol Based Hand Sanitizer; Alcohol Based Hand Sanitizer Total Pure; Alcohol Based Wet Wipes; Alcohol Cleaning Wet Wipes; Alcohol Cleansing Pad; Alcohol Disinfectant; Alcohol Disinfectant (75%); Alcohol Disinfectant Wipes; Alcohol Disinfectantspray; Alcohol Disinfecting Cleaning Wipes; Alcohol Disinfecting Wipe; Alcohol Disinfecting Wipes; Alcohol Disinfectingspray; Alcohol Foam Hand Sanitizer; Alcohol Foam San; Alcohol Foam Sanitizer; Alcohol Foaming Hand Sanitizer; Alcohol Formula Sanitizing Hand Wipes; Alcohol Gel Hand Sanitizer; Alcohol Global Care (Ethyl); Alcohol Hand Rub; Alcohol Hand Sanitizer; Alcohol Hand Sanitizer 80%; Alcohol Hand Sanitizer Gel; Alcohol Hand Sanitizing Wipes; Alcohol Hand Wipe; Alcohol Hand Wipes; Alcohol Instant Hand Sanitizer; Alcohol NO WASHING Gel; Alcohol Pad; Alcohol Pads; Alcohol Prep Pad; Alcohol Sanitizer; Alcohol Sanitizerspray; Alcohol Sanitizing; Alcohol Sanitizing Wipes; Alcohol Sentinel Boxset; Alcohol Sparay; Alcohol Wet Tissue; Alcohol Wet Wipes; Alcohol Wet Wipes, 70 Alcohol; Alcohol Wipe; Alcohol Wipes; Alcohol Wipes 75%; Alcohol Wipes Lemon Scent; Alcohol and Dextrose; Alcohol antiseptic 80 topical solution; Alcohol disinfectant; Alcohol disinfectant wipes; Alcohol disinfectant(disposable hand sanitizer); Alcohol disinfecting hand sanitizer; Alcohol disinfection wet wipes; Alcohol hand sanitizer; Alcohol hand wipes; Alcohol in Dextrose; Alcohol moist wipes; Alcohol pad; Alcohol prep pad; Alcohol sanitizer wipes; Alcohol sterilized wipes; Alcohol swab; Alcohol wet wipe; Alcohol wet wipes; Alcohol wipes; Alcohol wipes (75% Alcohol); Alcohol wipes 75% alcohol; Alcohol-based Disinfectant Hand Sanitizer; Alcorub (rubbing Alcohol Compound); Alcoscrub Foam; Alcoscrub Hand Cleaner; Alcosm Alcohol Wipes; Alcosm Hand Sanitizer Wipes; Alcosoft antibacterial hand sanitizer alcohol; Aleva Sani Gel Alcohol Antiseptic 70; Alexander Hand Sanitizer; Alfa Hand Sanitizer; Algonquin FoamSan; Algonquin HanSan; Alikay Naturals - Hand Sanitizer; Alkemi Hand Sanitizer; All A Eco Cleaner; All American Chemical Hand Sanitizer; All Around Sanitizing Wipes; All Clean Natural Hand Sanitizer; All Clean Natural Sanitizer Wipes; All Clean Premium Hand Sanitizer Bergamot; All Clean Premium Hand Sanitizer Blood Orange; All Clean Premium Hand Sanitizer Lavender; All Clean Premium Hand Sanitizer Lemon Mint; All Clear; All Day Hand Sanitizer Ultra; All Day Ultra Hand Sanitizer Gel; All Fresh by Alsco Instant Mist Hand Sanitizer; All G ESSENTIALS HAND SANITIZER; All Good Citrus Hand Sanitizer; All Good Lavender Hand Sanitizer; All Good Rose Geranium Hand Sanitizer; All Good Unscented; All Hands Co. Hand Sanitizer; All Hands Lychee and Asian Pear Moisturizing Hand Cleansing Gel with Alcohol; All Hands Raspberry and Honeydew Moisturizing Hand Cleansing Gel with Alcohol; All Hands Zingy Pineapple and Lime Moisturizing Hand Cleansing Gel with Alcohol; All Health Alliance Hand Sanitizer With Aloe and Vitamin E 400ml; All Health Alliance Hand Sanitizer With Aloe and Vitamin E 59ml; All Natural Hand Sanitizing and Conditioning; All Purpose Hand Sanitizing 70 Percent; All Safe Antiseptic Hand Wipe; All Safe Antiseptic Hand Wipe Fairmont; All Safe Hand Sanitizer; All Safe Hand Sanitizer Fairmont; All State; All clear hand sanitizer; All-purpose Sanitizer; All-purpose Sanitizing Wipes; AllcareU Disposable HAND SANITIZER; Allegheny Distilling Hand Sanitizer; Allora; Allpure Hand Sanitizer; Allpure Hand Sanitizer Sanitizing Wipe; Allsan Advanced Hand Sanitizer; Allsan Plus Hand Sanitizer; Allure Chemicals Instant Foam Hand Sanitizer; Allure Chemicals Instant Hand Sanitizer; Alluring Encounter Hand Sanitizer; Ally Hand Sanitizer Wipes; Alma Ritual Herbal; Almond Antibacterial Hand Sanitizer; Alochol Wipes; Aloe Gel; Aloe Hand Sanitizer; Aloe Scent A B Hand Sanitizing; Aloe Scented Hand Sanitizer; Aloe Touch; Aloe Vera Center Hand Sanitizer; Aloe Vera Hand Sanitizer; Aloe Vera Hand Sanitizer Handsanttizer; Aloe Vera Hand Sanitizer w/Fragrance; Aloe Vera Leaf Hand Sanitizer; Aloe Vera Scent Anti Germ; Aloe You; Aloe scented anti-bacterial hand sanitizer; AloeSafe Antiseptic Hand Sanitizer; Aloesept HS; Aloha Gel Hand Sanitizer Crazy Coconut; Aloha Gel Hand Sanitizer Pineapple-Mango; Aloha Gel Hand Sanitizer Pure Peppermint; Aloha Gel Hand Sanitizer Tropical Berry; Aloha Gel Hand Sanitizer Vanilla; Alpa Living Hand Sanitizer gel; Alpet E3 Hand Sanitizer Foam; Alpet E3 Plus Hand Sanitizer; Alpet E3 Plus Hand Sanitizer Spray; Alpha E-3; Alpha E-3 Instant Hand Sanitizer; Alpha Handrub; Alpha Handrub Antiseptic Hand Sanitizer; Alpha Living Hand Sanitizer gel; AlphaProMed AlphaCol Sterile Isopropyl Alcohol Preparation Pad; Alsoft V professional hand sanitizer; Alsoft W hand sanitizer; Altitude Medical Hand Sanitizer; AltitudeMedical HAND ANTIBACTERIAL; Altor Safety 80% Alcohol Liquid Hand Sanitizer; Altra Foaming Hand Sanitizer Fragrance Free with Aloe and Vitamin E; Altra Foaming Hand Sanitizer with Aloe and Vitamin E; Altra Hand Sanitizer with Aloe and Vitamin E; Altrufuel ALCOHOL WIPES; Altrufuel Hand Sanitizer; Alvaclean; Alvaseptic; Amazon Commercial Hand Sanitizer Wipes; Ambrabev Hand Sanitizer; Ambre Hand Sanitizer; Ambrosia Fragrance Sanitizer; Ame Hand Sanitizer; AmeriDerm Foam Alcohol Hand Sanitizer; American Beauty Advanced Hand Sanitizer; American Bling Protective Disinfecting Wipes; American Continental Techlabs, LLC INSTANT HAND SANITIZER; American Dental; American Eagle Antibacterial Hand Sanitizer; American Hand Sanitizer; American Infection Control Antiseptic Body Wipes; American Infection Control Antiseptic Hand Wipes; American Raven Hand Sanitizer; American Red Cross First Aid Kit; American Savings Bank Hand Sanitizer; American Shaman Hand Sanitizer; Americas Hand Sanitizer; Amerigel Hand Sanitizer; Ammonia Inhalants; Amoray; Amoray Instant Hand Sanitizer; Amoray Multipurpose Sanitizer; Amoray Premium Hand Sanitizer; Amoray Premium Instant Hand Sanitizer; Amoray Premium Instant Hand Sanitizer With Aloe and Vitamin E Fresh Citrus; Amoray Premium Instant Hand Sanitizer With Aloe and Vitamin E Lavender; Amoray Premium Instant Hand Sanitizer With Aloe and Vitamin E Original; Amoray Premium Instant Hand Sanitizer With Aloe and Vitamin E Strawberry; Amouage; Amoveo 80%; Amoveo Original; Amoveo Unscented; Amphora Aromatics Hand Sanitizer; Amsino Hand Sanitizer; AnMeiKang Alcohol Wipes; Anatizer Gel 70% Ethanol; Anatizer Gel 75% Ethanol; Anatizer S 70% Ethanol; Anatizer S 75% Ethanol; Ancos Silver Ion Hand Sanitizer; Andys; Andys Best; Angel Falls Hand Sanitizer; Angel Foodcake Hand Sanitizer; Aniosgel 85 Npc; Anjieshu Instant Hand Sanitizer; Annie; Antacgel; Antedred Hand Sanitizer; Anthem Hand Sanitizer; Anthem hand sanitizer 236ml; Anthem hand sanitizer 500ml; Anti Bacter Hand Sanitizer Med Clean No Water Needed with Aloe Vera and Glycerine; Anti Bacterial Hand Sanitizer; Anti Bacterial Mini Wipes; Anti Bacterial Wet Wipes; Anti Bye Defender Sanitizer Wipes; Anti Bye Ethanol Wipes; Anti Bye Hand Sanitizer Wipes; Anti Bye Handy Sprayer; Anti Bye Sanitizer Wipes; Anti bacterial Hand Sanitizer; Anti-Bac Antibacterial Hand Wipes Cherry Blossom Scented; Anti-Bac Antibacterial Hand Wipes French Lavender Scented; Anti-Bac Antibacterial Hand Wipes Hawaiian Coconut Scented; Anti-Bac Antibacterial Hand Wipes Strawberry Scented; Anti-Bac Antibacterial Hand Wipes Vanilla Almond Scented; Anti-Bac Hand Sanitizer Dragon Fruit Scented; Anti-Bac Hand Sanitizer Mixed Berries Scented; Anti-Bac Hand Sanitizer Strawberry Scented; Anti-Bac Hand Sanitizer Sweet Berries Scented; Anti-Bac Hand Sanitizer Watermelon Scented; Anti-Bac antibacterial Hand Wipes Strawberry Scentedd; Anti-Bacter Hand Sanitizer 70 Ethyl Alcohol Coconut; Anti-Bacter Hand Sanitizer 70 Ethyl Alcohol Mango; Anti-Bacter Hand Sanitizer 70 Ethyl Alcohol Med-Clean; Anti-Bacter Hand Sanitizer 70 Ethyl Alcohol Melon; Anti-Bacter Hand Sanitizer 70 Ethyl Alcohol Mint; Anti-Bacter Hand Sanitizer 70 Ethyl Alcohol Pineapple; Anti-Bacter Hand Sanitizer 70 Ethyl Alcohol Red Berry; Anti-Bacter Hand Sanitizer Melon; Anti-Bacterial Conditioning Hand Sanitizer Coconut Lime Verbena; Anti-Bacterial Conditioning Hand Sanitizer Dancing Waters; Anti-Bacterial Conditioning Hand Sanitizer Japanese Cherry Blossom; Anti-Bacterial Conditioning Hand Sanitizer Midnight Pomegranate; Anti-Bacterial Conditioning Hand Sanitizer Sweet Pea; Anti-Bacterial Conditioning Hand Sanitizer Twilight Woods; Anti-Bacterial Conditioning Hand Sanitizer Warm Vanilla Sugar; Anti-Bacterial Conditioning Hand Sanitizer White Citrus; Anti-Bacterial Deep Cleansing Hand Fresh Lemon; Anti-Bacterial Deep Cleansing Hand Yuletide Pear Vanilla; Anti-Bacterial Foaming Mousse Hand Sanitizer Iced Gingerbread; Anti-Bacterial Foaming Mousse Hand Sanitizer Sugar Plum Dream; Anti-Bacterial Foaming Mousse Hand Sanitizer Twisted Peppermint; Anti-Bacterial Foaming Mousse Hand Sanitizer Vanilla Bean Noel; Anti-Bacterial Foaming Mousse Hand Sanitizer Winter Candy Apple; Anti-Bacterial HAND SANITIZER; Anti-Bacterial Hand; Anti-Bacterial Hand A Thousand Wishes; Anti-Bacterial Hand A Unicorn Ate My Homework; Anti-Bacterial Hand A Walk In The Woods; Anti-Bacterial Hand Adork-Able Cool Breeze; Anti-Bacterial Hand Afternoon Apple Picking; Anti-Bacterial Hand All Star Apple; Anti-Bacterial Hand Almond Blossom; Anti-Bacterial Hand Aloha Hawaii; Anti-Bacterial Hand Aloha Kiwi Passionfruit; Anti-Bacterial Hand Aloha Orchid; Anti-Bacterial Hand Amazon Rainforest Orchid; Anti-Bacterial Hand American Apple; Anti-Bacterial Hand American Berry Pie; Anti-Bacterial Hand American Peace Sign; Anti-Bacterial Hand Angel Cookie Nice; Anti-Bacterial Hand Angel Food; Anti-Bacterial Hand Apple; Anti-Bacterial Hand Apple Candy; Anti-Bacterial Hand Apple Glow; Anti-Bacterial Hand Apple Lavender; Anti-Bacterial Hand Apple Mango; Anti-Bacterial Hand Apple Pie; Anti-Bacterial Hand Apple Wreath; Anti-Bacterial Hand Apricot Bloom; Anti-Bacterial Hand Apricot Mango; Anti-Bacterial Hand Aqua Blossom; Anti-Bacterial Hand Aquarius; Anti-Bacterial Hand Aromatherapy Stress Relief Eucalyptus Spearmint; Anti-Bacterial Hand Aspen Autumn Day; Anti-Bacterial Hand At The Beach; Anti-Bacterial Hand At the Beach 2; Anti-Bacterial Hand Atlantic; Anti-Bacterial Hand Autumn Owl Cranberry Apple; Anti-Bacterial Hand Autumn Rainfall; Anti-Bacterial Hand Autumn Vines Wine Not; Anti-Bacterial Hand BE A NICE HUMAN; Anti-Bacterial Hand BFF; Anti-Bacterial Hand BFF Berry; Anti-Bacterial Hand BRB Banana; Anti-Bacterial Hand Baa Black Cherry; Anti-Bacterial Hand Bae Watch; Anti-Bacterial Hand Bae Watch Beach Breeze; Anti-Bacterial Hand Bag of Grapes; Anti-Bacterial Hand Bali; Anti-Bacterial Hand Bali Coconut Cove; Anti-Bacterial Hand Bat Bite; Anti-Bacterial Hand Bat Bite Apple; Anti-Bacterial Hand Be A Good Human Simple Citrus; Anti-Bacterial Hand Be Fab Everyday; Anti-Bacterial Hand Be Happy Be Kind Be You (Rainbow Passionfruit); Anti-Bacterial Hand Be Joyful; Anti-Bacterial Hand Be Wise and Sanitize (Fresh Rainfall); Anti-Bacterial Hand Be the Sunshine Citrus Sunshine; Anti-Bacterial Hand BeYouTiful; Anti-Bacterial Hand Beach Bellini; Anti-Bacterial Hand Beach Honeysuckle; Anti-Bacterial Hand Beach House; Anti-Bacterial Hand Beach Please; Anti-Bacterial Hand Beach, Alpaca Towel (Banana Rama); Anti-Bacterial Hand Beautiful Day; Anti-Bacterial Hand Bee Happy; Anti-Bacterial Hand Bee You; Anti-Bacterial Hand Bee-autiful; Anti-Bacterial Hand BeeNice Honeyberry; Anti-Bacterial Hand BeeWell Lavender Honey; Anti-Bacterial Hand Believe; Anti-Bacterial Hand Believe Pink Citrus; Anti-Bacterial Hand Bella Flora; Anti-Bacterial Hand Bellini Dream; Anti-Bacterial Hand Bergamot Mandarin; Anti-Bacterial Hand Bermuda Plumeria Sunrise; Anti-Bacterial Hand Berry; Anti-Bacterial Hand Berry Crisp Cookie; Anti-Bacterial Hand Berry Crush; Anti-Bacterial Hand Berry Freeze; Anti-Bacterial Hand Berry Galactic Swirl; Anti-Bacterial Hand Berry Lemonade; Anti-Bacterial Hand Berry Paris; Anti-Bacterial Hand Berry Sangria; Anti-Bacterial Hand Berry Scary; Anti-Bacterial Hand Berry Scary Ghoul Friend; Anti-Bacterial Hand Berry Swirl; Anti-Bacterial Hand Berry Twinkle; Anti-Bacterial Hand Best Day Ever; Anti-Bacterial Hand Best Friends; Anti-Bacterial Hand Best Teacher Ever; Anti-Bacterial Hand Best of Luck (Lemon Zest); Anti-Bacterial Hand Better Have My Candy; Anti-Bacterial Hand Big Blue Sky; Anti-Bacterial Hand Birthday Wishes (Cake Batter); Anti-Bacterial Hand Black Chamomile; Anti-Bacterial Hand Black Cherry; Anti-Bacterial Hand Black Cherry Merlot; Anti-Bacterial Hand Black Cherry Merlot 2; Anti-Bacterial Hand Black Pearl; Anti-Bacterial Hand Blackberries Basil; Anti-Bacterial Hand Blackberries and Basil; Anti-Bacterial Hand Blue Agave Oasis; Anti-Bacterial Hand Blue Berry; Anti-Bacterial Hand Blue Chiffon; Anti-Bacterial Hand Blue Ocean Waves (Best Fins); Anti-Bacterial Hand Blue Raspberry; Anti-Bacterial Hand Blue Raspberry Dont Quit Your Daydream; Anti-Bacterial Hand Blueberry Cake Donut; Anti-Bacterial Hand Blueberry Crumble; Anti-Bacterial Hand Blueberry Pancake; Anti-Bacterial Hand Blushing Berry; Anti-Bacterial Hand Blushing Tulips and Peonies; Anti-Bacterial Hand Boardwalk Vanilla Cone; Anti-Bacterial Hand Boo Ghostly Raspberry; Anti-Bacterial Hand Boo Marshmallow; Anti-Bacterial Hand Bougie; Anti-Bacterial Hand Bourbon; Anti-Bacterial Hand Bourbon Street Buttercream; Anti-Bacterial Hand Brazil Pineapple Punch; Anti-Bacterial Hand BrewBerry; Anti-Bacterial Hand Bride Squad (Sparkling Pink Champagne); Anti-Bacterial Hand Bride To Be (Strawberry Mimosa); Anti-Bacterial Hand Bride Tribe Rose Water Ivy; Anti-Bacterial Hand Bright Autumn Day; Anti-Bacterial Hand Brown Sugar and Carrots; Anti-Bacterial Hand Brownie Mix; Anti-Bacterial Hand Bubble Gum Burst; Anti-Bacterial Hand But First Champagne; Anti-Bacterial Hand Buttercream; Anti-Bacterial Hand Buttercream Cupcake; Anti-Bacterial Hand Butterfly; Anti-Bacterial Hand Cactus Blossom; Anti-Bacterial Hand Cactus Flower and Coconut; Anti-Bacterial Hand California Citrus Sunshine; Anti-Bacterial Hand California Poppy; Anti-Bacterial Hand Calypso Berry; Anti-Bacterial Hand Cancer; Anti-Bacterial Hand Candi Corn; Anti-Bacterial Hand Candi-corn (Boo Raspberry); Anti-Bacterial Hand Candy Apple; Anti-Bacterial Hand Candy Cane Bliss; Anti-Bacterial Hand Candy Corn; Anti-Bacterial Hand Capricorn; Anti-Bacterial Hand Caramel Apple; Anti-Bacterial Hand Caramel Dream; Anti-Bacterial Hand Caribbean Escape; Anti-Bacterial Hand Chamomile; Anti-Bacterial Hand Champagne Apple Honey; Anti-Bacterial Hand Champagne Apple and Honey; Anti-Bacterial Hand Champagne Sparkle; Anti-Bacterial Hand Champagne Toast; Anti-Bacterial Hand Charmed Life; Anti-Bacterial Hand Charming Chick Sweet Strawberry; Anti-Bacterial Hand Check Meowt Pomegranate; Anti-Bacterial Hand Cheeky Berry; Anti-Bacterial Hand Cheer Holiday Berries; Anti-Bacterial Hand Cheers to Being Fabulous; Anti-Bacterial Hand Cherry; Anti-Bacterial Hand Cherry Almond Shortbread; Anti-Bacterial Hand Cherry Champagne Toast; Anti-Bacterial Hand Cherry London; Anti-Bacterial Hand Chill Out Sea Breeze; Anti-Bacterial Hand Chocolate Chew; Anti-Bacterial Hand Chocolate Chunk Cookie; Anti-Bacterial Hand Chocolate Creme Donut; Anti-Bacterial Hand Christmas Candy; Anti-Bacterial Hand Christmas Cookies; Anti-Bacterial Hand Christmas Morning; Anti-Bacterial Hand Cilantro Peach; Anti-Bacterial Hand Cinnamon Donut (Youre the Sweetest); Anti-Bacterial Hand Cinnamon Glazed Donut; Anti-Bacterial Hand Cinnamon Heaven; Anti-Bacterial Hand Cinnamon Raisin Cookie; Anti-Bacterial Hand Cinnamon Spiced Vanilla; Anti-Bacterial Hand Citrus; Anti-Bacterial Hand Citrus Blue Berry; Anti-Bacterial Hand Citrus Crush; Anti-Bacterial Hand Citrus Mint; Anti-Bacterial Hand Citrus Orchid Chill; Anti-Bacterial Hand Citrus Sunshine; Anti-Bacterial Hand Citrus and Sunshine; Anti-Bacterial Hand Coastal Coconut; Anti-Bacterial Hand Coastal Surf and Sun; Anti-Bacterial Hand Cocktail Mania; Anti-Bacterial Hand Cocktails and Confetti; Anti-Bacterial Hand Cocoa Mint; Anti-Bacterial Hand Cocoloco; Anti-Bacterial Hand Coconut; Anti-Bacterial Hand Coconut Beach; Anti-Bacterial Hand Coconut Cabana; Anti-Bacterial Hand Coconut Candy; Anti-Bacterial Hand Coconut Colada; Anti-Bacterial Hand Coconut Cooler; Anti-Bacterial Hand Coconut Cove; Anti-Bacterial Hand Coconut Lemon; Anti-Bacterial Hand Coconut Lime Verbena; Anti-Bacterial Hand Coconut Pumpkin Latte; Anti-Bacterial Hand Coconut Punch; Anti-Bacterial Hand Coconut Water Chill; Anti-Bacterial Hand Coffee Is My Spirit Animal; Anti-Bacterial Hand Colada; Anti-Bacterial Hand Colada Craze; Anti-Bacterial Hand Comets Ginger Mint; Anti-Bacterial Hand Congrats; Anti-Bacterial Hand Cool Coconut; Anti-Bacterial Hand Cool Coconut Colada; Anti-Bacterial Hand Cool Summer Splash; Anti-Bacterial Hand Copacabana Coconut; Anti-Bacterial Hand Coral Reef; Anti-Bacterial Hand Cosmic Clean; Anti-Bacterial Hand Cotton Candy Bliss; Anti-Bacterial Hand Cotton Candy Clouds; Anti-Bacterial Hand Cozy Vanilla Cream; Anti-Bacterial Hand Cranapple Crisp; Anti-Bacterial Hand Cranberry Harvest; Anti-Bacterial Hand Cranberry Peach; Anti-Bacterial Hand Cranberry Twinkle; Anti-Bacterial Hand Creamy Pumpkin; Anti-Bacterial Hand Creep It Real (Caramel Apple); Anti-Bacterial Hand Crisp Bergamot; Anti-Bacterial Hand Crisp Golden Pear; Anti-Bacterial Hand Crisp Morning Air; Anti-Bacterial Hand Crsp Morning Air; Anti-Bacterial Hand Crushed Berry; Anti-Bacterial Hand Crushed Candy Cane; Anti-Bacterial Hand Cucumber; Anti-Bacterial Hand Cucumber Lily; Anti-Bacterial Hand Cucumber Melon; Anti-Bacterial Hand Cucumber Mint; Anti-Bacterial Hand Cucumber and Lily; Anti-Bacterial Hand Daisy Dreamgirl; Anti-Bacterial Hand Dancing Waters; Anti-Bacterial Hand Dashers Apple Mint; Anti-Bacterial Hand Daydream; Anti-Bacterial Hand Dazzling Diamond; Anti-Bacterial Hand Dazzling Diamonds; Anti-Bacterial Hand Devils Food; Anti-Bacterial Hand Dont Quit Your Daydream; Anti-Bacterial Hand Dont Quit Your Daydream (Sweet Star Quest); Anti-Bacterial Hand Donut Judge Me; Anti-Bacterial Hand Drama Dog Strawberry; Anti-Bacterial Hand Dreamer; Anti-Bacterial Hand ENDLESS WEEKEND; Anti-Bacterial Hand Easy Peasy Lemon Squeezy; Anti-Bacterial Hand Eat Ham Cranberry Sauce; Anti-Bacterial Hand Eek Yummy Mummy Marshmallow; Anti-Bacterial Hand Electric Mango; Anti-Bacterial Hand Electric Raspberry; Anti-Bacterial Hand Elfin Around; Anti-Bacterial Hand Emoji Series; Anti-Bacterial Hand Endless Weekend; Anti-Bacterial Hand Eucalyptus Mint; Anti-Bacterial Hand Eucalyptus Spearmint; Anti-Bacterial Hand Eucalyptus Tea; Anti-Bacterial Hand Eucalyptus and Spearmint; Anti-Bacterial Hand Exotic Rainforest; Anti-Bacterial Hand FRESHWATER; Anti-Bacterial Hand Fa La La La Latte (Gingerbread Latte); Anti-Bacterial Hand Fa La La La Llama; Anti-Bacterial Hand Fall Lakeside Breeze; Anti-Bacterial Hand Fall Morning; Anti-Bacterial Hand Fashionably Latte; Anti-Bacterial Hand Feast Mode; Anti-Bacterial Hand Feelin Lucky Apple; Anti-Bacterial Hand Feline Good (Cherry Sweet); Anti-Bacterial Hand Fiji; Anti-Bacterial Hand Fiji White Sands; Anti-Bacterial Hand Fiji White Sands 2; Anti-Bacterial Hand Firework Fizz; Anti-Bacterial Hand First Snow Fall; Anti-Bacterial Hand Fizzy Fruit Pop; Anti-Bacterial Hand Flamango (Mango Madness); Anti-Bacterial Hand Flannel; Anti-Bacterial Hand Flawless; Anti-Bacterial Hand Fleece Navidad; Anti-Bacterial Hand Flip Flopped Fruit; Anti-Bacterial Hand Florida Orange; Anti-Bacterial Hand Foam Coconut Lime Verbena; Anti-Bacterial Hand Foam Cucumber Melon; Anti-Bacterial Hand Foam Dancing Waters; Anti-Bacterial Hand Foam Fresh Lemon; Anti-Bacterial Hand Foam Fresh Lime Basil; Anti-Bacterial Hand Foam Fresh Market Apple; Anti-Bacterial Hand Foam Island Nectar; Anti-Bacterial Hand Foam Japanese Cherry Blossom; Anti-Bacterial Hand Foam Midnight Pomegranate; Anti-Bacterial Hand Foam Orange Sapphire; Anti-Bacterial Hand Foam Sea Island Cotton; Anti-Bacterial Hand Foam Sweet Pea; Anti-Bacterial Hand Foam Twilight Woods; Anti-Bacterial Hand Foam Unscented; Anti-Bacterial Hand Foam Warm Vanilla Sugar; Anti-Bacterial Hand Foam White Citrus; Anti-Bacterial Hand Forbidden Apple; Anti-Bacterial Hand Fragrance Free; Anti-Bacterial Hand Free Spirit; Anti-Bacterial Hand French Kiss Berry; Anti-Bacterial Hand French Lavendar; Anti-Bacterial Hand French Lavender; Anti-Bacterial Hand Fresh Balsam; Anti-Bacterial Hand Fresh Bamboo; Anti-Bacterial Hand Fresh Coconut; Anti-Bacterial Hand Fresh Cut Lilacs; Anti-Bacterial Hand Fresh Lavender; Anti-Bacterial Hand Fresh Lemon; Anti-Bacterial Hand Fresh Lemon Daisy; Anti-Bacterial Hand Fresh Lemonade; Anti-Bacterial Hand Fresh Lime Basil; Anti-Bacterial Hand Fresh Linen; Anti-Bacterial Hand Fresh Market Apple; Anti-Bacterial Hand Fresh Picked Anjou Pear; Anti-Bacterial Hand Fresh Picked Apple Blossoms; Anti-Bacterial Hand Fresh Picked Apples; Anti-Bacterial Hand Fresh Picked Apricots; Anti-Bacterial Hand Fresh Picked Blackberries; Anti-Bacterial Hand Fresh Picked Blueberries; Anti-Bacterial Hand Fresh Picked Cherries; Anti-Bacterial Hand Fresh Picked Crimson Plum; Anti-Bacterial Hand Fresh Picked Crisp Apples; Anti-Bacterial Hand Fresh Picked Farmstand Apple; Anti-Bacterial Hand Fresh Picked First Bloom; Anti-Bacterial Hand Fresh Picked Garden Herbs; Anti-Bacterial Hand Fresh Picked Garden Strawberries; Anti-Bacterial Hand Fresh Picked Golden Apricot; Anti-Bacterial Hand Fresh Picked Heirloom Cranberries; Anti-Bacterial Hand Fresh Picked Heirloom Pear; Anti-Bacterial Hand Fresh Picked Market Peach; Anti-Bacterial Hand Fresh Picked Meyer Lemon; Anti-Bacterial Hand Fresh Picked Peaches; Anti-Bacterial Hand Fresh Picked Pear; Anti-Bacterial Hand Fresh Picked Pears; Anti-Bacterial Hand Fresh Picked Pink Passion Fruit; Anti-Bacterial Hand Fresh Picked Pomegranates; Anti-Bacterial Hand Fresh Picked Raspberries; Anti-Bacterial Hand Fresh Picked Strawberries; Anti-Bacterial Hand Fresh Picked Sweet Clementine; Anti-Bacterial Hand Fresh Picked Sweet Tangerines; Anti-Bacterial Hand Fresh Picked Tangerines; Anti-Bacterial Hand Fresh Picked Tuscan Melon; Anti-Bacterial Hand Fresh Picked Vineyard Wildberries; Anti-Bacterial Hand Fresh Picked Watermelon; Anti-Bacterial Hand Fresh Picked Wildberries; Anti-Bacterial Hand Fresh Rainfall; Anti-Bacterial Hand Fresh Sea; Anti-Bacterial Hand Fresh Sparkling Snow; Anti-Bacterial Hand Fresh Strawberries; Anti-Bacterial Hand Fresh Water Aloe; Anti-Bacterial Hand Fresh Water and Aloe; Anti-Bacterial Hand Fresh Watermelon; Anti-Bacterial Hand Fresh Watermelon Lemonade; Anti-Bacterial Hand Freshwater for Men; Anti-Bacterial Hand Fri Yay; Anti-Bacterial Hand Frosted Coconut Snowball; Anti-Bacterial Hand Frosted Cranberry; Anti-Bacterial Hand Frosted Snowberry; Anti-Bacterial Hand Frosted Snowman; Anti-Bacterial Hand Frosted Wonderland; Anti-Bacterial Hand Frozen Kiwi; Anti-Bacterial Hand Frozen Lake; Anti-Bacterial Hand Fruit Punch; Anti-Bacterial Hand Fruit Punch Vegas; Anti-Bacterial Hand Future Mrs (Pretty As A Peach); Anti-Bacterial Hand G2G Grape; Anti-Bacterial Hand Gardenia Spring Rain; Anti-Bacterial Hand Gardenia and Spring Rain; Anti-Bacterial Hand Gel; Anti-Bacterial Hand Gel Apple Pie; Anti-Bacterial Hand Gel Candy Apple; Anti-Bacterial Hand Gel Caribbean Escape; Anti-Bacterial Hand Gel Cotton Candy; Anti-Bacterial Hand Gel Fresh Picked Strawberries; Anti-Bacterial Hand Gel Mango Madness; Anti-Bacterial Hand Gel Pink Lemonade; Anti-Bacterial Hand Gel Sweet Pea; Anti-Bacterial Hand Gel Vanilla Cupcake; Anti-Bacterial Hand Gemini; Anti-Bacterial Hand Georgia Bourbon Peach; Anti-Bacterial Hand Georgia Peach; Anti-Bacterial Hand Get Whale Soon (Coconut Water); Anti-Bacterial Hand Ghoul Friend; Anti-Bacterial Hand Ghoul Friend (Wickedly Wild Berries); Anti-Bacterial Hand Ghoul Friend Berry Scary; Anti-Bacterial Hand Ginger Snap; Anti-Bacterial Hand Gingerbread Latte; Anti-Bacterial Hand Gingham; Anti-Bacterial Hand Girl Boss; Anti-Bacterial Hand Girls Just Want to Have Sun; Anti-Bacterial Hand Girls Support Girls Cherry Chill; Anti-Bacterial Hand Give Thanks; Anti-Bacterial Hand Gnome For The Holidays; Anti-Bacterial Hand Goal Digger; Anti-Bacterial Hand Going Bananas (Banana Rama); Anti-Bacterial Hand Gold Dust; Anti-Bacterial Hand Golden Autumn Citrus; Anti-Bacterial Hand Golden Autumn Day; Anti-Bacterial Hand Golden Pineapple Luau; Anti-Bacterial Hand Good At Naps Dewy Lavender; Anti-Bacterial Hand Good Vibes Only; Anti-Bacterial Hand Good Vibes Only Coconut; Anti-Bacterial Hand Goody Gumdrop (Some Bunny Loves You); Anti-Bacterial Hand Gorgeous Grape; Anti-Bacterial Hand Graham Cracker Marshmallow; Anti-Bacterial Hand Grape; Anti-Bacterial Hand Grape Glam; Anti-Bacterial Hand Greatest Ever Icy Air; Anti-Bacterial Hand Green Apple; Anti-Bacterial Hand Green Goddess; Anti-Bacterial Hand Green Tea; Anti-Bacterial Hand Guava Grapefruit; Anti-Bacterial Hand Gum Ball; Anti-Bacterial Hand Hands Off My Honey; Anti-Bacterial Hand Happy Birthday; Anti-Bacterial Hand Happy Birthday (Birthday Cake); Anti-Bacterial Hand Happy Birthday (Champagne Toast); Anti-Bacterial Hand Happy Birthday (Vanilla Cupcake); Anti-Bacterial Hand Happy Easter; Anti-Bacterial Hand Harvest Mouse Citrus; Anti-Bacterial Hand Hawaii Honolulu Sun; Anti-Bacterial Hand Hawaiian Pink Hibiscus; Anti-Bacterial Hand Heart of Gold Berry Sweet; Anti-Bacterial Hand Heartland Harvest Marmalade; Anti-Bacterial Hand Hello Beautiful; Anti-Bacterial Hand Hello Im A Mermaid Ocean Breeze; Anti-Bacterial Hand Hello Im A Unicorn Berry Lemonade; Anti-Bacterial Hand Hello Sweet Baby (Soft and Fresh); Anti-Bacterial Hand Help Me Cranberry Sauce; Anti-Bacterial Hand Hey Thanks (Berry Grateful); Anti-Bacterial Hand Hip Hop Plum; Anti-Bacterial Hand Hippo Berry; Anti-Bacterial Hand Ho Ho Cookie Dough; Anti-Bacterial Hand Ho Ho Ho Tis The Season; Anti-Bacterial Hand Ho Ho Oh; Anti-Bacterial Hand Hogs and Kisses; Anti-Bacterial Hand Holly Berry Wreath; Anti-Bacterial Hand Home Run Green Grass; Anti-Bacterial Hand Honey Pretzel; Anti-Bacterial Hand Honey Sweetheart; Anti-Bacterial Hand Honey Vanilla; Anti-Bacterial Hand Honeydew Cooler; Anti-Bacterial Hand Honolulu Sun; Anti-Bacterial Hand Hoot Berry; Anti-Bacterial Hand Hoot Eerie Pear; Anti-Bacterial Hand Hoot Fruit; Anti-Bacterial Hand Hot Cocoa and Cream; Anti-Bacterial Hand Hot Vanilla Sugar; Anti-Bacterial Hand Howl O Ween; Anti-Bacterial Hand Hula Girl; Anti-Bacterial Hand I Believe In Humans (Sweet As Strawberries); Anti-Bacterial Hand I Believe In Santa and Unicorns (Christmas Berry); Anti-Bacterial Hand I Donut Care; Anti-Bacterial Hand I Got It From My Mama; Anti-Bacterial Hand I Heart Bling Sparkle Berry; Anti-Bacterial Hand I Heart Bubble Gum; Anti-Bacterial Hand I Heart Cake; Anti-Bacterial Hand I Heart Cookie Dough; Anti-Bacterial Hand I Heart Watermelon Apple; Anti-Bacterial Hand I Heart Watermelon Basil; Anti-Bacterial Hand I Heart Watermelon Cherry; Anti-Bacterial Hand I Heart You Bouquet; Anti-Bacterial Hand I Like You A Latte (Marshmellow Pumpkin Latte); Anti-Bacterial Hand I Like You A Waffle Lot; Anti-Bacterial Hand I Love Bling Rock Candy; Anti-Bacterial Hand I Love Cake Frosting; Anti-Bacterial Hand I Love Caramel Apples; Anti-Bacterial Hand I Love Cinnamon Buns; Anti-Bacterial Hand I Love Cookie Dough; Anti-Bacterial Hand I Love Glitter; Anti-Bacterial Hand I Love Pumpkin; Anti-Bacterial Hand I Love Smores; Anti-Bacterial Hand I Love You Bouquet; Anti-Bacterial Hand I Need Space Cosmic Berry; Anti-Bacterial Hand I Need a Snow Day; Anti-Bacterial Hand Iced Blackberries; Anti-Bacterial Hand Iced Gingerbread; Anti-Bacterial Hand Iced Guava Colada; Anti-Bacterial Hand Iced White Pomegranate; Anti-Bacterial Hand Im A Unicorn (Berry Lemonade); Anti-Bacterial Hand Im A Unicorn (Berry Lemonade) 2; Anti-Bacterial Hand Im Really A Mermaid (Perfect Beach Day); Anti-Bacterial Hand Im Really A Mermaid Perfect Beach Day; Anti-Bacterial Hand Im Smitten; Anti-Bacterial Hand Im So Fancy Raspberry Sparkle; Anti-Bacterial Hand Imagine Believe Achieve; Anti-Bacterial Hand In The Stars; Anti-Bacterial Hand Indonesia; Anti-Bacterial Hand Into The Night; Anti-Bacterial Hand Island Bamboo; Anti-Bacterial Hand Island Breeze; Anti-Bacterial Hand Island Margarita; Anti-Bacterial Hand Island Nectar; Anti-Bacterial Hand Island Papaya; Anti-Bacterial Hand Island Papaya (For Shore); Anti-Bacterial Hand Island White Pineapple; Anti-Bacterial Hand Italian Getaway; Anti-Bacterial Hand Italy Tuscan Lemon Tart; Anti-Bacterial Hand Its A Beard Thing (Fresh Apple); Anti-Bacterial Hand Jack O Pumpkin; Anti-Bacterial Hand Jamaica Pineapple Colada; Anti-Bacterial Hand Japanese Cherry Blossom; Anti-Bacterial Hand Jawesome Sea Breeze; Anti-Bacterial Hand Jelly Jam Donut; Anti-Bacterial Hand Jingle All the Way; Anti-Bacterial Hand Jingle Bell Berry; Anti-Bacterial Hand Jolly Gingerbread; Anti-Bacterial Hand Jolly Gingerbread Cookie; Anti-Bacterial Hand Joy; Anti-Bacterial Hand Joy Holiday Frost; Anti-Bacterial Hand Juice Box; Anti-Bacterial Hand Juicy Georgia Peach; Anti-Bacterial Hand Juicy Watermelon; Anti-Bacterial Hand Jungle Fruit; Anti-Bacterial Hand Jurassic Juice (Dino Mite); Anti-Bacterial Hand Just Be Cool; Anti-Bacterial Hand Just Chillin Sparkling Icicles; Anti-Bacterial Hand Just Peachy; Anti-Bacterial Hand KINDNESS IS COOL; Anti-Bacterial Hand Kiss Kiss Mistletoe; Anti-Bacterial Hand Kiwi Pear; Anti-Bacterial Hand Koala Cooler (Melon Cooler); Anti-Bacterial Hand LOL Lime; Anti-Bacterial Hand Lavender Blossom; Anti-Bacterial Hand Lavender Cedarwood; Anti-Bacterial Hand Lavender and Vanilla; Anti-Bacterial Hand Lemon; Anti-Bacterial Hand Lemon Clementine; Anti-Bacterial Hand Lemon Daisy; Anti-Bacterial Hand Lemon Meringue Cheer; Anti-Bacterial Hand Lemon Pomegranate; Anti-Bacterial Hand Lemon Sunshine Slush; Anti-Bacterial Hand Lemon Woods; Anti-Bacterial Hand Lemon Zest; Anti-Bacterial Hand Let it Snow; Anti-Bacterial Hand Libra; Anti-Bacterial Hand Lime Basil; Anti-Bacterial Hand Lime Rome; Anti-Bacterial Hand Liquid Sunshine; Anti-Bacterial Hand Lit; Anti-Bacterial Hand Little Star (Clean and Soft); Anti-Bacterial Hand London Cherry Almond Shortbread; Anti-Bacterial Hand Love Always Wins; Anti-Bacterial Hand Love Bugs Pink Lemonade; Anti-Bacterial Hand Love Peach and Joy; Anti-Bacterial Hand Love Pink Lemonade; Anti-Bacterial Hand Love is Here (Suntan); Anti-Bacterial Hand Lucky Love; Anti-Bacterial Hand Lump of Coal; Anti-Bacterial Hand Macau; Anti-Bacterial Hand Mad About You; Anti-Bacterial Hand Magic In The Air; Anti-Bacterial Hand Magic in the Air; Anti-Bacterial Hand Magnolias and Mimosas; Anti-Bacterial Hand Mahogany Teakwood; Anti-Bacterial Hand Make A Splash (Turquoise Waters); Anti-Bacterial Hand Make It Rein; Anti-Bacterial Hand Malaysia; Anti-Bacterial Hand Malibu Citrus; Anti-Bacterial Hand Malibu Sunset; Anti-Bacterial Hand Mandarin Citron; Anti-Bacterial Hand Mandarin Nectar; Anti-Bacterial Hand Mango Berry Sparkler; Anti-Bacterial Hand Mango Dragonfruit; Anti-Bacterial Hand Mango Hibiscus; Anti-Bacterial Hand Mango Mai Tai; Anti-Bacterial Hand Mango Margarita; Anti-Bacterial Hand Mango Paradise; Anti-Bacterial Hand Mango Starfruit Freeze; Anti-Bacterial Hand Many Thanks (Apricot and Apple); Anti-Bacterial Hand Many Thanks (Apricot and Apple) 2; Anti-Bacterial Hand Marble; Anti-Bacterial Hand Marshmallow; Anti-Bacterial Hand Marshmallow Fireside; Anti-Bacterial Hand Marshmallow Mittens; Anti-Bacterial Hand Marshmallow Pumpkin Latte; Anti-Bacterial Hand Marshmallow Treat; Anti-Bacterial Hand Maui; Anti-Bacterial Hand Maui Mango Mai Tai; Anti-Bacterial Hand Maui Sunset; Anti-Bacterial Hand Mediterranean Lemon; Anti-Bacterial Hand Meet Me in Paris; Anti-Bacterial Hand Melon Cooler; Anti-Bacterial Hand Melon Forever; Anti-Bacterial Hand Melting Marshmallow; Anti-Bacterial Hand Mer-maid to Be (Citrus Sands); Anti-Bacterial Hand Mermaid At Heart (Berry Lemonade); Anti-Bacterial Hand Mermaid BFFs Pineapple Coconut; Anti-Bacterial Hand Mermaid For The Holidays (Winter Waters); Anti-Bacterial Hand Mermaids Are My Spirit Animal; Anti-Bacterial Hand Mermazing; Anti-Bacterial Hand Merry And Bright; Anti-Bacterial Hand Merry Berry Christmas; Anti-Bacterial Hand Merry Berry Kiss; Anti-Bacterial Hand Merry Berry Sparkler; Anti-Bacterial Hand Merry Cherry Cheer; Anti-Bacterial Hand Merry Cherry Love; Anti-Bacterial Hand Merry Cookie; Anti-Bacterial Hand Merry Holiday Sparkle; Anti-Bacterial Hand Merry Marshmallow Kiss; Anti-Bacterial Hand Midnight Pomegranate; Anti-Bacterial Hand Midsummer Dream; Anti-Bacterial Hand Mint Mojito; Anti-Bacterial Hand Miss to Mrs (Pretty As A Peach); Anti-Bacterial Hand Mistletoe Kiss; Anti-Bacterial Hand Mistletoe and Mimosas; Anti-Bacterial Hand Monster Mint; Anti-Bacterial Hand Montana Mountain Air; Anti-Bacterial Hand More Love Less Hate Lemonade; Anti-Bacterial Hand Morning Stroll; Anti-Bacterial Hand Mrs Claus Apple Pie; Anti-Bacterial Hand My Dog Is My Spirit Animal; Anti-Bacterial Hand Napa Valley Sunset; Anti-Bacterial Hand Napping Club (Wild Berry); Anti-Bacterial Hand Naughty Nice I Tried; Anti-Bacterial Hand Nectarine Mint; Anti-Bacterial Hand Nectarine Sun Tea; Anti-Bacterial Hand Need A Hand Starbright Citrus; Anti-Bacterial Hand Nerdy Emoji; Anti-Bacterial Hand Nerdy Vanilla; Anti-Bacterial Hand Never Stop Dreaming (Sugared Honeysuckle); Anti-Bacterial Hand Never Stop Dreaming (Sugared Honeysuckle) 2; Anti-Bacterial Hand New Phone Who Dis; Anti-Bacterial Hand New York Big Apple Sparkler; Anti-Bacterial Hand Nice; Anti-Bacterial Hand Ninjabread Man; Anti-Bacterial Hand No Llama Drama (Chill Berry); Anti-Bacterial Hand No Shade; Anti-Bacterial Hand Noir; Anti-Bacterial Hand Noir For Men; Anti-Bacterial Hand Not Your Boo; Anti-Bacterial Hand Nurse Life (Lemon and Mint); Anti-Bacterial Hand Nutcracker Sweet; Anti-Bacterial Hand OH Snap Cotton Candy; Anti-Bacterial Hand Ocean; Anti-Bacterial Hand Ocean Citrus; Anti-Bacterial Hand Ocean For Men; Anti-Bacterial Hand Ocean Pearl; Anti-Bacterial Hand Ocean Rain; Anti-Bacterial Hand Ocean Road; Anti-Bacterial Hand Ocean Sunset; Anti-Bacterial Hand Ocean for Men (Ocean Rain); Anti-Bacterial Hand Oh Snap; Anti-Bacterial Hand Ohhh Snap Merry Cookie; Anti-Bacterial Hand On Christmas We Wear Pink; Anti-Bacterial Hand On Fleek; Anti-Bacterial Hand Ooh La La French Blooms; Anti-Bacterial Hand Open Sky; Anti-Bacterial Hand Orange Ginger; Anti-Bacterial Hand Orange Ice Pop; Anti-Bacterial Hand Orange Sapphire; Anti-Bacterial Hand Orange Sunrise; Anti-Bacterial Hand Orchard Apple; Anti-Bacterial Hand Orchard Bloom; Anti-Bacterial Hand Orchard Frost; Anti-Bacterial Hand Orchard Leaves; Anti-Bacterial Hand Orchard Walk; Anti-Bacterial Hand PB and J; Anti-Bacterial Hand Pacific Blue; Anti-Bacterial Hand Pacific Cool Breeze; Anti-Bacterial Hand Panda Pear; Anti-Bacterial Hand Papaya Melon Scoop; Anti-Bacterial Hand Paradise Coconut; Anti-Bacterial Hand Paradise Plumeria; Anti-Bacterial Hand Paris Amour; Anti-Bacterial Hand Paris Pink Champagne and Tulips; Anti-Bacterial Hand Part-Time Unicorn (Honolulu Sun); Anti-Bacterial Hand Party Animal Confetti Cake; Anti-Bacterial Hand Party Cool Splash; Anti-Bacterial Hand Passionfruit Colada; Anti-Bacterial Hand Passionfruit Fig; Anti-Bacterial Hand Passionfruit Plum; Anti-Bacterial Hand Paws for Raspberry; Anti-Bacterial Hand Peach; Anti-Bacterial Hand Peach Bellini; Anti-Bacterial Hand Peach Blossom; Anti-Bacterial Hand Peach Mango; Anti-Bacterial Hand Peach Mango 2; Anti-Bacterial Hand Peach Pecan Cupcake; Anti-Bacterial Hand Peach Poppy; Anti-Bacterial Hand Peach Punch; Anti-Bacterial Hand Peachy Play; Anti-Bacterial Hand Pear Berry Cuddles; Anti-Bacterial Hand Pear Tree; Anti-Bacterial Hand Pear Wood Cider; Anti-Bacterial Hand Peppermint Patty; Anti-Bacterial Hand Peppermint Stick; Anti-Bacterial Hand Peppermint Sugar Cookie; Anti-Bacterial Hand Peppermint and Tea Tree (Peaceful); Anti-Bacterial Hand Perfect Autumn Day; Anti-Bacterial Hand Perfect Beach Day; Anti-Bacterial Hand Perfect Peony; Anti-Bacterial Hand Phantom Pumpkin; Anti-Bacterial Hand Pineapple Colada; Anti-Bacterial Hand Pineapple Mango; Anti-Bacterial Hand Pineapple Mojo; Anti-Bacterial Hand Pineapple Prosecco; Anti-Bacterial Hand Pineapple Punch; Anti-Bacterial Hand Pink Berry Citrus; Anti-Bacterial Hand Pink Champagne; Anti-Bacterial Hand Pink Chiffon; Anti-Bacterial Hand Pink Cupcake; Anti-Bacterial Hand Pink Daisy; Anti-Bacterial Hand Pink Diamond; Anti-Bacterial Hand Pink Frosting; Anti-Bacterial Hand Pink Lemonade; Anti-Bacterial Hand Pink Party; Anti-Bacterial Hand Pink Peach Blossom; Anti-Bacterial Hand Pink Prancer; Anti-Bacterial Hand Pink Rose; Anti-Bacterial Hand Pink Sugarplum; Anti-Bacterial Hand Pisces; Anti-Bacterial Hand Play Hard; Anti-Bacterial Hand Please Adopt Me (Peach Bellini); Anti-Bacterial Hand Plum Cider Warmth; Anti-Bacterial Hand Polar Pineapple Guava; Anti-Bacterial Hand Pomegranate; Anti-Bacterial Hand Pomegranate Passion; Anti-Bacterial Hand Pomegranate Peony; Anti-Bacterial Hand Poolside Daydream; Anti-Bacterial Hand Poolside Passionfruit; Anti-Bacterial Hand Poolside Pop; Anti-Bacterial Hand Poolside Punch; Anti-Bacterial Hand Pretty As A Peach; Anti-Bacterial Hand Pretty In Pink; Anti-Bacterial Hand Pretty Pink Peony; Anti-Bacterial Hand Pretty as a Peach; Anti-Bacterial Hand Pumpkin; Anti-Bacterial Hand Pumpkin Apple; Anti-Bacterial Hand Pumpkin Caramel Latte; Anti-Bacterial Hand Pumpkin Coconut; Anti-Bacterial Hand Pumpkin Cupcake; Anti-Bacterial Hand Pumpkin Cupcake 2; Anti-Bacterial Hand Pumpkin Frost; Anti-Bacterial Hand Pumpkin Pecan Waffles; Anti-Bacterial Hand Pumpkin Pie; Anti-Bacterial Hand Pumpkin Spice; Anti-Bacterial Hand Pumpkin Spice Latte; Anti-Bacterial Hand Pumpkin Sprinkle Donut; Anti-Bacterial Hand Pure Wonder; Anti-Bacterial Hand Purple Amethyst; Anti-Bacterial Hand Purple Rain; Anti-Bacterial Hand Purrfect Pumpkin; Anti-Bacterial Hand Purrfect Pumpkin (Sweet Cinnamon Pumpkin); Anti-Bacterial Hand Rainbow Juice; Anti-Bacterial Hand Rainforrest Sugarcane; Anti-Bacterial Hand Raspberry Frost Donut; Anti-Bacterial Hand Raspberry Lemon Sorbet; Anti-Bacterial Hand Raspberry Meringue; Anti-Bacterial Hand Raspberry Pink Peony; Anti-Bacterial Hand Raspberry Tangerine; Anti-Bacterial Hand Raspberry Waves Have A Magical Christmas; Anti-Bacterial Hand Read My Lips; Anti-Bacterial Hand Rebound Orange; Anti-Bacterial Hand Red Apple; Anti-Bacterial Hand Red Heart Face; Anti-Bacterial Hand Red Ruby; Anti-Bacterial Hand Red Velvet Cheer; Anti-Bacterial Hand Resting Grinch Face; Anti-Bacterial Hand Ribbon Candy; Anti-Bacterial Hand Ripe Raspberry Vine; Anti-Bacterial Hand Robotic Breeze (Making Spirits Bright); Anti-Bacterial Hand Rockin Cotton; Anti-Bacterial Hand Rose Water and Ivy; Anti-Bacterial Hand Rose and Vanilla (Love); Anti-Bacterial Hand Rosewater and Ivy; Anti-Bacterial Hand Royal Tea; Anti-Bacterial Hand Rudy Red Apple; Anti-Bacterial Hand Rudys Cocoa Mint; Anti-Bacterial Hand Running Late Is My Cardio; Anti-Bacterial Hand Safari Apple; Anti-Bacterial Hand Salted Caramel; Anti-Bacterial Hand Salted Coconut Water; Anti-Bacterial Hand Salted Coconut Water (Shell Yeah); Anti-Bacterial Hand Salted Cucumber; Anti-Bacterial Hand Salted Pineapple Punch; Anti-Bacterial Hand Sanitizer; Anti-Bacterial Hand Sanitizer AB HS Be Wise and Sanitize (Fresh Rainfall); Anti-Bacterial Hand Sanitizer Be Wise and Sanitize (Fresh Rainfall); Anti-Bacterial Hand Sanitizer Bella Flora; Anti-Bacterial Hand Sanitizer Black Cherry Merlot; Anti-Bacterial Hand Sanitizer Blueberry; Anti-Bacterial Hand Sanitizer But First Coffee; Anti-Bacterial Hand Sanitizer Cactus Blossom; Anti-Bacterial Hand Sanitizer Champagne Toast; Anti-Bacterial Hand Sanitizer Coral Reef; Anti-Bacterial Hand Sanitizer Crisp Cucumber; Anti-Bacterial Hand Sanitizer Days Until Summer; Anti-Bacterial Hand Sanitizer Dont Make Me Use My Teacher Voice; Anti-Bacterial Hand Sanitizer Eucalyptus Spearmint; Anti-Bacterial Hand Sanitizer Fresh Picked Farmstand Apple; Anti-Bacterial Hand Sanitizer Fresh Picked Heirloom Cranberries; Anti-Bacterial Hand Sanitizer Fresh Picked Market Peach; Anti-Bacterial Hand Sanitizer Fresh Picked Sweet Clementine; Anti-Bacterial Hand Sanitizer Fresh Sparkling Snow; Anti-Bacterial Hand Sanitizer Fresh Strawberries; Anti-Bacterial Hand Sanitizer Fresh Tangerines; Anti-Bacterial Hand Sanitizer Gel; Anti-Bacterial Hand Sanitizer Ginger Pear; Anti-Bacterial Hand Sanitizer Good Vibes Only; Anti-Bacterial Hand Sanitizer HS Dont Quit Your Daydream (Sugared Honeysuckle); Anti-Bacterial Hand Sanitizer HS Eucalyptus Spearmint; Anti-Bacterial Hand Sanitizer HS Watermelon Lemonade; Anti-Bacterial Hand Sanitizer I Cant Adult Today; Anti-Bacterial Hand Sanitizer Japanese Cherry Blossom; Anti-Bacterial Hand Sanitizer Lavender Blossom; Anti-Bacterial Hand Sanitizer Leave A Little Sparkle; Anti-Bacterial Hand Sanitizer Mens Ocean; Anti-Bacterial Hand Sanitizer Peach Bellini; Anti-Bacterial Hand Sanitizer Plus Moisturizer Dancing Waters; Anti-Bacterial Hand Sanitizer Plus Moisturizer Fresh Market Apple; Anti-Bacterial Hand Sanitizer Plus Moisturizer Japanese Cherry Blossom; Anti-Bacterial Hand Sanitizer Plus Moisturizer Midnight Pomegranate; Anti-Bacterial Hand Sanitizer Plus Moisturizer Sweet Pea; Anti-Bacterial Hand Sanitizer Pure Vanilla; Anti-Bacterial Hand Sanitizer Spread Love Not Germs (Sea Salt and Citrus); Anti-Bacterial Hand Sanitizer Sugar Lemon Fizz; Anti-Bacterial Hand Sanitizer Summer Escape; Anti-Bacterial Hand Sanitizer Sunburst Tangerine; Anti-Bacterial Hand Sanitizer Sunshine and Lemons; Anti-Bacterial Hand Sanitizer Sweet Cinnamon Pumpkin; Anti-Bacterial Hand Sanitizer Sweet Pea; Anti-Bacterial Hand Sanitizer Toasted Coconut; Anti-Bacterial Hand Sanitizer Tuscan Vineyard; Anti-Bacterial Hand Sanitizer Twilight Woods; Anti-Bacterial Hand Sanitizer Twisted Peppermint; Anti-Bacterial Hand Sanitizer Unscented; Anti-Bacterial Hand Sanitizer Vanilla Bean Noel; Anti-Bacterial Hand Sanitizer Watermelon Lemonade; Anti-Bacterial Hand Sanitizer White Driftwood; Anti-Bacterial Hand Sanitizer Wild Passion Flower; Anti-Bacterial Hand Sanitizer Winter Cranberry; Anti-Bacterial Hand Sanitizer Zebra Punch; Anti-Bacterial Hand Sanitizer with Goat Milk Creamy Coconut and Oats; Anti-Bacterial Hand Sanitizer with Goat Milk Lavender Blossom; Anti-Bacterial Hand Sanitizer with Goat Milk Milk and Honey; Anti-Bacterial Hand Sanitizer with Goat Milk Sea Treasures; Anti-Bacterial Hand Sanitizer with Goat Milk Vanilla Bean; Anti-Bacterial Hand Sanitizer with Goat Milk Verbena and Cream; Anti-Bacterial Hand Sanitizing Spray; Anti-Bacterial Hand Santa Paws; Anti-Bacterial Hand Santa Slay; Anti-Bacterial Hand Santa Tizer; Anti-Bacterial Hand Santa-Saurus; Anti-Bacterial Hand Santas Mallow Mint; Anti-Bacterial Hand Sassy Strawberry; Anti-Bacterial Hand Savage; Anti-Bacterial Hand Savannah Mint Julep; Anti-Bacterial Hand Scorpio; Anti-Bacterial Hand Sea Island Cotton; Anti-Bacterial Hand Seaside Sunrise; Anti-Bacterial Hand Seaside Waves; Anti-Bacterial Hand Selfie; Anti-Bacterial Hand Sexy Cherry Blossom; Anti-Bacterial Hand Shellebrate Island Papaya; Anti-Bacterial Hand Shimmer and Champagne; Anti-Bacterial Hand Shoot Fresh Field; Anti-Bacterial Hand Sicilian Lemon; Anti-Bacterial Hand Simply Bloom; Anti-Bacterial Hand Simply Citrus; Anti-Bacterial Hand Simply Rain; Anti-Bacterial Hand Skater Girl; Anti-Bacterial Hand Slay; Anti-Bacterial Hand Sleigh All Day Merry Cherry Cheer; Anti-Bacterial Hand Smart Cookie; Anti-Bacterial Hand Smash Berry; Anti-Bacterial Hand Smores; Anti-Bacterial Hand Snob Berry; Anti-Bacterial Hand Snow Day Ice Blizzard; Anti-Bacterial Hand Snow Frosted Apple; Anti-Bacterial Hand Snow Kissed Berry; Anti-Bacterial Hand Snow Kissed Citrus; Anti-Bacterial Hand Snowkissed Citrus; Anti-Bacterial Hand Snowy Peach Berry; Anti-Bacterial Hand So Berry Sweet; Anti-Bacterial Hand So Fresh And So Clean; Anti-Bacterial Hand Soft Lavender; Anti-Bacterial Hand Son Of A Nutcracker; Anti-Bacterial Hand Sonoma Vineyard Berries; Anti-Bacterial Hand Sorry Im Latte; Anti-Bacterial Hand Sour Drop; Anti-Bacterial Hand Sour Grapes; Anti-Bacterial Hand South Pacific Sunrise; Anti-Bacterial Hand Southern Lemon Chiffon; Anti-Bacterial Hand Sparkling Lemoncello; Anti-Bacterial Hand Sparkling Limoncello; Anti-Bacterial Hand Sparkling Mint Blossom; Anti-Bacterial Hand Sparkling Mojito; Anti-Bacterial Hand Sparkling Pear Riesling; Anti-Bacterial Hand Sparkling Pink Champagne; Anti-Bacterial Hand Sparkling Sapphire; Anti-Bacterial Hand Sparkling Seas; Anti-Bacterial Hand Sparklling Sweet Nectarine; Anti-Bacterial Hand Spice Kissed Pumpkin; Anti-Bacterial Hand Spiders Web; Anti-Bacterial Hand Spooktacular; Anti-Bacterial Hand Spray Sweet Pea; Anti-Bacterial Hand Spray Warm Vanilla Sugar; Anti-Bacterial Hand Spread Love Not Germs; Anti-Bacterial Hand Spread Sparkle; Anti-Bacterial Hand Spring Bloom; Anti-Bacterial Hand Squad; Anti-Bacterial Hand Stache Pomegranate; Anti-Bacterial Hand Starfruit; Anti-Bacterial Hand Stasher; Anti-Bacterial Hand Stay Pawsitive (Orange Cream Soda); Anti-Bacterial Hand Stay Woke Pink Petals; Anti-Bacterial Hand Strawberry; Anti-Bacterial Hand Strawberry Fields; Anti-Bacterial Hand Strawberry Hibiscus; Anti-Bacterial Hand Strawberry Kiss; Anti-Bacterial Hand Strawberry Kiwi; Anti-Bacterial Hand Strawberry Lemon; Anti-Bacterial Hand Strawberry Lemonade; Anti-Bacterial Hand Strawberry Pound Cake; Anti-Bacterial Hand Strawberry Poundcake; Anti-Bacterial Hand Strawberry Shine; Anti-Bacterial Hand Strawberry Smooches; Anti-Bacterial Hand Strawberry Splash; Anti-Bacterial Hand Strawberry Vanilla Sugar; Anti-Bacterial Hand Stress Relief Eucalyptus Spearmint; Anti-Bacterial Hand Stress Relief Eucalyptus Tea; Anti-Bacterial Hand Student Snot; Anti-Bacterial Hand Studly Apple Mr Mom; Anti-Bacterial Hand Stylish Starfruit; Anti-Bacterial Hand Stylish Strawberry I Love Shoes; Anti-Bacterial Hand Sugar Lemon; Anti-Bacterial Hand Sugar Maple; Anti-Bacterial Hand Sugar Plum Dream; Anti-Bacterial Hand Sugar and Spice; Anti-Bacterial Hand Sugared Clementine (Thanks For Everything); Anti-Bacterial Hand Sugared Honeysuckle (Deck The Halls); Anti-Bacterial Hand Sugared Strawberries; Anti-Bacterial Hand Sugared Vanilla Wish; Anti-Bacterial Hand Summer Escape; Anti-Bacterial Hand Summer Sail; Anti-Bacterial Hand Sun Tan Summer; Anti-Bacterial Hand Sun Washed Citrus; Anti-Bacterial Hand Sun-Washed Citrus; Anti-Bacterial Hand Suncrisp Apple Harvest; Anti-Bacterial Hand Sundrenched Linen; Anti-Bacterial Hand Sunflower Citrus; Anti-Bacterial Hand Sunlight and Apple Trees; Anti-Bacterial Hand Sunshine Lemons; Anti-Bacterial Hand Sunshine and Lemons; Anti-Bacterial Hand Sunshine and Lemons 2; Anti-Bacterial Hand Suntan; Anti-Bacterial Hand Surfside Spritzer; Anti-Bacterial Hand Sweater Weather; Anti-Bacterial Hand Sweet As Strawberries; Anti-Bacterial Hand Sweet As Strawberries 2; Anti-Bacterial Hand Sweet Baby French Lavender; Anti-Bacterial Hand Sweet Baby Girl (Sweet Apple); Anti-Bacterial Hand Sweet Cherry; Anti-Bacterial Hand Sweet Cinnamon Pumpkin; Anti-Bacterial Hand Sweet Cinnamon Pumpkin 2; Anti-Bacterial Hand Sweet Cinnamon Pumpkin Purrfect Potion; Anti-Bacterial Hand Sweet Mint and Rain (Love Wins); Anti-Bacterial Hand Sweet Orange Pumpkin; Anti-Bacterial Hand Sweet Pea; Anti-Bacterial Hand Sweet Pea I Love You; Anti-Bacterial Hand Sweet Peach Tea; Anti-Bacterial Hand Sweet Petals I Heart You Mom; Anti-Bacterial Hand Sweet Plum and Verbena; Anti-Bacterial Hand Sweet Sprinkles (Confetti Cupcake); Anti-Bacterial Hand Sweet Strawberries and Cream; Anti-Bacterial Hand Sweet Strawberry Scoop; Anti-Bacterial Hand Sweet Sugar Cone (Total Softie); Anti-Bacterial Hand Sweet Sugar Sprinkles; Anti-Bacterial Hand Swingin Vanilla; Anti-Bacterial Hand TCHRS Survival Kit Crisp Apple; Anti-Bacterial Hand TGIF Coconut Sugar; Anti-Bacterial Hand Tahitian Paradise; Anti-Bacterial Hand Taurus; Anti-Bacterial Hand Team Scrubs (Original); Anti-Bacterial Hand Team Unicorn; Anti-Bacterial Hand Thank You Berry Lemonade; Anti-Bacterial Hand The Best Mermaids Hang Out With Unicorns (Champagne Sparkle); Anti-Bacterial Hand The Original; Anti-Bacterial Hand The Snuggle Is Real; Anti-Bacterial Hand The Thirst Is Real; Anti-Bacterial Hand The Thirst Is Real Pink Slushie; Anti-Bacterial Hand Throw Kindness Like Confetti; Anti-Bacterial Hand Tiki Mango Mai Tai; Anti-Bacterial Hand Tiki Shore; Anti-Bacterial Hand Tis The Season; Anti-Bacterial Hand Tis the Season; Anti-Bacterial Hand Toasted Vanilla Chai; Anti-Bacterial Hand Too Hip to Hop; Anti-Bacterial Hand Touchdown Citrus Blitz; Anti-Bacterial Hand Treat Yo Elf Snowkissed Citrus; Anti-Bacterial Hand Tropical Berries; Anti-Bacterial Hand Tropical Fruit; Anti-Bacterial Hand Tropical Papaya; Anti-Bacterial Hand Tropical Sorbet Float; Anti-Bacterial Hand Turquoise Waters; Anti-Bacterial Hand Turquoise Waters 2; Anti-Bacterial Hand Tuscan Vineyard; Anti-Bacterial Hand Twilight Woods For Men; Anti-Bacterial Hand Twisted Peppermint; Anti-Bacterial Hand Twisted Peppermint 2; Anti-Bacterial Hand Twisted Web Creepy Orange; Anti-Bacterial Hand Unicorn BFFs (Magical Melon); Anti-Bacterial Hand Unicorn Milk Shake; Anti-Bacterial Hand Unicorn Water; Anti-Bacterial Hand Unicorn Water (Magical Mango); Anti-Bacterial Hand Unicorn Water (Magical Mango) 2; Anti-Bacterial Hand Unicorns Are My Spirit Animal; Anti-Bacterial Hand Unicorns Rule The World Peace Lily; Anti-Bacterial Hand Unscented; Anti-Bacterial Hand Vampire Blood; Anti-Bacterial Hand Vampire Blood (Petrifying Plum); Anti-Bacterial Hand Vanilla; Anti-Bacterial Hand Vanilla Bean Noel; Anti-Bacterial Hand Vanilla Bean Noel 2; Anti-Bacterial Hand Vanilla Berry Sorbet; Anti-Bacterial Hand Vanilla Bliss; Anti-Bacterial Hand Vanilla Buttercream; Anti-Bacterial Hand Vanilla Chai; Anti-Bacterial Hand Vanilla Coconut; Anti-Bacterial Hand Vanilla Coconut 2; Anti-Bacterial Hand Vanilla Cookie; Anti-Bacterial Hand Vanilla Cupcake; Anti-Bacterial Hand Vanilla Fever; Anti-Bacterial Hand Vanilla Icing; Anti-Bacterial Hand Vanilla Patchouli; Anti-Bacterial Hand Vanilla Peppermint; Anti-Bacterial Hand Vanilla Snow Flake; Anti-Bacterial Hand Vanilla Sprinkle Cookie; Anti-Bacterial Hand Vanilla Sugar; Anti-Bacterial Hand Vermont Sugar Maple; Anti-Bacterial Hand Virgo; Anti-Bacterial Hand Vixens Sweet Mint; Anti-Bacterial Hand Waikiki Beach Coconut; Anti-Bacterial Hand Waikiki Surf; Anti-Bacterial Hand Wanna Dance With Somebunny (Cinnamon Roll); Anti-Bacterial Hand Warm Apple Cider; Anti-Bacterial Hand Warm Vanilla Sugar; Anti-Bacterial Hand Wash Those Paws; Anti-Bacterial Hand Wash Those Paws (Orange Sunrise); Anti-Bacterial Hand Washington Apple Harvest; Anti-Bacterial Hand Watermelon Lemonade; Anti-Bacterial Hand Watermelon Picnic; Anti-Bacterial Hand Weekend Apple Picking; Anti-Bacterial Hand Werewolf Tears (Supernatural Citrus); Anti-Bacterial Hand Werk; Anti-Bacterial Hand Whipped Vanilla Cream; Anti-Bacterial Hand White Citrus; Anti-Bacterial Hand White Peach Chardonnay; Anti-Bacterial Hand White Pear and Fig; Anti-Bacterial Hand White Pumpkin; Anti-Bacterial Hand White Tea; Anti-Bacterial Hand White Tea Sage; Anti-Bacterial Hand White Tea and Sage; Anti-Bacterial Hand Wicked Apple; Anti-Bacterial Hand Wicked Plum; Anti-Bacterial Hand Wicked Plum Vampire Blood; Anti-Bacterial Hand Wild Honeysuckle; Anti-Bacterial Hand Wild Passion Flower; Anti-Bacterial Hand Wild Poppies; Anti-Bacterial Hand Wildberry Blossom; Anti-Bacterial Hand Wildberry Chicago; Anti-Bacterial Hand Wildberry Dahlia; Anti-Bacterial Hand Wildberry Freesia; Anti-Bacterial Hand Wildberry Hibiscus; Anti-Bacterial Hand Wildberry Kisses; Anti-Bacterial Hand Winter; Anti-Bacterial Hand Winter Bloom; Anti-Bacterial Hand Winter Candy Apple; Anti-Bacterial Hand Winter Candy Apple 2; Anti-Bacterial Hand Winter Chiffon; Anti-Bacterial Hand Winter Citrus Wreath; Anti-Bacterial Hand Winter Cranberry; Anti-Bacterial Hand Winter Spice and Vanilla; Anti-Bacterial Hand Winter White Woods; Anti-Bacterial Hand Winter Wonderland; Anti-Bacterial Hand Wish On A Starfish (So Berry Sweet); Anti-Bacterial Hand Wrap Queen; Anti-Bacterial Hand XO Sprinkled Donut; Anti-Bacterial Hand XOXO Vanilla Coconut; Anti-Bacterial Hand YAS Pink Frosting; Anti-Bacterial Hand Yaas Citrus; Anti-Bacterial Hand Yay; Anti-Bacterial Hand Yay Summer; Anti-Bacterial Hand Yoga Babe; Anti-Bacterial Hand You Are Loved (Pink Chiffon); Anti-Bacterial Hand You Are Loved Cherry Sweet; Anti-Bacterial Hand You Are Magical (Cotton Candy Clouds); Anti-Bacterial Hand You Are Magical A Thousand Wishes; Anti-Bacterial Hand You Are My Sunshine; Anti-Bacterial Hand You Guac My World (Island Margarita); Anti-Bacterial Hand You Made The Nice List Crushed Candy Cane; Anti-Bacterial Hand Youre A Gem; Anti-Bacterial Hand Youre All I See Orange Crush; Anti-Bacterial Hand Youre Cherry Sweet; Anti-Bacterial Hand Youre Killing It; Anti-Bacterial Hand Youre Magic (Sweet Berries); Anti-Bacterial Hand Youre The One; Anti-Bacterial Hand Youre the Best Citrus Sangria; Anti-Bacterial Hand Zippy Fruit Punch; Anti-Bacterial Hand Zombie Squad; Anti-Bacterial Hand purrfect pumpkin; Anti-Bacterial Moisturizing Hand Sanitizer A Thousand Wishes; Anti-Bacterial Moisturizing Hand Sanitizer Cucumber Melon; Anti-Bacterial Moisturizing Hand Sanitizer French Lavender; Anti-Bacterial Moisturizing Hand Sanitizer Fresh Market Apple; Anti-Bacterial Moisturizing Hand Sanitizer Honolulu Sun; Anti-Bacterial Moisturizing Hand Sanitizer Japanese Cherry Blossom; Anti-Bacterial Moisturizing Hand Sanitizer Ocean; Anti-Bacterial Moisturizing Hand Sanitizer Peach Bellini; Anti-Bacterial Moisturizing Hand Sanitizer Sweet Pea; Anti-Bacterial Moisturizing Hand Sanitizer Warm Vanilla Sugar; Anti-Bacterial Moisturizing Hand Sanitizer Watermelon Lemonade; Anti-Bacterial Multi-Purpose Cleaning Wipes; Anti-Bacterial Shimmer Hand Blue Chiffon; Anti-Bacterial Shimmer Hand Coconut Cream; Anti-Bacterial Shimmer Hand Lemon Glaze; Anti-Bacterial Shimmer Hand Red Velvet; Anti-Bacterial Shimmer Hand Strawberry; Anti-aging Hand Sanitizer; Anti-bac Hand Sanitizer; Anti-bacterial Alcohol-based Hand and Skin Disinfectant; Anti-bacterial Dayoff Hand Sanitizer; Anti-bacterial Deep Cleansing Hand Soap; Anti-bacterial Foaming Mousse Hand Sanitizer All Variants; Anti-bacterial Hand; Anti-bacterial Hand Gel; Anti-bacterial Hand Gel Berry Blast; Anti-bacterial Hand Gel Sweet Peppermint; Anti-bacterial Hand Gel Vanilla Sugar; Anti-bacterial Hand Sanitizer; Anti-bacterial Hand Sanitizer 2 Pack Blue Day Scented; Anti-bacterial Hand Sanitizer 2 Pack Blue Sunshiny Scented; Anti-bacterial Hand Sanitizer 2 Pack Splash Apple Scented; Anti-bacterial Hand Sanitizer 3 Pack 2; Anti-bacterial Hand Sanitizer 3 Pack Blue Day Scented; Anti-bacterial Hand Sanitizer Blueberry; Anti-bacterial Hand Sanitizer Caramel Taffy Scented; Anti-bacterial Hand Sanitizer Peppermint Cream Scented; Anti-bacterial Hand Sanitizer Warm Vanilla Scented; Anti-bacterial Hand Sparay; Anti-bacterial Hand Spary; Anti-bacterial Waterless Hand Foam; Anti-bacterial Woodstock Hand Sanitizer; AntiBiotiCos Hand Sanitizer; Antiacterial Hand Sanitizer; Antibacterial; Antibacterial Alcohol Hand Wipes; Antibacterial Alcohol Wipes; Antibacterial Disinfectant; Antibacterial Gel; Antibacterial HAND SANITIZER; Antibacterial Hand; Antibacterial Hand - Witchs Brew and Scaredy Cat; Antibacterial Hand Arctic Blast; Antibacterial Hand Arctic blast; Antibacterial Hand Candy Cane; Antibacterial Hand Cranberry Spice; Antibacterial Hand Disinfectant Solution; Antibacterial Hand Disinfectant Wipes; Antibacterial Hand Gel; Antibacterial Hand Gift Set Icy Mint and Candy Cane; Antibacterial Hand Gingerbread; Antibacterial Hand Icy Mint; Antibacterial Hand Lime; Antibacterial Hand Mistletoe and Mint; Antibacterial Hand Polar Mint; Antibacterial Hand Polar Mint and Arctic Blast; Antibacterial Hand Sanitizer; Antibacterial Hand Sanitizer - Citrus Scent; Antibacterial Hand Sanitizer Apple Blast Scented; Antibacterial Hand Sanitizer Basil and Green Tea; Antibacterial Hand Sanitizer Blueberry; Antibacterial Hand Sanitizer Bubble Gum; Antibacterial Hand Sanitizer Cherry Blossom scented With Vitamin E and Aloe Vera; Antibacterial Hand Sanitizer Cinnamon apple; Antibacterial Hand Sanitizer Citrus Coconut; Antibacterial Hand Sanitizer Citrus Scent; Antibacterial Hand Sanitizer Coconut Scented; Antibacterial Hand Sanitizer Cotton Candy; Antibacterial Hand Sanitizer Fresh Lemon Scented with vitamin E and Moisturizers; Antibacterial Hand Sanitizer Gel; Antibacterial Hand Sanitizer Hawaiian Coconut Scented With Vitamin E and Aloe Vera; Antibacterial Hand Sanitizer Lavender scent; Antibacterial Hand Sanitizer Lavnder Scented; Antibacterial Hand Sanitizer Lemon Verbena Scented vitamin E and Moisturizers; Antibacterial Hand Sanitizer Original UnScented; Antibacterial Hand Sanitizer Pamegranate Apple; Antibacterial Hand Sanitizer Passion Flower; Antibacterial Hand Sanitizer Peppermint; Antibacterial Hand Sanitizer Pocket Sprayer; Antibacterial Hand Sanitizer Pomegranate and Acai; Antibacterial Hand Sanitizer Rose scent; Antibacterial Hand Sanitizer Spray; Antibacterial Hand Sanitizer Strawberry; Antibacterial Hand Sanitizer Sugar cookie; Antibacterial Hand Sanitizer Sunblossom; Antibacterial Hand Sanitizer Sunflower and Citrus; Antibacterial Hand Sanitizer Vanilla Almond scented With Vitamin E and Aloe Vera; Antibacterial Hand Sanitizer cucumber scent; Antibacterial Hand Sanitizer with Vitamine E; Antibacterial Hand SanitizerSpray; Antibacterial Hand Sanitizerspray; Antibacterial Hand Sanitizing; Antibacterial Hand Sanitizing 3 Wipes and 2 non-medical masks; Antibacterial Hand Towelettes; Antibacterial Hand Wash; Antibacterial Hand Wipe Mitts; Antibacterial Hand Wipes; Antibacterial Hand Wipes Strawberry Pound Cake; Antibacterial Hand Wipes With Aloe; Antibacterial Hand Wpes; Antibacterial Hand gel; Antibacterial Hand sanitizer; Antibacterial Hnad Sanitizer; Antibacterial Instant Hand Sanitizer; Antibacterial Rinse Free Gel; Antibacterial Sanitizer; Antibacterial Sanitizing Wipes; Antibacterial Wet Wipes; Antibacterial Wet Wipes (75%Alcohol); Antibacterial Wet Wipes, Alcohol; Antibacterial Wipes; Antibacterial Wipes With Aloe 20wipes; Antibacterial disinfectant; Antibacterial free gel; Antibacterial hand sanitizer; Antibacterial hand sanitizer gel; Antibacterial hand sanitizer original 1000ml 01; Antibacterial hand sanitizer original 100ml 02; Antibacterial hand sanitizer original 236ml 01; Antibacterial hand sanitizer original 500ml 01; Antibacterial hand washing gel; Antibacterial wipes (75% Alcohol); Antibacterial/Antiseptic/Disinfecting Wipes; Antibacterialspray; Antibactierial Hand Sanitizer; Antifungal; Antimicrobial; Antimicrobial Alcohol Hand; Antimicrobial Alcohol Hand wipes; Antimicrobial Hand; Antimicrobial Hand Purifier; Antimicrobial Hand Sanitizer; Antimicrobial Hand Sanitizer Gel; Antimicrobial Hand Sanitizer Gel - Fresh; Antimicrobial Hand Sanitizing Mango Scented; Antimicrobial Hand Wipe; Antimicrobial Sanitizing Hand Wipe; AntiochPharma Hand Sanitizer; Antisepctic Hand Sanitizer 100; Antiseptic; Antiseptic 80% Topical Gel Hand Sanitizer; Antiseptic Alcohol Wipes; Antiseptic Antibacterial Hand Sanitizer; Antiseptic Disinfectant; Antiseptic Gel; Antiseptic Gel Hand Sanitizer 70 v/v; Antiseptic Gel Handwash; Antiseptic Hand Berry Muguet Ethyl Alcohol; Antiseptic Hand Cleansing Gel; Antiseptic Hand Foam Berry Muguet Ethyl Alcohol; Antiseptic Hand Gel; Antiseptic Hand Gel with Aloe; Antiseptic Hand Rub; Antiseptic Hand Rub Mint; Antiseptic Hand Sanitizer; Antiseptic Hand Sanitizer 01; Antiseptic Hand Sanitizer Aloe Vera Scent; Antiseptic Hand Sanitizer Berry Scent; Antiseptic Hand Sanitizer Cdc; Antiseptic Hand Sanitizer Citrus Scent; Antiseptic Hand Sanitizer Ethyl Alcohol; Antiseptic Hand Sanitizer Extra Strength Gel; Antiseptic Hand Sanitizer Foam; Antiseptic Hand Sanitizer Gel; Antiseptic Hand Sanitizer Gel 128 OZ; Antiseptic Hand Sanitizer Gel Ethyl Alcohol 70; Antiseptic Hand Sanitizer Gel for Life; Antiseptic Hand Sanitizer Gel, 75% Ethyl Alcohol; Antiseptic Hand Sanitizer Lavender Scent; Antiseptic Hand Sanitizer Mint Scent; Antiseptic Hand Sanitizer Mist; Antiseptic Hand Sanitizer Rose Scent; Antiseptic Hand Sanitizer Wipes; Antiseptic Hand Sanitizing Gel; Antiseptic Hand Sanitizing Wipe Enriched With Vitamin E And Aloe Vera; Antiseptic Hand Wipe; Antiseptic Hand Wipes; Antiseptic Hand sanitizer DSQUARED2; Antiseptic Hand sanitizer MISSONI; Antiseptic Hand sanitizer MOSCHINO; Antiseptic Hand sanitizer VERSACE; Antiseptic Instant Hand Sanitizer; Antiseptic Liquid Hand Sanitizer 75 Ethyl Alcohol; Antiseptic Sanitizing; Antiseptic Wipe; Antiseptic Wipe Gel for Life; Antiseptic Wipes; Antiseptique; Antiseptique 70; Antiseptique Advance Strength; Antiseptique Plus; Antiseptique Sanitizer Mist; AnubisMed; Anue Hsg 70; Anutra Medical Hand Sanitizer; Anven; Any88 Skin Clinic Hand Sanitizer; Aoliben 75% alcohol disinfectant; Aoliben ZHUSHI hand sanitizer gel; Aoliben disposable alcohol disinfectant wipes; Aomi Hand Sanitizer; Aomi Hand Sanitizer Cleansing Plus; Aonisen Hand Sanitizer; Apache Service and Supply Company Hand Sanitizer; Apartment House Supply Antiseptic Hand Sanitizer Gel 1 Gallon; Aperol Hand Sanitizer; Aplicare Antiseptic Hand Rinse; Apol Hand Sanitizer; Apollo Instant Hand Sanitizer; Apollo Medical Products Disinfecting Wipes; Apothecary Home Hand Sanitizer; Appeal Alcohol Foaming Hand Sanitizer; Applause; Applause II Hand Sanitizer; Apple Anti Bacterial Hand Sanitizer; Apple Antibacterial Hand Sanitizer with Aloe and Vitamin E; Apple Blossom Anti-bacterial Hand Sanitizer; Apple Blossom Scented Hand Sanitizer; Apple Foaming Hand Sanitizer; Apple Scented Hand Sanitizer; Apple Splash Anti-Bacterial Scented Hand Sanitizer; Applelicious; Appletini Hand Sanitizer; AprilGuard Antiseptic Handrub; Aqua Gel; Aqua Hq; Aqua Sunset Hand Sanitizer; AquaGel Advanced Formula Hand Sanitizer; Aquabain Instant Hand Sanitizer; Aquafire; Aquagel Advanced Formula; Aquagel Hand Sanitizer; Aqualabs Antiseptic Hand Sanitizer; Aramark Hand Sanitizer; Arbonne Hand Sanitizer; Arch Packaging INSTANT Gel HAND SANITIZER; Archstone Essentials; Archstone Hand Sanitizer; Arcot Hand Sanitizer; Arctic Clean Hand Sanitizer; Ariel Premium Supply Hand Sanitizer; Ariel Premium Supply Hand sanitize; Aris Advanced Hand Sanitizer; Aris Hand Sanitizer with Aloe Vera; Ariul Stress Relieving Hand Sanitizing Gel; Arizona Biltmore Hand Sanitizer; Arm and Hammer Anti-bacterial Hand Sanitizer; ArmChem Alcohol Foam Hand Sanitizer; ArmiCare Hand Sanitizer; Armor Glove Hand And Body Wipes; Armour Hand and Skin Sanitizer; Arnica Hand Sanitizer Gentle Anti-bacterial Gel; Aroma Bokke Alcohol Hand Sanitizer; Aroma Guardian; Aroma Hand Sanitizer; Aromaland Hand Sanitizer 75% Alcohol; Aromatherapy Antibacterial Hand Sanitizer Cherry Blossom Scented with vitamin E and aloe vera; Aromatherapy Antibacterial Hand Sanitizer Coconut Scented With Vitamin E and Aloe Vera; Aromatherapy Antibacterial Hand Sanitizer Coconut Scented with vitamin E and aloe vera; Aromatherapy Antibacterial Hand Sanitizer Lavender Scented with Vitamin E and Aloe Vera; Aromatherapy Antibacterial Hand Sanitizer Lavnder Scented with vitamin E and aloe vera; Aromatherapy Antibacterial Hand Sanitizer Lemongrass Scented With Vitamin E and Aloe Vera; Aromatherapy Antibacterial Hand Sanitizer Lemongrass Scented with vitamin E and aloe vera; Aromatherapy Antibacterial Hand Sanitizer Peppermint Scented with vitamin E and aloe vera; Aromatherapy Hand Sanitizer Charcoal and Caffeine; Aromatherapy Hand Sanitizer English Rose and Hemp; Aromatherapy Hand Sanitizer Lavender and Chamomile; Aromatherapy Hand Sanitizer Lemongrass and Sweet Orange; Aromatherapy Hand Sanitizer Red Poppy and Hemp; Aromatherapy Hand Sanitizer chamomile and lavender; Aromatherapy Hand Sanitizer eucalyptus and spearmint; Aromatique Apricot Mint Hand Sanitizer; Aromatique Fresh Air Hand Sanitizer; Aromatique Kiwi Pear Hand Sanitizer; Aromatique Valencia Orange Hand Sanitizer; ArroPure 65; ArroPure 70; ArroPure 70F; ArroPure 70L; ArroPure 80; Arsomi Hand Sanitizer; Art Naturals; Art Naturals Hand Sanitizer; Art Naturals Unscented; Artec Med Antibacterial Hand Sanitizer; Artisanal Hand Sanitizer; Artnaturals Hand Sanitizer; Artnaturals Hand Sanitizer Moisturizing Formula; Artnaturals Hand Sanitizer Natural Elements Cleansing Formula; Artnaturals Scent Free Hand Sanitizer; Aruba Aloe Hand Sanitizer 80% Alcohol; As I Am Hand Sanitizer; Asbury Park Distilling, LLC; Asepso Hand Sanitizer; Asepso Sani Care Alcohol Sanitizer; Aseptomed Antiseptic Wet Wipes; Ashburn Hand Sanitizer Gel; Ashford Instant Hand Sanitizer with Moisturizers and Vitamin E; Aspen Moisturizing Advanced Gel Hand Sanitizer; AspiCare; Assassin Hand Sanitizer; Assorted Scented Hand Sanitizers; Assured Aloe; Assured Aloe Hand Sanitizer 2 pk; Assured Aloe Hand Sanitizer 8 oz.; Assured Aloe Scented Instant Hand Sanitizer; Assured Bio Infection Protection Hand Sanitizer; Assured Hand Sanitizer 8oz; Assured Hand Sanitizer 8oz Aloe; Assured Hand Sanitizer With Moisturizers; Assured Hand Sanitizer with Aloe Vera; Assured Hand Sanitizer with Vitamin E; Assured Instant; Assured Instant Hand Sanitizer; Assured Instant Hand Sanitizer Aloe; Assured Instant Hand Sanitizer Clear; Assured Instant Hand Sanitizer Lavender 2 pk; Assured Instant Hand Sanitizer Lemon 2 pk; Assured Instant Hand Sanitizer Refill 11.2oz Antimicrobial; Assured Instant Hand Sanitizer With Moisturizers Vitamin E and Aloe; Assured Instant Hand Sanitizer with Moisturizers Vitamin E and Aloe; Astral Organica Hand Sanitizer; Astral Organica Hand Sanitizer with CBD; Astro Hand Sanitizer; At Home Signature Collection Hand Sanitizer Autumn Evening; At Home Signature Collection Hand Sanitizer Harvest Apple; At Home Signature Collection Hand Sanitizer Pumpkin Spice; At Home Signature Collection Hand Sanitizer Vanilla Pumpkin; At Once Hand Sanitizer (Ethanol); At-mosphere; Athleticare No Rinse Hand Sanitizing Gel (AC 575); Athleticare No-Rinse Hand Sanitizing AC 575; Atmosphere Hand Sanitizer; Atoren Antibacterial Wipes; Atoren Hand Sanitizer; Atoren Premium Hand Sanitizer; Atp Hand Sanitizer; Attipure Sanitizer Wet Wipes; Attis Clean; Attis Clean Gel; Aube Hand Sanitizer; Aubusson Day Dream Hand Sanitizer; Aubusson Perfect Love Always Hand Sanitizer; Augustinus Bader The Hand Sanitizer; Aulani Disney Resort and Spa Hawaii Alcohol Wet Wipe; Aura Cacia Hand Sanitizer Lavender; Aura Cacia Hand Sanitizer Tea Tree Citrus; Aura Cacia Hand Sanitizer Unscented; Aurafresh Instant Hand Sanitizer Aloe Vera; Aurafresh Instant Hand Sanitizer Vitamin E; Aurafresh Instant Hand Sanitizer With Aloe and Vitamin E Berries; Aurafresh Instant Hand Sanitizer With Aloe and Vitamin E Fresh Citrus; Aurafresh Instant Hand Sanitizer With Aloe and Vitamin E Lavender; Aurafresh Instant Hand Sanitizer With Aloe and Vitamin E Original; Aurafresh Instant Hand Sanitizer With Moisturizers Aloe Vera and Moisturizers; Aurora Antibacterial Sanitizer Summer Cotton Breeze; Aurora Antibacterial Sanitizer Sweet Lychee Berry; Aurora Fresh EA; Australian Gold Hand Sanitizer; Auto 157; AutoSpritz; Autumn Bliss Hand Sanitizer; Avagard Chg; Avagard D; Avant EX; Avant Eco-Premium Instant Hand Sanitizer; Avant Foaming Hand Sanitizer; Avant Original - Fragrance Free; Avant Original Instant Hand Sanitizer; Aventura Hotel Hand Sanitizer Gel; Avid Hand Sanitizing Wipe 70 Percent; Avon Clearskin 2 Overnight Acne Treatment; Avon Clearskin Acne Defense Stick; Avon Skin So Soft Antibacterial Moisturizing Hand Gel; Avon Skin So Soft Antibacterial Moisturizing Hand Gel With Alcohol 60%; Avon Skin-SO-soft Antibacterial Moisturizing Towelettes; Awaken by Quality Choice Hand Sanitizer Citrus Coconut; Awaken by Quality Choice Hand Sanitizer Vanilla Crm and Apple Blossom; Azer Hand Sanitizer; Azuro; Azusa Safety Hand Sanitizer; B B Hand Sanitizer Gel; B B Hand Sanitizer Liquid; B Clean Hand Sanitizer; B Free; B Free Gel; B-good Hand and Skin Disinfecting Agent; B.clean Hand Sanitizer; B4 Hand Sanitizer; B4 Hand Sanitizer 500 Single-Use Packs; BAC-D Hand Sanitizer; BACTEX Antiseptic Hand Sanitizer; BADAMISO HAND SANITIZER gel; BAIMIANQIANSHU Alcohol Wipes; BAITEER Instant Hand Sanitizer Original; BANACOS Cica Mask; BANEN Quick drying Hand Disinfecting Gel; BANEN Rinse-free Hand Sanitizer (II); BANITORE Alcohol Hand Rub; BAS Sanitizer swab; BBHOME Rinse-Free Hand Sanitizer; BBL Advanced Hand Sanitizer Refreshing; BBtime Alcohol Sanitizing Wipes; BBtime Hand Sanitizing Gel; BC Hygiene MAX ETHYL ALCOHOL ANTISEPTIC HAND WIPES; BC3 Hand Sanitizer; BD E-Z Care; BE CLEAN ANTISEPTIC HAND Gel; BEIS Advanced Hand Sanitizer; BEIS Clean Kit; BEIS Hot Mess Antibacterial Wipes; BELSON HAND SANITIZER Ethanol 75 percent Tissue; BEST-Rx Moist Hand Wipes; BH Hand Sanitizer; BINASFRI SANITIZER Clean Hand Care Lemon; BINASFRI SANITIZER Clean Hand Care Mint; BINASFRI SANITIZER Clean Hand Care Rose; BIO VAST DR.CURE CELL NEW CLEAN SAFE Hand; BIO VAST DR.CURE CELL NEW CLEAN SAFE Hand Antifungal; BIOGENIX Hand Sanitizer Gel; BIOMEDIK Premium HAND SANITIZER Gel; BIOMEDIK Premium Hand Sanitizer Gel; BIOMEDIK Premium Hand Sanitizer Mist; BIOPERFECT Hand Sanitizer Wipes (75% Alcohol); BLACK SECRET Wash-free Bacteriostatic Gel; BLDG Antiseptic Hand Sanitizer; BLE Hand Sanitizer; BLOOM HEALTH Hand Sanitizer; BLOW ME by Assholes live forever; BLUE ACME SLEEVE FIRST AID Contains 1000 PIECES; BM002 Plant Voice Hand Sanitizer; BM007 Plant Voice Hand Sanitizer; BM009 Plant Voice Hand sanitizer; BM010 Plant Voice Hand Sanitizer; BM011 Plant Voice Hand Sanitizer; BM012 Plant Voice Hand Sanitizer; BM013 Plant Voice Hand Sanitizer; BM014 Plant Voice Alcohol; BM015 Plant Voice Alcohol Wipes; BOARDWALK Hand Sanitizer; BODY PRESCRIPTIONS 65 PERCENT ALCOHOL ANTIBACTERIAL HAND SANITIZER Peppermint; BODY PRESCRIPTIONS 65 PERCENT ALCOHOL ANTIBACTERIAL HAND SANITIZER Sugar Cookie; BODY PRESCRIPTIONS 65 PERCENT ALCOHOL ANTIBACTERIAL HAND SANITIZER Sweet Pine; BODY PRESCRIPTIONS 65 PERCENT ALCOHOL ANTIBACTERIAL HAND SANITIZER Winterberry; BODY PRESCRIPTIONS ANTIBACTERIAL HAND SANITIZER 2 Pack PEPPERMINT and WINTER BERRY; BODY PRESCRIPTIONS ANTIBACTERIAL HAND SANITIZER DUO Lavender Scented Twisted Berry Scented; BODY PRESCRIPTIONS ANTIBACTERIAL HAND SANITIZER DUO Peppermint Scented Aloe Scented; BODY PRESCRIPTIONS ANTIBACTERIAL HAND SANITIZERS 2 Pack SANITIZERS LAVENDER SCENTED UNSCENTED; BODY PRESCRIPTIONS ANTIBACTERIAL HAND SANITIZERS 2 Pack WILD BERRY SCENTED VANILLA SCENTED; BODY PRESCRIPTIONS ANTIBACTERIAL hand sanitizers 2 Pack STRAWBERRY SCENTED PEACH SCENTED; BODY PRESCRIPTIONS Aloha 65 PERCENT ALCOHOL ANTIBACTERIAL HAND SANITIZER; BODY PRESCRIPTIONS Antibacterial HAND SANITIZER winter berry scented peppermint scented; BODY PRESCRIPTIONS Apple Cider 65 PERCENT ALCOHOL ANTIBACTERIAL HAND SANITIZER; BODY PRESCRIPTIONS Butter Pecan 65 PERCENT ALCOHOL ANTIBACTERIAL HAND SANITIZER; BODY PRESCRIPTIONS Coconut 65 PERCENT ALCOHOL ANTIBACTERIAL HAND SANITIZER; BODY PRESCRIPTIONS Eucalyptus ANTIBACTERIAL HAND SANITIZER; BODY PRESCRIPTIONS Fern 65 PERCENT ALCOHOL ANTIBACTERIAL HAND SANITIZER; BODY PRESCRIPTIONS French Lavender ANTIBACTERIAL HAND SANITIZER; BODY PRESCRIPTIONS Grapefruit 65 PERCENT ALCOHOL ANTIBACTERIAL HAND SANITIZER; BODY PRESCRIPTIONS HAND SANITIZER Moisturizing with VITAMIN E; BODY PRESCRIPTIONS HAND SANITIZER with Aloe Vera; BODY PRESCRIPTIONS Hand Sanitizer Trio CRANBERRY WINTER BERRY PEPPERMINT; BODY PRESCRIPTIONS Lemon Citrus 65 PERCENT ALCOHOL ANTIBACTERIAL HAND SANITIZER; BODY PRESCRIPTIONS Pumpkin Spice 65 PERCENT ALCOHOL ANTIBACTERIAL HAND SANITIZER; BODY PRESCRIPTIONS Rose ANTIBACTERIAL HAND SANITIZER; BODY PRESCRIPTIONS Vanilla 65 PERCENT ALCOHOL ANTIBACTERIAL HAND SANITIZER; BODY PRESCRIPTIONS Vanilla ANTIBACTERIAL HAND SANITIZER; BODY PRESCRIPTIONS Vanilla Almond and Frosted Berry HAND SANITIZER DUO; BOLISI Dispsable Hand Sanitizer; BONANGE Dr,PLUS SANITIZER; BOROUGH THOROUGH Hand Sanitizer; BPI Hand Sanitizer; BQ Pharma Hand Sanitizer; BQ Pharma Hand Sanitizer Fresh Scent; BRIOPPE Hand Sanitizer; BSAFE3 Hand Sanitizer; BSAFE3 Sanitizing; BST99 Instant Hand Sanitizer; BSafe Hand Sanitizer; BT21 Aloe Vera Scented; BUBBLE GUM HAND SANITIZER boy; BUBBLE GUM HAND SANITIZER girl; BUBISON HAND SANITIZER Gel; BURTS BEES Naturally Clean Hand Sanitizer; BY Pure; BYD CARE Hand Sanitizer XD-A04; BYD Hand Sanitizer 75% Ethanol; BYD Hand Sanitizer Aloe and Cucumber; BYD Hand Sanitizer Lavender; BYD Hand Sanitizer Orange and Grapefruit; BYD Hand Sanitizer Universal; BYE BYE GERMS HAND SANITIZER Cranberry; BYE BYE GERMS HAND SANITIZER Pine and eucaluptus; BYE BYE GERMS HAND SANITIZER Sugar Cookie; BYE BYE GERMS HAND SANITIZER Vanilla Sugar; BabingtonSoapCo; Babor Hand Sanitizer; Baby Beluga Instant Hand Sanitizer; Baby Bum Hand Sanitizer; Baby Dove; Baby Shark Antibacterial Wipes; Babyliss Pro Protect Hand Sanitizer; Bac Stop Gel; Bac Stop3a Hand Sanitizer; Bac Stop4a Hand Sanitizer; Bac-off E3; Bac-san; BaciBan; BaciBan Hand Sanitizer; BaciBan Hand Sanitizer Gel; Backdrop Distilling Hand Sanitizer; Backwards Distilling Hand Sanitizer; Bacteda; Bacteria Blaster; Bacteriostatic Sterilizing Gel; Bacti-Free tm Hand Sanitizer; Bacti-Gone; Bactive Hand Sanitizer; Bactro Instant hand sanitizer; Badlands Hand Sanitizer; Bahama Bo Ocean Fresh Hand sanitizer; Bahama Bo s Ocean Fresh Hand Sanitizer; Bahama Bos Hand Sanitizer; Baimianqianshu Hand Sanitizer; BainD Ete Alcohol Gel; Baishichen; Bak-off Hand Sanitizer 70 Percent; Balance Hand Sanitizer; Balanse Nyc Hand Sanitizer; Baltimore Spirits Co Hand Sanitizer; Bama Bio Tech Hand Sanitizer 70 Ethanol LemonGrass Scent; Bama-Bio Tech Hand Sanitizer 75 Ethanol LemonGrass Scent; Bama-Bio Tech Hand Sanitizer 80 Ethanol LemonGrass Scent; Bama-Bio Tech Hand Sanitizer 80 Ethanol Unscented; Banacos Cica Mask; Banana Scent Anti Germ; Barbie Hand Sanitizer; Barbie Hand Sanitizer 0.84 oz; Bare Hands; Bare Knuckle Hand Sanitizer; Bare Republic Bare Hands Citrus Cooler; Bare Republic Bare Hands Vanilla Coco; Bare Soak Hand Sanitizer; Barolon HAND SANITIZER; Barr Hill Hand Sanitizer; Barrell Craft Spirits (R) - Alcohol Antiseptic 80% Topical Solution; Barton and Fitz; Baruo Hand Sanitizer; Basic Care; Basic Solutions Hand SanitizerSpray 4 oz lavender; Basic Solutions Hand sanitizer with moisturizer 1 GAL unscented; Basic Solutions Hand sanitizer with moisturizer 16.9 oz lavender; Basic Solutions Hand sanitizer with moisturizer 2 OZ lemon; Basic Solutions Hand sanitizer with moisturizer 34 oz unscented; Basic Solutions Hand sanitizer with moisturizer 6.3 oz orange; Basic Solutions Hand sanitizer with moisturizer 8.4 oz mint; Basic Solutions Hand sanitizerSpray 8.4 oz orange; Batch 206 Hand Sanitizer; Bath Elements Advanced Hand Sanitizer Coconut; Bath Elements Advanced Hand Sanitizer Lavender; Bath Elements Advanced Hand Sanitizer Lemon Twist; Bath Elements Advanced Hand Sanitizer Pineapple; Batheal Hand Sanitizer; Batman Berry Scented Antiseptic Hand Cleansing; Battle Skin Alcohol Wipes; BattleSkin Hand Sanitizer 16 OZ; Baturals Hand Sanitizer; Bay Rum Valle Verde; Bb1720a Antibacterial Hand Wipes French Lavender Scented; Bb1720b Antibacterial Hand Wipes Cherry Blossom Scented Bb1720b; Bb1720c Antibacterial Hand Wipes Vanilla Almond Scented Bb1720c; Bb1720d Antibacterial Hand Wipes Hawaiian Coconut Scented Bb1720d; Bb1721a 75% Alcohol Based Antibacterial Hand Wipes Aloe Vera Scented Bb1721a; Bb1721b 75% Alcohol Based Antibacterial Hand Wipes Fresh Lemon Scented Bb1721b; Bb1721c 75% Alcochol Based Antibacterial Hand Wipes Lavender Scented Bb1721c; Bb1722a 75% Alcohol Based Antibacterial Hand Wipes Unscented Bb1722a; Bb1722b 75% Alcohol Based Antibacterial Hand Wipes Lavender Scented Bb1722b; Bc3 Hand Sanitizer; Bcp; Bcp Hand Sanitizer; Bd Persist; Be Safe; Be Smart Get Prepared Hand Sanitizer 02; BeCause Antibacterial Hand Jafra; BeSafe Hand Sanitizer; BeSafe Sanitizing Wipes; Bea-Silky; Beach Days Hand Sanitizer; Bearicaid Antiseptic Skin Sanitizing Wipes; BeauHyang Daily Sum Hand Sanitizer Gel; Beautaime Hand Doctor; Beautaime Hand Doctor A; Beautaniq Beauty Hand Sanitizer; Beautifier alcohol wipes 50wipes; Beautifier alcohol wipes 50wipes 01; Beautifuller Hand Sanitizer; Beautimax Hand Sanitizer; Beautos Antibacterial Hand Sanitizer Lemon; Beauty Formation Hand Sanitizer; Beauty Formation Hand Sanitizer Individual; Beauty Industry Group Hand Sanitizer; Beauty Secrets Antiseptic Hand Sanitizer 2oz; Beauty Secrets Antiseptic Hand Sanitizer 8oz; Beauty by Earth Hand Sanitizer; BeautyTreats HAND SANITIZER; Beaver Brand Alcohol Antiseptic 80% Topical Solution Hand Sanitizer Non-sterile Solution; Beaver Cleansing Hand Gel; Beaverkill New York Craft Hand Sanitizer; Bebak Hand Sanitizer Wipes; Bebak Hygiene Hand Sanitizer; Bebak Laboratories Hand Sanitizer; Bebak Laboratories Hygenic Instant Hand Sanitizing Wipe; Bebesup Hand Sanitizer(Ethanol); Bee Clean - Beeswax Hand Sanitizer - Citrus and Peppermint; Bee Clean - Beeswax Hand Sanitizer - Lavender Oil; Bee Safe Hand Sanitizer With Manuka Honey and Lemongrass; BeebeSure Hand Sanitizer 70% 100ml; BeebeSure Hand Sanitizer 70% 500ml; BeebeSure Hand Sanitizer Moisturizing Serum 62% 100ml; BeebeSure Hand Sanitizer Moisturizing Serum 62% 500ml; Bees Hand Sanitizer; Being Well Hand Sanitizer 2 Pack; Beis Advanced Hand Sanitizer (Promotional); Beis Hot Mess Antibacterial Wipes (Promotional); Belar Hand Sanitizer; Bella Maison Coconut Pineapple Antibacterial Hand Sanitizer; Bella Maison Tropical Vanilla Antibacterial Hand Sanitizer; Bells Hand Sanitizer; Belmont Farms Hand Sanitizer; Belson Hand Sanitizer; Belux London Hand Sanitizer with Aloe Vera; Ben E.Keith Hand Cleaner; Ben Sherman Antibacterial Hand Sanitizer Sandalwood Scented; Ben Sherman Antibacterial Hand Sanitizer Suede Scented; Ben Sherman Antibacterial Hand Sanitizer Unscented; Benchmark Fluids Hand Sanitizer; Benchmark Shield; Benchmark Shield Alcohol Wipes; Benchmark Shield Hand Sanitizer; Beneicy Wash Free Antibacterial Hand Sanitizer; Benjamins Hand Sanitizer; Benoa ACM Hand Sanitiser; Benoa Premium Hand Sanitizer; Benyen Hand Sanitizer; Berkley Jensen Instant Hand Sanitizer; Berkley Jensen Instant Sanitizer; Bernal Hand Sanitizer; Bernal Premium Alcohol Wipe; Bernal Premium Hand Sanitizer; Berries and Cream Hand Sanitizer; Berry Blast Anti-Bacterial Scented Hand Sanitizer; Berry Blast Scent Hand Sanitizer; Berry Bliss; Berry Blitz Hand Sanitizer; Berry Hand Sanitizer; Berry Hand Sanitizer with vitamin E and aloe; Berry Kissed hand sanitizer 01; Berry Punch Scented Hand Sanitizer; Berry Scent Anti Germ; Berry Scented Clip On Hand Sanitizer; Berry Scented Hand Sanitizer 01; Berry Sorbet Anti-bacterial Hand Sanitizer; Berry Tart Hand Sanitizer; Besafe; Besafe Hand Sanitizer Gel; Besser Health; Best Accessory Group Cotton Candy Scented Hand Sanitizer; Best Accessory Group Sweet Strawberry Scented Hand Sanitizer; Best Ground Antiseptic Hand Rub; Best Mom Moisturizing Hand Sanitizer, Peony and Cherry Blossom; Best Sister Moisturizing Hand Sanitizer, Tuberose and Jasmine; Best Western Ecossential Antiseptic Hand Wipe 70% Alcohol; Better For Daily Use EAAE Disinfectant; Between the Lines Antibacterial Hand Wipes; Between the lines; Bextera HEALTH HAND SANITIZER; BiOSS Hand Sanitizer; BiOSS Instant Hand Sanitizer; Big Spring Spirits Hand Sanitizer; Billion Dollar Beauty Hand Sanitizer Formulated with Aloe; Bio Force Hand Sanitizer 70%; Bio Fresh Antibacterial Hand Sanitizer; Bio Glow Antiseptic Hand Sanitizer Gel; Bio Hand Sanitizer Ge L; Bio Spectra Attitude; Bio Vast Dr.cure Cell; Bio-Clean sanitizer 236ml 01; Bio-septic; BioArmour Hand Sanitizer Squeeze hose; BioMee Hand Sanitizer; BioMiracle staysafe HAND SANITIZER; BioMiracle staysafe Hand Sanitizing Towelettes; BioPerfect Instant Hand Sanitizer; BioPure; BioPure 75% Alcohol Wipes; BioPure Antibacterial Hand Wipes; BioRestore Hand Sanitizing Wipes; BioSafe Hand Sanitizer; BioSalut Hand Sanitizer Advanced; BioShield 99 Alcohol; BioSilk; BioSilk Hand Sanitizer; BioTech Disinfectant Hand Sanitizer; BioTech Gel Hand Sanitizer; BioTide Antiseptic Hand Sanitizer Gel; BioTide Hand Sanitizer; BioTide Hand Sanitizer Antiseptic Hand Rub; BioYouth Advanced Hand Sanitizer with Moisturizers and Vitamin E; Biocare Labs Clean Hand Sanitizer; Biocef Hand Sanitizer; Biofresh Hand Sanitizer; Biogeno Care Hand Sanitizer Gel (Ethanol); Biolustre ALCOHOL WIPES; Biolustre Disposable Hand Cleansing Gel; Biolustre Hygienic Hand Cleaning Wipes; Biolustre Hygienic Hand Cleansing Gel; Biolustre Liquid Disinfectant; Biomaa Antiseptic hand sanitizer; Biomate Multi-Purpose Alcohol Wipes; Biomax USA HAND SANITIZER; BiomediK Premium Hand Sanitizer gel; BiomediK Premium Hand Sanitizer mist; Biomedisun Hand Sanitizer; Bionamics; Bionet Puri-hands hand sanitizer; Bioplex Plus Hand Sanitizer gel; Bioprotek Advanced Hand Sanitizer; Biopure 50ct Antibacterial Hand Wipes; Biopure Antibacterial Hand Wipes; Biopure multipurpose wipes; Biopure personal protective; Biorell; Bioserica ERA Alcohol Wipes; Biosilk Gardenia; Biosilk Health Beauty; Biosilk Lavender; Biossance Hand Sanitizer; Biotipo Cleanser Antibacterial Antiseptic; Biotipo Pharma Medical Biogel; Biotipo Sanitizing Hand Wipes; Biotop Professional Antiseptic Hand Sanitizer; Biowipes Alcohol Wipes; Biozone; Birthday Cake Anti-Bacterial Scented Hand Sanitizer; Bite and Sting Relief Wipe; Bittol Alcohol Wipes; Bittol Anti-Bacterial Hand Gel; Bklen Hands Sanitizer; Black Cherry Champ Hand Sanitizer; Black Cherry Scented Hand Sanitizer; Black Decker Hand Sanitizer Gel; Black Diamond Distillery Hand Sanitizer; Black Ops 70 Percent Alcohol Foaming Skin Sanitizer; BlackFork Spirits, LLC Hand Sanitizer; Blackberry Vanilla Hand Sanitizer Bodycology; BlancTis Essence tooth whitening gel; BlancTis Forte; BlancTis Forte II tooth whitening; BlancTis Gel; Blaster Hand Sanitizer; Blaum Bros. Distilling Co. Hand Sanitizer; Blend Hand Sanitizer; Bless You; Blinc Antibacterial Sanitizer Moisturizing; Blippi HAND SANITIZER; Bliss; Bliss Gel; Blockout Foot Wipes; Bloody Marys Wicked Hand Sanitizer; Bloom Health Advanced Hand Sanitizer with Moisturizer and Vitamin E; Blossom Antibacterial Hand Sanitizer; Blossom Delight Hand Sanitizer 01; Blow Me; BluZen - Winter Pine, Wintermint, Peppermint - Kit; BluZen Hand Sanitizer; BluZen Hand Sanitizer Kit; Blue Arrow Hand Sanitizer 1 Gallon; Blue Arrow Hand Sanitizer 1.8oz; Blue Arrow Hand Sanitizer 16.9oz; Blue Arrow Hand Sanitizer 2 oz; Blue Arrow Hand Sanitizer 33.9oz; Blue Arrow Hand Sanitizer 8 oz; Blue Cedar Alcohol Wipes; Blue Cedar Hand Sanitizer; Blue Cross Laboratories Hand Rx; Blue Devil Hand Sanitizer; Blue Dragon Hand Sanitizer; Blue Love Hand Sanitizer; Blue Paradise Anti-bacterial Hand Sanitizer; Blue Rasberry Hand Sanitizer; Blue Raspberry Radiance Hand Sanitizer; Blue Sandalwood; Blue Unity Alcohol Wipes; Blue Wave Hand Sanitizer; BlueEarth ANTISEPTIC HAND SANITIZER; Blueberry Sage Scented Hand Sanitizer; Blueberry Scented Hand Sanitizer 01; Blueberry cream Anti-Bacterial Hand Sanitizer; Bluesea Disposable Hand Sanitizer; Bluesea Instant Hand Sanitizer; Bluestem Hand Sanitizer; Blutizer; Blutizer Hand Sanitizer Gel; Bluzen Hand Sanitizer Citrus; Bluzen Hand Sanitizer Lavender; Bluzen Hand Sanitizer Mint; Bluzen Hand Sanitizer Peppermint; Bluzen Hand Sanitizer Unscented; Bluzen Hand Sanitizer Winter Pine; Bluzen Hand Sanitizer Wintermint; Bnc Hand Sanitizer; Bnc Hand Sanitizer Antiseptic; Bocchi Laboratories Liquid Hand Sanitizer; Body; Body Blends Apple Attraction Anti-bacterial Hand Sanitizer; Body Blends Citrus Awakening Anti-bacterial Hand Sanitizer; Body Blends Coconut Lime Escape Anti-bacterial Hand Sanitizer; Body Blends Vanilla Sugar Anti-bacterial Hand Sanitizer; Body Glove For Men Antibacterial Hand Sanitizer Charcoal and Bamboo Scented; Body Glove For Men Antibacterial Hand Sanitizer Tea Tree and Vitamin E Scented; Body Glove For Men Antibacterial Hand Sanitizer Unscented; Body Luxuries Blueberry Scented Waterless Anti Bacterial Hand gel; Body Luxuries Cherry Blossom Waterless Anti-bacterial Hand Sanitizer; Body Luxuries Coconut Vanilla Waterless Anti-bacterial Hand Sanitizer; Body Luxuries Dahlia Blossom Scented Waterless Anti Bacterial Hand gel; Body Luxuries English Pear Antibacterial Hand Sanitizer; Body Luxuries English Pear Scented Waterless Anti Bacterial Hand gel; Body Luxuries French Lavender Antibacterial Hand Sanitizer; Body Luxuries French Lavender Scented Waterless Anti Bacterial Hand gel; Body Luxuries French Lavender Waterless Anti-bacterial Hand Sanitizer; Body Luxuries Fresh Cotton Hand Sanitizer; Body Luxuries Lotus Flower Scented Waterless Anti Bacterial Hand gel; Body Luxuries Moroccan Rose Antibacterial Hand Sanitizer; Body Luxuries Pineapple Mango Waterless Anti-bacterial Hand Sanitizer; Body Luxuries Strawberry Scented Waterless Anti Bacterial Hand gel; Body Luxuries Sweet Lavender Hand Sanitizer; Body Luxuries Tihitian Vanilla Antibacterial Hand Sanitizer; Body Luxuries Waterless Hand Sanitizer; Body Merry Hand Sanitizer Scent Free; Body Prescriptions Antibacterial Hand Sanitizer; Body Prescriptions Antibacterial Hand Sanitizer Duo Coconut Scented Aloe Scented; Body Prescriptions Antibacterial Hand Sanitizer Duo Fresh Berry Scented Grapefruit Scented; Body Prescriptions Antibacterial Hand Sanitizer Duo Lavender and Berries; Body Prescriptions Antibacterial Hand Sanitizer Duo Pack Peppermint Aloe Vera; Body Prescriptions Antibacterial Hand Sanitizer Duo Peppermint Scented Apple Scented; Body Prescriptions Antibacterial Hand Sanitizer Duo Unscented Mint Scented; Body Prescriptions Antibacterial Hand Sanitizer Winter Berry Warm Vanilla; Body Prescriptions Antibacterial Hand Sanitizer Winter Mint Cranberry; Body Prescriptions Antibacterial Hand Sanitizers Cranberry Winter Berry Peppermint; Body Prescriptions Antibacterial Unscented Hand Sanitizer; Body Prescriptions Cucumber Melon 65 Percent Alcohol Antibacterial Hand Sanitizer; Body Prescriptions Eucalyptus 65 Percent Alcohol Antibacterial Hand Sanitizer; Body Prescriptions French Lavender 65 Percent Alcohol Antibacterial Hand Sanitizer; Body Prescriptions Fresh Cotton 65 Percent Alcohol Antibacterial Hand Sanitizer; Body Prescriptions Hand Sanitizer; Body Prescriptions Hand Sanitizer Duo Rose Water Scented Peppermint Scented; Body Prescriptions Hand Sanitizer Trio Spearmint Unscented Citrus; Body Prescriptions Instant Hand Sanitizer Vitamin E; Body Prescriptions Refreshing Hand Sanitizer Unscented; Body Prescriptions Rose 65 Percent Alcohol Antibacterial Hand Sanitizer; Body Prescriptions Vanilla Mint Antibacterial Hand Sanitizer; Body Prescriptions Winter Gardenia 65 Percent Alcohol Antibacterial Hand Sanitizer; Body Prescriptions Winter Mint Antibacterial Hand Sanitizer; Body Raves Antibacterial Hand Sanitizer - Lavender Vanilla; Body Raves Antibacterial Hand Sanitizer - Wild Strawberry; Bodyburden Project Clean Hand Sanitizer Mist; Bodyburden Project First Hand Sanitizer; Bodycology Brown Sugar Vanilla; Bodycology Brown Sugar Vanilla Hand Sanitizer; Bodycology Cherry Blossom Hand Sanitizer; Bodycology Cucumber Melon Hand Sanitizer; Bodycology Enchanted Forest Kit; Bodycology Exotic Cherry Blossom Kit; Bodycology Exotic Cherry Kit; Bodycology Fresh Cucumber Kit; Bodycology Fresh Cucumber Melon Kit; Bodycology Hand Sanitizer Gift Set; Bodycology Moisturizing Hand Sanitizer Brown Sugar Vanilla; Bodycology Moisturizing Hand Sanitizer Cherry Blossom; Bodycology Moisturizing Hand Sanitizer Cucumber Melon; Bodycology Moisturizing Hand Sanitizer Midnight Garden; Bodycology Moisturizing Hand Sanitizer Sweet Petals; Bodycology Moisturizing Hand Sanitzer White Gardenia; Bodycology Sweet Petals; Bodycology Sweet Petals Hand Sanitizer; Bodycology Toasted Vanilla Kit; Bodycology Toasted Vanilla Sugar Kit; Bodycology Vanilla Cupcake; Bodyographypro Anti-bacterial Sanitizing; Bold Wipes Hand Sanitizing Wipes; Boldt Hand Sanitizer; Bon Instant Hand Sanitizer; Bonafide Innovations Gel Hand Sanitizer; Bonafide Innovations Liquid Hand Sanitizer; Bonange Hand Cleaner; Bonita Alcohol Sanitizing; Bonos Hand Sanitizer; Bonscent Hand Sanitizer Basic; Boogoo Hand Sanitizer; Boolicious Antibacterial Hand; Boolicious Antibacterial Hand Sanitizer; Boosietizer; Boosietizer Peach Scent; Borel Antiseptic Hand Sanitizer; Born Basic. Anti-bac Hand Sanitizer 62 Percent; Born Basic. Anti-bac Hand Sanitizer 65 Percent; Born To Shine Hand Sanitizer Candy Apple Scented; Born To Shine Hand Sanitizer Watermelon Scented; Bortek E-3; Bortek E-3 Foaming Hand Sanitizer; Bortek Hand Sanitizer; Bortek Hand Sanitizer Clear; Bortons Ethyl Rubbing Alcohol; Bortons Menticol; Boson; Boston General Store Hand Sanitizer; BotaneCo Hand Sanitizer; BotaniClean; Botanic Tree Hand Sanitizer; Botanic Tree Natural Hand Sanitizer; Botanif Hand Sanitizer; Botanika Australia Aloe Vera Anti Bacterial Hand Sanitizer; Botanika Australia Tea Tree Anti Bacterial Hand Sanitizer; Bothinns Hand Sanitizer Gel; Bourbon Vanilla Hand Sanitizer; Boys Lie Hand Sanitizer; Branders Antiseptic Hand Sanitizer; BrantMed Hand Sanitizer 80% Alc. v/v; Bravo Sierra USA Hand Sanitizer 70% Ethyl Alcohol; Bravo Sierra USA Hand Sanitizing Wipes 65% Ethyl Alcohol; Breathe Hand Sanitizer Gel; Breathe In Breathe Berry; Breeze 70% ALCOHOL ANTIBACTERIAL WIPES; Breeze 70% Alcohol Antibacterial Wipes; Breeze Antibacterial 150 Ml; Breeze Hand Sanitizer With Vitamin E and Aloe Vera; Breeze Sanitizing Berry Fresh Scent; Breeze Sanitizing Citrus Fresh Scent; Breeze Sanitizing Crisp Linen Fresh; Breeze Sanitizing Ocean Fresh Scent; Bright Science Hand Sanitizing Wipes; Brittanies Thyme Lavender and Peppermint Hand Sanitizer; Brizzel; Broadbent Distillery Hand Sanitizer; Brompton and Langley Coconut Water and Habiscus Hand Sanitizer Coconut Water and Habiscus; Brompton and Langley Ginger Lily and Lime Moisturizing Hand Sanitizer ginger lily and lime; Brompton and Langley Green Apple Hand Sanitizer Green Apple; Brompton and Langley Hand Sanitizer; Brompton and Langley Lavender Vanilla Hand Sanitizer Lavender Vanilla; Brompton and Langley Moisturizing Candy and Apple Swirl scented Hand Sanitizer Candy and Apple Swirl; Brompton and Langley Moisturizing Hand Sanitizer Market Strawberry; Brompton and Langley Vanilla Marshmallow Hand Sanitizer Vanilla Marshmallow; Brompton and Langley Zesty Lemon Hand Sanitizer Zesty Lemon; Brookstone Advanced Hand Sanitizer; Brookstone Advanced Hand Sanitizer Aloe; Brookstone Advanced Hand Sanitizer Clear Fresh; Brookstone Advanced Hand Sanitizer Coconut; Brookstone Advanced Hand Sanitizer Invigorating; Brookstone Advanced Hand Sanitizer Lemon Zest; Brookstone Advanced Hand Sanitizer Pink Grapefruit; Brookstone Advanced Hand Sanitizer Refreshing Aloe; Brookstone Aloe Hand Sanitizer; Brookstone Hand Sanitizer; Brookstone Lemon Zest Hand Sanitizer; Brookstone Pink Grapefruit Hand Sanitizer; Bskos Hand Sanitizer; Bt21 Hand Sanitizer; Bts-72; Bubble Gen SprayClean Sanitizer 500ml; Bubble Gen SprayClean Sanitizer 60ml; Bubble Gum; Bubble Gum Hand Sanitizer; Bubble Gum Scent Hand Sanitizer; Bubble Gum Scented Hand Sanitizer 01; Bubble Gum hand sanitizer; Bubble Yum Bubble Gum Hand Sanitizer; Bubbly Suds Aloe Vera Hand Sanitizer; Bubbly Suds Aloe Vera Hand Sanitizer Gel; Bubbly Suds Hand Sanitizer Gel Aloe Vera Green; Bubbly Suds Hand Sanitizer Gel Lavender Dream; Bubbly Suds Lavender Hand Sanitizer; Bubbly Suds Lavender Hand Sanitizer Gel; Bubison Gold Gel (Ethanol) Complete Hand Sanitizer; Buck-U Distillery Quarentine; Buffalo Trace Hand Sanitizer; Bufferin Hand Sanitizer; Bulk Hand Sanitizer; Bullseye Hand Sanitizer; Bully Boy Hand Sanitizer; Burbegel Plus UD; Burger Time Hand Sanitizer; Bus and Classroom Yellow; Business Elite Amenity; Busy and Important GERM CRUSH SANITIZING; Bv Bye Virus 99; Bvg Clean Hand Sanitizer; Bvg Zero Hand Sanitizer; By By Bacter Hand Sanitizer; By Pure Hand Sani; By Pure Hand Sanitizer; By Soak Antiseptic Hand Sanitizer 62 Ethyl Alcohol; Byd Isopropyl Alcohol Sanitizer; Bye Bye Germs HAND SANITIZER Advanced Formula aloe and vitamin E; Bye Bye Germs HAND SANITIZER aloe and vitamin E; Bye Bye Germs OMG All Purpose Sanitizing; Bye Bye Germs OMG Hand Sanitizer Gel; C Kids Hand Sanitizer Gel Wacky Watermelon; C-000001228-064; C-tizers 99.9; C.O.bigelow Hand Sanitizer; C19 Antimicrobial Hand Sanitizer; C2v Line Clear; CACTUS HAND CLEANER gel; CAF Liquid Hand Sanitizer; CAIRS CLEAN PLUS HAND SANITIZER gel; CALI Distillery Hand Sanitizer; CANDO Ultra Hand Sanitizer; CAPILO Hand Sanitizer; CARE ON HAND SANITIZER Gel; CARE Plus 1 LLC Advanced Hand Sanitizer Wipes; CAREONE Antibacterial Sanitizer Fresh Water; CAREONE Antibacterial Sanitizer Limoncello; CAREONE Instant Hand Sanitizer with Aloe and Vitamin E; CAREONE Instant Hand Sanitizer with Moisturizers and Vitamin E; CAREONE Lemon; CAREX Hand Sanitizer; CARNUS HAND SANITIZER - Antibacterial; CARRICARE Premium Hand Sanitizer; CARTE BLANCHE HAND SANIZITER Gel; CB Advanced Hand Sanitizer; CBA All-Clean Hand Sanitizer Gel; CC USA Best 70% Gel Hand Sanitizer; CC USA Best Gel Hand Sanitizer; CCLIMGLAM PERFECT HAND SANITIZER (Ethyl Alcohol); CCLIMGLAM Perfect Hand Sanitizer; CDC70HS Hand Sanitizer; CELLAPHY DERMA SANITIZER HAND Gel; CELLEANSER Secret Mist; CELLINK Disinfectant wipes; CELLINK Hand Sanitizer; CERTAINSUPPLY Moisturizing Hand Sanitizer; CHEMSTAR hand sanitizer 1L; CHEMSTAR hand sanitizer 1L 01; CHI Moisturizing Hand Sanitizer; CIC Antibacterial Unscented Hand Sanitizer Gel; CJ Essentials Citrus hand sanitizer; CJ Essentials Lavender Hand sanitizer; CJ Essentials Vanilla hand sanitizer; CKP SAN-40 Gel; CKP SAN-4I Liq; CLEACE 75% Alcohol hand sanitizer; CLEACE 75% Ethyl Alcohol Antiseptic Hand Sanitizing Wipes; CLEACE 75% Ethyl Alcohol Sanitizer Wipes; CLEACE Alcohol disinfectant; CLEAN ANTISEPTIC HAND SANITIZER wipes; CLEAN HANDS CARE HAND SANITIZER gel; CLEAN TO CARE HAND SANITIZER Gel; CLEAN TO CLEAN HAND SANITIZER Gel; CLEAN TO CLEAN HAND SANITIZER Gel PLUS; CLEAN UP Intensive Hand Sanitizer Gel; CLEAN to CLEAN Hand Sanitizer Gel Plus; CLEAN-US HAND SANITIZER Gel; CLEANZZZIT Wet wipes with 75 Ethyl Alcohol; CLEAR Hani-tizer; CLEGEN Sanitizer; CLIP Hand Sanitizer; CLIP Liquid Sanitizer; CLOROX Hand sanitizer Gel; CO Bigelow Alcohol Hand Sanitizer; COCO gel; COLOR ELEMENT Alcohol Antiseptic Hand Sanitizer 70 Solution; COLOR ELEMENT Antiseptic Hand; COLOR ELEMENT Antiseptic Hand Wipes; COMMON GOOD Hand Sanitizer (Grapefruit); COREYDEE Hand Sanitizer; COSMERIT Hand Sanitizer 1G; COVIDIZER Hand Sanitizer; COVKill Medical Grade Hand Sanitizer; CPI Hand Sanitizer Gel; CPR Hand Sanitizer; CREAMOL HAND SANITIZING WIPES 150 pcs; CREAMOL HAND SANITIZING WIPES 80 pcs; CRS First Defender Hand Sanitizer; CS5412 hand sanitizer; CSI 1 Gallon Hand Sanitizer Gel; CSI 2oz Hand Sanitizer Gel; CSI 4oz Hand Sanitizer Gel; CSI 8oz Hand Sanitizer Gel; CSI E3 Hand Sanitizer; CT-Micro Guard G; CTCA Foaming Hand Sanitizer; CUIR Hand Sanitizer; CVS Antibacterial Sanitizer Gel; CVS Antibacterial Sanitizer Wipes; CVS Decolorized Iodine; CVS Hand Sanitizer; CVS Health All Purpose Kit; CVS Health Hand Sanitizing Wipes; CVS Health Healing on the Go Kit; CVS Health Prebiotic Sanitizer; CVS Iodine; CVS Pharmacy FOAM HAND SANITIZER WITH ALOE; CVS Pharmacy Instant Hand Sanitizer With Aloe And Vitamin E; CVS Pharmacy Instant Hand Sanitizer With Moisturizers And Vitamin E; CVS Spray-On Hand Sanitizer; CVS pharmacy Instant Hand Sanitizing Wipes; Cabana Bay Beach Resort Hand Sanitizer Gel; Cabeau Sanitizer To Go; Cactus Hand Cleaner; Caesars Rewards Sanitizer; Cajun Spirits Hand Sanitizer; Cala Advanced Hand Sanitizer; Cala Advanced Hand Sanitizing Tissues; Cala Hand Sanitizer; Cali Distillery Gel Hand Sanitizer; Calidad Premium Fresh Antibacterial; Calily Hand Sanitizer; Callicos Hand Gel Sanitizer; Callicos Safe Good Hand Gel; Callicos Safe Good Hand gel; Calm Birch Alcohol Sentinel; Calming Hand Sanitizer; Calpak; Cando Hand Sanitizer; Candy Apple; Candy Apple Scented Anti-bacterial Hand Gel; Candy Apple Scented Antibacterial Hand Sanitizer; Candy Cane; Candy Coated Apple Anti-Bacterial Scented Hand Sanitizer; Candy Coated Apple Scented Anti-Bacterial Hand Sanitizer; Candy Coated Apple anti-bacterial SCENTED HAND SANITIZER; Candy Cutie Hand Sanitizer; CandyLand Hand Sanitizer CL 200; CandyLand Hand Sanitizer CL100; CandyLand Hand Sanitizer CL102; Candyland Berry Lollipop Hand Sanitizer; Candyland Hand Sanitizer and Lip Balm; Canpaco Hand Sanitizer; Canyon Diablo Spirits Hand Sanitizer; Capewest Waterless Gel Sanitizer; Capizonne Hand Sanitizer; Capri Blue Volcano Hand Sanitizer; Cardinal Health Hand Sanitizer with Aloe; Cardinal Health Sanitizer; Care; Care 1; Care 2020 Advanced Hand Sanitizer; Care Bears; Care Bears Cotton Candy Antiseptic Hand Cleansing; Care Bus and Classroom Yellow; Care One Antibacterial Peppermint Swirl; Care One Antibacterial Rum Raisin; Care One Antibacterial Snow Kissed Pear; Care One Antibacterial Tangerine Spice; Care One Creamy Coconut; Care One Instant Sanitizer; Care One Lemon Verbena; Care One Peppermint Swirl; Care One Pine; Care One Pumpkin Pie; Care One Sun Kissed Pear; Care One Vanilla Apple Blossom; Care One Vanilla Bean; Care Plus Hand Sanitizer; Care Plus Hand Sanitizer 16oz; Care Plus Hand Sanitizer 8oz; Care Tissue; Care Touch Hand Sanitizer 500ml; Care Touch INSTANT HAND SANITIZER; Care plus issue; Care1; CareCom Hand Sanitizer; CareOne Country Apple; CareTouch; CareTouch SANITIZING HAND WIPES; CareTouch Sanitizing Hand wipes; Careme; Careone; Careone Aloe Vitamin E Hand sanitizer; Careone Aloe and Vitamin E Hand Sanitizer; Careone Antibacterial Hand Sanitizer Festival Of Lights; Careone Antibacterial Hand Sanitizer Mistletoe Kisses; Careone Antibacterial Hand Sanitizer Pumpkin Roll; Careone Antibacterial Hand Sanitizer Seasons Greetings; Careone Antibacterial Hand Sanitizer Winter Sky; Careone Antibacterial Sanitizer Gingerbread House; Careone Antibacterial Sanitizer Pecan Pumpkin Pie; Careone Antibacterial Sanitizer Peppermint Candy; Careone Apple Berry; Careone Instant Hand Sanitizer With Aloe and Vitamin E; Careone Lemon Meringue Hand Sanitizer; Careone Lime Basil; Careone Tahitian Coconut; Careone Vanilla Buttercream Hand Sanitizer; Careone Vitamin E Hand Sanitizer; Careone Vitamin E Hand sanitizer; Caresour Alcohol Wipes; Caresour Instant Hand Sanitizer; Caretouch Sanitizing Hand Wipes; Carlotta Instant Hand Sanitizer; Carnus Hand Sanitizer Wipes; Carson S Nut-bolt Tool Hand Sanitizer; Casa Limpia by insular Instant Hand Sanitizer; Case Solutions Hand Sanitizer; Casey Products; Catoctin Creek Hand Sanitizer; Cavalry; Cavalry Hand Sanitizing; Cayuga Ingredients Hand Sanitizer; Cbdq.(9) Hand Sanitizer; Celgen Save My Hands; Cellapy Cleantech Derma Sanitizer; Cellapy Cleantech Derma Sanitizer-alcohol-gel; Cellapy CleantechGel Derma Sanitizer; Cellapy Derma Moisture Sanitizer; Cellapy Dr Sanitizer; Cellapy Dr Sanitizer 25mL; Cellapy Pure Derma Sanitizer; Cellink Sanitizing Wet Wipes; Cellskin Clean Pine; Cellskin The Clean Hand Sanitizer; Celox Antiseptic; Celox Ultra; Celraum Forest Perfect Hand Cleaner; Centecassol S.O.s Sanitizer; Center for Applied Innovation LLC Hand Sanitizer; Centric Antibacterial Spray-On Hand Sanitizer; Centricity/STAR Products Hand Sanitizer; Centroll NAP ADVANCED Hand Sanitizer Gel; Centroll NAP ADVANCED Hand SanitizerSpray; CeraVe Antiseptic Hand Sanitizer; Cerberus Hand Sanitizer Gel; Cerberus Hand Sanitizing Gel; Certainsupply Alcohol Wipes; Certus Recens A; Chaffee County Hand Sanitizer; Chai Latte Scented Clip On Hand Sanitizer; Chai Latte Scented Hand Sanitizer; Champ; Champagne Hand Sanitizer; Champion 80; Chantecaille Rose Geranium and Basil Hand Sanitizer; Charcoal FIltered Gel Hand Sanitizer; Charlie girl Blueberry Antibacterial Hand Sanitizer; Charlie girl Grape Antibacterial Hand Sanitizer; Charlie girl Strawberry Antibacterial Hand Sanitizer; Checker Antibacterial Hand; Checker Antibacterial Hand Alcohol Antiseptic 70; Checker Antibacterial Hand Antiseptic Alcohol 70; Checkers Hand Sanitizer Gel; Cheeky Fresh; Cheerful Choco Orange Hand Sanitizer; ChemStation E3 Hand Sanitizer; Chemco Anisha K. Instant Skin Sanitizer; Chemical Guys EIGHTYAID Hand Sanitizer 80% Alcohol Antiseptic Wild Pear Scent; Chemisphere Hand Sanitizer; Chemstar Retail Hand Sanitizer; Chemstar Sterilox Fresh Hand Sanitizer; Chemstation Hand Sanitizer; Chemstation Hand Sanitizing Gel; Cheracol Cough Syrup; Chereskin Hand Sanitizer; Cherry Blossom Scented Antiseptic Hand Sanitizer 80 Ethyl Alcohol; Cherry Blossom Scented Hand Sanitizer; Cherry Blossom Scented Hand Sanitizer 01; Cherry Blossom Waterless Anti-Antibateria Hand Sanitizer; Cherry Coconut Hand Sanitizer; Cherry Hand Sanitizer Boy; Cherry Scented Hand Sanitizer 01; Cherry scented hand sanitizer 01; Chimborazo Hand Sanitizer; Chinese Mugwort Antibacterial Sprays of Yishiyuan; Chobs-ready To Hand Sanitizer; Choco Mallow Melt Hand Sanitizer; Choctaw Hand Sanitizer; Choice Hand Sanitize; Chopima Hand Sanitizer; Christmas City Spirits Hand Sanitizer; ChromaCleanse Hand Sanitizer; Chronicles Distilling Hand Sanitizer; Chung Sol Disinfection Ethanol; Chupa Chups Hand Sanitizer; Cida Wipes; Cida-rinse Antiseptic Towelettes; Cida-rinse Gel; Cida-rinse Liq 70%; Cindelight Gel; Cinital Hand Sanitizer; Cinnamon Bark Hand Sanitizer; Cinnamon Bark Sanitizer; Cinnamon Sugar; Cinnamon Sugar Scented Hand Sanitizer; Ciphands Natural - Hand Sanitizer; Circle K Hand Sanitizer; Citadel PPE Hand Sanitizer; Citizen Sanitizer 70% EtOH; Citri-Sani70 Sanitizer; Citrus; Citrus Crush Scent Hand Sanitizer Panda; Citrus Crush Scent Hand Sanitizer Robot; Citrus Grove; Citrus Hand Sanitizer; Citrus Hand Sanitizer with vitamin E and aloe; Citrus Hand Sanitizing Gel; Citrus Scented Hand Sanitizer; Citrus Scented Hand Sanitizer Pen; Citrus Sparkle; Citrus Sunshine; Citrus scented hand sanitizer 01; Citylizer HAND SANITIZER ANTIMICROBIAL Gel; Citywipes 75% Alcohol Wipes; Ckp San-32; Ckp San-33; Claires; Claires Fancy Nancy Antibacterial Glamourous Grape; Claires Fancy Nancy Antibacterial Strawberry Parfait; Clairfore Natural Antibacterial SanitizerSpray; Clara Instant Waterless Hand Sanitizer; Claree; Clario Foaming Alcohol Instant Hand Sanitizer; Clario Instant Hand Sanitizer; Clarks Botanicals Hand Sanitizer; Classy Hand Sanitizer; Classy Hand Sanitizer Gel; Claudia Elaine Hand Sanitizer; Clayr; Clea Fantasy Alcohol Wipes; Cleace; Cleace 75% Alcohol Hand Sanitizer; Cleace 75% Ethyl Alcohol Disinfectant; Cleace disinfectant; Clean 19; Clean Advanced Hand Sanitizer; Clean All; Clean All Gel Hand Sanitizer; Clean All Gel Hand Sanitizer Fresh Linen; Clean And Fresh F; Clean And Fresh S; Clean And Hand; Clean Care (Elements) Hand Sanitizer; Clean Care Fresh Hand Sanitizer (Ethanol gel); Clean Care Hand Sanitizer; Clean Care Hand Sanitizer Tissue; Clean Care Plus Hand Sanitizer; Clean Care Plus Sterilize Wipes; Clean Choice Alcohol Sanitizer; Clean Day Hand Sanitizer; Clean Drops Hand sanitizer; Clean Force; Clean Hand Raume; Clean Hand Sanitizer; Clean Hand Sanitizer Mist; Clean Hands; Clean Hands Antibacterial Hand Sanitizer; Clean Hands Matter; Clean Hands Matter Hand Sanitizer; Clean Hands Sanitizer; Clean Hands Sanitizing Gel; Clean Hands Wash Without Water; Clean House Labs Hand Sanitizer; Clean It Fresh Water Ge L; Clean Machine; Clean Monster Lavender Peppermint Hand Sanitizer; Clean N Fresh; Clean N Fresh 01; Clean N Fresh 02; Clean N Fresh Hand Sanitizer; Clean N Fresh Instant Hand Sanitizer; Clean N Fresh Instant Hand Sanitizer Antibacterial; Clean N Fresh Instant Hand Sanitizer with Aloe; Clean On Hand Sanitizer; Clean On Hand Sanitizer Plus; Clean Queen Hand Sanitizer; Clean Revolution; Clean Revolution Hand Sanitizer - Free of Artificial Fragrances; Clean Rx; Clean Rx Sanitizing Wipes; Clean Rx Wipes; Clean Sept Alcohol Antiseptic 70% - Topical Hand Sanitizer Non-Sterile Gel; Clean Sept Alcohol Antiseptic 70% Hand Sanitizer; Clean Simple Hand Sanitizer; Clean Skin Sanitizer; Clean Snaps; Clean Supply; Clean Supply Hand Sanitizer; Clean Swipe; Clean To Clean Hand Sanitizer; Clean Towel Sanitizing Cloth; Clean Up by KaTom Hand Sanitizer; Clean Wash Hand Sanitizer; Clean Works Hand Sanitizer Antibacterial; Clean Works Hand sanitizer; Clean X Premium Instant Hand Cleanser; Clean Xpress Alcohol Gel Instant Skin Sanitizer; Clean aid antibacterial hand sanitizer; Clean and Care Hand Sanitizer; Clean and Fresh S; Clean and Fresh Sanitizer; Clean and Hand Gel; Clean and Pure Hand Sanitizer Gel; Clean and Soft Moisturizing Hand Sanitizer; Clean hand sanitizer; Clean is In Hand Sanitizer Antiseptic Foam; Clean is the New Chic Hand Sanitizer; Clean is the New Chic Hand Sanitizer Hand Wipe; Clean n Fresh Hand Sanitizer Advanced; Clean to Clean Hand Sanitizer; Clean up Perfect Fresh Pure Hand; Clean works Hand Sanitizer; Clean-R; Clean-n-Fresh; CleanAll Plus Hand Sanitizer; CleanBoss Hand Sanitizer; CleanBoss Hand Sanitizing Gel; CleanFreak; CleanGenic 1 GALLON HAND SANITIZER; CleanGenic 8 OZ HAND SANITIZER; CleanGenic Foaming Hand Sanitizer; CleanMAMA Hand Clean; CleanMAMA Hand Clean Mist; CleanMAMA Hand Sanitizer gel; CleanQ Antimicrobial Hand Purifier; CleanSafe Hand Sanitizer; CleanShot Gel Hand Sanitizer; CleanSpirit Co.; CleanUp Hand Sanitizer; Cleands Hand Sanitizer; Cleanest Co Hand Sanitizer; Cleango Greengo Hand Sanitizer 70 Percent; Cleaninful Instant Hand Sanitizer; Cleaning Antibacterial Wipes; Cleanly Hand Sanitizer; Cleanly N5 75% Alcohol hand sanitizer 236ML; Cleanly N5 Sanitizer wipes 20pcs; Cleanology Advanced Hand Sanitizer; Cleanova Gel Hand Sanitizer; Cleanpak Products INSTANT HAND SANITIZER; Cleanse; Cleanse Hand Sanitizer; Cleanse pure; Cleansense Hand Sanitizer; Cleansified; Cleansing Disinfection Wipes; Cleansing Hand Sanitizer; Cleanslate; Cleanslate Hand Sanitizer; Cleanslate Moisturizing Foaming Hand Sanitizer Lemon; Cleanze Hand Sanitizing; Clear Defense; Clear Defense Citrus Sage; Clear Defense Citrus Sunrise; Clear Defense Glacial Ice; Clear Defense Hand Sanitizing Wipes; Clear Defense Harvest Apple; Clear Defense Maui Melon; Clear Germ Hand Sanitizer; Clear Hand Sanitizing; Clear Hands Sanitizing; ClearClean Safe; ClearGuard Hand Sanitizer; ClearSolv Hand Sanitizing Gel; ClearSolv Liquid Hand Sanitizer; ClearZone Hand Sanitizer; Clearly Better; Clearly Ear Serum; Clementine Hint Hand Sanitizer; Clenera Hand Sanitizer Gel; Clenova Gel Hand Sanitizer; Clenova Hand Sanitizing Station Refill; Clensil; Clere Coconut Lime Hand Sanitizer; Clere Hand Sanitizer; Clere Lavender Hand Sanitizer; Clever Choice HAND SANITIZER; Clinch River; Clinical Works Cucumber Melon Waterless Hand Sanitizer; Clinical Works Lavender Blossom Waterless Hand Sanitizer; Clinical Works Ocean Breeze Waterless Hand Sanitizer; Clinical Works Pink Grapefruit Waterless Hand Sanitizer; Clinishield Instant Hand Sanitizer; Clip-N-Go Hand Sanitizers; Clisen; Clobal Care Instant Hand Sanitizer 1.8oz; Clorox Antimicrobial Hand Sanitizer; Clorox Care Concepts Hand Sanitizer; Clorox Hand Sanitizer; Clorox HealthCare GBG AloeGel Instant Hand Sanitizer; Clorox Healthcare GBG AloeGel; Cloud9 Hand Sanitizer S; Cloudz instant hand sanitizer; Club Donatello Hand Sanitizer; Clutch Antiseptic Hand Sanitizer; Cmj Brothers Hand Sanitizer; CnK Circulation-Spray Clean Sanitizer (500ml); CnK Circulation-Spray Clean Sanitizer (60ml); Cnd Cool Blue; Co Bigelow; Co-protect Hand Sanitizergel; CoLaboratory Hand Sanitizer; CoSo HEALTH HAND SANITIZER Green Tea; Coastal Hand Sanitizer Gel; Cocoearth Hand Sanitizer; Cocohoneynatural Hand Sanitizer; Coconut Anti Bacterial Hand Sanitizer; Coconut Antibacterial Hand Sanitizer; Coconut Lime; Coconut Lime Anti-Bacterial Hand Sanitizer; Coconut Lime Antibacterial Hand Sanitizer; Coconut Lime Antibacterial Sanitizer; Coconut Lime Scented Hand Sanitizer; Coconut Macaroon Hand Sanitizer; Coconut Scented Hand Sanitizer; Coconut Scented Hand Sanitizer Pen; Coconut Tuberose; Coconut Vanilla Hand Sanitizer; Coconut Water Scented Hand Sanitizer; Coconut and Lime Scented Hand Sanitizer; Code All Clear Hand Sanitizer; Code Blue Disinfecting Wipes; Code One; Code Z Blue Sage Sanitizer Mist; Code Z Citron Sanitizer Mist; Code Z Eucalyptus Sanitizer Mist; Code Z Korean Blackberry Sanitizer Mist; Codi HAND SANITIZER; Cojbl Hand Sanitizer; Cokoreal Hand Sanitizer Gel; ColemanHand Sanitizer Hand Sanitizer; Colemerg 75 Alcohol Sanitizing; Colemerg Premium Sanitizing Wipes; Colemerg Sanitizing Wipes; Colloid 5010 S; Colloid 5050 G; ColognAid Hand Sanitizing FOREST; ColognAid Hand Sanitizing GREEN TEA; ColognAid Hand Sanitizing LIME BERGAMOT; Color Element Advanced Hand Sanitizer; Color Element Advanced Hand Sanitizer with Moisturizers and Vitamin E; Color Element Alcohol Antiseptic Hand Sanitizer 75; Color Element Antibacterial Hand Sanitizer with Moisturizers and Vitamin E; Color Element Antibacterial Wipes; Color Element Antibacterial Wipes Saturated with 75 Ethyl Alcohol; Color Element Antiseptic Hand wipes saturated with 75 Ethyl Alcohol; Color Element Hand Sanitizer with Moisturizers and Vitamin E; Colorrose Hand Sanitizer; Colossus; Come Clean Babe Hand Sanitizer Duo Pack; Comes In Handy by Julep Antibacterial Hand 24OZSanitizer; Comes In Handy by Julep Antibacterial Hand Sanitizer; Comes In Handy by Julep Hand Sanitizer; Comes In Handy by Julep Hand Sanitizer 24OZ; Comes in Handy by Julep Antibacterial Hand Sanitizer; Comfort and Mercy Hand Sanitizer; Comix Alcohol Hand Sanitizer; Comix Alcohol Wipes; Comix Hand Sanitizer; Command AntiBac Instant Hand Sanitizer; Common Sense; Commonwealth Creamy Coconut Hand Sanitizer; Commonwealth Creamy Coconut Hand Sanitizer Gel; Commonwealth Fragrance Free Hand Sanitizer Gel; Commonwealth Hand Sanitizer Gel; Commonwealth Lemon Fresh Hand Sanitizer Gel; Commonwealth Pumpkin Spice Hand Sanitizer; Commonwealth Pumpkin Spice Hand Sanitizer Gel; Compact Hand Sanitizer; Companion Hand Sanitizer; Compass 70% Ethanol Hand Sanitizer Gel with Citrus; Compass 70% Ethanol Hand Sanitizer Gel with Lavender; Completely Clean Hand Sanitizer; Compound Alcohol Hand Disinfection Gel; Compound Benzoin Tincture; Compound Benzoin Tincture USP; Conditioning Hand Sanitizer; Conquer Clean 2 oz Hand Sanitizer; Constellation Brands Hand Sanitizer; Contact Instant Antiseptic Hand Sanitizer; ContaminX; ConveniCare; Cool Breeze HAND SANITIZER; Cool Clementine anti-bacterial SCENTED HAND SANITIZER; Cool Mint Antiseptic Mouthwash; Cool Mint Scented Antibacterial Hand Sanitizer; Coola Bare Hands By Bare Republic Hand Sanitizer; Cootie Killer Hand Sanitizer; Copperworks Hand Sanitizer; CoreTex Antibacterial Hand Sanitizer; CoreTex Professional Outdoor Skin Protection Wallet; Coretex Hand Sanitizer; Corona Plus; Corono Premium Hand Sanitizer With Aloe; Corpostar Hand Sani Wipe; Corsair Antiseptic Hand Rub; Cortex Antibacterial Had Sanitizer; Cosco Hand Saniitizer 80%; Cosforu Safe Hand Sanitizer; Cotton Blossom Waterless Anti-Antibateria Hand Sanitizer; Cotton Candy; Cotton Candy Hand Sanitizer; Cotton Candy Scented Anti-bacterial Hand Gel; Cotton Candy Scented Antibacterial Hand Sanitizer; Cotton Candy Scented Hand Sanitizer; Cotton Candy Scented Hand Sanitizer 01; Cotton Soft; Cotton candy anti-bacterial SCENTED HAND SANITIZER; Cotton candy scented hand sanitizer 01; Cottonwood Sanitizer; Cottonwood Sanitizer Gel; Coty Hand Sanitizer Non-Sterile Solution Alcohol Antiseptic 80% Topical Solution; Cougar Clean Hand Sanitizer; CovaNil Hand Sanitizer; Covclean 75% Ethyl Alcohol Hand Sanitizer; CoverMe Hand Sanitizer; Covex Antibacterial Hand Sanitizer, COOL BREEZE; Covex Antibacterial Hand Sanitizer, FRESH ALOE; CoviGel; CoviSan; Covidex; Covidizer Hand Sanitizer; Cpr Hand Sanitizer; Cranberry Cake; Cranberry Cherry Scented Hand Sanitizer; Cranberry Chill Hand Sanitizer; Cranberry Crush Hand Sanitizer; Cranberry Crush Hand Sanitizer Gel; Cranberry Garland; Cranberry Hand Sanitizer; Cranberry Vanilla Scented Antibacterial Hand Sanitizer; Crane Safety Hand Sanitizer; Craze Naturals; Crazy Aarons Hand Sanitizer 68% Alcohol; Crazy Clean Hand Sanitizer - Berry Swirl; Crazy Clean Hand Sanitizer - Blue Raspberry; Crazy Cleanz Hand Sanitizer; Crazy Cleanz Hand Sanitizer - Frosted Strawberry; Crazy Cleanz Hand Sanitizer - Unscented; Crazy Cleanz Hand Sanitizer - Vanilla Swirl; Crazy Cleanz Hand Sanitizer Berry Swirl Scented; Crazy Cleanz Hand Sanitizer Blue Raspberry Scented; Crazy Cleanz Hand Sanitizer Frosted Strawberry Scented; Crazy Cleanz Hand Sanitizer Strawberry Scented; Crazy Cleanz Hand Sanitizer Vanilla Swirl Scented; Crazy Coconut; CrazyCleanz Hand Sanitizer Strawberry; Cre8tion HAND SANITIZER; Creamol Alcohol Wipes; Creamol Hand Sanitizer Wipe; Creamol Hand Sanitizing Wipe; Creamsicle Hand Sanitizer; Creamy Cappuccino Hand Sanitizer; Creations Garden Pomegranate Hand Sanitizer; Creative Essences Hand Sanitizer; Credit Card Shape Hand Sanitizer; Creme 21 Antibacterial Turmeric Hand Sanitizer Gel; Creme 21 Hand Sanitizer; Creme 21 antibacterial sanitizer; Creme 21 hand sanitizer germ protection with aloe vera and glycerin; Creme21 Antibacterial Ultra Protect Sanitizer; Creme21 kit pack; Creme21 ultra protect travel kit; Crew Care Anti Bacterial Hand Sanitizer, Ethanol; Crimson Hand San; Crisp Apple Hand Sani; Crisp Evergreen; CrocodileCloth Hand Sanitizer; Crooked Creek Distillery Inc Hand Sanitizer; Crossco Antiseptic Hand Sanitizer; Crown Solutions Instant Hand Sanitizer Gel; Crystal Clean Instant Hand Sanitizer; Crystal Ridge Hand Sanitizer; Cskin Hand Sanitizing Wipe; Cubre T Hand Sanitizer; Cubrete Antiseptic Hand Sanitizer; Cucumber Hand Gel 70% ETOH (v/v); Cucumber Melon Antibacterial Sanitizer; Cucumber Melon Hand Sanitizer; Cucumber Melon Scented Antibacterial Hand Sanitizer; Cucumber Melon Scented Hand Sanitizer; Cucumber and Melon Scented Hand Sanitizer; Cupcake; Cupcake Scented Anti-bacterial Hand Gel; Cupcake Scented Hand Sanitizer; Curaloe Hand Sanitizer; Curative Biocentric Antiseptic Hand Sanitizer; Cure Well Advanced Hand Sanitizer; Custom Quest Hand Sanitizer; CustomQuest Instant Hand Sanitizer with Aloe Vera; CustomQuest instant Hand Sanitizer with soothing Aloe Vera; Cut Spike Hand Sanitizer; Cutter Brand Foaming Hand Sanitizer; Cutter Brand Hand Sanitizer; Cvs Health Continuous Hand Sanitizer; Cvs Pharmacy Aloe; Cvs Pharmacy Anti-aging Hand Sanitizer; Cvs Pharmacy Hand Sanitizer Aloe; Cvs Pharmacy Instant Hand Sanitizer Fresh Scent; Cvs Pharmacy Instant Hand Sanitizer With Moisturizers and Vitamin E; Cvs Pharmacy With Vitamin E; Cyber Clean Hand Sanitizer Wipes Eucalyptus; Cyber Clean Hand Sanitizer Wipes Grapefruit; Cyber Clean Moisturizing Hand Sanitizer Eucalyptus; Cyber Clean Moisturizing Hand Sanitizer Grapefruit; Cyber Clean Moisturizing Hand Sanitizer Lavender; Cyber Clean Moisturizing Hand Sanitizer Lemon; Cyber Clean Moisturizing Hand Sanitizer Orange Blossom; Cyber Clean Moisturizing Hand Sanitizer Vanilla; Cyber Clean Moisturizing Hand SanitizerSpray Eucalyptus; Cyber Clean Moisturizing Hand SanitizerSpray Grapefruit; Cyber Clean Moisturizing Hand SanitizerSpray Lavender; Cyber Clean Moisturizing Hand SanitizerSpray Lemon; Cyber Clean Moisturizing Hand SanitizerSpray Orange Blossom; Cyber Clean Moisturizing Hand SanitizerSpray Vanilla; Cyber Clean Power Sanitizing Wipes; Cyber Clean Power SanitizingSpray; Cyber Clean Power gel; Cyber Clean Professional Power Swabs; D S; D-Germ Hand Sanitizer; D-therapino One Step Hand Sanitizer Mist; D.therapino Hand Cleaner Speed Gel; D.therapino Kamoo Hand Sanitizer; D.therapino One Step Hand Sanitizer; DAENG GI MEO RI KI GOLD PREMIUM HAND SANITIZER gel; DB Care; DC Batman Moisturizing Hand Cleanser with Alcohol Dark Forest; DC HUDABeauty 75% Alcohol Hand Rinse Free Disinfectant; DC Robin Moisturizing Hand Cleanser with Alcohol Amber and Ginseng; DC Superman Moisturizing Hand Cleanser with Alcohol Aqua; DC Wonder Woman Moisturizing Hand Cleanser with Alcohol Jasmine and Indigo; DC hand sanitizer 01; DCR Labs Hand Sanitizer; DDM Decolorized Iodine; DDM Iodine Tincture Mild; DEARDERM SPEED gel Vitamin C Hand Sanitizer; DEFENDER Foaming Hand Sanitizer; DEQGEL Advanced Hand Sanitizer; DERMASCO Clean and Fresh Hands Sanitizing; DETRODERM SOFT geL HAND AND SKIN ANTISEPTIC; DEVA max Antiseptic Hand Sanitizer; DGP High Performance Hand Sanitizer; DGP High Performance Hand Sanitizer Gel; DIBAR LABS Hand Sanitizer; DIGISAN Healthcare; DIIZ Hand Sanitizer; DISINFECTION HAND SANITIZER GEl; DISNEY Stitch Hand Sanitizer; DMI Cosmetics Wash Me Hand Sanitizer; DMM Vission Hand Sanitizer Alcohol; DMS Coalition Hand Sanitizer; DND hand sanitizer 3.78L; DOCTOR HAND FRESH Gel; DOCTOR HAND FRESS Gel; DOCTORS TOUCH Hand Sanitizer; DOP Hand Sanitizer; DP Floral rose scented hand sanitizer 01; DP strawberry scented hand sanitizer 01; DPC Daily Purify Hand Sanitizer Gel; DR CLINIC ANTISEPTIC HAND Gel; DR Hydrocell Phytoncide Clean; DR JEFF Hand Sanitizer; DR. WONJIN Hand Safer Sanigel; DR.DAVEY Hand Sanitizer; DR.HEAL Disinfecting Alcohol Wipes; DROP THE BOMB Hand sanitizer single use packet; DS Hancle Antiseptic Hand Sanitizer; DSC Hand Sanitizer with 70 Alcohol; DYPER Hand Sanitizer; Daesi; Daeyu Hand Sanitizer Gel; Daeyu Hand Sanitizer Pure Gel; Daily Advanced Hand Sanitizer; Daily Purify Care Hand Sanitizer Gel; Daily Touch Hand Sanitizer; Daily essentials antibacterial hand sanitizer Aloe Vera Scented; Daily essentials antibacterial hand sanitizer Lavender Scented; DailyGard Hand Sanitizer PE bottle (pump top); DailyGard Hand Sanitizer PE bottle (screw cap); DailyGard Hand Sanitizer PET bottle w/ screw cap; DailyGard Hand Sanitizer Squeeze hose; DailyGard Wipes 75 Percent Ethyl Alcohol; Dailycare Antibacterial Hand Sanitizer Original Unscented; Dailycare hand sanitizer Ocean Breeze Scented; Daisy Blossom Antibacterial Hand Sanitizer; Daisy DND; Daisy DND Lavender scent hand sanitizer; Daisy DND with Aloe Vera Scent; Dalis HAND SANITIZER; Dalmacol; Dalpro Hand Sanitizer Non Sterile; Dark Island Spirits New York Strong; Dashfire Hand Sanitizer; DawnMist Alcohol Gel Hand Sanitizer; DawnMist Alcohol Hand Sanitizer; DayClear Hand Sanitizer; DayClear Hand Sanitizer Gel; Daycon Essentials Hand Sanitizer; Daylogic Advanced Hand Sanitizer Refill; De La Cruz Decolorized Iodine; De La Cruz Tincture of Iodine; DeLeon Hand Sanitizer; Dead Lightning - Hand Sanitizer; Dead Sea Collection Instant Hand Sanitizer; Dearderm ALOE SANI WIPES; Deb InstantFOAM Alcohol Hand Sanitizer; Deb InstantFOAM Complete; Deb InstantFoam Alcohol Sanitizer; Deb Med InstantFOAM Hand Sanitizer; Deb Med InstantFOAM OptiDose Hand Sanitizer; Decolorized Iodine; Decon Hand Instant Hand Sanitizer; Decon-E Antiseptic Hand Sanitizer; Deep Fresh Antibacterial Hand Gel; Deep Fresh Antibacterial Hand Sanitizer Gel; Deep Fresh Antibacterial-Antiseptic Disinfectant; Deep Fresh Antiseptic Alcohol Wipes; Deep Fresh Antiviral Alcohol Wipes; Deep Steep Fragrance Free Hand Sanitizer; Deep Steep Passion Fruit Guava Hand Sanitizer; Defend Hand Sanitizer; DefendMax Hand Sanitizer; DefendMax Sanitizing Wipes; DefendX Hand Sanitizer; Defender Collection; Defender Hand Sanitizer; Defender Hand Sanitizer 0; Defender Repellant Foam Hand Sanitizer; Defender Repellant Hand Sanitizer; Defender Repellant Hand Sanitizer Gel; Defendr Antibacterial Wipes; Defendr Be Mine Hand Sanitizer; Defendr Hand Sanitizer; Defendr Love Hand Sanitizer; Defense AG Disinfectant; Defense Ag; Defense Zone Advanced Had Sanitizer; Defense Zone Hand Sanitizer; Define Health Alcohol Wipes; Defnse Antiseptic Hand Sanitizer; Degasa Hand Sanitizer Lemon Lime Scent; Dehydrated; Dehydrated Alcohol; Dehydrated Alcohol Injection; Dehydrated Alcohol Injection USP; DelAmo Hand Sanitizing Gel; DelSan; DelSan Aloe; DelSan Hand Sanitizer with Vitamin E; DelSan Lavender; DelSan Refresh; Delille Oxygen 3C Hand Sanitizer; Deljine Hand Sanitizer; Deljine Hand Sanitizer gel; Delli Clean Hand Sanitizer; Delma; Delta Germ Hand Sanitizer; Delta Hand Sanitizer; Denatured D Ethyl Alcohol; Denatured DT Ethyl Alcohol; Dentovations; Deoproce All Clean Hand Sanitizer; DepHense Hand Sanitizer; Depens Premium Hand Sanitizer; Depens Premium Sanitizer; DerMeiren Camellia Sanitizer Gel; Derm Assure Hand Sanitizer Aloe and Grapefruit; DermEssentials Advanced Hand Sanitizer; Derma Intensive Hand Sanitizer; Derma Master Lab Hand; Derma Stat; Derma-Glove; DermaCen Instant Hand Sanitizer; DermaCen Instant Hand Sanitizer with Aloe; DermaGel; DermaGel Clear; DermaGel HAND SANITIZING; DermaMed Natural Hand Sanitizer; DermaRite Antibacterial Wet Wipes; Dermacen Foaming Instant Hand Sanitizer With Aloe; Dermasil Hand Sanitizer Unscented; Dermavivid Ultra Hand Sanitizer Lemon; Dermedicine - Advanced Hand Sanitizer; Dermesse Hand Sanitizer Gel; Dermis Hand Guard Sanitizer gel; Dermo Real; DermoNano; DermoViva Hand Sanitizer; DermoViva Hydra-Alcohol Hand Sanitizer with Aloe; Dermokil; Desmanol Pure; Detox Perfect Hand Gel; Detroderm Soft Hand and Skin Antiseptic; Devanit Hand and Skin Cleansing; Devobis Hand Sanitizer; Devolver Clean Hand Tissue; Devolver Hand Sanitizer; Devolver Premium Gel; Devolver Premium Tissue; Devolver Premium-Spray; Devona HAND SANITIZING WIPES; Dews Plus; Dews Plus Hand sanitizer; Dex Hand Sanitizer; Dexclusive Hand Sanitizer; Dextragel Antiseptic Hand Sanitizer; Deyo; Dezihand Hand Sanitizer; Dial Antibacterial Foam Hand Sanitizer; Dial Antibacterial Gel Hand Sanitizer; Dial Antibacterial Hand Sanitizer; Dial Professional Antibacterial Hand Sanitizer; Diamond Hand Sanitizer; Diamond Wipes Instant Hand Santizer Wipes; Diapia Adl Hand Cleanerspray; Diarte 20/20 ANTISEPTIC HAND SANITIZER; Dibar Labs Hand Sanitizer; Dicolor; Dictum Hand and Skin Disinfectant; Dictum Surface Disinfectant; Diesel Force Industrial Hand Sanitizer; Dieux Awakening Hand Sanitizer; Digcare Alcohol Wipes; DigiSan; DigiSan Hand Sanitizer; Dignity Health Hand Sanitizer Alcare Plus; Dilusol Liq 38.7%; Dimyoor Hand Sanitizer; Dippin Dots Hand Sanitizer; Dire 70% Gel Hand Sanitizer - W; Dirty Bird Hand Sanitizer; Discount Drug Mart Prebiotic Hand Sanitizer; Discount Drug Mart Vitamin E Hand Sanitizer; Disinfect Connect Liquid Hand Sanitizer; Disinfect Wipes; Disinfectant; Disinfectant Alcohol; Disinfectant Cleaning Wipes; Disinfectant Hand Gel; Disinfectant Hand and Skin Wet Wipe; Disinfectant Spray(Speedy effect type); Disinfectant Sprays; Disinfectant Surgical Hand Sanitizer Antibacterial Gel; Disinfectant Towel; Disinfectant Wash Free Hand; Disinfectant Wash Free Hand Gel; Disinfectant Wet Tissues; Disinfectant Wet Wipes; Disinfectant Wipes; Disinfectant Wipes (75% Alcohol); Disinfectant Wipes For Hand Sanitizing; Disinfectant Wipes for hand sanitizing; Disinfectant sanitary wipes; DisinfectantSpray; Disinfectantspray; Disinfecting Alcohol Wipes; Disinfecting Hand Sanitizer; Disinfecting Sanitizing Wipes; Disinfecting Wipes; Disinfecting wet wipes; Disinfecting wipe; Disinfection Gel Hand Sanitizer; Disinfection Wet Wipes; Disinfection Wipes; Disinfection wipes; DisinfectionSpray; Disinfex; Disney 4 pack; Disney Bambi Moisturizing Hand Sanitizer MELON; Disney Dalmatians Moisturizing Hand Sanitizer, VANILLA; Disney Dumbo Moisturizing Hand Sanitizer COCONUT; Disney FAIRIES Sweet Berry Scented Antiseptic Hand Cleansing; Disney FROZEN BERRY SCENTED ANTISEPTIC HAND CLEANSING; Disney Frozen II Hand Sanitizer; Disney MINNIE Cotton Candy Scented Antiseptic Hand CLEANSING; Disney Marie Moisturizing Hand Sanitizer, STRAWBERRY; Disney Mickey Mouse Hand Sanitizer; Disney Minnie Antiseptic Hand Cleansing Cotton Candy Scented; Disney Minnie Mouse Hand Sanitizer; Disney Monsters University Antiseptic Hand Cleansing Grape Scented; Disney PIXAR Cars Antiseptic Hand Cleansing Cherry Scented; Disney PIXAR Cars BERRY SCENTED Antiseptic Hand CLEANSING; Disney PIXAR LIGHTYEAR HAND SANITIZER; Disney PIXAR Toy Story Antiseptic Hand Cleansing Berry Scented; Disney PLANES FIRE and RESCUE BERRY SCENTED Antiseptic Hand CLEANSING; Disney PRINCESS Raspberry Scented Antiseptic Hand CLEANSING; Disney Princess Antiseptic Hand Cleansing Raspberry Scented; Disney Princess Floral Scented Hand Sanitizer 01; Disney Princess Hand Sanitizer; Disney Villains Cruella Hand Sanitizer Black Coconut; Disney Villains Evil Queen Hand Sanitizer, Poison Apple; Disney Villains Maleficent Hand Sanitizer, Dark Fruits; Disney Villains Ursula Hand Sanitizer, Deep Aqua; Disnfecting Wipes; DispoTouch Sanitizer; Disposable Antibacterial Hand Wash Gel; Disposable Disinfectant Gel; Disposable Hand Sanitiser; Disposable Hand Sanitizer; Disposable Hand Sanitizing; Disposable Sanitizing Gel; Disposable disinfectant; Disposable hand fluid; Disposable hand sanitizer; Distill Brand Sanitizing; Diversey Antiseptic Hand Gel 70%; Diviloo 75 Percent Alcohol Disinfectant; Diviloo 75 Percent Alcohol Instant Hand Sanitizer; Divine Fragrance Free Hand Sanitizer; Divine Tree Hand Clean Gel 500ml; Divine Tree Hand Sanitizer Gel; Dlt Nova Antiviral Alcohol Wet Wipes; Dna Hand Sanitizer; Dnature Hand Sanitizer; Doc Disinfectant Antiseptic Hand Sanitizer; Doc Hygiene; Dockside Inn and Suites Universal Orlando Hand Sanitizer Gel; Doctor Daves AutoSan HS Hand Sanitizer; Doctor Q Safer Gel; Doctor Safe; Doctor Salus Hand Sanitizer; DoctorPNB Hand Sanitizer; Doctors Kline and Green Board Certified Dermatologist Hand Sanitizer; Doctors Kline and Green Board Certified Dermatologist Hand Sanitizer Alcohol Antiseptic; Doctors Kline and Green Board Certified Dermatologist Hand Sanitizer Antiseptic; Doctors Optimal Formula Hand Sanitizer; Dogfish Head Hand Sanitizer; Dolcibee Instant Hand Sanitizer; Dologesic; Dom Organic Lavender Hand Sanitizer; Dom Organic Rosemary Hand Sanitizer; Donati Family Vineyard Hand Sanitizer; Done 70 Ethyl Alcohol; Done Hand Sanitizer Ethyl Alcohol; Done Refreshing Hand Sanitizer; Dongil Hand Cleaner Hand Sanitizer; Doom Forest Hand Sanitizer; Doordash Hand Sanitizer; Dooricare Pure Hand gel; Dosoon Alcohol Hand Sanitizer; Dots Apple Cinnamon Anti-Bacterial Hand Sanitizer; Dots Asian Spice Anti-Bacterial Hand Sanitizer; Doundrins Distilling Hand Sanitizer; Douxie ALCOHOL SANITIZING WIPES; Dove; Dr Bronners; Dr CPU Hand Sanitizer; Dr CPU Moisture Hand Sanitizer; Dr Clean Gel; Dr Clean Hand Sanitizer; Dr Clean PERFECT Gel; Dr Clinic 75% Alcohol Wipes; Dr Georges Virublast; Dr Hydrocel Natural pure gel; Dr J Natural; Dr Js Hand Sanitizer Gel; Dr Js Natural 75% Alcohol Wipes; Dr Js Natural Advanced Formula Hand Sanitizer; Dr Lift Antibacterial; Dr Lift Antibacterial Hand Sanitizer; Dr Lift Hand Sanitizer Lavender; Dr Lift Hand Sanitizer Lemon; Dr Lift Hand Sanitizer Tea Tree; Dr Lift Hand Sanitizer Unscented; Dr Lucid 70% Ethanol Hand Sanitizer; Dr Lucid 70% Ethanol Hand Sanitizer Gel; Dr Lucid 70% Ethanol Hand Sanitizer Gel With Eucalyptus; Dr Lucid 70% Ethanol Hand Sanitizer Gel With Rose; Dr Lucid 70% Ethanol Hand Sanitizer Liquid With Eucalyptus; Dr Lucid 70% Ethanol Hand Sanitizer Liquid With Rose; Dr Lucid Hand Sanitizer; Dr PEPSTORY HAND SANITIZER; Dr Plus MEDM Hand Clean; Dr Plus MEDM Hand Sanitizer; Dr Safe Hand Sanitizing Wipes; Dr TOC PERFECT CLEAN gel; Dr Tichenors First Aid Antiseptic; Dr Toc Perfect Clean Pocket Mist; Dr Toc Perfect CleanSpray; Dr keeps CLEAN HAND WASH; Dr. Alpha Clean Hand Sanitizer; Dr. Alpha Hand Cleaner; Dr. Ato Hand Sanitizing Wipes; Dr. Ato Hand Sanitizing Wipes Alcohol 70%; Dr. Bancrofts Gel Hand Sanitizer; Dr. Bancrofts Hand Sanitizer; Dr. Barrier Intensive Hand Sanitizer Gel; Dr. C. Tuna Antibacterial Liquid Hand Sanitizer Lemon; Dr. C. Tuna Antibacterial Waterless Hand Sanitizer; Dr. Care ANTISEPTIC HAND SANITIZER; Dr. Clean Antibacterial Hand Sanitizer; Dr. Cliffs Instant Hand Sanitizer with Vitamin E; Dr. Daddys Hand Sanitizer; Dr. Disin Alcohol Wipes; Dr. Disin Hand Sanitizer; Dr. Dris Hand Sanitizer; Dr. Easy Instant Hand Sanitizing Wipes; Dr. Forest Hand Sanitizer; Dr. Greenday Hand Sanitizer; Dr. Greenday S Hand Sanitizer; Dr. HANDS Plus Gel (ETHANOL); Dr. HANDs Gel; Dr. Hand; Dr. Hess Hand Sanitizer; Dr. Hobbs Anti-bacterial Hand Sanitizer with Aloe; Dr. James Gel (Ethanol); Dr. Jbourne Daily Aegis Hand Clean Gel(Ethanol); Dr. LIBEAUTE HAND CLEANSER; Dr. LIBEAUTE HAND SANITIZER; Dr. MALCOM Always Fine Sanitizer; Dr. Nature Hub; Dr. Oracle OH MY CLEAN Hand Sanitizer; Dr. Oracle PURE HANDS HAND gel; Dr. Palm Hand sanitizer; Dr. Pure True Sanitizer Antiseptic Hand Sanitizer; Dr. Rothmans Dermashield; Dr. Saad Hand; Dr. Safe Clean; Dr. Sam Premium Hand Sanitizer (100mL); Dr. Sam Premium Hand Sanitizer (500mL); Dr. Shield Laboratories Antiseptic Hand Sanitizer; Dr. Talbots; Dr. Win Sanitizer Water; Dr. Win Sanitizer gel; Dr. Wrights Antiseptic Hand Sanitizer; Dr. YERMA HAND SANITIZERSpray; Dr. YERMA INSTANT HAND SANITIZER; Dr. YERMA Instant Hand Clean Gel; Dr. YERMA MOISTURIZING SANITIZER TOWELETTES; Dr. YERMA SANITIZER WIPES Cool Scented with Aloe Vera; Dr. YERMA SANITIZER WIPES Flower Scented with Aloe Vera; Dr. YERMA SANITIZER WIPES Fresh Scented with Aloe Vera; Dr. cell Pure Medi Gel; Dr. cell Pure Medi Water; Dr. greenatura s hand sanitizer; Dr.Bellca Hand Sanitizer Gel; Dr.Better Homes HAND SANITIZER; Dr.Better Homes Hand Clean; Dr.Clean; Dr.Cleanew Hand Sanitizer; Dr.Davey 75% alcohol wipes; Dr.Davey 75% alcohol wipes Step Solutions LLC Duns105607561; Dr.Davey Alcohol Disinfectant; Dr.Davey Hand Sanitizer; Dr.Day Hand Clean Gel 100mL; Dr.Day Hand Clean Gel 500mL; Dr.Day S Hand Clean Gel; Dr.Hand FreshGel (ethanol); Dr.Heal Alcohol Pads; Dr.Homes HAND CLEAN; Dr.IVERT HAND CLEAN; Dr.IVERT HAND SANITIZER; Dr.IVERT SANITIZER; Dr.JmeeLab Hand Sanitizer; Dr.LIBEAUTE Multi-Purpose Cleansing Wipes; Dr.Mollis Alcohol Wet Wipes; Dr.Mollis Anti-Virus Wet Wipes; Dr.Osler HAND SANITIZER; Dr.Phi Advanced Hand sanitizer; Dr.Phi Instant Hand Sanitizer; Dr.S Clean Gel (Ethanol); Dr.S Clean Hand Gel (Ethanol); Dr.Tengle Sanitizer Wipes; Dr.URBAN Hand Sanitizer; Dr.clinic Antibacterial Cologne; Dr.clinic Antibacterial Hand Sanitizer; Dr.davey; Dr.germ Hand Sanitizer Gel; Dr.jecori Hand Sanitizer; Dr.s CLEAN HAND SANITIZER; Dr.s Clean Advanced Hand; Dr.s Clean Advanced Hand Sanitizer; Dr.s Clean Hand; Dr.top POWER CLEAN HAND Gel(ETHANOL) 500ml; Dr.top POWER CLEAN HAND Gel(ETHANOL) 60ml; DrGrafHandSanitizer; DrPuRx HAND SANITIZER; Dramaholic Hand Sanitizer; Drawings School Hand Sanitizer; Dreamy Glow hand sanitizer 01; Dreumex Omnicare Hand Sanitizer; Driftless Glen Distillery Hand Sanitizer; Drippn Pure Nature Hand Sanitizer; Drp Hand Sanitizer; Drs Clean Hand; Drs Clean Hand Mist; Drs Clean Hand gel; Dryope Fresh Pure Hand; DuGel; Dudas Hand Sanitizer Gel; DuraFast Hand Sanitizer; Duride Hand Sanitizer; Dynamic Hand Sanitizer; Dynamic Sanitizing Alcohol wipes; Dynamics Hand Sanitizing Alcohol Wipes; Dynarex Green; E D Alcohol Wipe 1; E D Alcohol Wipes 100; E D Alcohol Wipes 150; E D Alcohol Wipes 2000; E D Alcohol Wipes 50; E D Alcohol Wipes 500; E D Hand Sanitizer; E G 75% Alcohol Anti-bacterial Hand Washgel; E G99.99% effective sterilization rate Alcohol disinfection wipes; E J Gallo Winery Hand Sanitizer; E green Hand Sanitizer; E-PU Instant Hand Sanitizer 70 50ml; E-PU Premium Mandarin Hand Sanitizer 70% 946ml; E-PU Premium Mandarin Hand Sanitizing Serum; E-Pu Premium Mandarin Hand Sanitizer 70% 250ml; E-SOUP Hand Sanitizer Gel; E-SOUP Hand Sanitizer Mist; E-Z Hand Sanitizer - Liquid; E3 Hand Sanitizer; EAAE Disinfectant; EAAE Hand Sanitizer; EARL Clean Solutions Hand Sanitizer; EARTH EDITION HAND SANITIZER Gel; EASY AND SAFE Hand Clean; EASY CLEAN Intensive Hand Sanitizer Gel; EAU DE SOL HAND CLEAN gel; EC Pure Instant Cream Hand Sanitizer Goddess; EC Pure Instant Cream Hand Sanitizer Joy; EC Pure Instant Cream Hand Sanitizer Love; EC Pure Instant Cream Hand Sanitizer Unscented; EC Pure Instant Cream Hand Sanitizer Zen; ECCO Antiseptic Hand Gel; ECLADO Antiseptic Moisture; ECO Hand Sanitizer; ECOLAB Hand Sanitizer; ECOWORLD Hand Sanitizing Wipes; ECOssential Personal PPE Kit; EClean Rubbing Alcohol Denatured Ethyl Alcohol 70 Solution; EGOLAN Instant Hand Sanitizer gel; EGOLAN Wipes HAND SANITIZER; EGX Chemical; EHSP Hand Sanitizer; EHSP Hand Sanitizer Wipe; EHSP hand sanitizer family pack; EJK Hand Sanitizer; ELIVE Hand Sanitizer; ELM Hand Sanitizer; EMHS1 Hand Sanitizer; EMPIRE Hand Sanitizer; EMU Hand Sanitizer Mist Mint; EMU Hand Sanitizer Mist Ocean Air; EMU Hand Sanitizer Mist Ocean Surf; EMU Hand Sanitizer Mist Orange Blossom; ENLIVEN Hand Sanitizing Gel; EO HAND SANITIZER Lavender; EO HAND SANITIZER Lemon; EO HAND SANITIZER Peppermint; EO HAND SANITIZER Sweet Orange; EO HAND SANITIZER Unscented; EO HAND SANITIZING wipes geranium; EO HAND sanitizer geranium; EO Hand Sanitizer Wipes Lavender; EOCENE Dr. HANITIZER; EON Hand Sanitizer; EON Hand Sanitizing Mist TM; EPH Labs Hand Sanitizer; EPU Hand Sanitizer 946ml; EPu Instant Hand Sanitizer 70 250ml; EPu Instant Hand Sanitizer 70 946ml; EPu Premium Mandarin Hand Sanitizer 70 500ml; ESCA Hand Sanitizing Wipes; ESSENCE hand sanitizer 500ML; ESSENCE hand sanitizer 60ML; ETG Industrial Hand Sanitizer; EUE CLEAN HAND SANITIZER Gel; EUE CLEAN HAND SANITIZER Gel(Ethanol); EUNOS advanced hand sanitizer; EVERY MAN JACK - HAND SANITIZER 62 percent; EVERYONE HAND SANITIZER WIPES Lavender Aloe; EXIHUAN Disinfectant; EXIHUAN Hand Sanitizer; EXTENDED CARE Foaming Hand Sanitizer; EZ Gel 12; EZ Gel 12 Aloe; Ea Instant Hand Sanitizer; Each and Every Plant Based Alcohol Hand Sanitizer; Eagle Promotions; Earth Baby Germ Buster Surface Mist; Earth Baby Hand Sanitizer Gel; Earth Edition Hand Sanitizer; Earth To Skin Antiseptic Hand Sanitizer 2.5 OZ; Earth To Skin Blueberry Hand Sanitizer 2.0 OZ; Earth To Skin Coconut Aloe Hand Sanitizer 2.0 OZ; Earth To Skin Lemon Basil Hand Sanitizer 2.0 OZ; Earth To Skin Scent Free Hand Sanitizer 2.0 OZ; Earth To Skin Watermelon Hand Sanitizer 2.0 OZ; Earthlite Hand Sanitizer; Earths Own Hand Sanitizer Cool Citrus; Easy Care First Aid; Easy Care First Aid - All Purpose; Easy Care First Aid Chest - Home and Workshop; Easy Care First Aid Hand Sanitizer; Easy Care First Aid Hand Sanitizer Alcohol Antiseptic; Easy Care First Aid Kit - Outdoor and Travel; Easy Care First Aid Kit - Sports and Travel; Easy Klean Ethyl Alcohol; Easy Wonderful 75 Alcohol; Easy to break-off cleaning and disinfecting swabstick JJB-I; Eberle Fluid Technology Hand Sanitizer; Ebin Dr. Hand Plus Sanitizer; Ebin New York Hand Plus Sanitizer; Ebin New York Hand Sanitizer; Eclair Naturals (french Lavender) Hand Sanitizer; Eclair Naturals (vanilla Peppermint) Hand Sanitizer; Eclean Hand Sanitizer; Eclean Solution Gel Hand Sanitizer; Eclean solution advance hand sanitizer 70% Ethyl Alcohol; Eco Chem Antiseptic Hand Sanitizer Alcohol 70%; Eco Chem Skin Antiseptic; Eco Lagos Hand Sanitizer; Eco Sanitizer Gel; Eco Sanitizer Liquid; Eco Sanitizer Sanitizing Wipes; Eco Sun Moisturizing Hand Sanitizer; EcoCare 370; EcoFreaks Foaming Hand Sanitizer Peppermint; EcoNano; EcoReduce ANTISEPTIC HAND SANITIZER; EcoVir Hand Sanitizer; Ecochoice hand sanitizer; Ecofinest No Rinse Hand Sanitzer; Ecofreaks; Ecofreaks Hand Sanitizer; Ecolab; Ecolab Advanced Hand Sanitizer; Ecolab Clear; Ecolab Facilipro; Ecolab Gel Hand Sanitizer LS; Ecolab Hand Sanitizer; Ecologic Hand Sanitizer; Ecological Hand Sanitizer; Econo-Gel EA Hand Sanitizer; Ecopure Hand Sanitizer; Ecoriso Health Care Hand Sanitizer; Ecosol; Ecosol Gel hand sanitizer; Ecossential Alcohol Hand Sanitizer; Ecossential Hand Sanitizer; Ecossential Hand Sanitizer 70% Alcohol; Ecowipes Antiseptic Hand Sanitizer Wipes; Ecoworld Hand Sanitizer; Edelweiss Instant Hand Sanitizer; Eden Hand Sanitizer; Edenhills Umjizzang Multi Cleaner; Edens Hand Sanitizer 01; Edens Hand Sanitizing Wipes; Edew Claire Perfect Hand Disinfection; Edu San; Eesome Hand Sanitizer; Efas Hand Sanitizer; Egolan; Egolan Hand Sanitizer; Egyptian Cotton Antibacterial Hand Sanitizer; Ehs7000; Ehs7000-4; Ekosafe 70%; El Bueno; El Pescador Hand Sanitizer; Eldorado High School Hand Sanitizer; Element Control Rinse Free Hand Sanitizer Soothing; Elements Ethanol 75% Hand Sanitizer Wipes; Elevate Hair Regrowth; Elevated Mountain Hand Sanitizer; Elgin Instant Hand Sanitizer; Elite Wipes; Elizabeth Mott Hand Sanitizer; Ellipse Hand Sanitizer Caribbean Scent; Ellipse Hand Sanitizer Coconut Scent; Ellipse Hand Sanitizer Fruit Scent; Elmore Hand Sanitizer; Eluo Advanced Hand Sanitizer; Elyptol Antimicrobial Hand Gel; Elyptol Antimicrobial Rub; Elyptol Hand Sanitizer Wipe; Elyptol Light Scent Antimicrobial; Elyptol Light Scent- Antimicrobial Hand Gel; EmUrgent USA Hand Sanitizer; Emco V190; Emely Hand Sanitizer; Emergency Preparedness; Emilia body and spa sanitizing hand cream; Emory Johns Creek Amenity; Empire hand sanitizer; Empire instant hand sanitizer; EnMotion Foam Hand Sanitizer; EnMotion Foam Hand Sanitizer With Moisturizers; Enbac skin antiseptic/sanitizer contains aloe vera; Enchanted Flower Hand Sanitizer; Enchanted Forest Hand Sanitizer Bodycology; Enchanted Memories; Enchanted Moments Berries and Cream Hand Sanitizer; Enchanted Moments Candy Apple Hand Sanitizer; Enchanted Moments Mistletoe Kisses Hand Sanitizer; Enchanted Moments Vanilla Snow Hand Sanitizer; Enchantment Hand Sanitizer; Encore Hand Sanitizing Gel; Encore Instant Hand Sanitizing; Endure 300; Endure 300 Cida Rinse Gel Antimicrobial Hand Rinse; Endure 320 Advanced Care; Endure 450; Energy Infusion Hand Sanitizer; Enfusia Hand Sanitizer; Enovatizer; Entiere Hand Sanitizer; Entiere Hand Sanitizer, Fragrance Free; Entoura Antiseptic Hand Sanitizer; Enviro Care Hand Sanitizer I.S.; Enviro E3 Rated Sanitizer; EnviroPure Antibacterial Hand Sanitizer Maximum Strength; EnviroSan; Envirokleen Instant Hand Sanitizer; Enviropure; Enzysept; Epi-Clenz Hand Sanitizer; Epi-Clenz Instant Hand Antiseptic; Epi-Clenz Instant Hand Antiseptic Scented; Epi-Clenz Plus Instant Hand Antiseptic; Epi-Clenz Plus Instant Hand Sanitizer; Epi-Clenz Pure Instant Hand Antiseptic; EpiCare Waterless Antimicrobial Hand Rinse; Epoch; Eponol Antibacterial Hand Sanitizerhand Sanitizer; Epoxytec Intl, Inc.; Equaline; Equate; Equate Anti Bacterial Hand Sanitizer; Equate Anti Bacterial Hand Sanitizer Beach; Equate Anti Bacterial Hand Sanitizer Black Cherry Grape; Equate Anti Bacterial Hand Sanitizer Coconut; Equate Anti Bacterial Hand Sanitizer Lemon; Equate Anti Bacterial Hand Sanitizer Strawberry; Equate Hand Sanitizer; Equate Hand Sanitizer With Aloe; Equate Moisturizing Hand Sanitizer With Vitamin E; Equinox; Er-Kang Instant Hand Sanitizer; Er-Kang Instant Hand Sanitizer Gel; Erysol; Esco Fresh Pure Hand; Esco Fresh Pure Mist; Esco Perfect Hand Cleaner; Essence Of Beauty Citrus Coconuti; Essence Of Beauty Japanese Garden; Essence Of Beauty Japanese Garden Antibacterial; Essence Of Beauty Lilies and Freesia; Essence Of Beauty Snowy Apple; Essence Of Beauty Sugar Frosted Mint; Essence Of Beauty Vanilla Wishes; Essence Of Beauty Wind Kissed; Essential Care Hand Sanitizer; Essential Hand Sanitizer; Essential Hand Sanitizer Gel; Essential Hand Sanitizer wipe; Essential Spirits Hand Sanitizer; Essentials Hand Sanitizer; Essentials by Catalina Hand Sanitizer; Essentials by Catalina Hand Sanitizer Gel; Essentials by Urban Secrets Advanced Hand Sanitizer; Essentials by Urban Secrets HAND SANITIZER; Essentials by Urban Secrets Hand Sanitizer; Essentials, M.D. Hand sanitizer; Estacion Hand Sanitizer Antibacterial; Estee Lauder Hand Sanitizer; Esthete HAND SANITIZER; Esthete Hand Sanitizer; Ethanol; Ethanol Hand Sanitizer Gel; Ethanol Monotonic Disinfectant; Ethanol based Hand Sanitizer; Ethanol disinfectant; EthoGel; EthopHresh; Ethos Hand Sanitizer; Ethy Alcohol Wipes; Ethyl Alchohol; Ethyl Alcohol; Ethyl Alcohol 70 percent; Ethyl Alcohol 70%; Ethyl Alcohol 75%; Ethyl Alcohol 80 Percent; Ethyl Alcohol Antiseptic Hand Sanitizer; Ethyl Alcohol Antiseptic Hand Wipes; Ethyl Alcohol Wipes; Ethyl Rubbing Alcohol; Ethyl Rubbing Alcohol 70 Percent; Ethyl alcohol; Ethyl alcohol 70 percent ReadyInCase; Ethyl alcohol wet wipes; Ethyl alcohol wet wipes Purple Frog; Etiquette Sterilization wet wipes; Eucalyptus Ease Hand Sanitizer; Eucalyptus Mint Sanitizing Wipes; Eunos; Eunos Advanced Hand Sanitizer; Evande Antiseptic Hand Sanitizer; Evaxo 70% Ethyl Rubbing alcohol; Evaxo Advanced Hand Sanitizer; Eveline Charles Hand Sanitizer; EvelineCharles PURE Purifying Hand Cream Max; Ever Clean Hand Sanitizer (Ethanol); Ever Ready HAND SANITIZER; EverZero 83 Hand Sanitizer with Vitamin E and Aloe Vera; Evergreen; Evergreen HAND SANITIZER; Evergreen Hand Sanitizer; Evergreen Snowman; Eversoft Foaming Hand Sanitizer; Everwipe hand Sanitizer; Every Day Shea Moisturizing Shea Butter Hand Sanitizer Lavender; Every Day Shea Moisturizing Shea Butter Hand Sanitizer Unscented; Every Day Shea Moisturizing Shea Butter Hand Sanitizer Vanilla Mint; Every Fresh Hand Sanitizer; Every Man Jack - Hand Sanitizer; Every Night Hand Sanitizer with Aloe Vera; EveryDayCare Hand Sanitizer Gel; Everybody Labo Instant Protective Hand Sanitizer; Everyday Everywhere Hand Sanitizer; Everyone Hand Sanitizer; Everyone Hand Sanitizer Coconut Lemon; Everyone Hand Sanitizer Lavender Aloe; Everyone Hand Sanitizer Peppermint Citrus; Everyone Hand Sanitizer Ruby Grapefruit; Everyone Hand Sanitizer Wipes Coconut Lemon; Everyone Hand Sanitizer Wipes Lavender Aloe; Everyone Hand Sanitizer Wipes Ruby Grapefruit; Everyone Hand Sanitizer ruby grapefruit; Everyone hand sanitizer wipes; Evviva Instant Hand Sanitizer; Evviva Instant Hand Sanitizer Fruity Floral Aroma; Ewleka Disinfection Gel; Excel Hand Sanitizer; Exit 7 Hand Sanitizer; Exotic Cherry Blossom Hand Sanitizer; Exotic Cherry Blossom Kit Bodycology; Exotic Cherry Blossom Kit bodycology; Explorer Hand Sanitizer; Express Wipes Hand Sanitizer; Expunge Hand Sanitizer; Extra Stength Hand Sanitizer Zytec Germ Buster; Extra Strength Sanitizing Wipes; Eyefull PCD Kit; Ez-san Antiseptic Hand Sanitizer; Eztizer Hand Sanitizer; F Matic Alcohol Based Hand Sanitizer; F4P Hand Sanitizer; F4P hand sanitizer 236ml; F4p Hand Sanitizer 59ml; FA Eol swab; FA Hand Sanitizer; FA Hand Sanitizer Gel 70% (Ethanol); FA Hand Sanitizer Liquid 70; FA Sanitizer Swab; FAIR and SQUARE ANTIBACTERIAL HAND SANITIZER with ALOE VERA; FAK Care4 Bus and School Yellow ORM D; FAK Large Office First Aid kit; FELIX Hand Sanitizer Gel; FINEAPPLE Hand Sanitizer; FINECare 75% ALCOHOL Disinfecting Wipes; FIRST AID Contains 1000 PIECES; FIRST AID Contains 202 PIECES; FIRST AID Contains 303 PIECES; FIRST AID Contains 303 PIECES HARDCASE; FIRST AID Contains 404 PIECES; FIRST AID Plus More ALCOHOL Prep Pad; FIRST Safety INSTANT SANITIZER WIPES; FLEX Hand Sanitizer; FLO Wellness Advanced Hand Sanitizer with Moisturizers and Vitamin E; FLYGIENE Nourishing Hand Sanitizer; FOASU DAILY HAND SANITIZER gel; FOCAN LLC PERFORMANCE PLUS Hand Sanitizer Gel; FOH Health Essentials Sanitizer Gel; FOOSTA B Hand Sanitizer; FORMALBEE Daily Instant Hand Sanitizer; FORTO Antiseptic Hand Sanitizer; FOTE Citrus Hand Sanitizer; FOTE Unscented Hand Sanitizer; FQ Hand Sanitizer; FREE CLEAN Hand Sanitizer; FREE Hand Sanitizer; FRONTLINE HAND SANITIZER - Antibacterial; FYAB Hand Sanitizer; Facilipro; Facilipro Protecting FHS; Facilipro Waterless Hand Rinse; Facility Maintenance Instant Hand Sanitizer HS-67; Fair and Square Antibacterial Hand Sanitizer with Vitamine E; Fairy Hands Hand Sanitizer; Faith Family Ducks Antiseptic Hand Cleansing; Falcon Hand Sanitizer; Falcon Hand Sanitizing Gel; Familie hand sanitizer 500ml 01; Family Dollar Instant Hand Sanitizer with Moisturizers and Vitamin E; Fancy Hand Cleaner; FancyClean Antiseptic Hand Sanitizer; Fancyclean Antiseptic Hand Sanitizer; Farewell Collection; Farmacy Antiseptic Hand Sanitizer; Fashion Antiseptic Gel Hand Sanitizer; Fast; FastAction GermaStat; Fastenal Clean Choice; FedMed Hand Sanitizer Solution; Feel Welcome Hand Sanitizer; Feeling-Te; Feld apotheke hand sanitizer; Fengliaoxing Fengshi Dieda Yaojiu; Fercaish Instant Hand Sanitizer; Ferino Hand Sanitizer; Fiberlay Ethanol Disposable Gel Disinfectant; Fiera Hand Sanitizer; Fight wipes; Fikes Instant Hand Sanitizer; Finafta; Finch Stat-75 Wipes; Find Your Happy Place; Fine Wash Hand Sanitizer; Fine and Clear Advanced Hand Sanitizer; Finest Hand Sanitizer; Fiori Aloe Vera Hand Sanitizer; Fiori Gallon Hand Sanitizer; Fiori Gallon HandSanitizer; Fiori Hand Sanitizer; Fiori Liquid Alcohol; First Aid Kit; First Aid Only Instant Hand Sanitizer; First Defense Hand Sanitizer; First Hand Hand Sanitizer; First Hand Sanitizer; First Hands premium hand sanitizer; First Line Alcohol Wipes; First Mark Ultra Hand Sanitizer; First Safety; First Safety Instant Hand Sanitizer; First Street Hand Sanitizer fresh lemon; First safety hand sanitizing tissue; First street; FirstCare Hand Sanitizer; FirstHand Advantage Premium Sanitizer; Five Photo Brand First Aid Antiseptic; Five Senses Almond Vanilla Fragranced Hand Sanitizer; Five Senses Cherry Blossom Fragranced Hand Sanitizer; Five Senses Lavender and Chamomile Fragranced Hand Sanitizer; Five Senses Orchid Bloom Fragranced Hand Sanitizer; Flight Dr Hand Sanitizer; Flint Clean Hands Hand Sanitizer; Flint Clean Hands Hand Sanitizer Gel (Ethanol); Flod Hand Sanitizer Gel, Aloha-Green Apple Scent; Flora Shine Alcohol Anti-Bacterial; Floral Frenzy; Floral Rose Scented Hand Sanitizer 01; Floral Scented Hand Sanitizer 01; Floral rose scented hand sanitizer 01; Florance Morris ANTISEPTIC Hand Sanitizer; Florance Morris Antiseptic Hand Sanitizer; Florida Laboratories - Hand Sanitizer; Fluffy MarshMallow Anti-Bacterial Scented Hand Sanitizer; Foam Aid; Foam Hand Sanitizer; Foam San Hand Sanitizer; FoamFresh Alco-Foam Hand Sanitizer; Foamahol; Foamahol Hand Sanitizer; Foaming Alcohol Hand Rub; Foaming Alcohol Hand Sanitizer; Foaming Alcohol Instant Hand Sanitizer; Foaming Hand Sanitizer; Foaming Hand Sanitizer Mm; Foaming Hand Sanitizer V; Foaming Hand Sanitizing Rub; Foaming Instant Hand Sanitizer with Aloe; Foaming Mousse Anti-Bacterial Hand Sanitizer Cherry Scented; Foaming Mousse Anti-Bacterial Hand Sanitizer Pineapple Scented; Foaming Mousse Anti-Bacterial Hand Sanitizer Pink Grapefruit Scented; Foaming Mousse Hand Sanitizer; Foaming Sanitizing Hand; Foamitizer Foaming Hand Sanitizer; Focan LLC AFFEX CARE Hand Sanitizer(AC01-04-01); Focus Health Supply Hand Sanitizer; Follow the Rainbow Antibacterial Hand Sanitizer Coconut Milk scented; Follow the Rainbow Antibacterial Hand Sanitizer Sweet Berries scented; Follow the Rainbow Antibacterial Hand Sanitizer Watermelon Ice Pop scented; Fonex Antiseptic Hand Sanitizer; Foodarom hand sanitizer ethanol 70%; For Good Hand Sanitizer; ForPro Hand Sanitizer Gel; Force Factor Advanced Hand Sanitizer; Forest Heal Hand Sanitizer; Forest Lab Hand Sanitizer Blue; Forest Lab Hand Sanitizer Green; Forest sup; Forever Hand Sanitizer Hand Sanitizer; Forkids Hand Sanitizer; Formal Bee Daily Instant Hand SanitizerSpray; FormoClean Gel Hand Sanitizer; FormoClean Hand Sanitizer; Fortaderm Antiseptic Hand Sanitizer; Fortera360 Hand Sanitizer; Forward Path Logistics Hand Sanitizer; Four Fathers Distillery Alcohol Antiseptic 80%; Foxy Citrus; Fragrance Free Antibacterial Hand Sanitizer; Fragranced Hand Sanitizer 800103; Frais Hand Sanitizer; Franslux Antibacterial Gel; Free Hand; Free Hand sanitizer gel; Free Wash Sanitizer; Freedom American 16.9 oz (500 mL) Hand Sanitizer Bottle; Freedom American 2 oz Hand Sanitizer; Freedom American 24 oz Hand Sanitizer Wipes (40 Count); Freedom American 4 oz Hand Sanitizer Bottle; Freedom Hand Sanitizer; Freeman Packaging Hand Sanitizer; Freeman Packing Alcohol Wipe; Fremont Mischief Hand Sanitizer; FresHands Instant Hand Sanitizer Gel; FresMed; Fresh Basics Disinfectant Gel; Fresh Basics Foaming Hand Sanitizer; Fresh Breeze; Fresh Citrus Hand Sanitizer; Fresh Coconut Hand Sanitizer; Fresh Cucumber Melon Bodycology; Fresh Decor Basil Green Tea; Fresh Decor Citrus Pomegranate; Fresh Decor Coconut Cream; Fresh Decor Lemon Verbena; Fresh Fries Hand Sanitizer; Fresh Fruit Scented Hand Sanitizer; Fresh Hand Antiseptic Cleaner; Fresh Hand Foaming Hand Sanitizer Alcohol Foam; Fresh Hand Sanitizer; Fresh Hand Sanitizer with vitamin E and aloe; Fresh Lavender Waterless Anti-Antibateria Hand Sanitizer; Fresh Lemons Antibacterial Hand Sanitizer; Fresh Linen Hand Sanitizer; Fresh Med Solution; Fresh N Go ADVANCED HAND SANITIZER; Fresh N Pure Hand Sanitizer; Fresh Peach Scented Antibacterial Hand Sanitizer; Fresh Protect Hand Sanitizer Bergamont Lime; Fresh Pure Hand; Fresh Pure Hand Sanitizer; Fresh Scent Hand Sanitizer; Fresh Splash Scented Hand Sanitizer; Fresh Up Antiseptic Hand; Fresh Water Hand Sanitizer; Fresh Wave Hand Sanitizer; Fresh Wave IAQ Antiseptic Hand Rub; Fresh Wave IAQ Hand Rub; Fresh and Clean Hand Sanitizer; Fresh and Mini Hand Sanitizer; Fresh and Safe Hand Sanitizer; Freshmom S Hand Sanitizer; Freshorize; Freshorize Hand Sanitizer Moisturizing with Vitamin E; Freshorize hand sanitizer; Freshquitas Antiseptic Hand Wipes; Freshworks Antiseptic Hand Sanitizer; Freshworks Antiseptic Hand Sanitizer Lavender Fields; Freshworks Antiseptic Hand Sanitizer Lavender Fields Fragrance; Freshworks Antiseptic Hand Sanitizer Lemon Zest; Freshworks Antiseptic Hand Sanitizer Lemon Zest Fragrance; Freshworks Antiseptic Hand Sanitizer Unscented; Fressly; Fressly Hand Sanitizer; Frigell Hand Sanitizer; Frisky Cinnamon; Frisson by Olive; Friuts and Flowers Clean Cotton Waterless Hand Sanitizer; Friuts and Flowers Grapefruit Waterless Hand Sanitizer; Froggys Hand Sanitizer Gel II; Froggys Simply Sanitizer; Froggys Simply Sanitizer Gel; Frontline Hand Sanitizer Wipes; Frosted Berries and Cream Sanitizer Pen; Frosted Berry Hand Sanitizer; Frosted Berry Hand Sanitizer None; Frosted Cranberry Hand Sanitizer; Frosted Mint; Frosted Sugar Cookie; Frosted Sugar Plum Hand Sanitizer Bodycology; Frosted cranberry anti-bacterial SCENTED HAND SANITIZER; Frozen Fresh Scented Hand Sanitizer; Frozen II HAND SANITIZER; Frozen II Winterberry Scented Hand Sanitizer; Frozen blueberry scented hand sanitizer 01; Frozen lavender scented hand sanitizer 01; Frozen orange blossom scented hand sanitizer 01; Frozen vanilla scented hand sanitizer 01; Frst1 Alcohol Wipes; Fruit Floral Scented Hand Sanitizer; Frusirnana Hand Sanitizer; Full Circle PPE Antibacterial Wipes; Full Clean Hand Sanitizer; Fuller Foaming Hand Sanitizer; Funky Monkey Hawaiian HAND SANITIZER; Fusion Antiseptic Wipes; Fusion Quantum Hand Sanitizer; Fusoni Hand Sanitizer with Moisturizer Plus; Fusoni Hand Sanitizer with Moisturizer Plus Blue; Fustin 75% Alcohol Wipes; Fustin Alcohol Wipes; G and H Protect Plus Advanced Hand Sanitizer; GASCO Hand Sanitizer; GBG AloeGel; GBG AloeGel Instant Hand Sanitizer; GC Hand Sanitizer Gel Lavender; GC Hand Sanitizer Lavender; GC Holiday Hand Sanitizer; GC Jeremiah Brent Hand Sanitizer; GC Kids Hand Sanitizer Gel Juicy Pear; GELCOHOL 125 mL; GELCOHOL 250 mL; GENUINE FIRST AID Emergency Preparedness Contains 167 PIECES HARDCASE; GENUINE FIRST AID Emergency Preparedness Contains 167 Pieces; GERM FREE Instant hand sanitizer; GERM WAR HAND SANITIZER gel; GERMFREE HAND SANITIZER Gel babypowder fragrance; GERMisept Antibacterial Hand Sanitizing Alcohol Wipes; GFA First Aid 75 Person Metal Case; GIR The Guardian Gel Sanitize; GIR The Guardian Sanitizer; GLS-570 Hand Sanitizer; GMDANSU Hand Sanitizer; GNC Antimicrobial Hand Wipes; GNC Instant Hand Sanitizer; GNP Ethyl Rubbing Alcohol 70 Percent; GNP Idoinde Tincture 2% Mild; GO CARE advanced hand sanitizer; GOJO Advanced Hygienic Hand Rub; GOJO Instant Hand Sanitizer; GOJO Medical Hand Sanitizer; GOOD NEIGHBOR PHARMACY FIRST AID Contains 202 PIECES; GOOD VIBES ONLY Hand Sanitizer; GOODLIVIN Hand Sanitizer Moisturizing with Aloe; GP Reeves Hand Sanitizer; GRAND INNOVATIONS Hand Sanitizer; GRN Hand Sanitizer; GSD Advanced Hand Sanitizer; GSD Anti Bacterial; GSD Sanitizing Wipes; GSP Care Hand and Nature 71 Ethyl Alcohol Hand Sanitizer; GTL0003 Hand sanitizer 500ml 01; GUARDWIPES Sanitizing Wipes; GUDETAMA MOISTURIZING HAND SANITIZER Peach; GVR D-1106 Hand Sanitizer; GW Labs Advanced Liquid Hand Sanitizer; Ga; Gaffer and Child Hand Sanitizer; Gaia Herbs Antiseptic Hand Rub; Gaia Herbs Hand Sanitizer; Gaia Herbs Hand Sanitizer with Lemon Balm; Game Day MSC Mainstreet Collection Hand Sanitizer; Gao Ben F Advanced Hand Sanitizer; Garnier Antiseptic Hand Sanitizer; Garrison Brothers Distillery Hand Sanitizer; Garrison Home Hand Sanitizer; Gas Island Hand Sanitizer; Gasco Sanitizing Alcohol; Gastrodia elata Peptide Hand Sanitizing; Gastrodia elata Peptide Wash Disinfectant; Gator Chemical Company Wonder Wipes; Gattex; Gbg; Gbgf; Geist Instant Hand Sanitizer; Gel Antibacterial; Gel Antibacterial Alcohol; Gel Antiseptic Handwash; Gel Hand Sanitizer; Gel Hand Sanitizer - Methylcellulose Formula; Gel Hand Sanitizer Coconut Scent; Gel Hand Sanitizer Custom Blend 1; Gel Hand Sanitizer Wintergreen; Gel Hand Sanitizer with Aloe; Gel Hand Sanitizer with Aloe Vera; Gel Hand Sanitizer with Signature Scent; Gel Hand Sanitizer, No Scent; Gel Hand and Skin Disinfectant; Gel Hand sanitizer; Gel Instant Hand Sanitizer; Gel Sanitizer; Gel for Life Hand Sanitizer; GelMex Black; GelSanitizerLav; Gelclor; Gelcohol 1l; Gelox 100; GelpHresh; Gelrite; GenRx Anti-Bacterial Gel; Generate Life Sciences Hand Sanitizer; Generic -Hand Sanitizer; Generic Hand Sanitizer; Genesis Advanced Hand Sanitizer; Genesis Today Hand Sanitizer; Genic by Eco Amenities Hand Sanitizer; Genius Care Hand Sanitizer; Genius Care Hand Sanitizer 70 Percent Alcohol; Genius Care Hand Sanitizer 75 Percent Alcohol; Gentle Hands Sanitizer Calming Citrus; Gentle Hands Sanitizer Fragrance Free; Gentle Touch Antibacterial Hand Sanitizer; GentleHands ANTISEPTIC Hand Sanitizer; Genuine First Aid Antiseptic Hand Sanitizer Ethyl Alcohol; Genuine First Aid Hand Sanitizer Ethyl Alcohol; Genuine First Aid Hand Sanitizer with Cap Ethyl Alcohol; Genuine First Aid Hand Sanitizer with Pump Ethyl Alcohol; Genuine First Aid Insect Sting Relief Pad 1 ct; Genuine Hand Sanitizer; Georgette Klinger Hand Sanitizer - Lavender; Georgia-Pacific Alcohol Hand Sanitizer; GeriGentle Hand Wipes; Germ ALL-OFF Hand Sanitizer; Germ Attack Hand Sanitizer; Germ Blaster Hand Sanitizer; Germ Bullet; Germ Buster Surface Mist; Germ Combat; Germ Eliminator; Germ End Antibacterial Hand Sanitizer; Germ Fighter; Germ Free; Germ Free Disinfectant Gel; Germ Free Hand Sanitizer Travel Pack; Germ Free Plus Antibacterial Hand Sanitizer; Germ Free Zone Sanitizing Wipe; Germ Nix Antibacterial Hand Sanitizer; Germ Off Hand Sanitizer; Germ Out Hand Sanitizer; Germ SOS Sanitizing Wipes; Germ Safe; Germ Shark Antibacterial Hand Sanitizer; Germ Shark Lemon Scented Hand Sanitizer Gel; Germ Shark PX4 Hand Jumbo Hand Sanitizing Wipes; Germ Shark PX4 Hand Sanitizer; Germ Shark PX7 Antibacterial Hand Sanitizer Lemon Scented; Germ Shark PX7 Hand Jumbo Hand Sanitizing Wipes; Germ Shield 80; Germ Shield Hand Sanitizer; Germ TX Hand Sanitizer; Germ War Hand Sanitizer; Germ Wipes; Germ Wipes Alcohol Wipes Fresh Citrus; Germ Wipes Antibacterial Alcohol Wipes Fragrance Free; Germ smash hand sanitizer 01; Germ-X; Germ-X Advanced; Germ-X Everywhere; Germ-X Hand Sanitizer; GermEnd; GermFree Hand Sanitizing; Germaphobe Black Tea Hand Sanitizer; Germaphobe Crisp Pine Hand Sanitizer; Germasafe; Germasave; Germasave Solution; Germfree Hand Sanitizer Babypowder Fragrance; GermiFree Antimicrobial Hand Gel; Germinac; Germisept Antibacterial Alcohol; Germisept Antibacterial Alcohol Hand Sanitizer; Germisept Antibacterial Alcohol Wipes; Germisept Antibacterial Alcohol Wipes 50ct; Germisept Antibacterial Hand Sanitizing Alcohol Wipes; Germs Are Stupid; Germs Be Gone Antiseptic wipes; Germs Be Gone Hand Sanitizer; Germs be gone hand Sanitizer; Germstar Premium Hand Sanitizer; Germy Gone Hand Sanitizer; Get Clean Moisturizing Hand Sanitizer; Ghope Hands Sanitizer; Gia B-Care; Giant Eagle Aloe Hand Sanitizer; Giant Eagle Hand Sanitizer with Vitamin E; Giant Eagle Lemon Hand Sanitizer; Giant Eagle Pecan Pumpkin Pie Hand Sanitizer; Giant Eagle Vanilla Bean Hand Sanitizer; Gifted Hands; Gil Handy San; Gilway Antiseptic Hand Saniizer 3.8L; Gilway Antiseptic Hand Saniizer 8 fl.oz; Ginger Gel Hand Sanitizer; Ginger Lime Hand Sanitizer; Ginger Lime Waterless Hand Wash; Gingerbread; Gingerbread House Scented Anti-Bacterial Hand Sanitizer; Gingerbread Jubilee; Gingerhead Girl anti-bacterial SCENTED HAND SANITIZER; Gingersbread House Anti-Bacterial Scented Hand Sanitizer; Gio Solution Sanitizer; Giovanni - Antibacterial Hand Sanitizer - Fragrance Free 70 Percent; Girls Rule The World Antibacterial Hand Sanitizer Berry Scented; Girls Rule The World Antibacterial Hand Sanitizer Cotton Candy Scented; Girls Rule The World Antibacterial Hand Sanitizer Watermelon Scented; Girls Rule The World Antibacterial Hand Wipes Berry Scented; Girls Rule The World Antibacterial Hand Wipes Cotton Candy Scented; Gizmo Gel Hand Sanitizer; Gizmoclean; Gj Chemical Antiseptic Hand Sanitizer; Glazed Pear; Gleamist Hand Sanitizer; Glistening Pear Hand Sainitizer; Glitter Ritz Golden Vanilla Embers; Glitter Ritz Iced Berry; Gliza; Global Care 2 Pack Hand Sanitizer; Global Care 8oz Hand Sanitizer -original; Global Care Alcohol Ethyl Rubbing Alcohol; Global Care Ethyl Rubbing Alcohol; Global Care Hand Sanitizer, Ethyl Alcohol; Global Care Instant 8oz Hand Sanitizer - Original; Global Care Instant Hand Sanitizer 1.8oz; Global Care Instant Hand Sanitizer 16oz; Global Care Instant Hand Sanitizer 2oz; Global Care Instant Hand Sanitizer 8oz; Global Choice Hand Sanitizer; Global Clean Instant Hand Sanitizer; Global Cosmetics Hand sanitizer; Global Equipment Company; Global Industrial; Global Industrial Hand Sanitizer with Aloe; Global care travel Ethyl Alcohol; Glow Hands On Sanitizer; Glow Town; Glow Town hand sanitizer 59ml GTL0001; Glow Town hand sanitizer236ml GTL0002; Gna; Go Clean 70% Gel Hand Sanitizer Topical Soluition; Go Clean Antiseptic Hand Wipes; Go Clean Hand Sanitizer; GoMed Hand Sanitizer; Goaway Hand Sanitizer; Goaway Hand Sanitizer Liquid; Gold Bond Hydrating Hand Sanitizer; Gold Eagle Motor Force Hand Sanitizer; Goldeer Brand Hand Sanitizer; Goldef Antiseptic Hand Sanitizer; Golden Grooming Company Hand Sanitizer; Golden Hand San; Golden Moon Hand Sanitizer; Goldlove Hand Sanitizer None; Good Day Hand Sanitizer; Good Good Advanced Hand Sanitizer; Good Neighbor Pharmacy Emergency Preparedness and First Aid Contains 167 Pieces; Good To Go Sanitizing Kit; Good Vibes Only Hand Sanitizer; Good life Hand Sanitizer 01; Good to Go Alcohol Wipes; Good to Go Hand Sanitizer; GoodEarth; GoodHands Hand Sanitizer Cool Rain; Goodhands Alcohol Wipes; Goodwill Labs Advanced Antiseptic Wipe; Goodwill Labs Advanced Hand Sanitizer; Goongsecret Hands Clean; Goop Hand Sanitizer Wipe; Goop Hydro-Gel; Gothan Grape Scented Hand Sanitizer 01; Gothan Grape scented hand sanitizer 01; Gothan grape scented hand sanitizer 01; Grace and Stella Hand Sanitizer; Grand Valley Reagents HEC Hand Sanitizer Gel; Grandway Hand Sanitizer 1.8oz; Grandway Hand Sanitizer 16oz; Grandway Hand Sanitizer 2oz; Grandway Hand Sanitizer 8oz; Grape Fruit Hand Sanitizer; Grape Hand Sanitizer; Grape Scented Hand Sanitizer 01; Grape scented hand sanitizer 01; Grapefruit Hand Sanitizer; Grapefruit Hand Sanitizer 04; Grapefruit Hint Hand Sanitizer; Graydon Natural-Hydrating; Grease Magic Hand Saniitizer; Green Antiseptic Mwh & Gargle; Green Apple Hand Sanitizer; Green Beauty Hand Sanitizer; Green Care Safe Sanitizer Plus; Green Check Brands; Green Clean Hand; Green Clean Hand 70; Green Clean Hand Water 70; Green Door Distilling Company Hand Sanitizer; Green Earth Alcohol Gel Sanitizer; Green Ekii Hand Sanitizer; Green F5 Sanitizing Hand Wipes; Green Fresh Plus A; Green Fresh Sanitizer Handwash; Green Goo Hand Sanitizer; Green Guard Antimicrobial Towelettes; Green Island; Green Island Sanitiser; Green Key; Green Koala Instant Hand Sanitizer; Green Pump; Green Supply Hand Sanitizer; Green Tea Antibacterial Hand Sanitizer; Green Tea Gel Hand Sanitizer; Green World Hand Skin Sanitiser; Green and Clean Hand Sanitizer Orange Scent; Green supply Hand Sanitizer 01; Greenerways 80% Ethyl Alcohol Hand Sanitizer; Greenerways Hand Sanitizer Gel - Lavender; Greenerways Hand Sanitizer Gel - Mint; Greenerways Hand Sanitizer Gel - Unscented; Greenex Hand Sanitizer; Greenfield Agencies Alcohol Wipes; Greenfrog HAND SANITIZER; Greenfrog Hand Sanitizing; Greenfrog Hand Sanitizing Wipes; Greeniche Hand Sanitizer; Grime STOPPERS Fast Acting Hand Sanitizer Gel; Grime STOPPERS Fast Acting Hand Sanitizer Liquid; Grime STOPPERS Instant Hand Sanitizer; Grove Blood Orange; Grove Blood Orange Scent; Guard; Guard Hand Sanitizer; Guard Hand Sanitizer Aloe; Guard Hand Sanitizing Gel; Guard instant hand sanitizer; GuardH Instant Hand Sanitizer; GuardMe Hand Sannitizer; GuardRx Gel Hand Sanitizer; GuardRx Lavender Peppermint; GuardRx Lavender Peppermint Extra Strength; GuardRx Red Thyme; GuardRx Red Thyme Extra Strength; GuardRx Unscented; GuardRx Unscented Extra Strength; Guardian Gel; Gulch Hand Sanitizer; Gum Drop Hand Sanitizer; Gumball Madness Anti-Bacterial Scented Hand Sanitizer; Gumdrop Glitz Hand Sanitizer; Gurtler Rx Hand Sanitizer; Gustar Clean Hand Sanitizer; Gustar Hand Sanitizer (ethanol); Gustar Hand Sanitizer(ethanol); H C; H S S; H2One; H2One Advanced Formula Hand Sanitizer; H2One Hand Sanitizer; H3coH HAND SANITIZER; HA YAO 75% Alcohol Hand Sanitizer; HANBEE Hand Sanitizer Moisturizing Serum 62% 100ml; HANCHEONSOO Hand Antiseptic; HAND AND NATURE SANITIZER PEACH 250mL; HAND CLINIC Gel; HAND PLUS Gel; HAND SANITIZER Advanced Formula aloe and vitamin E; HAND SANITIZER CITRUS COCONUT with moisture beads; HAND SANITIZER Cherie Cherry; HAND SANITIZER MIST 50ml; HAND SANITIZER PASSION FLOWER with moisture beads; HAND SANITIZER POMEGRANATE APPLE with moisture beads; HAND SANITIZER SUN BLOSSOM with moisture beads; HAND SANITIZER aloe and vitamin E; HAND SANITIZER gel; HAND SANITIZER liquid; HAND SANITIZER with ALOE VERA; HAND-SAN Hand Sanitizing Gel; HANDRUB Hand Sanitizer; HANDS Antiseptic Hand Sanitizer Gel; HANDS Hand Sanitizer; HANITIZER Hand Sanitizer; HANNA HAND SANITIZER gel; HANNA HAND SANITIZER liquid; HANNA Hand Sanitizer; HARBOR FREIGHT Hand sanitizer 59mL 01; HAUTIAN PURE HAND CLEAN Gel; HD Group LLC Duns number 833742898 SUPPRESS Hand Sanitizer; HDX Hand Sanitizer; HEALER LAB CLEAN UP HAND Gel; HEALER LAB EVERY CARE S HAND Gel; HEALER LAB SAFE GOOD HAND Gel; HEALER LAB Safe good hand gel; HEALTHCARE Instant Hand Sanitizer Strawberry Scent; HEALTHCARE Instant Hand Sanitizer Vanilla Scent; HEALTHIFY Alcohol Wipes; HEB Citrus Hand Sanitizer; HEISCLEAN FOR MAN 150g; HELIOS Hand Sanitizer; HELLO KITTY MOISTURIZING HAND SANITIZER Candy Apple; HEM Saw Eliminator 216 Hand Sanitizer; HER LH2473 Vanilla Scented Hand Sanitizer Kit; HER LH2475 Vanilla Scented Hand Sanitizer Kit; HER LH2476 Citrus Scented Hand Sanitizer Kit; HER LH2484 Strawberry Scented Hand Sanitizer Kit; HER LT279 Vanilla Limited Too Hand Sanitizer Kit; HER LT288 Citrus Limited Too Hand Sanitizer Kit; HER LT289 Vanilla Limited Too Hand Sanitizer Kit; HER LT297 Strawberry Limited Too Sanitizer Kit; HEROES Hand Sanitizer Gel; HK Instant Hand Sanitizer; HN Essentials Hand Sanitizer Gel with Aloe Vera; HNJ Products LLC Hand Sanitizer; HOT COLLECTION HAND SANITIZER Sealand Coconut; HPY Instant Hand Sanitizer; HPY Moisturizing Instant Hand Sanitizer; HS Hand Sanitizer; HS-1 Tru-Cap Alcohol Antiseptic 80% Topical Solution; HS-70 Handsanitizer HANDSANITIZER; HS-70A Handsanitizer HANDSANITIZER; HS-70C Handsanitizer HANDSANITIZER; HS-70C SELECT Handsanitizer HANDSANITIZER; HSFB hand sanitizer; HSUS Antiseptic Hand Sanitizer Ethyl Alcohol; HUDA Beauty 75% Alcohol Hand Rinse Free Disinfectant; HUGO Naturals FRENCH LAVENDER HAND SANITIZER; HUGO Naturals VANILLA PEPPERMINT HAND SANITIZER; HUMASTE Antibacterial Alcohol Wipes; HUMASTE Hand Sanitizer; HUMETEC Hand Sanitizer Gel; HUMETEC Hand Sanitizer Gel - Citrus; HUSKY 515 Instant Hand Sanitizer; HY-GN Quality Hand and Surface Sanitizers; HYGIEE Hand sanitizer; HYR Hand Sanitizer; Ha Jian Tang Antibacterial Water-free Hand Sanitizer; Hada Hand Sanitizer; Haea plus Hand Sanitizer; Haku Gardenia Hand Sanitizer; Haku Pikake Hand Sanitizer; Haku Pineapple Hand Sanitizer; Haku Plumeria Hand Sanitizer; Hallo Iceland Angelica Herb Hand Sanitizer; Hallo Iceland Kelp Hand Sanitizer; Hallo Iceland Moss Hand Sanitizer; Hallo Sapa Volcanic Ash Hand Sanitizer; Hallyu Hand Sanitizer; Hammer Spring Hand Sanitizer; Han I Foam; Han-I-Foam; Han-I-Size; Han-San; Han-San Gel; Han-San Gel with Aloe; Han-San Topical; Han-San Topical 80; HanBee Hand Sanitizer 70% 100ml; HanBee hand sanitizer 70% 500ml; HanSan Hand Sanitizer; Hanacure Hand Sanitizer; Hand; Hand 2 Mind Hand Sanitizer; Hand Alcohol Wipes; Hand Antiseptic Wipe; Hand Care Set Fresh Berries; Hand Care Set Spiced Vanilla; Hand Care Set Winter Citrus; Hand Citrus Sanitizer; Hand Cleaer; Hand Clean Plus 100 (Ethanol); Hand Clean Plus 100 (ethanol); Hand Clean Plus 100 S; Hand Clean Plus-100S; Hand Clean antibacterial gel; Hand Cleaner; Hand Cleaner 7; Hand Cleaner Gel; Hand Cleaner Hand Sanitizer; Hand Cleaning Gel; Hand Cleanser; Hand Cleansing Gel; Hand Clear Fresh gel; Hand Coconut Lime Sanitizer; Hand Defender; Hand Disinfection; Hand E San; Hand Essentials Instant Hand Antiseptic; Hand Ful Care Sprayhand Sanitizer; Hand Gel; Hand Gel Prolim Instant Hand Sanitizer; Hand Gel Sanitizer; Hand Guard; Hand Guard Foaming Instant Hand Sanitizer; Hand Guard Plus; Hand Hero Hand Sanitizer; Hand In Hand; Hand In Hands Sanitizer; Hand RX Hand Sanitizer; Hand Recovery; Hand Rub; Hand Rub for Healthcare; Hand Rx Hand Sanitizer; Hand SANITIZER; Hand Safe Hand Sanitizer Advanced aloe vera Vitamin E; Hand San; Hand San 510D; Hand San Gel; Hand San Protect; Hand Sani Gel U; Hand Saniitizer; Hand Sanitiser; Hand Sanitiser Gel; Hand Sanitize; Hand Sanitizer; Hand Sanitizer (80% Alcohol) Liquid; Hand Sanitizer (Rinse-free); Hand Sanitizer (WHO Alcohol); Hand Sanitizer (warman); Hand Sanitizer - Citrus Cucumber; Hand Sanitizer - EtOH; Hand Sanitizer - Ethanol; Hand Sanitizer - Four Thieves Blend; Hand Sanitizer - Italian Lemon and Lime; Hand Sanitizer - Lavender; Hand Sanitizer - Orange Blossom; Hand Sanitizer - Unscented; Hand Sanitizer 01; Hand Sanitizer 08; Hand Sanitizer 1.8 oz Antiseptic; Hand Sanitizer 1.8 oz Lemon Ice; Hand Sanitizer 1.8 oz Strawberry Scented; Hand Sanitizer 1.8 oz Watermelon Scented 1.8 oz.; Hand Sanitizer 100; Hand Sanitizer 1000 ml Complete; Hand Sanitizer 100ML; Hand Sanitizer 100ml; Hand Sanitizer 120 ml Complete; Hand Sanitizer 128oz; Hand Sanitizer 12oz; Hand Sanitizer 16oz; Hand Sanitizer 2.0; Hand Sanitizer 236ml; Hand Sanitizer 236ml 01; Hand Sanitizer 236ml 02; Hand Sanitizer 240 ml; Hand Sanitizer 24ct Pouch; Hand Sanitizer 250; Hand Sanitizer 250ml; Hand Sanitizer 2oz; Hand Sanitizer 2pk Aloe 2oz; Hand Sanitizer 2pk Each 29.6ml Lavender Scent; Hand Sanitizer 2pk Each 29.6ml Mandarin Scent; Hand Sanitizer 2pk Each 29.6ml Mint Scent; Hand Sanitizer 2pk Lavender 2oz; Hand Sanitizer 2pk Lemon 2oz; Hand Sanitizer 3.4oz 01; Hand Sanitizer 3.78 L; Hand Sanitizer 300ml; Hand Sanitizer 32oz; Hand Sanitizer 34oz; Hand Sanitizer 3oz; Hand Sanitizer 3pk; Hand Sanitizer 4.0 60% Flowers; Hand Sanitizer 42oz; Hand Sanitizer 4oz; Hand Sanitizer 5.0 60% Flowers; Hand Sanitizer 500 ml; Hand Sanitizer 500ML; Hand Sanitizer 500ml; Hand Sanitizer 59ml 01; Hand Sanitizer 59ml 02; Hand Sanitizer 60; Hand Sanitizer 60% LV; Hand Sanitizer 60ml; Hand Sanitizer 62 Percent; Hand Sanitizer 62% Alcohol based formula; Hand Sanitizer 62% Gel Solution; Hand Sanitizer 63% - LLTT; Hand Sanitizer 64oz; Hand Sanitizer 69 Percent; Hand Sanitizer 7; Hand Sanitizer 70 Alcohol; Hand Sanitizer 70 Alcohol Antiseptic; Hand Sanitizer 70 Alcohol Antiseptic Fresh Citrus; Hand Sanitizer 70 Percent; Hand Sanitizer 70%; Hand Sanitizer 70% Alcohol; Hand Sanitizer 70% Alcohol Gel; Hand Sanitizer 70% Gel; Hand Sanitizer 70% Gel Solution; Hand Sanitizer 70% Unscented; Hand Sanitizer 72% Ethyl Alcohol; Hand Sanitizer 75 PERCENT; Hand Sanitizer 75 Percent; Hand Sanitizer 75%; Hand Sanitizer 75% v/v Ethanol Panita; Hand Sanitizer 8 oz. Vitamin E 70 v/v; Hand Sanitizer 80 Alcohol; Hand Sanitizer 80%; Hand Sanitizer 80% Ethanol; Hand Sanitizer 80ml; Hand Sanitizer 8oz; Hand Sanitizer 8oz 01; Hand Sanitizer A1; Hand Sanitizer A2; Hand Sanitizer ACE-GA001; Hand Sanitizer AM/PM Hand; Hand Sanitizer Advance; Hand Sanitizer Agavespa Skincare; Hand Sanitizer Alcohol 75%; Hand Sanitizer Alcohol 80%; Hand Sanitizer Alcohol Antiseptic 70% Topical Gel; Hand Sanitizer Alcohol Antiseptic 70% Topical Gel - MV; Hand Sanitizer Alcohol Antiseptic 70% Topical Gel -MV; Hand Sanitizer Alcohol Antiseptic 73; Hand Sanitizer Alcohol Cleaner; Hand Sanitizer Alcohol Hand; Hand Sanitizer Alcohol based formula; Hand Sanitizer All Variants; Hand Sanitizer Aloe 2oz; Hand Sanitizer Aloe 8oz; Hand Sanitizer Aloe Vera; Hand Sanitizer Aloe Vera and Vitamin E; Hand Sanitizer Anti-Bacterial Hand Gel Aloe Scented; Hand Sanitizer Anti-Bacterial Hand Gel Jasmine Scented; Hand Sanitizer Anti-Bacterial Hand Gel Lavender Scented; Hand Sanitizer Anti-Bacterial Hand Gel Rose Scented; Hand Sanitizer Antibacterial; Hand Sanitizer Antibacterial Gel; Hand Sanitizer Antibacterial Vitamin E; Hand Sanitizer Antibacterial Vitamin E 2 oz. 2 pk; Hand Sanitizer Antibacterial With Moisturizers and Aloe 8oz; Hand Sanitizer Antibacterial With Moisturizers and Vitamin E 1.8oz; Hand Sanitizer Anticeptic; Hand Sanitizer Antimicrobial Hand Rub; Hand Sanitizer Antiseptic 75 Alcohol; Hand Sanitizer Apple Cider; Hand Sanitizer Apple Spice; Hand Sanitizer Apple Tart Scented; Hand Sanitizer Avery Essentials; Hand Sanitizer B1; Hand Sanitizer B2; Hand Sanitizer BY Pure; Hand Sanitizer Banana Split; Hand Sanitizer Berry Holidays; Hand Sanitizer Berry Pretty; Hand Sanitizer Birthday Cake; Hand Sanitizer Blend 1; Hand Sanitizer Blooming Peony; Hand Sanitizer Blow Pop Raspberry; Hand Sanitizer BlowPop Cherry; Hand Sanitizer Blue; Hand Sanitizer Blue Berries Scented; Hand Sanitizer Blue Raspberry; Hand Sanitizer Bodycology; Hand Sanitizer Bubble; Hand Sanitizer CA73; Hand Sanitizer CA75; Hand Sanitizer CDS Office Products; Hand Sanitizer Cactus Blossom; Hand Sanitizer Candy Apple; Hand Sanitizer Cherry; Hand Sanitizer Cherry Blossom; Hand Sanitizer Cherry Frosting Scented; Hand Sanitizer Chocolate; Hand Sanitizer Cinnamon Apple Cider; Hand Sanitizer Circle K; Hand Sanitizer Citrus; Hand Sanitizer Citrus Blend; Hand Sanitizer Citrus Scent; Hand Sanitizer Clear; Hand Sanitizer Coastal Surf; Hand Sanitizer Coco Rose; Hand Sanitizer Coconut; Hand Sanitizer Coconut Dreams; Hand Sanitizer Coconut and Lime 3oz; Hand Sanitizer Cookies n Cream; Hand Sanitizer Cotton Candy; Hand Sanitizer Cotton Candy Scented; Hand Sanitizer Cranberry Tart; Hand Sanitizer Crisp Autumn Leaves; Hand Sanitizer Cucumber Aloe; Hand Sanitizer Cucumber Gel 75% Alcohol Antiseptic; Hand Sanitizer Cucumber Liquid 80% Alcohol Antiseptic; Hand Sanitizer Cucumber and Melon 3oz; Hand Sanitizer DB; Hand Sanitizer Dr. Butler; Hand Sanitizer Dubble Bubble Original; Hand Sanitizer E; Hand Sanitizer Earthzen; Hand Sanitizer Easy Klean; Hand Sanitizer Ethyl Alcohol; Hand Sanitizer Eucalyptus Breeze; Hand Sanitizer Expert; Hand Sanitizer FOREST SCENT; Hand Sanitizer Farmhouse; Hand Sanitizer Foam; Hand Sanitizer Fragrance Free; Hand Sanitizer Fragrance Free 70 Alcohol; Hand Sanitizer Fragrance-free, Paraben-free; Hand Sanitizer Fragrant Gel; Hand Sanitizer Franslux; Hand Sanitizer Free and Clear; Hand Sanitizer Fresh Kiwi Scented; Hand Sanitizer Fresh Lemon; Hand Sanitizer Fresh Snow; Hand Sanitizer Frosted Coconut; Hand Sanitizer Frosted Cranberry; Hand Sanitizer G; Hand Sanitizer GERM-EZE; Hand Sanitizer Gel; Hand Sanitizer Gel - 65% Alcohol; Hand Sanitizer Gel - 80% Ethyl Alcohol - Coconut Scent; Hand Sanitizer Gel - Sparkling Citrus Scent; Hand Sanitizer Gel 110 ml; Hand Sanitizer Gel 2; Hand Sanitizer Gel 62%; Hand Sanitizer Gel 70% Alcohol; Hand Sanitizer Gel 73% Alcohol Antiseptic; Hand Sanitizer Gel 75% alcohol; Hand Sanitizer Gel 85 ml; Hand Sanitizer Gel Biokaab; Hand Sanitizer Gel Fragrance Free; Hand Sanitizer Gel Hand Rx; Hand Sanitizer Gel OVERTURE; Hand Sanitizer Gel Private; Hand Sanitizer Gel Sparkling Citrus; Hand Sanitizer Gel With Fragrance; Hand Sanitizer Gel w/Vit E/Aloe; Hand Sanitizer Gel with Aloe; Hand Sanitizer Gel with Dragons Breath; Hand Sanitizer Gel with Fragrance; Hand Sanitizer Gel with Lavender; Hand Sanitizer Gel(75% Alcohol); Hand Sanitizer Gift Set 3-pack; Hand Sanitizer Global Care; Hand Sanitizer Global Care (Ethyl); Hand Sanitizer Graepfruit Grove; Hand Sanitizer Grape; Hand Sanitizer Grapefruit Grove; Hand Sanitizer Green; Hand Sanitizer Gumdrop; Hand Sanitizer Hand Clean; Hand Sanitizer Hand Rub; Hand Sanitizer Hand Rx; Hand Sanitizer Hand Sanitizer; Hand Sanitizer Handy Helper Wipes; Hand Sanitizer Hill Country Fare; Hand Sanitizer Hospital Grade; Hand Sanitizer Hospital and Industrial Strength; Hand Sanitizer Hydrogel; Hand Sanitizer ICB; Hand Sanitizer Island Escape; Hand Sanitizer Juicy Blueberry; Hand Sanitizer Juicy Orange Scented; Hand Sanitizer Juicy Peach; Hand Sanitizer Juicy Pine Apple Scented; Hand Sanitizer Kiwi Avo Smoothie Scented; Hand Sanitizer LOL; Hand Sanitizer Lavender; Hand Sanitizer Lavender 2oz; Hand Sanitizer Lavender Field; Hand Sanitizer Lavender With Aloe; Hand Sanitizer Lavender with aloe; Hand Sanitizer Lemon; Hand Sanitizer Lemon 2oz; Hand Sanitizer Lemon Lime; Hand Sanitizer Lemon Lime Fizzer Scented; Hand Sanitizer Lemon Scent; Hand Sanitizer Lemon Scent Hand Rx; Hand Sanitizer Lemon Verbena; Hand Sanitizer Lemongrass with aloe; Hand Sanitizer Lil Drug Store Products, Inc.; Hand Sanitizer Lime; Hand Sanitizer Liq Top 60%; Hand Sanitizer Liq. 62%; Hand Sanitizer Liquid; Hand Sanitizer Liquid Alcohol Antiseptic 80%; Hand Sanitizer Liquid Alcohol Antiseptic 80% Topical Solution; Hand Sanitizer Liquid Antiseptic; Hand Sanitizer Liquid(75% Alcohol); Hand Sanitizer Mango Papaya Popcicle Scented; Hand Sanitizer Merry Berry; Hand Sanitizer Mint Cream Scented; Hand Sanitizer Mist; Hand Sanitizer Mist Lemongrass; Hand Sanitizer Mist Sea Salt; Hand Sanitizer Mist Watermelon; Hand Sanitizer Moisturizers and Aloe; Hand Sanitizer Moisturizers and Lavender; Hand Sanitizer Moisturizing Gel; Hand Sanitizer Moisturizing with Vitamin E and Glycerin; Hand Sanitizer Mojito Mint; Hand Sanitizer Motion PLUS; Hand Sanitizer Multi Pack of 3 different types; Hand Sanitizer Non Sterile; Hand Sanitizer Ocean Air; Hand Sanitizer Ocean Breeze; Hand Sanitizer Oola Distillery; Hand Sanitizer Orange; Hand Sanitizer Orange Blossom; Hand Sanitizer Orange Label; Hand Sanitizer Orange Tangerine; Hand Sanitizer Orange With Aloe; Hand Sanitizer Orange with aloe; Hand Sanitizer Original; Hand Sanitizer Original 1.8 oz; Hand Sanitizer Original 8oz; Hand Sanitizer PP106; Hand Sanitizer Panita; Hand Sanitizer Passionfruit Pomegranate; Hand Sanitizer Peach; Hand Sanitizer Peach Cream Scented; Hand Sanitizer Pen; Hand Sanitizer Pen Frosted Coconut; Hand Sanitizer Pen Sweet Pomegranate; Hand Sanitizer Pen Whipped Vanilla; Hand Sanitizer Peppermint; Hand Sanitizer Peppermint Vanilla; Hand Sanitizer Pink Lemon; Hand Sanitizer Pink Lemonade; Hand Sanitizer Pink Peppermint; Hand Sanitizer Pink Plumeria; Hand Sanitizer Pink Strawberry Lollipop; Hand Sanitizer Plus; Hand Sanitizer Plus Aloe Vera; Hand Sanitizer Plus, EA; Hand Sanitizer Pomegranate and Vanilla 3oz; Hand Sanitizer Pouch; Hand Sanitizer Premium Formula; Hand Sanitizer Pump Blooming Peony; Hand Sanitizer Pump Eucalyptus Breeze; Hand Sanitizer Pump Sunny Citrus; Hand Sanitizer Pump Sweet Melon; Hand Sanitizer Pumpkin Cardamom; Hand Sanitizer Pumpkin Spice; Hand Sanitizer Pure Experience Gel; Hand Sanitizer Pure Experience Liquid; Hand Sanitizer Rasp Berry Scented; Hand Sanitizer Raspberry; Hand Sanitizer Razz; Hand Sanitizer Refill; Hand Sanitizer Refill 15 oz; Hand Sanitizer Rinse Free; Hand Sanitizer SANKO; Hand Sanitizer SAYFE; Hand Sanitizer SCENTED ANTI BACTERIAL HAND SANITIZER; Hand Sanitizer Sample; Hand Sanitizer Sandalwood; Hand Sanitizer Saniklean; Hand Sanitizer Scented 70% Alcohol; Hand Sanitizer Scented Gel with Aloe and Vit E; Hand Sanitizer Set; Hand Sanitizer Single Use; Hand Sanitizer Sling Blooming Peony; Hand Sanitizer Sling Eucalyptus Breeze; Hand Sanitizer Sling Honey Pear Cider; Hand Sanitizer Sling Iced Peppermint Pine; Hand Sanitizer Sling Sunny Citrus; Hand Sanitizer Sling Sweet Melon; Hand Sanitizer Sling Winter Berry; Hand Sanitizer Sling with Essential Oil Fresh Rosewater; Hand Sanitizer Smarties Grape; Hand Sanitizer Smarties Orange Cream; Hand Sanitizer Smarties Pineapple; Hand Sanitizer Smarties Strawberry Banana; Hand Sanitizer Smells Clean; Hand Sanitizer Soothing Gel; Hand Sanitizer Sour Apple; Hand Sanitizer Sparkling Berry; Hand Sanitizer Sparkling Melon; Hand Sanitizer Sparkling Rose; Hand Sanitizer Spary; Hand Sanitizer Spicy Peppermint; Hand Sanitizer Spraying; Hand Sanitizer Spritz; Hand Sanitizer Straw Berry Scented; Hand Sanitizer Strawberry; Hand Sanitizer Sugar Coated Plum; Hand Sanitizer Sugar Cookies; Hand Sanitizer Sugared Berry; Hand Sanitizer Sunmed; Hand Sanitizer Sunny Citrus; Hand Sanitizer Sweet Melon; Hand Sanitizer Sweet Peach Citrus; Hand Sanitizer Sweet Pomegranate; Hand Sanitizer Sweet Rose; Hand Sanitizer Sweet Sugar Cookie; Hand Sanitizer Toasted Vanilla; Hand Sanitizer Trimax Dino Liquid Antiseptic; Hand Sanitizer Tropical Scent; Hand Sanitizer U; Hand Sanitizer USA; Hand Sanitizer Ultrathon; Hand Sanitizer Unscented; Hand Sanitizer Upside Down; Hand Sanitizer Vanilla; Hand Sanitizer Vanilla Bourbon; Hand Sanitizer Vanilla Ice Cream Scented; Hand Sanitizer Vanilla Scent; Hand Sanitizer Vanilla Sugar Cookie; Hand Sanitizer Vanilla Sugar Scented; Hand Sanitizer Vitamin E; Hand Sanitizer Vitamin E and Aloe Vera; Hand Sanitizer Vitamin E and Aloe Vera 2 oz. 2 pk; Hand Sanitizer W.o.d.welder; Hand Sanitizer WHO; Hand Sanitizer WHO Formulation; Hand Sanitizer WITH CITRUS; Hand Sanitizer Warm Vanilla; Hand Sanitizer Water Melon Scented; Hand Sanitizer Watermellon; Hand Sanitizer Watermelon; Hand Sanitizer Whipped Vanillas; Hand Sanitizer White Citrus; Hand Sanitizer Wild Rasp Berry Scented; Hand Sanitizer Winter Jelly Bean; Hand Sanitizer Wipe; Hand Sanitizer Wipe 10 Pack; Hand Sanitizer Wipes; Hand Sanitizer Wipes Pack with Plastic Dispensing Lid; Hand Sanitizer With Aloe; Hand Sanitizer With Aloe 70 Percent; Hand Sanitizer With Aloe Vera; Hand Sanitizer With Aloe Vera Sweet Berry; Hand Sanitizer With Aloe Vera Vitamin E; Hand Sanitizer With Aloe Vera and Cbd 70 Percent; Hand Sanitizer With Aloe Vera and Vitamin E 70 Percent; Hand Sanitizer With Aloe and Vitamin E; Hand Sanitizer With Glycerin and Aloe Vera; Hand Sanitizer With Moisturizers and Vitamin E; Hand Sanitizer With Ve; Hand Sanitizer With Vitamin E and Aloe 62 Percent; Hand Sanitizer Wolke; Hand Sanitizer Zytec Germ Buster; Hand Sanitizer bottle with carabiner; Hand Sanitizer by CN Pharma; Hand Sanitizer by Medpanol; Hand Sanitizer by Sourcery; Hand Sanitizer for Healthcare; Hand Sanitizer gel; Hand Sanitizer golden amber; Hand Sanitizer grapefruit; Hand Sanitizer lemon lavender; Hand Sanitizer lemon mint; Hand Sanitizer lime mint; Hand Sanitizer non sterile; Hand Sanitizer purest hygiene; Hand Sanitizer w Travel Clip 1.8 oz; Hand Sanitizer w/ Carabiner (Lemon Scented) 2oz Bonus pack; Hand Sanitizer w/ Carabiner (Strawberry Scented) 2oz Bonus pack; Hand Sanitizer w/ Carabiner (Watermelon Scented) 2oz Bonus pack; Hand Sanitizer w/Carabiner; Hand Sanitizer wipe 75%; Hand Sanitizer wipes; Hand Sanitizer wipes 75% Alcohol; Hand Sanitizer with Additive; Hand Sanitizer with Aloe; Hand Sanitizer with Aloe Evora Labs; Hand Sanitizer with Aloe Vera; Hand Sanitizer with Aloe and Vitamin E; Hand Sanitizer with Aloe-Vitamin E; Hand Sanitizer with Clip 1.8oz; Hand Sanitizer with Gel; Hand Sanitizer with Moisturizers; Hand Sanitizer with Moisturizers Vitamin E and Aloe; Hand Sanitizer with Moisturizers and Aloe Vera Modesa; Hand Sanitizer with Moisturizers and Vitamin E; Hand Sanitizer with Moisturizing Aloe; Hand Sanitizer with Real Lemon Alcohol Antiseptic 80% Topical Solution; Hand Sanitizer with Soothing Aloe; Hand Sanitizer with Vitamin E; Hand Sanitizer with aloe vera; Hand Sanitizer(with Fragrant); Hand Sanitizer, Coco Rico; Hand Sanitizer, Cross the lime; Hand Sanitizer, Dolce Vita; Hand Sanitizer, Flower Power; Hand Sanitizer, Glitter Fever; Hand Sanitizer, Hello Sunshine; Hand Sanitizer, Into The Wild; Hand Sanitizer, Mystic Fruits; Hand Sanitizer, Namaste; Hand Sanitizer, Unicorn Edition; Hand Sanitizer- 2oz Hype-Lab; Hand Sanitizer-50ML; Hand Sanitizer-Antibacterial Hand Sanitizer; Hand Sanitizer-Citrus Garden; Hand Sanitizer-Gel; Hand Sanitizer-Lemon Verbana; Hand Sanitizer-Lemonade; Hand Sanitizer-Sweet Citrine; Hand SanitizerBET; Hand Sanitizers; Hand Sanitizing; Hand Sanitizing A Plus Teacher Unscented; Hand Sanitizing Alcohol Wipes; Hand Sanitizing Blueberry; Hand Sanitizing Gel; Hand Sanitizing Gel Frota; Hand Sanitizing Gel by CN Pharma; Hand Sanitizing Green Apple; Hand Sanitizing Lavender; Hand Sanitizing Mandarin; Hand Sanitizing Rub; Hand Sanitizing Special Teacher Green Apple; Hand Sanitizing Sprays; Hand Sanitizing Spring Rain; Hand Sanitizing Strawberry; Hand Sanitizing Teachers Rule Mandarin; Hand Sanitizing Unscented; Hand Sanitizing Wipe; Hand Sanitizing Wipes; Hand Sanitizing Wipes 70 Percent; Hand Sanitizing with Lavender Oil; Hand Sanitzer; Hand Sanitzer Gel - Aloe Scent; Hand Saniziter; Hand Santizer; Hand Savior Radiance Boosting Serum; Hand Solutions Hand Sanitizer; Hand Solutions Hand Sanitizer 16.9oz; Hand Solutions Hand Sanitizer 8oz; Hand Spritzer; Hand Surface Sanitizer; Hand Surface Spraysanitizer; Hand Wash Antibacterial; Hand Washing Gel E; Hand Wipes; Hand Wipes Aloe Vera Scented 75% Alcohol; Hand Wipes Peony Scented 75% Alcohol; Hand Wipes Towelettes; Hand Wipes Unscented 75% Alcohol; Hand and Care Clear Gel; Hand and Nature Sanitizer Acacia; Hand and Nature Sanitizer Almond; Hand and Nature Sanitizer Aloe; Hand and Nature Sanitizer Apple; Hand and Nature Sanitizer Apple Mango; Hand and Nature Sanitizer Avocado; Hand and Nature Sanitizer Calendula; Hand and Nature Sanitizer Camellia; Hand and Nature Sanitizer Cherry Blossom; Hand and Nature Sanitizer Ge L Apple; Hand and Nature Sanitizer Ge L Rose; Hand and Nature Sanitizer Ge L S Grape; Hand and Nature Sanitizer Ge L S Lemon; Hand and Nature Sanitizer Ge L S Rose; Hand and Nature Sanitizer Grape; Hand and Nature Sanitizer Grapefruit; Hand and Nature Sanitizer Green Tea; Hand and Nature Sanitizer Honey; Hand and Nature Sanitizer Jasmine; Hand and Nature Sanitizer Kiwi; Hand and Nature Sanitizer Lavender; Hand and Nature Sanitizer Lemon; Hand and Nature Sanitizer Orance; Hand and Nature Sanitizer Peach; Hand and Nature Sanitizer Peony; Hand and Nature Sanitizer Peppermint; Hand and Nature Sanitizer Raspberry; Hand and Nature Sanitizer Rose; Hand and Nature Sanitizer Rosemary; Hand and Nature Sanitizer Tomato; Hand and Nature Sanitizer White Musk; Hand and Skin Disinfectant; Hand and Skin Disinfectant Sprey; Hand and Skin Sanitizer; Hand and Surface Anti Bacterial Wipes; Hand and Surface Sanitizer 70 Percent; Hand sanitizer; Hand sanitizer 01; Hand sanitizer 29ml 01; Hand sanitizer 29ml 02; Hand sanitizer 500ml; Hand sanitizer 50ml 01; Hand sanitizer gel; Hand sanitizer lemongrass with aloe; Hand sanitizer-spray; Hand sanitizerportcall; Hand santiser; Hand-Aid; Hand-D HAND SANITIZER; Hand-E XL; Hand-E-san; Hand-Klean; Hand-San70; Hand-Sanitizer; Hand-Washing Free Disinfectant Gel; Hand-free Disinfectant Gel; Hand-washing antibacterial gel; HandSanitizer; HandSanitizerAmericanMale; HandSanitizerStephanieYoung; HandStand Hand Sanitizer; Handeez Instant Hand Sanitizer; Handera Instant Hand Sanitizer; Handex Instant Hand Sanitizer; Handful Sanitizer; Handi Sani; Handi-Sani; Handkare; Handrub Sanitizer; Hands Clean; Hands Free Sanitizer; Hands Fresh Antiseptic Hand Rub with aloe vera; Hands On Hydrating Hand Sanitizing Wipes; Hands Out Hand Sanitizer Gel; Hands Puri L Hand Sanitizer; Hands Puri Plus Hand Sanitizer; Hands Puri Plus Hand Sanitizing Mist; Hands Puri Q Hand Sanitizer; Hands Puri Q Hand Sanitizing Mist; Hands Sanitizer 70 Ethyl Alcohol; Hands Sanitizing; Hands Wash-Free Disinfectant; Hands and Pure; Hands free disinfectant; Hands on Hydrating Hand Sanitizer; Hands-free Surgical Gel; Hands-free skin sanitizer; HandsOn HAND SANITIZER; Handsanitizer Antibacterial Gel; Handstand FAS; Handworks hand sanitizer 236ml 01; Handy Andys; Handy Antibac Antiseptic Hand Sanitizing Wipes; Handy Antibac Antiseptic Hand Sanitizng Wipes; Handy Antibac Antiseptic Instant Gel Hand Sanitizer; Handy Doctor Hand Sanitizer; Handy Pocket Sanitizer Mist; Handy Solutions Hand Sanitizer With Aloe Vera; Handy Solutions Instant Hand Sanitizer With Aloe And Vitamin E; Handy Solutions Instant Hand Sanitizer with Vitamin E 70% Alcohol; Handy antibac Antiseptic Hand Sanitizing Wipes; Handzitizer; Hangar 24 Hand Sanitizer; Hanico LAB HAND SANITIZER gel; Hanitizer; Hanna Labs Instant Hand Sanitizer 70 Percent; Hanna Wipes 100 Wipes; Hannaford Hand Sanitizer; Hannas Secret Hand Sanitizer Disposable; Hansan Foam; Hansan Spray; Hansor antibacterial hand sanitizer with aloe and Vitamine E 59ml; Hantastic; Hanzol Gelled Hand Sanitizer; Hanzol Liquid Hand Sanitizer; Happ Hand Sanitizer; Happy Farm Hand Sanitizer; Happy Hands; Happy Hands Hand Sanitizer; Happy Little Camper Hand Sanitizer; Harba Hand Sanitizer; Harbor Mist Alco-Foam Hand Sanitizer; Hard Rock Hotel Universal Orlando Hand Sanitizer Gel; Harmon Face Values Cherry Blossom Scent Hand Sanitizer; Harmon Face Values Cucumber Melon Scent Hand Sanitizer; Harmon Face Values Fresh Waters Scent Hand Sanitizer; Harmon Face Values Hand Sanitizer Spray; Harmon Face Values Pomegranate Scent Hand Sanitizer; Harmon Face Values Warm Vanilla Sugar Scent Hand Sanitizer; Harper Scott; Harris Teeter Hand Sanitizer With Vitamin E; Harris Teeter Hand Sanitizer With Vitamin E and Aloe; Harris Teeter Iodine Tincture Mild; Hatchet Sanitizer; Hawaiian Passion Hand Sanitizer; Hawyy Hand Sanitizer; Hdx; Heal The World; Heal The World Bulk Hand Sanitizer; Heal the World - Original Hand Sanitizer; HealPeace; Healing Pools Moisturizing Aloe Disinfectant; Healing Pools Moisturizing Aloe Hand Sanitizer; Healing Solutions; Healing Solutions Premium Hand Sanitizer; Healing Solutions hand sanitizer; Healing Water Amber Flower Anti-Bacterial Hand Sanitizer; Healing Waters Aloe Cucumber Hand Sanitizer; Healing Waters Cherry Blossom Scented Waterless Hand Sanitizer; Healing Waters Clean Cotton Scented Anti-Bacterial Hand Sanitizer; Healing Waters Cotton Blossom Hand Sanitizer; Healing Waters Cucumber Melon Scented Anti-Bacterial Hand Sanitizer; Healing Waters Cucumber Melon Scented Waterless Hand Sanitizer; Healing Waters Island Nectar Scented Anti-Bacterial Hand Sanitizer; Healing Waters Lemon Verbena Hand Sanitizer; Healing Waters Peach Nectarine Hand Sanitizer; Healing Waters Sweet Pea Lily Hand Sanitizer; Healing Waters Sweet Pea Scented Anti-Bacterial Hand Sanitizer; Healing Waters Vanilla Orchid Anti-Bacterial Hand Sanitizer; Healing Waters Violet Rose Hand Sanitizer; Healing Waters White Tea Pear Hand Sanitizer; Health And Beyond Instant Hand Sanitizer; Health And Beyond Instant Hand Sanitizer Twin Pack Twin Pack; Health Care Instant Hand Sanitizer Ice Clear; Health Family Hand Sanitizer; Health Mart Iodides; Health Mart Iodine Tincture Mild; Health N Hygiene Hand Sanitizer; Health People; Health Smart Hand Sanitizer; Health Smart Hand Sanitizer Cucumber Melon; Health Smart Hand Sanitizer Lavender; Health Smart Hand Sanitizer ORIGINAL; Health Smart Hand Sanitizer Original; Health Smart Hand Sanitizer Peach; Health Smart Hand Sanitizer Sweet Pea; Health Smart Instant Hand Sanitizer; Health Smart Instant Hand Sanitizer with aloe vera and vitamin e; Health Smart Instant Hand Sanitizer with aloe vera and vitamin e cucumber melon; Health Smart Instant Hand Sanitizer with aloe vera and vitamin e lavender; Health Smart Instant Hand Sanitizer with aloe vera and vitamin e peach; Health Smart Instant Hand Sanitizer with aloe vera and vitamin e sweet pea; Health Supply 770; Health Wealth Hand Sanitizer; Health and Beyond Antiseptic Hand Sanitizer; Health and Beyond Green; Health and Wellness Essentials Hand Sanitizer; HealthMate; Healthcare Personnel Hand Sanitizer Ethyl Alcohol; Healthcare Personnel Handwash; Healthmate Hand Sanitizer; Healthy Hands; Healthy Hands Aloe Instant Hand Antibacterial; Healthy Hands Gel; Healthy Hands Hand Sanitizer; Healthy Hands Instant Antiseptic Hand Cleanser; Healthy Hands Instant Antiseptic Hand Cleanser With Moisturizers; Healthy Hands Liquid; Healthy Hands Plus; Hearty Advanced Hand Sanitizer; Hearty Advanced Hand Sanitizer gel; Heavy Duty Alcohol Wipes Lemon; Heb Jasmine Tea and Basil; Heisclean for Man; Heisclean for Woman; Helix Hand Sanitizer; Hello Bello; Hello Bello Hand Sanitizer; Hello Kitty Hand Sanitizer; Hello Kitty Moisturizing Hand Sanitizer Strawberry; Hello Kitty Moisturizing Hand Sanitizer Watermelon; Hello Kitty by Sanrio Hand Sanitizer; Hello hand sanitizer - aloe and sea minerals; Hello hand sanitizer - fresh mint and tea tree oil; Hello hand sanitizer - lavender plus eucalyptus; Hello hand sanitizer - meyer lemon plus vitamin E; Helping Hands Do Great Things; Helping Hands Sanitizer; Hemicare Hand Sanitizer; Hemirus Hand Clinic Gel; Hemirus Hand Clinic Gel 62%; Hemirus Hand Clinic Gel 70%; Hemirus Hand Sanitizer Gel; Hemirus Hand Sanitizer Gel 70%; Hemirus Hand Sanitizer Mist; Hemp Crean; Hemphills Bliss Hand Sanitizer; Hendricks Family Distillery Hand Sanitizer; Henkel Beauty Care Professional; Henleys Hand Sanitizer; Hephzibah Instant Hand Sanitizer; Herba Purgo Hands Sanitizer Gel(Ethanol); Herbion Naturals Advanced Hand Sanitizer; Herclean Alcohol wipes; Hero Wipes EMS; Hero Wipes EMS Hand Sanitizer; Heroes Alcohol Antiseptic 80% Topical Solution; Hes Clean; Hes Clean Adam; Hes Clean Eve; Hes Clean Plus; Hes Clean for Woman; Hestia Clinic Gel Hand Sanitizer; Hexadermal Antiseptic Hand Sanitizer; Hexifoam-skin Disinfectant Aer 1%; Heys Hand Sanitizer; HiGeen ANTISEPTIC HANDS AND THINGS SANITIZER BLUE FLOWERS; HiGeen ANTISEPTIC HANDS AND THINGS SANITIZER FRAGRANCE FREE; HiGeen ANTISEPTIC HANDS AND THINGS SANITIZER LEMON; HiGeen ANTISEPTIC HANDS AND THINGS SANITIZER MARACUJA; HiGeen ANTISEPTIC HANDS AND THINGS SANITIZER VERBENA; HiGeen Antiseptic Hand Sanitizer BLUE FLOWERS; HiGeen Antiseptic Hand Sanitizer Gel FRESH LEMON FRAGRANCE; HiGeen Antiseptic Hand Sanitizer Gel FRESH MARACUJA FRAGRANCE; HiGeen Antiseptic Hand Sanitizer Gel Fragrance Free; HiGeen Antiseptic Hand Sanitizer Gel LEMON VERBENA FRAGRANCE; HiGeen Antiseptic Hand Sanitizer Gel With Vitamin Beads Blue Flowers With Silicon Holder; HiGeen Antiseptic Hand Sanitizer Gel With Vitamin Beads Damask Rose With Silicon Holder; HiGeen Antiseptic Hand Sanitizer Gel With Vitamin Beads Fragrance Free With Silicon Holder; HiGeen Antiseptic Hand Sanitizer Gel With Vitamin Beads Green Tea and Cucumber With Silicon Holder; HiGeen Antiseptic Hand Sanitizer Gel With Vitamin Beads Jasmine With Silicon Holder; HiGeen Antiseptic Hand Sanitizer Gel With Vitamin Beads Kiwi With Silicon Holder; HiGeen Antiseptic Hand Sanitizer Gel With Vitamin Beads Lemon With Silicon Holder; HiGeen Antiseptic Hand Sanitizer Gel With Vitamin Beads Marine With Silicon Holder; HiGeen Antiseptic Hand Sanitizer Gel With Vitamin Beads Oud With Silicon Holder; HiGeen Antiseptic Hand Sanitizer Gel With Vitamin Beads Papaya with Silicon Holder; HiGeen Antiseptic Hand Sanitizer Gel With Vitamin Beads Passion Flower With Silicon Holder; HiGeen Antiseptic Hand Sanitizer Gel With Vitamin Beads Red Fruits With Silicon Holder; HiGeen Antiseptic Hand Sanitizer Gel With Vitamin Beads Together in love With Silicon Holder; HiGeen Antiseptic Hand Sanitizer Gel With Vitamin Beads Wild Berry With Silicon Holder; HiGeen Antiseptic Hand Sanitizer Gel with Vitamin Beads Blue Flowers; HiGeen Antiseptic Hand Sanitizer Gel with Vitamin Beads Damask Rose; HiGeen Antiseptic Hand Sanitizer Gel with Vitamin Beads For Kids and Adults BiBo; HiGeen Antiseptic Hand Sanitizer Gel with Vitamin Beads For Kids and Adults Bitty and Mitty; HiGeen Antiseptic Hand Sanitizer Gel with Vitamin Beads For Kids and Adults Dooh; HiGeen Antiseptic Hand Sanitizer Gel with Vitamin Beads For Kids and Adults FiLo; HiGeen Antiseptic Hand Sanitizer Gel with Vitamin Beads For Kids and Adults Gito; HiGeen Antiseptic Hand Sanitizer Gel with Vitamin Beads For Kids and Adults Kitty; HiGeen Antiseptic Hand Sanitizer Gel with Vitamin Beads For Kids and Adults MiDo; HiGeen Antiseptic Hand Sanitizer Gel with Vitamin Beads For Kids and Adults NiNo; HiGeen Antiseptic Hand Sanitizer Gel with Vitamin Beads Fragrance Free; HiGeen Antiseptic Hand Sanitizer Gel with Vitamin Beads Gold; HiGeen Antiseptic Hand Sanitizer Gel with Vitamin Beads Gold With Silicon Holder; HiGeen Antiseptic Hand Sanitizer Gel with Vitamin Beads Green Tea and Cucumber; HiGeen Antiseptic Hand Sanitizer Gel with Vitamin Beads Jasmine; HiGeen Antiseptic Hand Sanitizer Gel with Vitamin Beads Kiwi; HiGeen Antiseptic Hand Sanitizer Gel with Vitamin Beads Lemon; HiGeen Antiseptic Hand Sanitizer Gel with Vitamin Beads Marine; HiGeen Antiseptic Hand Sanitizer Gel with Vitamin Beads Oud; HiGeen Antiseptic Hand Sanitizer Gel with Vitamin Beads Papaya; HiGeen Antiseptic Hand Sanitizer Gel with Vitamin Beads Passion Flower; HiGeen Antiseptic Hand Sanitizer Gel with Vitamin Beads Red Fruits; HiGeen Antiseptic Hand Sanitizer Gel with Vitamin Beads Together in love; HiGeen Antiseptic Hand Sanitizer Gel with Vitamin Beads Wild Berry; Hibiscus Breeze; Hibiscus Coconut Hand Sanitizer; Hibiscus ROSE HAND SANITIZER; Hidden Passion Hand Sanitizer 01; Hiddenorga Hand Sanitizer; Hideout Hand Sanitizer; High Active Formula 75% Hand Sanitizer; High Five; High Five Hand Sanitizer; High Proof Hand Sanitizer; High Purity Hand Sanitizer; High West Distillery Hand Sanitizer; Highfive Hand Sanitizer; Higuys; Hill Country Fare Hand Sanitizer With Aloe Fragrance; Hillyard Foaming Instant Hand Sanitizer; Hillyard Instant Hand Sanitizer; Hocleans Hand Sanitizing Alcohol Wipes; Hocleans Instant Hand Sanitizer; Holiday Cookie Antibacterial; Holiday Dust Set; Holiday Wonders Frosted Marshmallow Antibacterial Hand Sanitizer; Holiday Wonders Sugared Plums Antibacterial Hand Sanitizer; Holiday Wonders Vanilla Peppermint Antibacterial Hand Sanitizer; Holiday Wonders Winter Berries Antibacterial Hand Sanitizer; Holiday World Hand Sanitizer; Holladay Helping Hands; Hollywood Cosmetics 70% Ethyl Alcohol; Hollywood Cosmetics Maximum Strength Moisturizing Hand Sanitizer; Holoi; Holy Care 75 Percent Alcohol Hand Sanitizer; Holy Clean Guys Antiseptic Hand Sanitizer; Home Cher Sanitizer - Shield; Home Hand Sanitizer; Home Hand Sanitizer Aloe; Homeland Full Strength Hand Sanitizer; Homeland Hand Sanitizer; Homeland Hand Sanitizer Refill; Homewear Antibacterial Hand; Hommax SANITIZER gel; Homworks Alcohol Wipes Multipurpose; Homworks Antibacterial Hand Wipes; Honey Jarret Clean Hand Sanitizer; HoneyBeeHandSanitizer; Honeysuckle Ginger Hand Sanitizer; Honour Hand Care; Honour Hand Care Hand Sanitizing Gel; Hoosier Sanitizer; Hootin Pomegranate; Hootin Pomegranate HAND SANITIZER; Horizon Sanitizing Wipes; Hosp Clean; Hot Collection Instant Hand Sanitizer; Hot Wheels HAND SANITIZER; Hot Wheels Hand Sanitizer; Hot Wheels Sanitizer 0.84 oz; Hotel G Hand Sanitizer; Houdini Hand Sanitizer Beautiful Blossom; Houdini Hand Sanitizer Calming Cucumber; Houdini Hand Sanitizer Clear Magic; Houdini Hand Sanitizer Lavender Bliss; Houdini Hand Sanitizer Linen Fresh; Houdini Hand Sanitizer Ocean Mist; Houdini Hand Sanitizer Pomegranate Power; Houdini Jr. Hand Sanitizer Blueberry Blast; Houdini Jr. Hand Sanitizer Bubble Gum Burst; Houdini Jr. Hand Sanitizer Peppermint Power; Houdini Jr. Hand Sanitizer Super Strawberry; Household wipes; Houston Hand Sanitizer; Howe, Consulting; Hs; Hs100; Hs100xg; Hs62; Hs62xg; Hs70; Hs70xg; Hs75; Hs75xg; Hsc100; Hsc62; Hsc62-LM; Hsc62-LV; Hsc62-RM; Hsc70; Hsc70-LM; Hsc70-LV; Hsc70-RM; Huangjisoo Hand Sanitizer; Huangjisoo Hand clean; Hubot Healthcare Hand Sanitizer; Huclon Hand Sanitizer; Hudson Scientific Hand Sanitizer; Hug Lets CC Hand Sanitizer Gel(Ethanol); Hug Lets Clean Sanitizer Gel(Ethanol); Hug Perfume Sanitizer- Floral; Hug Perfume Sanitizer- Fresh; HuiBaiLi DISINFECTING WET WIPES; Human Guard Hand Sanitizer Wipes; Human Guard Sanitizer; Humco Iodides Tincture; Humco Strong Iodine Tincture; Humetec Bergamot Hand Sanitizer Mist; Humetec Lavender Hand Sanitizer Mist; Humetec Ocean Hand Sanitizer Mist; Humetec Rosemary Thyme Hand Sanitizer Mist; Humphreys Alcoholado Maravilla; Hunca Care Stop Bac; Hush hand sanitizer with aloe vera extract; Husky Instant Hand Sanitizer; HyLanson Alcohol Wipes 13cmX19cm; HyLanson Alcohol Wipes 5.9inX7.9in; HyLanson Antiseptic Wipes 75 Alcohol 60mmX80mm; HyTouch; Hyalolex Antiseptic Hand Rub; Hyalolex Hand Sanitizer; Hyalolex Hand Sanitizer Lavender; Hyalolex Hand Sanitizer with Lavender and Zinc; Hyalolex Hand Sanitizer with Lemon and Zinc; Hyatt Hand Sanitizer 70% Alcohol; Hydra Pearl Hand Sanitizer; Hydra Pearl Liquid; Hydra Pearl Wipe; HydraGen Pro Barrier Hand Sanitizer; Hydrating Anti-Bacterial Hand Sanitizer; Hydrating Hand Saintizer; Hydrating Instant Hand Sanitizer; Hydrel; Hydri-San 3C Hand Sanitizer; Hydro; Hydro Alcohol Gel; Hye Hands Hand Wash; Hygeia Effect Hand Sanitizer; Hygeia Hand Sanitizer; Hygenix Sanitizer; Hygenize; Hygenize Alcohol Wipes; Hygenize Hand Sanitizer; Hygiene; Hygiene Hero; Hygiene Master Instant Hand Sanitizer; Hygiene Plus Hand Sanitizer; Hygiene wipes (Alcohol); Hygiene-Spray Disinfectant; Hygienex Cucumbermelon Hand Sanitizer; Hygienex Hand Sanitizer; Hygienex Hand Sanitizer Eucalyptus Refreshing Gel; Hygienex Hand Sanitizer Liquid Sanitizer with Eucalyptus Oil; Hygienex Lavender Field Hand Sanitizer; Hygienex Linen Breeze Hand Sanitizer; Hygieni-Klean Hand Sanitizer; Hygieni-Klean Hand Sanitizer Fluid; Hygieni-Klean Hand Sanitizer Fluid Fresh; Hygieni-Klean Hand Sanitizer Fluid Healthcare Grade; Hygieni-Klean Hand Sanitizer Fluid Healthcare Grade Fresh; Hygieni-Klean Hand Sanitizer Fluid Healthcare Grade Lavender; Hygieni-Klean Hand Sanitizer Fluid Lavender; Hygieni-Klean Hand Sanitizer Gel; Hygieni-Klean Hand Sanitizer Gel Fresh; Hygieni-Klean Hand Sanitizer Gel Healthcare Grade; Hygieni-Klean Hand Sanitizer Gel Healthcare Grade Fresh; Hygieni-Klean Hand Sanitizer Gel Healthcare Grade Lavender; Hygieni-Klean Hand Sanitizer Gel Lavender; Hygieni-Klean Hand Sanitizer Lav; Hygienic Hand SanitizerGel; Hygienic Instant Hand Sanitizing Wipes; Hygienigel; Hygienium Hand Sanitizer; Hygienium Hand Sanitizer wipes; Hygipart Antiseptc; Hynaut Alcohol Prep Pad; Hynex Clean; Hypercare; Hypex Antibacterial Hand Sanitizer; Hytn Hand Sanitizer With Aloe Vera and Vitamin E; I Bebe; I D Anti Bacterial Alcohol Based Hand Disinfectant; I D Anti Bacterial Alcohol Based Hand and Skin Disinfectant; I D Sept Anti Bacterial Alcohol Based Hand Sanitizing Wipe; I D Sept Anti Bacterial Alcohol Based Hand and Skin Disinfectant; I FAM Skin Hand Sanitizer gel; I LOVE NY Hand Sanitizer Vanilla Scent; I Love Xmas Penguin Moisturizing Hand Sanitizer Winter Berry; I Love Xmas Polar Bear Moisturizing Hand Sanitizer Marshmallow; I Love Xmas Reindeer Moisturizing Hand Sanitizer, Clementine; I-70 Foaming; I-Softto Alcohol Disinfectant; I-Softto Instant Hand Sanitizer; I-Softto Instant hand Sanitizer; I.D Hand Sanitizer; IC Hand Sanitizer; IC Hand Sanitizer 40B; ICI Alcohol Hand Sanitizer; ICS3 Blue Healthcare Hand Antiseptic; IDO Clean Gel Alpha Hand Sanitizer; IES- Hand Sanitizer Blend; IFM Hand Sanitizer; IGS Safety Supply; IHANUUS HANDS gel; IHANUUS SANITIZER gel; ILAH Skincare Hand Sanitizer; ILOJE Clean and Safe Hand Sanitizer; IM CLEAN SANITIZER Gel; INO MED 2 Hand Sanitizer; INSTANT HAND SANITIZER Gel; INSTANT HAND SANITIZER Original; INSTANT HAND SANITIZER WITH ALOE and VITAMIN E; INSTANT Hand Sanitizer Extra Enriched With Vitamin E Lemon Fresh Scent; INSTANT Hand Sanitizer Extra Enriched With Vitamin E Strawberry Scent; INSTANT Hand Sanitizer Extra Enriched With Vitamin E Vanilla Scent; INSTANT Hand Sanitizer with Moisturizers All In One; INTCO Hand Sanitizer; INTOSKIN ANTISEPTIC HAND SANITIZER Gel; IPS Hand Sanitizer Gel; IPS Hand Sanitizing Wipes; IQ Hand Sanitizer; IQT Hand Sanitizer Gel; IS Clinical Hand Sanitizing Gel; ISNER MILE Hand Sanitizer; IVGEL Hand Sanitizer; Ibarra; Ice Cream Cone Anti-Bacterial Scented Hand Sanitizer; Icee Blue Raspberry Scented Hand Sanitizer; Icee Hand Sanitizer; Icee Strawberry Scented Hand Sanitizer; Icee White Cherry Scented Hand Sanitizer; Icepool Antiseptic Hand Sanitizer; Icing; Icing Iced Frosting Anti-Bacterial Hand Sanitizer; Icing Peppermint Candy Anti-Bacterial Hand Sanitizer; Icing Winterberry Anti-Bacterial Hand Sanitizer; Iconic 70% Hand Sanitizer Gel; Iconic Medical Group Hand Sanitizer - 12oz 12oz; Idegy Hand Sanitizer 300ml; Ido Disinfection Ethanol; If I Must Sisters PPE Hand Sanitizer; Ihanuus Hands; IhomeUltraCleanAlcoholCleaningSpray; Ihs 2000; Ihs 2000 Instant Hand Sanitizer; Ikoo Care Hand Sanitizer; Ili Hand Sanitizer Instant; Iloje Clean and Safe Hand Clean Sanitizer Tissue; Iloje Clean and Safe Hand Sanitizer; Ilsang Doctor Hand Sanitizer Gel; Ilsang Doctor Hand Sanitizer gel; ImK hand sanitizer; Imas; Immortal Nyc Hand Sanitizer; Immunotec Hand Sanitizer; Impulse Antibacterial Hand Sanitizer; Imunology Sanitizer; In Good Hands; InSanitize; Incredibly Clean Hand Sanitizer; Indagel Max Hand Sanitizer; Individual Free and Clear Foaming Antibacterial Skin Cleanser; Indu Hand Sanitizer; Industrial Antiseptic Sanitizer; Industro Hand Sanitizer; Infectiguard Hand Sanitizer; Infinity Shields Hand Sanitizer; Inklouz Hand Sanitizer; Innovate Hand Sanitizer; Innovative Display; Innovative Display Hand Sanitizer; Innovative Display Hand Sanitizing Tissue 150pcs; Innovative Displays Antibacterial Hand Cloths; Inoculex Hand Sanitizer; Inoculex MULTI-PURPOSE SANITIZING WET WIPES; Inovaker Lab Hand Sanitizer; Inpure hand sanitizer; Insanitizer This Stuff Kills The On Your Hands; Insect Sting Relief; Insect Sting Relief Pad; Insect String Relief pad; Insignia England Disinfectant; Insignia Instant Hand Sanitizer; Inspire Hand Sanitizer; Insta Clean Antiseptic Hand Sanitizer Gel Fresh Air; Insta Clean Foam Hand Sanitizer; Insta Clean Hand Sanitizer; Insta-Clean Antiseptic Hand Sanitizer; Insta-Clean Hand Sanitizer Gel; Insta-Shield Hand Sanitizer Gel; InstaClean Hand Sanitizer; InstaFresh; Instaclean Hand Sanitizing; Instaht Hand Sanitizer; Instand Hand Sanitizer; Instant; Instant Anti-bacterial Hand Gel; Instant Antibacterial Hand Sanitizer; Instant Antibacterial Hand Sanitizer Gel; Instant Antibacterialhand Sanitizer; Instant Antiseptic Hand Sanitizer; Instant Foam; Instant Foam Hand Sanitizer; Instant Foaming Hand Sanitizer; Instant Free Hand Sanitizer; Instant HAND SANITIZER; Instant Hand Antiseptic; Instant Hand Sanitier; Instant Hand Sanitiser; Instant Hand Sanitizeing Wipe; Instant Hand Sanitizer; Instant Hand Sanitizer (Ethanol 75%); Instant Hand Sanitizer (Gel-Type); Instant Hand Sanitizer - Clear; Instant Hand Sanitizer - Cocoa Butter; Instant Hand Sanitizer - Ice Clear; Instant Hand Sanitizer - Original; Instant Hand Sanitizer - Strawberry Scented; Instant Hand Sanitizer - Vanilla Scented; Instant Hand Sanitizer 16oz; Instant Hand Sanitizer 2oz; Instant Hand Sanitizer 2oz Bonus pack; Instant Hand Sanitizer 70% Alcohol; Instant Hand Sanitizer 8oz; Instant Hand Sanitizer Aloe Vera; Instant Hand Sanitizer Antibacterial; Instant Hand Sanitizer Blue Raspberry; Instant Hand Sanitizer Bubble Gum; Instant Hand Sanitizer Candy Apple; Instant Hand Sanitizer Chinese Cherry Blossom; Instant Hand Sanitizer Citrus; Instant Hand Sanitizer Citrus Scent; Instant Hand Sanitizer Citrus Zest; Instant Hand Sanitizer Classic; Instant Hand Sanitizer Convenience Pack; Instant Hand Sanitizer E; Instant Hand Sanitizer Extra Enriched With Vitamin E Bead Lemon Fresh Scent; Instant Hand Sanitizer Extra Enriched With Vitamin E Bead Strawberry Scent; Instant Hand Sanitizer Extra Enriched With Vitamin E Bead Vanilla Scent; Instant Hand Sanitizer Foam; Instant Hand Sanitizer Fresh Aloe; Instant Hand Sanitizer Fresh Lemon Scented; Instant Hand Sanitizer Gel; Instant Hand Sanitizer Green Apple Scented; Instant Hand Sanitizer HAND SANITIZER BEACH; Instant Hand Sanitizer Harmon; Instant Hand Sanitizer KE-53SAN; Instant Hand Sanitizer KickPrints; Instant Hand Sanitizer Kuretek; Instant Hand Sanitizer Lavender; Instant Hand Sanitizer Lemon Drop; Instant Hand Sanitizer Moisturizing; Instant Hand Sanitizer Original; Instant Hand Sanitizer Original With Aloe Vera And Vitamin E; Instant Hand Sanitizer Original With Moisturizer and Vitamin E; Instant Hand Sanitizer STERILE 70 Ethyl Alcohol; Instant Hand Sanitizer Strawberry Kiss; Instant Hand Sanitizer Strawberry Scented; Instant Hand Sanitizer Sugar Plum; Instant Hand Sanitizer TENNder CARE; Instant Hand Sanitizer Twisted Peppermint; Instant Hand Sanitizer Unscented; Instant Hand Sanitizer Unscented With Moisturizer and Vitamin E; Instant Hand Sanitizer Vanilla Noel; Instant Hand Sanitizer Wipes; Instant Hand Sanitizer With Aloe; Instant Hand Sanitizer With Aloe 66.5% Ethyl Alcohol; Instant Hand Sanitizer With Aloe and Vitamin E; Instant Hand Sanitizer With Moisturizers; Instant Hand Sanitizer With Moisturizers and Vitamin E; Instant Hand Sanitizer With Shea Butter; Instant Hand Sanitizer With Shea Butter Beads; Instant Hand Sanitizer With Vitamin E; Instant Hand Sanitizer and Moisterizer; Instant Hand Sanitizer with Moisturizers Aloe Scented; Instant Hand Sanitizer with Moisturizers Ocean Scented; Instant Hand Sanitizer with Moisturizers Unscented; Instant Hand Sanitizer with moisturizers (Vitamin E and aloe); Instant Hand Sanitizer with moisturizers (aloe vera and moisturizers); Instant Hand Sanitizer(Gel); Instant Hand Sanitizing Gel; Instant Hand Sanitizing Wipe; Instant Hand Sanitizizer Wipes; Instant Hand Sanitzer; Instant Hand sanitizer; Instant Hand sanitizing Wipes; Instant Liquid Sanitizer; Instant Sanitizing; Instant Sanitizing Gel; Instant Sanitizing Soft Wipes; Instant Sanitizing Wipes; Instant Skin Sanitizer; Instant Unscented Hand Sanitizer with aloe vera Advanced; Instant hand Sanitizer; Instant hand sanitizer; Instant hand sanitizer 01; Instant hand sanitizer 29.6mL 01; Instant hand sanitizer original; Instant hand sanitizer original 01; Instant hand sanitizer with aloe and Vitamine E; Instant hand sanitizer with aloe and Vitamine E 29ml; Instant hand sanitizer with aloe and vitamin E 01; Instant hand sanitizer with aloe and vitamin E 29 ml ML1037 01; Instant hand sanitizer with aloe and vitamin E 350ml 01; Instant hand sanitizer with aloe and vitamin E 59 ml ML1038 01; Instant hand sanitizing wipes; InstantFOAM alcohol hand sanitizer; InstantFoam Complete PURE; InstantGEL Hand Sanitizer; InstantGEL PURE; Insti-San Gel Hand Sanitizer; Instukem Hand Sanitizer Max Moisturizing Gel and vitamin E GRAPE FRUIT; Instukem Hand Sanitizer Moisturizing; Instukem Pro Hand Sanitizer; Instukem Pro Hand Sanitizer Topical; Integrity Made LLC Aloe Scent with Vitamin E HANDSANITIZER; Integrity Made LLC Citrus Scent with Aloe and Vitamin E HANDSANITIZER; Integrity Made LLC Citrus Scent with Vitamin E HANDSANITIZER; Intelliwrist Personal Hand Sanitizer; Intensive Sanitary Compound; Intercom Foaming Hand Sanitizer; International First Amenity Kit; International Harbor; Intertam Hand Sanitizer; Inverse Medical Instant Hand Sanitizer; InvisAssure Hydrating Hand Sanitiz; Invoke Hand Sanitizer; Iodides Tincture; Iodine; Iodine 0.5% Alcoholic Soln; Iodine Tincture Mild; Iodo Albo Iodide; Iq Care; Iris Antimicrobial Hand Sanitizer; Iris Hand Sanitizer; Iris Hand Sanitizer Gel; Iris Hand Sanitizing Wipes; Irresistible Apple Scented Hand Sanitizer; Isagel; Isantizer Hand Sanitizer; Ishine Hand Sanitizer; Ishine Medical Alcohol; Islamic Relief Hand Sanitizer 16oz; Islamic Relief Hand Sanitizer 2oz; Islamic Relief Hand Sanitizer 8oz; Island Cotton; Island Pure Hand Sanitizer Soothing Infused with Aloe Vera; Ism Be-you-tiful Self Care Studio; Iso-Quin; Iso-Quin hand sanitizer; Iso-quin; Isomers Alcohol Antiseptic 80%; Isomers Hand Sanitizer; Isopropyl Alcohol; Isopropyl Alcohol Antiseptic; Issactizer; Isseey - Mist Hand Sanitizer - Living The Dream; Isseey - Mist Hand Sanitizer - Love In The Air; Isseey - Mist Hand Sanitizer - Over The Moon; Isseey - Moisturizing Hand Sanitizer - Aloe; Isseey - Moisturizing Hand Sanitizer - Lemon; Isseey Antibacterial Alcohol Wet Wipes; Itty Bitty SPIDER HAND SANITIZER; Itty Bitty Spider ANTISEPTIC HAND SANITIZER; Itty Bitty Spider Hand Sanitizer; Ivgel Hand Sanitizer; Ivgel Non-Sterile Solution Hydroxyethl; Ivogel Hand Sanitizer; Ivory Hand Sanitizer From Procter and Gamble; Ivresse Hand Sanitizer; Ivresse Sanitizer Disinfectant; Ivresse Sanitizer Disinfecting Wipe; Izod Advantage Hand Sanitizer; Izod Athletics Hand Sanitizer; Izod Saltwater Hand Sanitizer; J2 Medical Supply Hand Sanitizer; JAYEONDAM Clean Hand Sanitizer; JD Antiseptic Alcohol 70%; JIMLUCK 70% Alcohol hand sanitizer; JINHUI Alcohol-Based Hand Sanitizer; JMC Hunt Instant Hand Sanitizer; JMJ Catalina; JMax Hand Sanitizer; JMnano Rinse-free Hand Sanitizer; JNK YRD Advanced Hand Sanitizer LAVENDER SCENT; JNK YRD Advanced Hand Sanitizer LEMON SCENT; JNN-II CLEAN TOK HAND Gel; JNN-II Clean-L Safe Hand Wipes; JOJO Siwa HAND SANITIZER; JOLO Active; JP P Hand Sanitizer; JS Dental Lab Hand Sanitizer; JSP Hand Sanitizer 75%; JSP Hand Sanitizer 80%; JT Meleck Hand Sanitizer; JTD Advanced Hand Sanitizer with Moisturizers and Vitamin E; JUSOFON Hand Sanitizer; JUST BE HAPPY Hand Sanitizer; Jack N Jill Bunny Hand Sanitizer; Jack N Jill Dino Hand Sanitizer; Jack N Jill Koala Hand Sanitizer; Jack N Jill Monkey Hand Sanitizer; Jack N Jill Unicorn Hand Sanitizer; Jack Nicklaus Antibacterial Hand Gel; Jack Nicklaus Antiseptic Hand Sanitizer; Jack Nicklaus hand sanitizer; Jackson Hole Still Works Hand Sanitizer; Jafra Daily Advanced Hand Sanitizer; Janitech Jan-HS-40 Instant Hand Sanitizer; Janitex 75% Alcohol Wet Wipes; Janitex Alcohol Wet Wipes 70%; Janitex Disinfecting Wipes 75% Alcohol; Janssen Immunology hand sanitizer 59ml; Japanese Blossom Scented Hand Sanitizer; Japanese Cherry Blossom; Japanese Cherry Blossom Hand Sanitizer 01; Japanese cherry blossom scented hand sanitizer 01; Jasmine Scented Antiseptic Hand Sanitizer 80 Ethyl Alcohol; Jasmine Scented Hand Sanitizer; Jasmine Tea and Basil Antibacterial Hand Sanitizer; Jasmine and Green Tea Antibacterial Sanitizer; Jasmine scented anti-bacterial hand sanitizer; Jasna Pearl Hand Sanitizer; Jatko Hand Sanitizer; Jelly Bean Antibacterial Hand; Jelly Bean Hand Sanitizer; Jelly Candy Scented Hand Sanitizer; Jenny House Hand Protector; Jensil Alcohol Pad; Jermee Hand Sanitizer; Jet Green Hand Sanitizer; Jet Kleen HS E-80; Jet Kleen HSG-E70; Jet Liquid Hand Sanitizer; Jet Stream 63; Jet Stream 66; Jet Stream 70; Jet Stream 80; JetBlue Antiseptic Hand Sanitizer; Jetclean; Jiabibei 75% Alcohol Wet Wipes; Jianerkang Sanitizing Wipe; Jianerkang Wipes; Jianyi 75% Alcohol Disinfectant; Jifro Quick Drying Antiseptic; Jikimi Patch; Jin Dendropanax Morbifera Hand Sanitizer; Jincol S; Jingle Berry Scented Antibacterial Hand Sanitizer; Jisberry Disposabie Quick-drying Hand Sanitizing; Jisberry Hand Sanitizer; Jit Hand Sanitizers; JoJo Donut Scented Hand Sanitizer; JoJo Siwa Fresh Scented Hand Sanitizer; Joby 75% Alcohol Disinfectant Liquid; Joby 75% Alcohol hand sanitizer; Joby instant hand sanitrizer; Joeten Hand Sanitizer; John Deere Instant Hand Sanitizer; Jojo Siwa Hand Sanitizer; Jojo Siwa Hand Sanitizer 0.84 oz; Jojo Strawberry scented hand sanitizer 01; Jojo blueberry scented hand sanitizer 01; Jojo grape scented hand sanitizer 01; Jojo strawberry scented hand sanitizer 01; Jolly Rancher Blue Raspberry Hand Sanitizer; Joton Advanced Hand Sanitizer; Joton Hand Sanitizer Gel; Jouer Hand 2 Hand Hand Sanitizing Wipes; Journeyman Distillery Hand Sanitizer; Joylux Anti Bacterial Hand Sanitizer; Juicey Alcohol Hand Wipes; Juicey Alcohol Wipes; Juicey Hand Sanitizer; Juicy Couture Non Scented Hand Sanitizer 70 Ethyl Alcohol; Jumbo Wipes; Jungle Tree Hand Sanitizer; Jungle Tree Hand Sanitizer Gel; Juniper Clean Hand Sanitizer; Juniper Clean Super Defense Safety Set; Jurlique Moisturizing Hand Sanitizer Natural Antibacterial; Just 1; Just 4 Girl Waterless Anti Bacterial Hand Sanitizer Berry Blast; Just Hand Sanitizer; Just Hand Sanitizer Hydrogel; Justice 194011 Heart It Antibac Blackberry and Vanilla Scented Anti-bacterial Hand Sanitizer; Justice 198824 You Rock Antibacterial Cotton Candy Blueberry Hand Sanitizer; Justice ANTI BAC HAND SANITIZER; Justice Amazing Melon Scented Antibacterial Hand Sanitizer; Justice Aztec Apple Scented Anti-Bacterial Hand Sanitizer; Justice BFF BERRY Scented Anti-bacterial Hand Sanitizer; Justice BFF Cotton Candy Scent Anti-Bacterial Hand Sanitizer; Justice BFF go together like unicorns glitter Berry Scented Anti-Bacterial Hand Sanitizer; Justice Be Strong Bright Citrus Scented Anti-Bacterial Hand Sanitizer; Justice Beautiful Berry Scent Anti-bacterial Hand Sanitizer; Justice Berry Blast Scented Anti-bacterial Hand Sanitizer; Justice Berry Scented Anti-bacterial Hand Sanitizer; Justice Berry Scented Anti-bacterial Hand Sanitizer - BFF; Justice Berry Twist Scent Antibacterial Hand Sanitizer; Justice Blue berry Scent ANTI BAC HAND SANITIZER; Justice Blueberry Scent Anti-bacterial Hand Sanitizer; Justice Boho Berry Scent Antibacterial Hand Sanitizer; Justice Bright Citrus Scent Anti-Bacterial Hand Sanitizer; Justice Bubble Gum Scent Anti-bacterial Hand Sanitizer; Justice Bubbling Blueberry Scented Anti-bacterial Hand Sanitizer; Justice Cactus Vanilla Scent Anti-Bacterial Hand Sanitizer; Justice Confetti Cupcake Scented Anti-bacterial Hand Sanitizer; Justice Cool Candy Pink Scented Anti-Bacterial Hand Sanitizer; Justice Cotton Candy Scent ANTI BAC HAND SANITIZER; Justice Cotton Candy Scent Anti-bacterial Hand Sanitizer; Justice Cotton Candy Scented Anti bacterial Hand Sanitizer; Justice Cotton Candy Scented Anti-bacterial Hand Sanitizer - Cat; Justice Cranberry Scented Anti-bacterial Hand Sanitizer; Justice Create Inspire Explore Blueberry Scent Anti-Bacterial Hand Sanitizer; Justice Cucumber And Melon Scented Anti-bacterial Hand Sanitizer; Justice Dance Berry Blast Scented Anti-Bacterial Hand Sanitizer; Justice Dance Orange Scent Anti-Bacterial Hand Sanitizer; Justice Dazzling Berry Scented Anti-Bacterial Hand Sanitizer; Justice Diamond Vanilla Scented Antibacterial Hand Sanitizer; Justice Electric LIME Bright Citrus Scented Anti-Bacterial Hand Sanitizer; Justice Elephant Mango Scent Anti-Bacterial Hand Sanitizer; Justice Flamingo Berry Scented Anti bacterial Hand Sanitizer; Justice Frosted Cupcake Scented Anti-Bacterial Hand Sanitizer; Justice Frosted Vanilla Scented Anti-Bacterial Hand Sanitizer; Justice Fruit Punch Scent Antibacterial Hand Sanitizer; Justice Fruit Punch Scented Anti bacterial Hand Sanitizer; Justice Fruit Scent ANTI BAC HAND SANITIZER; Justice Glitter Berry Scented Anti-bacterial Hand Sanitizer - A; Justice Glitter Berry Scented Anti-bacterial Hand Sanitizer - Llama; Justice Grape Scent ANTI BAC HAND SANITIZER; Justice Grape Scented Anti bacterial Hand Sanitizer; Justice Hamburger Green Apple Scent Anti-Bacterial Hand Sanitizer; Justice Latte Cotton Candy Scent Anti-Bacterial Hand Sanitizer; Justice Lavender DREAM Scented Anti-Bacterial Hand Sanitizer; Justice Lemonade Scented Anti bacterial Hand Sanitizer; Justice Letter A Blueberry Scent Anti-bacterial Hand Sanitizer; Justice Letter B Blueberry Scent Anti-bacterial Hand Sanitizer; Justice Letter C Blueberry Scent Anti-bacterial Hand Sanitizer; Justice Letter D Blueberry Scent Anti-bacterial Hand Sanitizer; Justice Letter E Blueberry Scent Anti-bacterial Hand Sanitizer; Justice Letter G Blueberry Scent Anti-bacterial Hand Sanitizer; Justice Letter H Blueberry Scent Anti-bacterial Hand Sanitizer; Justice Letter I Blueberry Scent Anti-bacterial Hand Sanitizer; Justice Letter J Blueberry Scent Anti-bacterial Hand Sanitizer; Justice Letter K Blueberry Scent Anti-bacterial Hand Sanitizer; Justice Letter L Blueberry Scent Anti-bacterial Hand Sanitizer; Justice Letter M Blueberry Scent Anti-bacterial Hand Sanitizer; Justice Letter N Blueberry Scent Anti-bacterial Hand Sanitizer; Justice Letter P Blueberry Scent Anti-bacterial Hand Sanitizer; Justice Letter R Blueberry Scent Anti-bacterial Hand Sanitizer; Justice Letter S Blueberry Scent Anti-bacterial Hand Sanitizer; Justice Letter T Blueberry Scent Anti-bacterial Hand Sanitizer; Justice Letter T Frosted Berry Scented Anti-Bacterial Hand Sanitizer; Justice Love Hugs Me and You Cotton Candy Scent Anti-Bacterial Hand Sanitizer; Justice MAGICAL MELON Scented Anti-bacterial Hand Sanitizer; Justice Meow Mint Scented Anti-bacterial Hand Sanitizer; Justice Mermaid Mix Berry Scent Anti-Bacterial Hand Sanitizer; Justice Mixed Berry ANTI BAC HAND SANITIZER; Justice Mixed Berry Scent Antibacterial Hand Sanitizer; Justice Mixed berry Scent ANTI BAC HAND SANITIZER; Justice Moonstone Melon Scented Antibacterial Hand Sanitizer; Justice Outta This World Vanilla Scented Anti-bacterial Hand Sanitizer; Justice PUPPY LOVE Cotton Candy Scent Anti-bacterial Hand Sanitizer; Justice Paris Punch Scent Antibacterial Hand Sanitizer; Justice Peace Love Lemonade Scented Anti-Bacterial Hand Sanitizer; Justice Peppermint Twist Scented Anti-Bacterial Hand Sanitizer; Justice Pinapple Pizazz Scented Anti-bacterial Hand Sanitizer; Justice Pineapple Scent Anti-Bacterial Hand Sanitizer; Justice Plum Berry Scented Anti-Bacterial Hand Sanitizer; Justice Pop Corn Vanilla Scent Anti-Bacterial Hand Sanitizer; Justice Rabbit Strawberry Scent Anti-Bacterial Hand Sanitizer; Justice Rainbow Berry Scented Anti-bacterial Hand Sanitizer; Justice Rainbow Peach Mango Scented Anti-bacterial Hand Sanitizer; Justice Rainbow Raspberry Scented Anti-bacterial Hand Sanitizer; Justice Rainbow Raspberry Scented Antibacterial Hand Sanitizer; Justice Rhinestone Raspberry Scent Anti-Bacterial Hand Sanitizer; Justice SPARKLING BERRY Scented Anti-Bacterial Hand Sanitizer; Justice Shimmer Strawberry Scent Anti-bacterial Hand Sanitizer; Justice Sparkling Strawberry Scented Anti-bacterial Hand Sanitizer; Justice Sparkling Vanilla Scented Anti-Bacterial Hand Sanitizer; Justice Strawberry Macaroon Scented Anti-Bacterial Hand Sanitizer; Justice Strawberry Scent ANTI BAC HAND SANITIZER; Justice Strawberry Scent Anti-bacterial Hand Sanitizer; Justice Strawberry Stardust Scented Anti-Bacterial Hand Sanitizer; Justice Strawberry Swirl Scented Anti-Bacterial Hand Sanitizer; Justice Sugar Swirl Scent Antibacterial Hand Sanitizer; Justice Sugared DONUT Scented Anti-Bacterial Hand Sanitizer; Justice Sweet Cinnamon Scented Anti-Bacterial Hand Sanitizer; Justice Sweet Pineapple Scented Anti bacterial Hand Sanitizer; Justice Tortoise Green Apple Scent Anti-Bacterial Hand Sanitizer; Justice Tribal Tangerine Scent Anti-bacterial Hand Sanitizer; Justice Tucan Strawberry Scent Anti-Bacterial Hand Sanitizer; Justice Twist Peppermint Scented Anti-Bacterial Hand Sanitizer; Justice VANILLA Latte Scented Anti-Bacterial Hand Sanitizer; Justice Vanilla ANTI BAC HAND SANITIZER; Justice Vanilla Latte Scented Anti-Bacterial Hand Sanitizer; Justice Vanilla Scent ANTI BAC HAND SANITIZER; Justice Vanilla Scent Anti-bacterial Hand Sanitizer; Justice Vanilla Scented Anti-bacterial Hand Sanitizer; Justice Vanilla Sprinkles Scented Anti-bacterial Hand Sanitizer; Justice Vanilla Vibes Scented Anti-bacterial Hand Sanitizer; Justice WATERMELON Scented Anti-bacterial Hand Sanitizer; Justice Watermelon Scent Antibacterial Hand Sanitizer; Justice Watermelon Scented Anti bacterial Hand Sanitizer; Justice Watermelon and Strawberry Scented Anti-bacterial Hand Sanitizer; Justice Wild Melon Scented Anti-Bacterial Hand Sanitizer; Justice be Happy Citrus Scented Antibacterial Hand Sanitizer; Justice very BERRY Grape Scented Anti-Bacterial Hand Sanitizer; Justrite Gel Hand Sanitizer; K-MEGA Hand Sanitizer; K-Mart SmartSense First Aid Contains 303 Pieces; K-mom Zero-dust Rainbow Hand Sanitizer; K-pure; K-pure Hand Sanitizer 70% 500ml; K.Boeun Hand Sanitizer; K.Doctor Clean Ethanol for Disinfection; K.vi zero Sanitizer; KAC Zapx Hand Sanitizer; KANGKANG Antiseptic Hand Sanitizer Ethyl Alcohol 75; KANGMANBABY Hand Sanitizer; KARAT Instant Hand Sanitizer; KAZU Hand Sanitizer; KDS Lab Liquid Styptic; KE-53PS Gel Hand Sanitizer; KE-53PS Hand Sanitizer; KEKE Hand sanitizer 236ml 01; KEKE Hand sanitizer 500ml 01; KEKE Hand sanitizer 59ml 01; KEKE hand sanitizer 236ml 01; KEKE hand sanitizer 500ml 01; KEKE hand sanitizer 59ml keke59 01; KEKE hand sanitizer 750ml 01; KEKE hand sanitizer original 500ml LT31042 01; KENTEX Hand Sanitizing Wet Wipes; KENTEX Instant Hand Sanitizer with Aloe Vera; KITOX Beauty Green Hand Sanitizer Gel; KLAR and DANVER INSTANT HAND SANTIZER; KLEAN 4 IN 1 Hand Sanitizer; KLEAN 4 IN 1 Sanitizer; KLEAN 4-IN-1 Hand Sanitizer; KLEAN 5 IN 1 Sanitizer; KLEAN KARE Hand sanitizer; KLEENEX Antiseptic Hand Rub with Moisturizers; KLEENEX Hand Sanitizer; KLEENEX Luxury Moisturizing Instant Hand Sanitizer; KLX hand sanitizer; KNOCK OUT 75% Alcohol hand sanitizer; KOBOInstant Hand Sanitizer; KOBSO 75% Alcohol Washing-free Hand Sanitizer; KONIX Alcohol Antiseptic Hand Rub; KORA Daily Safe 62; KORA Daily Safe 70; KORA Daily Safe 80; KTM power hand; KUB Cartridge Refeel Antiseptic Hand Sanitizer Unscented; KUB Cartridge Refill Antiseptic Hand Sanitizer Unscented; KUNDAL PURE SAFE POCKET PERFUME HAND SANITIZER MIST BABY powder; KUNDAL PURE and SAFE POCKET PERFUME HAND SANITIZER MIST ASSORTMENT; KUNDAL PURE and SAFE POCKET PERFUME HAND SANITIZER MIST BABY powder; KUNDAL PURE and SAFE POCKET PERFUME HAND SANITIZER MIST CHERRY BLOSSOM; KUNDAL PURE and SAFE POCKET PERFUME HAND SANITIZER MIST HERB MINT; KUNDAL PURE and SAFE POCKET PERFUME HAND SANITIZER MIST LEMON VERBENA; KUNDAL PURE and SAFE POCKET PERFUME HAND SANITIZER MIST WHITE MUSK; KUNDAL PURE and SAFE SANITIZING TISSUE (ETHANOL); KUNDAL PURE and SAFE SANITIZING WIPE (ETHANOL); KVS CHEMICAL 75 Percent Alcohol Hand Sanitizer; KVS CHEMICAL 80 Percent Alcohol Hand Sanitizer; KVS CHEMICAL Hand Sanitizer; KYLIESKIN by Kylie Jenner Hand Sanitizer Non-Sterile Solution Alcohol Antiseptic 80% Topical Solution; Kachi Hand Sanitizer; Kai Klean; Kandesn; Kanechom; Kanlinkor Free Wash Sanitizing; Karens Sunshine; Karma 80 % ETHYL ALCOHOL SANITIZER; Kas Spirits Hand Sanitizer; Kate Aspen Spread Love Not Germs Hand Sanitizer 75 Ethyl Alcohol; Kate Aspen Spread Love Not Germs Hand Sanitizer Burgundy Blush Floral 75 Ethyl Alcohol; Kate Aspen Spread Love Not Germs Hand Sanitizer Woodland 75 Ethyl Alcohol; Kate Naturals Advanced Hand Sanitizer 70%; Kate Naturals Advanced Hand Sanitizer Lavender Scent; Kate Naturals Advanced Hand Sanitizer Lemongrass Scent; Kate Naturals Advanced Hand Sanitizer Original; Katra Hand Sanitizer; Kay Actigel; Kay Alcohol Foam Hand Sanitizer; Kay Alphasan Hand Sanitizer; Kay Chemical Hand Sanitizer Foam; Kazshow Hand Sanitizer; Kazu Beauty Antibacterial Hand Sanitizer; KeeN Hand Sanitizer; Keen Essentials Hand Sanitizer; Keep Clean Advanced Hand Sanitizer 12oz; Keep Clean Advanced Hand Sanitizer 2oz; Keep Clean Advanced Hand Sanitizer 34oz; Keep Clean Advanced Hand Sanitizer 8oz; Keep Clean advanced hand sanitizer 100.55ml 01; Keep Clean advanced hand sanitizer 100ml 01; Keep Clean advanced hand sanitizingspray 60ML 01; Keep Clean advanced sprayer hand sanitizer 100.55ml 01; Keep Clean advanced sprayer hand sanitizer 60ml 01; Keep Clean hand sanitizer 1L 01; Keep Clean hand sanitizer 3.78L 01; Keep Em Clean; Keep Going Hand Sanitizer; Keep It Clean Pure Clean; Keep It Kleen; Keep Us Safe Hand Sanitizer; Keep Your Hand Clean Antibacterial Hand Wipes Berry Scented; Keep Your Hands Clean Antibacterial Hand Sanitizer Berry Scented; Keep Your Hands Clean Antibacterial Hand Sanitizer Cotton Candy Scented; Keep Your Hands Clean Antibacterial Hand Sanitizer Strawberry Scented; Keep Your Hands Clean Antibacterial Hand Sanitizer Watermelon Scented; Keep Your Hands Clean Antibacterial Hand Wipes Berry Scented; Keep n It Clean Sanall Hand Sanitizer Fresh Scent; Keepn It Clean Sanall Hand Sanitizer; Kehai Instant Hand Sanitizer; Keke Hand Sanitizer; KelPure Hand Sanitizer; Kelleys Advanced Hand Sanitizer; Kellys Delight Hand Sanitizer; Kellys Delight Hand Sanitizer (Apple Cider); Kellys Delight Hand Sanitizer (Candy Cane); Kellys Delight Hand Sanitizer (Carry On); Kellys Delight Hand Sanitizer (Christmas Evergreen); Kellys Delight Hand Sanitizer (Cleanliness); Kellys Delight Hand Sanitizer (Green Apple); Kellys Delight Hand Sanitizer (Lavender); Kellys Delight Hand Sanitizer (Midnight Snow); Kellys Delight Hand Sanitizer (Ocean); Kellys Delight Hand Sanitizer (Pumpkin Pecan Waffles); Kemin Hand Sanitizer; Kenda Care Instant Hand Sanitizer 70 Percent; KentKwik Hand Sanitizer Summertime; Keri Clinical Care Hand Sanitizing Gel; Keri Clinical Care Hand Sanitizing Gel - HEALTHCARE; KeriCure Hand Sanitizer; Kerma Hand Sanitizer; Kern Sani Hand Sanitizer; Kern Sani Inc Hand Sanitizer - Unscented; Kern Sani, Inc Hand Sanitizer - Lemon Zest; Kern Sani, Inc Hand Sanitizer - Lemon Zest Gel; Kern Sani, Inc Hand Sanitizer - Ocean Breeze; Kern Sani, Inc Hand Sanitizer - Ocean Breeze Gel; Kern Sani, Inc Hand Sanitizer - Unscented Gel; Kew Hand Sanitiser Bergamot and Ginger; Kew Hand Sanitiser Bluebell and Jasmine; Kew Hand Sanitiser Coconut; Kew Hand Sanitiser Elderflower and Pomelo; Kew Hand Sanitiser Fig and Grape; Kew Hand Sanitiser Grapefruit and Lily; Kew Hand Sanitiser Iris; Kew Hand Sanitiser Jasmine Peach; Kew Hand Sanitiser Lavender and Rosemary; Kew Hand Sanitiser Lemongrass and Lime; Kew Hand Sanitiser Magnolia and Pear; Kew Hand Sanitiser Mango; Kew Hand Sanitiser Narcissus Lime; Kew Hand Sanitiser Osmanthus Rose; Kew Hand Sanitiser Pineapple and Pink Lotus; Kew Hand Sanitiser Sandalwood and Pink Pepper; Kew Hand Sanitiser Summer Rose; Keystone Liquid Hand Sanitizer; KidzStuff Hand Sanitizer; Kiehls Since 1851 Clean Strength Antiseptic Hand Sanitizer; Kikumitsu Hand Sanitizer; Kill Dat; KillE80 Hand Sanitizer; Kills Hand Sanitizer; Kimcare Moisturizing Instant Hand Sanitizer; Kimtrue Instant Hand Sanitizer; Kindest Kare Air-Infused Foam Antiseptic Handrub; Kindest Kare Foam Antiseptic Handrub with Enhanced Emollients; Kine Hearts Wipes; King Pharma Hand Sanitizer; King Pharma Sanitizing Gel; King Power Gel Instant Hand Sanitizer; Kingdom Care; Kingdom Hand Sanitizer Gel; Kingspoint; Kioni Hand Sanitizer; Kioskin Hand Clean Xtra Plus (ethanol); Kiranex 70% Ethanol Hand Sanitizer Gel With Eucalyptus; Kiss Hand Sanitizer; Kit Breakroom Office First Aid; Kit Large Office First Aid; Kiwi Burst Anti-Bacterial Scented Hand Sanitizer; Kkw Fragrance 08; Klarex CHS-Gel; Klarex Cleanse tm; Klarex Clear tm; Kld Alcohol Sanitizing Wipes; Klean Antiseptic Hand Sanitizer; Klean GeniX Alcohol Wipes; Klean GeniX Hand Sanitizer; Klean GeniX Hand Sanitizer Fluid; Klean GeniX Hand Sanitizer Fluid Fresh; Klean GeniX Hand Sanitizer Fluid Lavender; Klean GeniX Hand Sanitizer Gel; Klean GeniX Hand Sanitizer Gel Fresh; Klean GeniX Hand Sanitizer Gel Lavender; Klean GeniX Sanitizing Wipes Fresh; Klean GeniX Sanitizing Wipes Lavender; Klean GeniX Sanitizing Wipes Unscented; Klean Plus Instant Hand Sanitizer Tea Tree Scent; Klean-75; Klean-Genix Hand Sanitizer Gel; Klean-Genix Hand Sanitizer Gel (Fragrance Free); KleanN Go Hand Sanitizer Jojoba and Vit E; Kleanerlab Hand Sanitizer; Kleanops; Kleen Antibacterial Wipes; Kleen Antimicrobial Hand Purifier; Kleen Freak Disinfecting Wipes; Kleen Freak hand sanitizer; Kleen Gel; Kleen Hand Sanitizer; Kleen Hand Sanitizer Green Tea; Kleen Hand Sanitizer Mango; Kleen Hand Sanitizer Relaxing Lavender; Kleen Handz Antiseptic Sanitizer; Kleen Handz Hand Sanitizer Gel; Kleen Instant Hand Sanitizer with Moisturizers; Kleen Sanitizing Wipes; KleenSwell; KleenSwell Gel Hand Sanitizer; KleenSwell Hand Sanitizer; KleenSwell Liquid Hand Sanitizer; Kleenex Hand Sanitizer, Green Certified; Kleenex Instant Hand Sanitizer; Kleenex Moisturizing Hand Sanitizer, Hydrates Skin; Kleenex Moisturizing Instant Hand Sanitizer; Kleenex Reveal Moisturizing Foam Hand Sanitizer; Kleenex Ultra Moisturizing Hand Sanitizer; Kleenline; Klenlii Hand Antibacterial; Klenlii Hand Sanii Alcohol Sanitizer; Klenlii Sanii Wipes 75 Percent; Klenskin Hand Sanitizer; Klenskin Hand Sanitizing Mist; Klenz Hand Sanitizer; Klinare Hand Sanitizer; Knockout Hand Sanitizer; Ko-king Episode One; Koala Hand Sanitizer Peppermint; Koi Hand Sanitizer; Koku All Natural Hand Body 80 Percent Vegan Ethyl Alcohol Lemon; Koku All Natural Hand Body 80 Percent Vegan Ethyl Alcohol Lime; Koku All Natural Hand Body 80 Percent Vegan Ethyl Alcohol Mandarin Orange; Koloa Kauai Sanitizer; Kong HandiPOD; Konicare 5%; Konix; Konix ALCOHOL ANTISEPTIC HAND SANITIZER; Konix Hand Antiseptic; Konix Hand Sanitizer Gel; Konix Hand Sanitizer Wipes; KooBoos Instant Hand Sanitizer; Korkay Hand Sanitizer Gel 80% Topical; Kova Care Hand Sanitizer; Kozuba Hand Sanitizer; Kroger Waterless Hand Sanitizer Citrus Scent; Kroger Waterless Hand Sanitizer Citrus Scent With Moisturizers And Vitamin E; Kroger Waterless Hand Sanitizer With Aloe With Moisturizers And Vitamin E; Kroger Waterless Hand Sanitizer with Aloe; Krud Kutter Hand Sanitizer; Kryolan Hand Sanitizer E; Ksd-831; Kundal Fresh Water Hand Sanitizer; Kundal Fresh Water Hand Sanitizer Plus; Kundal Pure Safe Pocket Perfume Hand Sanitizer Mist Cherry Blossom; Kundal Pure Safe Pocket Perfume Hand Sanitizer Mist Herb Mint; Kundal Pure Safe Pocket Perfume Hand Sanitizer Mist Lemon Verbena; Kundal Pure Safe Pocket Perfume Hand Sanitizer Mist White Musk; Kunigel Moisturizing Antiseptic Hand Sanitizer; Kuri Hand Sanitizer; Kuu Instant Hand Sanitizer; Kwork Ethanol disinfection gel; Kwork Ethanol disinfection-spray; L Occitane En Provence Lavender Scent Hand Sanitizer; L.O.L Surprise Fresh Scented Hand Sanitizer; LA Bodies Purita Anti-Bacterial Hand Sanitizer; LA Fresh Hand Sanitizing Wipe; LABCCIN Antibacterial hand Sanitizing Wipes; LABCCIN Fresh Sanitizer Gel; LABCCIN Fresh Sanitizer gel; LABCCIN Sanitizer Gel; LABCCIN Sanitizer gel; LABCCIN V3 Fresh Sanitizer Gel; LABORY Clean Sanitizer gel; LAFCO Hand Sanitizer Blue Mercury Grapefruit Lavender Cucumber; LAPOTHICELL Zero-Germ Sanitizer Gel; LARA Hygiene Hand Skin Cleaner; LARA MED Antibacterial Hand Skin Cleaner; LARAMED Antibacterial Alcohol Wipes; LARAMED Antibacterial Hand Sanitizer Gel; LARAMED Antibacterial Hand and Skin Cleaner; LE TECHNIQ hAND SANITIZER APPLE POMEGRANATE; LEADER Mild Iodine; LEMON X Hand Sanitizer; LEMONBELLA Lavender Hand Sanitizer; LESNA Hand Sanitizer; LETTERS Lavender Hand Sanitizer; LETTERS Lemon Verbena Hand Sanitizer; LETTERS Ocean Blue Hand Sanitizer; LFG-IND-SAN Single Use Sanitizer Packet; LFG-IND-WIPES Single Use Alcohol Wipe Packets; LIFE BASIC EVERY CARE HAND SANITIZER Gel; LIFE BASIC EVERY CARE SANITIZERspray; LIFEBASIC ZERO CARE HAND SANITIZER Gel; LIFEBASIC ZERO CARE SANITIZERspray; LIFEGUARD Multipurpose Antiseptic Alcohol Wipes; LIFEMEDZ Rinse-FREE HAND SANITIZER; LIME SAFE SANITIZER PLUSspray; LIVING MASTER SAFE GOOD HAND Gel; LK Hand Sanitizer (Ethanol); LK Hand clean gel (Ethanol); LK New Antiseptic Ethanol; LK clean gel (Ethanol); LL Supply Hand Sanitizer; LOL Cherry scented hand sanitizer 01; LOL Hand Sanitizer; LOL SURPISE Antibacterial Wipes; LOL Surprise Cotton Candy Hand Sanitizer; LOL Surprise Cotton Candy Scented Hand Sanitizer; LOL strawberry scented hand sanitizer 01; LOL watermelon scented hand sanitizer 01; LOLA Hand Sanitizer; LOLES Naturals Hand Sanitizer; LONDON Hand Sanitizer Vanilla Scent; LONDON LABS PREMIUM HAND SANITIZER with antibacterial tea tree oil; LONIMAX Hand Sanitising; LONKOOM Alcohol Sanitizing; LORO Hand Sanitizer; LORO Hand Sanitizer Anti-Bacterial Gel; LOVLUV Instant Hand Sanitizer; LOreal Antiseptic Hand Sanitizer; LRV Hand Sanitizer; LRV Hand Sanitizer 70% Consumer; LRV Hand Sanitizer Consumer; LS29 Hand Sanitizer; LTD Global Trading 70% Alcohol Hand Sanitizer; LUCASOL Hand Instant Hand Sanitizer; LUCKY Hand Sanitizer INSTANT Vitamin E PREFERRED FORMULA; LUNES Hand Sanitizer; LUNES Hand Sanitizer Gel; LUOYS Antibacterial Disinfectant; LUOYS Hand Sanitizer; LUSTI Skin Softening hand sanitizer; LUTHIONE FRESH HAND Gel; LUTHIONE HAND Gel; LXR Biotech; LXR Healthcare; LYFE CO HAND SANITIZER 70 percent; La GRACE Aqua Perfect Hand Cleaner; La GRACE Aqua Perfect Hand Sanitizer gel; La Roche Posay Antiseptic Hand Sanitizer; La mer Hand Sanitizer; LaGRACE Aqua Perfect Hand SanitizerSpray; LaGRACE Aqua Perfect SanitizerSpray; LaRose Kills Germs Hand Sanitizer; Lab Amaros Camellia Sanitizer; LabPro Antiseptic Hand Sanitizer; Lactone Carvacrol Hand Disinfectant; Lactone Hand Sanitizer; Lactone Hand Sanitizer Wipe; Lactone Panthenol Hand Sanitizer; Lacura Moisturizing Hand Sanitizer; Lafc Hand Sanitizergel; Lafco New York Hand Sanitizer CHAMOMILE LAVENDER; Lafco New York Hand Sanitizer CHAMPAGNE; Lafco New York Hand Sanitizer Chamomile Lavender; Lafco New York Hand Sanitizer Champagne; Laflare SANTIX HAND SANITIZER; Laflare Santix Hand Sanitizer; Lalaloopsy Watermelon Antiseptic Hand Cleansing; Lancasco Professional Hygiene Hand Sanitizer; Lanco Antiseptic Hand Sanitizer; LandShark Lemon; Landrum Instant Hand Sanitizer; Lara Med Antibacterial Hand and Skin Cleaner; Large ANSI First Aid Kit; Latalia Alcohol Antiseptic 80 Sanitizing; Latalia Hand Sanitizer 80 Alcohol Antiseptic; Latalia Sanitizing Wipe; Latalia Sanitizing Wipes; Lather - Hand Sanitizer With Moisturizing Aloe; Lather - Lavender Hand Sanitizing Wipes With Moisturizing Aloe; Lather Hand Sanitizer; Lather- Hand Sanitizer With Moisturizing Aloe 70 Percent; Laughing Linen; Laughing Linen Hand Sanitizer; Laundry Hand Sanitizer; Laupro Antiseptic Hand Sanitizing Wipes; Laura Ashley Antibacterial Hand Sanitizer Aloe Vera Scented with vitamin E and aloe vera; Laura Ashley Antibacterial Hand Sanitizer Cotton Blossom Scented with vitamin E and aloe vera; Laura Ashley Antibacterial Hand Sanitizer Pink Peony Scented with vitamin E and aloe vera; Laura Lynn Hand Sanitizer 80; Laura Lynn Moisturizing Advanced Hand Sanitizer; Lavendar Hand Sanitizer; Lavender; Lavender ALOE HAND SANITIZER; Lavender Antibacterial Hand Sanitizer; Lavender Antibacterial Hand Sanitizer with Aloe and Vitamin E; Lavender Frost Scented Antibacterial Hand Sanitizer; Lavender Hand Sanitizer; Lavender Hand Sanitizer Girl; Lavender Hand Sanitizer Majestic International; Lavender Hand Sanitizer Wipes; Lavender Hand Sanitizing Wipes; Lavender Life Hand Sanitizer; Lavender On The Go; Lavender Scented 1oz Hand Sanitizer; Lavender Scented Hand Sanitizer; Lavender Scented Hand Sanitizer 01; Lavender Scented Hand Sanitizer Pen; Lavender Vanilla Anti-Bacterial Hand Sanitizer; Lavender Waterless Hand Wash; Lavender de Provence Antibacterial Hand Sanitizer; Lavender scented anti-bacterial hand sanitizer; Lavender scented hand sanitizer 01; Lavinna First Hand Sanitizer; Lavinna First Sanitizer; Lazarus Naturals Hand Sanitizer; Lazarus Provisions Hand Sanitizer; Lazarus Provisions Hand Sanitizer Consumer; Lazarus Provisions Hand Sanitizer Healthcare Personnel; Le Techniq Aloe; Le Techniq Antibacterial Hand Island Citrus; Le Techniq Hand Sanitizer Jasmine Basil; Le Vital Berry Kissed; Le Vital Blossom Delight; Le Vital Dreamy Glow; Le Vital Hidden Passion; Le Vital Japanese Cherry Blossom; Le Vital Midnight Rush; Le Vital Moon to Light; Le Vital Sweet Pea; Le Vital Vanilla Heaven; Le Vital Wake Me Up; Le Vital hand sanitizer with japanese cherry blossom 01; Le Vital hand sanitizer with sweet PEA 01; Leader Decolorized Iodine; Leafree Hand Sanitizer 10.14oz; Leafree Hand Sanitizer 16.91oz; Leafree Hand Sanitizer 3.38oz; Leafree Hand Sanitizer ALOE VERA 10.14oz; Leafree Hand Sanitizer ALOE VERA 16.91oz; Leafree Hand Sanitizer ALOE VERA 3.38 oz; Leafree Hand Sanitizer with ALOE VERA 10.14oz; Leafree Hand Sanitizer with ALOE VERA 3.38oz; Leafree Hand Sanitizer with ALOE VERA16.91oz; Leap Frog Fresh HAND SANITIZER; Lechat; Leivy Clean; Lemon Anti-bacterial Hand Sanitizer; Lemon Fresh Antibacterial Hand Sanitizer; Lemon Hand Sanitizer; Lemon Lavender Sanitizing Wipes; Lemon Lime Hand Sanitizer; Lemon Lime Scent Hand Sanitizer; Lemon Lime Spritz; Lemon Love Hand Sanitizer; Lemon Myrtle Hand Sanitizer; Lemon Sanitizing Cologne; Lemon Scented Antiseptic Hand Sanitizer 80 Ethyl Alcohol; Lemon Scented Hand Sanitizer; Lemon Thyme Antibacterial Hand Sanitizer; Lemon Twist HAND SANITISER; Lemon Twist HAND SANITIZER; Lemon Verbena Hand Sanitizer; Lemon Verbena Waterless Hand Wash; Lemon Verbena anti-bacterial Hand Sanitizer; Lemon Zest Tangerine Hand Sanitizer; Lemon hand sanitizer 01; Lemon splash anti-bacterial SCENTED HAND SANITIZER; Lemon, Verbena and Cedar Hand Mist; Lemon, Verbena and Cedar Hand Sanitizer; Lemonade Hand Sanitizer Boy; Lemuel Hand Sanitizer; Lemyn Organics Medical Grade Hand Sanitizer Gel; Lemyn Organics Medical-Grade Hand Sanitizer; Lencurapro; Leonio Premium Hand Sanitizer; Lets Go Clean, LLC; Level 1 Health Hand Sanitizer Liquid Non-sterile Solution; Level1 Health Hand Sanitizer; Lewcizer 3; Lewcizer 4; Lewcizer 5; Lewcizer 6; Lexidine Alcohol Antibacterial Wipes; Liam Rian 75% Alcohol Hand Wipes; Liauid Hand Sanitizer; Liberty Hand Sanitizer Gel; Liberty Pole Spirits Hand Sanitizer; Liberty Sanitizing Hand Liquid; Lidl Instant Hand Sanitizer; Liebecos Clean Hand Sanitizer; Liebers Hand Sanitizer Advanced Aloe; Liebers Hand Sanitizer Advanced Regular; Life Quality Hand Sanitzer; LifeShield 2oz Hand Sanitizer; LifeShield Hand Sanitizer; LifeShield Hand Sanitizer 70% EtOH; LifeToGo Alcohol Wipes 10 Pack; LifeToGo Alcohol Wipes 50 Pack; LifeToGo Alcohol Wipes Safety Pack; Lifebuoy Hand Sanitizer; Lifebuoy Hand Sanitizer 70 PERCENT; Lifebuoy Hand Sanitizer 75 PERCENT; Lifebuoy Hand Sanitizer Professional; Lifecare Antibacterial Hand Sanitizer; Lifeguard Hand Sanitizer Gel; Lifemedz Hand Sanitizer; Lifewise Hand Sanitizer; Light Hydro Alcohol Gel; Lil Chubs Hand Sanitizer; Lilkoi Hand Sanitizing Wipes; Lily Hand Sanitizer; Lily Hand Sanitizer Gel; Lily of the Desert Nutraceuticals Hand Sanitizer Gel 2 oz.; Lily of the Desert Nutraceuticals Hand Sanitizer Gel 8 oz; Lime Hint Hand Sanitizer; Lime Safe Sanitizer Plus; Lime Scented Antiseptic Hand Sanitizer 80 Ethyl Alcohol; Limpiel; Limpiel70gel; Lindo hand sanitizer 59.2ml with cherry blossom GHA-211 01; Lindo hand sanitizer 59.2ml with refreshing lemon GHA-211 01; Lindo hand sanitizer 59.2ml with soothing aloe GHA-211 01; Line Friends B. Blanc Hand Sanitizer; Lingrui Hand Antiseptic Rinse Free; Linstol Refreshing and Cleansing Hand Sanitizer; Linstol Refreshing and Cleansing Towelette; Lionext Hand Sanitizer; Liquid 80% Hand Sanitizer; Liquid Hand Sanitizer; Liquid Sanitizer; Liquid Tech Hand Sanitizer; LiquidProof Gel Hand Sanitizer; Liquidguard; Lisa Frank Bubblegum Antiseptic Hand Cleansing; Liszt Hand sanitizer without washing; Little Ones Baby Fresh Sanitizer; Little Ones Lavender; Little Ones Original; Liu He HAND SANITIZER; Live Casino Hotel Sanitizer; Live Clean; Live Clean Unscented; Live Life Safely Hand Sanitizer; Live Love Life Hand Sanitizer; Live Love Travel Hand Sanitizer; LiveSafe No Scent Hand Sanitizer; LiveSafe Orange Hand Sanitizer; Living Concepts Hand Sanitizer advanced aloe vera; Livpure; Livpure Hand Sanitizer; Loch and Union Hand Sanitizer; Locke Teddy; Loews Hotels Hand Sanitizer Gel; Loews Portofino Bay Hand Sanitizer Gel; Loews Royal Pacific Resort Hand Sanitizer Gel; Loews Sapphire Falls Hand Sanitizer Gel; Loft and Bear Hand Wash 4 oz. with Ethanol Alcohol; Loft and Bear Hand Wash with Ethanol Alcohol 128 oz/ 1 gallon; Loft and Bear Hand Wash with Ethanol Alcohol 16 oz; Loft and Bear Hand Wash with Ethanol Alcohol 8 oz; Lollipop; Lollipop Scented Anti-bacterial Hand Gel; London Labs Antiseptic Hand Wipes; Lone Star Botanicals Hand Sanitizer; Lone Star Botanicals Hand Sanitizer Gel; Lonely Oak Distillery Hand Sanitizer; Long Lasting Hand Sanitizer; Longevikin Advanced Hand Sanitizer; Longevikin Advanced Hand Sanitizer Gel; Look At Me Expert Hand Sanitizer; Looney Tunes Moisturizing Hand Cleanser with Alcohol Aqua; Looney Tunes Moisturizing Hand Cleanser with Alcohol Pearl; Looney Tunes Moisturizing Hand Cleanser with Alcohol Rose; Looney Tunes Moisturizing Hand Cleanser with Alcohol Sweet Pea; Lord and Berry; Loreal Luxe Antiseptic Hand Sanitizer; Loro Hand Sanitizer; Los Poblanos Lavender Hand Sanitizer; Loud Lock Hand Sanitizer; Lovali Aleo Vera scented hand sanitizer 01; Lovali Aloe scented hand sanitizer 01; Lovali Hand Sanitizer; Lovali Ice Mint scented hand sanitizer 01; Lovali Lavander scented hand sanitizer 01; Lovali Lavender scented hand sanitizer 01; Lovali Lemon scented hand sanitizer 01; Lovali Lomen scented hand sanitizer 01; Lovali Mint scented hand sanitizer 01; Lovali Valender scented hand sanitizer 01; Lovali hand sanitizer; Lovali hand sanitizer 01; Lovali ice mint scented hand sanitizer 01; Lovali lemon scented hand sanitizer 01; Love Beauty and Planet; Love Hand Sanitizer; Love It Hand Sanitizer; Love Juicy Juicy Couture Hand Sanitizer Non Scented 70 Ethyl Alcohol; Love Juicy Juicy Couture Non-Scented Hand Sanitizer; Love You Berry Much; Love and Beauty Coconut Vanilla Essence Antibacterial Scented Hand Sanitizer; Love and Beauty Floral Rose Essence Antibacterial Scented Hand Sanitizer; Love and Beauty Grapefruit Citrus Essence Antibacterial Scented Hand Sanitizer; Love and Beauty Lemon Fresh Essence Antibacterial Scented Hand Sanitizer; Love and Beauty Melon and Mint Anti-Bacterial Hand Sanitizer; Love and Beauty Peach Mango Anti-Bacterial Hand Sanitizer; Love and Beauty Sweet Berry Essence Antibacterial Scented Hand Sanitizer; Love of Dream Alcohol Wipes 10 Pack; Love of Dream Alcohol Wipes 50 Pack; Love of Dream Wipes 10 Safety Pack; Lovefun and Duozi Anti-Bacterial Instant hand sanitizer; Loveit-janitex Disinfecting Wipes 75% Alcohol; Lovely Lavender; Lovluv Hand Sanitizer Fresh Lavender 16.9FL.OZ(500ml); Lovluv Hand Sanitizer Fresh Lavender 25ml; Lovluv Hand Sanitizer Mandarin 25ml; Lovluv Hand Sanitizer Peppermint Citrus25ml; Lovluv Instant Hand Sanitizer; Loyal Hand Sanitizer Gel Aloe Vera; Loyal Hand Sanitizer Liquid Fragrance Free; Ls30; Ls31; Lubrima Alcohol Wet Wipes; Lucas Hand Sanitizer; Luck-Lady Alcohol Wipes; Luck-Lady Alcohol Wipes (with Aloe); Lucky Hand Sanitizer Citrus Zest; Lucky Hand Sanitizer Lavender; Lucky Hand Sanitizer with Aloe Vera; Lucky Hand Sanitizer with Vitamin E; Lucky Instant Hand Cleanser with Aloe Vera; Lucky Instant Hand Cleanser with Vitamin E; Lucky Instant Hand Sanitizer Citrus Zest; Lucky Instant Hand Sanitizer with Aloe Vera; Lucky Instant Hand Sanitizer with Vitamin E; Lucky Instant Hand Sanitizer with Vitamin E and Moisturizers; Lucky Sanitizing Hand Towels; Luiantt Hand Sanitizer Gel; Lululemon Selfcare No Nasties Hand Sanitizer; Luminoso Hand Sanitizer Gel 70%; Luoys Hand Sanitizer; Lupaneta Pack; Luscious Lime; Luseta Rinse Free Hand Sanitizer; Lushman Blossom Refresh Great Passion Mist; Lushman Blossom Refresh Sweet Pleasure Mist; Lushman Blossom Refresh Viva Love Mist; Luthione Hand; Luvone Antibacterial Sanitizer; Luvone Hand Sanitizer with glycerin; Luvone hand sanitizer; Lux Eoi Hand Sanitizing Gel; Luxe Beauty Hand Sanitizer Coconut; Luxe Beauty Hand Sanitizer Grapefruit; Luxe and Willow Hand Sanitizer; Luxe and Willow Hand Sanitizing Liquid; Luxury Hand Sanitizer; Luxury Hand Sanitizer Aloe; Lvjing brand disinfectant; LyFamily 75% Alcohol HAND SANITIZER; LyFamily 75% alcohol disinfection disposable gel; Lynx san a foam; Lyran Hand Sanitizer Bottle; Lyran Hand Sanitizer Bottle Pump; Lyran Hand Sanitizer Squeeze hose; Lysol Hand Sanitizer; M Kelly Derma O Barrier Sanitizer; M MARVEL SANI CARE Instant Hand Sanitizer; M Skin Care Gel Hand Sanitizer 120; M Skin Care Gel Hand Sanitizer Anti-Bacterial; M Skin Care Hand Sanitizer; M and U Make You Up Hand Sanitizer; M. Skin Care Gel Hand Sanitizer; MA MAGIC ARMOUR hand and skin sanitizer; MADA Hand Sanitizing Wipes; MAMU Hand Sanitizer gel; MARINA AND DEMME HAPPY HANDS Hand Sanitizer Set UNSCENTED FRESH CITRUS COCONUT VANILLA; MARVEL AVENGERS Hand Sanitizer; MARVEL Avengers HAND SANITIZER With Case; MARVEL SPIDERMAN Hand Sanitizer; MARVEL Spider-Man HAND SANITIZER With Case; MARVELOUS Hand Sanitizer; MAUM Hand Sanitizer gel; MAY MEDIC Clean Sanitizer gel; MAY MEDIC Premium Hand SanitiserGel; MAY MEDIC Premium Hand Sanitizer; MAYLODEUR SAFE GOOD HAND gel; MB Floral rose scented hand sanitizer 01; MCL Hand Sanitizer; MD11 Hand Sanitizer; MDF HS70 Gel; MDF-HS80 Hand Sanitizer; MDR Safe-In-Seconds Hand Sanitizer; MEA Protect Wipes; MEA protect 75% Alcohol WIPES; MED Mate Instant Hand Sanitizer; MEDCILLARY Hand Sanitizer; MEDCILLARY Sanitizing wipes; MEDI GUARD Alcohol Wipes; MEDI HAND SANITIZER Gel; MEDIKOii Bio Safe Hand Refreshing; MELLOW INSTANT Hand Sanitizer 8 oz; MELON DOLLAR Hand Sanitizer; MESOSOL Perfect Hand Sanitizer gel; MG DermaGel 62; MG FoamSan 70; MIAOYUE Instant Hand Sanitizer; MIGGY FOUNDATION 70% Hand Sanitizer; MINI CARE Hand Sanitizer Alcohol; MINIONS Hand Sanitizer Gel; MINIONS Instant Hand Sanitizer Gel; MIO CLEAN gel; MM Foaming; MOIRA Hand Sanitizer; MOISTURIZING HAND SANITIZER Peppermint; MONDSUB Hand Sanitizer; MONOPOLY Hand Sanitizer MNPLY 100; MONOPOLY Hand Sanitizer MNPLY 200; MOSAIC Advanced Hand Sanitizer with Moisturizers and Vitamin E; MOSAIC Hand Sanitizer; MOSAIC Hand Sanitizer 01; MOSAIC Hand Sanitizer tube 01; MOSAIC Instant Hand Sanitizer with Moisturizing Formula; MOSAIC hand sanitizer 01; MOSAIC instant hand sanitizer with moisturizing formula; MOXE Citrus Hand Sanitizer; MOXE Eucalyptus Mint Hand Sanitizer; MOXE Unscented Hand Sanitizer; MP. CODE INSTANT HAND SANITIZER 500ml; MP. CODE INSTANT HAND SANITIZER 70% 100ml; MP. CODE INSTANT HAND SANITIZER 70% 250ml; MP. CODE INSTANT HAND SANITIZER 70% 50ml; MRDC Hand Sanitizer; MRN Marine Hand Sanitizer; MTV Entertainment Hand Sanitizer; MU instant hand sanitizer; MVP Hand Sanitizer 70%; MVP Hand Sanitizer 80%; MY INSTANT HAND SANITIZER with aloe and vitamin e; MYNT NATURALS Hand Sanitizer Moisturizing; MYNT NATURALS Hand Sanitizer Ultra Moisturizing; Ma magic ARMOUR hand cleaning gel; Mad Beauty Best Friend Hand Sanitizer Poppy Temptation; Mad Beauty Hand Sanitizer Blackcurrant; Mad Beauty Hand Sanitizer Candy Cane; Mad Beauty Hand Sanitizer Coconut; Mad Beauty Hand Sanitizer Cranberry; Mad Beauty Hand Sanitizer Frosted Berries; Mad Beauty Hand Sanitizer Marshmallow; Mad Beauty Hand Sanitizer Spiced Apple; Mad Beauty Hand Sanitizer Strawberry; Mad Beauty Hand Sanitizer Sweet Marshmallow; Mad Beauty Hand Sanitizer Vanilla; Mad Beauty Hand Sanitizer Winter Pear; Mad Beauty Llama Queen Hand Sanitizer, Cherry; Mad Beauty Llama Queen Hand Sanitizer, Strawberry; Mad Beauty Llama Queen Hand Sanitizer, Vanilla; Mad Beauty Pom Pom Moisturising Hand Sanitizer, Fresh Apples; Mad Beauty Pom Pom Moisturising Hand Sanitizer, Sweet Watermelon; Mad Beauty Pom Pom Moisturising Hand Sanitizer, Wild Berries; Mada; Mada 70% Alcohol; Mag Hand Sanitizer; MagiCare Premium Hand Sanitizing Wipes; Magic Pouch; Magic Soft Hand Sanitizer; Magic Water Drinks, Llc; Magic Wipes; Magic Xtreme Xtra Hand Sanitizer; Magic Xtreme Xtra Soft Alcohol Wipe 1; Magic Xtreme Xtra Soft Alcohol Wipes 100; Magic Xtreme Xtra Soft Alcohol Wipes 40; Magic Xtreme Xtra Soft Alcohol Wipes 80; Magic wipes; Magnet Hand Sanitizer; Maias CARE ANTISEPTIC HAND SANITIZING WIPES; MainClean Disinfectant Wipes 11060208; Maison Blanche; Majestic Instant Hand Sanitizer; Malbon - Hand Sanitizer; Malibu C Cur8 Hand Sanitizer; Malie Organics Mango Nectar Sanitizer; Malort Hand Sanitizer; Mamtec Hand Sanitizer; Mamtec hand sanitizer; Manatawny Hand Sanitizer; Mandarin Antibacterial Hand Sanitizer; Mandarin Hand Sanitizer; Mandarin Orange Anti-Bacterial Hand Sanitizer; Mandarin Orange Scented Antiseptic Hand Sanitizer 80 Ethyl Alcohol; Mandarin Orange and Lemon Antibacterial Sanitizer; Mandarin Scented 1oz Hand Sanitizer; Mango Antibacterial Hand Sanitizer; Mango Madness Hand Sanitizer; Mango papaya anti-bacterial SCENTED HAND SANITIZER; Mani Spa Guard Advanced Hand Sanitizer; Mani Spa Guard Antiseptic Hand Sanitizer; ManiMe MOISTURIZING HAND SANITIZER; ManiPure Hand Sanitizer; Manildra Stay Safe Alcohol Antiseptic 80% Hand Sanitizer; MannCave Hand Sanitizer; Mano Hand Sanitizer Moisturizing Grape Fruit; Mano Hand Sanitizer Moisturizing Lemon; Mano Hand Sanitizer Moisturizing Unscented; Manorapid Synergy; Manugel 85; Maple Cross 80 Ethanol Hand Sanitizer; Maple Cross Hand Sanitizer; MapleChoice Hand Sanitizer 75; Maratem M905 Hand Sanitizer Maratem M905 Hand Sanitizer; Marejo; Margaritaville Apple; Margaritaville Berry; Margaritaville Orange; Marina Demme Sugar Plum Hand Sanitizer; Marina Demme Vanilla Almond Antibacterial Hand; Marina Demme Winter Wonderland Peppermint and Aloe Scented Antibacterial Hand Sanitizer; Market America Hand Sanitizer; Marquis Gel Formula; Marshmallow; Marshmallow Antibacterial Hand; Marshmallow Scented Anti-bacterial Hand Gel; Martin Produce Hand Sanitizer; Marvel Avengers Hand Sanitizer With Case; Marvel Black Panther Hand Sanitizer 01; Marvel Captain America Hand Sanitizer 01; Marvel Captain Marvel Hand Sanitizer 01; Marvel Hulk Hand Sanitizer 01; Marvel Iron Man 3 Hand Sanitizer; Marvel IronMan Hand Sanitizer 01; Marvel Spiderman Hand Sanitizer; Marvel Spiderman Hand Sanitizer With Case; Marvel The Avengers Hand Sanitizer; Marvel Thor Hand Sanitizer 01; Marvel Ultimate Spider-man Antiseptic Hand Cleansing Berry Scented; Marvel Ultimate Spider-man Berry Scented Antiseptic Hand Cleansing; Marvelous Hand Sanitizer; Mary Jo - Cell Candy - Advanced Hand Sanitizer 80 Percent; Mary Kay Alcohol Antiseptic 80% Hand Sanitizer; Mary Kay Satin Hands Shea Hand Sanitizer; Maryland Hand Sanitizer; Mascon Alcohol Wipes; Mascon Medical Alcohol Wipes; Mascon Medical Hand Sanitizing; Mask on Every Face Vitamin E Aloe Hand Sanitizer; Maurices Clean Hand Sanitizer; Maurices I am Happy Hand Sanitizer; Maurices Lucky Me Hand Sanitizer; Maurices Sungari Hand Sanitizer; Mavs Com Hand Sanitizer; MaxEnergy Health Care Alcohol Wipes; Maximum Hand Sanitizer; May Medic Hand Sanitizer PlusGel; Maybe You Touched Your Genitals Hand Sanitizer; Mayfair Anti-bacterial Hand Sanitizer; Mayo Hygiene Instant Hand Sanitizer; McCord Professional Hand Sanitizer; McD Hand Sanitizer; McKesson Antiseptic Hand Sanitizer; McKesson Hand Sanitizer; Mcd Antiseptic Hand Gel 70%; Mea Protect Hand Sanitizer; Mea Sanitizing Wipes; Med Plus; Med X Frontline Advanced Hand Sanitizer with Moisturizers and Vitamin E; MedClean Hand Sanitizer; MedPride Alcohol Wipes; MedPride Antiseptic Alcohol Wipes; MedPride Instant Sanitizer; Medama Foam Hand Sanitizer; Medama Waterless Foam hand Sanitizer; Medart Hand Sanitizer Gel; Medex Hand Sanitizer; Medi Fect Antiseptic Hand Wash; Medi Plus Zero Gel; Medi Plus Zero Water; Medi-Pak Performance Instant Hand Sanitizer; Medi-Pak Performance Instant Hand Sanitizer with Aloe; Medi-wipes; MediChoice Hand Sanitizer; MediChoice Instant Hand Sanitizer Fragrance free; MediChoice Instant Hand Sanitizer Honey scented; MediFect Hand Sanitizer; MediHoo Gel Hand Sanitizer; MediLive; MediPlus; MediShield Pro Original Antiseptic Hand Sanitizer; MediSoft; Medical Grade Hand Sanitizer; Medical Mary Llc; Medical Sanitizer; Medical Super; Medical alcohol disinfectant; Medically Minded; Medically Minded Hand Sanitizer; Medicap Hand Sanitizer; Medicare Hand Sanitizer; Medicare Hand Sanitizer (1 gallon); Medicare Hand Sanitizer (100ml); Medicare Hand Sanitizer (30ml); Medicare Hand Sanitizer (500ml); Medicare Hand Sanitizer (50ml); Medicare hand sanitizer; Medicle Clean Hand Sanitizer; Medifense Clean Hand Mist Greenery Bouquet; Medifense Clean Hand Mist Tropical Fruit; Medifense Clean Hand Serum Greenery Bouquet; Medifense Clean Hand Serum Tropical Fruit; Medifresh Hand Skin Antiseptic Disinfectant Wet Wipes; Mediheal Insant Hand Sanitizer 70% 500ml; Mediheal Instant Hand Sanitizer; Medihero 75 Percent Alcohol Wipes; Medimaxx Citrus; Mediplus; Medisol Real Safe Sanitizer; Meditime Hand Sanitizing; Medline; Medpanol; Medyskin Hand Sanitizer; Medyskin Sanitizer Multi Use; Meechs Hand Sanitizer; MegaClean HAND SANITIZER; MegaClean HAND SANITIZER Liquid; MegaFresh Hand Sanitizer; Meijer First Aid Antiseptic; Meijer Hand Sanitizer 59ml 01; Meineke Instant Hand Sanitizer With Moisturizer Formula; Meineke Instant Hand Sanitizer With Moisturizing Formula; Meineke Instant Hand Sanitizer with Moisturizing Formula; Meli Hands Hand Sanitizer; Mellow 100ml HAND SANITIZER Original; Mellow 100ml hand sanitizer original; Mellow 236ml hand sanitizer original; Mellow 300ml hand sanitizer original; Mellow 500ml hand sanitizer orginal; Mellow 500ml hand sanitizer original; Mellow 59ml HAND SANITIZER Original; Mellow 59ml hand sanitizer original; Mellow 59ml instant hand sanitizer 01; Mellow Hand Sanitizer (aloe and Vitamin E); Mellow Hand Sanitizer (original) With Moisturizer and Vitamin E; Mellow Hand Sanitizer Aloe; Mellow Hand sanitizer 236ml ML317 01; Mellow Hand sanitizer 500ml ML318 01; Mellow Hand sanitizer 59ml ML316 01; Mellow Instant Hand Sanitizer 2 oz; Mellow Instant Hand Sanitizer Original; Mellow Instant Hand Sanitizer With Aloe and Vitamin E; Mellow Land Hand Sanitizer Solution; Mellow Land Hand Sanitizer gel; Mellow advanced alcohol wipes 100 wipes 01; Mellow advanced alcohol wipes 50wipes 01; Mellow hand sanitier 59ml original ML315CT; Mellow hand sanitizer 236ml ML1042 01; Mellow hand sanitizer 236ml ML305 01; Mellow hand sanitizer 236ml ML305 02; Mellow hand sanitizer 236ml ML312 01; Mellow hand sanitizer 3.78L ML325 01; Mellow hand sanitizer 3.78L ML325CT 01; Mellow hand sanitizer 350ml ML1043 01; Mellow hand sanitizer 400ml EY001 01; Mellow hand sanitizer 500ml 01; Mellow hand sanitizer 500ml ML308 02; Mellow hand sanitizer 500ml ML308-PRP 01; Mellow hand sanitizer 59ml ML307 01; Mellow hand sanitizer 59ml ML315 01; Mellow hand sanitizer ML326 01; Mellow hand sanitizer original 59ml ML307 01; Mellow hand sanitizer original ML327CT 01; Mellow hand sanitizer original ML328 01; Mellow hand sanitizer with aloe and Vitamin E 59ml 01; Mellow hand sanitizer with aloe and vitamin E 29mL; Mellow hand sanitizer236ml ML310 01; Mellow instant hand sanitizer with aloe and vitamin E 236ml; Melon Hand Sanitizer; Melon Mango Melt Hand Sanitizer; Members Selection Aloe Vera Sanitizer; Meni Hand Sanitizer; Menticol first aid antiseptic and external analgesic lotion; Merci Handy Hand Sanitizer Lavender and Eucalyptus Relaxing; Merci Handy Hand Sanitizer Orange and Peppermint Energizing; Merci Handy Hand Sanitizer SAGE and TEA TREE Purifying; Merci Handy Hand Sanitizer Self-Love; Merci Handy Rainbowtiful Hand Sanitizer; Merci Handy Sanctuary Hand Sanitizer AQUARIUS; Merci Handy Sanctuary Hand Sanitizer ARIES; Merci Handy Sanctuary Hand Sanitizer CANCER; Merci Handy Sanctuary Hand Sanitizer CAPRICORN; Merci Handy Sanctuary Hand Sanitizer GEMINI; Merci Handy Sanctuary Hand Sanitizer LEO; Merci Handy Sanctuary Hand Sanitizer LIBRA; Merci Handy Sanctuary Hand Sanitizer PISCES; Merci Handy Sanctuary Hand Sanitizer SAGITTARIUS; Merci Handy Sanctuary Hand Sanitizer SCORPIO; Merci Handy Sanctuary Hand Sanitizer TAURUS; Merci Handy Sanctuary Hand Sanitizer VIRGO; Merci Handy Sanctuary Hand Sanitizer ZODIAC SET; Mermaid; Mermaid Hand Sanitizer Watermelon Scented; Mermaid Squad Hand Sanitizer Berry Scented; Merry Berry Hand Sanitizer; Mery Alcohol Based Hand Sanitizer; Mesotox Clean Sanitizer; Mesotox Perfect Clean Sanitizer; Methopolis cherry scented hand sanitizer 01; Metler Gel Hand Sanitizer Citrus Scent; Metler Gel Hand Sanitizer Peppermint Scent; Metler Gel Hand Sanitizer Unscented; MetroGlobal Hand Sanitizer; Metropolish Cherry Scented Hand Sanitizer 01; Miami Carry On Wipes; Miami Ice 80%; Mickey and Friends Moisturising Hand Cleanser with Alcohol Amber and Ginseng; Mickey and Friends Moisturising Hand Cleanser with Alcohol Aqua; Mickey and Friends Moisturising Hand Cleanser with Alcohol Lavender; Mickey and Friends Moisturising Hand Cleanser with Alcohol Soft Rose; Micro Defence Antiseptic Hand Sanitizer; Micro Guard Hand Sanitizer Wipes; MicroGuard Antiseptic Hand Sanitizer; Microban; Microban 80; Microban Medical; Microban Unscented; Microsilver; Midnight Rush hand sanitizer 01; Mighty Antibacterial Hand Antiseptic Alcohol 70; Mike and Ike Hand Sanitizer; Mild Scent Hand Sanitizer; Mill Town Hand Sanitizer; Mini Hand Sanitizer - Coconut and Lime; Mini Hand Sanitizer - Orange and Lemon; Minions Hand Sanitizer; Minions Hand Sanitizer 0.84 oz; Miniso Hand Sanitizer; Minits Hand Sanitizer Lavender; Minits Hand Sanitizer Lemon; Minits Hand Sanitizer Phytoncide; Minits Hand Sanitizer Watermelon; Minnie Mouse Cherry Scented Hand Sanitizer; Mint; Mint Foaming Hand Sanitizer 62%; Mint Hand Sanitizer; Mint Scented 1oz Hand Sanitizer; Mio Clean Mist; Mio Guard Hand Sanitizer; Miracle Brands Sense Dispense Hand Sanitizer; Miracle Brands Sense Dispense Hand Sanitizer Refill Bottle; Miracle Lite Hand Sanitizer; Miracle Origin Hand Sanitizer; Miracle Origin Hand Sanitizer Gel; Miracle Perfect Sanitizer Water; Miracle Perfect Sanitizer gel; Miracle Power Hand Sanitaizer; Misadventure Distillery Hand Sanitizer; Miss Dragon Jasmine Hand Sanitizer; Miss Life Hand Sanitizer With Aloe Vera; Miss Life Panthenol Hand Sanitizer; Miss Spa; Miss Spa Gel Hand Sanitizer Citrus Ginger; Missha Oh My Clean The Pure Sanitizer; Missoni hand sanitizer gel; Missy Kay Premium Hand Sanitizer; Mist; Mitreapel Hunter Antiseptic Hand Sanitizer; Mius; Mix Berries Anti Bacterial Hand Sanitizer; Mixline; Mixline 75% ethyl alcohol instant hand sanitizer; Mixologie Seasonal Scent Hand Sanitizer; Mnfr Safe; Moart Hand Sanitizing Mist; Mocha latte scented Hand Sanitizer; Modaka Alcohol Hand Sanitizer; Modaka Hand Sanitizer; Modere; Modern Expressions Hand Sanitizer Set; Modesa; Modesa Antibacterial Hand Sanitizer Lemon; Modesa Hand Sanitizer 2 fl.oz. 3 pk; Modesa anti-bacterial hand gel; Moist SURE; Moisturising Hand Sanitizer; Moisturizing Foam Hand Sanitizer; Moisturizing Hand Sanitizer; Moisturizing Hand Sanitizer 62 Percent; Moisturizing Hand Sanitizer 65 Percent; Moisturizing Hand Sanitizer Eucalyptus; Moisturizing Hand Sanitizer Gel; Moisturizing Hand Sanitizer Green Tea; Moisturizing Hand Sanitizer Lavender and Mint; Moisturizing Hand Sanitizer Mixed Berries; Moisturizing Hand Sanitizer With Aloe 62 Percent; Moisturizing Hand Sanitizer gel; Moisturizing Instant Hand Sanitizer; Moisturizing Sanitizer Towelettes Green Tea; Mojito; Mojito Sun; Mokeru Antiseptic Hand Sanitizer; Molecure Skincare ALCOHOL WIPES; Molecure Skincare disinfectant hand and skin wet wipe; Molton Brown Hand Sanitizer; Mom Ae Sog for Zero 70; Mommy Tillia Antibacterial Hand; Monarch Hand Sanitizer; Mongdies Nature Friendly Hand Sanitizer; Mongdies Nature Friendly Hand Sanitizer Mist; Monogram Hand Sanitizer; Monopoly Hand Sanitizer; Monopoly Mango Hand Sanitizer and Lip Balm; Moon To Light Hand Sanitizer 01; Moonglade Hand Sanitizer; Moor Spa Hand Sanitizing; Mor Hand Sanitizer; Morex; Morlii Antibacterial Hand Sanitizer; Morning Fresh Hand Sanitizer; Morphe Antiseptic Hand Sanitizer; Morphe gel hand sanitizer 01; Mosaic Hand Sanitizer 01; Mosaic Instant Hand Sanitizer; Mosaic hand sanitizer 01; Mosaic instant hand Sanitizer; Mossy Ledge Spirits; Mothers Promise Hand Clean Gel Soft; Mountain Ice Advanced Hand Sanitizer; Mountain Peak Hand Sanitizer; Mousse Vite; Mova Al-kogel Hand Sanitizer 75 Alcohol; Mova First Aid Antiseptic Denatured Alcohol 94; Mova al-kogel hand sanitizer 75 Alcohol; Moxe; Moxe Citrus Hand Sanitizer; Moxie; Moxie Hand Sanitizer; Moxie Moisturizing Hand Sanitizer; Moxiecare Antibacterial Wipes; Moxiecare SanitizerSpray; Mpk Alcohol Sanitizing Wipes 1; Mr Toms Hand Sanitizer; Mr. Dean; Mr. Hand Sanitizer; Mrs. Meyers Clean Day Hand Sanitizer Basil Scent; Mrs. Meyers Clean Day Hand Sanitizer Lavender Scent; Mrs. Meyers Hand Sanitizer Basil Scent; Mrs. Meyers Hand Sanitizer Lavender Scent; Mrx Liq; Ms. GermSafe Antibacterial Hand Sanitizer; Ms. Germsafe ANTIBACTERIAL HAND SANITIZER - CLEAN FRESH; Ms. Germsafe ANTIBACTERIAL HAND SANITIZER - UNSCENTED; Ms. Germsafe ANTIBACTERIAL HAND SANITIZER -TROPICAL COCONUT; Ms. Germsafe Antibacterial hand wipes; Ms.GermSafe Antibacterial Hand Sanitizer; Mudsoo Bacteria Zero Mask Mist; Mueller Instant Hand Sanitizer; Multi Purpose Alcohol Wipes; Multi Purposespray - Citrus Scent; Multi Purposespray - Fresh Scent; Multi Purposespray - Lavender Scent; Multi Purposespray - Lemon Scent; Multi Surface Wipes 75% Alcohol; Multi purpose sterilization hand sanitizer; Multi-Purpose Alcohol Wipes; Multi-Purpose Sanitizing and Cleansing Alcohol Wipes; Multi-purpose wipes; Multimist Healthy Hands Gel 60%; Multipurpose Sanitizing Wipes; Murchison-Hume Wellness Welcome Kit; Muse Health Hand Sanitizer; Muse Health Hand Sanitizer - Fragrance Free; Mvp Sanitizer Tissue; Mvp Sanitizer Wipes; My Beauty Spot Antibacterial Hand Sanitizer French Lavnder Scented with vitamin E and aloe vera; My Beauty Spot Hand Sanitizer Cool Fall Breeze Scented; My Beauty Spot Hand Sanitizer Lavender Frost Scented; My Beauty Spot Hand Sanitizer Wild Berries Scented; My Little Pony Antibacterial Hand Sanitizer with Moisturizers; My Little Pony Berry Hand Sanitizer and Lip Balm; My Little Pony Blueberry Scented Hand Sanitizer 01; My Little Pony Cosmic Cherry Hand Sanitizer; My Little Pony Cosmic Cherry Hand Sanitizer and Lip Balm; My Little Pony Cotton Candy Hand Sanitizer and Lip Balm; My Little Pony Grape Antiseptic Hand Cleansing; My Little Pony Grape Scented Hand Sanitizer 01; My Little Pony Hand Sanitizer; My Little Pony Hand Sanitizer MLP 200; My Little Pony Hand Sanitizer MLP 202; My Little Pony Strawberry Scented Hand Sanitizer 01; My Little Pony(MLP 102)Hand Sanitizer; My Little Pony(MLP 103)Hand Sanitizer; My Medic Hand Sanitizer with Aloe Vera; My Medic Super Sanitizer; My little pony blueberry scented hand sanitizer 01; My little pony cotton candy scented hand sanitizer 01; My little pony grape scented hand sanitizer 01; My little pony strawberry scented hand sanitizer 01; MyDerm Hand Sanitizer Antibacterial; MyHealth Advanced Hand Sanitizer; MyHealth Alcohol Antiseptic Hand Sanitizer; MyRemede 75% Alcohol Wipes; MyRemede Hand Sanitizer; MyTerra Hand Sanitizer Foam; Mynt Hand Sanitizers; Mynt Naturals Scented Hand Sanitizer Blackberry; Mynt Naturals Scented Hand Sanitizer Raspberry; Mynt Naturals Scented Hand Sanitizer Watermelon; Mynt. Hand Sanitizing Wipes; Myrrh Woman Essence; Mysalon hand sanitizer; Mysotrol No Rinse Antiseptic Hand Cleanser; Mystic Medical Gel Hand Sanitizer; N69 Cunt; N69 Cunt Assholes Live Forever; NA-EORILTTAE Quick Dry Hand Cleanser gel; NANO MINI Acqua hand sanitizer; NANO MINI CARAMEL hand sanitizer; NANO MINI CARNAVAL hand sanitizer; NANO MINI I DO hand sanitizer; NANO MINI I OUD hand sanitizer; NANO MINI LAVANDER hand sanitizer; NANO MINI LEMONADE hand sanitizer; NANO MINI LOLLIPOP hand sanitizer; NANO MINI LUCKY ME hand sanitizer; NANO MINI RASPBERRY hand sanitizer; NANO MINI VANILLA hand sanitizer; NATUBASE 70 Pine Antibacterial Wet Wipes; NATURE HNB Hand Sanitizer; NATURIA GREEN HAND SANITIZER Gel; NATURIA Gel Moisturizer Plus HandSanitizer; NBA Hand Sanitizer Mist; NENA Antibacterial Hand Sanitizer; NENA Hand Sanitizer; NERF Hand Sanitizer (NRF 100); NERF Hand Sanitizer (NRF 102); NERF Hand Sanitizer NERF 200; NEXT Hand Sanitizer; NINEBIO Sanitizer Gel; NINEBIO Sanitizer Mist; NINEBIO Sanitizer gel; NISC MEGA Hand Sanitizer Gel; NISC MEGA Rubbing Alcohol; NISC Pure Hand Sanitizer; NL Germs-Away; NLI GBB Hand Sanitizer Fragrance; NNP Hand Sanitizer; NONGBIAE Hand Sanitizer; NOSTE Hand Sanitizer; NSD Hand Sanitizer; NSI Sanitizing Wipes; NTS Advanced Hand Sanitizer; NTS Alcohol Wipes; NUBAAL Alcohol Antiseptic 80 Topical Antiseptic Hand Rub Non-sterile; NURCH Lavender Citrus; NURIVE Hand Sanitizer gel; NURSE SOO 70 Hand Sanitizer; NYC Health Hospitals Hand Sanitizer; NYSoapCo Hand Sanitizer; Naeli Hand Sanitizer; Nahmias et Fils Distillery Hand Sanitizer; Naisture Hand Cleaner Gel(Hand Sanitizer); Naisture Hand Sanitizer; Naked Naturals Hand Sanitizer; Naked Naturals Hand Sanitizer With Aloe Vera Moisturizer; Naked Naturals Hand Sanitizer With Vitamin E; Naked X Restore Hand Sanitizer; NamaHandSanitizer; Nano Silver Cleanser Hand Sanitizer; Nanoxen Hand Sanitizer; Nasal Rinse Mix; NateZone Hand Sanitizer; National Postal Mailhandlers Hand Sanitizer; National Postal Mailhandlers Moisturizing Advanced Gel Hand Sanitizer; National University Hand Sanitizer; Natouch Antifungal Antiseptic Wipes; NaturAlixir; NaturAll - Advanced Hand Sanitizer; Natura Antiseptic Hand Gel; Natura Gel; Natura S Hand Sanitizer; Natural ALOE HAND SANITIZER; Natural Aroma Hand Sanitizer; Natural Bloom Hand Sanitizer Gel; Natural Care Advanced; Natural Care Advanced Hand Sanitizer, Alcohol Antiseptic 62; Natural Care Advanced Hand Sanitizer, Alcohol Antiseptic 70; Natural Clean Sanitizer Water; Natural Clean Sanitizer gel; Natural Concepts; Natural Concepts Advanced Hand Sanitizer Vitamin E; Natural Concepts Aloe Hand Sanitizer; Natural Concepts Hand Sanitizer; Natural Concepts Hand Sanitizer with Moisturizers and Vitamin E Fresh Scent; Natural Concepts Vitamin E Hand Sanitizer; Natural Defense Hand Sanitizer; Natural Extensions Fragrance- Free Instant Hand Sanitizer; Natural Gel; Natural Hand Sanitizer; Natural House Hand Sanitizer; Natural Inclination Hand Sanitize; Natural Scent Hand Sanitizer With Moisturizer, Vitamin E and Aloe; Natural Sense; Natural Sense Wipes; Natural Wunderz Moisturizing Hand Sanitizer 75 PERCENT; Naturall Hand And Surface Sanitizer; Naturally Antibacterial Wet Wipes; Naturally Nova Scotia Hand Sanitizer; Naturals Cucumber Melon Antibacterial Hand; Naturals Pomegranate and Mango Antibacterial Hand; Naturals Vanilla Antibacterial Hand; Nature Drops Hand Sanitizer; Nature Hand Clean Water; Nature Hand Cleaner; Nature Hand Sanitizer; Nature Hand Touch (ethanol) 70% 40ml; Nature Hand Touch Antiseptic Ethanol; Nature Hand Touch Cherry (ethanol) 70% 40ml; Nature Hand Touch Green Tea (ethanol) 70% 40ml; Nature Hand Touch Moringa (ethanol) 70% 40ml; Nature Hand Touch Sanitizer Gel (ethanol); Nature Hand Touch Sanitizer Gel (ethanol) 70% 500ml; Nature Hand Touch Sanitizer Liquid (ethanol) 70%; Nature Intro Sanitizer; Nature Love Hand Sanitizer Frosted Sugarplum; Nature Science IO; Nature Science IO E1; Nature Science IO E2; Nature Science IO K1; Nature Science IO K2; Nature hand wash wet wipes; NatureDrops Hand Sanitizer; NatureDrops Hand Sanitizer 80%; NatureWell Advanced Liquid Hand Sanitizer; Natures Oil Hand Sanitizer; Natures Oil Unscented Hand Sanitizer; Natures Solution Hand Sanitizer Unscented; Naturia Fresh Blue Hand Sanitizer; Naturia Hand Sanitizer; Nautica Non Scented Hand Sanitizer 70 Ethyl Alcohol; Neat Hand Sanitizer; Neem Hand Sanitizer; Neighborhood Hand Sanitizer; Nelsons Clean Brier Tennessee Hand Wash; Nelsons Clean Brier Tennessee Handwash; Nelsons Green Brier Hand Rub; Nelsons Green Brier Hand Sanitizer; Neo Hand Sanitizer; Neo-Clean; NeoNatural; Neorelief Hand Sanitizer; Neptune 375 INSTANT Hand Sanitizer; Nerf Hand Sanitizer; Nerf Lemon Blast Hand Sanitizer and Lip Balm; Nesura Instant Hand Sanitizer; Neurotox Hand Neuro; Neutralizer; Neutrevo Alcohol Wet Wipes; Neutrevo Instant Hand Sanitizer; Neutrevo Liquid Hand Disinfectant; Neutro Hand Sanitizer; Nevada Labs Hand Sanitizer; Never Too Soon Hand Sanitizer; New Clean Hand Sanitizer; New Egoround Hand Sanitizer; New HANSAN Hand Sanitizer; New HANSAN Hand Sanitizer 500mL; New Holland Hand Sanitizer; New Horizon Hand Sanitizer; New Life Advanced Formula Topical Hand sanitizer; New Life Sanitizing HandLotion with Vitamin E and B5- Aloe Vera; New Riff Hand Sanitizer; New Sanicol Advanced Antibacterial Hand Sanitizer; New Wave Hand Sanitizer Gel; NewRai Alcohol Wipes; NewRain Alcohol Wipes; NewRain Hand Sanitizer; NewTralize; NewTralize Gel; Newfeel Antibacterial Sanitizing Wipes 100ct Fresh Lavender Scent; Newfeel Antibacterial Sanitizing Wipes 100ct Fresh Lemon Scent; Newfeel Antibacterial Sanitizing Wipes 100ct Unscent; NexSense Liquid Hand Sanitizer Moisturizing with Aloe; Nezma Hand Sanitizer; NiTouch ALCOHOL HAND SANITIZER; NiTouch Alcohol Gel Hand Sanitizer; NiTouch Alcohol Wipes; NiTouch Hand Sanitizer; Nic Gpe 80; Nice N Clean Wipes Sani-hands Sanitizing Hand Wipes; Nickelodeon Jojo Siwa Hand Sanitizer Berry Sweet Scent; Nicole Miller Hand Sanitizer; Nifola Hand Sanitizer with Aloe Vera and Vitamin E; Nimbus 9 hand sanitizer 225ml 01; Nimbus 9 hand sanitizer 3.78L 01; Nimbus 9 hand sanitizer 500ml 01; Nimbus 9 hand sanitizer 500ml 02; Nimbus9; Nimbus9 Advanced Alcohol Wipes Pouch 80pcs; Nimbus9 alcohol wipes 01; Nimbus9 hand sanitizer 225ml 01; Nimbus9 hand sanitizer 3.78L 01; Nimbus9 hand sanitizer 500ml 02; Nineteen Certified Hand Sanitizer; Nippitaty Distillery Hand Sanitizer; Nisc Mega Disinfection; Nisc Pure Disinfection; Nitela Clean Hand Sanitizer; Nivana HAND SANITIZER; Nivana Hand Sanitizer; No wash Sanitizing Hand Wash; No-wash Antibacterial; No-wash Antibacterial Gel; No-wash Antibacterial Wash Hand; No-washing Hand Sanitizer; Noble 75% Alcohol Wipes; Noble Hand; Noble House Moisturizing Silk Hand Sanitizer; Non Sterile Hand Sanitizer; Non-Negotiables Fast-Acting Sanitizing; Non-Sterile Hand Sanitizer; Non-Wash Disinfectant; Non-Wash SanitiserGel; Non-washing Hand Disinfectant; Non-washing Hand Sanitizer; Nordic Wellness Vitamin C Hand Sanitizer; Nordland Hand Sanitizer; North American Medical Distributors Gel Hand Sanitizer; North Safety First Aid Kit 35P10BBK; North Safety First Aid Kit 553001; North Safety First Aid Kit 554001; North Safety First Aid Kit 68G100; North Safety First Aid Kit SF00000669; North Safety First Aid Kit SF00003588; North Safety First Aid Kit Z019814; North Safety First Aid Kit Z42500MG; North Safety First Aid Kit Z42750; North Safety First Aid Kit Z63157978; North Safety First Aid Kit Z63158027; North Woods D-Germ; North Woods Derma Gel Clear; Northside Hospital Amenity Kit; Northside Hospital Amenity Kit--GI Dept; Northside Hospital Bereavement; Northside Hospital C-Section Mothers; Northside Hospital C-Section Mothers Bag; Northside Hospital C-Section Mothers Tote; Northside Hospital H.E.A.R.T. Strings; Northside Hospital H.E.A.R.T. Strings Bag; Northside Hospital H.E.A.R.T. Strings Tote; Northside Hospital Mothers Bag; Northside Hospital Mothers Vaginal; Northside Hospital Mothers Vaginal Tote; Northside Hospital Natural Mothers Bag; Noshinku Bergamot Hand Sanitizer; Noshinku Eucalyptus Hand Sanitizer; Noshinku Lavender Hand Sanitizer; Not Have; Not for commercial sale or distribution; Nourishing Hand Sanitizer Limon; Nourishing Hand Sanitizer Spice; Nourishing Hand Sanitizer Vetiver; Nova Green Antibacterial wipes; NovaClenz Instant Hand Sanitizer; NovaGel Hand Sanitizer; NovaGel Wipes; NovaGreen Antibacterial Wipes; Novagel; Novelty On The Go Hand Sanitizers; Novelty-Pop Hand Sanitizer; Novo ProSeries Foaming Instant Hand Sanitizer; Novo wipe; Novo wipe 30 pcs; Novogel; Novospray; Novugen Sanitizer; Novuly Hand Sanitizer; Nowave Hand Sanitizer; Nox-A-Sting; Nozin Nasal Sanitizer; Nozin Nasal Sanitizer (Antiseptic); Nrl Pure Daily Hand Sanitizer; Nsure PureWipe ALCOHOL WET WIPES; Nsuus Hand Sanitizer; Nu Skin Epoch; Nu-HS2 Instant hand sanitizer - 80% ethanol; Nu-HS3 Instant hand sanitizer with Aloe - 80% ethanol; Nu-HS4 Instant hand sanitizer - 80% ethanol; NuRinse; NuRinse 1 Gal; NuRinse Hand Sanitizer; NuRinse Hand Sanitizing Wipe; Nuance Medical; Nudestix Hand Sanitizer; Nuit D Orient HAND SANITIZER; Numian Heratage Hand Sanitizer; Nurses Station Hand Sanitizer Gel 70% Alcohol; Nurses Station Hand Sanitizer Gel with Aloe 65% Alcohol; Nurses Station Hand Sanitizer Gel with Aloe 70% Alcohol; Nutesse Hand Sanitizer Gel; Nutrivsta Alcohol Wipes; NuuxSan Instant Hand Sanitizer; Nuvalu Advanced Hand Sanitizer; Nuvalu Hand Sanitizer Aloha Pina Colada 1oz; Nuvalu Hand Sanitizer Guava Burst 1oz; Nuvalu Hand Sanitizer Sweet Pea 1oz; Nuvalu Hand Sanitizer Sweet Pea Blue 1oz; Nuvalu Hand Sanitizer Sweet Pea Pink 1oz; Nuvalu Hand Sanitizer Violet Mist 1oz; Nuvalu Instant Hand Sanitizer Aloe Vera; Nuvalu Instant Hand Sanitizer Aloe Vera 8oz; Nuvalu Instant Hand Sanitizer Lavender 8oz; Nuvalu Instant Hand Sanitizer Original; Nuvalu Instant Hand Sanitizer Original 8oz; Nuvel Hand Sanitizer; Nuvik Alcohol Wipes; Nuvo Med Hand Sanitizer; Nxn Nurture By Nature Hand Sanitizer 70 Percent; Nyc Health Hospitals; O BlancTis; O Plus Instant Hand Sanitizer; O Well sanitizing hand wipes; O2 Clean Hand Sanitizer; O7 Germ Safe; OBEC hand sanitizer; ODD-SAN Services Hand Sanitizer; ODIN CARE 75% Rinse-free Hand Sanitizer; ODO-SAN Services Hand Sanitizer; OFF HAND Hand Sanitizer; OH MY CLEAN PREMIUM SANITIZER Gel; OH MY CLEAN Premium Hand Sanitizer gel; OH MY CLEAN THE PURE SANITIZER Gel; OHHY Secure; OHMYCLEAN Intensive sanitizer gel; OHMYCLEAN Premium Sanitizer Gel; OHMYCLEAN Premium sanitizer gel; OLIKA Hand Sanitizer Charcoal; OLIKA Hand Sanitizer Cucumber Basil; OLIKA Hand Sanitizer Lavender; OLIKA Hand Sanitizer Mint Citrus; OLIKA Hand Sanitizer Orange Blossom; OLIKA Hydrating Hand Sanitizer, Ice Crystal; OLIKA Hydrating Hand Sanitizer, Sandalwood; OLIKA Hydrating Hand Sanitizer, Sugar Plum; OLIKA Hydrating Hand Sanitizer- Cucumber Basil; OLIKA Hydrating Hand Sanitizer- Lavender; OLIKA Hydrating Hand Sanitizer- Mint Citrus; OLIKA Hydrating Hand Sanitizer- Orange Blossom; OLIKA Hydrating Hand Sanitizer-Clarity; OLIKA Hydrating Hand Sanitizer-Jasmine Sage; OLIKA Ultra Hydrating Hand Sanitizer, Bold; OLIKA Ultra Hydrating Hand Sanitizer, Brave; OLIKA Ultra Hydrating Hand Sanitizer, Unstoppable; OLIKA Ultra Hydrating Hand Sanitizer,Strong; OMEDI Hand Sanitizer; ON1 Hand Sanitizer; ON1 Hand Sanitizer Gel; ONE STOP Clean to Clean Hand Sanitizer; ONID Wipe; OPALINE Antibacterial and Moisturizing Hand Sanitizer; OPALINE Hand Sanitizer; OPI topical solution hand sanitizer Non-sterile Solution Alcohol Antiseptic 80%; OPLUS Antiseptic Instant Hand Sanitizer; OPTOCAL Sanitizing Wipes; OSDS Hand Sanitizer; OSDS Moisturizing Hand Sanitizer; OSEQUE Hand Sanitizer; OShea TouchNTouch Sanitizer Gel; OULL FRESH PURE HAND Gel; OZ NATURALS Antiseptic Gel Handsanitizer; OZLAB Hand Sanitizer; Oars and Alps Antibacterial Hand Sanitizer Gel; Obagi Medical Hand Sanitizer; Obagi Medical Hand Sanitizer Lavender; Obed Hand Sanitizer Travel; Obrilo Hand Sanitizer Formulated with Aloe; Ocean Blue Foaming Hand Sanitizer; Ocean Breeze; Ocean Breeze Antibacterial Hand; Ocean Breeze Antibacterial Hand Sanitizer with Aloe and Vitamin E; Ocean Breeze Scented Antibacterial Hand Sanitizer; Ocean Breeze Scented Hand Sanitizer; Ocean Breeze Scented Hand Sanitizer 01; Ocean Citron Hand Sanitizer; Ocean Fresh Scented Hand Sanitizer; Ocean Gel Hand Sanitizer; Ocean Hand Sanitizer; Ocean Waterless Hand Wash; Ocean breeze scented hand sanitizer 01; OctoClenz; Offex 80% Ethyl Alcohol Sanitizer; Oh My Clean Premium Sanitizer Mist; Oh My Clean The Pure Sanitizer Mist; OhSo Antibacterial Alcohol Wipes; Ohana Mahaalo Hand Gel HN; Ohana Mahaalo Hand Gel LP; Ohana Mahaalo Hand Gel PA; Ohana Mahaalo Hand Mist HN; Ohana Mahaalo Hand Mist LP; Ohana Mahaalo Hand Mist PA; Oilogic; Okay Hand Sanitizer; Old Nick Williams Co Farm and Distillery Hand Sanitizer; Olife Wet Wipe for Hands; Olika Hand Sanitizer Fragrance Free; Olika Hydrating Hand Sanitizer Blue Tansy; Olika Hydrating Hand Sanitizer Cotton Flower; Olika Hydrating Hand Sanitizer Frosted Eucalyptus; Olika Hydrating Hand Sanitizer, Noble Fir; Olika Ultra Hydrating Hand Sanitizer Fragrance Free; Olive Antibacterial Hand Sanitizer; Olive Blossom Scented Antiseptic Hand Sanitizer 80 Ethyl Alcohol; Ollie Hand Sanitizer; Omedi Hand Sanitizer; Omega Hand Sanitizer; OmegaClean; Omni Fresh by Facela Hand Sanitizer; On Air Beauty Company; On Guard Hand Sanitizing Wipe; On Guard Sanitizing Gel; On Guard Sanitizing Mist; On Guard Sanitizing Wipes; On The Go; On The Go HAND SANITIZER Blushing Rose; On The Go HAND SANITIZER Blushing Rose with Vitamin E; On The Go HAND SANITIZER Coconut Breeze; On The Go HAND SANITIZER Coconut Breeze with Vitamin E; On The Go HAND SANITIZER Eucalyptus Mint; On The Go HAND SANITIZER Eucalyptus Mint with Vitamin E; On The Go HAND SANITIZER Lavender Fields; On The Go HAND SANITIZER Lavender Fields with Vitamin E; On The Go HAND SANITIZER Vanilla Vibes; On The Go HAND SANITIZER Vanilla Vibes with Vitamin E; On The Go HAND SANITIZER White Jasmine; On The Go HAND SANITIZER White Jasmine with Vitamin E; On The Go HAND SANITIZER with Vitamin E; On The Spot Hand Sanitizer; On the go Hand Sanitizing Wipes; One Care MEDI HAND Gel; One Care MEDI HAND Gel(Ethanol); One Dose Pharm; One Drop Care Alcohol; One Drop Care Alcohol Disinfectant; One Drop Care Alcohol Disinfectant Wet Wipes; One Drop Care Hand Disinfectant; One Drop Care Hand Sanitizer; One Earth Hand Sanitizer; One Eight Distilling Hand Sanitizer; One Gel Hand Sanitizer; One Step; One Step - Instant Hand Sanitizer; One Step Hand Sanitizer; One Step Hand Sanitizer Aloe; One Step Sanitizer; One Step Wipes; One Touch Hand Sanitizer; Oneka Hand Sanitizer Lemon; Onko Health; Onko Health Alcohol Antiseptic Wipe; OnkoHealth Hand and surface sanitizer; Onmome Hand Cleaner; Onyx Advanced Hand Sanitizer; Oomph Antiseptic Instant Hand Sanitizer; Oomph Antiseptic Instant Hand Sanitizer Gel; Ope Elite Brands Hand Sanitizer; Oppeal Hosmall Hand Sanitizer; Oppeal. Hosmall Hand Sanitizer; Oppeal. Hosmall Hand Sanitizing; Oppeal. Hosmall Hand Sanitizing Wipes; Oppeal. Hosmall Sanitizing; Ops 70 Percent Alcohol Foaming Skin Sanitizer; Optimal Results Hand Sanitizer; Optimize Thick Hand Sanitizer; Optimus Instant Hand Sanitizer; Optisafe Antiseptic Hand Sanitizer; OralProCare Medicated Lip Treatment; Orange Blossom Antibacterial Hand; Orange Blossom Lilac and Jasmine Hand Mist; Orange Blossom Lilac and Jasmine Hand Sanitizer; Orange Scented Hand Sanitizer; Orange Spice Scented Antibacterial Hand Sanitizer; Orange Twist Hand Sanitizer; Orange blossom scented hand sanitizer 01; Orbel; Orbel Antiseptic Hand Rub; Orchard De Flore Instant Hand Sanitizer; Orchard Hand Sanitizer; Orchid Antibacterial Vanilla and Apple Blossom; Orchid By H E B Jasmine Tea and Basil; Orchid By H E B Vanilla Brown Sugar; Orchid Jasmine Tea and Basil; Orchid Sugar Cookie; Orchid and Me Moisturizing Hand Sanitizer; Order of Malta Hand Sanitizer; Organic Antiseptic Gel; Organic Antiseptic Gel Hand Sanitizer 70 v/v; Organic Antiseptic Gel Hand Sanitizer 80 v/v; Organic Gel Hand Sanitizer 70 v/v; Organic Hand Sanitizer; Organic Hand Sanitizer Lavender 2oz; Organic Hand Sanitizer Peppermint; Organic Lavender Hand Sanitizer; Organic choice hand sanitizer; Original Hand Sanitizer Cedar Forest; Original Hand Sanitizer Fig Rhubarb; Original Hand Sanitizer Gel Cedar Forest; Original Hand Sanitizer Golden Amber; Original Hand Sanitizer Lavender Fields; Original Hand Sanitizer Mystic Oud; Original Hand Sanitizer Royal Oud; Original Hand Sanitizer Sport Pro; Original Hand Sanitizer Tobacco Leather; Original Hand Sanitizer Unscented; Origyn Liquid Hand Sanitizer; Orogiene Essential Cucumber Melon; Orogiene Essential Lavender Field; Orogiene Essential Refreshing Gel; Orogin Essential Eucalyptic Fresh; Orogin Essential Free and Clear; Osceola Skin Care Sani-Gel Instant Hand Sanitizer; Osong Antiseptic Alcohol; Osong Power gel; Ossion Hand Sanitizer; Oustane Hand Sanitizer; Out Of The Blue Scented Hand Sanitizer; Outlast Long-lasting Hand Sanitizer; Owens Valley Distilling Company; Own Beauty - Hand Sanitizer; Oxi Wash; Oxygel Aloe Vera; Ozcare Antiseptic Hand Sanitizer; P P International Inc. Hand Sanitizer; P and G Professional Hand Sanitizer; P b pure Antibacterial Hand Sanitizer Cucumber Melon Scented; P b pure Antibacterial Hand Sanitizer Ocean Breeze Scented; P b pure Antibacterial Hand Sanitizer Sweet Pea Scented; P.A.W.S. Hand Sanitizer Bottle; P.O.V. Aloe Vera Hand Sanitizer; P.O.V. Vitamin E Hand Sanitizer; PALM SHIELD HAND SANITIZER gel; PANA Health Instant Hand Sanitizer Gel; PANION AND BF Hand Sanitizer; PANROSA Instant Hand Sanitizer; PANROSA Instant Hand Sanitizer Aloe Vera; PANROSA Instant Hand Sanitizer Clear; PANROSA Instant Hand Sanitizer, Aloe and Moisturizers; PARTpoint Hand Sanitizer; PATCHFETCH Clean-K Medi Cure Sanitizer; PAU Disposable Hand Sanitizer; PBF Live Safe Hand Hair Sanitizer; PC HanSan; PDI Alcohol Prep Pad Large and Medium; PDI Alcohol Prep Pad Sterile Large and Medium; PDI Alcohol Swabstick Threes and Ones; PDI Sani Hands; PDI Sani-Hands ALC Antimicrobial Alcohol Gel Hand Wipes; PDI Sani-Hands Instant Hand Sanitizing Wipes; PDI Sani-Hands for Kids Antimicrobial Alcohol Gel Hand Wipes; PDI Sani-HandsInstant Hand Sani Instant Hand Sanitizing Wipes; PEACH Hand Sanitizer; PEANUTS Hand Sanitizer with Aloe; PEI FAN Instant Sanitizer with Aloe; PEPPERMINT HAND SANITIZER boy; PERCNT BULK HAND SANITIZER - unscented alcohol gel; PERFECT CARE 60mL; PERFECT CARE Citrus HAND SANITIZER; PERFECT CLEAN Hand Sanitizer gel; PERFECT CLEAN Intensive Hand Sanitizer Gel; PERFORMANCE PLUS Hand Sanitizer Gel; PERFUME ON HAND SANITIZER gel BABYPOWDER; PF Hand Sanitizing; PFP POLYClean Hand Sanitizer - Gel 70; PFP POLYclean Hand Sanitizer - Gel 62; PFP POLYclean Hand Sanitizer - Gel 65; PFP POLYclean Hand Sanitizer - Gel 68; PFP POLYclean Hand Sanitizer - Gel 72; PFP POLYclean Hand Sanitizer - Gel 80; PFP POLYcleanE Hand Sanitizer - Gel 70; PH5B Alcohol Wipes; PH5B Disinfectant; PH5B Disinfectant Fresh Chamomile; PH5B Disinfectant Fresh Lemon; PH5B Disinfectant Lavender; PH5B Hand Sanitizer moisturizing; PHARM FARM Hand Sanitizer gel; PHARM FARM Hand SanitizerSpray; PHM Safe; PICO Hand Sanitizer; PIGEON Hand Sanitizer; PK 99 Hand Sanitizer; PL Hand Sanitizer Wipe; PLUS BEAU VISAGE Hand Sanitizing Gel 500ml; PLUS BEAU VISAGE Hand Sanitizing Gel 70% 100ml; PLUS BEAU VISAGE Hand Sanitizing Gel 70% 150ml; PLUS BEAU VISAGE Hand Sanitizing Gel 70% 250ml; PLUS BEAU VISAGE Hand Sanitizing Gel 70% 500ml; PLUS BEAU VISAGE Hand Sanitizing Gel 80% 500ml; PLUSBEAU VISAGE Hand Sanitizing Gel 62% 250ml; PLUSBEAU VISAGE Hand Sanitizing Gel 62% 500ml; PLUSBEAU VISAGE Hand Sanitizing Gel 70% 946ml; PMS-oxtriphylline Elixir; POET Gel Hand Sanitizer; POPPY and IVY HAND SANITIZER; PPE Advantage Instant Hand Sanitizer; PPE Advantage Wet Wipes; PPE COMPANY CARE Anti-Bacterial Wipes; PPE Company Care Antibacterial Wipes; PPE Company Care Instant Hand Sanitiser; PPE GO Kit; PPE Wipes; PPEBuddy; PPEBuddy Disinfecting Wipe D001; PPEBuddy Single Use Hand Sanitizer Bucket S002; PPEBuddy Single Use Hand Sanitizer S001; PPEBuddy Single Use Hand Sanitizer S003; PREMIER PURE Protection; PREMIUM HAND SANITIZER FRESH LAVENDER Gel; PREMIUM HAND SANITIZER Gel; PREVAIL Hand Sanitizer with Moisturizers and Vitamin E; PRIME Advanced Hand Sanitizer; PRIME Antibacterial Had Sanitizer; PRIME SOURCE Hand Sanitizer; PRIMEST Hand Sanitizer Non-Sterile Alcohol Antiseptic Topical Solution 70; PRISM Hand Sanitizer L1000; PRISM Hand Sanitizer LM200; PRO-LINK Hand Sanitizer; PROBALANCE Hand Sanitizer Advanced; PROTECTEAV Hand Sanitizer; PSR Hand Sanitizer; PSSI E-San; PUMIN Hand Sanitizer; PUMIN Premium Hand Sanitizer; PUR USA Hand Mist Refreshing Hand Sanitizer; PURE CLEAN HAND Gel; PURE HAND CLEAN Gel; PURE HONEST HAND SANITIZER Gel; PURE SKIN Family Handtizer; PURE SOURCE Hand Sanitizer; PURE X Alcohol Wipes; PUREASE ANTISEPTIC HAND SANITIZER Gel; PUREASE HAND SANITIZERspray; PUREASE STERILIZE ANTISEPTIC HAND SANITIZER Gel; PURELL Advanced E3 Rated Instant Hand Sanitizer; PURELL Advanced E3 Rated Instant Hand Sanitizer Foam; PURELL Advanced Foam Hand Rub; PURELL Advanced Green Certified Instant Hand Sanitizer; PURELL Advanced Hand Rub; PURELL Advanced Hand Sanitizer Aspen Retreat; PURELL Advanced Hand Sanitizer Biobased Content; PURELL Advanced Hand Sanitizer Blushing Pink Orchid; PURELL Advanced Hand Sanitizer Calming Lavender; PURELL Advanced Hand Sanitizer Energizing Mint; PURELL Advanced Hand Sanitizer Foam; PURELL Advanced Hand Sanitizer Fragrance Free Foam; PURELL Advanced Hand Sanitizer Fresh Peppermint Cheer; PURELL Advanced Hand Sanitizer Gel; PURELL Advanced Hand Sanitizer Gentle and Free Foam; PURELL Advanced Hand Sanitizer Grandma s Apple Delight; PURELL Advanced Hand Sanitizer Green; PURELL Advanced Hand Sanitizer Holiday Spice; PURELL Advanced Hand Sanitizer Mandarin Medley; PURELL Advanced Hand Sanitizer Moisturizing 2in1 Foam; PURELL Advanced Hand Sanitizer Naturals Foam; PURELL Advanced Hand Sanitizer Naturals Gel; PURELL Advanced Hand Sanitizer Nightime Winterberry; PURELL Advanced Hand Sanitizer Nourishing; PURELL Advanced Hand Sanitizer O Christmas Tree; PURELL Advanced Hand Sanitizer Ocean Kiss; PURELL Advanced Hand Sanitizer Ocean Mist Gel; PURELL Advanced Hand Sanitizer Oven-Baked Apples; PURELL Advanced Hand Sanitizer PRIME DEFENSE; PURELL Advanced Hand Sanitizer Pumpkin Delight; PURELL Advanced Hand Sanitizer Refreshing Gel; PURELL Advanced Hand Sanitizer Sanitizing Gel; PURELL Advanced Hand Sanitizer SpongeBob Splash; PURELL Advanced Hand Sanitizer Spring Bloom Gel; PURELL Advanced Hand Sanitizer Spring Breeze; PURELL Advanced Hand Sanitizer Sweet Papaya Mango; PURELL Advanced Hand Sanitizer Sweet Plum; PURELL Advanced Hand Sanitizer Ultra Nourishing Foam; PURELL Advanced Hand Sanitizer Warm Fall Spice; PURELL Advanced Hand Sanitizer Warm Fireplace Gathering; PURELL Advanced Hand Sanitizer Watermelon Splash; PURELL Advanced Hand Sanitizer Winter Wonderland Spice; PURELL Advanced Hand Sanitizer Winterberry Delight; PURELL Advanced Hand Sanitizer Wintergreen Mint; PURELL Advanced Hand Sanitizer be Blissful; PURELL Advanced Hand Sanitizer be Peaceful; PURELL Advanced Hand Sanitizer be Vibrant; PURELL Advanced Hygienic Hand Rub; PURELL Advanced Hygienic Hand Sanitising Foam; PURELL Advanced Instant Hand Sanitiser Aloe Gel; PURELL Advanced Instant Hand Sanitiser Gel; PURELL Advanced Instant Hand Sanitizer; PURELL Advanced Instant Hand Sanitizer Fragrance Free; PURELL Advanced Skin Balancing Hand Sanitizer; PURELL Advanced Skin Nourishing Instant Hand Sanitizer; PURELL Advanced for Surgical Scrub Use; PURELL Advanced with Aloe Instant Hand Sanitizer; PURELL Alcohol Hand Sanitizing Wipes; PURELL Antiseptic Hand Foam; PURELL Antiseptic Hand Gel; PURELL Cottony Soft Hand Sanitizing Wipe; PURELL Education Advanced Hand Sanitizer Gentle and Free Foam; PURELL Foaming Hand Sanitizer; PURELL Food Processing Advanced Hand Sanitizer E3 Foam; PURELL Foodservice Advanced Hand Sanitizer Foam; PURELL Foodservice Advanced Hand Sanitizer VF481 Gel; PURELL Green Certified Instant Hand Sanitizer Foam (ETHYL ALCOHOL); PURELL Hand Sanitising Gel VF481; PURELL Hand Sanitizer Purifying Gel; PURELL Hand Sanitizing Wipe; PURELL Hand Sanitizing Wipe Alcohol Formula; PURELL Hand Sanitizing Wipes Alcohol Formula; PURELL Healthcare Advanced Hand Sanitizer Foam; PURELL Healthcare Advanced Hand Sanitizer Gel; PURELL Healthcare Advanced Hand Sanitizer Gentle and Free Foam; PURELL Healthcare Advanced Hand Sanitizer ULTRA NOURISHING Foam; PURELL Instant Hand Sanitiser Fragrance Free; PURELL Instant Hand Sanitizer; PURELL Instant Hand Sanitizer Advanced Formula (VF481); PURELL Instant Hand Sanitizer Foam (ETHYL ALCOHOL); PURELL Instant Hand Sanitizer Moisture Therapy; PURELL Instant Hand Sanitizer Ocean Mist; PURELL Instant Hand Sanitizer with Moisturizers and Vitamin E; PURELL Professional Advanced Hand Sanitizer Foam; PURELL Professional Advanced Hand Sanitizer Fragrance Free Foam; PURELL Professional Advanced Hand Sanitizer Fragrance Free Gel; PURELL Professional Advanced Hand Sanitizer Gel; PURELL VF PLUS Hand Sanitizer Gel; PURELL VF481 Hand Sanitizer; PURELL Waterless Surgical Scrub; PURETIZE INSTANT HAND SANITIZER 70% 250ml; PUREXX Alcohol Wipes; PURIF Alcohol Wet Wipes; PURIF Hand Sanitizer; PURIF Instant Hand Sanitizer; PURIF Instant Hand Sanitizer InnStyle; PURITA HAND CLEAN gel; PURO ALOE VERA ANTI-BACTERIAL HAND Gel; PUROMA Alcohol 75% Hand Sanitizer Wipe; PUROMA Alcohol Hand Sanitizer Wipes Fragrance Free; PUROMA Hand Sanitizer Fragrance Free; PUROMA Hand sanitizer; PUROMA Instant Foaming Hand Sanitizer with Fragrance citrus floral; PUROMA Instant Foaming Hand Sanitizer without Fragrance; PURx ECO Alcohol Wipes; Pacha Hand Sanitizer French Lavender; Pacific Blue Basic Gel Hand Sanitizer with Moisturizers; Pacific Blue Select Foam Hand Sanitizer, Fragrance Free, Dye Free; Pacific Blue Select Gel Hand Sanitizer Fragrance and Dye Free; Pacific Blue Ultra Foaming Fragrance Free; Pacific Garden E3 Rated Foam Hand Sanitizer; Pacific Garden Foam Hand Sanitizer, Fragrance Free, Dye Free; Pacific Gel; Pacomeri Advanced Hand Sanitizer; Paladone Friends Frame Hand Sanitizer; Paladone Friends Monica Clean Hand Sanitizer; Palm-aid; Palma Hand Sanitizer; Palmero Healthcare Discide XRA Hand Sanitizing Wipes; Palmero Healthcare Foaming Hand Sanitizer; Palmist Antiseptic Hand Sanitizer; Pamela Hand Sanitizer; PanaHealth Instant Hand Sanitizer; Panacea Life Sciences Hand Sanitizer Spritz; Panita Hand Sanitizer; Panodyne HAND SANITIZER 99.9% Protection; Panrosa Antibacterial Hand Aloe Vera; Panrosa Antibacterial Hand Clear; Panrosa Instant Antiseptic Hand Sanitizer With Moisturizers; Panrosa Instant Hand Sanitizer Aloe Vera; Panrosa Instant Hand Sanitizer Clear; Pantero Gel Hand Sanitizer 70% Alcohol (bulk); Pantero Hand Sanitizer 80% Alcohol (bulk); Pantero Inc. Hand Sanitizer (80% Ethyl Alcohol); Papa Made; Papaya Mango Antibacterial Hand; Papilion Hygienic Alcohol Wipes Antibacterial; Papilion Hygienic Antibacterial Hand Sanitizer; Papilion Hygienic Disinfectant Antibacterial; Parachute Hand Protect gel; Paralapiel Clinic Sanitizer; Paramount Hand Sanitizer; Parasol Hand Sanitizer; Parasol Scent-free Hand Sanitizer; Paris Hand Sanitizer Vanilla Scent; Parkers Sani Spritz; Parkers Sani Spritz II; Paroli Antibacterial Hand Sanitizer; Pasion Alcohol Wet; Pasion Alcohol Wet Wipes; Pasion Hand Sanitizer; Pasion Instant Hand Sanitizer; Passing Show Advanced Hand Sanitizer; Passion Fruit Hand Sanitizer; Passion Fruit Kiss; PatchFetch CLEAN-K PERFECTION HAND SANITIZER; Patriot Hand Sanitizer; Patriot Hand Sanitizer Gallon; Patterson Antimicrobial Gel Hand Sanitizer; Patterson Waterless Gel; Paul Mitchell Hand Sanitizer; Paulas Choice Hand Sanitizer; Paume Moisturizing Antibacterial Hand Gel; Paw Patrol Blue Raspberry Hand Sanitizer; Paw Patrol Chase Hand Sanitizer (berry Scent); Paw Patrol Fresh Scented Hand Sanitizer; Paw Patrol HAND SANITIZER; Paw Patrol Hand Sanitizer; Paw Patrol Hand Sanitizer 0.84 oz; Paw Patrol Jkye Hand Sanitizer (berry Scent); Paw Patrol Mashall Hand Sanitizer (berry Scent); Pawr Hand Sanitizer; Paws; Peach Mango Anti-Bacterial Hand Sanitizer; Peach Peppermint Scented Hand Sanitizer; Peannuts Hand Sanitizer; Peanuts; Pearlessence Hand Sanitizer French Lavender; Pearlessence Hand Sanitizer Frosted Sugarplum; Pearlessence Hand Sanitizer Hollyberry; Pearlessence Hand Sanitizer Lemon Verbena; Pearlessence Hand Sanitizer Peppermint; Pearlessence Hand Sanitizer Winter Pine; Pearlessence Sanitizing Wipes; Pearlessence Sanitizing With Aloe; Peeps Cotton Candy Marshmallow Screme Hand Sanitizer; Peeps Vanilla Marshmallow Screme Hand Sanitizer; Penguin Icicles; Penn Distilling Hand Sanitizer; Penorra PREP PADS; PentaCleanse 75% Alcohol Wipes; PentaCleanse Alcohol Wipes; Pepperdine Hand Sanitizer; Peppermint Aqua; Peppermint Cream Scented Anti-Bacterial Hand Sanitizer; Peppermint Fruit anti-bacterial Scented Hand Sanitizer; Peppermint Hand Sanitizer; Peppermint Hand Sanitizer Girl; Peppermint Hand Sanitizer None; Peppermint Ice anti-bacterial SCENTED HAND SANITIZER; Peppermint Swirl Antibacterial Hand Sanitizer; Peppermint Twist Hand Sanitizer; Percnt Hand Sanitizer - Lavender Alcohol Gel; Percnt Hand Sanitizer - Lemon Alcohol Gel; Percnt Lavender Sanitizer; Percnt Lemon Sanitizer; Percnt Original Sanitizer; Percnt Unscented Sanitizer; Perfect Care; Perfect Clean Sanitizer; Perfect Hand Cleaner; Perfect Hand Cleanser; Perfect Hand Sanitizer; Perfect Life; Perfect Purity Advanced Hand Refreshing Aloe; Perfect Purity Advanced Hand Sanitizer Refreshing; Perfect Shield Hand Sanitizer; Perfect advanced hand sanitizer; Performance Plus; Perfume On Hand Sanitizer Gel Pepermint Fragrance; Perisol Hand Sanitizer Foam; Perk Hand Sanitizer; Perk Hand Sanitizer Moisturizing Gel; Pernod Hand Sanitizer; Perqtin Hand Sanitizer; Persani Hand Sanitizer; Persani Instant Hand Sanitizer; Persist Povidone Iodine Prep; Personal CARE Hand Sanitizer with Moisturizers Vitamin E; Personal Care; Personal Care Hand Sanitizer; Personal Care Hand Sanitizer Aloe; Personal Defense Hand Sanitizer; Personal Performance Hand Sanitizer; Personal Protection Pack; Personnelle Desinfectant Pour Les Mains; Pete and Pedro Sanitize; Petra Hand Sanitizer 75 Alcohol; PfP POLYclean Hand Sanitizer - Liq 80; Pfa; Pfa Stronghold Sanitizing Handlotion Mint; Pfa Stronghold Sanitizing Handlotion Rose; Pfa Stronghold Sanitizing Handlotion Shea Butter; Pfa for Hand Sanitizer; PhDClean Hand Sanitizer Gel; Pharm Plus Green Sanitizer(Ethanol); Pharma Cleanse; Pharma Cleanse HAND SANITIZER; Pharma Health; Pharmacopia Hand Sanitizer; Pharmacy Prescription 1.8oz Hand Sanitizer - Cucumber Melon; Pharmacy Prescription 1.8oz Hand Sanitizer - Original Scent; Pharmacy Prescription 1.8oz Hand Sanitizer - Sweet Pea; Pharmacy Prescription 1.8oz Hand Sanitizer - Sweet Peach; Pharmacys Prescription 1.8oz Hand Sanitizer Cucumber Melon; Pharmacys Prescription 1.8oz Hand Sanitizer Original Scent; Pharmacys Prescription 1.8oz Hand Sanitizer Sweet Pea; Pharmacys Prescription 1.8oz Hand Sanitizer Sweet Peach; Pharmacys Prescription 2pk 2oz Hand Sanitizer; Pharmacys Prescription 8oz Hand Sanitizer; Pharmacys Prescription Alcohol Wipes; Pharmacys Prescription Hand Sanitizer; Pharmacys Prescription Hand Sanitizer 2oz; Pharmacys Prescription Hand Sanitizer 8oz; Pharmacys Prescription Hand Sanitizer Aloe; Pharmacys Prescription Hand Sanitizer Lavender; Pharmacys Prescription Instant Hand Sanitizer - Aloevera With Security Clip; Pharmacys Prescription Instant Hand Sanitizer-lavender With Security Clip; Pharmacys Prescription Instant Hand Sanitizer-moisturizers and Vitamin E With Security Clip; Pharmaint Gel Hand Sanitizer; PhlexSan; PhlexSan Gel Alcohol Hand Sanitizer; PhoebusBio 75% Alcohol hand sanitizer; Phoenix Hand Sanitizer Gel; Physicians Group Hand Sanitizer; Physicians Group Hand Sanitizer Gel; Physicians Wellness Products Hand Sanitizer; Phyto Clean Hand Sanitizer Lemon; PhytogenX Coronavirus Hand Sanitizer; Pier 1 Imports Blueberry Parfait Anti-Bacterial Hand Sanitizer; Pier 1 Imports Cherry Anti-Bacterial Hand Sanitizer; Pier 1 Imports Crisp Bamboo Anti-Bacterial Hand Sanitizer; Pier 1 Imports Ginger Peach Anti-Bacterial Hand Sanitizer; Pier 1 Imports Iced Cookie Anti-Bacterial Hand Sanitizer; Pier 1 Imports Lavender Anti-Bacterial Hand Sanitizer; Pier 1 Imports Lavender Vanilla Anti-Bacterial Hand Sanitizer Pier 1 Imports; Pier 1 Imports Lily blossom Anti-Bacterial Hand Sanitizer; Pier 1 Imports Melon and Mint Anti-Bacterial Hand Sanitizer; Pier 1 Imports Passion Fruit Anti-Bacterial Hand Sanitizer; Pier 1 Imports Sugared Plum Anti-Bacterial Hand Sanitizer; Pier 1 Imports Vanilla Mint Anti-Bacterial Hand Sanitizer; Pilot Alcohol Antiseptic 80% Topical Solution; Pina Colada Scented Hand Sanitizer; Pineapple HAND SANITIZER; Pineapple Hand Sanitizer; Pineapple Hand Sanitizer 75 Ethyl Alcohol; Pineapple Paradise; Pineapple Paradise Scented Hand Sanitizer; Pineapple Scented Hand Sanitizer; Pink Grape Fruit Waterless Anti-bacterial Hand Sanitizer; Pink Grapefruit Antibacterial Hand Sanitizer; Pink Lemonade Hand Sanitizer; Pink Macaroon Hand Sanitizer; Pioneer Eclipse Touche Foaming Hand Sanitizer; Piranha Brand Foaming Alcohol Hand Sanitizer; Pizza Party Hand Sanitizer; Pl-0591; Pl-1807; Pl-1808; Plan 36.5 Hand Sanitizer; Plan 36.5 Sanitizer; Plane It Safe Hand Sanitizer; PlaneAire Hands; PlaneAire Hands Hand Sanitizer; PlaneAire Hands hand sanitizer; PlaneAireHands hand sanitizer; Planet Luxe Hand Sanitizer Cedarwood, Ylang Ylang and Clary Sage; Planet Luxe Hand Sanitizer Lavender, Bergamot and Geranium; Planplan Hand Sanitizer; PlanreAire Hands Hand Sanitizer; Plant Voice Hand Sanitizer; Platinum Hand Sanitizer with Aloe Vera; Play-Doh Hand Sanitizer; Play-Doh Hand Sanitizer (PLYD 100); Play-Doh Hand Sanitizer (PLYD 102); Playdoh Cherry Hand Sanitizer and Lip Balm; Playdoh Grape Hand Sanitizer and Lip Balm; Playdoh Hand Sanitizer; Plu Clean Hand Sanitizer Gel Grapefruit; Plu Clean Hand Sanitizer Gel Peach; Plu Perfect Hand Sanitizer Gel; Plu Premium Hand Sanitizer; Plumeria Hand Sanitizer; Plus Advanced; Plus Cosmetica S A; Plyfah Hand Sanitizer; Pnd Hand Sanitizer; Pocket Size Alcohol Formula Hand Sanitizer; Polar Pure Hand Sanitizer; Poltone Hand Sanitizer; Pomegranate Rose Hand Sanitizer; Pomegranate Scented Hand Sanitizer; Pomegranate Vanilla Scented Hand Sanitizer; Pomegranate and Vanilla Scented Hand Sanitizer; Pomiks ANTISEPTIC WET WIPES; Poo Pourri Antibacterial Hand Sanitizer - Coconut Plus Lavender; Poo Pourri Antibacterial Hand Sanitizer - Unscented; PopCare; Poppy and Ivy Hand Sanitizer; Poprang Allclean Disinfectant; Port Morris Distillery Hand Sanitizer; Portable Degerming Wipe; Power Clean hand; Power Ranger Hand Sanitizer; Power Rangers Fruit Punch Hand Sanitizer and Lip Balm; Power Rangers Hand Sanitizer; Power Rangers Hand Sanitizer PWR 100; Power Rangers Hand Sanitizer PWR 102; PowerPak Hand Sanitizer; PowerfulX SSOK Air Shower Sanitizer; PowerfulX SSOK Hand Sanitizer; Ppe Buddy; Ppe Global Health Hand Sanitizer; Ppe361 Alcohol Wipe 1; Ppe361 Alcohol Wipes 20 With Aloe Vera and Vitamin E; Ppe361 Alcohol Wipes 80 With Aloe Vera and Vitamin E; Ppe361 Hand Sanitizer With Aloe Vera and Vitamin E; Pqg Advanced Antiseptic; Practical Care Hand Sanitizer; Pranarom Aromaforce Alcohol antiseptic; Pranarom Good Samaritan Alcohol antiseptic; Preatorian Hand Sanitizer; Prednisone; Preface Earth Baby Hand Sanitizer Gel; Preference Hand Sanitizer; Premier; Premier Collection Hand Sanitizer; Premier Hand Sanitizer; Premier Instant; Premier Pure Protection; Premier Value Iodine Tincture Mild; Premium Alcohol Wipes; Premium Disinfecting Alcohol Wipes; Premium Gel Alcohol Hand Sanitizer; Premium Hand Sanitizer; Premium Hand Sanitizer Cucumber Green Tea; Premium Hand Sanitizer Fresh Lavender; Premium Hand Sanitizer Gel; Premium Hand Sanitizer Gel PSG; Premium Hand Sanitizer Nectarine Mint; Premium Hand Sanitizer with Aloe; Premium Nature Hand Sanitizer; Premium Nature Hand Sanitizer 01; Premium Nature Instant hand sanitizer; Premium Nature hand sanitizer; Premium Nature hand sanitizer 01; Premium hand sanitrizer; Prepared Instant Antibacterial Hand Sanitizer; Prepiel K365 CLEAN Gel; Prepiel K365 CLEAN TISSUE; Prescott Taylor Hand Sanitizer; Prestige Sanitizing; Pretty Peppermint Antibacterial; Pretty Pump Hand Sanitizer; Pretty Punch; Pretty in Paris Hand Sanitizer bodycology; Pretty in Paris Kit Bodycology; Prettyskin Clean Hand Sanitizer gel; Prevail Hand Sanitizer Lemongrass; Prevail One Step; Prevail Pomegranate Hand Sanitizer; Prevail White Tea Hand Sanitizer; Prevent; Prevent Hand Sanitizer; Preventmd Extraclean Hydrating Hand Sanitizer; Previcare Holy Water plus Hyssop Sanitizer; Previcare Hyssop Sanitizer; Pricill 70% EtOH HAND MIST SWEET PLEASURE; Prima Clean Hands Moisturizing Hand SanitizerSpray; Prima Fleur Hand Sanitizer; Prima Fleur Hand Sanitizer Bergamoti Neroli; Prima Fleur Hand Sanitizer Lemon Thyme; Primagel Plus Rinse-Free Antiseptic Hand Sanitizer 70 Ethyl Alcohol; Primal Elements Hand Sanitizer; Primal blends advanced moisturizing gel sanitizer; Prime; Prime Hand Sanitizer; Prime-cide; PrimeGel Antiseptic Hand Sanitizer Gel 80 Ethyl Alcohol; Primeauty Bottle (Pump); Primeauty Bottle (Screw Cap); Primeauty HDPE Barrel w/ Pump; Primeauty HDPE Barrel w/ Screw Cap; Primeauty Instant Hand Sanitizer; Primeauty Squeeze Tube; Primest ETHYL Alcohol Antiseptic 70; Primest Ethyl Alcohol Antiseptic 70; Primest Hand Sanitizer Non Sterile Alcohol 70; Primest Hand Sanitizer Non Sterile Alcohol 75; Prince and Spring Moisturizing Hand Sanitizer; Prism Health Lab Hand Sanitizer; Pristine; Pristine Clean Hand Sanitizer- Aloe Vera; Pristine Clean Hand Sanitizer- Medical Grade; Pristine Hand Sanitizer; Pristine1; Pro Advantage Instant Hand Sanitizer; Pro Clean Alcohol Wipes; Pro Clean Instant Hand Sanitizer; Pro Cure Hand Sanitizing; Pro San; Pro San E Hand Sanitizer; Pro-Sanitize; Pro-Sanitize Advanced with Aloe Vera; Pro-Source Distributors; Pro-Tex HAND SANITIZER; Pro1tek Hand Sanitizer; Pro1tek Hand Sanitizer Gallon; Pro1tek Hand Sanitizer Gel; ProClean-Pure Atomizer Mist 5ml; ProCure Hand Sanitizing; ProFormance Series Foam Alcohol Hand Sanitizer; ProGel Max Hand Sanitizer; ProGel360 Hand Sanitizer; ProGuard Hand Sanitizer Gel; ProLab Scented Hand Sanitizer; ProNature EARTH CONSCIOUS HAND SANITIZER with Aloe Vera Extract; Proandre; Probiotic Hand Sanitizer 75 Percent Alcohol; Probiotic Hand Sanitizing Wipes; Procore Products Hand Sanitizing Wipes; Procure Products Hand Sanitizing Wipes; Procuro ALCOHOL HAND SANITIZER; Procuro ALCOHOL SANITIZING WIPES; Professional; Professional - Advanced Hand Sanitizer; Professional solutions - Advanced Hand Sanitizer; Professor Amos Hand Sanitizer; Proformance Foam Alcohol Sanitizer; Progress Alcohol Wipes; Project C.U.R.E Hand Sanitizer; Proleve Cares Hand Sanitizer; Promast Clean Antiseptic Hand and Skin Sanitizer Powdery; Promast Clean Antiseptic Hand and Skin Sanitizer Unscented; Promedic; Promise U; Proof Brewing Co. Hand Sanitizer; Propolis Hand Sanitizer; Prosana Skin and Body; Prosanca; Prosecco Hand Mist; Prosecco Hand Sanitizer; Prosera Hand Sanitizer; Prosera Soothing Hand Sanitizer; Prosera Soothing Hand Sanitizing wipes; Proshield Hand Sanitizer; Prosilk hand Sanitizer; Protec Hand Sani Gel Antibacterial; Protec Teav Hand Sanitizer; ProtecTeaV Professional Hand Sanitizer; Protect By Hand Sanitizer Gel(Ethanol); Protect By Hand Sanitizer Water (Ethanol); Protect By Hand Sanitizer gel (ethanol); Protect Care Hand Sanitizer - USA; Protect Hand Sanitizer; Protect U Guard 62% Foaming Hand Sanitizer; Protect U Guard 63% Foaming Hand Sanitizer; Protect U Guard 63% Foaming Hand Sanitizer Cotton; Protect U Guard 63% Foaming Hand Sanitizer Fresh; Protect U Guard 63% Foaming Hand Sanitizer Lavender; Protect U Guard 63% Foaming Hand Sanitizer Lemon; Protect U Guard 63% Foaming Hand Sanitizer Watermelon; Protect U Guard Alcohol Hand Sanitizer; ProtectMe Antiseptic Hand Sanitizer; ProtectMe Hand Sanitizer Wipes; Protecteav; Protecting FHS; Protection; Protection Hp Hand Sanitizergel; Protective Disinfectant; Protective Industrial Products Instant Hand Sanitizer; ProtectoRX; Protector Brands Hand Sanitizer; Protector PLUS; ProtectorPlus ALCOHOL HAND WIPES; ProtectorPlus HAND SANITIZER; Protocol-80 Hand Sanitizer; Protz ANTIBACTERIAL HAND SANITIZER; Provo City School District; Puery Refresh Hand Sanitizing Gel; Puery Refresh Sanitizer; Pulezza Instant Hand Sanitizer; Pulverize Hand Sanitizer; Pumin Anything Can Be Clean; Pumin Hands Must Be Clean; Pumpkin Hand Sanitizer; Pumpkin Juice Scented Hand Sanitizer 01; Pumpkin Spice Antibacterial Hand Sanitizer; Pumpkin Spice Scented Clip On Hand Sanitizer; Pumpkin Spice Scented Hand Sanitizer; Pumpkin pie anti-bacterial SCENTED HAND SANITIZER; Puppicorn Cotton Candy Scented Hand Sanitizer; Puppicorn Strawberry Scented Hand Sanitizer; Pur-defense; PurCel Labs Hand Sanitizer; PurFree Hand Sanitizer; PurLif Tek; PurTouch Antiseptic Wet Wipes; Pura 75 Alcohol Wipes; PuraHands Anti-Bacterial Wipes; PuraHands Hand Sanitizer; Purador; Purago Hand Sanitizer; Purcol Moisturizing Hand Sanitizer; Pure And Safe Hand Sanitizer Plus Gel; Pure Army Hand Sanitizer; Pure Care Alcohol Wipes; Pure Care Hand Sanitizer; Pure Carnation; Pure Choice Instant Hand Sanitizer; Pure Clean Hand Mist; Pure Clean Hand Sanitizer; Pure Clean Premium Hand Sanitizer; Pure Clear Lemon Scented Hand Sanitizer 01; Pure Corruption Hand Sanitizer; Pure Essential Minerals Antibacterial Hand Sanitizer; Pure Foam; Pure Formula 1 advanced alcohol wipes 01; Pure Formula 1 advanced alcohol wipes(100wipes) 01; Pure Formula 1 advanced alcohol wipes(250wipes) 01; Pure Gel; Pure Gel Hand Sanitizer; Pure Genex Hand Sanitizer; Pure Grass Hand Sanitizer; Pure Green Hand Sanitizer Plus; Pure Hands; Pure Kleen; Pure Lavender; Pure Life HAND SANITIZER; Pure Palms Hand Sanitizer; Pure Passion Hand Sanitizer Juicy Watermelon; Pure Passion Hand Sanitizer with Aloe; Pure Perfect Sanitizer; Pure Safer Gel(Ethanol); Pure Solutions Hand Sanitizer; Pure Solutions Hand Sanitizing; Pure Spring; Pure Spring Lemon and Mint; Pure Spring Strawberry and Pomegranate; Pure USA Hand Sanitizer; Pure Vitac Instant Hand Sanitizer; Pure X Disinfecting Wipes; Pure and Clean Moisturizing Hand Sanitizer by Black Mermaid; Pure and Protected Hand Sanitizing Liquid; Pure and Safe Hand Sanitizer Plus; Pure and Shiny; Pure care hand sanitizer; Pure label advanced hand sanitizer ge l plus; Pure label advanced hand sanitizer gel plus(ethanol); Pure label advanced hand sanitizer gel(ethanol); PureForce; PureGel Advanced Surface Disinfectant; PureGel Hand Sanitizer; PureLab Hand Sanitizer; PureLogic Hand Sanitizer Aloe Green Tea; PureLogic Hand Sanitizer Eucalyptus Mint; PureLogic Hand Sanitizer Eucalyptus Mint 2 Pack; PureLogic Hand Sanitizer Eucalyptus Mint 3 Pack; PureLogic Hand Sanitizer French Lavender; PureLogic Hand Sanitizer French Lavender 2 Pack; PureLogic Hand Sanitizer French Lavender 3 Pack; PureLogic Hand Sanitizer French Lavender 4 Value Pack; PureLogic Hand Sanitizer French Lavender and Lemon Mint 6 Pack; PureLogic Hand Sanitizer Green Tea Aloe; PureLogic Hand Sanitizer Lemon Mint; PureLogic Hand Sanitizer Lemon Mint 2 Pack; PureLogic Hand Sanitizer Lemon Mint 3 Pack; PureLogic Hand Sanitizer Lemon Mint 4 Value Pack; PureLogic Hand Sanitizer Lemon Zest; PureLogic Hand Sanitizer Pink Grapefruit 2 Pack; PureLogic Hand Sanitizer Pink Grapefruit 3 Pack; PureLogic Hand Sanitizer Soothing Gel and Soothing Aloe 6 Pack; PureUs; PureX Hand Sanitizer Adv Gel Formula 70%; Pureaner Hand Sanitizer; Purease Sterilize Hand Sanitizer; Puredot hand sanitizer; Pureforce; Purehold Antiseptic Instant Hand Sanitizer; Purel Hand Sanitizer; Purell; Purell Advanced Hand Sanitizer Coconut Beach Siesta; Purell Advanced Hand Sanitizer Fresh Peach Blossoms; Purell Advanced Hand Sanitizer Inspiring Island Getaway; Purell Advanced Hand Sanitizer Moonlit Moments; Purell Advanced Hand Sanitizer Refreshing Florals; Purell Advanced Hand Sanitizer Revitalizing Rain; Purell Advanced Hand Sanitizer Sprinkled With Love; Purell Advanced Hand Sanitizer Tranquil Sunset; Purell Advanced Hand Sanitizer Warm Holiday Treats; Purell Advanced Hand Sanitizer Winter Jubilee; Purell Advanced Moisturizing 2in1; Purell Advanced Refreshing; Purell Advanced Refreshing Aloe; Purell Advanced Soothing; Purell Instant Hand Sanitizer; Purell Instant Hand Sanitizer with a touch of a Lubriderm moisturizer; Purell Instant Ultra; Purell Personal Pack Sanitizing; Purely Sanitizer; Purely Soft Alcohol Based Hand Sanitizer Gel; Purely Soft Hand Sanitizer; Purenique Hygiene Solutions Alcohol Wipes; Purenique Hygiene Solutions Hand Sanitizer; Purensia Hand care gel; Purero Hand Sanitizer; Puresan Hand Sanitizing; Puresan Ocean Breeze; Purespa Hand Sanitizer Apricot Sage; Purespa Hand Sanitizer Dandelion and Fig; Purespa Hand Sanitizer Honey Vanilla Almond; Purespa Hand Sanitizer Lavender Basil; Purespa Hand Sanitizer Magnolia Wildflower; Purespa Hand Sanitizer Pink Cactus Blossom; Puretize; Puretize Instant Hand Sanitizer 500ml; Purevita 80% Hand Sanitizer Gel; Purexx Hand Sanitizer; Pureza Advanced Hand Sanitizer; Purezza Dakia Wellness Alcohol Antiseptic; Purge Hand Sanitizer; Purgel; Purgerm 75% alcohol wipes; Puri Clean Advanced Hand Sanitizer; Puri-Clean Advanced Had Sanitizer; Puri-Clean Advanced Hand Sanitizer; Puri-Clean Hand Sanitizer; Puri-clean Advanced hand sanitizer; PuriGuard Hand Sanitizer; Puricia; Puricia Sanitizing Wipes; Puricia Sanitizing Wipes ( Blossom); Puricia Sanitizing Wipes (Citrus); Puricia Sanitizing Wipes (Lavender); Puricia Sanitizing Wipes (Mint); Puridence; Puridene; Puridene HAND SANITIZER; Puridene Hand Sanitizer; Puriderm Antibacterial; Puriface Anti-bacterial Moisturizing Hand Sanitizer; Purify 01; Purifying Hand Sanitizer; Purisia Purifying Hand Mist; Puritan Hand Sanitizer; Purity Farmapiel Hand Sanitizer 70% Alcohol; Purity Hand Sanitizer; Purizee Hand Sanitizer; Purmist; Puro 70 Percent Alcohol Foaming Hand Sanitizer; Puroma; Purox Hand Sanitizer; Purple Frog Hand Sanitizer; Purple Mountain Clean Hand Sanitizer; Purrfect Cherry; Purrfect Cherry HAND SANITIZER; Purrfect Rasberry HAND SANITIZER; Purse Essentials hand sanitizer Anti-Bacterial Hand Berry Sorbet; Purse Essentials hand sanitizer Anti-Bacterial Hand Vanilla Sugar; Purse Essentials hand sanitizer Anti-Bacterial Hand Wild Passion Flower; Purupuru Hand Sanitizer; Purus antibacterial wipes; Purus hand sanitizer gel; Pusheen Cupcake Scented Hand Sanitizer; Puyen Hand Sanitizer; Pvg Hand Sanitizer; Pyroxy Gel-70 Base; Pyroxy Gel-70 Base Poly Clear; Pyroxy Liquid-80B; PyurX; QB Skin Lab Hand Sanitizer; QC Iodine Tincture Mild; QD Industries Hand Sanitizer; QSR Foaming Alcohol Hand Sanitizer; QSR Hand Sanitizer; QUR Eucalyptus Essential Oil Hand Sanitizer; QUR Lavender Essential Oil Hand Sanitizer; QUR Lavender essential oil hand sanitizer; QUR Vanilla essential oil hand sanitizer; QYK Brands; Qc 2oz Instant Hand Sanitizer (original); Qc 8oz Instant Hand Sanitizer (original); Qi Yu free hand disinfectant gel; Qifeng Brand Disposable Hand Wash; Quality Choice Instant Hand Sanitizer; Quality Choice Iodides Tincture; Quality Choice Iodine Tincture Mild; Quality Metalcraft Alcohol Antiseptic 80% Topical Solution Hand Sanitizer Non-sterile Solution; Quality Metalcraft Experi-Metal Alcohol Antiseptic 80% Topical Solution Hand Sanitizer Non-sterile Solution; Quantum Gel Hand Sanitizer; Quantum High Viscosity Gel Hand Sanitizer; Quantum Liquid Hand Sanitizer; Quantum Medium Viscosity Gel Hand Sanitizer; QuaranClean Hand Sanitizer; Quash Multi Sanitizer; Quash Multi Sanitizing Tissue; Queen Max; Quick Fix - Instant Hand Sanitizer; Quick Guard; Quick Protect; Quick Protect Sanitizing Alcohol; Quick San ll Hand Sanitizer Wipes; Quick-drying rinse-free hand skin disinfectant; Quiclean; Quid Labs Alcohol Antiseptic 70 Hand Sanitizer; Quik Gel; Quik Spray; Quik Wipes; Quik-Care; Quixote Sanitizer; Qwix Hand Sanitizer; R and Co PALM READER ANTISEPTIC HAND SANITIZER; R and R; RB Hand Sanitizer; RBX For Men Antibacterial Hand Sanitizer Aloe Vera and Tea Tree Scented; RBX For Men Antibacterial Hand Sanitizer Cedarwood Scented; RBX For Men Antibacterial Hand Sanitizer Unscented; RBX Hand Sanitizer Lemon Scented Alloe Vera and Vitamin E; RBX Hand Sanitizer Ocean Scented Alloe Vera and Vitamin E; RBX Hand Sanitizer Unscented Alloe Vera and Vitamin E; RCD Hand Sanitizer; RCP Alcohol-Based Hand Sanitizer; REBL Hand Sanitizer; RELIANT Hand Sanitizing Gel; RENEW Gel Hand Sanitizer; RENOWNED Premium Sanitizer PSL; REVIVE Hand Sanitizer - Immunity Boost; REVIVE Hand Sanitizer - Lavender; REVIVE Hand Sanitizer - Protect; RFL Antiseptic Hand Sanitizer; RICHENNA PHARM HAND SANI FLUID gel; RICO Hand Sanitizer Wipes; RN Wellness Sanitizer; RNA Beauty Lab Moisturizing Hand Sanitizer; ROADPRO Hand Sanitizer; ROADPRO Hand Sanitizer Foaming; ROADPRO Hand Sanitizer-Spray; ROADPRO Sanitizing wipes; RUE 21 Apple Anti Bacterial Hand Sanitizer; RUE 21 Dream Dance Love Vanilla Spice Anti Bacterial Hand Sanitizer; RUE 21 Fallen Vixen Anti Bacterial Hand Sanitizer; RUE 21 Free Spirit Fresh Flowers Anti Bacterial Hand Sanitizer; RUE 21 Legend Blueberry Anti Bacterial Hand Sanitizer; RUE 21 Love Cherry Blossom Anti Bacterial Hand Sanitizer; RUE 21 Paris Creamsicle Anti Bacterial Hand Sanitizer; RUE 21 Queen Cherry Anti Bacterial Hand Sanitizer; RUE 21 Sugar Cookie Anti Bacterial Hand Sanitizer; RUE 21 Young Strawberry Anti Bacterial Hand Sanitizer; RUE Beaute Cherry Hand Sanitizer; RUE Beaute Grapefruit Hand Sanitizer; RUE Beaute Strawberry Hand Sanitizer; RUE Beaute Vanilla Cupcake Hand Sanitizer; RUE21 Apple Spice Antibacterial Hand Sanitizer; RUE21 Cherry Antibacterial Hand Sanitizer; RUE21 Cherry Blossom Antibacterial Hand Sanitizer; RUE21 Cotton Candy Antibacterial Hand Sanitizer; RUE21 Doughnut Sprinkles Antibacterial Hand Sanitizer; RUE21 Midnight Musk Antibacterial Hand Sanitizer; RUE21 Ocean Breeze Antibacterial Hand Sanitizer; RUE21 Peppermint Twist Antibacterial Hand Sanitizer; RUE21 Posh Antibacterial Hand Sanitizer; RUE21 Runway 21 Antibacterial Hand Sanitizer; RUE21 Strawberry Antibacterial Hand Sanitizer; RUE21 Sugar Cookie Antibacterial Hand Sanitizer; RUE21 Vanilla Spice Antibacterial Hand Sanitizer; RUNYI MIAOJIE Hand sanitizer; RX 2020 Hand Sanitizer; RX Cleanse Hand Sanitizer; RX FRESH Moisturizing Hand Sanitizer; Raclen Anti-bacterial Hand Sanitizer Non-washable; Rain Forest Hand Sanitizer; Rainbow Berry Hand Sanitizer; Rainbow Hand Sanitizer Blue; Rainbow Hand Sanitizer Clear; Rainbow Hand Sanitizer Green; Rainbow Hand Sanitizer Orange; Rainbow Hand Sanitizer Pink; Rainbow Hand Sanitizer Purple; Rainbow Hand Sanitizer Red; Rainbow Hand Sanitizer Yellow; Rainbow Instant Hand Sanitizer; Rainbow Liquid Hand Sanitizer; Rainforest Natural Hand Sanitizer; Rainforest Natural Hand Sanitizer Gel; Rainforest Natural Hand Sanitizer Wipes; Raining Rose Antiseptic Hand Sanitizer; Rainwater; Raloy Pharma Hand Sanitizer Gel; Ralph Lauren Ralphs Club Antiseptic Hand Sanitizer; Rancho Bernardo Inn Instant Hand Sanitizer; Ranger Ready Hand Sanitizer; Raon Hand Sanitizer Gel; Raspberry Cooler Scented Hand Sanitizer; Raspberry Guava Antibacterial; Raspberry Hand Sanitizer; Raspberry Scented Hand Sanitizer; Raspberry Scented Hand Sanitizer 01; Raspberry Vanilla Scented Waterless Hand Sanitizer; Raspberry scented hand sanitizer 01; Raw Antiseptic Hand Sanitizer Wipes; Raw Instant Hand Sanitizer; Raw Instant Hand Sanitizer Gel; Raw Sugar Hand Sanitizer Coconut and Lemon Verbena; Raw Sugar Hand Sanitizer Eucalyptus and Tea Tree; Raw Sugar Hand Sanitizer Peppermint and Sea Salt; Raw Sugar Hand Sanitizer Watermelon and Aloe Vera; Raw Sugar Hand Sanitizer- Coconut and Lemon Verbena; Raw Sugar Hand Sanitizer- Peppermint and Sea Salt.; Raw antiseptic HAND SANITIZER WIPES; Raw antiseptic HAND SANITIZER wipes; Raymond Waites Gerber Daisy Waterless Anti-bacterial Hand Sanitizer; Raymond Waites Honeysuckle Rose Waterless Anti-bacterial Hand Sanitizer; ReadiHands SANITIZER; Ready America First Aid Outdoor- 107 Pieces; Ready4Life Hand Sanitizer Gel; Ready4Life Hand Sanitizer Gel Lavender; Ready4Life Hand Sanitizer Gel Summertime; Ready4Life Hand Sanitizer Gel Uscented; Ready4Life Hand Sanitizer Gel Wildwoods; Ready4Life Hand Sanitizer Lavender; Ready4Life Hand Sanitizer Summertime; Ready4Life Hand Sanitizer Unscented; Ready4Life Hand Sanitizer Wildwoods; Real Clean Hand Sanitizer Gel; Real HAND SANITIZER; Real Klean Multi-purpose Hand Sanitizer; Real Time Hand Sanitizer 70% Alcohol; Rebel Green Hand Sanitizer Peppermint and Lemon; Reborncare hand sanitizer (100mL); Reborncare hand sanitizer (250mL); Reborncare hand sanitizer (500mL); Recens; Recens A; Recens Foam; Recens Foam Plus; Recens Gel; Recens Hand Sanitizer Wipes; Recens Ultra; Recessa Hand Sanitizer; Recover Gel Hand Sanitizer; Red Devil Hand Sanitizer; Red Fox Hand Sanitizer; Red Hot Cinnamon; Red Hot Cinnamon Hand Sanitizer; Red Wings Hand Sanitizer Gel; Reddy Lab Advanced Alcohol Gel Sanitizer; Redeem; RediCleanse Instant Hand Sanitizer; RediHands SANITIZER; RediHands SANITIZING WIPES Fresh Lemon Scent; Redicare Antiseptic Wipes; Redicare Gel Hand Sanitizer; Redicare Gentle Touch Gel Hand Sanitizer; Redicare Hand Sanitizer; Redusa Hand Sanitizer; Reduvir Hand Sanitizer; Reduvir Hand sanitizer; Refill 6; Refrasia Care Hand Sanitizer; Refree Hand Sanitizer; Refresh Foaming Instant Hand Sanitizer; Refreshed Traveler Hand Sanitizer; Refreshed Traveler Hand Sanitizer with Aloe; Refresher; Refreshing Gel Hand Sanitizer; Refreshing Hand Sanitizer Gel; Regal Care; Regimen; Regular Anti Bacterial Hand Sanitizer; Rejuven8tion Hand Sanitizer; Rejuviel; Relief C Hand Sanitizer Unscented for Professionals; Relief C Hand Sanitizer Unscented for Professionals (1 gal); Relief C Hand Sanitizer Unscented for Professionals (16 oz); Relief C Hand Sanitizer Unscented for Professionals (2 oz); Relief Chemistry Hand Sanitizer; Relief HAND SANITIZING WIPE; Relief HAND SANITIZING WIPES; Remote refresh instant hand sanitizer wipe; Renew Apothecary Hand Sanitizer; Renewal Hand Sanitizing Wipes; Renlee First Hand Sanitizer; Renu Laboratories Hand Sanitizer; Repand Antibacterial Hand Sanitizer; RepelWell 80% Alcohol Antiseptic; Res-Cleanse; ResQue1st Hand Sanitizer; Rescue Essentials Hand Sanitizer; Respected Roots Hand Sanitizer with Aloe Vera; Respond Hand Sanitizer; Responsible; Responsible Hand Sanitizer; Restore Antibacterial Hand Sanitizer; Retail Foaming Alcohol Hand Sanitizer; Retail Hand Sanitizer; Reveno hand sanitizer; Revitaderm Antimicrobial Hand Sanitizer; Revitalize Sports Hand Sanitizer; Revolution Spirits Hand Sanitizer; Rexall Hand Sanitizer; Rezitinas Hand Sanitizer; Rhino Pure; Rhino Pure Hand Sanitizer Liquid; Rico Hand Sanitizer; RightCare Alcohol Hand Sanitizing Wipes; RightCare Sanitizing wipes; Rilakkuma Aloe Vera Scented; Rinse Free Antibacterial Hand Sanitizer Gel; Rinse Free Hand Cleanser; Rinse Free Hand Disinfection; Rinse Free Hand Sanitizing Gel; Rinse free Hand Sanitizer; Rinse free hand sanitizer; Rinse free hand sanitizing gel; Rinse-Free Antibacterial Hand Sannitizer Gel; Rinse-Free Gel Type Antibacterial Hand Sanitizer; Rinse-Free Hand Sanitizer; Rinse-Free Hand Sanitizer Gel; Rinse-free Disinfectant Gel; Rinse-free Disinfectant Gel Hand Sanitizer; Rinse-free Hand Sanitiser Gel; Rinse-free Hand Sanitizer; Rinse-free Hand Sanitizing Gel; Ripe Raspberry Hand Sanitizer; Riphot Hand Sanitizer Formula; Rise Hand Sanitizer; Risua Clean Hand Sanitizer Ethanol; Risua Hand Sanitizer Ethanol; Rite Aid Decolorized Iodine; Rite Aid Instant Hand Sanitizer; Rite Aid Instant Hand Sanitizer With Moisturizers; Rite Aid Renewal Moisturizers and Vitamin E; Rite Aid Renewal With Moisturizers; Ritz Spritz Mulled Cranberry; Rock Ridge Cherry Hand Sanitizer; Rock Town Distillery Hand Sanitizer; Rolhei 75 percent Ethanol Wet Wipe; Rolling Still Hand Sanitizer; Rolling Still Hand and Surface Sanitizer; Rollins Distillery Hand Sanitizer; Romantic Beauty Hand Sanitizer; Rona-B-Gona Sanitizing Hand Guard; Root Aromatherapy Hand Sanitizer; Roots; Roots Hand Sanitizer Gel, Fragrance Free; Roots Hand Sanitizer Gel, Fragranced; Rosario Bendek hand sanitizer 01; Rose Hand Sanitizer; Rose Health Wipes Antibacterial Hand Wipes, 70 Alcohol; Rose Rush Hand Sanitizer; Rose Scented Hand Sanitizer; Rose scented anti-bacterial hand sanitizer; Rosemary Mint Hand Sanitizer; Rosemary Yuzu Sanitizer; Rosewill Hygiene Wipes; Rosun Hand Sanitizer Aloe Vera; Rosun Hand Sanitizer Coconut; Rosun Hand Sanitizer Floral; Round Around Cypress Clean Sp Ray Cypress Forest; Royal 70-percent Alcohol Foam Hand Sanitizer; Royal Hand Sanitizer; Royal Olive Hand Sanitizer; Royal Whitening Pre-Brush; Rrs-key1; Rubbing; Rubbing Alcohol; Rubbing Alcohol Compound Liq 70%; Rubbing Alcohol Compound/poison; Rubbing alcohol; Rubzan; Rue 21 Asian Spice Anti-Bacterial Hand Sanitizer; Rue 21 Hand Sanitizer; Rue21 Coco Breeze Anti-Bacterial Hand Sanitizer; Rue21 Hand Sanitizer; Rue21 Island Fruits Anti-Bacterial Hand Sanitizer; Rue21 Ocean Anti-Bacterial Hand Sanitizer; Rx 100 Citrus Sanitizer; RxCLEANSE Hand Sanitizer; Ryan and Wood Ethanol Hand Sanitizer; S S; S and B Farmstead Hand Sanitizer; SAFE GOOD HAND Gel; SAFE HAND CLEAN gel; SANICOL Advanced Aniseptic Hand Sanitizer 8OZ; SANIPOWER Hand Sanitizer; SANIPRO Hand Sanitizer 70 100ml; SANIPRO Hand Sanitizer 70 250ml; SANIPRO Hand Sanitizer 70 500ml; SANIPRO Hand Sanitizer 70 50ml; SANIPRO Hand Sanitizer 70 946ml; SANITIWELL Hand Sanitizer; SANIZER KIDS Multi-Purpose Sanitizer; SANMED HEALTHCARE HAND SANITIZING Gel HANDRUB; SANTAtizer Gel; SANTAtizer Hand Gel; SANTAtizer Hand Sanitizer Gel; SANXIDERM Anti-bacterial Hand Gel 8OZ; SANZI DERM Antiseptic Hand Sanitizer; SANZIDERM Antiseptic Hand Sanitizer 8OZ; SAUBER KARE 1 gallon; SAUBER KARE 500ml; SAVE ME SANITIZER gel; SAVIE Hand Sanitizer; SAWC Hand Sanitizer; SC Health Hand Sanitizer; SC Health Hand Sanitizer Gel Single Use Packets; SC Health Hand sanitizer; SC Health Instant Hand Sanitizer; SCI 70 Gel Hand Sanitizer; SCI 70 Hand Sanitizer; SCI 70 Hand Sanitizer Gel; SCI 80 Hand Sanitizer; SCI 80 Hand Sanitizer Wipes; SCOTT Moisturizing Foam Hand Sanitizer; SCRUBS Hand Sanitizer; SENIDERM ZERO TO NINE HAND SANITIZER gel; SENTEURS DORIENT Hand Sanitizer SdO; SEREN GUARD Sanitizing Wipes; SFT One 70 Ethyl Alcohol Antiseptic Hand Sanitizer Lavender Scented; SFT1 Sanitizing Wipes; SHICELLE Hand Sanitizer; SHIERJIE 75% Alcohol Pads; SHIERJIE 75% Alcohol Spraytype; SHIERJIE 75% Alcohol Wipes; SHIERJIE 75% Alcohol rinse free hand sanitizer; SHO PURE CLEAN HAND Gel; SHOT DOWN DISINFECTANT-spray; SI MASTER Hand Sanitizer; SILKSKIN Instant Hand Sanitizer; SIREtizer; SIREtizer Hand Sanitizer; SJ Antibacterial Hand Gel; SKINAPPLE HAND SANITIZER gel; SKINDOM Hand Clean; SM Care Hand Sanitizer 83%; SM Care Hand Sanitizer sun 72%; SMD Cosmetics Clean and Pure Hand Sanitizer; SMPLY 70 Citrus Liquid Hand Sanitizer; SMPLY 70 Gel UnScented Hand Sanitizer; SMPLY 70 Liquid Hand Sanitizer; SMPLY Aloe Hand Sanitizer; SMPLY Black Velvet Hand Sanitizer; SMPLY Eucalyptus Hand Sanitizer; SMPLY RENEW Hand Sanitizer; SMPLY Sanitizer; SMPLY Sanitizer Aloe; SMPLY Sanitizer Citrus; SMPLY Sanitizer Lavender; SMPLY Sanitizer Linen; SMPLY Sanitizer Peppermint; SNAP Clean Hands City Lights; SNAP Clean Hands Coastal; SNAP Clean Hands Holiday sprayer; SNAP Clean Hands Lakeside; SNAP Clean Hands Mountain; SNAP Clean Hands Ranch; SNIFF-N-SAN Topical 80; SOART HAND SANITIZER Gel; SOH Hand Sanitizer; SOHN SONS HAND SANITIZER gel; SOME BY MI HAND SANITIZER gel; SOS Shield Hand Sanitizer; SOiL Lavender and Tea Tree Hand Sanitizer; SOiL Lemon and Tea Tree Hand Sanitiser 50ml; SOiL Peppermint and Tea Tree Hand Sanitiser 50ml; SP Hand Sanitizer; SP NEWGEL 3 Hand Sanitizer; SPF30 Sunscreen and Antibacterial Hand Sanitizer; SPRITZ IT 2 in 1 Pen with Hand Sanitizer; SS70 Hand Sanitizer; ST Geneve Advanced Hand Sanitizer; ST. Tropica Tropical Touch Beauty Sanitizer; STANRELIEF FIGHTER HAND RUB WITH NATURAL ESSENTIAL OILS 100 mL; STANRELIEF FIGHTER HAND SANITIZER WITH NATURAL ESSENTIAL OILS 100 mL; STAPLES Hand Sanitizer; STAPLES Hand Sanitizer Aloe; STERELLE Hand Sanitizer; STEREZE Hand Sanitizer Antiseptic Presaturated Wipes; STERITOUCH Antiseptic Hand Sanitizer WITH VITAMIN E; STERIX SAFE GOOD HAND Gel; STERY Hand Sanitizer; STERY Hand Sanitizer 70; STERY Hand Sanitizer 80; STMT Self Care Spa Set; STRANDED Hand Sanitizing; STRATAMEDI Hand Sanitizer Antibacterial Gel; STRL Stay Clean Hand Sanitizer; SUDANSU Hand Sanitizer; SUDANSU Hand Sanitizer Gel; SUDESAN Hand Sanitizer Original; SUEZ Gel Formula; SUKANG Alcohol Prep Pads Medium; SUNGSU Clean Hand Sanitizer; SUPERGUARD Hand Sanitizer; SUPPLYAID Hand sanitizer RRS-HS16; SUPPLYAID Hand sanitizer RRS-HS16B; SUPPLYAID Hand sanitizer RRS-HS8; SUPPLYAID Hand sanitizer RRS-HS8B; SUPPRESS Hand Sanitizer; SUPPRESS Hand Sanitizing Wipes; SURGICEPT Waterless, Surgical Handscrub and Healthcare Personnel Handwash; SUYEONNA HAND SANITIZER gel; SWET Protect; SWM Hand sanitizer; SX Industries Hand Sanitizer Gel; Safe Choice Hand Sanitizer; Safe Clean Hand Sanitizer; Safe Clean Protection Kit; Safe Clean Wet wipe; Safe Cleaner Hand Sanitizer Gel; Safe Cleaner Plus; Safe Good Hand Gel; Safe Hand Cleaner Gel; Safe Hand Fresh Mist; Safe Hand Plus; Safe Hand Sanitizer Aloe and Moisturizing; Safe Hands Hand Sanitizer with Alcohol; Safe Harbor Hand Sanitizing; Safe Housekeeping Advanced Hand Sanitizer; Safe Housekeeping Sanitizer; Safe Sanitize Advance Hand Sanitizer; Safe Sanitize Hand Sanitizer; Safe Sense Hand Sanitizer Gel; Safe Source Hand Sanitizer; Safe Vital Antibacterial Hand Sanitizer; Safe Warrior Instant Hand Sanitizer With Aloe Vera; Safe Warrior Instant Hand Sanitizer With Moistrurizers and Aloe Vera; Safe Warrior Instant Hand Sanitizer With Moisturizers and Aloe Vera; Safe Zone; Safe and Clean; Safe-hands Sanitizer; Safe4U Hand Sanitizer Moisturizing; SafeHaven Personal Gel Hand Sanitizer; SafeShield Hand Sanitizer; Safecare Premium Sanitizing Alcohol Wipes; Safecorr Sanitizer; Safeguard Alcohol Antiseptic Hand Sanitizer; Safeguard Hand Sanitizer; Safeguard Hand Sanitizer Fresh Clean Scent; Safeguard Moisturizing Hand Sanitizer Notes of Citrus Bloom; Safeguard Moisturizing Hand Sanitizer Notes of Lavender; Safeguard Moisturizing Hand Sanitizer Ocean Breeze; Safer Dr. HAND SANITIZER; Safesha Lavender; Safesha Sweet Orange; Safesha Unfragranced; Safetwipes; Safety 1st Oh Sh t Kit; Safety 1st Social Safety Pack; Safety 1st hand sanitizer; Safety First; Safety First 70% Ethanol Hand Sanitizer Gel; Safety First Hand Sanitizer 70% EtOH; Safety Matters Hand Sanitizer Soothing Gel Infused with Aloe Vera; Safety Max; SafetyMax ALCOHOL WIPES; SafetyMax Alcohol wipes; Safetyes 75% ETHYL ALCOHOL DISINFECTANT; Safeway; Safeway Care Aloe; Safeway Care Hand Sanitizer; Safeway Instant Hand Sanitizing wipes; Saiveroy Alcohol Disinfectant Wipes; Saiveroy Alcohol Wipes; Sak PL Hand Sanitizer 70 Alcohol; Salon Safety Safe Hands Hand Sanitizer; Salon Technologies International Sanitizing Hand 80%; Salon Technologies International Sanitizing and Moisturizing Hand; SalonCentric Antiseptic Hand Sanitizer; SalonCentric Take Care Antiseptic Hand Sanitizer; Salt Flats Sanitizer; Salted Pecan Caramels Scented Hand Sanitizer; Saluja MD Essential Hand Sanitizer; Salusen 75%Alcohol Wipes; Salusen premium 75% Disinfectant wipes; Salvation Sanitizer; Samba wipes; SambaGel; San X E3; San-A-Gel; San-E-Pur ANTISEPTIC WIPES; San-E-foam; San-EZ Hand Sanitizer; San-X E3; San-it-E Antiseptic Hand Sanitizer; SanCare Antiseptic Hand Gel; Sanative Gel Hand Sanitizer 70 Alcohol Antiseptic; Sanaux Hand Sanitizer Antibacterial Gel; Sancare Antiseptic Hand; Sancare Poltone Hand Sanitizer; Sanctuary Spirits Hand Sanitizer; Sane Sanitizer; Sanell Hand Sanitizer; Sanetto; Sangel; Sangy 75% Alcohol Cleaning Wipes; Sani; Sani Claw Wipes; Sani Clean; Sani Gel; Sani Hands; Sani Kare; Sani Luxe; Sani Luxe Hand Sanitizer with Alcohol; Sani Med Citrus Gel Hand Sanitizer; Sani Mousse; Sani Professional Brand Sani-Hands; Sani Professional Brand Sani-Hands Instant Hand Sanitizing Wipes; Sani Professional Brand Sani-Hands for Kids Instant Hand Sanitizing Wipes; Sani Professional Brand Sani-Hands with Tencel Instant Hand Sanitizing Wipes; Sani Professional Brand Sani-HandsInstant Hand Sani Instant Hand Sanitizing Wipes; Sani Professional Hands Instant Sanitizing Wipes; Sani Pure Hand Sanitizer; Sani Schutz; Sani Soft; Sani Spire Hand Sanitizer; Sani Spritz; Sani Spritz II; Sani Stand 70% Gel; Sani Stand 70% Gel Unscented; Sani Stix; Sani T Hand Sanitizer; Sani Wipes; Sani Wipes Instant Sanitizing Wipes; Sani-Cardz; Sani-Care; Sani-Gel; Sani-Hands II Instant Hand Sanitizing Wipes; Sani-Hands Instant Hand Sanitizing Wipes; Sani-Hands for Kids; Sani-Kleen Instant Hand Sanitizer; Sani-Kure Extra Strength Hand Sanitizer; Sani-Lotion; Sani-Pen; Sani-Professional Sani-Hands made with Tencel; Sani-Silk; Sani-Smooth; Sani-Soft; Sani-Spritz; Sani-Touch Hand Sanitizer; Sani-X Hand Sanitizer; Sani-X Hand Sanitizing Wipes 70 Percent; Sani-choice Instant Hand Sanitizer; Sani-dex Antimicrobial Hand Wipes; Sani-kleen Hand Sanitizer; Sani-tize E Instant Hand Sanitizer; SaniClean Alcohol Antiseptic 70% Topical Solution Gel, Lemon Scented (HP2513); SaniClean Alcohol Antiseptic 70% Topical Solution, Citrus Floral Scented (HP2495); SaniClean Alcohol Antiseptic 77% Topical Solution Gel, Unscented (HP2464); SaniClean Alcohol Antiseptic 80% Topical Solution Gel, Lemon Scented (HP2472); SaniClean Alcohol Antiseptic 80% Topical Solution Gel, Unscented (HP2463); SaniClean Alcohol Antiseptic 80% Topical Solution, Lemon Scented (HP2482); SaniClean HP Alcohol Antiseptic 70% Topical Solution Gel Lemon Scented (HP2491); SaniClean Plus Alcohol Antiseptic 70% Topical Solution Gel, Citrus Floral Scented (HP2489); SaniClean Plus Alcohol Antiseptic 70% Topical Solution Gel, Lavender Scented (HP2492); SaniClean Plus Alcohol Antiseptic 70% Topical Solution Gel, Lemon Scented (HP2491); SaniFoam; SaniGel; SaniGuard-SF; SaniHOO Hand Sanitizer; SaniHands Gel Hand Sanitizer; SaniHealth Labs Hand Sanitizer; SaniHoo Gel Hand Sanitizer; SaniKlean E3 Hand Sanitizer; SaniMax; SaniSMART Hand Sanitizer; SaniSmart 3; SaniStation HAND SANITIZING; SaniSuds Foam Instant Hand Sanitizer; SaniTex 60; SaniTyze; SaniTyze Hand Sanitizer; SaniZER Hand Sanitizer; Sanibeads; Sanicop; Sanicop Hand Sanitizer; Saniderm Advanced Hand Sanitizer; Sanidry; Sanidry Hand Sanitizer; Sanifect E3 Plus Hand Sanitizer; Sanifoam Hand Sanitizer; Sanify; Sanigen; Sanigen gel; Sanigenix Liquid Hand Sanitizer; Sanigizer Plus; Sanikit; Sanilso; Sanilso G75; Sanimax Hand Sanitizer; Sanimep; Sanirus Hand Sanitizer; Sanispire Hand Sanitizer; Sanispray 70%; Sanisprayz Lavender Sanitizing; Sanit Hand Sanitizer; Sanit Hand Sanitizer Advanced Formula; SanitFresh Antiseptic Hand Sanitizer 1 Gallon; SanitFresh Antiseptic Hand Sanitizer 8OZ; Sanitary alcohol disinfectant wipes; Sanitary wet wipes; Sanitary wipes(alcohol wipes); Sanitaxe; Sanitaxe 27 Oz Instant Hand Sanitizer With Aloe Vera; Sanitaxe Instant Hand Sanitizer With Aloe Vera 27 Fl Oz; Sanitaz HydrationLOCK Hand Sanitizer; Sanitaz SkinPROTECT Hand Sanitizer; Sanitech-A; Sanitech-A2; Sanitect Hand Sanitizer; Sanitelle Advanced Hand Sanitizer Gel; Sanitelle Advanced Hand Sanitizer with Aloe; Sanitelle Advanced Hand Sanitizer with Macadamia Oil; Sanitelle Hand Sanitizer Aroma Mango; Sanitelle Hand Sanitizer Aroma of Coffee; Sanitelle Instant Hand Sanitizer Gel; Sanitelle Moisturizing Hand Sanitizer; Sanitelle Moisturizing Hand Sanitizer with Aloe; Sanitelle Moisturizing Hand Sanitizer with Macadamia Oil; Sanitex MVP Instant Hand Sanitizer; Sanitex Pro Plus Hand Sanitizer; Saniti; Sanitiva Hand Sanitizer; Sanitiz Advanced Hand Sanitizer; Sanitize 80; Sanitize 99.9% Antiseptic Hand Sanitizer; Sanitize Asap Hand Sanitizer; Sanitize NT-80; Sanitize Plus; Sanitize with Purpose; Sanitize365; SanitizePx Hand Sanitizer; SanitizeRx; SanitizeRx Hand Sanitizer; Sanitized Wipes; Sanitizeing Wipe; Sanitizer; Sanitizer Advanced Hand; Sanitizer Hand; Sanitizer Hand Sanitizer; Sanitizer Hand Wipes; Sanitizer Refreshing gel; Sanitizer Solution, Formulation One; Sanitizer Wipe in Sachet; Sanitizer Wipes; Sanitizer Wipes 70% Ethyl Alcohol; Sanitizer disinfectant; SanitizerSpray; Sanitizerx Hand Sanitizer; Sanitizerx Sanitizing Wipes; Sanitizerx sanitizing wipes; Sanitizetek; Sanitizetek Gel; Sanitizing; Sanitizing Alcohol Rub; Sanitizing Antibacterial Wipes; Sanitizing Disinfection; Sanitizing Hand; Sanitizing Hand Gel - Lemongrass; Sanitizing Hand Gel - Peppermint Eucalyptus; Sanitizing Hand Gel - Unscented; Sanitizing Hand Gel Lemongrass; Sanitizing Hand Gel Peppermint Eucalyptus; Sanitizing Hand Gel Unscented; Sanitizing Hand Mist - Lemongrass; Sanitizing Hand Mist - Peppermint Eucalyptus; Sanitizing Hand Mist - Unscented; Sanitizing Hand Mist Lemongrass; Sanitizing Hand Mist Peppermint Eucalyptus; Sanitizing Hand Mist Unscented; Sanitizing Hand Sweet Peach Citrus; Sanitizing Hand Wipe Mitts; Sanitizing Liquid for Community Support; Sanitizing Tech Wipes; Sanitizing Wet Wipes; Sanitizing Wet Wipes 75 Percent; Sanitizing Wipe; Sanitizing Wipes; Sanitizing Wipes 70 Percent; Sanitizing wipes; Sanitizing wipes with aloe Grapefruit Grove; Sanitizing wipes with aloe Lavender Field; SanitizingSpray 80 v/v; Sanitol London Sanitizing; Sanity; Sanity Hand Sanitizer; Sanityze Hand Sanitizer; Sanityzeme; Sanityzer for All; Saniultra Hand Sanitizer; Sanix Alcohol Hand Rub; Sanix80; Sanixusa Hand Sanitizer; Sanizen; Sanko Sanitizing Wipes; Sanmed Healthcare Hand Sanitizing Handrub; Sanny; Sanny Hand Sanitizer; SannyTize Hand Sanitizer; SannyTize Hand Sanitizer Wipe; Sanotis Hand Cleaner; Sanotis Sanitizer Hand; Sans-acne Solution; Sansational Sanitizing Wipes; SantOtizer E80- FRAGRANCE; Santa Fe Spirits Hand Sanitizer; Santex Gel Hand Sanitizer; Santi-Gel Instant Hand Sanitizer; SantiZall 75 percent Ethanol Wet Wipe; Santigel; Santigel 80%; Santihand; Santizall Hand Sanitizer; Santorini Hand Mist; Santorini Hand Sanitizer; Santotizer; Sanugel Hand Sanitizer; Sapil; Sarasota Memorial Amenity; Sassy Strawberry; Satori Hand Sanitizer; Satsuma Antibacterial Hand Sanitizer; Satsuma Hand Sanitizer; Saturday Skin Hand Sanitizing Mist; Sauber Halten SA de CV; Sauers; Savage Hand Sanitizer Wipes; Save Global; Saviour Plus; Saviour Plus Hand Sanitizer; Savon De Provence Hand Sanitizer; Savvy Wellness; Savvycare; Sazerac Company Hand Sanitizer; Scapes; Scapes Daily Clean Hand Sanitizer Gel; Scaredy Cat Antibacterial Hand; Scb-HS-70c; SccUss Hand Sanitizer Gel; Scent Theory - Keep Clean - Moisturizing Hand Sanitizer 65 Percent; Scent Theory - Keep Clean Moisturizing Hand Sanitizer; Scent Theory - Keep Clean Moisturizing Hand Sanitizer With Aloe 65 Percent; Scent Theory - Keep It Clean - Pure Clean Anti-bacterial Hand Sanitizer; Scent Theory - Keep It Clean Moisturizing Hand Sanitizer Pure Clean; Scent for Good Hand Sanitizer; ScentSationals Hand Sanitizer Antiseptic Non Sterile With Aloe and Lemon; Scented Anti-bacterial Hand Sanitizers; Scented Antibacterial Hand Sanitizer; Scented Hand Sanitizer; Scented Hand Sanitizer - Cherry Blossom Scented; Scented Hand Sanitizer - Citrus Scented; Scented Hand Sanitizer - Strawberry Scented; Scented Hand Sanitizer - Vanilla Scented; Scentful Good Vibes Only Hand Sanitizer 65 Percent; Scentful Hand Sanitizer; Scentful Love Hand Sanitizer; Scentful Love Hand Sanitizer 65 Percent; Scentful Self Love Club Hand Sanitizer 65 Percent; Scentfull Hand Sanitizer; Scentia Hand Sanitizer; Scentia Pro Care and Sanitizer; Schnucks Hand Sanitizer; School Health Hand Sanitizer; School Outfitters Hand Sanitizer; Schutz Wellness Hand Sanitizer; Scigen Hand Sanitizer; Scott Gel Hand Sanitizer with Moisturizers; Scott Moisturizing Foam Hand Sanitizer; Scott Moisturizing Foam Hand Sanitizer (Ultra); Scott Moisturizing Instant Hand Sanitizer; Scullys Hand Sanity Hand Sanitizer; Sd Kleen Rx Antiseptic Hand Rub; Sd Kleen Rx Hand Sanitizer; Sd Naturals Hand Sanitizer Fragrance Free; Sd Naturals Hand Sanitizer Fresh Citrus; Sd Naturals Hand Sanitizer Lavender Sritz; Sd Naturals Hand Sanitizer Lemon Lavender; Sd Naturals Hand Sanitizer Mint Twist; Sd Naturals Hand Sanitizer Unscented; Sda 40b; Sea Marine Antibacterial; Sea Minerals Hand Sanitizer; Sea Salt and Citron; Sea Wash Hand Sanitizer Gel; Sea and Ski Advance Hand Sanitizer; Sea and Ski Advanced Hand Sanitizer; Sea and Ski Advanced Hand Sanitizer 8oz; Sea and Ski Hand Sanitizer; Sea and Ski Hand Sanitizer Gel; Sea-Wash Hand Sanitizer; SeaLuxe Hand Sanitizer; Seacret Soothing Hand Sanitizer; Seacrets Hand Sanitizer; Sebyuk Gonggi Hand Sanitizers; Secret Age Perfect Hand Sanitizer (ethanol); Secret Plus Hand Sanitizer; Secret Plus Hand Sanitizer 01; Secure Personal Care Products Alcohol Wipes; Securemax Antibacterial Hand Cleansing; Securitas Hand Sanitizer 15ml; Securitas Hand Sanitizer 60ml; Sedanos Instant Hand Sanitizer With Moistruizing Formula; Seekr Essentials Hand Sanitizer; Seguclean; Seguro; Select Antiseptic Hand Gel With Aloe; SelectChoice Hand Sanitizer; SellNet Essentials Hand Sanitizer; Senchuan Jingshijie HAND SANITIZER; SeneGence Hand Sanitizer; SeneGence Hand Sanitizer 70% Alcohol; Senegence Hand Sanitizer; Seniderm Zero To Nine Hand Sanitizing Wipes; SensBlok Desensitizer; Sense Fresh; Sense Fresh All Purpose Alcohol Wipes; Sense Fresh Ethyl alcohol 70%; Sense Fresh quick hand sanitizing; Sense Fresh quick hand swab; Sense Fresh quick sanitizer wipes; Sentinel ANTIBACTERIAL ALCOHOL WIPES; Sentinel Hand Sanitizer; Sentrinel Hand Sanitizer; Seo Jeong Ho Hwang Chill; Seo Jeong Ho Hwang Chill Deodorant; Seo Jeong Ho Hwang Chill Mist; Seo Jeong Ho Hwang Chill Watersoap; Seojeongho Hwang Chill Hand Sanitizer gel; Sephora By Opi Moisturizing Hand Sanitizer; Septihol Hand Sanitizer; SeptoSan Hand Sanitizer; Septona Antiseptic Hand Sanitizer Wipes; Septona Antiseptic Hand Sanitizer Wipes Fragrance Free; Seratin; Seren Guard; Serene Clean and Pure Hand Sanitizer Gel; Serene Tree Hand Sanitizer; Serene Tree Hand Sanitizer Wipe; Serovital Beauty - Hand Sanitizer Restore and Renew; ServClean Foaming Hand Sanitizer; ServClean Gel Hand Sanitizer; ServClean Liquid Hand Sanitizer; Servo Stat-Foam; Servo-Stat; Servo-Stat Balm; Seven Three Hand Sanitizer; Sfty Sanitizer; Shaboink; Shaboink Alcohol Wipe; Shades of Green Hand Sanitizer; Shanon Hand Sanitizer; Shchs001; She Elizabeth Bio Hand Sanitizer; Shelter Point Sanitizer; Shen Beauty Alcohol Antiseptic; Shield; Shield - Home Cher Sanitizer; Shield Dr.; Shield Hand Sanitizer; Shield-EX hand sanitizer; ShieldForce HS70; ShieldForce HS80; Shieldplex Hand Sanitizer; Shieldtek Hand Sanitizer; Shimmy Meyer Lemon Hand Sanitizer; Shimmy Neutral Hand Sanitizer; Shimmy Original Hand Sanitizer; Shimmy Rose Hibiscus Hand Sanitizer; Shine Hand Sanitizer; Shine K Camellia Hand Sanitizer; Shine K Hand Sanitizer; Shine K Hand Sanitizing Wipes; Shine K Pure Hand Sanitizer; Shine and Clean Hand Sanitizer; Shit in the Woods Hand Sanitizer; Shixiaoman HAND SANITIZER; Shixiaoman HAND SANITIZER aloe and vitamin E; Shoff Hand Sanitizer; Shopkins 3D Hand Sanitizer 6 pack; Shopkins 3D Hand Sanitizer DLish Donut; Shopkins 3D Hand Sanitizer Lippy Lips; Shopkins hand sanitizer; Shopko Antibacterial Hand Sanitizer; Shopko Beauty Hand Sanitizer with Vitamin E; Shoprite Liquid Hand Sanitizer; Shsnh6-4000; Shsnh6-4500; Shsnh6-4501; Shsnh6-4600; Shsnh6-4601; Shsnh6-4602; Shsnh6-4621; Siams; Siams Antiseptic Hand Sanitizer; Siena Hand Sanitizer; Sierra Soft Alcohol Foam Sanitizer; Sierra Soft Alcohol Hand Sanitizer; Signature Alcohol Foaming Hand Sanitizer; Signature Care Advanced Hand Sanitizer; Signature Care Advanced Hand Sanitizer with Aloe; Signature Care Hand Sanitizer Aloe Vera; Signature Care Hand Sanitizer Chamomile Scented; Signature Care Hand Sanitizer Wipes with Aloe Vera; Signature Collection Hand Sanitizer Coral Sands; Signature Collection Hand Sanitizer Fig Eucalyptus; Signature Collection Hand Sanitizer Line Dried Linen; Signature Collection Hand Sanitizer Passion Fruit Prosecco; Signature Collection Hand Sanitizer Sheer Peony; Signature Collection Hand Sanitizer Sugar Blossom; Signature Collection Hand Sanitizer Twilight Pomelo; Signature Collection Hand Sanitizer Vanilla Oak; Signature Collection Hand Sanitizer Woodland Springs; Signature Hand Sanitizer; Signature Series Enriched Foam Alcohol Hand Sanitizer; Siles Hand Sanitizer Gel; Silken Hand Sanitizer; Silky Touch Hand Sanitizer; SiluetaYa Hand Sanitizer; Silver Bear Distillery Hand Sanitizer; Silver Ion Rinse-free Hand Sanitizing Gel; Silver Standard Hand Sanitizer; Simi-Tree Moisturizing Hand Sanitizer; Simika; Simoniz Foaming Alcohol Hand Sanitizer; Simoniz Hand Sanitizing; Simple Grace Blueberry Hand Sanitizer; Simple Grace Fresh Citrus Hand Sanitizer; Simple Grace Green Apple Hand Sanitizer; Simple Grace Hand Sanitizer; Simple Hygiene Hand Sanitizer; Simple Hygiene foaming hand Sanitizer 62; Simple Truth Organic Hand Sanitizer Lavender; Simpleaf Advanced Hand Sanitizer Moisturizer and Vitamin E and Aloe; SimpliSanitized; Simply 62 Hand Sanitizer Gel; Simply 70 Hand Sanitizer Gel; Simply 70 Hand Sanitizer Liquid; Simply 70 Liquid Hand Sanitizer; Simply BLISS ANTI-BACTERIAL HAND SANITIZER; Simply Clean Instant Hand Sanitizer; Simply Delicate; Simply Pure Hand Sanitizer; Simply Safe Hand Sanitizer; Simply Safer Advanced Hand Sanitizer; Simply Safer Disinfectant Wipe; Simply Safer hand sanitzer; Simply Sanitizer Liquid II; Simpurity Hand Sanitizer; Singular Wipes; Singular Wipes lavender fragrance; Sinoge; Sipa Hand Sanitizer With Moisturizers Vitamin E and Aloe; Sipa Hand Sanitizer with Moisturizers Vitamin E and Aloe; Sipa hand sanitizer with Moisturizers Aloe; Sirenol Antiseptic Topical; Sivan G Hand Sanitizer Unscented; Skin Care Hand Sanitizer; Skin Cottage 70 Percent Ethyl Alcohol Antiseptic Hand Sanitizer; Skin Nutritions; Skin Protectant; Skin Shield Liquid Bandage; Skin Supply Hand Sanitizer; Skin and Hand Disnfectant; Skin delight Hand WashGel; SkinRNHandSanitizer; Skinact; Skininc; Skinsei; Skintegrity; Skintegrity Foaming Hand Sanitizer Fragrance Free; Skintegrity Instant Hand Sanitizer; Skintillate Hand Sanitizer; Skinzen Ecoglam Sanitizer; Sky Organics Hand Sanitizer; Skygel Hand Sanitizer; Skyline Professional Instant Foaming Hand Sanitizer; Slap Happy; Slash; Slight Scent Hand Sanitizer; Slim Hand Sanitizer; Sm Cleanswab; Smackover-Norphlet Hand Sanitizer; Smart ANTISEPTIC HAND SANITIZER; Smart Care Advanced Hand Sanitizer; Smart Care Generic Emoji Hand Sanitizer; Smart Care HAND SANITIZER; Smart Care Hand Sanitizer 16.9 oz; Smart Care Hand Sanitizer 2 oz; Smart Care Hand Sanitizer 33 oz; Smart Care Hand Sanitizer 8 oz; Smart Care Marvel Hand Sanitizer; Smart Hand Sanitizer; Smart San CHG; Smart San ES Hand Sanitizer Spray; Smart San Hand Sanitizer; Smart San Hand Sanitizer Fragrance-free; Smart San Hand Sanitizer Spray; Smart San Hand Sanitizer Spray Fragrenace-Free; Smart San Healthcare Personnel Handwash; Smart Sanitizer - Liquid Hand Sanitizer - 70 Ethyl Alcohol - Lavender and Herbs Fragrance; Smart Sense Aloe; Smart Sense Hand Sanitizer Cotton Breeze; Smart Sense Hand Sanitizer Lychee Berry; Smart Sense Original; Smart Sense Vitamin E Sanitizer; Smart care hand sanitizer 1L 01; Smart care hand sanitizer 1L 92313-8 01; Smart care hand sanitizer 236.6ml 92311-12 01; Smart care hand sanitizer 236ml 01; Smart care hand sanitizer 59ml 01; Smart care hand sanitizer 59ml 92312-24; Smart care original hand sanitizer 500ml 01; Smart care spring water hand sanitizer 500ml 01; Smart care sweet pea hand sanitizer 500ml 01; SmartCare Shopkins; Smarties Hand Sanitizer; Smd Sanitizer Solutions Hand Sanitizer; Smileplus Alcohol Pad; Smith Golden Rule Hand Sanitizer; Smith Golden Rule Natural Sugarcane Hand Sanitizer; Snappy Apple Scented Hand Sanitizer; Sneaky Clean Gel; SnoSan Hand Sanitizer; Snp My First Hand Sanitizer; Sntzr; SnugZ Beaded Hand Sanitizer Gel; SnugZ Hand Sanitizer Gel; SnugZ Hand Sanitizing Spry; SnugZ Hand Sanitizing Wipes; SoFresh Hand Sanitizer Ultra Gel 01; Soapbox 70 Hand Sanitizer Light Citrus Scent; Soapbox Hand Sanitizer; Soapbox Hand Sanitizer Antimicrobial; Soapbox Soaps Single Use 70 Hand Sanitizer Packs; Soart Hand Sanitizer; SocoSafe; Soeder Hand Sanitizer; Soft Care Foam Instant Hand Sanitizer; Soft Care Fragrance Free Instant Hand Sanitizer; Soft Care Hand Sanitizer; Soft Care Hand Sanitizing Wipes; Soft Care Impact Alcohol Instant Hand Sanitizer; Soft Care Impact Foam Alcohol Foam Instant Hand Sanitizer; Soft Care Impact Mini Instant Hand Sanitizer; Soft Care Instant Hand Sanitizer; Soft N Sure Antiseptic; Soft N Sure Antiseptic Hand; Soft N Sure Foamed Antiseptic Handrub; SoftSan; Softsoap Instant Hand Sanitizer with moisturizers; Softtouch Alcohol Hand Sanitizer With Vitamin E and Aloe 70 Percent; Soho Fresh Hand Sanitizer; Soho Fresh Rubbing Alcohol; Sol On The Go; Sol-M Alcohol Swabs Medium (folded); Sol-M Alcohol Swabs Medium (folded) non sterile; Sol-M Instant Hand Sanitizer; SolGreat; SolGreat Ethyl Alcohol; SolGreat Instant Hand Sanitizer; Solace Hand Sanitizer; Solar Hand Sanitizer; SolaroGuard Hand Sanitizer Gel Rub 80% Topical Solution; SolaroGuard Hand Sanitizer Liquid Solution 80% Topical Solution; Sole Wipe; Soleil Hand Sanitizer; Solenti BioNatural Hand Sanitizer; Solgreat Instant Hand Sanitizer; Solimo; Solnexus Chemical Hand Sanitizer; Solvall; Sombra Antibacterial Hand Sanitizer; Sombra Hand Sanitzer; Some By Mi Safe Hand Sanitizer; Sono; Sonoma Strong Hand Sanitizer; Sonssack Plus Hand Cleaner; SooAE Hand Sanitizer; Soonsak Hands Puri; Soonsak Hands Puri gel; Soonsoo Pure Advanced Hand Sanitizer Gel; Soothe-A-Sting; Soothe-A-sting; Sophia Seoul Golden; Sophia Seoul Golden Eco Cleanser Hand Gel; Sopure; Sopuro Antibacterial Hand Cleaner Fragrance Free; Soru; Sos Meccin Hand Sanitizer; South Seas Hand Sanitizer; Southern Distilling Company Hand Sanitizer; Southern Trail Distillery Hand Sanitizer; Sp Newgel; Spa Originals Instant Hand Sanitizer; SpaSoap; Sparkled Donut Hand Sanitizer; Sparklez Hand Sanitizer; Sparkling Cranberry Hand Sanitizer; Sparkling Snow; Sparoom Hand Sanitizer; Spatheraphy; Spatherapy; Spatherapy Anti bacterial Hand Cherry Blossom; Spatherapy Anti bacterial Hand Cucumber; Spatherapy Anti bacterial Hand Eucalyptus Mint; Spatherapy Anti bacterial Hand Lemon Citrus; Spatherapy Anti bacterial Hand Vanilla Coconut; Spatherapy Anti-bacterial Hand Cherry Blossom; Spatherapy Anti-bacterial Hand Cucumber Aloe; Spatherapy Anti-bacterial Hand Eucalyptus Mint; Spatherapy Anti-bacterial Hand French Lavender; Spatherapy Anti-bacterial Hand Lemon Citrus; Spatherapy Antibacterial Berry; Spatherapy Antibacterial Cherry; Spatherapy Antibacterial Cherry Blossom; Spatherapy Antibacterial Citrus; Spatherapy Antibacterial Cucumber Aloe; Spatherapy Antibacterial Eucalyptus Mint; Spatherapy Antibacterial French Lavender; Spatherapy Antibacterial Hand; Spatherapy Antibacterial Lemon Citrus; Spatherapy Antibacterial Peach; Spatherapy Antibacterial Pineapple; Spatherapy Antibacterial Vanilla Coconut; Spatherapy Antibacterial Watermelon; Spatherapy Eucalyptus Mint; Spatherapy Grapefruit Nectar; Spatherapy Hand Sanitizer; Spatherapy Hand Sanitizer With Aloe Vera; Spatherapy Hand sanitizer; Spatherapy Lavender Jasmine; Spatherapy Lemon Pomegranate; Spatherapy Raspberry Brulee; Spector Scientific Lab Hand Sanitizer Soothing Infused With Aloe Vera; Spector and Co Antiseptic Hand Sanitizer Gel with Kiwi Scent; Spector and Co Hand Sanitizer; Spector and Co Hand Sanitizer Gel with Coconut Scent; SpectraGenix Hand Sanitizer Antiseptic Hand Wash; Spectrum; Spectrum 62% Hand Sanitizer; Spectrum Hand Sanitizer; Spectrum Hand Sanitizer Wipes; Spectrum Health - Amway Hand Sanitizer; Spencer Health Hand Sanitizer; Spencer Health Sanitizer Wipes 12; Splash of Silver Moisturizing Hand Sanitizer PEONY JASMINE; Splash of Silver Moisturizing Hand Sanitizer TONKA BEAN and MYRRH; Splash of Silver Moisturizing Hand Sanitizer, SOFT ROSE and OUD; Splizz Essentials Hand Sanitizer; Splizz Essentials Instant Hand Sanitizer Liquid; Sponge Bob Bubble Gum Scented Hand Sanitizer 01; SpongeBob HandSanitizer; Spongebob Bubble Gum Scented Hand Sanitizer 01; Spongebob Squarepants Antibacterial Wipes; Spongebob bubble gum scented hand sanitizer 01; Spooky PUmpkin Antibacterial Hand Sanitizer; Spooky Vanilla Antibacterial Hand; Spooky Vanilla Antibacterial Hand Sanitizer; Spot Care Blue One; Spot Care Green One; Spot Care Pink One; Spread LOVE not Germs Rainbow Sprinkles Hand Sanitizer; Spread Love Not Germs; SprinJene; Spring Green Gel Hand Sanitizer; Spring Grove Unscented Hand Sanitizer; Springfield Distillery Hand Sanitizer; Squatch 64 Natural Hand Sanitizer Crisp Citrus; Squatch 64 Natural Hand Sanitizer Mountain Mint; Squeaky Aqua Hand Sanitizing Gel; Squeaky Clean; Squeaky Clean Alcohol Hand Wipes; Squeaky Clean Antibacterial Hand Sanitizer; Squeaky Clean Hand Sanitizer; Squeaky Clean Hands; Squeeky Clean; Ssential Aloe Vera Gel Hand Sanitizer; St Geneve Advanced Hand Sanitizer Fresh Scent; St Geneve Advanced Hand Sanitizer fragrance free; St. Gabriel Organics ReadiHands; St. Gabriel Organics ReadiHands Fresh Lemon Scent Sanitizing Wipes; St. Gabriel Organics ReadiHands Hand Sanitizer; St. Supery Antiseptic Hand Rub; Stalwart Medical Supply Hand Sanitizer; Standard; Standard ANSI First Aid; Standard Hand Sanitizer; Standard Wormwood Distillery Hand Sanitizer; Stanley Hand Sanitizer Gel; Staples Instant Hand Sanitizer; Star War MANDALORIAN Hand Sanitizer; Star Wars Mandalorian Hand Sanitizer; Star Wars The Mandalorian Fresh Scented Hand Sanitizer; Star Waterless Hand Sanitizergel; Star-San; Star-San Foaming Hand Sanitizer; Stargel; Starmanrx Survival Essentials Hand Sanitizer; Start Clean hand sanitizer; Stat-Foam; Stat-Rinse; State Line Distillery Hand Sanitizer; State Street Eucalyptus Hand Sanitizer Antiseptic; Stay Away Alcohol Antiseptic 80% Topical Solution Hand Sanitizer Non-sterile Solution; Stay Safe C19 Hand Sanitizer; Stay Safe HAND SANITIZER; Stay Safe ON THE GO; Stay Strong Hand Sanitizer; Stay Well Advanced Hand Sanitizer; Stay Well Hand Sanitizer Travel Kit; StayClean Scented Hand Gel Sanitizer Blueberry 2 FL.OZ; StayClean Scented Hand Gel Sanitizer Blueberry 8 FL.OZ; StayClean Scented Hand Gel Sanitizer Coconut 2 FL.OZ; StayClean Scented Hand Gel Sanitizer Coconut 8 FL.OZ; StayClean Scented Hand Gel Sanitizer Lemon Citrus 2 FL.OZ; StayClean Scented Hand Gel Sanitizer Lemon Citrus 8 FL.OZ; StayClean Scented Hand Gel Sanitizer Watermelon 2 FL.OZ; StayClean Scented Hand Gel Sanitizer Watermelon 8 FL.OZ; Stayclean Moisturizing Hand Gel Sanitizer 2OZ; Stayclean Moisturizing Hand Gel Sanitizer 3.8L; Stayclean Moisturizing Hand Gel Sanitizer 8OZ; Stayklear; Ste-medi; Steam2Sea Essential Hand Sanitizer Gel; Steel City Sanitizer; StellaLife Hand Sanitizer; Sterelle Hand Sanitizer; Sterigel Plus; Steril Wize Hand Sanitizer; Steril-Touch; Steril-Wize Anti-Bacterial Hand Sanitizer; Steril-Wize Antibacterial Hand Sanitizing Wipes, Fragrance Free; Sterile Alcohol Prep Pad; SterileMAX HAND SANITIZER; Sterilemax Hand Sanitizer; Sterilize Clean Sanitizer; Sterillium Comfort; Sterillium Foam; Sterillium Med; Sterillium Rub; Sterillium Rub Fragrance Free; Sterilup Antiseptic Hand Sanitizer; Steritouch Hand Sanitizer; Sterlomax Hand Sanitizer; Sterlomax Hand Sanitizer Professional; Stern-X Hand Sanitizer; Sterno Hand sanitizer; Sterno performance hand sanitizer; Sting Relief; Sting Relief Pad; Sting relief pad; Stoko Gel Free Instant Hand Sanitizer; Stoko Gel Instant Hand Sanitizer; Stoko Refresh 4in1 Instant Hand Sanitizer; Stoko Refresh 4in1 Instant Hand Sanitizer Sp.; Stoko Refresh Foaming Instant Hand Sanitizer; Stoko Sp. Instant Hand Sanitizer; Stone Barn Hand Sanitizer; Stop-Vyrs; Stop-Vyrs Gel; Storm Advanced Hand Sanitizer; Story of Love Instant Hand Sanitizer; Strata Hand Sanitizer; Straton; Strawberries Hand Sanitizer; Strawberries hand sanitizer; Strawberry Antibacterial Hand Sanitizer; Strawberry Antibacterial Hand Sanitizer with Aloe and Vitamin E; Strawberry Champagne Hand Sanitizer; Strawberry Hand Sanitizer; Strawberry Ice cream Anti-Bacterial Hand Sanitizer; Strawberry Scent Anti Germ; Strawberry Scented Hand Sanitizer 01; Strawberry Shortcake Berry Best Friends Mixed Berry Antiseptic Hand Cleansing; Strawberry scented hand sanitizer 01; Stream2Sea Hand Sanitizer; Stride Products Hand Sanitizing Wipes; Strike Bac Instant Hand Sanitizer; Strong Iodine Tincture; Stuvz Hand Sanitizer; Suave; Suave 75% v/v ALCOHOL WIPES; Suave HAND SANITIZER; Suave Hand Sanitizer; Suave Hand Sanitizer Professional; Subuni Hand Cleaner; Subway Alcohol Sanitizer; Sugar Cookie Cheer Hand Sanitizer; Sugar Cookie Hand Sanitizer; Sugar Cookies Scented Antibacterial Hand Sanitizer; Sugar Plum; Sugared Lemon Hand Sanitizer; Sugared Pear Antibacterial Hand Sanitizer; Sujanils WOW Instant Hand Sanitiser; Sumikkogurashi Aloe Vera Scented; Summer Breeze Hand Sanitizer; Summer Fridays Hand sanitizer; Summit 375; Summit 375 Gel Alcohol Hand Sanitizer; Summit 375 No Rinse Hand Sanitizer; Summit 378 Foam Instant Hand Sanitizer; Summit 378 Foaming Alcohol Hand Sanitizer; Summit Hand Sanitizer; Summit Healthcare Store Hand Sanitizer; Sun Bum Hand Sanitizer; Sun King Brewing Company, LLC; SunDrops 71; SunDrops 73; SunDrops 75; SunKure; Sunbeam Wash-Free Hand Sanitizer/Disinfectant; Sunberry Rinse free Hand Sanitizer; Sunhoo Hand Sanitizer; Sunkissed Honeydew Hand Sanitizer; Sunmark Iodides Tincture; Sunmark Iodine; Sunmitte Hand Sanitizer; Sunna Pure Hand Sanitizer Gel; Sunny Day Scented Hand Sanitizer; Sunny Tropicolada; Sunny Tropicolada HAND SANITIZER; Sunshiny Day Scented Hand Sanitizer; Suny-tizer; Super Clean Sanitizer; Super Hands- Hand Sanitizer; Super Met-AL Hand Sanitizer; Super Met-Al Aromatherapy Hand Sanitizer; Super Sensitive Hand Sanitizer; Super Septic; Super Suds Anti-bacterial; Super Wipes Instant Sanitizing Wipes; Superguard Advanced Hand Sanitizer; Superiorwor hand sanitizer; Superiorwor hand sanitizer with Aloe; Superiorwor hand sanitizer with aloe; Superiorwor hand sanitizer with green apple; Superiorwor liquid hand sanitizer with lemon; Superman Berry Scented Antiseptic Hand Cleansing; Supernova Lab; Supernova Lab Pure Orange; Suppress Hand Sanitizer; Suppress Sanitizing Wipes; Suppress Sanitizizing Wipes; Sure Hand Sanitizer; Sure Protect Hand Sanitizer; Sure Protect Hand Sanitizing; Sure Safe Hand Sanitizer; Sure Well Hand Sanitizer (Ethanol); Sure-Pure Sanitizing Hand Sanitizer; SureKill Hand Sanitizer; SureKill Hand Sanitizer Gel; SureWay brand Hand Sanitizer Gel; SureWell Sanitizing Wipes; Surely Hand Sanitizer; SurelyWell Alcohol Wipes; Surf City Still Works Hand Sanitizer; Surf and Sand Resort Instant Hand Sanitizer; Surface Hand Sanitizer; Surface Prep Hand Sanitizer; Surface Sanitizer; Surface Wipes; Surfs Up Bath Co. Hand Sanitizer; Surfside Inn and Suites Universal Orlando Hand Sanitizer Gel; Surge Industrial Hand Sanitizer Gel; Surgical and healthcare personnel hand antiseptic with moisturizers; Surya Henna Hand Sanitizer; Susan Winget Berries and Cream Hand Sanitizer; Suzanne Organics Moisturizing Hand Sanitizer; Swagon Hand Sanitizer; Swagon Hand Sanitizer Advanced aloe vera Vitamin E; Swagon Ultra Slim Hand Sanitizer; SweatWellth SAFE SMART Hand Sanitizer; Swedish Dream Sea Aster Hand Sanitizer; Swedish Dream Sea Salt Hand Sanitizer; Swedish Dream Seaweed Hand Sanitizer; Sween Clementine Scented Hand Sanitizer; Sweet Berry Hand Sanitizer; Sweet Candy Kiss Sanitizer Pen; Sweet Candy Scented Hand Sanitizer; Sweet Carefor Alcohol Wipes; Sweet Cinnamon Hand Sanitizer; Sweet Coconut Scented Hand Sanitizer; Sweet Daisy Antibacterial Hand Sanitizer; Sweet Grace Hand Sanitizer; Sweet Grape Antibacterial Hand; Sweet Heart Antibacterial Hand Sanitizer Cotton Candy Scented; Sweet Heart Antibacterial Hand Sanitizer Strawberry Scented; Sweet Heart Antibacterial Hand Sanitizer Tropical Fruit Scented; Sweet Honey Hand Sanitizer; Sweet Lemon Antibacterial Hand Sanitizer; Sweet Love Hand Sanitizer Bodycology; Sweet Pea; Sweet Pea Anti-bacterial Hand Sanitizer; Sweet Pea Blossom Hand Sanitizer; Sweet Pea Hand Sanitizer 01; Sweet Pea Scented Antibacterial Hand Sanitizer; Sweet Pea Scented Antimicrobial Hand Gel; Sweet Pea Scented Hand Sanitizer; Sweet Pea Waterless Anti-Antibateria Hand Sanitizer; Sweet River Trading Company Hand Sanitizer Gel; Sweet River Trading Company Hand Sanitizer Spry; Sweet Shimmer Hand Sanitizer Toasted Vanilla; Sweet Shimmer SWEET POMEGRANATE Hand Sanitizer; Sweet Stardust Hand Sanitizer; Sweet Strawberry Scented Hand Sanitizer; Sweet Sugar Fantasy Hand Sanitizer ANTIBACTERIAL; Sweet pea anti-bacterial SCENTED HAND SANITIZER; Swirling Lollipop; Swiss Hand Guard Antiseptic Handwash Antibacterial; Swiss Hand Guard antiseptic handwash antibacterial; Sycuan Casino Resort Hand Sanitizer; Symmetry Foaming Hand Sanitizer; Symmetry Foaming Hand Sanitizer-Fragrance Free with Aloe and Vitamin E; Symmetry Foaming Hand Sanitizer-Unscented; Symmetry Hand Sanitizer; Synergy 700 Series Hand Sanitizer; Synergy Hand Sanitizer; SynthaGel Hand Sanitizer; Sysco Reliance; T-chem Antimicrobial Hand; T-stat Lot; T-stat Pad-lot; T. H. Antiseptic Hand Gel 70%; T.C. Supply Hand Sanitizer; T36 Antiseptic Hand Sanitizer; T36 Antiseptic Hand Sanitizer Spray; T36 The Liquid Antiseptic Hand Sanitizer; T36 The Wipe Antiseptic Hand Sanitizer; TARGOL Sanitizing; TARGOL Sanitizing Citrus; TARGOL Sanitizing English Lavender; TARGOL Sanitizing Eucalyptus; TARGOL Sanitizing Fresh Linen; TARGOL Sanitizing Lemon; TARGOL Sanitizing Waterfall; TAROCCO Hand Sanitizer Sicilian Blood Oranges; TAROCCO Instant Hand Sanitizer; TC Enriched Foam Alcohol Hand Sanitizer; TC EnrichedFoam Alcohol Hand Sanitizer; TC Instant Hand Sanitizer; TCM Brand Hand Sanitizer; TD Hand Sanitizer; TEN Hand Sanitizer; TENSOGEL Antiseptic Hand Sanitizer; TERRA PURE Spa Collection Fresh Aloe Foaming Hand Sanitizer Fragrance Free; TERRA PURE Spa Collection Fresh Aloe Hand Sanitizer Fragrance Free; TERRA PURE Spa Collection Fresh Aloe Hand Sanitizer Moisturizing Formula with Organic Aloe and Vitamin E; TERRA PURE Spa Collection Fresh Aloe Hand Sanitizer Paraben and Gluten Free; TG Hand Sanitizer; THE CLEAN Gel; THE CLEAN HANDS SANITIZER Gel (ETHANOL); THE CLEAN Hand Sanitizer; THE CURE POWER SANITIZER HAND CLEAN Gel(Ethanol); THE CURE POWER SANITIZER HAND CLEAN LIQUIDSpray(Ethanol); THE FRESH HANDS SANITIZER Gel (ETHANOL); THE LIFE Hand Sanitizer; THEORIE Anti-Microbial Instant Hand Sanitizer; TIANYANG HandSanitizer; TIDL Advanced Hand Sanitizer; TIDY TIGER Hand Sanitizer; TIKKUN Hand Sanitizer; TMI Hand Sanitizer; TN DIckinsons Antiseptic Hand Sanitizer; TOMARMON ONGUARD HAND SANITIZER Gel; TOP TOON Dr.Q Hand Sanitizer Gel; TOP TOON Dr.Q Hand SanitizerSpray; TOUGH GUY Instant Hand Sanitizer; TOUGH GUY Instant Hand Sanitizer with Moisturizers and Vitamin E; TRAVELSHELD SANITIZING WIPE(70%Alcohol); TRAVELSHIELD SANITIZING WIPE (70% Alcohol); TRIDENT BIOGUARD ANTISEPTIC HAND SANITIZER Gel; TRIDENT BIOGUARD ANTISEPTIC HAND SANITIZER gel; TRIZ Hand Sanitizer (Ethanol); TRUMED Hand Sanitizer; TRUMED Instant Hand Sanitizer; TRUSTOR Scented Hand Wipes; TRYMAX DINO Hand Sanitizer; TS Guard; TSC Hand Sanitizer; TSC Hand Sanitizer - Alcohol Antiseptic 80%; TSC Hand Sanitizer Unscented; TSONG Hand Sanitizer; TTC Sanitizer 80; TWG WHO Handrub; Take Care Clinic Instant Hand Sanitizer Spray; Take it above and Beyond Kit; Talk To The Palms Hand Sanitizer Duo Pack; Talon Antiseptic Wipes; Tampa General Hospital Instant Hand Degermer; Tapatias; Targol Alcohol Wipes - Aloe Vera Scent; Targol Alcohol Wipes - Citrus Scent; Targol Alcohol Wipes - Fresh Scent; Targol Alcohol Wipes - Lavender Scent; Targol Alcohol Wipes - Lemon Scent; Targol Alcohol Wipes - Ocean Breeze Scent; Targol Sanitizing; Tarmac; Tarocco Instant Hand Sanitizer; Taylor and Finch Instant Hand Sanitizer Aloe Vera; Taylor and Finch Instant Hand Sanitizer Jasmine; Taylor and Finch Instant Hand Sanitizer Rosehip; Taylor and Finch XMAS Fir Balsam Hand Sanitizer; Taylor and Finch XMAS Frosted Cedar Hand Sanitizer; Taylor and Finch XMAS Toffee Apple Hand Sanitizer; Taylor and Finch XMAS Vanilla Spice Hand Sanitizer; Taylor and Finch XMAS Winter Berry Hand Sanitizer; Tazza; Tazza-X Extreme Hand Sanitizing Wipes; Tazza-X Hand Sanitizing Wipes; Tea Tree Hand Sanitizer; Team Hand Sanitizer; Team Hand Sanitizer 75% alcohol Moisturizing Gel with Vitamin E; Tech361 Hand Sanitizer With Aloe Vera and Vitamin E; Tech361 Hytn Alcohol Wipes 20; Tech361 Hytn Alcohol Wipes 80; Tech361 Hytn Hand Sanitizer; Tech361 Hytn Hand Sanitizer With Aloe Vera and Vitamin E; TechniClean Antiseptic Hand Sanitizer; Tecot Sanitizer; Teddys Hand Sanitizer; Teem Hogar; Tego Systems Professional Grade Hand Sanitizer; Tend Liquid Hand Sanitizer; TenderSant Hand Sanitizer; Tendersant Hand Sanitizer; Tepe Sanitary Supply Hand Sanitizer; Terra Pure Organic Aloe Vera Hand Sanitizer 75 Alcohol; Terra Pure Sanitizing Hand wipe; Terra Pure Sanitizing Hand wipes; Terra Pure Spa Collection Fresh Aloe Hand Sanitizer; Terra Pure Spa Collection Fresh Aloe Hand Sanitizer 75 Alcohol; Terra Pure Spa Collection Fresh Aloe Hand Sanitizer Alcohol with color; TerraPure HAND SANITIZER; Terragel; Terranea Cares Wellness Kit; Texas Medical Center Supply; Thai Duong Hand Sanitizer Antiseptic Hand Rub; Thailuv; Thann Signature Hand Sanitising; Thann Signature Hand Sanitising Wipe; Thario Instant Hand Sanitizer; The 99.9 Percent Hand Sanitizer; The Aegis Prime Hand Sanitizer; The Aegis Prime S Hand Sanitizer; The Amazing SPIDER-MAN Hand Sanitizer Moisturizing With Vitamin E and Aloe; The Bard Distillery Hand Sanitizer; The Blue gel; The Clean Club HAND SANITIZER; The Clean Club Hand Sanitizer with Moisturizing Formula; The Clean Lab Hand Sanitizer; The Creme Shop Cica Hand Sanitizer; The Cure Power Sanitizer Hand Clean; The Fresh Market Hand Sanitizer With Moisturizers Aloe And Vitamin E; The Germ Assassin; The INKEY List Alcohol Hand Treatment; The Keeps ETHANOL 62 percent; The Mitt; The Naked Bee Hand Sanitizer Orange Blossom Honey; The New Parent First Aid; The Nordic Shield Hand Sanitizer; The Nordic Shield Sanitizer Wipes; The Ordinary Hand Sanitizer; The Peninsula Hand Sanitizer; The Shave Factory; The Shave Factory Hand Sanitizer; The Simple Market Fresh Water Hand Sanitizer Gel; The Upper Hand; The Villages Hand Sanitizer With Aloe and Vitamin E Extract; The Wet Wipes; The creme shop BT21 MOISTURIZING SANITIZERSpray GREEN TEA SCENTED; The creme shop BT21 MOISTURIZING SANITIZERSpray LAVENDER SCENTED; The creme shop BT21 MOISTURIZING SANITIZERSpray PEACH SCENTED; The creme shop BT21 MOISTURIZING SANITIZERSpray PEPPERMINT SCENTED; The creme shop BT21 MOISTURIZING SANITIZERSpray STRAWBERRY VANILLA SCENTED; The creme shop BT21 MOISTURIZING SANITIZERSpray WHITE TEA SCENTED; The creme shop BT21 MOISTURIZING SANITIZERSpray YUZU SCENTED; The creme shop MOISTURIZING SANITIZER SRPAY Green Tea Scented; The creme shop MOISTURIZING SANITIZER SRPAY Strawberry Scented; The creme shop Moisturizing Sanitizer Towelettes Eucalyptus Scented; The creme shop Moisturizing Sanitizer Towelettes Green Tea Scented; The creme shop Moisturizing Sanitizer Towelettes Lemon Drop Scented; The creme shop Moisturizing Sanitizer Towelettes Mixed Berries Scented; The creme shop Moisturizing Sanitizer Towelettes Peppermint Scented; The creme shop Moisturizing Sanitizer Towelettes Rose Scented; The creme shop Moisturizing Sanitizer Towelettes Strawberry Scented; The creme shop moisturizing hand sanitizer green tea; The creme shop moisturizing hand sanitizer mixed berries; Theophylline Rougier Elixir; Thepuri Deep Pure Hand Sanitizer; Thera Care; Therabody Cleanse CBD Hand Sanitizer; Theruptor; Thick Hand Sanitizer; Thick Hand Sanitizer - Ocean Breeze; Thieves Waterless Hand Sanitizer; Thieves Waterless Hand Sanitizer with Peppermint Oil; Think Klean Hand Sanitizer; Thinka Hand Sanitizer; This is Gel Hand Sanitizer; This is Gel Hand Sanitizer-Rosemary-Lemon; This is Hand Sanitizer; Thomas and Friends Hand Sanitizer; Thompson Hand Sanitizer; Three Rivers Distilling Co. Hand Sanitizer; Thrive Health Hand Sanitizer; Thrive Tape Hand Sanitizer; Thumbs-Up Lime Hand Sanitizer; Thymes Frasier Fir Hand Sanitizer; Thymes Lemon Leaf Hand Sanitizer; Tidy San - Instant Hand Sanitizer; Tiger Cats Hand Sanitizer; TigerCats 70%; Tight Guard Advanced Hand Sanitizer; Tight Guard Hand Sanitizer; Timeless Truth Mask Hand Sanitizer; Timeless Truth Mask Moisturizing Hand Sanitizer Gel; TinMeZor Hand Sanitizer; TinMezor Hand Sanitizer; Tincture Green; Tincture Green Soap; Tincture Of Iodine 2.5%; Tiny Jewel Box Hand Cleanser; Tion Hand Sanitizer; Tion Hand Sanitizer Gel; Tize-all; Tizer Go Wipes; Tizer Sanitizing Wet Wipes; Tizer Wipes; Tizer sanitizing wet wipes; Tm-C7 Hand Clear; Tns Mediplus Hand Sanitizer; Toasted Vanilla Kit Bodycology; Toasted Vanilla Sugar Hand Sanitizer Bodycology; Toasted Vanilla Sugar Kit Bodycology; Tokyo Hand Sanitizer Vanilla Scent; Tomrick Care Hand sanitizer 100ml HXE0001 01; Tomrick Care Hand sanitizer 500ml HXE0010 01; Tomrick Care Hand sanitizer 59ml HXE0005 01; Toms River; TongYi CleanGuard Hand Sanitizer; TongYi CleanGuard In-car Atomization Bactericide; TongYi CleanGuard Multipurpose Bactericidal Cleaner; Tonka Citrus Hand Sanitizer and Lip Balm; Tonka Digger Berry Hand Sanitizer; Tonka Hand Sanitizer (TNK 100); Tonka Hand Sanitizer (TNK 102); Tonka Hand Sanitizer TNK 200; Tonka Hand Sanitizer TNK 202; Tonka Tough Citrus Hand Sanitizer; Too People Antiseptic Liquid Hand Sanitizer 70 Ethyl Alcohol REFILL; Too People Antiseptic Liquid Hand Sanitizer 80 Ehtyl Alcohol Refill; Too People Denatured 70 Ethyl Alcohol; Too people Antiseptic hand sanitizer 70 ethyl alcohol; Too people Denatured 70 ethyl alcohol; Too people Ethyl Alcohol 80; Top Buy Hand Sanitizer; Top Care Decolorized Iodine; Top of Texas Hand Sanitizer; TopCare Advanced Hand Sanitizer Aloe; TopCare Advanced Hand Sanitizer Vitamin E; TopCare Prebiotic Hand Sanitizer; Topcare Aloe; Topcare Apple Pomegranate; Topcare Citrus Escape; Topcare Coconut Cream; Topcare Hand Sanitizer; Topcare Jasmine Tea and Basil; Topcare Vitamin E; Topical Hand Sanitizer; Topical Solution Hand Sanitizer; Topicare Therapeutics Hand Sanitizer; Topicare Therapeutics Hand Sanitizer Wipes; Toprosan hand sanitizer; Tork Hand Sanitizer Alcohol Foam; Tork Hand Sanitizer Alcohol Gel; Tork Premium Hand Sanitizer Foam; Toroplex Hand Sanitizer; Total Skin Care Alcohol Gel Skin Antiseptic; Total-Shield Hand Sanitizer Gel; TotalDry Hand Sanitizer; Totally You Hand Sanitizer; Touch Clean; Touch N Touch Hand Clinic Gel; Touch N Touch Hand Sanitizer Gel; Touch of Shea Hand Sanitizer; TouchNTouch Hemirus Hand Sanitizer Gel; Touchland Glow Mist Hand Sanitizer Rosewater; Touchland Hand Sanitizer Smiley Variety Pack; Touchland Power Mist Hand Sanitizer Aloe You; Touchland Power Mist Hand Sanitizer Applelicious; Touchland Power Mist Hand Sanitizer Beach Coco; Touchland Power Mist Hand Sanitizer Berry Bliss; Touchland Power Mist Hand Sanitizer Blue Sandalwood; Touchland Power Mist Hand Sanitizer Citrus Grove; Touchland Power Mist Hand Sanitizer Frosted Mint; Touchland Power Mist Hand Sanitizer Lemon Lime Spritz; Touchland Power Mist Hand Sanitizer Mango Passion; Touchland Power Mist Hand Sanitizer Pure Lavender; Touchland Power Mist Hand Sanitizer Rainwater; Touchland Power Mist Hand Sanitizer Unscented; Touchland Power Mist Hand Sanitizer Vanilla Blossom; Touchland Power Mist Hand Sanitizer Variety Pack; Touchland Power Mist Hand Sanitizer Velvet Peach; Touchland Power Mist Hand Sanitizer Wild Watermelon; Touchland Power Mist Moisturizing Hand Sanitizer Aloe Vera Scented; Touchland Power Mist Moisturizing Hand Sanitizer Citrus Scented; Touchland Power Mist Moisturizing Hand Sanitizer Forest Berry Scented; Touchland Power Mist Moisturizing Hand Sanitizer Lavender Scented; Touchland Power Mist Moisturizing Hand Sanitizer Mint Scented; Touchland Power Mist Moisturizing Hand Sanitizer Neutral Scented; Touchland Power Mist Moisturizing Hand Sanitizer Unscented; Touchland Power Mist Moisturizing Hand Sanitizer Vanilla Cinnamon Scented; Touchland Power Mist Moisturizing Hand Sanitizer Watermelon Scented; Touchx Instant Hand Sanitizer; Tough Guy Instant Hand Sanitizer; Tough Town Hand Sanitizer; Tough town Hand Sanitizer; Towel; Toy Cleaner; Toys-R-Us Babies-R-Us Hand Sanitizer; Trade Mark Sanitizing Wipe; Trademark Hand Sanitizer; Trader Joes Hand Sanitizer Grapefruit Lemon; Trader Joes Hand Sanitizer Lavender; Trader Joes Hand Sanitizer With Moisturizers and Vitamin E; Trailways hand sanitizer; Transformers Brave Berry Hand Sanitizer; Transformers Brave Berry Hand Sanitizer and Lip Balm; Transformers Hand Sanitizer (TFMR 100); Transformers Hand Sanitizer (TFMR 102); Transformers Hand Sanitizer TFMR 200; Travel Lite Hand Sanitizing Gel; Travel lite Hand Sanitizing Wipes; TravelShield Sanitizing Wipes; Travelers Hand Sanitizers; Travelshield Hand Sanitizer; Travelshield Sanitizing Wipes; Travelshield Sanitizing Wipes 70; Travelshield sanitizing wipe; Traveltime Instant Hand Sanitizer Soothing Aloe and Vitamin E; Treadmill Doctor Advanced Hand Sanitizer; Treaty Oak Hand Sanitizer; TreeActiv Advanced Hand Sanitizer; TriCleanz; Trick or Treat Antibacterial Hand; Trident Bioguard Alcohol Antiseptic Hand Sanitizer; Triderma Essential Hand Sanitizer; Triderma Moisturizing Hand Sanitizer; Trip Mitt; Triple X Sanitizing Wipes; Triseptin; Triseptin Hand and Body Antiseptic; Triseptin Water Aided; Triseptin Waterless; Triseptin Waterless Antiseptic Lotion; Tritanium Labs Hand Sanitizer; Tritanium Labs Hand Sanitizer Hand Sanitizer; Triton HS-777; Triton Hand Sanitizer; Triton Hand Sanitizer Gel; Trolls Grape Scented Hand Sanitizer 01; Trolls Hand Sanitizer; Trolls Hand Sanitizer 0.84 oz; Trolls cherry scented hand sanitizer 01; Trolls grape scented hand sanitizer 01; Trolls raspberry scented hand sanitizer 01; Trolls strawberry scented hand sanitizer 01; Tropical Berries Scented Hand Sanitizer; Tropical Citrus Hand Sanitizer; Tropical Forest Hand Sanitizer; Tropical Scented Hand Sanitizer; Tropical Sunrise Scented Hand Sanitizer 01; Tru and Gen; Tru and Gen 75 Percent Alcohol Wet Wipes; Tru and Gen 75% Alcohol Wet Wipes; True Rewards Hand Sanitizer; True Wash Instant Hand Sanitizer; TrueDefense Hand Sanitizer; Truegel Hand Sanitizer Aloe Vera and Green Apple Aroma; Truly Clean; Trum Hand Sanitizer; TrustRX Hand Sanitizer; Trustor Scent Hand Sanitizer; Trustor Scent Hand Wipes; Trymax Sol Body; Turba Wash Free Instant Hand Sanitizer; Twisted Peppermint; Twizzler Strawberry Hand Sanitizer; Two Owls Hand Sanitizer 80% Liquid Solution; Ty-D Gel Hand Sanitizer; Tyche Hand Sanitizer; Tzgel Plus Antiseptic Hand Sanitizer; U Alcohol; U Instant Hand Sanitizer Aloe Vera; U Instant Hand Sanitizer Classic; U Instant Hand Sanitizer Classic 16oz; U Instant Hand Sanitizer Classic 2oz; U Instant Hand Sanitizer Classic 8oz; U Instant Hand Sanitizer Lavender 8oz; U.S. Legal Support Hand Sanitizer; U.s Colours; UBLIM Alcohol Disinfectant; UHI Hand Sanitizer; ULTRACEPT Antiseptic Handwash; UMC 70% Alcohol; UMOOM Disposable Hand Sanitizer; UNIQUE Hand Sanitizer; UNIVERSALS Endless Summer RESORT Hand Sanitizer; URIGEL 80% Hand Sanitizer Cream Gel; URIGEL Hand Sanitizer; URIGEL Neutro Hand Sanitizer Gel 80%; USANA Hand Sanitizer; USIF 80E Hand Sanitizer; USMed 70% Alcohol Gel Hand Sanitizer; UTUA Hand Sanitizer with Moisturizers; UZO Hand Sanitizer; Uberliss Hand Sanitizer; Ucare Hand Sanitizer; Uline Hand Sanitizer; Ulta Anti-Bacterial Hand Sanitizer; Ulta Beauty Hand Sanitizer; Ulta Freshwater Mist Anti-Bacterial Hand Sanitizer; Ulta Lavender Woods Anti-Bacterial Hand Sanitizer; Ulta Mandarin Mint Anti-Bacterial Hand Sanitizer; Ulta Pomegranate Lime Anti-Bacterial Hand Sanitizer; Ulta Sparkling Lemon Anti-Bacterial Hand Sanitizer; Ulta Vanilla Sugar Anti-Bacterial Hand Sanitizer; Ulta WHIM; Ulta WHIM Peach; Ulta Whim; Ulta Whim Cupcake; Ultimate Hand Sanitizer; Ultimate Solutions Hand Sanitizer; Ultra Care-aid Sanitizer Antiseptic Hand Sanitizer Citric Fragrance with Aloe Vera; Ultra Clean Antiseptic Hand Sanitizer; Ultra Clean Hand Sanitizer; Ultra Defense Advanced Hand Sanitizer; Ultra Defense Sani Smart 15 PK Hand Sanitizer; Ultra Defense Sani Smart 2pk Hand Sanitizer; Ultra Defense Sani Smart 3pk Hand Sanitizer; Ultra Defense Sani Smart Hand Sanitizer; Ultra Defense Sani Smart Hand Sanitizer Botanical Scent With Vitamin E; Ultra Defense Sani Smart Hand Sanitizer Fragrance Free With Vitamin E; Ultra Defense Sani Smart Hand Sanitizer Fresh Aloe With Vitamin E; Ultra Defense Sani Smart Hand Sanitizer Lavender Scent With Vitamin E; Ultra Defense Sani Smart Hand Sanitizing; Ultra Defense Sani Smart Hibiscus Paradise; Ultra Defense Sani Smart Instant Hand Sanitizer; Ultra Defense Sani Smart Kiwi Berry; Ultra Defense Sani Smart Lemonade; Ultra Defense Sani Smart Lilac Rose; Ultra Defense Sani Smart Midnight Mermaid; Ultra Defense Sani Smart Moisturizing Hand Sanitizer With Vitamin E; Ultra Defense Sani Smart Moisturizing and Sanitizer; Ultra Defense Sani Smart Moisturizing and Sanitizing; Ultra Defense Sani Smart Peach Picnic Hand Sanitizer; Ultra Defense Sani Smart Strawberry; Ultra Defense Sani Smart Sweet Citrus; Ultra Defense Sani Smart Tropical Sunrise Hand Sanitizer; Ultra Defense Sani Smart Vanilla Hand Sanitizer; Ultra Defense Sani Smart Vanilla Lavender Hand Sanitizer; Ultra Defense Sani Smart Watermelon Delight; Ultra Gel Hand Sanitizer; Ultra Guard; Ultra Hand Sanitizer; Ultra V Ethane Power Hand Sanitizer; Uncle Buds Hand Sanitizer; Uncle Buds Hand Sanitizer with Hemp Oil; Uncle Jeds Cold Remedy Hand Sanitizer; Undenatured Alcohol; Under Paris Hand Sanitizer; Unichem; Unicorn; Unicorn Antibacterial Hand Sanitizer Fruit Punch scented; Unicorn Antibacterial Hand Sanitizer Strawberry scented; Unicorn Antibacterial Hand Sanitizer cotton candy scented; Unicorn Antibacterial Hand Sanitizer mint chocolate scented; Unifresh All Clean alcohol; Unihope Sterilization Wipes; United Airlines; United Airlines Clean Plus Clorox; United Airlines Fly Cleaner; United Airlines Polaris Kit; United Airlines Polaris Kit with Sanitizer Wipe; United Airlines Sanitizer Wipe; United Airlines Transcon Kit; United Airlines Transcon Kit with Sanitizer Wipe; United Airlines UPP Kit; United Airlines UPP Kit with Sanitizer Wipe; United Hand Sanitizer; United Laboratories 464 PUMP and PROTECT Alcohol Hand Sanitizer; United Sanitizer Alliance Premium Sanitizer; United Spirit of America Hand Sanitizer; Universal Instant Hand Sanitizer; Universal Sanitizing Citrus Garden; Universal Sanitizing Fresh Linen and Lilac; Universal Sanitizing Lavender; Universal Sanitizing Lemon and Mint; Universal Sanitizing Pomegranate and Cherry; Universal Sanitizing Waterfalls; University Medical PHARMACEUTICALS HAND SANITIZER; University of Miami Hand Sanitizer; University of Michigan; Univis Pocket Clean Sanitizing Wipes; Unscented; Unscented Antibacterial Hand Sanitizer; Unscented Hand Sanitizer; Unscented Hand Sanitizer Gel; Unscented Hand Sanitizer Sunmark; Unscented Refill; Up and up Alcohol prep pad; Upside Down Collector Fanny Pack; Upside Down Set Vol 1 Handcare; Upside Down Set Vol 2 Bodycare; Upw Hand Sanitizer; Urban Juve Hand Sanitizer; Urigel 80% Hand Sanitizer Gel 3ML Packet; Urigel Neutro Antiseptic Hand Sanitize 75%r 75%; Urigel Neutro Antiseptic Hand Sanitizer; Usc Hand Sanitizergel; Ushas Antibacterial Hand Sanitizer; Usif Et 70; V Free Hand Sanitizer; V HEALTH Hand Sanitizer; V W; V zero Hand Clean Gel; V-Shapes Antiseptic Hand Sanitizer Ethyl Alcohol; V-klean; V19pan; VENCER Hand Sanitizer; VEROBENE CLINIC CLEAN Gel HAND SANITIZERS; VERTREE Clean Hand Sanitizer Gel; VERTREE Hand Sanitizer (Ethanol); VERTREE Hand Sanitizer Gel; VG-70HS-70C Handsanitizer HANDSANITIZER; VIAMED Alcohol Prep Pad; VILOE Antibacterial 75% Alcohol Cleaning Wipes; VIROCIDE Hand Sanitizer Eucalyptus; VIRX Instant Hand Sanitizer with moisturizers and Vitamin E; VISBELLA instant hand sanitizer desinfectante de manos; VISBELLA protective disinfecting wipes desinfectar las toallitas; VIVITAR Ethyl Alcohol Antiseptic Hand Sanitizer; VM Instant HAND SANITIZER; VOLT Guard Hand Sanitizer; VOP.1 Safety Sanitizer; VT Hand Sanitizer 500ml; VUNNEX Hand Sanitizer; VYDAL Scented Hand Sanitizer; VanRex Alcohol Antiseptic; Vanilla; Vanilla Bean Antibacterial Hand; Vanilla Bean Antibacterial Hand Sanitizer; Vanilla Blossom; Vanilla Brown Sugar Scented Hand Sanitizer; Vanilla Cream and Apple Blossom Antibacterial Hand Sanitizer; Vanilla Cupcake Antibacterial Hand Sanitizer; Vanilla Fig Hand Sanitizer; Vanilla Frosting Scent Hand Sanitizer; Vanilla Hand Sanitizer; Vanilla Hand Sanitizer with Vitamin E and Aloe; Vanilla Hand Sanitizer with vitamin E and aloe; Vanilla Heaven hand sanitizer 01; Vanilla Ice Cream Scented Hand Sanitizer; Vanilla Ice cream Anti-Bacterial Hand Sanitizer; Vanilla Jasmine Scented Hand Sanitizer 01; Vanilla Mint Antibacterial Hand Sanitizer; Vanilla Scented Hand Sanitizer; Vanilla Scented Hand Sanitizer 01; Vanilla Sky Hand Sanitizer; Vanilla Sugar Anti-Bacterial Scented Hand Sanitizer; Vanilla Sugar Antibacterial Hand; Vanilla Sugar Antibacterial Hand Sanitizer; Vanilla Sugar Cookie Hand Sanitizer; Vanilla Sugar Cupcake Hand Sanitizer; Vanilla Sugar Hand Sanitizer; Vanilla Sugar Scented Anti-Bacterial Hand Sanitizer; Vanilla Sugar Scented Hand Sanitizer; Vanilla cupcake Frosting Anti-Bacterial Scented Hand Sanitizer; Vanilla cupcake anti-bacterial SCENTED HAND SANITIZER; Vanilla sugar anti-bacterial SCENTED HAND SANITIZER; Vant36.5 Safe Clean; Vapor Fresh Alcohol Based Hand Sanitizer With Aloe 62 Percent Alcohol; Vaporal Hand Sanitizer; Vaporal Hand Sanitizer Eucalyptus; Vaporal Hand Sanitizer aloe vera; Vaporal Sanitizer wipes; Vaporal sanitizer; Vapour Hand Sanitizer; Varigard Hand Sanitizer; Vasanti Hand Sanitizer; VastMedic; Vastizer Hand Sanitizer; Vaswani Instant Hand Sanitizer; Vax-man Antiseptic Hand Wipes; Vds Hand Sanitizer; Veeda Hand Sanitizer; Veet Disinfection Wipes; Vegol Hand Sani; Velnue; Velvet Peach; Vendetta Hand Sanitizer; Venishoo My1cart Hand Sanitizer; Venus Solutions Antiseptic Hand Sanitizer; Venus Solutions Hand Sanitizer; Venusamy clean gel; Venusamy clean mist; Veogel Hand Sanitizer; Veogel Hand Sanitizer 70% Alcohol; Vera Refresh Hand; Verbena Hand Sanitizer; Verdant Antibacterial; Verdant Hand Sanitizer; VertecBio HS WB LSS; Vertra Hand Sanitizer topical solution; Very Vanilla; Very Vanilla Antibacterial; Very Vanilla Scented Hand Sanitizer; Veterans United Hand Sanitizing Wipes; Vfender; Vfender Hand Sanitizer Gel; Vhp Hand Sanitizer; Vi Zero Doctors Sanitizer; Victis Active Defense Essential; Victoria Bay Gel Hand Sanitizer; Victorias Secret Hand Sanitizer Coconut Jasmine; Vida; Vida Mia Decolorized Iodine; Vida Mia Hand Sanitizer; Vida Mia Hand Sanitizer (62%); Vida Mia Hand Sanitizer (70% v/v); Vida Mia Hand Sanitizer Aloe Vera (62%); Vida Mia Hand Sanitizer Aloe Vera (70% v/v); Villa Floriani Instant Hand Sanitizer; Viloe; Vincisunny Hand Sanitizer; Vincisunny Hand Sanitizing Wipes; Vindicator - E; Vindicator Instant Hand Sanitizer; Vindicator Instant Hand Sanitizer Gel; Vinevida Instant Hand Sanitizer; Viniferamine Hand Sanitizer; Vinotinto Hand Sanitizer; VioNexus; Vionex Towelette; Vionexus; Vionexus No-rinse Spray; Viper Hand Sanitizer; Viragel Hand Sanitizer; Viridipharm Hand Sanitizer Antibacterial; Viridipharm Hand Sanitizer Antibacterial Gel; Virocene; VirtuPure; Virus Gone; Virus Guard 75 Plus Instant Hand Sanitizer; Virus Guard 75 Plus Multi Purpose Sanitizer; Virus Shield Sanitizing Wipes; Virx; Virx Hand Sanitizer Liquid; Virx Instant Hand Sanitizer with moisturizers and Vitamin E; Virx Instant Hand Sanitizer with security clip; Visibly Clean Hand Sanitizer; Vita Plus Saniwipes; Vita Vie Hand Sanitizer Lavender; Vita Vie Hand Sanitizer Lemon; Vita Vie Hand Sanitizer Tea Tree; Vita Vie Hand Sanitizer Unscented; Vitabath Hand Sanitizer Cool Spearmint and Thyme; Vitabath Hand Sanitizer Lavender Chamomile; Vital; Vital Health Care Advanced Hand Sanitizer; Vital Shield 26 Hand Sanitizer Alcohol; VitalPure Hand Sanitizing Gel; Vitalsail; Vitaplus fore; Vitiugen Anti Bacterial Sprey; Vitiugen Instant Hand Sanitizer; Viva; Viva Hand Sanitizer; Vivacious 75 Ethyl Alcohol; Vivacious Instant Hand Sanitizer; Vivitar ANTIBACTERIAL HAND SANITIZER Lavender Scented; Vivitar ANTIBACTERIAL HAND SANITIZER Lemon Scented; Vivitar ANTIBACTERIAL HAND SANITIZER Ocean Breeze Scented; Vivitar ANTIBACTERIAL HAND SANITIZER Peach Scented; Vivitar ANTIBACTERIAL HAND SANITIZER Rose Scented; Vivitar Advanced Hand Sanitizer; Vivitar Ethyl Alcohol Antiseptic Hand Wipes; Vk Hand Sanitizer; Volu-Sol Moisturizing Hand Sanitizer; Votivo Red Currant Hand Sanitizer; W.Dressroom Perfumed Sanitizer Peach Blossom; W.R.LULUS Rinse-free Hand Sanitizer; W.SKIN HAND SANITIZING Gel; W/clip Pdq Hand Sanitizer; WALLY Hand Sanitizer Gel; WANCARE ONEHAND ANTISEPTIC HAND Gel; WBM CARE Alcohol cleaning wet wipes; WD Hand Sanitizer; WD Sanitizing Wipes Lemongrass Scent; WDC Antibacterial Travel Wipes; WE CARE Sanitizing Wipe; WELAMD Maximum Strength Antibacterial Hand Sanitizer; WELKIN 70% Alcohol ANTISEPTIC; WELKIN 75% Alcohol Wipes; WELKIN 75% Alcohol disinfectant; WELKIN Hand Sanitizer; WHAMISA Organic Hand Sanitizer gel; WHAMISA Organic Hand SanitizerSpray; WHITE CELEB SAFE PLUS Gel (ETHANOL); WHO Hand Sanitizer; WHO Recommended Hand Rub; WIPE OUT Safe Pack; WIPEOUT hand sanitizer 50ml 01; WISE CLEAN SANITIZER Gel; WISE HANDS Instant Hand Sanitizer; WMC/ PBD LLC Hand Sanitizer; WOW Hand Sanitizer; WW Instant Hand Sanitizer; Waiwai Gardenia Hand Sanitizer; Waiwai Pikake Hand Sanitizer; Waiwai Pineapple Hand Sanitizer; Waiwai Plumeria Hand Sanitizer; Wake Me Up hand sanitizer 01; Walgreens; Walgreens Advanced Hand Sanitizer Citrus Scent; Walgreens Advanced Hand Sanitizer Made with Plant-Based Ethyl Alcohol; Walgreens Advanced Hand Sanitizer With Fresh Scent; Walgreens Advanced Hand Sanitizer with Aloe and Vitamin E; Walgreens Advanced Hand Sanitizer with Vitamin E; Walgreens Hand Sanitizer Aloe Vitamin E; Walgreens Hand Sanitizer Coastal Breeze; Walgreens Hand Sanitizer Coastal Breeze Scent; Walgreens Hand Sanitizer Crisp Apple; Walgreens Hand Sanitizer Crisp Apple Scent; Walgreens Hand Sanitizer Vitamin E; Walgreens Instant Hand Sanitizer; Walkin Around with Poop in My Hand Hand Sanitizer; Walter 70% Alcohol Hand Sanitizer; Walter 70% Alcohol Hand Sanitizer Wipes; Walter 80% Alcohol Liquid Hand Sanitizer; Walter Alcohol Hand Sanitizer; Wancare Antiviral Wipes With Alcohol; Wancare Onehand Hand Sanitizer; Warheads Hand Sanitizer; Warm Vanilla Hand Sanitizer; Warner Friends Moisturizing Hand Sanitizer Apple; Warner Friends Moisturizing Hand Sanitizer Peach; Warner Friends Sanitizer Clip and Clean HOW YOU DOIN Coconut; Warner Friends Sanitizer Clip and Clean OH MY GOD Peach; Warner Friends Sanitizer Clip and Clean ON A BREAK Pear; Warner Friends Sanitizer Clip and Clean WE KNOW Grapefruit; Warner Friends Sanitizer Clip and Clean, HOW U DOIN Coconut; Warner Friends Sanitizer Clip and Clean, WE KNOW, Strawberry; Warner Friends Sanitizer Clip and Clean, WE WERE ON A BREAK, Apple; Warrior Wipes Sanitizing Wipes; Wash Free Antibacterial Gel; Wash Free Disinfection; Wash Free Disinfection Gel; Wash Free Hand Sanitizer; Wash Free Instant Hand Sanitizer; Wash free hand sanitizer(Alcoholic); Wash free quick dry cleaning hand gel; Wash with Water Hand Sanitizer; Wash-Free Disinfectant Gel; Wash-Free Surgical Hand Disinfectant Gel II; Wash-free Hand Sanitizer Gel; Wash-free hand sanitizer; WashJo Rosemary free hand disinfectant; Washing-free Antibacterial Disinfectant; Washing-free Disinfection Bacteriostatic; Washing-free Hand Sanitizer; Washing-free disinfection gel; Water Mountain Hand Sanitizer; Water free hand cleaner; Water-free Antibacterial Hand Sanitizer; Waterless Alcohol Hand Sanitizer Gel; Waterless Aloe Scented Hand Sanitizer; Waterless Anti Bacterial Hand Sanitizer; Waterless Anti-Bacterial Hand Cleanser; Waterless Antibacteria Hand Sanitizer; Waterless Fragrance Free Hand Sanitizer; Waterless Hand Sanitizer; Waterless Hand Sanitizer Citrus Scent; Waterless Hand Sanitizer Gel; Waterless Lavender Scented Hand Sanitizer; Waterless hand sanitizer; Watermelon Anti Bacterial Hand Sanitizer; Watermelon Gel Hand Sanitizer; Watermelon Hand Sanitizer; Watermelon Hand Sanitizer Girl; Watermelon Mango Scented Hand Sanitizer; Watermelon Scented Hand Sanitizer; Watermelon Scented Hand Sanitizer 01; Watermelon Wonder Hand Sanitizer; Watermelon hand sanitizer; Watermelon scented hand sanitizer 01; Watson Hand Sanitizer; Wave Hand Sanitizer; Waxman Kleen Freak Hand Sanitizer; We Are The World Sanitizer (Ethyl alcohol 70%); We Clean Hand Sanitizer Apple Cider; We Clean Hand Sanitizer Candy Corn; We Clean Hand Sanitizer Caramel Apple; We Clean Hand Sanitizer Fall Chai; We Clean Hand Sanitizer Gel - Tea Tree; We Clean Hand Sanitizer Roasted Marshmallow; We Got This Sanitizer; We Heart Clean Hands Hand Sanitiser; We Heart Clean Hands Hand Sanitizer; WeAdvanced Lavender Hand Sanitizer; WeAdvanced Original Hand Sanitizer; WeCareYou Alcohol Wipes; WeClean Antibacterial Hand Sanitizer Eucalyptus Scent; WeClean Antibacterial Hand Sanitizer Tea Tree Scent; WeClean Antibacterial Hand Sanitizer Unscented; WeClean Gel Hand Sanitizer Eucalyptus; WeClean Hand Sanitizer - Lemon Scent; WeClean Hand Sanitizer - Orange Apple Scent; WeClean Hand Sanitizer Cinnamon Stick Scent; WeClean Hand Sanitizer Cranberry Spice Scent; WeClean Hand Sanitizer Gel - Eucalyptus; WeClean Hand Sanitizer Gingerbread cookie scent; WeClean Hand Sanitizer Lemon Scent; WeClean Hand Sanitizer Mistletoe Scent; WeClean Hand Sanitizer Orange Apple Scent; WeClean Hand Sanitizer Peppermint Bliss Scent; WeClean Hand Sanitizer Pumpkin Swirl; WeClean Hand Sanitizer Starry night citrus spice scent; WeClean Hand Sanitizer Sugar Cookie Scent; WeClean Hand Sanitizer Sugar Plum Scent; WeClean Hand Sanitizer Unscented; WeClean Hand Sanitizer Winter Berry Scent; WeClean Hand Sanitizer apple cider scent; WeClean Hand Sanitizer candycorn scent; WeClean Hand Sanitizer caramel apple scent; WeClean Hand Sanitizer fall chai scent; WeClean Hand Sanitizer pumpkin swirl scent; WeClean Hand Sanitizer toasted marshallow scent; WeClean Hand Sanitizer winter wonderland scent; WeCool Toys Hand Sanitizer - Honey Suckle; WeWell Anti Bacterial Wipes; Weaver Hand Sanitizer; Wegmans Hand Sanitizer Lychee Berry; Wegmans Hand Sanitizer Thai Bamboo; Weis SIMPLY GREAT ADVANCED Hand Sanitizer WITH VITAMINS E and B5; Weisilan Hand Sanitizer; Weiteer Hand Sanitizing Gel; Welcome; Welcome Hand Sanitizer; Welkeeps Wonder Check Hand Sanitizer; Welkin Hand Sanitizer; Welkin alcohol wipes; Well Being Sanitizing Wipes; Well at Walgreens Advanced Hand Sanitizer with Vitamin E; WellDerma CLEAN HAND SANITIZER Gel; Wella Professionals Hand Sanitizer Non-Sterile Solution Alcohol Antiseptic 80% Topical Solution; Wellena Skincare Hand Sanitizer; Wellgate Anti-bacterial Hand Sanitizer; Wellnicity Hand Sanitizer; Wellstar Amenity; Welly Clean Hands; Welly Human Repair Kit; Welly Quick Fix Kit; Welly Superhero Supplies Kit; Westnet Hand Sanitizer; Wet Ones Hand Sanitizer; Wet Ones Hand Sanitizer Fresh Scent; Wet Ones Hand Sanitizer Mist Lavender Blossom; Wet Ones Hand Sanitizing Wipes Plus; Wet Tissue with Alcohol 75%; Wet Wipe; Wet Wipe 12 Pack; Wet Wipe 36 Pack; Wet Wipes; Wet Wipes Sanitizer; What a Complete Shit Show Hand Sanitizer; Whenever Hand Purifying; Whipped Vanilla Hand Sanitizer; Whisk Alcohol Sanitizing Gel; Whisk Care 371; Whisk Care 373; Whisk Care 375; WhiskCare 371; WhiskCare 373; WhiskCare 375; WhiskCare 375 Fragrance Free; Whiskey Wash; White Citrus Hand Sanitizer; White Cloud Hand Sanitizer; White Cotton Hand Sanitizer; White Hand Sanitizer; White Organia Fresh Pure Hand Sanitizer; White Rose Liquid Hand Sanitizer; White Spruce Hand Sanitizer; Whitestone Dome Life Hand Sanitizer; Whitmeyers Hand Sanitizer; Who Recommended Hand Rub; Whole Food Market Hand Sanitizer Gel; Whole Foods Market Hand Sanitizer; Whole Wipes; Wicked Good Hand Sanitizer; Wild Passion Flower Anti-bacterial Hand Sanitizer; Wild Strawberry Anti-Bacterial Hand Sanitizer; Wild Watermelon; Wilde Orchid; Williams Hand Sanitizer; Williams Hand Sanitizer Wipes; Willies Cool Citrus Scent Hand Sanitizer; Winning Hands Alcohol Foaming; Winning Hands Hand Sanitizer; Winter Apple; Winter Berry Scented Hand Sanitizer 01; Winter Frost Hand Sanitizer; Winter Vanilla Hand Sanitizer Bodycology; Winter Vanilla Hand Sanitizer None; Winter in Venice HOSPITAL GRADE HAND SANITIZER; Winter in Venice Hospital Grade Hand Sanitizer; Wipe; Wipes; Wipes Plus; Wipes Solutions Antiseptic Wet Wipes; Wipesplus Hand Sanitizing Wipes; Wish Advanced Hand Sanitizer; Wish Advanced Hand Sanitizer 01; Wish Aloe scented hand sanitizer 01; Wish Hand Sanitizer; Wish Hand Sanitizing Wipes; Wish Lemon scented hand sanitizer 01; Wish Peony scented hand sanitizer 01; Wish Ultra Alcohol Sanitizing Citrus Garden; Wish Ultra Alcohol Sanitizing English Lavender; Wish Ultra Alcohol Sanitizing Fresh Linen and Lilac; Wish Ultra Alcohol Sanitizing Lemon and Mint; Wish Ultra Alcohol Sanitizing Pomegranate and Cherry Blossoms; Wish Ultra Alcohol Sanitizing Spring Waterfall; Wish Ultra Hand Sanitizer A Coconut Kinda Life; Wish Ultra Hand Sanitizer Dream in Cherry Blossoms; Wish Ultra Hand Sanitizer Easy Peasy Lemon Squeezy; Wish Ultra Hand Sanitizer I Love You Cherry Much; Wish Ultra Hand Sanitizer Lifes a Peach Beach; Wish Ultra Slim hand sanitizer; Wish Ultra hand sanitizer 01; Wish Ultra hand sanitizer dream in cherry blossoms; Wish Ultra slim hand sanitizer; Wish advanced hand sanitizer; Wish advanced hand sanitizer 01; Wish advanced hand sanitizer Vit E; Wish coconut scented hand sanitizer 01; Wish hand sanitizer; Wish hand sanitizer 01; Wish hand sanitizing wipes; Wish lavender scented hand sanitizer 01; Wish peony scented hand sanitizer 01; Wish strawberry scented hand sanitizer 01; Wish/ Wish Ultra slim hand sanitizer; Wish/ Wish Ultra slim hand sanitizer 01; Witchs Brew Antibacterial Hand; With75% ALCOHOL DISINFEGTANT Wipes; Wolke Hand Sanitizer; Women to Blame Cherry; Wonder Bath Pure Hand Sanitizer; Wonder Hand Fresh Gel 62% (250ml); Wonder Hand Fresh Gel 83% (Lemon Flavor) (Ethanol); Wonder Hand Fresh Gel Lemon Flavor (Ethanol); Wonder Hand Gel (Ethanol); Wonder Hand Gel (ethanol) 72% 100ml; Wonder Hand Gel (ethanol) 72% 30ml; Wonder Hand Sanitizer Liquid (ethanol) 70% 40ml; Wonvia Antibacterial Hand Disinfectant; Wonvia Antibacterial Hand Disinfectant Gel; Wonvia Antibacterial Hand Disinfectant Sanitizer; Wonvia Hand Disinfectant Gel; Wonvia Individually Wrapped Antibacterial Hand Wipes 70% Alcohol; Workforce Essentials Hand Sanitizer; Workforce Hand Sanitizer; Workforce Personal Care Hand Sanitizer Lemon Tea Tree; Workforce Personal Care Hand Sanitizer Unscented; Workhorse E3 Gel Hand Sanitizer; Workhorse E3 HAND SANITIZER; Working Hands; Workmans Friend - Superior Hand Sanitizer With Aloe and Chamomile 62 Percent V/v; World Famous Hand Sanitizer; Worldtec Disinfecting 70% Alcohol Wet Wipes; Worldtec Disinfecting Wet Wipes 75% Alcohol; Wow EZ Finishes Hand Sanitizer; Wyandotte Sanifect E3; Wynn Hand Sanitizer; X Bright Pro Sanitized Wipes; X PROUSA Antiseptic Hand Sanitizer Gel; X-PROUSA Antiseptic Hand Sanitizer Gel Cucumber Melon Scent; X-PROUSA Antiseptic Hand Sanitizer Gel, Clean and Fresh Scent; X-teril; XE-CELL CLEAN TO CLEAN HAND SANITIZER Gel; XE-CELL CLEAN TO CLEAN HAND SANITIZER Gel PLUS; XEEPUR HAND SANITIZER Gel; XEPI Gel 70E HAND SANITIZING HANDRUB; XEPI Rub ET HAND SANITIZING HANDRUB; XOXO Kit Bodycology; XOXO Kit bodycology; XPRO Antiseptic Hand Sanitizer; XS 75%Alcohol wipes; XS Alcohol Prep Pad; XS Alcohol Prep Pad Saturated with 70% alcohol; XS Clean; XS Clean 75% Ethanol; XS Wipe 75% Ethanol; XTREME Hand Sanitizer; XTREME PERSONAL CARE Hand Sanitizer; XTREME Personal Care Hand Sanitizer; Xanitize; XanitizeSpray; Xeelab Alcohol 62 Hand Mist Lemon; Xeepur Indoor Safe Hand Sanitizer; Xeepur Sanitizer Hand Mist; Xerox Hand Sanitizer; XtraCare Cucumber Melon; XtraCare Hand Sanitizer Moisturize with Vitamin E; XtraCare Hand Sanitizer Moisurize with Vitamin E and Aloe; XtraCare Instand Hand Sanitizer; XtraCare Instant Hand Sanitizer; XtraCare Lavender Chamomile; XtraCare Sweet Pea Blossom; XtraCare Warm Vanilla; XtraCare instant Hand Sanitizer; XtraCare instant Hand Sanitizer Aloe Vera; XtraCare instant Hand Sanitizer Cocoa Butter; XtraCare instant Hand Sanitizer Original; Xtreme Hand Sanitizer; Xtreme Hand Sanitizer Gel 01; Xtreme Kleen; Xtreme Kleen Hand Sanitizer; Xtreme Kleen Hand Sanitizer 80; Xtreme Kleen Moisturizing Advanced Gel Hand Sanitizer Fragrance; Xtreme Kleen Moisturizing Advanced Hand Sanitizer Unscented; Xtreme Personal Care Hand Sanitizer; Xtreme Ultra Slim Hand Sanitizer; YALGET Hand Sanitizer Non-sterile; YANKEE CANDLE HAND SANITIZER with moisturizer Beach Walk; YANKEE CANDLE HAND SANITIZER with moisturizer Lemon Lavender; YANKEE CANDLE HAND SANITIZER with moisturizer Pink Sands; YESUL Hand Sanitizer; YINBA Antibacterial disposable gel; YINBA Antiseptic Hand Rub Non-sterile Solution; YNOT Hand Sanitizer; YOGARDTM Hand Sanitizer; YORUN Hand Wipes; YORUN Sanitizing Wipes; YOU GOT THIS Hand Sanitizer; YOUZHI Hand Sanitizer; YOZIO Perfect Hand Sanitizer gel; Yacana; Yasameen Paradise Hand Sanitizer Gel; Ye Gam Top Plus Hand Sanitizer; Yellow Hand Sanitizer; Yellowhammer Brewing Hand Sanitizer; Yesul Antibacterial 68% Alcohol Hand Sanitizing Wipes Original Scent; Yesul Antibacterial 68% Alcohol Hand Sanitizing Wipes With Original Scent; Yesul Antibacterial Hand Sanitizer; Yhj Intense Hand Sanitizer; Yi Jie NingTM Gel Antibacterial Hand Sanitizer; Yijie Ethyl Alcohol Antiseptic Hand Sanitizer; Yixin Sunlin Instant Hand Sanitizer; Ymlabs; Ynot; Ynot Hand Hand Sanitizer; You Are A Magical Unicorn Antibacterial Hand Sanitizer Berry Scented; You Are A Magical Unicorn Antibacterial Hand Sanitizer Cotton Candy Scented; You Are A Magical Unicorn Antibacterial Hand Sanitizer Strawberry Scented; You Are A Magical Unicorn Antibacterial Hand Sanitizer Watermelon Scented; You Are A Magical Unicorn Antibacterial Hand Sanitizer Wipes Cotton Candy Scented; You Are A Magical Unicorn Antibacterial Hand Wipes Cotton Candy Scented; You Are My Sunshine Antibacterial Hand Sanitizer Blueberry scented; You Are My Sunshine Antibacterial Hand Sanitizer Cotton Candy Scented; You Are My Sunshine Antibacterial Hand Sanitizer Cotton Candy scented; You Are My Sunshine Antibacterial Hand Sanitizer Watermelon Scented; You Are My Sunshine Antibacterial Hand Sanitizer Wipes Watermelon Scented; You Are My Sunshine Antibacterial Hand Wipes Watermelon Scented; You Got This Hand Sanitizer; You Think Im Fuckin Around Hand Sanitizer; You are the Best Hand Sanitizer; Yugo Hand Sanitizer; YujieTM Rinse-free Hand Disinfection Gel; Yun Hand Sanitizer Gel; Yuni beauty hand sanitizer; Yuniku Antiseptic Hand Sanitizer Wipes; ZANILAST Plus; ZAP Hand Sanitizer; ZAPPP instant hand sanitizer; ZAPS Sanitizer; ZAPS Sanitizer V900; ZERO Hand Sanitizer; ZERO-DUST The Clean Hand Sanitizer; ZERO-PERCENT Portable Sanitizer; ZERO-PERCENT Portable Sanitizer Refill; ZHUSHI 75% Alcohol disinfectant; ZHUSHI Disposable alcohol disinfectant wipes; ZHUSHI Hand sanitizer gel; ZIAMI Hand Sanitizer Gel 70%; ZIAMI Hand Sanitizer Gel Fragrance Free; ZOEY naturals English Garden HAND SANITIZER; ZOEY naturals Island Hibiscus HAND SANITIZER; ZYTEC Germ Buster Hand Sanitizer; Zani Hand Sanitizer; Zanitz; Zano Handz Hand Sanitizer; Zany Antiseptic Gel; Zanysan Hand Sanitizer; Zapire Hand Sanitizer; Zapro Hand Sanitizer; Zatural Hand Sanitizer; ZeVana Hand Sanitizer; Zen Global Alcohol Wipes; Zen Hand Sanitizer; Zep Alcohol Hand Sanitizer; Zep Alcohol Sanitizer; Zep Commercial Foaming Alcohol Hand Sanitizer; Zep Foaming Hand Sanitizer; Zep Fuzion Instant Hand Sanitizer; Zep Hand Sanitizer; Zep Hand Sanitizer Wipes; Zep Handstand Instant Hand Sanitizer; Zep Instant Hand Sanitizer; Zep Instant Hand Sanitizer Gel; Zep Professional Alcohol Hand Sanitizing; Zepol; Zermat care hand sanitizer; Zero Hand Cleaner; Zero Hand Cleaner Mist; Zero Hand Sanitizing Wipes; Zero-dust Days Hand Sanitizer; Zeroth premium hand sanitizer; Zest Hand Sanitizer; Zesty Lemon; Zetta Hand gel; Zetta Ultra-gel Hand Sanitizer; Zeyco Antiseptic Hand Sanitizer Gel; Zeyco Hand Sanitizer; Zhen Ge Ge Disposable Hand Sanitizer; Ziarot Antibacterial Hand Sanitizer 70 Alcohol Aloe Vera and Glycerine; Zing Hand Sanitizer; Ziva Hand Sanitizer; Zoe and Zac Naturals Hand Sanitizer Apples and Pears; Zoey Naturals Lemon Squeeze Hand Sanitizer; Zogics Alcohol Wipes; Zogics Hand Sanitizer; Zogics Instant Hand Sanitizer Hydrating Gel; Zone Defense Foaming Hand Sanitizer; Zone Defense Hand Sanitizer; Zone Defense Hand and Surface Sanitizing Wipes; Zoom Active Alcohol Wipes; Zoom Hand Sanitizer; Zoono Ultra Hand Sanitizer; Zoosh Antiseptic Hand Sanitizer Gel, 80% Ethyl Alcohol; Zoosh Kakadu Plum Scented Antiseptic Hand Sanitizer; Zoosh Lemon Scented Antiseptic Hand Sanitizer Gel, 80% Ethyl Alcohol; ZuRI 70.5% Topical Solution Hand Sanitizer; ZuRI 75% Alcohol Wipes; ZuRI 80% Topical Solution Hand Sanitizer; Zuklean Advance 62 Ethyl Alcohol Hand Sanitizer GeL; Zuum 70 Ethyl Alcohol Antispetic Hand Sanitizer; Zuum Klin 63 Ethyl Alcohol Hand Sanitizer; Zuum Klin Antibacterial; Zuum Klin SSPray Antiseptic Hand Sanitizer; Zylast Antiseptic; Zylast Antiseptic S; Zylast Antiseptic Surgical Scrub; Zytec Germ Buster Hand Sanitizer; Zytec Hand Sanitizer Wipes 80% w/w Alcohol; aiwina ALCOHOL WIPES; aiwina Sanitizing wet wipes; al-SHIELDS; al-SHIELDS Hand Sanitizer; allpeaU Pure Hand Sanitizer; altor Safety Hand Sanitizer Gel; altrufuel Hand Sanitizer With Vitamin E and Aloe Vera Moisturizing Formula; amekina Instant Foaming Hand Sanitizer; amekina Instant Hand Sanitizer Gel; anti-bacterial Hand Cleanser; antibacterial WIPES; antibacterial hand sanitizer with aloe and Vitamine E 02; antibacterial hand sanitizer with aloe and Vitamine E 100mL; antiblitz Antiseptic Hand Sanitizer; apollo ANTISEPTIC HAND SANITIZER; apollo Antiseptic Hand Sanitizer; apollo Instant Hand Sanitizer; aurafresh instant hand sanitizer with moisturizeers vitamin E and aloe; b Clean Premium Hand Sanitizer; b free Hand Sanitizer with Aloe Vera and Vitamin E; b4 Antiseptic Hand Sanitizer with ethyl alcohol; bamboo Instand Hand Sanitizer; be Flat. Frecent HAND SANITIZER; beCLEAN HAND SANITIZER 75 PERCENT ALCOHOL; beCLEAN PERSONAL SANITIZING WIPE 75 PERCENT ALCOHOL; beCLEAN PERSONAL SANITIZING WIPE 75 PERCENT ALCOHOL - INFUSED WITH ALOE; beCLEAN SANITIZING DEVICE WIPE 75 PERCENT ALCOHOL; beCLEAN SANITIZING WIPE 75 PERCENT ALCOHOL; beauty concepts ANTIBACTERIAL HAND SANITIZER TRIO WINTER MINT UNSCENTED FROSTED BERRY; beauty concepts HAND SANITIZER TRIO ROSE WATER PINK PEONY CHERRY BLOSSOM; beauty concepts Sugar Cookie ANTIBACTERIAL HAND SANITIZER; beyond Hand Sanitizer; bioXterminate Hand Sanitizer Gel; bioXterminate Hand Sanitizer Liquid; bioXterminate Pro Hand Sanitizer Gel; biom Sanitizing Alcohol Wipes - Bergamot Bloom; biom Sanitizing Alcohol Wipes - Eucalyptus Chill; blink Hand Sanitizer; blitz Antibacterial Hand Cleansing; blue guard Hand Sanitizer; body luxuries Strawberry Shortcake Antibacterial Hand Sanitizer; body luxuries Vanilla Frosting Antibacterial Hand Sanitizer; bortek Hand Sanitizer; bt Hand Sanitizer; cabeau Sanitizer To Go; careful Hand Sanitizer Lily; careful Hand Sanitizer Mint; careful Hand Sanitizer Orange; careful Hand Sanitizer Unscented; chempace SANI-GEL INSTANT SKIN SANITIZER; claires BEyouTIFUL hand sanitizer; clean n natural Hand Sanitizer Antimicrobial; clean up Gel Hand Sanitizer; clean works Hand Sanitizer; cleanworks Hand Sanitizer Wipes; d Hand; d.therapino Hand Sanitizer; d.therapino One Step Hand Sanitizer; dailycare Antibacterial Hand Sanitizing Wipes Original Unscented; dailycare Antibacterial hand sanitizr unscented; del Lago Resort and Casino Hand Santitizer; dial Professional Foaming Hand Sanitizer; disney princess Cherry blossom scented hand sanitizer 01; dr.Clinic ANTIBACTERIAL WET WIPES WITH ALCOHOL; eQo Gel; eZFoam Foaming Alcohol Hand Sanitizer; earth pak Hand Sanitizer; eluo Hand Sanitizer; elyptol ANTIMICROBIAL MOISTURIZING HAND SANITIZER; enMotion E3 Rated Gel Hand Sanitizer With Moisturizers Fragrance Free, Dye Free; enMotion Foam Hand Sanitizer w-Moisturizers, Fragrance Free; enMotion Foam High Frequency Use; enMotion Foam Sanitizer with Moisturizers Fragrance Free; enMotion Foam with Moisturizers fragrance free; enMotion Hand Sanitizer with Moisturizers, Fragrance Free, Dye Free; enMotion High Frequency Foam Hand Sanitizer; enMotion High Frequency Use Foam Hand Sanitizer; eos SHEA BETTERTM HYDRATING HAND SANITIZER coconut waters; eos SHEA BETTERTM HYDRATING HAND SANITIZER pomegranate raspberry; equate Hand Sanitizer; equate Hand Sanitizer with Vitamin E; esthemax pharm Hand Sanitizer; everyone Hand Sanitizer Coconut Lemon; everyone Hand Sanitizer Peppermint Citrus; everyone hand SANITIZER Coconut Lemon; ezFoam Foaming Alcohol Hand Sanitizer; f(x)l Skin Care Hand Sanitizer; frida 70 Alcohol plus Aloe Hand Sanitizer; germfree Hand Sanitizer Antibacterial; germstarCitrus; germstarGel; germstarLuxe; germstarNORO; germstarNORO unscented; germstarONE; germstarONE unscented; good vibes only Hand Sanitizer; groovi beauty Bubbly Bellini Hand Sanitizer; groovi beauty Fresh Baked Hand Sanitizer; groovi beauty Rainbow Sprinkles Hand Sanitizer; groovi beauty Toasted Vanilla Hand Sanitizer; groovi beauty spring RAIN hand sanitizing wipes; groovi beauty spring RAIN hand sanitizing wips; hand Sanitizer; hand san INSTANT HAND SANITIZER; hand sanitizer 3.78L; hand sanitizer OTC; haruhome Hand Sanitizer; helpmate Hand Sanitizer; iBrea Micro Silver Hand with Pure Silver; iBrite Hand Sanitizer; iFLY Smart Antibacterial Hand Sanitizer; iFLY Smart Hand sanitizer; iFLYSmart Germ Free; iFLYSmart Germ-Free Kit; ik-ek Instant Hand Sanitizer with Moisturizers and Aloe Vera; in2itiv 2 Hand Sanitizer Alcohol Antiseptic; in2itiv Hand Sanitizer 70 Alcohol Antiseptic; infectiguard Fast Acting Antiseptic Hand Sanitizer; infectiguard Fast Acting Antiseptic Hand Sanitizer with Moisturizer; isLeaf Hand Cleaning; isLeaf Hand Cleaning Gel; isLeaf Hand Cleaning Gel Plus; isLeaf Hand Cleaning gel; jianyi Hand Sanitizer Gel; kekangbei Alcohol Disinfectant; kekangbei Instant hand Sanitizer; kindred goods HAND SANITIZER FRESIA PETALS RAIN; kindred goods HAND SANITIZER ISLAND ORCHARD COCONUT; kindred goods HAND SANITIZER ORANGE BLOSSOM TEA; kindred goods HAND SANITIZER SEA SALT FIG; kleanYA Hand Sanitizer; kleanYA Hand Sanitizer Scented; knDR SANITIZER; laevia Hand Sanitizer; lilkoi Hand Sanitizer; livWell; livegreen ANTIBACTERIAL HAND SANITIZER DUO PEPPERMINT SCENTED ALOE SCENTED; livegreen HAND SANITIZER grapefruit infused with vitamin E and essential oils; livegreen Sugar Mint ANTIBACTERIAL HAND SANITIZER; luobenqing HAND SANITIZER; luoys Hand Sanitizer; m.meiday M.kill Hand Sanitizer; m.meiday M.kill Hand Sanitizer Gel; marry skin Hand Sanitizer; marry skin Hand Sanitizer gel; max2originale PROTECTIVE COATING SEALANT; maxill Kwiky ET Antiseptic Hand Sanitizer Gel; medifresh Antiseptic Hand and Skin Disinfectant Wet Wipes; mermaid squad Antibacterial Hand Sanitizer Strawberry cake scented; mermaid vibes Antibacterial Hand Sanitizer Blueberry shake scented; mermaid vibes Antibacterial Hand Sanitizer cotton candy scented; mermaid vibes Antibacterial Hand Sanitizer mint chocolate scented; merry skin Hand Sanitizer; mickey mouse HAND SANITIZER; minnie mouse HAND SANITIZER; missLife HAND SANITIZER Gel; my medic super Sanitizer with aloe vera; myabetic Alcohol Prep Pads; naturall MOISTURIZING hand sanitizer; new life Moisturizing Hand Sanitizer; oh Antibacterial Mandarine Olive; on Antibacterial; on-the-spot HAND SANITIZER Original; on-the-spot SCENTED HAND SANITIZER Citrus; on-the-spot SCENTED HAND SANITIZER Lavender; on-the-spot SCENTED HAND SANITIZER White Tea; oupai Alcohol wipes; palmpalm Hand Sanitizer; piperwaiHandSanitizerLemongrass; piperwaiHandSanitizerminty; pocket.watch Ryans World Fresh Scented Hand Sanitizer; puresan Hand Santizing Gel; r-zero ETHYL ALCOHOL ANTISEPTIC HAND SANITIZING Fragrance; r-zero ETHYL ALCOHOL ANTISEPTIC HAND SANITIZING Fragrance Free; rareESSENCE Hand Sanitizer; rareEssence Gel Well Hand Sanitizer; reBom Hand Sanitizer; rrub Rinse Free Hand Wash-alcohol version; rue21 BLACK Hand Sanitizer; rue21 BLUSH Hand Sanitizer; rue21 Hand sanitizer; rue21 ICON Hand Sanitizer; rue21 Pink ICE Hand Sanitizer; rue21 RED Hand Sanitizer; secret plus Hand Sanitizer 01; simple pleasures ANTIBACTERIAL HAND SANITIZER; simplepleasures SCENTED ANTI BACTERIAL HAND SANITIZER; skin protectant Aloe Vera; skin protectant Lavender; skin protectant Original; skin protectant Sweet Pea; star wars HAND SANITIZER; symmetry Foaming Hand Sanitizer Fragrance Free with Aloe and Vitamin E; symmetry Foaming Hand Sanitizer with Aloe and Vitamin E; symmetry Hand Sanitizer with Aloe and Vitamin E; the SAEM Clean Everyday Hand Sanitizer gel; the keeps 70 ETHANOL; the pastel shop Aloe Vera Hand Sanitizer gel; the pastel shop Lemon Fresh Hand Sanitizer gel; the pastel shop Natural Clean Hand Sanitizer gel; the pastel shop Orange Kiss Hand Sanitizer gel; uBloom Safe Sanitizer Plus Gel; uBloom Safe Sanitizer Plus Mist; watson Hand sanitizer aloe; whole health Hand Sanitizers 3-pack; xfinity ALCOHOL WIPES; yeQuick-dry Hand Disinfection Solution; yixinsunlin Instant Hand Sanitizer; you are The Best Hand Sanitizer; you got this Hand Sanitizer

> <INTERNATIONAL_BRANDS>
Dehydrated ethanol

$$$$
