
  Mrv0541 02231217072D          

  8  7  0  0  1  0            999 V2000
    1.2375    2.1434    0.0000 C   0  0  0  0  0  0  0  0  0  0  0  0
    0.8250    1.4289    0.0000 C   0  0  1  0  0  0  0  0  0  0  0  0
    0.0000    1.4289    0.0000 O   0  0  0  0  0  0  0  0  0  0  0  0
    1.2375    0.7145    0.0000 C   0  0  1  0  0  0  0  0  0  0  0  0
    2.0625    0.7145    0.0000 N   0  0  0  0  0  0  0  0  0  0  0  0
    0.8250    0.0000    0.0000 C   0  0  0  0  0  0  0  0  0  0  0  0
    1.2375   -0.7145    0.0000 O   0  0  0  0  0  0  0  0  0  0  0  0
    0.0000    0.0000    0.0000 O   0  0  0  0  0  0  0  0  0  0  0  0
  1  2  1  0  0  0  0
  2  3  1  6  0  0  0
  2  4  1  0  0  0  0
  4  5  1  1  0  0  0
  4  6  1  0  0  0  0
  6  7  1  0  0  0  0
  6  8  2  0  0  0  0
M  END
> <DATABASE_ID>
DB03700

> <DATABASE_NAME>
drugbank

> <SMILES>
C[C@@H](O)[C@@H](N)C(O)=O

> <INCHI_IDENTIFIER>
InChI=1S/C4H9NO3/c1-2(6)3(5)4(7)8/h2-3,6H,5H2,1H3,(H,7,8)/t2-,3-/m1/s1

> <INCHI_KEY>
AYFVYJQAPQTCCC-PWNYCUMCSA-N

> <FORMULA>
C4H9NO3

> <MOLECULAR_WEIGHT>
119.1192

> <EXACT_MASS>
119.058243159

> <JCHEM_ACCEPTOR_COUNT>
4

> <JCHEM_ATOM_COUNT>
17

> <JCHEM_AVERAGE_NEUTRAL_MICROSPECIES_CHARGE>
-0.009828639137665962

> <JCHEM_AVERAGE_POLARIZABILITY>
11.1293921820605

> <JCHEM_BIOAVAILABILITY>
1

> <JCHEM_DONOR_COUNT>
3

> <JCHEM_FORMAL_CHARGE>
0

> <JCHEM_GHOSE_FILTER>
0

> <JCHEM_IUPAC>
(2R,3R)-2-amino-3-hydroxybutanoic acid

> <ALOGPS_LOGP>
-3.01

> <JCHEM_LOGP>
-3.4709635238772347

> <ALOGPS_LOGS>
0.60

> <JCHEM_MDDR_LIKE_RULE>
0

> <JCHEM_NEUTRAL_CHARGE>
0

> <JCHEM_NUMBER_OF_RINGS>
0

> <JCHEM_PHYSIOLOGICAL_CHARGE>
0

> <JCHEM_PKA>
14.95336930566473

> <JCHEM_PKA_STRONGEST_ACIDIC>
2.207432028688764

> <JCHEM_PKA_STRONGEST_BASIC>
9.002504827404067

> <JCHEM_POLAR_SURFACE_AREA>
83.55000000000001

> <JCHEM_REFRACTIVITY>
26.4598

> <JCHEM_ROTATABLE_BOND_COUNT>
2

> <JCHEM_RULE_OF_FIVE>
1

> <ALOGPS_SOLUBILITY>
4.77e+02 g/l

> <JCHEM_TRADITIONAL_IUPAC>
biotin

> <JCHEM_VEBER_RULE>
0

> <DRUGBANK_ID>
DB03700

> <SECONDARY_ACCESSION_NUMBERS>
EXPT01284

> <DRUG_GROUPS>
experimental

> <GENERIC_NAME>
D-Threonine

$$$$
