
  Mrv0541 02231217312D          

  6  5  0  0  0  0            999 V2000
    0.8250    1.4289    0.0000 C   0  0  0  0  0  0  0  0  0  0  0  0
    1.2375    0.7145    0.0000 C   0  0  0  0  0  0  0  0  0  0  0  0
    2.0625    0.7145    0.0000 N   0  3  0  0  0  0  0  0  0  0  0  0
    0.8250    0.0000    0.0000 C   0  0  0  0  0  0  0  0  0  0  0  0
    1.2375   -0.7145    0.0000 O   0  5  0  0  0  0  0  0  0  0  0  0
    0.0000    0.0000    0.0000 O   0  0  0  0  0  0  0  0  0  0  0  0
  1  2  1  0  0  0  0
  2  3  2  0  0  0  0
  2  4  1  0  0  0  0
  4  5  1  0  0  0  0
  4  6  2  0  0  0  0
M  CHG  2   3   1   5  -1
M  END
> <DATABASE_ID>
DB04212

> <DATABASE_NAME>
drugbank

> <SMILES>
CC(=[NH2+])C([O-])=O

> <INCHI_IDENTIFIER>
InChI=1S/C3H5NO2/c1-2(4)3(5)6/h4H,1H3,(H,5,6)

> <INCHI_KEY>
DUAWRLXHCUAWMK-UHFFFAOYSA-N

> <FORMULA>
C3H5NO2

> <MOLECULAR_WEIGHT>
87.0773

> <EXACT_MASS>
87.032028409

> <JCHEM_ACCEPTOR_COUNT>
2

> <JCHEM_ATOM_COUNT>
11

> <JCHEM_AVERAGE_NEUTRAL_MICROSPECIES_CHARGE>
-0.014952935132714118

> <JCHEM_AVERAGE_POLARIZABILITY>
7.732755069686247

> <JCHEM_BIOAVAILABILITY>
1

> <JCHEM_DONOR_COUNT>
1

> <JCHEM_FORMAL_CHARGE>
0

> <JCHEM_GHOSE_FILTER>
0

> <JCHEM_IUPAC>
2-iminiumylpropanoate

> <ALOGPS_LOGP>
-1.08

> <JCHEM_LOGP>
-0.4257795278203597

> <ALOGPS_LOGS>
-0.23

> <JCHEM_MDDR_LIKE_RULE>
0

> <JCHEM_NEUTRAL_CHARGE>
0

> <JCHEM_NUMBER_OF_RINGS>
0

> <JCHEM_PHYSIOLOGICAL_CHARGE>
0

> <JCHEM_PKA_STRONGEST_ACIDIC>
4.104588897363807

> <JCHEM_PKA_STRONGEST_BASIC>
3.3211331397502986

> <JCHEM_POLAR_SURFACE_AREA>
65.72

> <JCHEM_REFRACTIVITY>
42.098800000000004

> <JCHEM_ROTATABLE_BOND_COUNT>
1

> <JCHEM_RULE_OF_FIVE>
1

> <ALOGPS_SOLUBILITY>
8.35e+01 g/l

> <JCHEM_TRADITIONAL_IUPAC>
tetrahydrofolic acid

> <JCHEM_VEBER_RULE>
0

> <DRUGBANK_ID>
DB04212

> <SECONDARY_ACCESSION_NUMBERS>
EXPT02290

> <DRUG_GROUPS>
experimental

> <GENERIC_NAME>
2-Iminiopropanoate

$$$$
