
  Mrv0541 09131211522D          

 16 17  0  0  0  0            999 V2000
    1.4289    2.4750    0.0000 C   0  0  0  0  0  0  0  0  0  0  0  0
    2.1434    2.0625    0.0000 C   0  0  0  0  0  0  0  0  0  0  0  0
    6.4302    1.2375    0.0000 C   0  0  0  0  0  0  0  0  0  0  0  0
    6.4302    2.0625    0.0000 C   0  0  0  0  0  0  0  0  0  0  0  0
    5.7158    0.8250    0.0000 C   0  0  0  0  0  0  0  0  0  0  0  0
    3.1599   -0.0320    0.0000 C   0  0  0  0  0  0  0  0  0  0  0  0
    3.9849   -0.0320    0.0000 C   0  0  0  0  0  0  0  0  0  0  0  0
    2.8579    2.4750    0.0000 C   0  0  0  0  0  0  0  0  0  0  0  0
    5.7158    2.4750    0.0000 C   0  0  0  0  0  0  0  0  0  0  0  0
    5.0013    1.2375    0.0000 C   0  0  0  0  0  0  0  0  0  0  0  0
    2.9049    0.7526    0.0000 C   0  0  0  0  0  0  0  0  0  0  0  0
    4.2398    0.7526    0.0000 C   0  0  0  0  0  0  0  0  0  0  0  0
    4.2868    2.4750    0.0000 C   0  0  0  0  0  0  0  0  0  0  0  0
    5.0013    2.0625    0.0000 C   0  0  0  0  0  0  0  0  0  0  0  0
    3.5724    2.0625    0.0000 C   0  0  0  0  0  0  0  0  0  0  0  0
    3.5724    1.2375    0.0000 N   0  0  0  0  0  0  0  0  0  0  0  0
  2  1  1  0  0  0  0
  4  3  2  0  0  0  0
  5  3  1  0  0  0  0
  7  6  1  0  0  0  0
  8  2  1  0  0  0  0
  9  4  1  0  0  0  0
 10  5  2  0  0  0  0
 11  6  1  0  0  0  0
 12  7  1  0  0  0  0
 14  9  2  0  0  0  0
 14 10  1  0  0  0  0
 14 13  1  0  0  0  0
 15  8  1  0  0  0  0
 15 13  1  0  0  0  0
 16 11  1  0  0  0  0
 16 12  1  0  0  0  0
 16 15  1  0  0  0  0
M  END
> <DATABASE_ID>
DB13438

> <DATABASE_NAME>
drugbank

> <SMILES>
CCCC(CC1=CC=CC=C1)N1CCCC1

> <INCHI_IDENTIFIER>
InChI=1S/C15H23N/c1-2-8-15(16-11-6-7-12-16)13-14-9-4-3-5-10-14/h3-5,9-10,15H,2,6-8,11-13H2,1H3

> <INCHI_KEY>
OJCPSBCUMRIPFL-UHFFFAOYSA-N

> <FORMULA>
C15H23N

> <MOLECULAR_WEIGHT>
217.3498

> <EXACT_MASS>
217.183049741

> <JCHEM_ACCEPTOR_COUNT>
1

> <JCHEM_ATOM_COUNT>
39

> <JCHEM_AVERAGE_NEUTRAL_MICROSPECIES_CHARGE>
0.9996516529265183

> <JCHEM_AVERAGE_POLARIZABILITY>
26.810845505442252

> <JCHEM_BIOAVAILABILITY>
1

> <JCHEM_DONOR_COUNT>
0

> <JCHEM_FORMAL_CHARGE>
0

> <JCHEM_GHOSE_FILTER>
1

> <JCHEM_IUPAC>
1-(1-phenylpentan-2-yl)pyrrolidine

> <ALOGPS_LOGP>
4.39

> <JCHEM_LOGP>
3.9927673393333336

> <ALOGPS_LOGS>
-3.97

> <JCHEM_MDDR_LIKE_RULE>
0

> <JCHEM_NEUTRAL_CHARGE>
1

> <JCHEM_NUMBER_OF_RINGS>
2

> <JCHEM_PHYSIOLOGICAL_CHARGE>
1

> <JCHEM_PKA_STRONGEST_BASIC>
10.45783652212213

> <JCHEM_POLAR_SURFACE_AREA>
3.24

> <JCHEM_REFRACTIVITY>
70.44050000000001

> <JCHEM_ROTATABLE_BOND_COUNT>
5

> <JCHEM_RULE_OF_FIVE>
1

> <ALOGPS_SOLUBILITY>
2.33e-02 g/l

> <JCHEM_TRADITIONAL_IUPAC>
tetrahydrofolic acid

> <JCHEM_VEBER_RULE>
1

> <DRUGBANK_ID>
DB13438

> <DRUG_GROUPS>
experimental

> <GENERIC_NAME>
Prolintane

> <SYNONYMS>
Prolintane

$$$$
