
  Mrv0541 05041402382D          

 31 32  0  0  1  0            999 V2000
   -1.4289   -1.6500    0.0000 C   0  0  0  0  0  0  0  0  0  0  0  0
   -0.7145   -0.4125    0.0000 C   0  0  0  0  0  0  0  0  0  0  0  0
    0.7145   -1.2375    0.0000 C   0  0  0  0  0  0  0  0  0  0  0  0
   -0.7145   -1.2375    0.0000 C   0  0  1  0  0  0  0  0  0  0  0  0
   -1.4289   -2.4750    0.0000 C   0  0  1  0  0  0  0  0  0  0  0  0
    1.4289   -1.6500    0.0000 C   0  0  2  0  0  0  0  0  0  0  0  0
   -0.7145   -2.8875    0.0000 C   0  0  2  0  0  0  0  0  0  0  0  0
    2.1434   -2.8875    0.0000 C   0  0  2  0  0  0  0  0  0  0  0  0
    2.8579   -2.4750    0.0000 C   0  0  2  0  0  0  0  0  0  0  0  0
    1.4289   -2.4750    0.0000 C   0  0  2  0  0  0  0  0  0  0  0  0
    2.8579   -1.6500    0.0000 C   0  0  2  0  0  0  0  0  0  0  0  0
    0.0000   -2.4750    0.0000 C   0  0  1  0  0  0  0  0  0  0  0  0
   -1.4289   -0.0000    0.0000 O   0  0  0  0  0  0  0  0  0  0  0  0
    0.7145   -0.4125    0.0000 O   0  0  0  0  0  0  0  0  0  0  0  0
   -2.1434   -2.8875    0.0000 O   0  0  0  0  0  0  0  0  0  0  0  0
   -0.7145   -3.7125    0.0000 O   0  0  0  0  0  0  0  0  0  0  0  0
    2.1434   -3.7125    0.0000 O   0  0  0  0  0  0  0  0  0  0  0  0
    3.5724   -2.8875    0.0000 O   0  0  0  0  0  0  0  0  0  0  0  0
    3.5724   -1.2375    0.0000 O   0  0  0  0  0  0  0  0  0  0  0  0
    0.0000   -1.6500    0.0000 O   0  0  0  0  0  0  0  0  0  0  0  0
    2.1434   -1.2375    0.0000 O   0  0  0  0  0  0  0  0  0  0  0  0
    0.7145   -2.8875    0.0000 O   0  0  0  0  0  0  0  0  0  0  0  0
   -1.4289   -0.8250    0.0000 H   0  0  0  0  0  0  0  0  0  0  0  0
   -2.1434   -2.0625    0.0000 H   0  0  0  0  0  0  0  0  0  0  0  0
    0.8986   -2.2820    0.0000 H   0  0  0  0  0  0  0  0  0  0  0  0
   -1.4289   -3.3000    0.0000 H   0  0  0  0  0  0  0  0  0  0  0  0
    2.9559   -3.0308    0.0000 H   0  0  0  0  0  0  0  0  0  0  0  0
    3.1401   -3.2502    0.0000 H   0  0  0  0  0  0  0  0  0  0  0  0
    0.6165   -2.3317    0.0000 H   0  0  0  0  0  0  0  0  0  0  0  0
    3.5724   -2.0625    0.0000 H   0  0  0  0  0  0  0  0  0  0  0  0
    0.0000   -3.3000    0.0000 H   0  0  0  0  0  0  0  0  0  0  0  0
  4  1  1  0  0  0  0
  4  2  1  1  0  0  0
  5  1  1  0  0  0  0
  6  3  1  1  0  0  0
  7  5  1  0  0  0  0
  9  8  1  0  0  0  0
 10  6  1  0  0  0  0
 10  8  1  0  0  0  0
 11  9  1  0  0  0  0
 12  7  1  0  0  0  0
 13  2  1  0  0  0  0
 14  3  1  0  0  0  0
  5 15  1  1  0  0  0
  7 16  1  6  0  0  0
  8 17  1  1  0  0  0
  9 18  1  6  0  0  0
 11 19  1  1  0  0  0
 20  4  1  0  0  0  0
 20 12  1  0  0  0  0
 21  6  1  0  0  0  0
 21 11  1  0  0  0  0
 10 22  1  6  0  0  0
 12 22  1  1  0  0  0
  4 23  1  6  0  0  0
  5 24  1  6  0  0  0
  6 25  1  6  0  0  0
  7 26  1  1  0  0  0
  8 27  1  6  0  0  0
  9 28  1  1  0  0  0
 10 29  1  1  0  0  0
 11 30  1  6  0  0  0
 12 31  1  6  0  0  0
M  END
> <DATABASE_ID>
DB02065

> <DATABASE_NAME>
drugbank

> <SMILES>
[H][C@@]1(CO)C[C@]([H])(O)[C@@]([H])(O)[C@]([H])(O[C@]2([H])[C@@]([H])(CO)O[C@@]([H])(O)[C@]([H])(O)[C@@]2([H])O)O1

> <INCHI_IDENTIFIER>
InChI=1S/C12H22O10/c13-2-4-1-5(15)7(16)12(20-4)22-10-6(3-14)21-11(19)9(18)8(10)17/h4-19H,1-3H2/t4-,5-,6+,7+,8+,9+,10+,11+,12-/m0/s1

> <INCHI_KEY>
DSYGIMVFFQCOQZ-KYYLAPRMSA-N

> <FORMULA>
C12H22O10

> <MOLECULAR_WEIGHT>
326.2971

> <EXACT_MASS>
326.121296924

> <JCHEM_ACCEPTOR_COUNT>
10

> <JCHEM_ATOM_COUNT>
44

> <JCHEM_AVERAGE_NEUTRAL_MICROSPECIES_CHARGE>
-5.948438620742222e-05

> <JCHEM_AVERAGE_POLARIZABILITY>
30.620934877506063

> <JCHEM_BIOAVAILABILITY>
1

> <JCHEM_DONOR_COUNT>
7

> <JCHEM_FORMAL_CHARGE>
0

> <JCHEM_GHOSE_FILTER>
0

> <JCHEM_IUPAC>
(2R,3R,4R,5S,6R)-5-{[(2S,3R,4S,6S)-3,4-dihydroxy-6-(hydroxymethyl)oxan-2-yl]oxy}-6-(hydroxymethyl)oxane-2,3,4-triol

> <ALOGPS_LOGP>
-3.15

> <JCHEM_LOGP>
-4.013080182666667

> <ALOGPS_LOGS>
0.23

> <JCHEM_MDDR_LIKE_RULE>
0

> <JCHEM_NEUTRAL_CHARGE>
0

> <JCHEM_NUMBER_OF_RINGS>
2

> <JCHEM_PHYSIOLOGICAL_CHARGE>
0

> <JCHEM_PKA>
12.33822538994686

> <JCHEM_PKA_STRONGEST_ACIDIC>
11.274626301008182

> <JCHEM_PKA_STRONGEST_BASIC>
-2.9445995033515695

> <JCHEM_POLAR_SURFACE_AREA>
169.29999999999998

> <JCHEM_REFRACTIVITY>
67.2396

> <JCHEM_ROTATABLE_BOND_COUNT>
4

> <JCHEM_RULE_OF_FIVE>
0

> <ALOGPS_SOLUBILITY>
5.50e+02 g/l

> <JCHEM_TRADITIONAL_IUPAC>
tetrahydrofolic acid

> <JCHEM_VEBER_RULE>
0

> <DRUGBANK_ID>
DB02065

> <SECONDARY_ACCESSION_NUMBERS>
EXPT01157

> <DRUG_GROUPS>
experimental

> <GENERIC_NAME>
4-Deoxylactose

$$$$
