
  Mrv0541 05041400512D          

 11 11  0  0  1  0            999 V2000
   -0.8843    0.8843    0.0000 C   0  0  0  0  0  0  0  0  0  0  0  0
    0.1553   -0.1553    0.0000 C   0  0  0  0  0  0  0  0  0  0  0  0
    0.9803   -0.1553    0.0000 C   0  0  0  0  0  0  0  0  0  0  0  0
   -0.0997    0.6294    0.0000 C   0  0  2  0  0  0  0  0  0  0  0  0
    0.5678    1.1143    0.0000 C   0  0  2  0  0  0  0  0  0  0  0  0
    0.5678    1.9393    0.0000 C   0  0  0  0  0  0  0  0  0  0  0  0
    1.2352    0.6294    0.0000 N   0  0  0  0  0  0  0  0  0  0  0  0
   -0.1467    2.3518    0.0000 O   0  0  0  0  0  0  0  0  0  0  0  0
    1.2822    2.3518    0.0000 O   0  0  0  0  0  0  0  0  0  0  0  0
   -0.6830    0.0460    0.0000 H   0  0  0  0  0  0  0  0  0  0  0  0
   -0.1673    1.4888    0.0000 H   0  0  0  0  0  0  0  0  0  0  0  0
  3  2  2  0  0  0  0
  4  1  1  1  0  0  0
  4  2  1  0  0  0  0
  5  4  1  0  0  0  0
  5  6  1  6  0  0  0
  7  3  1  0  0  0  0
  7  5  1  0  0  0  0
  8  6  2  0  0  0  0
  9  6  1  0  0  0  0
  4 10  1  6  0  0  0
  5 11  1  1  0  0  0
M  END
> <DATABASE_ID>
DB03930

> <DATABASE_NAME>
drugbank

> <SMILES>
[H][C@@]1(C)C=CN[C@@]1([H])C(O)=O

> <INCHI_IDENTIFIER>
InChI=1S/C6H9NO2/c1-4-2-3-7-5(4)6(8)9/h2-5,7H,1H3,(H,8,9)/t4-,5-/m1/s1

> <INCHI_KEY>
ZVJPMCWYCLEWPG-RFZPGFLSSA-N

> <FORMULA>
C6H9NO2

> <MOLECULAR_WEIGHT>
127.1412

> <EXACT_MASS>
127.063328537

> <JCHEM_ACCEPTOR_COUNT>
3

> <JCHEM_ATOM_COUNT>
18

> <JCHEM_AVERAGE_NEUTRAL_MICROSPECIES_CHARGE>
-0.0004572805564840854

> <JCHEM_AVERAGE_POLARIZABILITY>
12.63534408597901

> <JCHEM_BIOAVAILABILITY>
1

> <JCHEM_DONOR_COUNT>
2

> <JCHEM_FORMAL_CHARGE>
0

> <JCHEM_GHOSE_FILTER>
0

> <JCHEM_IUPAC>
(2R,3R)-3-methyl-2,3-dihydro-1H-pyrrole-2-carboxylic acid

> <ALOGPS_LOGP>
-0.09

> <JCHEM_LOGP>
-2.1915792401064933

> <ALOGPS_LOGS>
0.02

> <JCHEM_MDDR_LIKE_RULE>
0

> <JCHEM_NEUTRAL_CHARGE>
0

> <JCHEM_NUMBER_OF_RINGS>
1

> <JCHEM_PHYSIOLOGICAL_CHARGE>
0

> <JCHEM_PKA_STRONGEST_ACIDIC>
1.7952153323258122

> <JCHEM_PKA_STRONGEST_BASIC>
10.333729747511988

> <JCHEM_POLAR_SURFACE_AREA>
49.33

> <JCHEM_REFRACTIVITY>
32.629000000000005

> <JCHEM_ROTATABLE_BOND_COUNT>
1

> <JCHEM_RULE_OF_FIVE>
1

> <ALOGPS_SOLUBILITY>
1.32e+02 g/l

> <JCHEM_TRADITIONAL_IUPAC>
tetrahydrofolic acid

> <JCHEM_VEBER_RULE>
0

> <DRUGBANK_ID>
DB03930

> <SECONDARY_ACCESSION_NUMBERS>
EXPT00689

> <DRUG_GROUPS>
experimental

> <GENERIC_NAME>
4-Methyl-Pyrroline-5-Carboxylic Acid

$$$$
