
  Mrv0541 02231215572D          

  7  7  0  0  0  0            999 V2000
   -0.3938    1.4191    0.0000 N   0  0  0  0  0  0  0  0  0  0  0  0
    0.2382    0.8888    0.0000 C   0  0  0  0  0  0  0  0  0  0  0  0
    0.6507    0.1743    0.0000 C   0  0  0  0  0  0  0  0  0  0  0  0
   -0.1743    0.1743    0.0000 C   0  0  0  0  0  0  0  0  0  0  0  0
    0.8701    1.4191    0.0000 C   0  0  0  0  0  0  0  0  0  0  0  0
    0.7269    2.2316    0.0000 O   0  0  0  0  0  0  0  0  0  0  0  0
    1.6454    1.1369    0.0000 O   0  0  0  0  0  0  0  0  0  0  0  0
  1  2  1  0  0  0  0
  2  3  1  0  0  0  0
  3  4  1  0  0  0  0
  2  4  1  0  0  0  0
  2  5  1  0  0  0  0
  5  6  1  0  0  0  0
  5  7  2  0  0  0  0
M  END
> <DATABASE_ID>
DB02085

> <DATABASE_NAME>
drugbank

> <SMILES>
NC1(CC1)C(O)=O

> <INCHI_IDENTIFIER>
InChI=1S/C4H7NO2/c5-4(1-2-4)3(6)7/h1-2,5H2,(H,6,7)

> <INCHI_KEY>
PAJPWUMXBYXFCZ-UHFFFAOYSA-N

> <FORMULA>
C4H7NO2

> <MOLECULAR_WEIGHT>
101.1039

> <EXACT_MASS>
101.047678473

> <JCHEM_ACCEPTOR_COUNT>
3

> <JCHEM_ATOM_COUNT>
14

> <JCHEM_AVERAGE_NEUTRAL_MICROSPECIES_CHARGE>
-0.004394199589594638

> <JCHEM_AVERAGE_POLARIZABILITY>
9.602440017818388

> <JCHEM_BIOAVAILABILITY>
1

> <JCHEM_DONOR_COUNT>
2

> <JCHEM_FORMAL_CHARGE>
0

> <JCHEM_GHOSE_FILTER>
0

> <JCHEM_IUPAC>
1-aminocyclopropane-1-carboxylic acid

> <ALOGPS_LOGP>
-3.05

> <JCHEM_LOGP>
-2.716070759147052

> <ALOGPS_LOGS>
0.64

> <JCHEM_MDDR_LIKE_RULE>
0

> <JCHEM_NEUTRAL_CHARGE>
0

> <JCHEM_NUMBER_OF_RINGS>
1

> <JCHEM_PHYSIOLOGICAL_CHARGE>
0

> <JCHEM_PKA_STRONGEST_ACIDIC>
2.200941517399801

> <JCHEM_PKA_STRONGEST_BASIC>
9.353636601438382

> <JCHEM_POLAR_SURFACE_AREA>
63.32

> <JCHEM_REFRACTIVITY>
23.2544

> <JCHEM_ROTATABLE_BOND_COUNT>
1

> <JCHEM_RULE_OF_FIVE>
1

> <ALOGPS_SOLUBILITY>
4.37e+02 g/l

> <JCHEM_TRADITIONAL_IUPAC>
biotin

> <JCHEM_VEBER_RULE>
0

> <DRUGBANK_ID>
DB02085

> <SECONDARY_ACCESSION_NUMBERS>
EXPT00065

> <DRUG_GROUPS>
experimental

> <GENERIC_NAME>
1-Aminocyclopropanecarboxylic Acid

$$$$
