
  Mrv0541 09131211482D          

 27 30  0  0  0  0            999 V2000
    1.2751   -1.1393    0.0000 C   0  0  0  0  0  0  0  0  0  0  0  0
    4.3228   -0.9107    0.0000 C   0  0  0  0  0  0  0  0  0  0  0  0
    1.8069   -0.5086    0.0000 C   0  0  0  0  0  0  0  0  0  0  0  0
    1.7781    1.6739    0.0000 C   0  0  0  0  0  0  0  0  0  0  0  0
    2.5902    1.5287    0.0000 C   0  0  0  0  0  0  0  0  0  0  0  0
    4.3340    1.1139    0.0000 C   0  0  0  0  0  0  0  0  0  0  0  0
    5.0168    0.6509    0.0000 C   0  0  0  0  0  0  0  0  0  0  0  0
    2.6190   -0.6539    0.0000 C   0  0  0  0  0  0  0  0  0  0  0  0
    3.4311   -0.7991    0.0000 C   0  0  0  0  0  0  0  0  0  0  0  0
    0.1827   -0.2182    0.0000 C   0  0  0  0  0  0  0  0  0  0  0  0
    0.4342    1.1884    0.0000 C   0  0  0  0  0  0  0  0  0  0  0  0
    0.9948   -0.3634    0.0000 C   0  0  0  0  0  0  0  0  0  0  0  0
    1.2463    1.0432    0.0000 C   0  0  1  0  0  0  0  0  0  0  0  0
   -0.0976    0.5577    0.0000 C   0  0  0  0  0  0  0  0  0  0  0  0
    2.8705    0.7528    0.0000 C   0  0  1  0  0  0  0  0  0  0  0  0
    3.6826    0.6076    0.0000 C   0  0  1  0  0  0  0  0  0  0  0  0
    2.3387    0.1221    0.0000 C   0  0  1  0  0  0  0  0  0  0  0  0
    4.7875   -0.1416    0.0000 C   0  0  1  0  0  0  0  0  0  0  0  0
    3.9629   -0.1684    0.0000 C   0  0  2  0  0  0  0  0  0  0  0  0
    1.5266    0.2673    0.0000 C   0  0  2  0  0  0  0  0  0  0  0  0
   -0.9098    0.7029    0.0000 O   0  0  0  0  0  0  0  0  0  0  0  0
    5.2939   -0.7929    0.0000 O   0  0  0  0  0  0  0  0  0  0  0  0
    0.9660    1.8191    0.0000 H   0  0  0  0  0  0  0  0  0  0  0  0
    3.1546    1.5273    0.0000 H   0  0  0  0  0  0  0  0  0  0  0  0
    3.7709    1.4278    0.0000 H   0  0  0  0  0  0  0  0  0  0  0  0
    2.0547   -0.6525    0.0000 H   0  0  0  0  0  0  0  0  0  0  0  0
    5.5977    0.0139    0.0000 H   0  0  0  0  0  0  0  0  0  0  0  0
  5  4  1  0  0  0  0
  7  6  1  0  0  0  0
  9  8  1  0  0  0  0
 12  1  1  0  0  0  0
 12 10  2  0  0  0  0
 13  4  1  0  0  0  0
 13 11  1  0  0  0  0
 14 10  1  0  0  0  0
 14 11  1  0  0  0  0
 15  5  1  0  0  0  0
 16  6  1  0  0  0  0
 16 15  1  0  0  0  0
 17  8  1  0  0  0  0
 17 15  1  0  0  0  0
 18  7  1  0  0  0  0
 19  2  1  6  0  0  0
 19  9  1  0  0  0  0
 19 16  1  0  0  0  0
 19 18  1  0  0  0  0
 20  3  1  6  0  0  0
 20 12  1  0  0  0  0
 20 13  1  0  0  0  0
 20 17  1  0  0  0  0
 21 14  2  0  0  0  0
 18 22  1  6  0  0  0
 13 23  1  1  0  0  0
 15 24  1  6  0  0  0
 16 25  1  1  0  0  0
 17 26  1  1  0  0  0
 18 27  1  1  0  0  0
M  END
> <DATABASE_ID>
DB13710

> <DATABASE_NAME>
drugbank

> <SMILES>
[H][C@]1(O)CC[C@@]2([H])[C@]3([H])CC[C@@]4([H])CC(=O)C=C(C)[C@]4(C)[C@@]3([H])CC[C@]12C

> <INCHI_IDENTIFIER>
InChI=1S/C20H30O2/c1-12-10-14(21)11-13-4-5-15-16-6-7-18(22)19(16,2)9-8-17(15)20(12,13)3/h10,13,15-18,22H,4-9,11H2,1-3H3/t13-,15-,16-,17-,18-,19-,20-/m0/s1

> <INCHI_KEY>
ANJQEDFWRSLVBR-VHUDCFPWSA-N

> <FORMULA>
C20H30O2

> <MOLECULAR_WEIGHT>
302.451

> <EXACT_MASS>
302.224580204

> <JCHEM_ACCEPTOR_COUNT>
2

> <JCHEM_ATOM_COUNT>
52

> <JCHEM_AVERAGE_NEUTRAL_MICROSPECIES_CHARGE>
1.3063403170254324e-08

> <JCHEM_AVERAGE_POLARIZABILITY>
35.88060918364845

> <JCHEM_BIOAVAILABILITY>
1

> <JCHEM_DONOR_COUNT>
1

> <JCHEM_FORMAL_CHARGE>
0

> <JCHEM_GHOSE_FILTER>
1

> <JCHEM_IUPAC>
(1S,3aS,3bR,5aS,9aS,9bS,11aS)-1-hydroxy-9,9a,11a-trimethyl-1H,2H,3H,3aH,3bH,4H,5H,5aH,6H,7H,9aH,9bH,10H,11H,11aH-cyclopenta[a]phenanthren-7-one

> <ALOGPS_LOGP>
3.45

> <JCHEM_LOGP>
3.652442394000001

> <ALOGPS_LOGS>
-4.14

> <JCHEM_MDDR_LIKE_RULE>
0

> <JCHEM_NEUTRAL_CHARGE>
0

> <JCHEM_NUMBER_OF_RINGS>
4

> <JCHEM_PHYSIOLOGICAL_CHARGE>
0

> <JCHEM_PKA_STRONGEST_ACIDIC>
19.377705256743777

> <JCHEM_PKA_STRONGEST_BASIC>
-0.8839297228827189

> <JCHEM_POLAR_SURFACE_AREA>
37.3

> <JCHEM_REFRACTIVITY>
88.97839999999997

> <JCHEM_ROTATABLE_BOND_COUNT>
0

> <JCHEM_RULE_OF_FIVE>
1

> <ALOGPS_SOLUBILITY>
2.20e-02 g/l

> <JCHEM_TRADITIONAL_IUPAC>
biotin

> <JCHEM_VEBER_RULE>
1

> <DRUGBANK_ID>
DB13710

> <DRUG_GROUPS>
experimental

> <GENERIC_NAME>
Metenolone

> <SYNONYMS>
Metenolona; Metenolone; Methenolone

$$$$
