
  Mrv0541 02231216262D          

 13 15  0  0  0  0            999 V2000
   -1.5558    0.2567    0.0000 O   0  0  0  0  0  0  0  0  0  0  0  0
   -0.8411   -0.1554    0.0000 C   0  0  0  0  0  0  0  0  0  0  0  0
   -0.8411   -0.9804    0.0000 C   0  0  0  0  0  0  0  0  0  0  0  0
   -0.1286   -1.3929    0.0000 C   0  0  0  0  0  0  0  0  0  0  0  0
    0.5839   -0.9804    0.0000 C   0  0  0  0  0  0  0  0  0  0  0  0
    1.3018   -1.3929    0.0000 C   0  0  0  0  0  0  0  0  0  0  0  0
    2.0143   -0.9804    0.0000 C   0  0  0  0  0  0  0  0  0  0  0  0
    2.0143   -0.1554    0.0000 C   0  0  0  0  0  0  0  0  0  0  0  0
    1.3018    0.2571    0.0000 C   0  0  0  0  0  0  0  0  0  0  0  0
    0.5839   -0.1554    0.0000 C   0  0  0  0  0  0  0  0  0  0  0  0
   -0.1286    0.2571    0.0000 N   0  0  0  0  0  0  0  0  0  0  0  0
    0.1714    1.1143    0.0000 C   0  0  0  0  0  0  0  0  0  0  0  0
    0.9964    1.1143    0.0000 C   0  0  0  0  0  0  0  0  0  0  0  0
  1  2  2  0  0  0  0
  2  3  1  0  0  0  0
  3  4  1  0  0  0  0
  4  5  1  0  0  0  0
  5  6  2  0  0  0  0
  6  7  1  0  0  0  0
  7  8  2  0  0  0  0
  8  9  1  0  0  0  0
  9 10  2  0  0  0  0
  5 10  1  0  0  0  0
 10 11  1  0  0  0  0
  2 11  1  0  0  0  0
 11 12  1  0  0  0  0
 12 13  1  0  0  0  0
  9 13  1  0  0  0  0
M  END
> <DATABASE_ID>
DB02756

> <DATABASE_NAME>
drugbank

> <SMILES>
O=C1CCC2=CC=CC3=C2N1CC3

> <INCHI_IDENTIFIER>
InChI=1S/C11H11NO/c13-10-5-4-8-2-1-3-9-6-7-12(10)11(8)9/h1-3H,4-7H2

> <INCHI_KEY>
XRJLAOUDSILTFT-UHFFFAOYSA-N

> <FORMULA>
C11H11NO

> <MOLECULAR_WEIGHT>
173.2111

> <EXACT_MASS>
173.084063979

> <JCHEM_ACCEPTOR_COUNT>
1

> <JCHEM_ATOM_COUNT>
24

> <JCHEM_AVERAGE_NEUTRAL_MICROSPECIES_CHARGE>
3.187898361140198e-11

> <JCHEM_AVERAGE_POLARIZABILITY>
18.78977771088971

> <JCHEM_BIOAVAILABILITY>
1

> <JCHEM_DONOR_COUNT>
0

> <JCHEM_FORMAL_CHARGE>
0

> <JCHEM_GHOSE_FILTER>
1

> <JCHEM_IUPAC>
1-azatricyclo[6.3.1.0^{4,12}]dodeca-4(12),5,7-trien-11-one

> <ALOGPS_LOGP>
1.10

> <JCHEM_LOGP>
1.4205734269999997

> <ALOGPS_LOGS>
-1.19

> <JCHEM_MDDR_LIKE_RULE>
0

> <JCHEM_NEUTRAL_CHARGE>
0

> <JCHEM_NUMBER_OF_RINGS>
3

> <JCHEM_PHYSIOLOGICAL_CHARGE>
0

> <JCHEM_PKA_STRONGEST_BASIC>
-3.496495533529215

> <JCHEM_POLAR_SURFACE_AREA>
20.310000000000002

> <JCHEM_REFRACTIVITY>
50.61140000000001

> <JCHEM_ROTATABLE_BOND_COUNT>
0

> <JCHEM_RULE_OF_FIVE>
1

> <ALOGPS_SOLUBILITY>
1.13e+01 g/l

> <JCHEM_TRADITIONAL_IUPAC>
biotin

> <JCHEM_VEBER_RULE>
1

> <DRUGBANK_ID>
DB02756

> <SECONDARY_ACCESSION_NUMBERS>
EXPT02722

> <DRUG_GROUPS>
experimental

> <GENERIC_NAME>
Pyroquilon

> <SYNONYMS>
1,2,5,6-tetrahydropyrrolo[3,2,1-ij]quinolin-4-one

> <INTERNATIONAL_BRANDS>
Coratop; Fongoren; Fongorene; Lilolidone

$$$$
