
  Mrv0541 05041405452D          

 15 16  0  0  1  0            999 V2000
    3.3523    1.1104    0.0000 C   0  0  0  0  0  0  0  0  0  0  0  0
    3.3523    1.9354    0.0000 C   0  0  0  0  0  0  0  0  0  0  0  0
    2.6378    0.6979    0.0000 C   0  0  0  0  0  0  0  0  0  0  0  0
    2.6378    2.3479    0.0000 C   0  0  0  0  0  0  0  0  0  0  0  0
    1.1387    0.8555    0.0000 C   0  0  0  0  0  0  0  0  0  0  0  0
    1.1387    2.1904    0.0000 C   0  0  0  0  0  0  0  0  0  0  0  0
    1.9233    1.1104    0.0000 C   0  0  0  0  0  0  0  0  0  0  0  0
    1.9233    1.9354    0.0000 C   0  0  0  0  0  0  0  0  0  0  0  0
    0.6538    1.5229    0.0000 C   0  0  0  0  0  0  0  0  0  0  0  0
   -0.1712    1.5229    0.0000 C   0  0  2  0  0  0  0  0  0  0  0  0
   -0.5837    2.2374    0.0000 C   0  0  0  0  0  0  0  0  0  0  0  0
   -0.5837    0.8085    0.0000 N   0  0  0  0  0  0  0  0  0  0  0  0
   -1.4087    2.2374    0.0000 O   0  0  0  0  0  0  0  0  0  0  0  0
   -0.1712    2.9519    0.0000 O   0  0  0  0  0  0  0  0  0  0  0  0
    0.2413    2.2374    0.0000 H   0  0  0  0  0  0  0  0  0  0  0  0
  2  1  2  0  0  0  0
  3  1  1  0  0  0  0
  4  2  1  0  0  0  0
  7  3  2  0  0  0  0
  7  5  1  0  0  0  0
  8  4  2  0  0  0  0
  8  6  1  0  0  0  0
  8  7  1  0  0  0  0
  9  5  1  0  0  0  0
  9  6  1  0  0  0  0
 10  9  1  0  0  0  0
 11 10  1  0  0  0  0
 10 12  1  6  0  0  0
 13 11  2  0  0  0  0
 14 11  1  0  0  0  0
 10 15  1  6  0  0  0
M  END
> <DATABASE_ID>
DB04061

> <DATABASE_NAME>
drugbank

> <SMILES>
[H][C@@](N)(C1CC2=CC=CC=C2C1)C(O)=O

> <INCHI_IDENTIFIER>
InChI=1S/C11H13NO2/c12-10(11(13)14)9-5-7-3-1-2-4-8(7)6-9/h1-4,9-10H,5-6,12H2,(H,13,14)/t10-/m1/s1

> <INCHI_KEY>
GUDHMDVRURNAHL-SNVBAGLBSA-N

> <FORMULA>
C11H13NO2

> <MOLECULAR_WEIGHT>
191.2264

> <EXACT_MASS>
191.094628665

> <JCHEM_ACCEPTOR_COUNT>
3

> <JCHEM_ATOM_COUNT>
27

> <JCHEM_AVERAGE_NEUTRAL_MICROSPECIES_CHARGE>
-0.002700809568743079

> <JCHEM_AVERAGE_POLARIZABILITY>
20.517793078925116

> <JCHEM_BIOAVAILABILITY>
1

> <JCHEM_DONOR_COUNT>
2

> <JCHEM_FORMAL_CHARGE>
0

> <JCHEM_GHOSE_FILTER>
0

> <JCHEM_IUPAC>
(2R)-2-amino-2-(2,3-dihydro-1H-inden-2-yl)acetic acid

> <ALOGPS_LOGP>
-1.30

> <JCHEM_LOGP>
-0.770005301135446

> <ALOGPS_LOGS>
-2.00

> <JCHEM_MDDR_LIKE_RULE>
0

> <JCHEM_NEUTRAL_CHARGE>
0

> <JCHEM_NUMBER_OF_RINGS>
2

> <JCHEM_PHYSIOLOGICAL_CHARGE>
0

> <JCHEM_PKA_STRONGEST_ACIDIC>
2.3985710375166156

> <JCHEM_PKA_STRONGEST_BASIC>
9.56331610106402

> <JCHEM_POLAR_SURFACE_AREA>
63.32000000000001

> <JCHEM_REFRACTIVITY>
52.8269

> <JCHEM_ROTATABLE_BOND_COUNT>
2

> <JCHEM_RULE_OF_FIVE>
1

> <ALOGPS_SOLUBILITY>
1.90e+00 g/l

> <JCHEM_TRADITIONAL_IUPAC>
biotin

> <JCHEM_VEBER_RULE>
0

> <DRUGBANK_ID>
DB04061

> <SECONDARY_ACCESSION_NUMBERS>
EXPT01849

> <DRUG_GROUPS>
experimental

> <GENERIC_NAME>
Alpha-Amino-2-Indanacetic Acid

$$$$
