
  Mrv0541 02241220172D          

  2  0  0  0  0  0            999 V2000
    0.0000  -68.9429    0.0000 Na  0  3  0  0  0  0  0  0  0  0  0  0
    0.0000   68.9429    0.0000 O   0  5  0  0  0  0  0  0  0  0  0  0
M  CHG  2   1   1   2  -1
M  END
> <DATABASE_ID>
DB11151

> <DATABASE_NAME>
drugbank

> <SMILES>
[OH-].[Na+]

> <INCHI_IDENTIFIER>
InChI=1S/Na.H2O/h;1H2/q+1;/p-1

> <INCHI_KEY>
HEMHJVSKTPXQMS-UHFFFAOYSA-M

> <FORMULA>
HNaO

> <MOLECULAR_WEIGHT>
39.9971

> <EXACT_MASS>
39.992509329

> <JCHEM_ACCEPTOR_COUNT>
0

> <JCHEM_ATOM_COUNT>
3

> <JCHEM_AVERAGE_NEUTRAL_MICROSPECIES_CHARGE>
1.0

> <JCHEM_AVERAGE_POLARIZABILITY>
1.7784

> <JCHEM_BIOAVAILABILITY>
1

> <JCHEM_DONOR_COUNT>
0

> <JCHEM_FORMAL_CHARGE>
0

> <JCHEM_GHOSE_FILTER>
0

> <JCHEM_IUPAC>
sodium hydroxide

> <JCHEM_LOGP>
-0.77

> <JCHEM_MDDR_LIKE_RULE>
0

> <JCHEM_NEUTRAL_CHARGE>
1

> <JCHEM_NUMBER_OF_RINGS>
0

> <JCHEM_PHYSIOLOGICAL_CHARGE>
1

> <JCHEM_PKA>
3.55

> <JCHEM_PKA_STRONGEST_ACIDIC>
3.09

> <JCHEM_POLAR_SURFACE_AREA>
0.0

> <JCHEM_REFRACTIVITY>
0.0

> <JCHEM_ROTATABLE_BOND_COUNT>
0

> <JCHEM_RULE_OF_FIVE>
1

> <JCHEM_TRADITIONAL_IUPAC>
tetrahydrofolic acid

> <JCHEM_VEBER_RULE>
1

> <DRUGBANK_ID>
DB11151

> <DRUG_GROUPS>
approved

> <GENERIC_NAME>
Sodium hydroxide

> <SYNONYMS>
caustic soda; lye; soda lye; sodio hidrÃ³xido; sodium hydrate; Sodium hydroxide; white caustic

> <PRODUCTS>
Antibacterial Hand Sanitizer; Sodium Hydroxide; Vamin N

$$$$
