
  Mrv0541 02231216182D          

 11 11  0  0  0  0            999 V2000
    1.4289   -1.6500    0.0000 N   0  0  0  0  0  0  0  0  0  0  0  0
    0.7145   -1.2375    0.0000 C   0  0  0  0  0  0  0  0  0  0  0  0
    0.0000   -1.6500    0.0000 N   0  0  0  0  0  0  0  0  0  0  0  0
    0.7145   -0.4125    0.0000 C   0  0  0  0  0  0  0  0  0  0  0  0
    0.0000    0.0000    0.0000 C   0  0  0  0  0  0  0  0  0  0  0  0
    0.0000    0.8250    0.0000 C   0  0  0  0  0  0  0  0  0  0  0  0
    0.7145    1.2375    0.0000 C   0  0  0  0  0  0  0  0  0  0  0  0
    0.7145    2.0625    0.0000 C   0  0  0  0  0  0  0  0  0  0  0  0
    0.0000    2.4750    0.0000 O   0  0  0  0  0  0  0  0  0  0  0  0
    1.4289    0.8250    0.0000 C   0  0  0  0  0  0  0  0  0  0  0  0
    1.4289    0.0000    0.0000 C   0  0  0  0  0  0  0  0  0  0  0  0
  1  2  1  0  0  0  0
  2  3  2  0  0  0  0
  2  4  1  0  0  0  0
  4  5  2  0  0  0  0
  5  6  1  0  0  0  0
  6  7  2  0  0  0  0
  7  8  1  0  0  0  0
  8  9  1  0  0  0  0
  7 10  1  0  0  0  0
 10 11  2  0  0  0  0
  4 11  1  0  0  0  0
M  END
> <DATABASE_ID>
DB02585

> <DATABASE_NAME>
drugbank

> <SMILES>
NC(=N)C1=CC=C(CO)C=C1

> <INCHI_IDENTIFIER>
InChI=1S/C8H10N2O/c9-8(10)7-3-1-6(5-11)2-4-7/h1-4,11H,5H2,(H3,9,10)

> <INCHI_KEY>
WHMKAFNJMLEDSN-UHFFFAOYSA-N

> <FORMULA>
C8H10N2O

> <MOLECULAR_WEIGHT>
150.1778

> <EXACT_MASS>
150.079312952

> <JCHEM_ACCEPTOR_COUNT>
3

> <JCHEM_ATOM_COUNT>
21

> <JCHEM_AVERAGE_NEUTRAL_MICROSPECIES_CHARGE>
0.9999662644680761

> <JCHEM_AVERAGE_POLARIZABILITY>
15.947111708871073

> <JCHEM_BIOAVAILABILITY>
1

> <JCHEM_DONOR_COUNT>
3

> <JCHEM_FORMAL_CHARGE>
0

> <JCHEM_GHOSE_FILTER>
0

> <JCHEM_IUPAC>
4-(hydroxymethyl)benzene-1-carboximidamide

> <ALOGPS_LOGP>
-0.18

> <JCHEM_LOGP>
0.12636452299999992

> <ALOGPS_LOGS>
-2.11

> <JCHEM_MDDR_LIKE_RULE>
0

> <JCHEM_NEUTRAL_CHARGE>
1

> <JCHEM_NUMBER_OF_RINGS>
1

> <JCHEM_PHYSIOLOGICAL_CHARGE>
1

> <JCHEM_PKA_STRONGEST_ACIDIC>
14.966300993399006

> <JCHEM_PKA_STRONGEST_BASIC>
11.472034914505114

> <JCHEM_POLAR_SURFACE_AREA>
70.10000000000001

> <JCHEM_REFRACTIVITY>
54.546400000000006

> <JCHEM_ROTATABLE_BOND_COUNT>
2

> <JCHEM_RULE_OF_FIVE>
1

> <ALOGPS_SOLUBILITY>
1.18e+00 g/l

> <JCHEM_TRADITIONAL_IUPAC>
tetrahydrofolic acid

> <JCHEM_VEBER_RULE>
0

> <DRUGBANK_ID>
DB02585

> <SECONDARY_ACCESSION_NUMBERS>
EXPT00206

> <DRUG_GROUPS>
experimental

> <GENERIC_NAME>
4-(Hydroxymethyl)Benzamidine

$$$$
