
  Mrv0541 02231217192D          

  8  7  0  0  0  0            999 V2000
    0.1105   -2.0625    0.0000 C   0  0  0  0  0  0  0  0  0  0  0  0
    0.1105   -1.2375    0.0000 C   0  0  0  0  0  0  0  0  0  0  0  0
   -0.6039   -0.8250    0.0000 C   0  0  0  0  0  0  0  0  0  0  0  0
    0.8250   -0.8250    0.0000 O   0  0  0  0  0  0  0  0  0  0  0  0
    0.8250    0.0000    0.0000 P   0  0  0  0  0  0  0  0  0  0  0  0
    0.8250    0.8250    0.0000 O   0  0  0  0  0  0  0  0  0  0  0  0
    1.6500    0.0000    0.0000 O   0  0  0  0  0  0  0  0  0  0  0  0
    0.0000    0.0000    0.0000 O   0  0  0  0  0  0  0  0  0  0  0  0
  1  2  1  0  0  0  0
  2  3  1  0  0  0  0
  2  4  1  0  0  0  0
  4  5  1  0  0  0  0
  5  6  1  0  0  0  0
  5  7  1  0  0  0  0
  5  8  2  0  0  0  0
M  END
> <DATABASE_ID>
DB03976

> <DATABASE_NAME>
drugbank

> <SMILES>
CC(C)OP(O)(O)=O

> <INCHI_IDENTIFIER>
InChI=1S/C3H9O4P/c1-3(2)7-8(4,5)6/h3H,1-2H3,(H2,4,5,6)

> <INCHI_KEY>
QPPQHRDVPBTVEV-UHFFFAOYSA-N

> <FORMULA>
C3H9O4P

> <MOLECULAR_WEIGHT>
140.0749

> <EXACT_MASS>
140.023845288

> <JCHEM_ACCEPTOR_COUNT>
3

> <JCHEM_ATOM_COUNT>
17

> <JCHEM_AVERAGE_NEUTRAL_MICROSPECIES_CHARGE>
-1.7562163603558596

> <JCHEM_AVERAGE_POLARIZABILITY>
11.611319859837872

> <JCHEM_BIOAVAILABILITY>
1

> <JCHEM_DONOR_COUNT>
2

> <JCHEM_FORMAL_CHARGE>
0

> <JCHEM_GHOSE_FILTER>
0

> <JCHEM_IUPAC>
(propan-2-yloxy)phosphonic acid

> <ALOGPS_LOGP>
-0.13

> <JCHEM_LOGP>
0.1312398793333336

> <ALOGPS_LOGS>
-0.68

> <JCHEM_MDDR_LIKE_RULE>
0

> <JCHEM_NEUTRAL_CHARGE>
-2

> <JCHEM_NUMBER_OF_RINGS>
0

> <JCHEM_PHYSIOLOGICAL_CHARGE>
-2

> <JCHEM_PKA>
6.80937417517359

> <JCHEM_PKA_STRONGEST_ACIDIC>
1.7834538125849062

> <JCHEM_POLAR_SURFACE_AREA>
66.75999999999999

> <JCHEM_REFRACTIVITY>
28.3016

> <JCHEM_ROTATABLE_BOND_COUNT>
2

> <JCHEM_RULE_OF_FIVE>
1

> <ALOGPS_SOLUBILITY>
2.96e+01 g/l

> <JCHEM_TRADITIONAL_IUPAC>
biotin

> <JCHEM_VEBER_RULE>
0

> <DRUGBANK_ID>
DB03976

> <SECONDARY_ACCESSION_NUMBERS>
EXPT01937; EXPT02177; DB04251

> <DRUG_GROUPS>
experimental

> <GENERIC_NAME>
Phosphorylisopropane

$$$$
