
  Mrv0541 02241220582D          

  1  0  0  0  0  0            999 V2000
    0.0000    0.0000    0.0000 Cr  0  0  0  0  0  0  0  0  0  0  0  0
M  END
> <DATABASE_ID>
DB11136

> <DATABASE_NAME>
drugbank

> <SMILES>
[Cr]

> <INCHI_IDENTIFIER>
InChI=1S/Cr

> <INCHI_KEY>
VYZAMTAEIAYCRO-UHFFFAOYSA-N

> <FORMULA>
Cr

> <MOLECULAR_WEIGHT>
51.9961

> <EXACT_MASS>
51.940511904

> <JCHEM_ACCEPTOR_COUNT>
0

> <JCHEM_ATOM_COUNT>
1

> <JCHEM_AVERAGE_NEUTRAL_MICROSPECIES_CHARGE>
0.0

> <JCHEM_AVERAGE_POLARIZABILITY>
1.7784

> <JCHEM_BIOAVAILABILITY>
1

> <JCHEM_DONOR_COUNT>
0

> <JCHEM_FORMAL_CHARGE>
0

> <JCHEM_GHOSE_FILTER>
0

> <JCHEM_IUPAC>
chromium

> <ALOGPS_LOGP>
-1.31

> <JCHEM_LOGP>
-0.156

> <ALOGPS_LOGS>
1.08

> <JCHEM_MDDR_LIKE_RULE>
0

> <JCHEM_NEUTRAL_CHARGE>
0

> <JCHEM_NUMBER_OF_RINGS>
0

> <JCHEM_PHYSIOLOGICAL_CHARGE>
0

> <JCHEM_POLAR_SURFACE_AREA>
0.0

> <JCHEM_REFRACTIVITY>
0.0

> <JCHEM_ROTATABLE_BOND_COUNT>
0

> <JCHEM_RULE_OF_FIVE>
1

> <ALOGPS_SOLUBILITY>
0.00e+00 g/l

> <JCHEM_TRADITIONAL_IUPAC>
biotin

> <JCHEM_VEBER_RULE>
1

> <DRUGBANK_ID>
DB11136

> <DRUG_GROUPS>
approved

> <GENERIC_NAME>
Chromium

> <SYNONYMS>
Biochrome; Chrom; Chromium, elemental; Cromo; Dinakrome

> <PRODUCTS>
24 Multivitamins + Minerals; 50 Plus Multiple Vitamins & Minerals; A.M. Formula; Accelerator; Aces Caplet; Aces Tab; Acv; Adult Formula 50+; Advanced 2000 Capsules; Advanced B & T Formula; Amd; B.E.T. Complex; Bio-chrome; Biosculpt; Body Rox; C. Vit-min Formula; Calcium Complex High Grade; Calcium With Mg Zn Mn Cu CR Si and Vit. C & D; Carbaway; Card-floe II Tab; Cblock Mineral Supplement; Chela-chromium 200; Chelamins Plus Tab; Chelapro; Chelated Chromium 200 Mcg; Chelated Chromium Capsules; Chelated Chromium Gtf 500mcg Tab; Chrome Zme (ii); Chromease Tab; Chromium; Chromium & Vanadium; Chromium 200 Mcg - Tablet; Chromium 200mcg; Chromium 200mcg Tablets; Chromium 500 - Caplet; Chromium 500 Mcg Tablet; Chromium Amf; Chromium Chelate 500 Mcg; Chromium Ctr Srt 200mcg; Chromium Gtf + Calcium; Chromium Gtf 200mcg; Chromium Gtf 500 Mcg; Chromium Gtf 500mcg; Chromium Gtf Capsules 200mcg; Chromium Plus; Chromium and Vanadium (combo); Chromium and Vanadium Mineral Supplement; Chromium-life Dietary Supplement; Classic Swiss One 10 Multivitamin and Mineral Tab; Complete Multivitamins and Minerals Tablets Timed Release; Complete One A Day Tab; Complete One-A-day - Tab; Daily Energy Brand Vitamin & Mineral Drink Mix; Db-7 Dietary Supplement; Defense Caplets; Diacomp - Cap; Doctor's Choice Brand for Men; Dp 2000; Envirocomplex; Envive; Extra Once A Day; Fb Formula; Fem Time Tab; For-2; Formula Ant-cel; Formula C.I. Tab; Formula F L W; Formula Gly; Formula Gm; Formula Hh; Formula O.C.; Formula T.B.-1; Formule 3000; Glyco-aide Tab; Grand Master Formula Tab; Gtf Support Caplet; Gtf-vitamin-minerals & Pancreatin Tab; Hi Potency Multi Tab; Hyporyl - Tab; Inhibitol - Tab; Innersource Tab; Inositol Nicotinate Plus CR; Ionochrome Cap 10mcg; Isotonix Multitech Vitamin Mineral Supplemen; K.L. Vitamin-mineral; Kanga-V Multivitamins & Minerals; L.G.I.T.; L.I.P. Complex; Lipovite; Liquid Opti-minplex +d; Luna Vitamin and Mineral Bar for Women; Magnum-75 Vitamin and Mineral Supplement; Maintain Multiple Vitamin & Minerals; Master Key Multi Vitamin Multi Mineral Formula 2; Maximum Once A Day; Maxine Vitamin and Mineral Supplement; Maxum Multi-vite; Mega Balance; Mega Multiple Minerals; Mega Plex III - Pck; Mega Plex IV - Pck; Mega Vitaminerals; Mega-vim 75 With Beta-carotene - Tablets; Men's; Men's 50+; Men's Biomultiple Vitamin and Mineral Supplement; Milltrium Senior Vitamin and Mineral Supplement; Mineral Support; Mineralex; Mte 4 Inj; Multi Cal Mag Liquid; Multi Flow Tablets; Multi II IV Vi Tab; Multi Mega Minerals With Vitamin D; Multi Mins Liquid; Multi Plex I - Tab; Multi Plex II - Tab; Multi Spectrum - Tablet; Multi Tabs; Multi Vitamin - Mineral; Multi Vitamins & Minerals; Multi-actin; Multi-mins Minerals; Multi-vitamins With Minerals; Multicaps; Multimineral Chelates; Multimineral Tablets; Multipack II; Multiple Minerals; Multitabs; Multivitamin & Minerals (iron Free); Multivitamin & Multimineral; Multivitamins and Minerals With Betacarotene Tablets; Multivitamins and Minerals for Men; Multivitamins and Minerals for Women; Multra Plex; N.U.T. Complex; Natural Liquid Mineral Supplement; Natural Source Spectrum With Beta Carotene; Niachrom Capsule; Nicomide; Nicotinamide; Nitro Vites - Tab; Nutra Boost; Nutra-clear; Nutria; Onccor; One A Day Advance Adults; One A Day Advance Adults 50+; One Daily Vitamin and Mineral Dietary Supplement; One Per Day Vitamin and Mineral Dietary Supplement; Only One - Tablet; Premium Prenatal; Premium Prenatal - Tablets; Prenatal Formula Tab; Prenatal Vi-min; Prenatal Vitamin and Mineral Supplement; Prim - Royal P.M.T.; Pro Hers Vanilla; Pro His Mint; Pro Pcos Citrus; Protect Plus SO 60; Q.T. #1 Supplement; Q.T. #4 Vitamin and Mineral Dietary Supplement; Q.T. Vitamin and Mineral Drink Mix; Revit Multi-vitamins and Minerals; Revitalize Multi-vitamin and Mineral Complex; Rocky Mountain Multiple Vit and Min Mega Tab; Senior Multi One; Slm3.com; Somavit Brand Vitamins and Minerals Complex; Spark Cap; Spd Tab; Spectrum 2 Cap; Strovite Forte Caplet; Strovite One Caplets; Super Multi; Super Vita Vim Multivitamins and Minerals; Super Vita-vim With Beta-carotene - Tab; Swiss One; Swiss One Multi Vit & Chel Min Tab; Swiss Total One; T.F.B. Formula; T.S. Formula; Totalvit Plus; Twin G.F. Powder; Twin G.F. Powder Vanilla Flavor; Twin Opti Pwr; Twin Ultra Liquid Fruit Punch Flavor; Twin Ultra Liquid Grape Flavor; Twin Ultra Liquid Lemon-lime Flavor; Twin Ultra Liquid Orange Flavor; Ultimate Tab; Ultra C; Usana Multimineral Tablets; Usana Multimineral Tablets - Tab; V & M Vitamin and Mineral Supplement; Vc II; Vege Swiss One Multivitamin W Chel Mins Tab; Vita Balance 2000; Vitachrom Gc; Vitaflex Dietary Suplement; Vitalife - Capsule; Vitaminol; Vtb Vitamin and Mineral Supplement; Vyo Cylate - Pwr; Wms 1; Women's Biomultiple Vitamin and Mineral Supplement

$$$$
