
  Mrv0541 02231219452D          

 61 63  0  0  1  0            999 V2000
   23.5208  -15.9433    0.0000 S   0  0  0  0  0  0  0  0  0  0  0  0
   30.6891  -21.8641    0.0000 P   0  0  0  0  0  0  0  0  0  0  0  0
   31.7493  -22.8221    0.0000 P   0  0  0  0  0  0  0  0  0  0  0  0
   34.4308  -23.5171    0.0000 P   0  0  0  0  0  0  0  0  0  0  0  0
   31.4958  -22.0370    0.0000 O   0  0  0  0  0  0  0  0  0  0  0  0
   29.8824  -21.6912    0.0000 O   0  0  0  0  0  0  0  0  0  0  0  0
   32.0029  -23.6072    0.0000 O   0  0  0  0  0  0  0  0  0  0  0  0
   34.5156  -24.3377    0.0000 O   0  0  0  0  0  0  0  0  0  0  0  0
   30.8620  -21.0574    0.0000 O   0  0  0  0  0  0  0  0  0  0  0  0
   30.9642  -23.0757    0.0000 O   0  0  0  0  0  0  0  0  0  0  0  0
   35.2514  -23.4323    0.0000 O   0  0  0  0  0  0  0  0  0  0  0  0
   34.3460  -22.6964    0.0000 O   0  0  0  0  0  0  0  0  0  0  0  0
   27.4623  -21.1724    0.0000 O   0  0  0  0  0  0  0  0  0  0  0  0
   34.5125  -26.1326    0.0000 O   0  0  0  0  0  0  0  0  0  0  0  0
   32.5771  -25.2318    0.0000 O   0  0  0  0  0  0  0  0  0  0  0  0
   30.5161  -22.6708    0.0000 O   0  0  0  0  0  0  0  0  0  0  0  0
   32.5344  -22.5686    0.0000 O   0  0  0  0  0  0  0  0  0  0  0  0
   33.6102  -23.6019    0.0000 O   0  0  0  0  0  0  0  0  0  0  0  0
   22.1610  -16.3824    0.0000 O   0  0  0  0  0  0  0  0  0  0  0  0
   28.3149  -19.1631    0.0000 O   0  0  0  0  0  0  0  0  0  0  0  0
   26.1944  -17.2471    0.0000 O   0  0  0  0  0  0  0  0  0  0  0  0
   26.9552  -19.6023    0.0000 N   0  0  0  0  0  0  0  0  0  0  0  0
   24.8347  -17.6863    0.0000 N   0  0  0  0  0  0  0  0  0  0  0  0
   31.3094  -28.9982    0.0000 N   0  0  0  0  0  0  0  0  0  0  0  0
   32.8045  -26.6843    0.0000 N   0  0  0  0  0  0  0  0  0  0  0  0
   32.8045  -28.0120    0.0000 N   0  0  0  0  0  0  0  0  0  0  0  0
   30.5949  -27.7607    0.0000 N   0  0  0  0  0  0  0  0  0  0  0  0
   31.3094  -26.5231    0.0000 N   0  0  0  0  0  0  0  0  0  0  0  0
   28.8221  -20.7332    0.0000 C   0  0  0  0  0  0  0  0  0  0  0  0
   28.0154  -20.5602    0.0000 C   0  0  2  0  0  0  0  0  0  0  0  0
   23.7744  -16.7283    0.0000 C   0  0  0  0  0  0  0  0  0  0  0  0
   29.6288  -20.9061    0.0000 C   0  0  0  0  0  0  0  0  0  0  0  0
   24.5810  -16.9013    0.0000 C   0  0  0  0  0  0  0  0  0  0  0  0
   26.7016  -18.8172    0.0000 C   0  0  0  0  0  0  0  0  0  0  0  0
   19.5333  -12.8964    0.0000 C   0  0  0  0  0  0  0  0  0  0  0  0
   20.3400  -13.0693    0.0000 C   0  0  0  0  0  0  0  0  0  0  0  0
   19.2797  -12.1113    0.0000 C   0  0  0  0  0  0  0  0  0  0  0  0
   20.5935  -13.8544    0.0000 C   0  0  0  0  0  0  0  0  0  0  0  0
   18.4730  -11.9384    0.0000 C   0  0  0  0  0  0  0  0  0  0  0  0
   21.4002  -14.0273    0.0000 C   0  0  0  0  0  0  0  0  0  0  0  0
   18.2195  -11.1533    0.0000 C   0  0  0  0  0  0  0  0  0  0  0  0
   21.6538  -14.8123    0.0000 C   0  0  0  0  0  0  0  0  0  0  0  0
   17.4128  -10.9804    0.0000 C   0  0  0  0  0  0  0  0  0  0  0  0
   32.8096  -23.7801    0.0000 C   0  0  0  0  0  0  0  0  0  0  0  0
   22.4605  -14.9853    0.0000 C   0  0  0  0  0  0  0  0  0  0  0  0
   25.8949  -18.6443    0.0000 C   0  0  0  0  0  0  0  0  0  0  0  0
   28.9950  -19.9266    0.0000 C   0  0  0  0  0  0  0  0  0  0  0  0
   28.6492  -21.5399    0.0000 C   0  0  0  0  0  0  0  0  0  0  0  0
   17.1592  -10.1953    0.0000 C   0  0  0  0  0  0  0  0  0  0  0  0
   33.0609  -25.9000    0.0000 C   0  0  1  0  0  0  0  0  0  0  0  0
   33.0632  -24.5652    0.0000 C   0  0  2  0  0  0  0  0  0  0  0  0
   33.8459  -25.6465    0.0000 C   0  0  1  0  0  0  0  0  0  0  0  0
   33.8474  -24.8215    0.0000 C   0  0  2  0  0  0  0  0  0  0  0  0
   22.7141  -15.7703    0.0000 C   0  0  0  0  0  0  0  0  0  0  0  0
   27.7619  -19.7752    0.0000 C   0  0  0  0  0  0  0  0  0  0  0  0
   25.6413  -17.8593    0.0000 C   0  0  0  0  0  0  0  0  0  0  0  0
   31.3094  -28.1732    0.0000 C   0  0  0  0  0  0  0  0  0  0  0  0
   32.0239  -26.9356    0.0000 C   0  0  0  0  0  0  0  0  0  0  0  0
   32.0239  -27.7607    0.0000 C   0  0  0  0  0  0  0  0  0  0  0  0
   33.2860  -27.3482    0.0000 C   0  0  0  0  0  0  0  0  0  0  0  0
   30.5949  -26.9356    0.0000 C   0  0  0  0  0  0  0  0  0  0  0  0
  1 31  1  0  0  0  0
  1 54  1  0  0  0  0
  2  5  1  0  0  0  0
  2  6  1  0  0  0  0
  2  9  1  0  0  0  0
  2 16  2  0  0  0  0
  3  5  1  0  0  0  0
  3  7  1  0  0  0  0
  3 10  1  0  0  0  0
  3 17  2  0  0  0  0
  4  8  1  0  0  0  0
  4 11  1  0  0  0  0
  4 12  1  0  0  0  0
  4 18  2  0  0  0  0
  6 32  1  0  0  0  0
  7 44  1  0  0  0  0
 53  8  1  1  0  0  0
 30 13  1  1  0  0  0
 52 14  1  1  0  0  0
 15 50  1  0  0  0  0
 15 51  1  0  0  0  0
 19 54  2  0  0  0  0
 20 55  2  0  0  0  0
 21 56  2  0  0  0  0
 22 34  1  0  0  0  0
 22 55  1  0  0  0  0
 23 33  1  0  0  0  0
 23 56  1  0  0  0  0
 24 57  1  0  0  0  0
 50 25  1  6  0  0  0
 25 58  1  0  0  0  0
 25 60  1  0  0  0  0
 26 59  1  0  0  0  0
 26 60  2  0  0  0  0
 27 57  1  0  0  0  0
 27 61  2  0  0  0  0
 28 58  2  0  0  0  0
 28 61  1  0  0  0  0
 29 30  1  0  0  0  0
 29 32  1  0  0  0  0
 29 47  1  0  0  0  0
 29 48  1  0  0  0  0
 30 55  1  0  0  0  0
 31 33  1  0  0  0  0
 34 46  1  0  0  0  0
 35 36  1  0  0  0  0
 35 37  1  0  0  0  0
 36 38  1  0  0  0  0
 37 39  1  0  0  0  0
 38 40  1  0  0  0  0
 39 41  1  0  0  0  0
 40 42  1  0  0  0  0
 41 43  1  0  0  0  0
 42 45  1  0  0  0  0
 43 49  1  0  0  0  0
 51 44  1  6  0  0  0
 45 54  1  0  0  0  0
 46 56  1  0  0  0  0
 50 52  1  0  0  0  0
 51 53  1  0  0  0  0
 52 53  1  0  0  0  0
 57 59  2  0  0  0  0
 58 59  1  0  0  0  0
M  END
> <DATABASE_ID>
DB03264

> <DATABASE_NAME>
drugbank

> <SMILES>
CCCCCCCCCCCC(=O)SCCNC(=O)CCNC(=O)[C@H](O)C(C)(C)COP(O)(=O)OP(O)(=O)OC[C@H]1O[C@H]([C@H](O)[C@@H]1OP(O)(O)=O)N1C=NC2=C(N)N=CN=C12

> <INCHI_IDENTIFIER>
InChI=1S/C33H58N7O17P3S/c1-4-5-6-7-8-9-10-11-12-13-24(42)61-17-16-35-23(41)14-15-36-31(45)28(44)33(2,3)19-54-60(51,52)57-59(49,50)53-18-22-27(56-58(46,47)48)26(43)32(55-22)40-21-39-25-29(34)37-20-38-30(25)40/h20-22,26-28,32,43-44H,4-19H2,1-3H3,(H,35,41)(H,36,45)(H,49,50)(H,51,52)(H2,34,37,38)(H2,46,47,48)/t22-,26-,27-,28+,32-/m1/s1

> <INCHI_KEY>
YMCXGHLSVALICC-GMHMEAMDSA-N

> <FORMULA>
C33H58N7O17P3S

> <MOLECULAR_WEIGHT>
949.837

> <EXACT_MASS>
949.282273691

> <JCHEM_ACCEPTOR_COUNT>
17

> <JCHEM_ATOM_COUNT>
119

> <JCHEM_AVERAGE_NEUTRAL_MICROSPECIES_CHARGE>
-3.9551811461944544

> <JCHEM_AVERAGE_POLARIZABILITY>
91.94081506274604

> <JCHEM_BIOAVAILABILITY>
0

> <JCHEM_DONOR_COUNT>
9

> <JCHEM_FORMAL_CHARGE>
0

> <JCHEM_GHOSE_FILTER>
0

> <JCHEM_IUPAC>
{[(2R,3S,4R,5R)-5-(6-amino-9H-purin-9-yl)-2-({[({[(3R)-3-[(2-{[2-(dodecanoylsulfanyl)ethyl]carbamoyl}ethyl)carbamoyl]-3-hydroxy-2,2-dimethylpropoxy](hydroxy)phosphoryl}oxy)(hydroxy)phosphoryl]oxy}methyl)-4-hydroxyoxolan-3-yl]oxy}phosphonic acid

> <ALOGPS_LOGP>
1.35

> <JCHEM_LOGP>
-1.3640836347650724

> <ALOGPS_LOGS>
-2.56

> <JCHEM_MDDR_LIKE_RULE>
1

> <JCHEM_NEUTRAL_CHARGE>
-4

> <JCHEM_NUMBER_OF_RINGS>
3

> <JCHEM_PHYSIOLOGICAL_CHARGE>
-4

> <JCHEM_PKA>
0.9219272969883872

> <JCHEM_PKA_STRONGEST_ACIDIC>
0.8257565645629552

> <JCHEM_PKA_STRONGEST_BASIC>
4.887053440723845

> <JCHEM_POLAR_SURFACE_AREA>
363.6299999999999

> <JCHEM_REFRACTIVITY>
218.24390000000005

> <JCHEM_ROTATABLE_BOND_COUNT>
30

> <JCHEM_RULE_OF_FIVE>
0

> <ALOGPS_SOLUBILITY>
2.59e+00 g/l

> <JCHEM_TRADITIONAL_IUPAC>
biotin

> <JCHEM_VEBER_RULE>
0

> <DRUGBANK_ID>
DB03264

> <SECONDARY_ACCESSION_NUMBERS>
EXPT01131

> <DRUG_GROUPS>
experimental

> <GENERIC_NAME>
Dodecyl-Coa

$$$$
