
  Mrv0541 02231216272D          

 20 19  0  0  0  0            999 V2000
    7.2336   -5.0013    0.0000 C   0  0  0  0  0  0  0  0  0  0  0  0
    7.9480   -5.4138    0.0000 C   0  0  0  0  0  0  0  0  0  0  0  0
    8.6625   -5.0013    0.0000 C   0  0  0  0  0  0  0  0  0  0  0  0
    9.3770   -5.4138    0.0000 C   0  0  0  0  0  0  0  0  0  0  0  0
   10.0914   -5.0013    0.0000 C   0  0  0  0  0  0  0  0  0  0  0  0
   10.8059   -5.4138    0.0000 C   0  0  0  0  0  0  0  0  0  0  0  0
   11.5204   -5.0013    0.0000 C   0  0  0  0  0  0  0  0  0  0  0  0
   12.2349   -5.4138    0.0000 C   0  0  0  0  0  0  0  0  0  0  0  0
   12.9493   -5.0013    0.0000 C   0  0  0  0  0  0  0  0  0  0  0  0
   13.6638   -5.4138    0.0000 C   0  0  0  0  0  0  0  0  0  0  0  0
   14.3783   -5.0013    0.0000 C   0  0  0  0  0  0  0  0  0  0  0  0
   15.0927   -5.4138    0.0000 C   0  0  0  0  0  0  0  0  0  0  0  0
   15.8072   -5.0013    0.0000 C   0  0  0  0  0  0  0  0  0  0  0  0
   16.5217   -5.4138    0.0000 C   0  0  0  0  0  0  0  0  0  0  0  0
   17.2362   -5.0013    0.0000 C   0  0  0  0  0  0  0  0  0  0  0  0
   17.9506   -5.4138    0.0000 C   0  0  0  0  0  0  0  0  0  0  0  0
   18.6651   -5.0013    0.0000 S   0  0  0  0  0  0  0  0  0  0  0  0
   19.3796   -4.5888    0.0000 O   0  0  0  0  0  0  0  0  0  0  0  0
   19.0776   -5.7158    0.0000 O   0  0  0  0  0  0  0  0  0  0  0  0
   18.2526   -4.2868    0.0000 O   0  0  0  0  0  0  0  0  0  0  0  0
  1  2  1  0  0  0  0
  2  3  1  0  0  0  0
  3  4  1  0  0  0  0
  4  5  1  0  0  0  0
  5  6  1  0  0  0  0
  6  7  1  0  0  0  0
  7  8  1  0  0  0  0
  8  9  1  0  0  0  0
  9 10  1  0  0  0  0
 10 11  1  0  0  0  0
 11 12  1  0  0  0  0
 12 13  1  0  0  0  0
 13 14  1  0  0  0  0
 14 15  1  0  0  0  0
 15 16  1  0  0  0  0
 16 17  1  0  0  0  0
 17 18  1  0  0  0  0
 17 19  2  0  0  0  0
 17 20  2  0  0  0  0
M  END
> <DATABASE_ID>
DB02776

> <DATABASE_NAME>
drugbank

> <SMILES>
CCCCCCCCCCCCCCCCS(O)(=O)=O

> <INCHI_IDENTIFIER>
InChI=1S/C16H34O3S/c1-2-3-4-5-6-7-8-9-10-11-12-13-14-15-16-20(17,18)19/h2-16H2,1H3,(H,17,18,19)

> <INCHI_KEY>
SSILHZFTFWOUJR-UHFFFAOYSA-N

> <FORMULA>
C16H34O3S

> <MOLECULAR_WEIGHT>
306.504

> <EXACT_MASS>
306.222865644

> <JCHEM_ACCEPTOR_COUNT>
3

> <JCHEM_ATOM_COUNT>
54

> <JCHEM_AVERAGE_NEUTRAL_MICROSPECIES_CHARGE>
-0.9999999740308821

> <JCHEM_AVERAGE_POLARIZABILITY>
38.81677128129309

> <JCHEM_BIOAVAILABILITY>
0

> <JCHEM_DONOR_COUNT>
1

> <JCHEM_FORMAL_CHARGE>
0

> <JCHEM_GHOSE_FILTER>
0

> <JCHEM_IUPAC>
hexadecane-1-sulfonic acid

> <ALOGPS_LOGP>
4.03

> <JCHEM_LOGP>
5.8505386433333335

> <ALOGPS_LOGS>
-5.55

> <JCHEM_MDDR_LIKE_RULE>
0

> <JCHEM_NEUTRAL_CHARGE>
-1

> <JCHEM_NUMBER_OF_RINGS>
0

> <JCHEM_PHYSIOLOGICAL_CHARGE>
-1

> <JCHEM_PKA_STRONGEST_ACIDIC>
-0.5855427919457954

> <JCHEM_POLAR_SURFACE_AREA>
54.37

> <JCHEM_REFRACTIVITY>
85.74089999999998

> <JCHEM_ROTATABLE_BOND_COUNT>
15

> <JCHEM_RULE_OF_FIVE>
0

> <ALOGPS_SOLUBILITY>
8.57e-04 g/l

> <JCHEM_TRADITIONAL_IUPAC>
biotin

> <JCHEM_VEBER_RULE>
0

> <DRUGBANK_ID>
DB02776

> <SECONDARY_ACCESSION_NUMBERS>
EXPT01716

> <DRUG_GROUPS>
experimental

> <GENERIC_NAME>
1-Hexadecanosulfonic Acid

$$$$
