
  Mrv0541 05041402562D          

 37 41  0  0  1  0            999 V2000
   -8.2478   -2.6005    0.0000 C   0  0  0  0  0  0  0  0  0  0  0  0
   -7.6958   -3.2136    0.0000 C   0  0  0  0  0  0  0  0  0  0  0  0
   -7.9929   -1.8159    0.0000 C   0  0  0  0  0  0  0  0  0  0  0  0
    3.3523    1.1104    0.0000 C   0  0  0  0  0  0  0  0  0  0  0  0
    3.3523    1.9354    0.0000 C   0  0  0  0  0  0  0  0  0  0  0  0
   -6.8888   -3.0421    0.0000 C   0  0  0  0  0  0  0  0  0  0  0  0
   -7.1859   -1.6444    0.0000 C   0  0  0  0  0  0  0  0  0  0  0  0
    2.6378    0.6979    0.0000 C   0  0  0  0  0  0  0  0  0  0  0  0
    2.6378    2.3479    0.0000 C   0  0  0  0  0  0  0  0  0  0  0  0
   -2.8540   -2.1845    0.0000 C   0  0  0  0  0  0  0  0  0  0  0  0
   -3.1511   -0.7868    0.0000 C   0  0  0  0  0  0  0  0  0  0  0  0
   -2.0470   -2.0129    0.0000 C   0  0  0  0  0  0  0  0  0  0  0  0
   -2.3441   -0.6152    0.0000 C   0  0  0  0  0  0  0  0  0  0  0  0
   -5.2749   -2.6991    0.0000 C   0  0  0  0  0  0  0  0  0  0  0  0
   -5.5720   -1.3013    0.0000 C   0  0  0  0  0  0  0  0  0  0  0  0
   -4.4679   -2.5275    0.0000 C   0  0  0  0  0  0  0  0  0  0  0  0
   -4.7650   -1.1298    0.0000 C   0  0  0  0  0  0  0  0  0  0  0  0
    0.8838    0.0709    0.0000 C   0  0  0  0  0  0  0  0  0  0  0  0
    0.6538    1.5229    0.0000 C   0  0  0  0  0  0  0  0  0  0  0  0
   -6.6339   -2.2575    0.0000 C   0  0  0  0  0  0  0  0  0  0  0  0
   -5.8269   -2.0860    0.0000 C   0  0  0  0  0  0  0  0  0  0  0  0
    1.1387    0.8555    0.0000 C   0  0  0  0  0  0  0  0  0  0  0  0
   -3.4060   -1.5714    0.0000 C   0  0  0  0  0  0  0  0  0  0  0  0
   -1.7921   -1.2283    0.0000 C   0  0  0  0  0  0  0  0  0  0  0  0
    1.9233    1.1104    0.0000 C   0  0  0  0  0  0  0  0  0  0  0  0
    1.9233    1.9354    0.0000 C   0  0  0  0  0  0  0  0  0  0  0  0
    0.0768   -0.1006    0.0000 C   0  0  1  0  0  0  0  0  0  0  0  0
   -0.4752    0.5124    0.0000 C   0  0  0  0  0  0  0  0  0  0  0  0
    1.1387    2.1904    0.0000 N   0  0  0  0  0  0  0  0  0  0  0  0
   -0.1781   -0.8853    0.0000 N   0  0  0  0  0  0  0  0  0  0  0  0
   -4.2130   -1.7429    0.0000 N   0  0  0  0  0  0  0  0  0  0  0  0
   -1.2822    0.3409    0.0000 O   0  0  0  0  0  0  0  0  0  0  0  0
   -0.2203    1.2971    0.0000 O   0  0  0  0  0  0  0  0  0  0  0  0
   -0.8136   -1.8638    0.0000 O   0  0  0  0  0  0  0  0  0  0  0  0
   -1.1566   -0.2498    0.0000 O   0  0  0  0  0  0  0  0  0  0  0  0
   -0.9851   -1.0568    0.0000 S   0  0  0  0  0  0  0  0  0  0  0  0
    0.3317    0.6840    0.0000 H   0  0  0  0  0  0  0  0  0  0  0  0
  2  1  2  0  0  0  0
  3  1  1  0  0  0  0
  5  4  2  0  0  0  0
  6  2  1  0  0  0  0
  7  3  2  0  0  0  0
  8  4  1  0  0  0  0
  9  5  1  0  0  0  0
 12 10  1  0  0  0  0
 13 11  2  0  0  0  0
 16 14  1  0  0  0  0
 17 15  1  0  0  0  0
 20  6  2  0  0  0  0
 20  7  1  0  0  0  0
 21 14  1  0  0  0  0
 21 15  1  0  0  0  0
 21 20  1  0  0  0  0
 22 18  1  0  0  0  0
 22 19  2  0  0  0  0
 23 10  2  0  0  0  0
 23 11  1  0  0  0  0
 24 12  2  0  0  0  0
 24 13  1  0  0  0  0
 25  8  2  0  0  0  0
 25 22  1  0  0  0  0
 26  9  2  0  0  0  0
 26 25  1  0  0  0  0
 27 18  1  0  0  0  0
 28 27  1  0  0  0  0
 29 19  1  0  0  0  0
 29 26  1  0  0  0  0
 27 30  1  1  0  0  0
 31 16  1  0  0  0  0
 31 17  1  0  0  0  0
 31 23  1  0  0  0  0
 32 28  2  0  0  0  0
 33 28  1  0  0  0  0
 36 24  1  0  0  0  0
 36 30  1  0  0  0  0
 36 34  2  0  0  0  0
 36 35  2  0  0  0  0
 27 37  1  1  0  0  0
M  END
> <DATABASE_ID>
DB02449

> <DATABASE_NAME>
drugbank

> <SMILES>
[H][C@@](CC1=CNC2=CC=CC=C12)(NS(=O)(=O)C1=CC=C(C=C1)N1CCC(CC1)C1=CC=CC=C1)C(O)=O

> <INCHI_IDENTIFIER>
InChI=1S/C28H29N3O4S/c32-28(33)27(18-22-19-29-26-9-5-4-8-25(22)26)30-36(34,35)24-12-10-23(11-13-24)31-16-14-21(15-17-31)20-6-2-1-3-7-20/h1-13,19,21,27,29-30H,14-18H2,(H,32,33)/t27-/m0/s1

> <INCHI_KEY>
ULOTXPTWJAUGGE-MHZLTWQESA-N

> <FORMULA>
C28H29N3O4S

> <MOLECULAR_WEIGHT>
503.613

> <EXACT_MASS>
503.187877121

> <JCHEM_ACCEPTOR_COUNT>
5

> <JCHEM_ATOM_COUNT>
65

> <JCHEM_AVERAGE_NEUTRAL_MICROSPECIES_CHARGE>
-0.9995953314420819

> <JCHEM_AVERAGE_POLARIZABILITY>
54.12991893975702

> <JCHEM_BIOAVAILABILITY>
1

> <JCHEM_DONOR_COUNT>
3

> <JCHEM_FORMAL_CHARGE>
0

> <JCHEM_GHOSE_FILTER>
0

> <JCHEM_IUPAC>
(2S)-3-(1H-indol-3-yl)-2-[4-(4-phenylpiperidin-1-yl)benzenesulfonamido]propanoic acid

> <ALOGPS_LOGP>
3.42

> <JCHEM_LOGP>
4.429289139868752

> <ALOGPS_LOGS>
-5.65

> <JCHEM_MDDR_LIKE_RULE>
1

> <JCHEM_NEUTRAL_CHARGE>
-1

> <JCHEM_NUMBER_OF_RINGS>
5

> <JCHEM_PHYSIOLOGICAL_CHARGE>
-1

> <JCHEM_PKA>
10.884324329647658

> <JCHEM_PKA_STRONGEST_ACIDIC>
2.674523588636443

> <JCHEM_PKA_STRONGEST_BASIC>
3.6885522835562448

> <JCHEM_POLAR_SURFACE_AREA>
102.5

> <JCHEM_REFRACTIVITY>
140.6108

> <JCHEM_ROTATABLE_BOND_COUNT>
7

> <JCHEM_RULE_OF_FIVE>
0

> <ALOGPS_SOLUBILITY>
1.14e-03 g/l

> <JCHEM_TRADITIONAL_IUPAC>
biotin

> <JCHEM_VEBER_RULE>
0

> <DRUGBANK_ID>
DB02449

> <SECONDARY_ACCESSION_NUMBERS>
EXPT01260

> <DRUG_GROUPS>
experimental

> <GENERIC_NAME>
3-(1h-Indol-3-Yl)-2-[4-(4-Phenyl-Piperidin-1-Yl)-Benzenesulfonylamino]-Propionic Acid

$$$$
