
  Mrv0541 04191212172D          

 42 46  0  0  1  0            999 V2000
    5.5645   -5.6364    0.0000 C   0  0  0  0  0  0  0  0  0  0  0  0
    5.5645   -6.4614    0.0000 C   0  0  0  0  0  0  0  0  0  0  0  0
    6.2766   -6.8698    0.0000 N   0  0  0  0  0  0  0  0  0  0  0  0
    6.2766   -5.2198    0.0000 C   0  0  0  0  0  0  0  0  0  0  0  0
    6.9886   -5.6364    0.0000 C   0  0  1  0  0  0  0  0  0  0  0  0
    6.9851   -6.4614    0.0000 C   0  0  1  0  0  0  0  0  0  0  0  0
    7.6938   -6.8747    0.0000 C   0  0  0  0  0  0  0  0  0  0  0  0
    8.4106   -6.4675    0.0000 C   0  0  0  0  0  0  0  0  0  0  0  0
    7.7008   -5.2247    0.0000 C   0  0  2  0  0  0  0  0  0  0  0  0
    8.4142   -5.6473    0.0000 C   0  0  2  0  0  0  0  0  0  0  0  0
    8.4312   -3.9920    0.0000 C   0  0  0  0  0  0  0  0  0  0  0  0
    4.8507   -6.8750    0.0000 O   0  0  0  0  0  0  0  0  0  0  0  0
    6.9770   -7.2823    0.0000 H   0  0  0  0  0  0  0  0  0  0  0  0
    9.1229   -6.0698    0.0000 H   0  0  0  0  0  0  0  0  0  0  0  0
    7.6586   -4.4783    0.0000 C   0  0  0  0  0  0  0  0  0  0  0  0
    8.4062   -4.8198    0.0000 H   0  0  0  0  0  0  0  0  0  0  0  0
    9.1481   -4.4139    0.0000 C   0  0  1  0  0  0  0  0  0  0  0  0
    9.1310   -5.2449    0.0000 C   0  0  1  0  0  0  0  0  0  0  0  0
    9.9161   -5.5180    0.0000 C   0  0  0  0  0  0  0  0  0  0  0  0
   10.4184   -4.8557    0.0000 C   0  0  0  0  0  0  0  0  0  0  0  0
    9.9437   -4.1734    0.0000 C   0  0  2  0  0  0  0  0  0  0  0  0
    9.1437   -3.6362    0.0000 C   0  0  0  0  0  0  0  0  0  0  0  0
    6.9812   -4.8073    0.0000 C   0  0  0  0  0  0  0  0  0  0  0  0
    9.9478   -3.3472    0.0000 C   0  0  0  0  0  0  0  0  0  0  0  0
    9.2356   -2.9307    0.0000 O   0  0  0  0  0  0  0  0  0  0  0  0
   10.6646   -2.9387    0.0000 N   0  0  0  0  0  0  0  0  0  0  0  0
   11.3767   -3.3552    0.0000 C   0  0  0  0  0  0  0  0  0  0  0  0
   11.3694   -4.1791    0.0000 C   0  0  0  0  0  0  0  0  0  0  0  0
   12.0806   -4.5956    0.0000 C   0  0  0  0  0  0  0  0  0  0  0  0
   12.7984   -4.1871    0.0000 C   0  0  0  0  0  0  0  0  0  0  0  0
   12.8004   -3.3578    0.0000 C   0  0  0  0  0  0  0  0  0  0  0  0
   12.0885   -2.9451    0.0000 C   0  0  0  0  0  0  0  0  0  0  0  0
   12.0897   -2.1201    0.0000 C   0  0  0  0  0  0  0  0  0  0  0  0
    7.6937   -6.0490    0.0000 H   0  0  0  0  0  0  0  0  0  0  0  0
   12.8047   -1.7086    0.0000 F   0  0  0  0  0  0  0  0  0  0  0  0
   11.3758   -1.7066    0.0000 F   0  0  0  0  0  0  0  0  0  0  0  0
   12.0867   -1.2921    0.0000 F   0  0  0  0  0  0  0  0  0  0  0  0
   10.7349   -4.3934    0.0000 H   0  0  0  0  0  0  0  0  0  0  0  0
   12.0755   -5.4206    0.0000 C   0  0  0  0  0  0  0  0  0  0  0  0
   11.3586   -5.8287    0.0000 F   0  0  0  0  0  0  0  0  0  0  0  0
   12.7874   -5.8375    0.0000 F   0  0  0  0  0  0  0  0  0  0  0  0
   12.0768   -6.2421    0.0000 F   0  0  0  0  0  0  0  0  0  0  0  0
  3  6  1  0  0  0  0
  5  4  1  0  0  0  0
 18 19  1  0  0  0  0
 19 20  1  0  0  0  0
 20 21  1  0  0  0  0
 21 17  1  0  0  0  0
  5  6  1  0  0  0  0
 17 22  1  1  0  0  0
  9 15  1  0  0  0  0
  5 23  1  1  0  0  0
 10 18  1  0  0  0  0
 21 24  1  0  0  0  0
 17 11  1  0  0  0  0
 24 25  2  0  0  0  0
 11 15  1  0  0  0  0
 24 26  1  0  0  0  0
  1  2  1  0  0  0  0
 26 27  1  0  0  0  0
  1  4  2  0  0  0  0
 27 28  2  0  0  0  0
  2  3  1  0  0  0  0
 28 29  1  0  0  0  0
  5  9  1  0  0  0  0
 29 30  2  0  0  0  0
  2 12  2  0  0  0  0
 30 31  1  0  0  0  0
  6 13  1  6  0  0  0
 31 32  2  0  0  0  0
 32 27  1  0  0  0  0
  6  7  1  0  0  0  0
 32 33  1  0  0  0  0
 18 14  1  6  0  0  0
  7  8  1  0  0  0  0
 10 16  1  1  0  0  0
 17 18  1  0  0  0  0
  8 10  1  0  0  0  0
  9 10  1  0  0  0  0
  9 34  1  6  0  0  0
 33 35  1  0  0  0  0
 33 36  1  0  0  0  0
 33 37  1  0  0  0  0
 21 38  1  6  0  0  0
 29 39  1  0  0  0  0
 39 40  1  0  0  0  0
 39 41  1  0  0  0  0
 39 42  1  0  0  0  0
M  END
> <DATABASE_ID>
DB01126

> <DATABASE_NAME>
drugbank

> <SMILES>
[H][C@@]1(CC[C@@]2([H])[C@]3([H])CC[C@@]4([H])NC(=O)C=C[C@]4(C)[C@@]3([H])CC[C@]12C)C(=O)NC1=CC(=CC=C1C(F)(F)F)C(F)(F)F

> <INCHI_IDENTIFIER>
InChI=1S/C27H30F6N2O2/c1-24-11-9-17-15(4-8-21-25(17,2)12-10-22(36)35-21)16(24)6-7-19(24)23(37)34-20-13-14(26(28,29)30)3-5-18(20)27(31,32)33/h3,5,10,12-13,15-17,19,21H,4,6-9,11H2,1-2H3,(H,34,37)(H,35,36)/t15-,16-,17-,19+,21+,24-,25+/m0/s1

> <INCHI_KEY>
JWJOTENAMICLJG-QWBYCMEYSA-N

> <FORMULA>
C27H30F6N2O2

> <MOLECULAR_WEIGHT>
528.5297

> <EXACT_MASS>
528.221147444

> <JCHEM_ACCEPTOR_COUNT>
2

> <JCHEM_ATOM_COUNT>
67

> <JCHEM_AVERAGE_NEUTRAL_MICROSPECIES_CHARGE>
-2.7169938745827023e-06

> <JCHEM_AVERAGE_POLARIZABILITY>
49.919845842311275

> <JCHEM_BIOAVAILABILITY>
0

> <JCHEM_DONOR_COUNT>
2

> <JCHEM_FORMAL_CHARGE>
0

> <JCHEM_GHOSE_FILTER>
0

> <JCHEM_IUPAC>
(4aR,4bS,6aS,7S,9aS,9bS,11aR)-N-[2,5-bis(trifluoromethyl)phenyl]-4a,6a-dimethyl-2-oxo-1H,2H,4aH,4bH,5H,6H,6aH,7H,8H,9H,9aH,9bH,10H,11H,11aH-indeno[5,4-f]quinoline-7-carboxamide

> <ALOGPS_LOGP>
5.45

> <JCHEM_LOGP>
5.792817784000001

> <ALOGPS_LOGS>
-5.77

> <JCHEM_MDDR_LIKE_RULE>
0

> <JCHEM_NEUTRAL_CHARGE>
0

> <JCHEM_NUMBER_OF_RINGS>
5

> <JCHEM_PHYSIOLOGICAL_CHARGE>
0

> <JCHEM_PKA>
14.400348114533479

> <JCHEM_PKA_STRONGEST_ACIDIC>
12.561340514084307

> <JCHEM_PKA_STRONGEST_BASIC>
-0.16115840322448796

> <JCHEM_POLAR_SURFACE_AREA>
58.2

> <JCHEM_REFRACTIVITY>
127.89620000000002

> <JCHEM_ROTATABLE_BOND_COUNT>
4

> <JCHEM_RULE_OF_FIVE>
0

> <ALOGPS_SOLUBILITY>
9.08e-04 g/l

> <JCHEM_TRADITIONAL_IUPAC>
tetrahydrofolic acid

> <JCHEM_VEBER_RULE>
0

> <DRUGBANK_ID>
DB01126

> <SECONDARY_ACCESSION_NUMBERS>
APRD00385

> <DRUG_GROUPS>
approved; investigational

> <GENERIC_NAME>
Dutasteride

> <SYNONYMS>
(5α,17β)-N-(2,5-bis(trifluoromethyl)phenyl)-3-oxo-4-azaandrost-1-ene-17-carboxamide; Dutasterida; Dutasteride; α,α,α,α',α',α'-hexafluoro-3-oxo-4-aza-5α-androst-1-ene-17β-carboxy-2',5'-xylidide

> <PRODUCTS>
Act Dutasteride; Ag-dutasteride; Apo-dutasteride; Auro-dutasteride; Avodart; Bakumokon 5% Minoxidil; Bakumokon 7% Minoxidil Sulfate; Dutasteride; Dutasteride Capsules; Dutasteride and Tamsulosin Hydrochloride; Dutasteride and tamsulosin hydrochloride; Jalyn; Jamp Dutasteride; Med-dutasteride; Mint-dutasteride; PMS-dutasteride; Priva-dutasteride; Riva-dutasteride; Sandoz Dutasteride; Sandoz Dutasteride Capsule; Teva-dutasteride

$$$$
