
  Mrv0541 02241218112D          

  5  4  0  0  0  0            999 V2000
    0.0000   -0.8250    0.0000 O   0  0  0  0  0  0  0  0  0  0  0  0
    0.0000    0.0000    0.0000 S   0  0  0  0  0  0  0  0  0  0  0  0
    0.0000    0.8250    0.0000 O   0  0  0  0  0  0  0  0  0  0  0  0
   -0.8250    0.0000    0.0000 O   0  0  0  0  0  0  0  0  0  0  0  0
    0.8250    0.0000    0.0000 O   0  0  0  0  0  0  0  0  0  0  0  0
  1  2  1  0  0  0  0
  2  3  1  0  0  0  0
  2  4  2  0  0  0  0
  2  5  2  0  0  0  0
M  END
> <DATABASE_ID>
DB11309

> <DATABASE_NAME>
drugbank

> <SMILES>
OS(O)(=O)=O

> <INCHI_IDENTIFIER>
InChI=1S/H2O4S/c1-5(2,3)4/h(H2,1,2,3,4)

> <INCHI_KEY>
QAOWNCQODCNURD-UHFFFAOYSA-N

> <FORMULA>
H2O4S

> <MOLECULAR_WEIGHT>
98.078

> <EXACT_MASS>
97.967379242

> <JCHEM_ACCEPTOR_COUNT>
4

> <JCHEM_ATOM_COUNT>
7

> <JCHEM_AVERAGE_NEUTRAL_MICROSPECIES_CHARGE>
-1.9999960608374163

> <JCHEM_AVERAGE_POLARIZABILITY>
6.5092759681163

> <JCHEM_BIOAVAILABILITY>
1

> <JCHEM_DONOR_COUNT>
2

> <JCHEM_FORMAL_CHARGE>
0

> <JCHEM_GHOSE_FILTER>
0

> <JCHEM_IUPAC>
sulfuric acid

> <JCHEM_LOGP>
-0.8415520233333333

> <JCHEM_MDDR_LIKE_RULE>
0

> <JCHEM_NEUTRAL_CHARGE>
-2

> <JCHEM_NUMBER_OF_RINGS>
0

> <JCHEM_PHYSIOLOGICAL_CHARGE>
-2

> <JCHEM_PKA>
1.8964254257138706

> <JCHEM_PKA_STRONGEST_ACIDIC>
-3.0343490541919906

> <JCHEM_POLAR_SURFACE_AREA>
74.6

> <JCHEM_REFRACTIVITY>
13.7708

> <JCHEM_ROTATABLE_BOND_COUNT>
0

> <JCHEM_RULE_OF_FIVE>
1

> <JCHEM_TRADITIONAL_IUPAC>
biotin

> <JCHEM_VEBER_RULE>
0

> <DRUGBANK_ID>
DB11309

> <DRUG_GROUPS>
experimental

> <GENERIC_NAME>
Sulfuric acid

> <SYNONYMS>
Acide sulfurique; Acido sulfurico; Acidum sulfuricum; Brimstone acid; Dihydrogen sulfate; Dihydrogen sulphate; Schwefelsaeureloesungen; Sulphuric acid; Tetraoxosulfuric acid

> <PRODUCTS>
DEBACTEROL Canker Sore Pain Relief

$$$$
