
  Mrv0541 02231216152D          

 15 15  0  0  0  0            999 V2000
    2.1434    1.2375    0.0000 C   0  0  0  0  0  0  0  0  0  0  0  0
    1.4289    0.8250    0.0000 C   0  0  0  0  0  0  0  0  0  0  0  0
    1.4289    0.0000    0.0000 C   0  0  0  0  0  0  0  0  0  0  0  0
    2.1434   -0.4125    0.0000 C   0  0  0  0  0  0  0  0  0  0  0  0
    2.8579    0.0000    0.0000 C   0  0  0  0  0  0  0  0  0  0  0  0
    3.5724   -0.4125    0.0000 C   0  0  0  0  0  0  0  0  0  0  0  0
    4.2868    0.0000    0.0000 O   0  0  0  0  0  0  0  0  0  0  0  0
    2.8579    0.8250    0.0000 C   0  0  0  0  0  0  0  0  0  0  0  0
    3.5724    1.2375    0.0000 O   0  0  0  0  0  0  0  0  0  0  0  0
    0.7145   -0.4125    0.0000 N   0  0  0  0  0  0  0  0  0  0  0  0
    0.0000    0.0000    0.0000 C   0  0  0  0  0  0  0  0  0  0  0  0
   -0.7145   -0.4125    0.0000 O   0  0  0  0  0  0  0  0  0  0  0  0
    0.0000    0.8250    0.0000 N   0  0  0  0  0  0  0  0  0  0  0  0
    0.7145    1.2375    0.0000 C   0  0  0  0  0  0  0  0  0  0  0  0
    0.7145    2.0625    0.0000 O   0  0  0  0  0  0  0  0  0  0  0  0
  1  2  1  0  0  0  0
  2  3  2  0  0  0  0
  3  4  1  0  0  0  0
  4  5  1  0  0  0  0
  5  6  1  0  0  0  0
  6  7  1  0  0  0  0
  5  8  1  0  0  0  0
  8  9  1  0  0  0  0
  3 10  1  0  0  0  0
 10 11  1  0  0  0  0
 11 12  2  0  0  0  0
 11 13  1  0  0  0  0
 13 14  1  0  0  0  0
  2 14  1  0  0  0  0
 14 15  2  0  0  0  0
M  END
> <DATABASE_ID>
DB02500

> <DATABASE_NAME>
drugbank

> <SMILES>
CC1=C(CC(CO)CO)NC(=O)NC1=O

> <INCHI_IDENTIFIER>
InChI=1S/C9H14N2O4/c1-5-7(2-6(3-12)4-13)10-9(15)11-8(5)14/h6,12-13H,2-4H2,1H3,(H2,10,11,14,15)

> <INCHI_KEY>
CLCPDSJUXHDRGX-UHFFFAOYSA-N

> <FORMULA>
C9H14N2O4

> <MOLECULAR_WEIGHT>
214.2185

> <EXACT_MASS>
214.095356946

> <JCHEM_ACCEPTOR_COUNT>
4

> <JCHEM_ATOM_COUNT>
29

> <JCHEM_AVERAGE_NEUTRAL_MICROSPECIES_CHARGE>
-0.009034156529041392

> <JCHEM_AVERAGE_POLARIZABILITY>
20.89272382422618

> <JCHEM_BIOAVAILABILITY>
1

> <JCHEM_DONOR_COUNT>
4

> <JCHEM_FORMAL_CHARGE>
0

> <JCHEM_GHOSE_FILTER>
0

> <JCHEM_IUPAC>
6-[3-hydroxy-2-(hydroxymethyl)propyl]-5-methyl-1,2,3,4-tetrahydropyrimidine-2,4-dione

> <ALOGPS_LOGP>
-1.01

> <JCHEM_LOGP>
-1.7574044206666661

> <ALOGPS_LOGS>
-1.40

> <JCHEM_MDDR_LIKE_RULE>
0

> <JCHEM_NEUTRAL_CHARGE>
0

> <JCHEM_NUMBER_OF_RINGS>
1

> <JCHEM_PHYSIOLOGICAL_CHARGE>
0

> <JCHEM_PKA>
14.068831813066085

> <JCHEM_PKA_STRONGEST_ACIDIC>
9.040175660038331

> <JCHEM_PKA_STRONGEST_BASIC>
-2.629777959330931

> <JCHEM_POLAR_SURFACE_AREA>
98.66

> <JCHEM_REFRACTIVITY>
53.500699999999995

> <JCHEM_ROTATABLE_BOND_COUNT>
4

> <JCHEM_RULE_OF_FIVE>
1

> <ALOGPS_SOLUBILITY>
8.62e+00 g/l

> <JCHEM_TRADITIONAL_IUPAC>
tetrahydrofolic acid

> <JCHEM_VEBER_RULE>
0

> <DRUGBANK_ID>
DB02500

> <SECONDARY_ACCESSION_NUMBERS>
EXPT00866

> <DRUG_GROUPS>
experimental

> <GENERIC_NAME>
6-(Dihydroxy-Isobutyl)-Thymine

$$$$
