
  Mrv0541 02231216322D          

  9  8  0  0  1  0            999 V2000
   -1.6204    0.7145    0.0000 S   0  0  0  0  0  0  0  0  0  0  0  0
   -0.9059    1.1270    0.0000 C   0  0  0  0  0  0  0  0  0  0  0  0
   -0.1914    0.7145    0.0000 C   0  0  0  0  0  0  0  0  0  0  0  0
    0.5230    1.1270    0.0000 C   0  0  0  0  0  0  0  0  0  0  0  0
    1.2375    0.7145    0.0000 S   0  0  2  0  0  0  0  0  0  0  0  0
    1.2375   -0.1105    0.0000 O   0  0  0  0  0  0  0  0  0  0  0  0
    1.9520    1.1270    0.0000 C   0  0  0  0  0  0  0  0  0  0  0  0
    2.6664    0.7145    0.0000 C   0  0  0  0  0  0  0  0  0  0  0  0
    3.3809    1.1270    0.0000 C   0  0  0  0  0  0  0  0  0  0  0  0
  1  2  1  0  0  0  0
  2  3  2  0  0  0  0
  3  4  1  0  0  0  0
  4  5  1  0  0  0  0
  5  6  2  0  0  0  0
  5  7  1  1  0  0  0
  7  8  1  0  0  0  0
  8  9  2  0  0  0  0
M  END
> <DATABASE_ID>
DB02895

> <DATABASE_NAME>
drugbank

> <SMILES>
S\C=C\C[S@](=O)CC=C

> <INCHI_IDENTIFIER>
InChI=1S/C6H10OS2/c1-2-5-9(7)6-3-4-8/h2-4,8H,1,5-6H2/b4-3+/t9-/m1/s1

> <INCHI_KEY>
HSVQDVSVQIMRSS-CDAZIORVSA-N

> <FORMULA>
C6H10OS2

> <MOLECULAR_WEIGHT>
162.273

> <EXACT_MASS>
162.017306322

> <JCHEM_ACCEPTOR_COUNT>
1

> <JCHEM_ATOM_COUNT>
19

> <JCHEM_AVERAGE_NEUTRAL_MICROSPECIES_CHARGE>
-0.0422006997570069

> <JCHEM_AVERAGE_POLARIZABILITY>
17.724794291852774

> <JCHEM_BIOAVAILABILITY>
1

> <JCHEM_DONOR_COUNT>
1

> <JCHEM_FORMAL_CHARGE>
0

> <JCHEM_GHOSE_FILTER>
0

> <JCHEM_IUPAC>
(1E)-3-[(R)-prop-2-ene-1-sulfinyl]prop-1-ene-1-thiol

> <ALOGPS_LOGP>
2.02

> <JCHEM_LOGP>
0.2054093536666668

> <ALOGPS_LOGS>
-1.49

> <JCHEM_MDDR_LIKE_RULE>
0

> <JCHEM_NEUTRAL_CHARGE>
0

> <JCHEM_NUMBER_OF_RINGS>
0

> <JCHEM_PHYSIOLOGICAL_CHARGE>
0

> <JCHEM_PKA>
18.467103883953012

> <JCHEM_PKA_STRONGEST_ACIDIC>
8.355954862796446

> <JCHEM_PKA_STRONGEST_BASIC>
-8.104666609293346

> <JCHEM_POLAR_SURFACE_AREA>
17.07

> <JCHEM_REFRACTIVITY>
47.19330000000001

> <JCHEM_ROTATABLE_BOND_COUNT>
4

> <JCHEM_RULE_OF_FIVE>
1

> <ALOGPS_SOLUBILITY>
5.26e+00 g/l

> <JCHEM_TRADITIONAL_IUPAC>
biotin

> <JCHEM_VEBER_RULE>
1

> <DRUGBANK_ID>
DB02895

> <SECONDARY_ACCESSION_NUMBERS>
EXPT00480

> <DRUG_GROUPS>
experimental

> <GENERIC_NAME>
3-(Prop-2-Ene-1-Sulfinyl)-Propene-1-Thiol

$$$$
