
  Mrv0541 02231217452D          

 10 10  0  0  1  0            999 V2000
    2.1434    2.0625    0.0000 O   0  0  0  0  0  0  0  0  0  0  0  0
    2.1434    1.2375    0.0000 C   0  0  0  0  0  0  0  0  0  0  0  0
    1.4289    0.8250    0.0000 C   0  0  1  0  0  0  0  0  0  0  0  0
    1.4289    0.0000    0.0000 C   0  0  0  0  0  0  0  0  0  0  0  0
    0.7145   -0.4125    0.0000 N   0  0  0  0  0  0  0  0  0  0  0  0
    0.0000    0.0000    0.0000 C   0  0  0  0  0  0  0  0  0  0  0  0
    0.0000    0.8250    0.0000 C   0  0  1  0  0  0  0  0  0  0  0  0
   -0.7145    1.2375    0.0000 O   0  0  0  0  0  0  0  0  0  0  0  0
    0.7145    1.2375    0.0000 C   0  0  2  0  0  0  0  0  0  0  0  0
    0.7145    2.0625    0.0000 O   0  0  0  0  0  0  0  0  0  0  0  0
  1  2  1  0  0  0  0
  3  2  1  1  0  0  0
  3  4  1  0  0  0  0
  4  5  1  0  0  0  0
  5  6  1  0  0  0  0
  6  7  1  0  0  0  0
  7  8  1  1  0  0  0
  7  9  1  0  0  0  0
  3  9  1  0  0  0  0
  9 10  1  6  0  0  0
M  END
> <DATABASE_ID>
DB04545

> <DATABASE_NAME>
drugbank

> <SMILES>
OC[C@H]1CNC[C@@H](O)[C@@H]1O

> <INCHI_IDENTIFIER>
InChI=1S/C6H13NO3/c8-3-4-1-7-2-5(9)6(4)10/h4-10H,1-3H2/t4-,5-,6-/m1/s1

> <INCHI_KEY>
QPYJXFZUIJOGNX-HSUXUTPPSA-N

> <FORMULA>
C6H13NO3

> <MOLECULAR_WEIGHT>
147.1723

> <EXACT_MASS>
147.089543287

> <JCHEM_ACCEPTOR_COUNT>
4

> <JCHEM_ATOM_COUNT>
23

> <JCHEM_AVERAGE_NEUTRAL_MICROSPECIES_CHARGE>
0.9842266341528108

> <JCHEM_AVERAGE_POLARIZABILITY>
14.675669137111438

> <JCHEM_BIOAVAILABILITY>
1

> <JCHEM_DONOR_COUNT>
4

> <JCHEM_FORMAL_CHARGE>
0

> <JCHEM_GHOSE_FILTER>
0

> <JCHEM_IUPAC>
(3R,4R,5R)-5-(hydroxymethyl)piperidine-3,4-diol

> <ALOGPS_LOGP>
-1.69

> <JCHEM_LOGP>
-2.2613894663333336

> <ALOGPS_LOGS>
0.56

> <JCHEM_MDDR_LIKE_RULE>
0

> <JCHEM_NEUTRAL_CHARGE>
1

> <JCHEM_NUMBER_OF_RINGS>
1

> <JCHEM_PHYSIOLOGICAL_CHARGE>
1

> <JCHEM_PKA>
14.830425559559673

> <JCHEM_PKA_STRONGEST_ACIDIC>
13.516851923397239

> <JCHEM_PKA_STRONGEST_BASIC>
8.795179556371812

> <JCHEM_POLAR_SURFACE_AREA>
72.72

> <JCHEM_REFRACTIVITY>
35.4991

> <JCHEM_ROTATABLE_BOND_COUNT>
1

> <JCHEM_RULE_OF_FIVE>
1

> <ALOGPS_SOLUBILITY>
5.38e+02 g/l

> <JCHEM_TRADITIONAL_IUPAC>
biotin

> <JCHEM_VEBER_RULE>
0

> <DRUGBANK_ID>
DB04545

> <SECONDARY_ACCESSION_NUMBERS>
EXPT01847

> <DRUG_GROUPS>
experimental; investigational

> <GENERIC_NAME>
Afegostat

> <SYNONYMS>
(3R,4R,5R)-5-(hydroxymethyl)piperidine-3,4-diol; Afegostat; Isofagomine

> <SALTS>
Afegostat tartrate

$$$$
