
  Mrv0541 05041404502D          

 20 19  0  0  0  0            999 V2000
   -2.8875   -2.1434    0.0000 C   0  0  0  0  0  0  0  0  0  0  0  0
   -2.8875   -0.7145    0.0000 C   0  0  0  0  0  0  0  0  0  0  0  0
   -0.4125    0.7145    0.0000 C   0  0  0  0  0  0  0  0  0  0  0  0
   -1.2375   -0.7145    0.0000 C   0  0  0  0  0  0  0  0  0  0  0  0
   -1.6500   -1.4289    0.0000 C   0  0  0  0  0  0  0  0  0  0  0  0
   -0.4125   -0.7145    0.0000 C   0  0  0  0  0  0  0  0  0  0  0  0
    0.8250    0.0000    0.0000 C   0  0  0  0  0  0  0  0  0  0  0  0
    1.2375    0.7145    0.0000 C   0  0  0  0  0  0  0  0  0  0  0  0
   -2.4750   -1.4289    0.0000 C   0  0  0  0  0  0  0  0  0  0  0  0
    0.0000    0.0000    0.0000 C   0  0  0  0  0  0  0  0  0  0  0  0
    0.8250    4.2868    0.0000 O   0  0  0  0  0  0  0  0  0  0  0  0
    1.9520    3.9849    0.0000 O   0  0  0  0  0  0  0  0  0  0  0  0
    0.5230    3.1599    0.0000 O   0  0  0  0  0  0  0  0  0  0  0  0
    1.9520    1.7309    0.0000 O   0  0  0  0  0  0  0  0  0  0  0  0
    0.5230    2.5559    0.0000 O   0  0  0  0  0  0  0  0  0  0  0  0
    1.6500    2.8579    0.0000 O   0  0  0  0  0  0  0  0  0  0  0  0
    1.2375    3.5724    0.0000 P   0  0  0  0  0  0  0  0  0  0  0  0
    1.2375    2.1434    0.0000 P   0  0  0  0  0  0  0  0  0  0  0  0
    0.8250    1.4289    0.0000 S   0  0  0  0  0  0  0  0  0  0  0  0
    1.2375   -0.7145    0.0000 H   0  0  0  0  0  0  0  0  0  0  0  0
  5  4  1  0  0  0  0
  6  4  1  0  0  0  0
  8  7  1  0  0  0  0
  9  1  1  0  0  0  0
  9  2  1  0  0  0  0
  9  5  2  0  0  0  0
 10  3  1  0  0  0  0
 10  6  1  0  0  0  0
 10  7  2  0  0  0  0
 17 11  1  0  0  0  0
 17 12  1  0  0  0  0
 17 13  2  0  0  0  0
 17 16  1  0  0  0  0
 18 14  1  0  0  0  0
 18 15  2  0  0  0  0
 18 16  1  0  0  0  0
 19  8  1  0  0  0  0
 19 18  1  0  0  0  0
 20  7  1  0  0  0  0
M  END
> <DATABASE_ID>
DB04702

> <DATABASE_NAME>
drugbank

> <SMILES>
[H]\C(CSP(O)(=O)OP(O)(O)=O)=C(\C)CCC=C(C)C

> <INCHI_IDENTIFIER>
InChI=1S/C10H20O6P2S/c1-9(2)5-4-6-10(3)7-8-19-18(14,15)16-17(11,12)13/h5,7H,4,6,8H2,1-3H3,(H,14,15)(H2,11,12,13)/b10-7+

> <INCHI_KEY>
AKIXWSDUEPPMKM-JXMROGBWSA-N

> <FORMULA>
C10H20O6P2S

> <MOLECULAR_WEIGHT>
330.275

> <EXACT_MASS>
330.045582086

> <JCHEM_ACCEPTOR_COUNT>
5

> <JCHEM_ATOM_COUNT>
39

> <JCHEM_AVERAGE_NEUTRAL_MICROSPECIES_CHARGE>
-2.3670431757372223

> <JCHEM_AVERAGE_POLARIZABILITY>
31.14581191354036

> <JCHEM_BIOAVAILABILITY>
1

> <JCHEM_DONOR_COUNT>
3

> <JCHEM_FORMAL_CHARGE>
0

> <JCHEM_GHOSE_FILTER>
1

> <JCHEM_IUPAC>
[({[(2E)-3,7-dimethylocta-2,6-dien-1-yl]sulfanyl}(hydroxy)phosphoryl)oxy]phosphonic acid

> <ALOGPS_LOGP>
1.59

> <JCHEM_LOGP>
2.451962868333333

> <ALOGPS_LOGS>
-2.37

> <JCHEM_MDDR_LIKE_RULE>
0

> <JCHEM_NEUTRAL_CHARGE>
-2

> <JCHEM_NUMBER_OF_RINGS>
0

> <JCHEM_PHYSIOLOGICAL_CHARGE>
-3

> <JCHEM_PKA>
3.4114148348480153

> <JCHEM_PKA_STRONGEST_ACIDIC>
2.033061940688251

> <JCHEM_POLAR_SURFACE_AREA>
104.06000000000002

> <JCHEM_REFRACTIVITY>
79.42679999999999

> <JCHEM_ROTATABLE_BOND_COUNT>
8

> <JCHEM_RULE_OF_FIVE>
1

> <ALOGPS_SOLUBILITY>
1.40e+00 g/l

> <JCHEM_TRADITIONAL_IUPAC>
biotin

> <JCHEM_VEBER_RULE>
0

> <DRUGBANK_ID>
DB04702

> <DRUG_GROUPS>
experimental

> <GENERIC_NAME>
S-[(2E)-3,7-DIMETHYLOCTA-2,6-DIENYL] TRIHYDROGENTHIODIPHOSPHATE

$$$$
