
  Mrv0541 02231216042D          

  8  7  0  0  0  0            999 V2000
   -0.1914    0.7145    0.0000 C   0  0  0  0  0  0  0  0  0  0  0  0
    0.5230    1.1270    0.0000 C   0  0  0  0  0  0  0  0  0  0  0  0
    0.5230    1.9520    0.0000 O   0  0  0  0  0  0  0  0  0  0  0  0
    1.2375    0.7145    0.0000 C   0  0  0  0  0  0  0  0  0  0  0  0
    1.9520    1.1270    0.0000 C   0  0  0  0  0  0  0  0  0  0  0  0
    2.6664    0.7145    0.0000 C   0  0  0  0  0  0  0  0  0  0  0  0
    3.3809    1.1270    0.0000 O   0  0  0  0  0  0  0  0  0  0  0  0
    2.6664   -0.1105    0.0000 O   0  0  0  0  0  0  0  0  0  0  0  0
  1  2  1  0  0  0  0
  2  3  2  0  0  0  0
  2  4  1  0  0  0  0
  4  5  1  0  0  0  0
  5  6  1  0  0  0  0
  6  7  1  0  0  0  0
  6  8  2  0  0  0  0
M  END
> <DATABASE_ID>
DB02239

> <DATABASE_NAME>
drugbank

> <SMILES>
CC(=O)CCC(O)=O

> <INCHI_IDENTIFIER>
InChI=1S/C5H8O3/c1-4(6)2-3-5(7)8/h2-3H2,1H3,(H,7,8)

> <INCHI_KEY>
JOOXCMJARBKPKM-UHFFFAOYSA-N

> <FORMULA>
C5H8O3

> <MOLECULAR_WEIGHT>
116.1152

> <EXACT_MASS>
116.047344122

> <JCHEM_ACCEPTOR_COUNT>
3

> <JCHEM_ATOM_COUNT>
16

> <JCHEM_AVERAGE_NEUTRAL_MICROSPECIES_CHARGE>
-0.9979071449154268

> <JCHEM_AVERAGE_POLARIZABILITY>
11.226704374068705

> <JCHEM_BIOAVAILABILITY>
1

> <JCHEM_DONOR_COUNT>
1

> <JCHEM_FORMAL_CHARGE>
0

> <JCHEM_GHOSE_FILTER>
0

> <JCHEM_IUPAC>
4-oxopentanoic acid

> <ALOGPS_LOGP>
-0.14

> <JCHEM_LOGP>
-0.06885744466666677

> <ALOGPS_LOGS>
0.08

> <JCHEM_MDDR_LIKE_RULE>
0

> <JCHEM_NEUTRAL_CHARGE>
-1

> <JCHEM_NUMBER_OF_RINGS>
0

> <JCHEM_PHYSIOLOGICAL_CHARGE>
-1

> <JCHEM_PKA>
19.627366923008264

> <JCHEM_PKA_STRONGEST_ACIDIC>
4.321649025460565

> <JCHEM_PKA_STRONGEST_BASIC>
-7.2827110371620964

> <JCHEM_POLAR_SURFACE_AREA>
54.37

> <JCHEM_REFRACTIVITY>
27.0881

> <JCHEM_ROTATABLE_BOND_COUNT>
3

> <JCHEM_RULE_OF_FIVE>
1

> <ALOGPS_SOLUBILITY>
1.39e+02 g/l

> <JCHEM_TRADITIONAL_IUPAC>
tetrahydrofolic acid

> <JCHEM_VEBER_RULE>
0

> <DRUGBANK_ID>
DB02239

> <SECONDARY_ACCESSION_NUMBERS>
EXPT02901

> <DRUG_GROUPS>
experimental

> <GENERIC_NAME>
Laevulinic Acid

> <PRODUCTS>
Purus antibacterial wipes

$$$$
