
  Mrv0541 02231216002D          

  5  4  0  0  0  0            999 V2000
    2.4750   -1.4289    0.0000 C   0  0  0  0  0  0  0  0  0  0  0  0
    2.0625   -0.7145    0.0000 C   0  0  0  0  0  0  0  0  0  0  0  0
    1.2375   -0.7145    0.0000 C   0  0  0  0  0  0  0  0  0  0  0  0
    0.8250    0.0000    0.0000 C   0  0  0  0  0  0  0  0  0  0  0  0
    0.0000    0.0000    0.0000 O   0  0  0  0  0  0  0  0  0  0  0  0
  1  2  1  0  0  0  0
  2  3  1  0  0  0  0
  3  4  1  0  0  0  0
  4  5  1  0  0  0  0
M  END
> <DATABASE_ID>
DB02145

> <DATABASE_NAME>
drugbank

> <SMILES>
CCCCO

> <INCHI_IDENTIFIER>
InChI=1S/C4H10O/c1-2-3-4-5/h5H,2-4H2,1H3

> <INCHI_KEY>
LRHPLDYGYMQRHN-UHFFFAOYSA-N

> <FORMULA>
C4H10O

> <MOLECULAR_WEIGHT>
74.1216

> <EXACT_MASS>
74.073164942

> <JCHEM_ACCEPTOR_COUNT>
1

> <JCHEM_ATOM_COUNT>
15

> <JCHEM_AVERAGE_NEUTRAL_MICROSPECIES_CHARGE>
1.026500461821511e-09

> <JCHEM_AVERAGE_POLARIZABILITY>
9.214856371458051

> <JCHEM_BIOAVAILABILITY>
1

> <JCHEM_DONOR_COUNT>
1

> <JCHEM_FORMAL_CHARGE>
0

> <JCHEM_GHOSE_FILTER>
0

> <JCHEM_IUPAC>
butan-1-ol

> <ALOGPS_LOGP>
0.84

> <JCHEM_LOGP>
0.805321946

> <ALOGPS_LOGS>
0.33

> <JCHEM_MDDR_LIKE_RULE>
0

> <JCHEM_NEUTRAL_CHARGE>
0

> <JCHEM_NUMBER_OF_RINGS>
0

> <JCHEM_PHYSIOLOGICAL_CHARGE>
0

> <JCHEM_PKA_STRONGEST_ACIDIC>
16.954258074443697

> <JCHEM_PKA_STRONGEST_BASIC>
-1.944007518238327

> <JCHEM_POLAR_SURFACE_AREA>
20.23

> <JCHEM_REFRACTIVITY>
22.1349

> <JCHEM_ROTATABLE_BOND_COUNT>
2

> <JCHEM_RULE_OF_FIVE>
1

> <ALOGPS_SOLUBILITY>
1.58e+02 g/l

> <JCHEM_TRADITIONAL_IUPAC>
biotin

> <JCHEM_VEBER_RULE>
1

> <DRUGBANK_ID>
DB02145

> <SECONDARY_ACCESSION_NUMBERS>
EXPT00068

> <DRUG_GROUPS>
experimental

> <GENERIC_NAME>
Butyl alcohol

> <SYNONYMS>
1-butanol; Butan-1-ol; Butanol; N-butanol; N-butyl alcohol

$$$$
