
  Mrv0541 02231217352D          

 13 12  0  0  1  0            999 V2000
    1.0461    1.4289    0.0000 O   0  0  0  0  0  0  0  0  0  0  0  0
    1.7605    1.8414    0.0000 C   0  0  0  0  0  0  0  0  0  0  0  0
    2.4750    1.4289    0.0000 C   0  0  2  0  0  0  0  0  0  0  0  0
    2.4750    0.6039    0.0000 O   0  0  0  0  0  0  0  0  0  0  0  0
    3.1895    1.8414    0.0000 C   0  0  1  0  0  0  0  0  0  0  0  0
    3.1895    2.6664    0.0000 O   0  0  0  0  0  0  0  0  0  0  0  0
    3.9039    1.4289    0.0000 C   0  0  2  0  0  0  0  0  0  0  0  0
    3.9039    0.6039    0.0000 O   0  0  0  0  0  0  0  0  0  0  0  0
    4.6184    1.8414    0.0000 C   0  0  2  0  0  0  0  0  0  0  0  0
    4.6184    2.6664    0.0000 O   0  0  0  0  0  0  0  0  0  0  0  0
    5.3329    1.4289    0.0000 C   0  0  0  0  0  0  0  0  0  0  0  0
    6.0474    1.8414    0.0000 O   0  0  0  0  0  0  0  0  0  0  0  0
    5.3329    0.6039    0.0000 O   0  0  0  0  0  0  0  0  0  0  0  0
  1  2  1  0  0  0  0
  2  3  1  0  0  0  0
  3  4  1  1  0  0  0
  3  5  1  0  0  0  0
  5  6  1  1  0  0  0
  5  7  1  0  0  0  0
  7  8  1  1  0  0  0
  7  9  1  0  0  0  0
  9 10  1  6  0  0  0
  9 11  1  0  0  0  0
 11 12  1  0  0  0  0
 11 13  2  0  0  0  0
M  END
> <DATABASE_ID>
DB04304

> <DATABASE_NAME>
drugbank

> <SMILES>
OC[C@H](O)[C@@H](O)[C@H](O)[C@H](O)C(O)=O

> <INCHI_IDENTIFIER>
InChI=1S/C6H12O7/c7-1-2(8)3(9)4(10)5(11)6(12)13/h2-5,7-11H,1H2,(H,12,13)/t2-,3+,4-,5-/m0/s1

> <INCHI_KEY>
RGHNJXZEOKUKBD-QTBDOELSSA-N

> <FORMULA>
C6H12O7

> <MOLECULAR_WEIGHT>
196.1553

> <EXACT_MASS>
196.058302738

> <JCHEM_ACCEPTOR_COUNT>
7

> <JCHEM_ATOM_COUNT>
25

> <JCHEM_AVERAGE_NEUTRAL_MICROSPECIES_CHARGE>
-0.9997589043515737

> <JCHEM_AVERAGE_POLARIZABILITY>
17.205338375255288

> <JCHEM_BIOAVAILABILITY>
1

> <JCHEM_DONOR_COUNT>
6

> <JCHEM_FORMAL_CHARGE>
0

> <JCHEM_GHOSE_FILTER>
0

> <JCHEM_IUPAC>
(2S,3S,4R,5S)-2,3,4,5,6-pentahydroxyhexanoic acid

> <ALOGPS_LOGP>
-2.57

> <JCHEM_LOGP>
-3.4097443106666665

> <ALOGPS_LOGS>
-0.09

> <JCHEM_MDDR_LIKE_RULE>
0

> <JCHEM_NEUTRAL_CHARGE>
-1

> <JCHEM_NUMBER_OF_RINGS>
0

> <JCHEM_PHYSIOLOGICAL_CHARGE>
-1

> <JCHEM_PKA>
12.593710458724514

> <JCHEM_PKA_STRONGEST_ACIDIC>
3.3882055743218547

> <JCHEM_PKA_STRONGEST_BASIC>
-2.974220927705365

> <JCHEM_POLAR_SURFACE_AREA>
138.45000000000002

> <JCHEM_REFRACTIVITY>
38.271

> <JCHEM_ROTATABLE_BOND_COUNT>
5

> <JCHEM_RULE_OF_FIVE>
0

> <ALOGPS_SOLUBILITY>
1.59e+02 g/l

> <JCHEM_TRADITIONAL_IUPAC>
biotin

> <JCHEM_VEBER_RULE>
0

> <DRUGBANK_ID>
DB04304

> <SECONDARY_ACCESSION_NUMBERS>
EXPT01560

> <DRUG_GROUPS>
experimental

> <GENERIC_NAME>
L-Gluconic Acid

> <SYNONYMS>
Xylosecarboxylic acid

$$$$
