
  Mrv0541 02231219232D          

  5  4  0  0  0  0            999 V2000
   16.2523   -9.8275    0.0000 O   0  0  0  0  0  0  0  0  0  0  0  0
   16.6648  -10.5419    0.0000 P   0  0  0  0  0  0  0  0  0  0  0  0
   15.9504  -10.9544    0.0000 O   0  0  0  0  0  0  0  0  0  0  0  0
   17.0773  -11.2564    0.0000 O   0  0  0  0  0  0  0  0  0  0  0  0
   17.3793  -10.1294    0.0000 O   0  0  0  0  0  0  0  0  0  0  0  0
  2  1  2  0  0  0  0
  3  2  1  0  0  0  0
  4  2  1  0  0  0  0
  5  2  1  0  0  0  0
M  END
> <DATABASE_ID>
DB09394

> <DATABASE_NAME>
drugbank

> <SMILES>
OP(O)(O)=O

> <INCHI_IDENTIFIER>
InChI=1S/H3O4P/c1-5(2,3)4/h(H3,1,2,3,4)

> <INCHI_KEY>
NBIIXXVUZAFLBC-UHFFFAOYSA-N

> <FORMULA>
H3O4P

> <MOLECULAR_WEIGHT>
97.9952

> <EXACT_MASS>
97.976895096

> <JCHEM_ACCEPTOR_COUNT>
4

> <JCHEM_ATOM_COUNT>
8

> <JCHEM_AVERAGE_NEUTRAL_MICROSPECIES_CHARGE>
-1.6909402832708205

> <JCHEM_AVERAGE_POLARIZABILITY>
5.80725928154798

> <JCHEM_BIOAVAILABILITY>
1

> <JCHEM_DONOR_COUNT>
3

> <JCHEM_FORMAL_CHARGE>
0

> <JCHEM_GHOSE_FILTER>
0

> <JCHEM_IUPAC>
phosphoric acid

> <JCHEM_LOGP>
-1.0201038226666665

> <JCHEM_MDDR_LIKE_RULE>
0

> <JCHEM_NEUTRAL_CHARGE>
-2

> <JCHEM_NUMBER_OF_RINGS>
0

> <JCHEM_PHYSIOLOGICAL_CHARGE>
-2

> <JCHEM_PKA>
6.951626889535468

> <JCHEM_PKA_STRONGEST_ACIDIC>
1.796126134018132

> <JCHEM_POLAR_SURFACE_AREA>
77.76

> <JCHEM_REFRACTIVITY>
14.651900000000001

> <JCHEM_ROTATABLE_BOND_COUNT>
0

> <JCHEM_RULE_OF_FIVE>
1

> <JCHEM_TRADITIONAL_IUPAC>
biotin

> <JCHEM_VEBER_RULE>
0

> <DRUGBANK_ID>
DB09394

> <DRUG_GROUPS>
approved

> <GENERIC_NAME>
Phosphoric acid

> <PRODUCTS>
Aminosyn; Anti Nausea; Anti Nausea Liquid; Anti Nausea Liquid Cherry Flavor; Best Choice Anti Nausea Cherry Flavor; Butler Protect One Minute Apf Fluoride Gel; CVS Anti Nausea Cherry Flavor; Childrens Emetrol Cherry; Childrens Emetrol Dye Free Grape; Denti-care Acidulated Phosphate Fluoride; Discount Drug Mart nausea control Cherry Flavor; Emetrol Cherry; Emetrol Lemon Mint; Equaline Anti Nausea; Equate Anti Nausea; Formula Em; FreAmine III; Good Neighbor Anti Nausea Cherry Flavor; Good Neighbor Pharmacy Anti Nausea; Good Neighbor Pharmacy Nausea Relief; Good Sense Anti Nausea; Good Sense Nausea Relief; HEB Anti Nausea; Health Mart anti nausea; Henry Schein Minute Topical Fluoride Gel; HepatAmine; Kroger Anti Nausea Cherry Flavor; Leader Anti Nausea; Leader Nausea Relief; Meijer Anti Nausea; Nausea Relief; Nupro Apf Topical Gel; Orthocheck; Pascal Puff; Premier Value Nausea Control Cherry Flavor; ProcalAmine; Select Brand Anti-Nausea; Signature Care Anti Nausea; Smart Sense nausea relief; Sunmark Anti Nausea; Ziroxide Coarse Grit 1.23% Fluoride; Ziroxide Coarse Paste 1.23% Fluoride; Ziroxide Medium Fine Grit 1.23% Fluoride; Ziroxide Medium Fine Paste 1.23% Fluoride

$$$$
