
  Mrv0541 02231215372D          

 17 16  0  0  1  0            999 V2000
    5.1414    1.3184    0.0000 O   0  0  0  0  0  0  0  0  0  0  0  0
    5.1414    2.1434    0.0000 C   0  0  1  0  0  0  0  0  0  0  0  0
    4.4270    2.5559    0.0000 C   0  0  0  0  0  0  0  0  0  0  0  0
    3.7125    2.1434    0.0000 O   0  0  0  0  0  0  0  0  0  0  0  0
    2.9980    2.5559    0.0000 P   0  0  0  0  0  0  0  0  0  0  0  0
    2.2836    2.9684    0.0000 O   0  0  0  0  0  0  0  0  0  0  0  0
    2.5855    1.8414    0.0000 O   0  0  0  0  0  0  0  0  0  0  0  0
    3.4105    3.2704    0.0000 O   0  0  0  0  0  0  0  0  0  0  0  0
    5.8559    2.5559    0.0000 C   0  0  1  0  0  0  0  0  0  0  0  0
    5.8559    3.3809    0.0000 O   0  0  0  0  0  0  0  0  0  0  0  0
    6.5704    2.1434    0.0000 C   0  0  2  0  0  0  0  0  0  0  0  0
    6.5704    1.3184    0.0000 O   0  0  0  0  0  0  0  0  0  0  0  0
    7.2849    2.5559    0.0000 C   0  0  2  0  0  0  0  0  0  0  0  0
    7.2849    3.3809    0.0000 O   0  0  0  0  0  0  0  0  0  0  0  0
    7.9993    2.1434    0.0000 C   0  0  0  0  0  0  0  0  0  0  0  0
    8.7138    2.5559    0.0000 O   0  0  0  0  0  0  0  0  0  0  0  0
    7.9993    1.3184    0.0000 O   0  0  0  0  0  0  0  0  0  0  0  0
  2  1  1  1  0  0  0
  2  3  1  0  0  0  0
  3  4  1  0  0  0  0
  4  5  1  0  0  0  0
  5  6  1  0  0  0  0
  5  7  1  0  0  0  0
  5  8  2  0  0  0  0
  2  9  1  0  0  0  0
  9 10  1  1  0  0  0
  9 11  1  0  0  0  0
 11 12  1  1  0  0  0
 11 13  1  0  0  0  0
 13 14  1  6  0  0  0
 13 15  1  0  0  0  0
 15 16  1  0  0  0  0
 15 17  2  0  0  0  0
M  END
> <DATABASE_ID>
DB01655

> <DATABASE_NAME>
drugbank

> <SMILES>
O[C@@H](COP(O)(O)=O)[C@@H](O)[C@H](O)[C@H](O)C(O)=O

> <INCHI_IDENTIFIER>
InChI=1S/C6H13O10P/c7-2(1-16-17(13,14)15)3(8)4(9)5(10)6(11)12/h2-5,7-10H,1H2,(H,11,12)(H2,13,14,15)/t2-,3+,4-,5-/m0/s1

> <INCHI_KEY>
BIRSGZKFKXLSJQ-QTBDOELSSA-N

> <FORMULA>
C6H13O10P

> <MOLECULAR_WEIGHT>
276.1352

> <EXACT_MASS>
276.024633148

> <JCHEM_ACCEPTOR_COUNT>
9

> <JCHEM_ATOM_COUNT>
30

> <JCHEM_AVERAGE_NEUTRAL_MICROSPECIES_CHARGE>
-2.8582930934315107

> <JCHEM_AVERAGE_POLARIZABILITY>
21.38715334147405

> <JCHEM_BIOAVAILABILITY>
1

> <JCHEM_DONOR_COUNT>
7

> <JCHEM_FORMAL_CHARGE>
0

> <JCHEM_GHOSE_FILTER>
0

> <JCHEM_IUPAC>
(2S,3S,4R,5S)-2,3,4,5-tetrahydroxy-6-(phosphonooxy)hexanoic acid

> <ALOGPS_LOGP>
-2.27

> <JCHEM_LOGP>
-3.533310342

> <ALOGPS_LOGS>
-1.12

> <JCHEM_MDDR_LIKE_RULE>
0

> <JCHEM_NEUTRAL_CHARGE>
-3

> <JCHEM_NUMBER_OF_RINGS>
0

> <JCHEM_PHYSIOLOGICAL_CHARGE>
-3

> <JCHEM_PKA>
3.4439499496677928

> <JCHEM_PKA_STRONGEST_ACIDIC>
1.4859275426968526

> <JCHEM_PKA_STRONGEST_BASIC>
-3.539574960052646

> <JCHEM_POLAR_SURFACE_AREA>
184.98

> <JCHEM_REFRACTIVITY>
49.1439

> <JCHEM_ROTATABLE_BOND_COUNT>
7

> <JCHEM_RULE_OF_FIVE>
0

> <ALOGPS_SOLUBILITY>
2.07e+01 g/l

> <JCHEM_TRADITIONAL_IUPAC>
biotin

> <JCHEM_VEBER_RULE>
0

> <DRUGBANK_ID>
DB01655

> <SECONDARY_ACCESSION_NUMBERS>
EXPT02022

> <DRUG_GROUPS>
experimental

> <GENERIC_NAME>
L-gulonic acid 6-phosphate

> <SYNONYMS>
6-O-phosphono-L-gulonic acid

$$$$
