 
  Mrv0541 07171215202D          
 
 49 51  0  0  1  0            999 V2000
   20.7702  -12.4705    0.0000 C   0  0  2  0  0  0  0  0  0  0  0  0
   20.7702  -13.3024    0.0000 C   0  0  1  0  0  0  0  0  0  0  0  0
   20.0482  -12.0599    0.0000 O   0  0  0  0  0  0  0  0  0  0  0  0
   21.4853  -12.0599    0.0000 O   0  0  0  0  0  0  0  0  0  0  0  0
   20.0482  -13.7200    0.0000 C   0  0  2  0  0  0  0  0  0  0  0  0
   21.5809  -14.0493    0.0000 N   0  0  0  0  0  0  0  0  0  0  0  0
   19.3368  -12.4705    0.0000 C   0  0  1  0  0  0  0  0  0  0  0  0
   22.3100  -12.0599    0.0000 P   0  0  0  0  0  0  0  0  0  0  0  0
   19.3368  -13.3024    0.0000 C   0  0  1  0  0  0  0  0  0  0  0  0
   20.0482  -14.5484    0.0000 O   0  0  0  0  0  0  0  0  0  0  0  0
   21.5809  -14.8774    0.0000 C   0  0  0  0  0  0  0  0  0  0  0  0
   18.6254  -12.0599    0.0000 C   0  0  0  0  0  0  0  0  0  0  0  0
   23.1312  -12.0599    0.0000 O   0  0  0  0  0  0  0  0  0  0  0  0
   22.3100  -11.2352    0.0000 O   0  0  0  0  0  0  0  0  0  0  0  0
   22.3100  -12.8811    0.0000 O   0  0  0  0  0  0  0  0  0  0  0  0
   18.6217  -13.7094    0.0000 O   0  0  0  0  0  0  0  0  0  0  0  0
   19.3332  -14.9554    0.0000 C   0  0  1  0  0  0  0  0  0  0  0  0
   22.2959  -15.2845    0.0000 C   0  0  0  0  0  0  0  0  0  0  0  0
   20.8694  -15.2881    0.0000 O   0  0  0  0  0  0  0  0  0  0  0  0
   18.6183  -11.2103    0.0000 O   0  0  0  0  0  0  0  0  0  0  0  0
   23.9524  -12.0599    0.0000 P   0  0  0  0  0  0  0  0  0  0  0  0
   19.3296  -15.7802    0.0000 C   0  0  0  0  0  0  0  0  0  0  0  0
   18.6217  -14.5447    0.0000 C   0  0  0  0  0  0  0  0  0  0  0  0
   24.7807  -12.0599    0.0000 O   0  0  0  0  0  0  0  0  0  0  0  0
   23.9560  -11.2352    0.0000 O   0  0  0  0  0  0  0  0  0  0  0  0
   23.9524  -12.8811    0.0000 O   0  0  0  0  0  0  0  0  0  0  0  0
   18.4235  -16.4809    0.0000 N   0  0  0  0  0  0  0  0  0  0  0  0
   20.0412  -16.1907    0.0000 O   0  0  0  0  0  0  0  0  0  0  0  0
   24.9577  -12.8669    0.0000 C   0  0  0  0  0  0  0  0  0  0  0  0
   18.4129  -17.2950    0.0000 C   0  0  2  0  0  0  0  0  0  0  0  0
   25.7399  -13.1183    0.0000 C   0  0  1  0  0  0  0  0  0  0  0  0
   17.6236  -17.5641    0.0000 C   0  0  0  0  0  0  0  0  0  0  0  0
   19.1066  -17.7623    0.0000 C   0  0  0  0  0  0  0  0  0  0  0  0
   26.3948  -12.6369    0.0000 O   0  0  0  0  0  0  0  0  0  0  0  0
   26.0054  -13.9005    0.0000 C   0  0  2  0  0  0  0  0  0  0  0  0
   16.9475  -17.0863    0.0000 O   0  0  0  0  0  0  0  0  0  0  0  0
   17.6236  -18.3888    0.0000 O   0  0  0  0  0  0  0  0  0  0  0  0
   27.0709  -13.1324    0.0000 C   0  0  2  0  0  0  0  0  0  0  0  0
   26.8231  -13.9005    0.0000 C   0  0  2  0  0  0  0  0  0  0  0  0
   25.5241  -14.5696    0.0000 O   0  0  0  0  0  0  0  0  0  0  0  0
   27.7150  -11.7908    0.0000 N   0  0  0  0  0  0  0  0  0  0  0  0
   27.3151  -14.5660    0.0000 O   0  0  0  0  0  0  0  0  0  0  0  0
   27.0036  -11.3697    0.0000 C   0  0  0  0  0  0  0  0  0  0  0  0
   28.4372  -11.3697    0.0000 C   0  0  0  0  0  0  0  0  0  0  0  0
   27.0036  -10.5343    0.0000 N   0  0  0  0  0  0  0  0  0  0  0  0
   26.2886  -11.7768    0.0000 O   0  0  0  0  0  0  0  0  0  0  0  0
   28.4372  -10.5343    0.0000 C   0  0  0  0  0  0  0  0  0  0  0  0
   27.7186  -10.1237    0.0000 C   0  0  0  0  0  0  0  0  0  0  0  0
   27.7150   -9.3062    0.0000 O   0  0  0  0  0  0  0  0  0  0  0  0
  1  2  1  0  0  0  0
  1  3  1  0  0  0  0
  1  4  1  6  0  0  0
  2  5  1  0  0  0  0
  2  6  1  6  0  0  0
  3  7  1  0  0  0  0
  4  8  1  0  0  0  0
  5  9  1  0  0  0  0
  5 10  1  1  0  0  0
  6 11  1  0  0  0  0
  7 12  1  1  0  0  0
  8 13  1  0  0  0  0
  8 14  1  0  0  0  0
  8 15  2  0  0  0  0
  9 16  1  6  0  0  0
 10 17  1  0  0  0  0
 11 18  1  0  0  0  0
 11 19  2  0  0  0  0
 12 20  1  0  0  0  0
 13 21  1  0  0  0  0
 17 22  1  0  0  0  0
 17 23  1  1  0  0  0
 21 24  1  0  0  0  0
 21 25  1  0  0  0  0
 21 26  2  0  0  0  0
 22 27  1  0  0  0  0
 22 28  2  0  0  0  0
 24 29  1  0  0  0  0
 30 27  1  1  0  0  0
 31 29  1  1  0  0  0
 30 32  1  0  0  0  0
 30 33  1  0  0  0  0
 31 34  1  0  0  0  0
 31 35  1  0  0  0  0
 32 36  1  0  0  0  0
 32 37  2  0  0  0  0
 34 38  1  0  0  0  0
 35 39  1  0  0  0  0
 35 40  1  6  0  0  0
 38 41  1  1  0  0  0
 39 42  1  6  0  0  0
 41 43  1  0  0  0  0
 41 44  1  0  0  0  0
 43 45  1  0  0  0  0
 43 46  2  0  0  0  0
 44 47  2  0  0  0  0
 45 48  1  0  0  0  0
 48 49  2  0  0  0  0
  7  9  1  0  0  0  0
 38 39  1  0  0  0  0
 47 48  1  0  0  0  0
M  END
> <DATABASE_ID>
DB01673

> <DATABASE_NAME>
drugbank

> <SMILES>
C[C@H](NC(=O)[C@@H](C)O[C@H]1[C@H](O)[C@@H](CO)O[C@H](OP(O)(=O)OP(O)(=O)OC[C@H]2O[C@H]([C@H](O)[C@@H]2O)N2C=CC(=O)NC2=O)[C@@H]1NC(C)=O)C(O)=O

> <INCHI_IDENTIFIER>
InChI=1S/C23H36N4O20P2/c1-8(21(35)36)24-19(34)9(2)43-18-14(25-10(3)29)22(45-11(6-28)16(18)32)46-49(40,41)47-48(38,39)42-7-12-15(31)17(33)20(44-12)27-5-4-13(30)26-23(27)37/h4-5,8-9,11-12,14-18,20,22,28,31-33H,6-7H2,1-3H3,(H,24,34)(H,25,29)(H,35,36)(H,38,39)(H,40,41)(H,26,30,37)/t8-,9+,11+,12+,14+,15+,16+,17+,18+,20+,22+/m0/s1

> <INCHI_KEY>
NTMMCWJNQNKACG-KBKUWGQMSA-N

> <FORMULA>
C23H36N4O20P2

> <MOLECULAR_WEIGHT>
750.4943

> <EXACT_MASS>
750.139812636

> <JCHEM_ACCEPTOR_COUNT>
17

> <JCHEM_ATOM_COUNT>
85

> <JCHEM_AVERAGE_NEUTRAL_MICROSPECIES_CHARGE>
-3.001626248828702

> <JCHEM_AVERAGE_POLARIZABILITY>
64.42378933552737

> <JCHEM_BIOAVAILABILITY>
0

> <JCHEM_DONOR_COUNT>
10

> <JCHEM_FORMAL_CHARGE>
0

> <JCHEM_GHOSE_FILTER>
0

> <JCHEM_IUPAC>
(2S)-2-[(2R)-2-{[(2R,3R,4R,5S,6R)-2-({[({[(2R,3S,4R,5R)-5-(2,4-dioxo-1,2,3,4-tetrahydropyrimidin-1-yl)-3,4-dihydroxyoxolan-2-yl]methoxy}(hydroxy)phosphoryl)oxy](hydroxy)phosphoryl}oxy)-3-acetamido-5-hydroxy-6-(hydroxymethyl)oxan-4-yl]oxy}propanamido]propanoic acid

> <ALOGPS_LOGP>
-1.36

> <JCHEM_LOGP>
-5.131288215333333

> <ALOGPS_LOGS>
-1.89

> <JCHEM_MDDR_LIKE_RULE>
1

> <JCHEM_NEUTRAL_CHARGE>
-3

> <JCHEM_NUMBER_OF_RINGS>
3

> <JCHEM_PHYSIOLOGICAL_CHARGE>
-3

> <JCHEM_PKA>
3.0127897487949733

> <JCHEM_PKA_STRONGEST_ACIDIC>
1.729542764115392

> <JCHEM_PKA_STRONGEST_BASIC>
-3.6645433628414152

> <JCHEM_POLAR_SURFACE_AREA>
355.80999999999995

> <JCHEM_REFRACTIVITY>
150.1842

> <JCHEM_ROTATABLE_BOND_COUNT>
15

> <JCHEM_RULE_OF_FIVE>
0

> <ALOGPS_SOLUBILITY>
9.58e+00 g/l

> <JCHEM_TRADITIONAL_IUPAC>
biotin

> <JCHEM_VEBER_RULE>
0

> <DRUGBANK_ID>
DB01673

> <SECONDARY_ACCESSION_NUMBERS>
EXPT03184

> <DRUG_GROUPS>
experimental

> <GENERIC_NAME>
Uridine-5'-Diphosphate-N-Acetylmuramoyl-L-Alanine

$$$$
