
  Mrv0541 05041402362D          

 45 52  0  0  0  0            999 V2000
    0.9924    0.9249    0.0000 C   0  0  0  0  0  0  0  0  0  0  0  0
    5.1913   -3.5672    0.0000 C   0  0  0  0  0  0  0  0  0  0  0  0
    3.1689    0.7172    0.0000 C   0  0  0  0  0  0  0  0  0  0  0  0
    7.8492    0.7145    0.0000 C   0  0  0  0  0  0  0  0  0  0  0  0
    4.9560   -0.5506    0.0000 C   0  0  0  0  0  0  0  0  0  0  0  0
    7.6349   -1.9568    0.0000 C   0  0  0  0  0  0  0  0  0  0  0  0
    0.8388   -0.9079    0.0000 C   0  0  0  0  0  0  0  0  0  0  0  0
    3.3545   -3.4713    0.0000 C   0  0  0  0  0  0  0  0  0  0  0  0
    0.0445   -0.6229    0.0000 C   0  0  0  0  0  0  0  0  0  0  0  0
    3.5360   -4.2959    0.0000 C   0  0  0  0  0  0  0  0  0  0  0  0
    2.9495    1.4992    0.0000 C   0  0  0  0  0  0  0  0  0  0  0  0
    5.7385   -1.6795    0.0000 C   0  0  0  0  0  0  0  0  0  0  0  0
    5.9333    1.3044    0.0000 C   0  0  0  0  0  0  0  0  0  0  0  0
    2.7546   -1.4847    0.0000 C   0  0  0  0  0  0  0  0  0  0  0  0
    1.6294    0.3584    0.0000 C   0  0  0  0  0  0  0  0  0  0  0  0
    4.7186   -2.8585    0.0000 C   0  0  0  0  0  0  0  0  0  0  0  0
    3.8671    1.1123    0.0000 C   0  0  0  0  0  0  0  0  0  0  0  0
    7.1124    0.2845    0.0000 C   0  0  0  0  0  0  0  0  0  0  0  0
    4.9658    0.2689    0.0000 C   0  0  0  0  0  0  0  0  0  0  0  0
    7.7374   -1.1162    0.0000 C   0  0  0  0  0  0  0  0  0  0  0  0
    1.5756   -0.4648    0.0000 C   0  0  0  0  0  0  0  0  0  0  0  0
    3.8954   -2.8048    0.0000 C   0  0  0  0  0  0  0  0  0  0  0  0
    2.4289    0.5617    0.0000 C   0  0  0  0  0  0  0  0  0  0  0  0
    5.0241   -2.0922    0.0000 C   0  0  0  0  0  0  0  0  0  0  0  0
    3.6638    1.9119    0.0000 C   0  0  0  0  0  0  0  0  0  0  0  0
    6.3460    0.5900    0.0000 C   0  0  0  0  0  0  0  0  0  0  0  0
    2.3420   -0.7703    0.0000 C   0  0  0  0  0  0  0  0  0  0  0  0
    3.6921   -2.0052    0.0000 C   0  0  0  0  0  0  0  0  0  0  0  0
    6.2590   -0.7421    0.0000 C   0  0  0  0  0  0  0  0  0  0  0  0
    4.9959    1.8249    0.0000 C   0  0  0  0  0  0  0  0  0  0  0  0
   -0.1026    0.1889    0.0000 C   0  0  0  0  0  0  0  0  0  0  0  0
    4.3225   -4.5452    0.0000 C   0  0  0  0  0  0  0  0  0  0  0  0
    4.6904    1.0585    0.0000 C   0  0  0  0  0  0  0  0  0  0  0  0
    7.0586   -0.5388    0.0000 C   0  0  0  0  0  0  0  0  0  0  0  0
    4.3598    0.1518    0.0000 Fe  0  0  0  0  0  0  0  0  0  0  0  0
    2.8693   -0.1359    0.0000 N   0  0  0  0  0  0  0  0  0  0  0  0
    4.3897   -1.5648    0.0000 N   0  0  0  0  0  0  0  0  0  0  0  0
    4.3615    2.3523    0.0000 N   0  0  0  0  0  0  0  0  0  0  0  0
    5.8186   -0.0444    0.0000 N   0  0  0  0  0  0  0  0  0  0  0  0
    5.6416    0.8217    0.0000 O   0  0  0  0  0  0  0  0  0  0  0  0
    8.5868   -0.8683    0.0000 O   0  0  0  0  0  0  0  0  0  0  0  0
   -0.8791    0.4674    0.0000 O   0  0  0  0  0  0  0  0  0  0  0  0
    0.5269    0.7221    0.0000 O   0  0  0  0  0  0  0  0  0  0  0  0
    4.9315   -3.9887    0.0000 O   0  0  0  0  0  0  0  0  0  0  0  0
    4.4998   -5.3509    0.0000 O   0  0  0  0  0  0  0  0  0  0  0  0
  9  7  1  0  0  0  0
 10  8  1  0  0  0  0
 15  1  1  0  0  0  0
 16  2  1  0  0  0  0
 17  3  1  0  0  0  0
 18  4  1  0  0  0  0
 19  5  2  0  0  0  0
 20  6  1  0  0  0  0
 21  7  1  0  0  0  0
 21 15  2  0  0  0  0
 22  8  1  0  0  0  0
 22 16  1  0  0  0  0
 23 11  2  0  0  0  0
 23 15  1  0  0  0  0
 24 12  1  0  0  0  0
 24 16  2  0  0  0  0
 25 11  1  0  0  0  0
 25 17  2  0  0  0  0
 26 13  2  0  0  0  0
 26 18  1  0  0  0  0
 27 14  2  0  0  0  0
 27 21  1  0  0  0  0
 28 14  1  0  0  0  0
 28 22  2  0  0  0  0
 29 12  2  0  0  0  0
 30 13  1  0  0  0  0
 31  9  1  0  0  0  0
 32 10  1  0  0  0  0
 33 17  1  0  0  0  0
 33 19  1  0  0  0  0
 33 30  2  0  0  0  0
 34 18  2  0  0  0  0
 34 20  1  0  0  0  0
 34 29  1  0  0  0  0
 36 23  1  0  0  0  0
 36 27  1  0  0  0  0
 36 35  1  0  0  0  0
 37 24  1  0  0  0  0
 37 28  1  0  0  0  0
 37 35  1  0  0  0  0
 38 25  1  0  0  0  0
 38 30  1  0  0  0  0
 38 35  1  0  0  0  0
 39 26  1  0  0  0  0
 39 29  1  0  0  0  0
 39 35  1  0  0  0  0
 40 19  1  0  0  0  0
 41 20  2  0  0  0  0
 42 31  1  0  0  0  0
 43 31  2  0  0  0  0
 44 32  1  0  0  0  0
 45 32  2  0  0  0  0
M  END
> <DATABASE_ID>
DB03418

> <DATABASE_NAME>
drugbank

> <SMILES>
CC(=O)C1=C(C)C2=CC3=C(C(O)=C)C(C)=C4C=C5N6C(=CC7=C(CCC(O)=O)C(C)=C8C=C1N2[Fe]6(N78)N34)C(CCC(O)=O)=C5C

> <INCHI_IDENTIFIER>
InChI=1S/C34H35N4O6.Fe/c1-15-21(7-9-31(41)42)27-14-28-22(8-10-32(43)44)16(2)24(36-28)12-29-34(20(6)40)18(4)26(38-29)13-30-33(19(5)39)17(3)25(37-30)11-23(15)35-27;/h11-14H,5,7-10H2,1-4,6H3,(H6-,35,36,37,38,39,40,41,42,43,44);/q-1;+4/p-3/b23-11-,24-12-,25-11-,26-13-,27-14-,28-14-,29-12-,30-13-;

> <INCHI_KEY>
YTEJZYYPHLALHQ-IDTMDVKXSA-K

> <FORMULA>
C34H32FeN4O6

> <MOLECULAR_WEIGHT>
648.486

> <EXACT_MASS>
648.167126909

> <JCHEM_ACCEPTOR_COUNT>
6

> <JCHEM_ATOM_COUNT>
77

> <JCHEM_AVERAGE_NEUTRAL_MICROSPECIES_CHARGE>
-2.0001167654416663

> <JCHEM_AVERAGE_POLARIZABILITY>
71.33157824220315

> <JCHEM_BIOAVAILABILITY>
0

> <JCHEM_DONOR_COUNT>
3

> <JCHEM_FORMAL_CHARGE>
0

> <JCHEM_GHOSE_FILTER>
0

> <JCHEM_IUPAC>
3-[15-acetyl-20-(2-carboxyethyl)-10-(1-hydroxyethenyl)-5,9,14,19-tetramethyl-2,22,23,25-tetraaza-1-ferraoctacyclo[11.9.1.1^{1,8}.1^{3,21}.0^{2,6}.0^{16,23}.0^{18,22}.0^{11,25}]pentacosa-3(24),4,6,8,10,12,14,16,18,20-decaen-4-yl]propanoic acid

> <ALOGPS_LOGP>
3.67

> <JCHEM_LOGP>
5.305899999999999

> <ALOGPS_LOGS>
-3.03

> <JCHEM_MDDR_LIKE_RULE>
1

> <JCHEM_NEUTRAL_CHARGE>
-2

> <JCHEM_NUMBER_OF_RINGS>
8

> <JCHEM_PHYSIOLOGICAL_CHARGE>
-2

> <JCHEM_PKA>
4.253356607046758

> <JCHEM_PKA_STRONGEST_ACIDIC>
3.650638510208709

> <JCHEM_PKA_STRONGEST_BASIC>
-5.060894024267415

> <JCHEM_POLAR_SURFACE_AREA>
131.62

> <JCHEM_REFRACTIVITY>
172.37820000000008

> <JCHEM_ROTATABLE_BOND_COUNT>
8

> <JCHEM_RULE_OF_FIVE>
0

> <ALOGPS_SOLUBILITY>
6.01e-01 g/l

> <JCHEM_TRADITIONAL_IUPAC>
tetrahydrofolic acid

> <JCHEM_VEBER_RULE>
0

> <DRUGBANK_ID>
DB03418

> <SECONDARY_ACCESSION_NUMBERS>
EXPT01144

> <DRUG_GROUPS>
experimental

> <GENERIC_NAME>
Diacetyldeuteroheme

$$$$
