
  Mrv0541 05041409062D          

 19 21  0  0  0  0            999 V2000
    4.0668    0.6979    0.0000 C   0  0  0  0  0  0  0  0  0  0  0  0
    4.7812    1.1104    0.0000 C   0  0  0  0  0  0  0  0  0  0  0  0
    3.3523    3.5854    0.0000 C   0  0  0  0  0  0  0  0  0  0  0  0
    3.3523    1.9354    0.0000 C   0  0  0  0  0  0  0  0  0  0  0  0
    5.4957    2.3479    0.0000 C   0  0  0  0  0  0  0  0  0  0  0  0
    1.3683    2.7604    0.0000 C   0  0  0  0  0  0  0  0  0  0  0  0
    4.0668    3.1729    0.0000 C   0  0  0  0  0  0  0  0  0  0  0  0
    5.4957    3.1729    0.0000 C   0  0  0  0  0  0  0  0  0  0  0  0
    4.0668    2.3479    0.0000 C   0  0  0  0  0  0  0  0  0  0  0  0
    2.6378    3.1729    0.0000 C   0  0  0  0  0  0  0  0  0  0  0  0
    2.6378    2.3479    0.0000 C   0  0  0  0  0  0  0  0  0  0  0  0
    4.7812    3.5854    0.0000 C   0  0  0  0  0  0  0  0  0  0  0  0
    6.2102    3.5854    0.0000 C   0  0  0  0  0  0  0  0  0  0  0  0
    4.7812    1.9354    0.0000 N   0  0  0  0  0  0  0  0  0  0  0  0
    4.7812    4.4104    0.0000 O   0  0  0  0  0  0  0  0  0  0  0  0
    6.2102    4.4104    0.0000 O   0  0  0  0  0  0  0  0  0  0  0  0
    6.9246    3.1729    0.0000 O   0  0  0  0  0  0  0  0  0  0  0  0
    1.8532    3.4279    0.0000 O   0  0  0  0  0  0  0  0  0  0  0  0
    1.8532    2.0930    0.0000 O   0  0  0  0  0  0  0  0  0  0  0  0
  2  1  1  0  0  0  0
  7  3  2  0  0  0  0
  8  5  2  0  0  0  0
  9  4  2  0  0  0  0
  9  7  1  0  0  0  0
 10  3  1  0  0  0  0
 11  4  1  0  0  0  0
 11 10  2  0  0  0  0
 12  7  1  0  0  0  0
 12  8  1  0  0  0  0
 13  8  1  0  0  0  0
 14  2  1  0  0  0  0
 14  5  1  0  0  0  0
 14  9  1  0  0  0  0
 15 12  2  0  0  0  0
 16 13  2  0  0  0  0
 17 13  1  0  0  0  0
 18  6  1  0  0  0  0
 18 10  1  0  0  0  0
 19  6  1  0  0  0  0
 19 11  1  0  0  0  0
M  END
> <DATABASE_ID>
DB13627

> <DATABASE_NAME>
drugbank

> <SMILES>
CCN1C=C(C(O)=O)C(=O)C2=CC3=C(OCO3)C=C12

> <INCHI_IDENTIFIER>
InChI=1S/C13H11NO5/c1-2-14-5-8(13(16)17)12(15)7-3-10-11(4-9(7)14)19-6-18-10/h3-5H,2,6H2,1H3,(H,16,17)

> <INCHI_KEY>
KYGZCKSPAKDVKC-UHFFFAOYSA-N

> <FORMULA>
C13H11NO5

> <MOLECULAR_WEIGHT>
261.2301

> <EXACT_MASS>
261.063722467

> <JCHEM_ACCEPTOR_COUNT>
6

> <JCHEM_ATOM_COUNT>
30

> <JCHEM_AVERAGE_NEUTRAL_MICROSPECIES_CHARGE>
-0.9761580373523456

> <JCHEM_AVERAGE_POLARIZABILITY>
25.521231313748117

> <JCHEM_BIOAVAILABILITY>
1

> <JCHEM_DONOR_COUNT>
1

> <JCHEM_FORMAL_CHARGE>
0

> <JCHEM_GHOSE_FILTER>
1

> <JCHEM_IUPAC>
5-ethyl-8-oxo-2H,5H,8H-[1,3]dioxolo[4,5-g]quinoline-7-carboxylic acid

> <ALOGPS_LOGP>
0.86

> <JCHEM_LOGP>
1.3531468610000004

> <ALOGPS_LOGS>
-2.14

> <JCHEM_MDDR_LIKE_RULE>
0

> <JCHEM_NEUTRAL_CHARGE>
-1

> <JCHEM_NUMBER_OF_RINGS>
3

> <JCHEM_PHYSIOLOGICAL_CHARGE>
-1

> <JCHEM_PKA_STRONGEST_ACIDIC>
5.387821869089949

> <JCHEM_PKA_STRONGEST_BASIC>
-4.282722549605604

> <JCHEM_POLAR_SURFACE_AREA>
76.07000000000001

> <JCHEM_REFRACTIVITY>
65.84330000000001

> <JCHEM_ROTATABLE_BOND_COUNT>
2

> <JCHEM_RULE_OF_FIVE>
1

> <ALOGPS_SOLUBILITY>
1.91e+00 g/l

> <JCHEM_TRADITIONAL_IUPAC>
biotin

> <JCHEM_VEBER_RULE>
0

> <DRUGBANK_ID>
DB13627

> <DRUG_GROUPS>
experimental

> <GENERIC_NAME>
Oxolinic acid

> <SYNONYMS>
ácido oxolínico; Oxolinic acid

$$$$
