
  Mrv0541 05041403292D          

 47 52  0  0  1  0            999 V2000
   -2.1619   -0.0024    0.0000 C   0  0  0  0  0  0  0  0  0  0  0  0
   -0.7408    0.1470    0.0000 C   0  0  0  0  0  0  0  0  0  0  0  0
   -8.2485   -5.5443    0.0000 C   0  0  0  0  0  0  0  0  0  0  0  0
   -7.3418   -6.2786    0.0000 C   0  0  0  0  0  0  0  0  0  0  0  0
   -7.5142   -4.6376    0.0000 C   0  0  0  0  0  0  0  0  0  0  0  0
   -3.6007   -2.8141    0.0000 C   0  0  0  0  0  0  0  0  0  0  0  0
   -6.1226   -6.0393    0.0000 C   0  0  0  0  0  0  0  0  0  0  0  0
   -5.3021   -5.9531    0.0000 C   0  0  0  0  0  0  0  0  0  0  0  0
   -3.5145   -3.6345    0.0000 C   0  0  0  0  0  0  0  0  0  0  0  0
   -2.8042   -1.5143    0.0000 C   0  0  0  0  0  0  0  0  0  0  0  0
   -2.1185   -2.4582    0.0000 C   0  0  0  0  0  0  0  0  0  0  0  0
   -6.2720   -4.6182    0.0000 C   0  0  0  0  0  0  0  0  0  0  0  0
   -0.5683   -1.4940    0.0000 C   0  0  0  0  0  0  0  0  0  0  0  0
    3.3523    1.1104    0.0000 C   0  0  0  0  0  0  0  0  0  0  0  0
    0.6538    1.5229    0.0000 C   0  0  0  0  0  0  0  0  0  0  0  0
   -1.4082   -0.3379    0.0000 C   0  0  0  0  0  0  0  0  0  0  0  0
   -2.9333   -2.3291    0.0000 C   0  0  2  0  0  0  0  0  0  0  0  0
   -6.6075   -5.3719    0.0000 C   0  0  0  0  0  0  0  0  0  0  0  0
   -1.9894   -1.6433    0.0000 C   0  0  1  0  0  0  0  0  0  0  0  0
   -4.9666   -5.1994    0.0000 C   0  0  0  0  0  0  0  0  0  0  0  0
   -5.4515   -4.5320    0.0000 C   0  0  0  0  0  0  0  0  0  0  0  0
    0.0992   -1.0091    0.0000 C   0  0  2  0  0  0  0  0  0  0  0  0
   -4.1819   -4.1195    0.0000 C   0  0  0  0  0  0  0  0  0  0  0  0
    1.9233    1.9354    0.0000 C   0  0  0  0  0  0  0  0  0  0  0  0
    0.8838   -1.2640    0.0000 C   0  0  2  0  0  0  0  0  0  0  0  0
    1.3687   -0.5966    0.0000 C   0  0  2  0  0  0  0  0  0  0  0  0
    2.6378    2.3479    0.0000 C   0  0  0  0  0  0  0  0  0  0  0  0
    1.9233    1.1104    0.0000 C   0  0  0  0  0  0  0  0  0  0  0  0
    0.8838    0.0709    0.0000 C   0  0  2  0  0  0  0  0  0  0  0  0
   -7.4280   -5.4581    0.0000 C   0  0  0  0  0  0  0  0  0  0  0  0
    2.6378    3.1729    0.0000 N   0  0  0  0  0  0  0  0  0  0  0  0
    3.3523    1.9354    0.0000 N   0  0  0  0  0  0  0  0  0  0  0  0
    2.6378    0.6979    0.0000 N   0  0  0  0  0  0  0  0  0  0  0  0
    1.1387    2.1904    0.0000 N   0  0  0  0  0  0  0  0  0  0  0  0
   -4.1819   -4.9445    0.0000 N   0  0  0  0  0  0  0  0  0  0  0  0
   -4.9666   -3.8645    0.0000 N   0  0  0  0  0  0  0  0  0  0  0  0
   -1.3220   -1.1584    0.0000 N   0  0  0  0  0  0  0  0  0  0  0  0
    1.1387    0.8555    0.0000 N   0  0  0  0  0  0  0  0  0  0  0  0
    1.1387   -2.0486    0.0000 O   0  0  0  0  0  0  0  0  0  0  0  0
    2.1937   -0.5966    0.0000 O   0  0  0  0  0  0  0  0  0  0  0  0
    0.0992   -0.1841    0.0000 O   0  0  0  0  0  0  0  0  0  0  0  0
   -3.6367   -1.8981    0.0000 H   0  0  0  0  0  0  0  0  0  0  0  0
   -2.1820   -0.8411    0.0000 H   0  0  0  0  0  0  0  0  0  0  0  0
    0.4991   -1.7306    0.0000 H   0  0  0  0  0  0  0  0  0  0  0  0
    0.5351   -2.0117    0.0000 H   0  0  0  0  0  0  0  0  0  0  0  0
    1.7432   -1.3316    0.0000 H   0  0  0  0  0  0  0  0  0  0  0  0
    1.6986    0.1999    0.0000 H   0  0  0  0  0  0  0  0  0  0  0  0
  8  7  2  0  0  0  0
  9  6  1  0  0  0  0
 16  1  1  0  0  0  0
 16  2  1  0  0  0  0
 17  6  1  6  0  0  0
 17 10  1  0  0  0  0
 17 11  1  0  0  0  0
 18  7  1  0  0  0  0
 18 12  2  0  0  0  0
 19 10  1  0  0  0  0
 19 11  1  0  0  0  0
 20  8  1  0  0  0  0
 21 12  1  0  0  0  0
 21 20  2  0  0  0  0
 22 13  1  1  0  0  0
 23  9  1  0  0  0  0
 25 22  1  0  0  0  0
 26 25  1  0  0  0  0
 27 24  2  0  0  0  0
 28 24  1  0  0  0  0
 29 26  1  0  0  0  0
 30  3  1  0  0  0  0
 30  4  1  0  0  0  0
 30  5  1  0  0  0  0
 30 18  1  0  0  0  0
 31 27  1  0  0  0  0
 32 14  2  0  0  0  0
 32 27  1  0  0  0  0
 33 14  1  0  0  0  0
 33 28  2  0  0  0  0
 34 15  2  0  0  0  0
 34 24  1  0  0  0  0
 35 20  1  0  0  0  0
 35 23  2  0  0  0  0
 36 21  1  0  0  0  0
 36 23  1  0  0  0  0
 37 13  1  0  0  0  0
 37 16  1  0  0  0  0
 19 37  1  6  0  0  0
 38 15  1  0  0  0  0
 38 28  1  0  0  0  0
 29 38  1  1  0  0  0
 25 39  1  6  0  0  0
 26 40  1  6  0  0  0
 41 22  1  0  0  0  0
 41 29  1  0  0  0  0
 17 42  1  1  0  0  0
 19 43  1  1  0  0  0
 22 44  1  6  0  0  0
 25 45  1  1  0  0  0
 26 46  1  1  0  0  0
 29 47  1  6  0  0  0
M  END
> <DATABASE_ID>
DB12920

> <DATABASE_NAME>
drugbank

> <SMILES>
[H][C@]1(CCC2=NC3=C(N2)C=C(C=C3)C(C)(C)C)C[C@]([H])(C1)N(C[C@@]1([H])O[C@@]([H])(N2C=NC3=C(N)N=CN=C23)[C@]([H])(O)[C@]1([H])O)C(C)C

> <INCHI_IDENTIFIER>
InChI=1S/C30H42N8O3/c1-16(2)37(13-22-25(39)26(40)29(41-22)38-15-34-24-27(31)32-14-33-28(24)38)19-10-17(11-19)6-9-23-35-20-8-7-18(30(3,4)5)12-21(20)36-23/h7-8,12,14-17,19,22,25-26,29,39-40H,6,9-11,13H2,1-5H3,(H,35,36)(H2,31,32,33)/t17-,19+,22-,25-,26-,29-/m1/s1

> <INCHI_KEY>
LXFOLMYKSYSZQS-LURJZOHASA-N

> <FORMULA>
C30H42N8O3

> <MOLECULAR_WEIGHT>
562.7063

> <EXACT_MASS>
562.33798725

> <JCHEM_ACCEPTOR_COUNT>
9

> <JCHEM_ATOM_COUNT>
83

> <JCHEM_AVERAGE_NEUTRAL_MICROSPECIES_CHARGE>
1.175796445739314

> <JCHEM_AVERAGE_POLARIZABILITY>
63.34033835492532

> <JCHEM_BIOAVAILABILITY>
1

> <JCHEM_DONOR_COUNT>
4

> <JCHEM_FORMAL_CHARGE>
0

> <JCHEM_GHOSE_FILTER>
0

> <JCHEM_IUPAC>
(2R,3R,4S,5R)-2-(6-amino-9H-purin-9-yl)-5-{[(propan-2-yl)[(1r,3s)-3-[2-(6-tert-butyl-1H-1,3-benzodiazol-2-yl)ethyl]cyclobutyl]amino]methyl}oxolane-3,4-diol

> <ALOGPS_LOGP>
3.67

> <JCHEM_LOGP>
3.3081842196666633

> <ALOGPS_LOGS>
-4.49

> <JCHEM_MDDR_LIKE_RULE>
1

> <JCHEM_NEUTRAL_CHARGE>
1

> <JCHEM_NUMBER_OF_RINGS>
6

> <JCHEM_PHYSIOLOGICAL_CHARGE>
1

> <JCHEM_PKA>
12.867002756608137

> <JCHEM_PKA_STRONGEST_ACIDIC>
12.259732900151791

> <JCHEM_PKA_STRONGEST_BASIC>
9.047740221460923

> <JCHEM_POLAR_SURFACE_AREA>
151.23

> <JCHEM_REFRACTIVITY>
156.74939999999998

> <JCHEM_ROTATABLE_BOND_COUNT>
9

> <JCHEM_RULE_OF_FIVE>
0

> <ALOGPS_SOLUBILITY>
1.81e-02 g/l

> <JCHEM_TRADITIONAL_IUPAC>
tetrahydrofolic acid

> <JCHEM_VEBER_RULE>
0

> <DRUGBANK_ID>
DB12920

> <DRUG_GROUPS>
investigational

> <GENERIC_NAME>
Pinometostat

> <SYNONYMS>
Pinometostat

$$$$
