
  Mrv0541 02231217062D          

  8  7  0  0  0  0            999 V2000
    2.0625    0.7145    0.0000 O   0  0  0  0  0  0  0  0  0  0  0  0
    1.2375    0.7145    0.0000 C   0  0  0  0  0  0  0  0  0  0  0  0
    0.8250    1.4289    0.0000 C   0  0  0  0  0  0  0  0  0  0  0  0
    1.2375    2.1434    0.0000 O   0  5  0  0  0  0  0  0  0  0  0  0
    0.0000    1.4289    0.0000 O   0  0  0  0  0  0  0  0  0  0  0  0
    0.8250    0.0000    0.0000 C   0  0  0  0  0  0  0  0  0  0  0  0
    1.2375   -0.7145    0.0000 O   0  5  0  0  0  0  0  0  0  0  0  0
    0.0000    0.0000    0.0000 O   0  0  0  0  0  0  0  0  0  0  0  0
  1  2  1  0  0  0  0
  2  3  1  0  0  0  0
  3  4  1  0  0  0  0
  3  5  2  0  0  0  0
  2  6  1  0  0  0  0
  6  7  1  0  0  0  0
  6  8  2  0  0  0  0
M  CHG  2   4  -1   7  -1
M  END
> <DATABASE_ID>
DB03680

> <DATABASE_NAME>
drugbank

> <SMILES>
OC(C([O-])=O)C([O-])=O

> <INCHI_IDENTIFIER>
InChI=1S/C3H4O5/c4-1(2(5)6)3(7)8/h1,4H,(H,5,6)(H,7,8)/p-2

> <INCHI_KEY>
ROBFUDYVXSDBQM-UHFFFAOYSA-L

> <FORMULA>
C3H2O5

> <MOLECULAR_WEIGHT>
118.045

> <EXACT_MASS>
117.990223174

> <JCHEM_ACCEPTOR_COUNT>
5

> <JCHEM_ATOM_COUNT>
10

> <JCHEM_AVERAGE_NEUTRAL_MICROSPECIES_CHARGE>
-1.996902744250471

> <JCHEM_AVERAGE_POLARIZABILITY>
8.163450856924378

> <JCHEM_BIOAVAILABILITY>
1

> <JCHEM_DONOR_COUNT>
1

> <JCHEM_FORMAL_CHARGE>
-2

> <JCHEM_GHOSE_FILTER>
0

> <JCHEM_IUPAC>
2-hydroxypropanedioate

> <ALOGPS_LOGP>
-0.92

> <JCHEM_LOGP>
-1.0462757289999998

> <ALOGPS_LOGS>
0.55

> <JCHEM_MDDR_LIKE_RULE>
0

> <JCHEM_NEUTRAL_CHARGE>
-2

> <JCHEM_NUMBER_OF_RINGS>
0

> <JCHEM_PHYSIOLOGICAL_CHARGE>
-2

> <JCHEM_PKA>
4.791393825073151

> <JCHEM_PKA_STRONGEST_ACIDIC>
2.156503841175261

> <JCHEM_PKA_STRONGEST_BASIC>
-4.856106978575348

> <JCHEM_POLAR_SURFACE_AREA>
100.49000000000001

> <JCHEM_REFRACTIVITY>
42.00020000000001

> <JCHEM_ROTATABLE_BOND_COUNT>
2

> <JCHEM_RULE_OF_FIVE>
1

> <ALOGPS_SOLUBILITY>
5.42e+02 g/l

> <JCHEM_TRADITIONAL_IUPAC>
biotin

> <JCHEM_VEBER_RULE>
0

> <DRUGBANK_ID>
DB03680

> <SECONDARY_ACCESSION_NUMBERS>
EXPT03129

> <DRUG_GROUPS>
experimental

> <GENERIC_NAME>
Tartronate

$$$$
