
  Mrv0541 02231216022D          

  6  5  0  0  0  0            999 V2000
    2.4750    0.0000    0.0000 C   0  0  0  0  0  0  0  0  0  0  0  0
    1.6500    0.0000    0.0000 C   0  0  0  0  0  0  0  0  0  0  0  0
    1.6500    0.8250    0.0000 C   0  0  0  0  0  0  0  0  0  0  0  0
    1.6500   -0.8250    0.0000 O   0  0  0  0  0  0  0  0  0  0  0  0
    0.8250    0.0000    0.0000 C   0  0  0  0  0  0  0  0  0  0  0  0
    0.0000    0.0000    0.0000 N   0  0  0  0  0  0  0  0  0  0  0  0
  1  2  1  0  0  0  0
  2  3  1  0  0  0  0
  2  4  1  0  0  0  0
  2  5  1  0  0  0  0
  5  6  3  0  0  0  0
M  END
> <DATABASE_ID>
DB02203

> <DATABASE_NAME>
drugbank

> <SMILES>
CC(C)(O)C#N

> <INCHI_IDENTIFIER>
InChI=1S/C4H7NO/c1-4(2,6)3-5/h6H,1-2H3

> <INCHI_KEY>
MWFMGBPGAXYFAR-UHFFFAOYSA-N

> <FORMULA>
C4H7NO

> <MOLECULAR_WEIGHT>
85.1045

> <EXACT_MASS>
85.052763851

> <JCHEM_ACCEPTOR_COUNT>
2

> <JCHEM_ATOM_COUNT>
13

> <JCHEM_AVERAGE_NEUTRAL_MICROSPECIES_CHARGE>
-1.7325033351426874e-06

> <JCHEM_AVERAGE_POLARIZABILITY>
8.810994273217865

> <JCHEM_BIOAVAILABILITY>
1

> <JCHEM_DONOR_COUNT>
1

> <JCHEM_FORMAL_CHARGE>
0

> <JCHEM_GHOSE_FILTER>
0

> <JCHEM_IUPAC>
2-hydroxy-2-methylpropanenitrile

> <ALOGPS_LOGP>
-0.29

> <JCHEM_LOGP>
0.01888523466666675

> <ALOGPS_LOGS>
-0.52

> <JCHEM_MDDR_LIKE_RULE>
0

> <JCHEM_NEUTRAL_CHARGE>
0

> <JCHEM_NUMBER_OF_RINGS>
0

> <JCHEM_PHYSIOLOGICAL_CHARGE>
0

> <JCHEM_PKA_STRONGEST_ACIDIC>
12.761320988893901

> <JCHEM_PKA_STRONGEST_BASIC>
-3.7779981994578073

> <JCHEM_POLAR_SURFACE_AREA>
44.019999999999996

> <JCHEM_REFRACTIVITY>
22.5324

> <JCHEM_ROTATABLE_BOND_COUNT>
0

> <JCHEM_RULE_OF_FIVE>
1

> <ALOGPS_SOLUBILITY>
2.60e+01 g/l

> <JCHEM_TRADITIONAL_IUPAC>
biotin

> <JCHEM_VEBER_RULE>
0

> <DRUGBANK_ID>
DB02203

> <SECONDARY_ACCESSION_NUMBERS>
EXPT00968

> <DRUG_GROUPS>
experimental

> <GENERIC_NAME>
Acetone Cyanohydrin

$$$$
