
  Mrv0541 02241204082D          

  3  2  0  0  0  0            999 V2000
    1.2375   -0.7145    0.0000 Cl  0  0  0  0  0  0  0  0  0  0  0  0
    1.9520   -1.1270    0.0000 Cu  0  0  0  0  0  0  0  0  0  0  0  0
    2.6664   -0.7145    0.0000 Cl  0  0  0  0  0  0  0  0  0  0  0  0
  1  2  1  0  0  0  0
  2  3  1  0  0  0  0
M  END
> <DATABASE_ID>
DB09131

> <DATABASE_NAME>
drugbank

> <SMILES>
Cl[Cu]Cl

> <INCHI_IDENTIFIER>
InChI=1S/2ClH.Cu/h2*1H;/q;;+2/p-2

> <INCHI_KEY>
ORTQZVOHEJQUHG-UHFFFAOYSA-L

> <FORMULA>
Cl2Cu

> <MOLECULAR_WEIGHT>
134.452

> <EXACT_MASS>
132.867306493

> <JCHEM_ACCEPTOR_COUNT>
0

> <JCHEM_ATOM_COUNT>
3

> <JCHEM_AVERAGE_NEUTRAL_MICROSPECIES_CHARGE>
0.0

> <JCHEM_AVERAGE_POLARIZABILITY>
7.265316990745099

> <JCHEM_BIOAVAILABILITY>
1

> <JCHEM_DONOR_COUNT>
0

> <JCHEM_FORMAL_CHARGE>
0

> <JCHEM_GHOSE_FILTER>
0

> <JCHEM_IUPAC>
dichlorocopper

> <ALOGPS_LOGP>
0.94

> <JCHEM_LOGP>
0.5189999999999999

> <ALOGPS_LOGS>
-0.48

> <JCHEM_MDDR_LIKE_RULE>
0

> <JCHEM_NEUTRAL_CHARGE>
0

> <JCHEM_NUMBER_OF_RINGS>
0

> <JCHEM_PHYSIOLOGICAL_CHARGE>
0

> <JCHEM_POLAR_SURFACE_AREA>
0.0

> <JCHEM_REFRACTIVITY>
12.2726

> <JCHEM_ROTATABLE_BOND_COUNT>
0

> <JCHEM_RULE_OF_FIVE>
1

> <ALOGPS_SOLUBILITY>
4.46e+01 g/l

> <JCHEM_TRADITIONAL_IUPAC>
tetrahydrofolic acid

> <JCHEM_VEBER_RULE>
1

> <DRUGBANK_ID>
DB09131

> <DRUG_GROUPS>
approved; investigational

> <GENERIC_NAME>
Cupric Chloride

> <SYNONYMS>
Copper chloride; Copper(2+) chloride; copper(II) chloride; Cupric chloride anhydrous

> <PRODUCTS>
Addnutriv; Copper; Peditrace; Trace Elements Injection USP; Trace Elements Solution Inj; Trace Elements for Injection - Liq IV

> <SALTS>
Cupric chloride dihydrate

$$$$
