
  Mrv0541 09181201332D          

  6  5  0  0  0  0            999 V2000
   -4.5302    5.3625    0.0000 C   0  0  0  0  0  0  0  0  0  0  0  0
   -3.8157    4.9500    0.0000 C   0  0  0  0  0  0  0  0  0  0  0  0
   -3.1012    5.3625    0.0000 C   0  0  1  0  0  0  0  0  0  0  0  0
   -2.3868    4.9500    0.0000 C   0  0  0  0  0  0  0  0  0  0  0  0
   -3.8157    4.1250    0.0000 O   0  0  0  0  0  0  0  0  0  0  0  0
   -3.1012    6.1875    0.0000 O   0  0  0  0  0  0  0  0  0  0  0  0
  1  2  1  0  0  0  0
  2  3  1  0  0  0  0
  3  4  1  6  0  0  0
  2  5  2  0  0  0  0
  3  6  1  0  0  0  0
M  END
> <DATABASE_ID>
DB04364

> <DATABASE_NAME>
drugbank

> <SMILES>
C[C@@H](O)C(C)=O

> <INCHI_IDENTIFIER>
InChI=1S/C4H8O2/c1-3(5)4(2)6/h3,5H,1-2H3/t3-/m1/s1

> <INCHI_KEY>
ROWKJAVDOGWPAT-GSVOUGTGSA-N

> <FORMULA>
C4H8O2

> <MOLECULAR_WEIGHT>
88.1051

> <EXACT_MASS>
88.0524295

> <JCHEM_ACCEPTOR_COUNT>
2

> <JCHEM_ATOM_COUNT>
14

> <JCHEM_AVERAGE_NEUTRAL_MICROSPECIES_CHARGE>
-1.889391490801074e-07

> <JCHEM_AVERAGE_POLARIZABILITY>
9.109409699439313

> <JCHEM_BIOAVAILABILITY>
1

> <JCHEM_DONOR_COUNT>
1

> <JCHEM_FORMAL_CHARGE>
0

> <JCHEM_GHOSE_FILTER>
0

> <JCHEM_IUPAC>
(3R)-3-hydroxybutan-2-one

> <ALOGPS_LOGP>
-0.66

> <JCHEM_LOGP>
-0.1422039953333334

> <ALOGPS_LOGS>
0.73

> <JCHEM_MDDR_LIKE_RULE>
0

> <JCHEM_NEUTRAL_CHARGE>
0

> <JCHEM_NUMBER_OF_RINGS>
0

> <JCHEM_PHYSIOLOGICAL_CHARGE>
0

> <JCHEM_PKA>
18.734535107175336

> <JCHEM_PKA_STRONGEST_ACIDIC>
13.723581199329454

> <JCHEM_PKA_STRONGEST_BASIC>
-3.3570980117938523

> <JCHEM_POLAR_SURFACE_AREA>
37.3

> <JCHEM_REFRACTIVITY>
22.390900000000002

> <JCHEM_ROTATABLE_BOND_COUNT>
1

> <JCHEM_RULE_OF_FIVE>
1

> <ALOGPS_SOLUBILITY>
4.73e+02 g/l

> <JCHEM_TRADITIONAL_IUPAC>
tetrahydrofolic acid

> <JCHEM_VEBER_RULE>
1

> <DRUGBANK_ID>
DB04364

> <SECONDARY_ACCESSION_NUMBERS>
EXPT01701

> <DRUG_GROUPS>
experimental

> <GENERIC_NAME>
(R)-acetoin

> <SYNONYMS>
(R)-2-acetoin; (R)-3-hydroxy-2-butanone; (R)-3-hydroxybutan-2-one; (R)-dimethylketol

$$$$
