
  Mrv0541 05041405522D          

 13 14  0  0  0  0            999 V2000
    3.9934    0.8250    0.0000 C   0  0  0  0  0  0  0  0  0  0  0  0
    3.2789    1.2375    0.0000 C   0  0  0  0  0  0  0  0  0  0  0  0
    3.9934    0.0000    0.0000 C   0  0  0  0  0  0  0  0  0  0  0  0
    2.5645    0.8250    0.0000 C   0  0  0  0  0  0  0  0  0  0  0  0
    3.2789   -0.4125    0.0000 C   0  0  0  0  0  0  0  0  0  0  0  0
    2.5645    0.0000    0.0000 C   0  0  0  0  0  0  0  0  0  0  0  0
    1.7798    1.0799    0.0000 C   0  0  0  0  0  0  0  0  0  0  0  0
    1.5249    1.8646    0.0000 Br  0  0  0  0  0  0  0  0  0  0  0  0
    1.7798   -0.2549    0.0000 N   0  0  0  0  0  0  0  0  0  0  0  0
    1.2949    0.4125    0.0000 N   0  0  0  0  0  0  0  0  0  0  0  0
    3.2789   -1.2375    0.0000 N   0  0  0  0  0  0  0  0  0  0  0  0
    3.9934   -1.6500    0.0000 O   0  0  0  0  0  0  0  0  0  0  0  0
    2.5645   -1.6500    0.0000 O   0  0  0  0  0  0  0  0  0  0  0  0
  2  1  2  0  0  0  0
  3  1  1  0  0  0  0
  4  2  1  0  0  0  0
  5  3  2  0  0  0  0
  6  4  2  0  0  0  0
  6  5  1  0  0  0  0
  7  4  1  0  0  0  0
  8  7  1  0  0  0  0
  9  6  1  0  0  0  0
 10  7  2  0  0  0  0
 10  9  1  0  0  0  0
 11  5  1  0  0  0  0
 12 11  2  0  0  0  0
 13 11  2  0  0  0  0
M  END
> <DATABASE_ID>
DB01997

> <DATABASE_NAME>
drugbank

> <SMILES>
BrC1=NNC2=C1C=CC=C2N(=O)=O

> <INCHI_IDENTIFIER>
InChI=1S/C7H4BrN3O2/c8-7-4-2-1-3-5(11(12)13)6(4)9-10-7/h1-3H,(H,9,10)

> <INCHI_KEY>
NFSTZPMYAZRZPC-UHFFFAOYSA-N

> <FORMULA>
C7H4BrN3O2

> <MOLECULAR_WEIGHT>
242.03

> <EXACT_MASS>
240.948689034

> <JCHEM_ACCEPTOR_COUNT>
3

> <JCHEM_ATOM_COUNT>
17

> <JCHEM_AVERAGE_NEUTRAL_MICROSPECIES_CHARGE>
-0.0023096437120311637

> <JCHEM_AVERAGE_POLARIZABILITY>
17.911893188555084

> <JCHEM_BIOAVAILABILITY>
1

> <JCHEM_DONOR_COUNT>
1

> <JCHEM_FORMAL_CHARGE>
0

> <JCHEM_GHOSE_FILTER>
0

> <JCHEM_IUPAC>
3-bromo-7-nitro-1H-indazole

> <ALOGPS_LOGP>
2.39

> <JCHEM_LOGP>
2.210566517333333

> <ALOGPS_LOGS>
-2.51

> <JCHEM_MDDR_LIKE_RULE>
0

> <JCHEM_NEUTRAL_CHARGE>
0

> <JCHEM_NUMBER_OF_RINGS>
2

> <JCHEM_PHYSIOLOGICAL_CHARGE>
0

> <JCHEM_PKA_STRONGEST_ACIDIC>
9.635447726834386

> <JCHEM_PKA_STRONGEST_BASIC>
-0.7898529180493404

> <JCHEM_POLAR_SURFACE_AREA>
74.5

> <JCHEM_REFRACTIVITY>
51.8628

> <JCHEM_ROTATABLE_BOND_COUNT>
1

> <JCHEM_RULE_OF_FIVE>
1

> <ALOGPS_SOLUBILITY>
7.57e-01 g/l

> <JCHEM_TRADITIONAL_IUPAC>
tetrahydrofolic acid

> <JCHEM_VEBER_RULE>
0

> <DRUGBANK_ID>
DB01997

> <SECONDARY_ACCESSION_NUMBERS>
EXPT01883

> <DRUG_GROUPS>
experimental

> <GENERIC_NAME>
3-Bromo-7-Nitroindazole

$$$$
