
  Mrv0541 05041402082D          

 27 28  0  0  0  0            999 V2000
   -2.3858   -1.0235    0.0000 C   0  0  0  0  0  0  0  0  0  0  0  0
   -1.0804   -0.4423    0.0000 C   0  0  0  0  0  0  0  0  0  0  0  0
   -2.0502   -1.7772    0.0000 C   0  0  0  0  0  0  0  0  0  0  0  0
   -0.7448   -1.1960    0.0000 C   0  0  0  0  0  0  0  0  0  0  0  0
   -2.0535    3.5721    0.0000 C   0  0  0  0  0  0  0  0  0  0  0  0
   -2.7679    3.1596    0.0000 C   0  0  0  0  0  0  0  0  0  0  0  0
   -2.2364    0.3976    0.0000 C   0  0  0  0  0  0  0  0  0  0  0  0
    0.1131    2.1046    0.0000 C   0  0  0  0  0  0  0  0  0  0  0  0
   -1.9009   -0.3561    0.0000 C   0  0  0  0  0  0  0  0  0  0  0  0
   -1.2297   -1.8634    0.0000 C   0  0  0  0  0  0  0  0  0  0  0  0
   -1.3390    3.1596    0.0000 C   0  0  0  0  0  0  0  0  0  0  0  0
   -1.7515    1.0650    0.0000 C   0  0  0  0  0  0  0  0  0  0  0  0
   -3.4824    3.5721    0.0000 C   0  0  0  0  0  0  0  0  0  0  0  0
    0.7262    1.5526    0.0000 C   0  0  0  0  0  0  0  0  0  0  0  0
   -1.3390    2.3346    0.0000 C   0  0  0  0  0  0  0  0  0  0  0  0
   -0.9265    1.0650    0.0000 C   0  0  0  0  0  0  0  0  0  0  0  0
   -0.6245    3.5721    0.0000 N   0  0  0  0  0  0  0  0  0  0  0  0
   -2.0064    1.8496    0.0000 N   0  0  0  0  0  0  0  0  0  0  0  0
   -0.6716    1.8496    0.0000 N   0  0  0  0  0  0  0  0  0  0  0  0
   -0.8942   -2.6171    0.0000 O   0  0  0  0  0  0  0  0  0  0  0  0
   -4.1969    3.1596    0.0000 O   0  0  0  0  0  0  0  0  0  0  0  0
   -3.4824    4.3971    0.0000 O   0  0  0  0  0  0  0  0  0  0  0  0
    1.5108    1.8075    0.0000 O   0  0  0  0  0  0  0  0  0  0  0  0
    0.5546    0.7456    0.0000 O   0  0  0  0  0  0  0  0  0  0  0  0
   -0.4416    0.3976    0.0000 O   0  0  0  0  0  0  0  0  0  0  0  0
   -3.0569    0.4838    0.0000 H   0  0  0  0  0  0  0  0  0  0  0  0
    0.0900    3.1596    0.0000 H   0  0  0  0  0  0  0  0  0  0  0  0
  3  1  1  0  0  0  0
  4  2  2  0  0  0  0
  6  5  1  0  0  0  0
  9  1  2  0  0  0  0
  9  2  1  0  0  0  0
  9  7  1  0  0  0  0
 10  3  2  0  0  0  0
 10  4  1  0  0  0  0
 11  5  1  0  0  0  0
 12  7  2  0  0  0  0
 13  6  1  0  0  0  0
 14  8  1  0  0  0  0
 15 11  1  0  0  0  0
 16 12  1  0  0  0  0
 17 11  2  0  0  0  0
 18 12  1  0  0  0  0
 18 15  2  0  0  0  0
 19  8  1  0  0  0  0
 19 15  1  0  0  0  0
 19 16  1  0  0  0  0
 20 10  1  0  0  0  0
 21 13  2  0  0  0  0
 22 13  1  0  0  0  0
 23 14  2  0  0  0  0
 24 14  1  0  0  0  0
 25 16  2  0  0  0  0
 26  7  1  0  0  0  0
 27 17  1  0  0  0  0
M  END
> <DATABASE_ID>
DB04668

> <DATABASE_NAME>
drugbank

> <SMILES>
[H]N=C(CCC(O)=O)C1=N\C(=C(/[H])C2=CC=C(O)C=C2)C(=O)N1CC(O)=O

> <INCHI_IDENTIFIER>
InChI=1S/C16H15N3O6/c17-11(5-6-13(21)22)15-18-12(16(25)19(15)8-14(23)24)7-9-1-3-10(20)4-2-9/h1-4,7,17,20H,5-6,8H2,(H,21,22)(H,23,24)/b12-7+,17-11-

> <INCHI_KEY>
HQWMTGYOYORUQE-ZLCHUIHLSA-N

> <FORMULA>
C16H15N3O6

> <MOLECULAR_WEIGHT>
345.3068

> <EXACT_MASS>
345.096085227

> <JCHEM_ACCEPTOR_COUNT>
8

> <JCHEM_ATOM_COUNT>
40

> <JCHEM_AVERAGE_NEUTRAL_MICROSPECIES_CHARGE>
-2.0045631643963158

> <JCHEM_AVERAGE_POLARIZABILITY>
33.82106697129096

> <JCHEM_BIOAVAILABILITY>
1

> <JCHEM_DONOR_COUNT>
4

> <JCHEM_FORMAL_CHARGE>
0

> <JCHEM_GHOSE_FILTER>
1

> <JCHEM_IUPAC>
4-[(4E)-1-(carboxymethyl)-4-[(4-hydroxyphenyl)methylidene]-5-oxo-4,5-dihydro-1H-imidazol-2-yl]-4-iminobutanoic acid

> <ALOGPS_LOGP>
0.45

> <JCHEM_LOGP>
-0.2350772054570621

> <ALOGPS_LOGS>
-3.56

> <JCHEM_MDDR_LIKE_RULE>
0

> <JCHEM_NEUTRAL_CHARGE>
-2

> <JCHEM_NUMBER_OF_RINGS>
2

> <JCHEM_PHYSIOLOGICAL_CHARGE>
-2

> <JCHEM_PKA>
4.1321933475715555

> <JCHEM_PKA_STRONGEST_ACIDIC>
3.03664236282374

> <JCHEM_PKA_STRONGEST_BASIC>
3.6011752434255393

> <JCHEM_POLAR_SURFACE_AREA>
151.35

> <JCHEM_REFRACTIVITY>
96.7814

> <JCHEM_ROTATABLE_BOND_COUNT>
7

> <JCHEM_RULE_OF_FIVE>
1

> <ALOGPS_SOLUBILITY>
9.52e-02 g/l

> <JCHEM_TRADITIONAL_IUPAC>
tetrahydrofolic acid

> <JCHEM_VEBER_RULE>
0

> <DRUGBANK_ID>
DB04668

> <DRUG_GROUPS>
experimental

> <GENERIC_NAME>
CHROMOPHORE (GLU-TYR-GLY)

$$$$
