
  Mrv0541 02231216042D          

 11 12  0  0  0  0            999 V2000
    2.7845    0.6979    0.0000 N   0  0  0  0  0  0  0  0  0  0  0  0
    2.0701    1.1104    0.0000 C   0  0  0  0  0  0  0  0  0  0  0  0
    1.3556    0.6979    0.0000 N   0  0  0  0  0  0  0  0  0  0  0  0
    0.6411    1.1104    0.0000 C   0  0  0  0  0  0  0  0  0  0  0  0
    0.6411    1.9354    0.0000 C   0  0  0  0  0  0  0  0  0  0  0  0
   -0.1435    2.1904    0.0000 C   0  0  0  0  0  0  0  0  0  0  0  0
   -0.6284    1.5229    0.0000 C   0  0  0  0  0  0  0  0  0  0  0  0
   -0.1435    0.8555    0.0000 N   0  0  0  0  0  0  0  0  0  0  0  0
    1.3556    2.3479    0.0000 C   0  0  0  0  0  0  0  0  0  0  0  0
    1.3556    3.1729    0.0000 O   0  0  0  0  0  0  0  0  0  0  0  0
    2.0701    1.9354    0.0000 N   0  0  0  0  0  0  0  0  0  0  0  0
  1  2  1  0  0  0  0
  2  3  2  0  0  0  0
  3  4  1  0  0  0  0
  4  5  2  0  0  0  0
  5  6  1  0  0  0  0
  6  7  1  0  0  0  0
  7  8  2  0  0  0  0
  4  8  1  0  0  0  0
  5  9  1  0  0  0  0
  9 10  2  0  0  0  0
  9 11  1  0  0  0  0
  2 11  1  0  0  0  0
M  END
> <DATABASE_ID>
DB02245

> <DATABASE_NAME>
drugbank

> <SMILES>
NC1=NC2=C(CC=N2)C(=O)N1

> <INCHI_IDENTIFIER>
InChI=1S/C6H6N4O/c7-6-9-4-3(1-2-8-4)5(11)10-6/h2H,1H2,(H3,7,9,10,11)

> <INCHI_KEY>
LOSIULRWFAEMFL-UHFFFAOYSA-N

> <FORMULA>
C6H6N4O

> <MOLECULAR_WEIGHT>
150.138

> <EXACT_MASS>
150.054160834

> <JCHEM_ACCEPTOR_COUNT>
4

> <JCHEM_ATOM_COUNT>
17

> <JCHEM_AVERAGE_NEUTRAL_MICROSPECIES_CHARGE>
-0.1038178945522659

> <JCHEM_AVERAGE_POLARIZABILITY>
13.906488060810823

> <JCHEM_BIOAVAILABILITY>
1

> <JCHEM_DONOR_COUNT>
2

> <JCHEM_FORMAL_CHARGE>
0

> <JCHEM_GHOSE_FILTER>
0

> <JCHEM_IUPAC>
2-amino-3H,4H,5H-pyrrolo[2,3-d]pyrimidin-4-one

> <ALOGPS_LOGP>
-1.22

> <JCHEM_LOGP>
-1.0636045823333333

> <ALOGPS_LOGS>
-1.74

> <JCHEM_MDDR_LIKE_RULE>
0

> <JCHEM_NEUTRAL_CHARGE>
0

> <JCHEM_NUMBER_OF_RINGS>
2

> <JCHEM_PHYSIOLOGICAL_CHARGE>
0

> <JCHEM_PKA>
12.70517998857449

> <JCHEM_PKA_STRONGEST_ACIDIC>
7.935993746482372

> <JCHEM_PKA_STRONGEST_BASIC>
2.55213273849882

> <JCHEM_POLAR_SURFACE_AREA>
79.84

> <JCHEM_REFRACTIVITY>
47.817600000000006

> <JCHEM_ROTATABLE_BOND_COUNT>
0

> <JCHEM_RULE_OF_FIVE>
1

> <ALOGPS_SOLUBILITY>
2.76e+00 g/l

> <JCHEM_TRADITIONAL_IUPAC>
biotin

> <JCHEM_VEBER_RULE>
0

> <DRUGBANK_ID>
DB02245

> <SECONDARY_ACCESSION_NUMBERS>
EXPT00310

> <DRUG_GROUPS>
experimental

> <GENERIC_NAME>
7-Deazaguanine

$$$$
