
  Mrv0541 02231216542D          

 47 49  0  0  1  0            999 V2000
    8.7600    0.0627    0.0000 C   0  0  0  0  0  0  0  0  0  0  0  0
    9.1123   -0.6833    0.0000 O   0  0  0  0  0  0  0  0  0  0  0  0
    8.6425   -1.3614    0.0000 C   0  0  0  0  0  0  0  0  0  0  0  0
    8.9949   -2.1074    0.0000 C   0  0  0  0  0  0  0  0  0  0  0  0
    8.5250   -2.7855    0.0000 C   0  0  0  0  0  0  0  0  0  0  0  0
    7.7028   -2.7177    0.0000 C   0  0  0  0  0  0  0  0  0  0  0  0
    7.2330   -3.3959    0.0000 C   0  0  0  0  0  0  0  0  0  0  0  0
    7.5854   -4.1418    0.0000 C   0  0  2  0  0  0  0  0  0  0  0  0
    7.1155   -4.8200    0.0000 N   0  0  0  0  0  0  0  0  0  0  0  0
    6.2933   -4.7522    0.0000 C   0  0  0  0  0  0  0  0  0  0  0  0
    5.9410   -4.0062    0.0000 O   0  0  0  0  0  0  0  0  0  0  0  0
    5.8235   -5.4303    0.0000 C   0  0  0  0  0  0  0  0  0  0  0  0
    5.0013   -5.3625    0.0000 C   0  0  0  0  0  0  0  0  0  0  0  0
    4.9335   -6.1847    0.0000 C   0  0  0  0  0  0  0  0  0  0  0  0
    5.0691   -4.5403    0.0000 C   0  0  0  0  0  0  0  0  0  0  0  0
    4.1791   -5.2947    0.0000 N   0  0  0  0  0  0  0  0  0  0  0  0
    8.4076   -4.2097    0.0000 C   0  0  0  0  0  0  0  0  0  0  0  0
    8.8774   -3.5315    0.0000 O   0  0  0  0  0  0  0  0  0  0  0  0
    8.7600   -4.9556    0.0000 N   0  0  0  0  0  0  0  0  0  0  0  0
    9.5822   -5.0234    0.0000 C   0  0  1  0  0  0  0  0  0  0  0  0
   10.0520   -4.3453    0.0000 C   0  0  0  0  0  0  0  0  0  0  0  0
   10.8742   -4.4131    0.0000 C   0  0  0  0  0  0  0  0  0  0  0  0
   11.3026   -5.1181    0.0000 C   0  0  0  0  0  0  0  0  0  0  0  0
   12.1056   -4.9286    0.0000 N   0  0  0  0  0  0  0  0  0  0  0  0
   12.1734   -4.1063    0.0000 C   0  0  0  0  0  0  0  0  0  0  0  0
   11.4124   -3.7878    0.0000 N   0  0  0  0  0  0  0  0  0  0  0  0
    9.9345   -5.7694    0.0000 C   0  0  0  0  0  0  0  0  0  0  0  0
    9.4647   -6.4475    0.0000 O   0  0  0  0  0  0  0  0  0  0  0  0
   10.7568   -5.8372    0.0000 N   0  0  0  0  0  0  0  0  0  0  0  0
   11.1091   -6.5832    0.0000 C   0  0  1  0  0  0  0  0  0  0  0  0
   10.6393   -7.2613    0.0000 C   0  0  0  0  0  0  0  0  0  0  0  0
   10.9917   -8.0073    0.0000 C   0  0  0  0  0  0  0  0  0  0  0  0
   11.8139   -8.0751    0.0000 C   0  0  0  0  0  0  0  0  0  0  0  0
   12.1663   -8.8210    0.0000 C   0  0  0  0  0  0  0  0  0  0  0  0
   11.6964   -9.4992    0.0000 C   0  0  0  0  0  0  0  0  0  0  0  0
   10.8742   -9.4314    0.0000 C   0  0  0  0  0  0  0  0  0  0  0  0
   10.5218   -8.6854    0.0000 C   0  0  0  0  0  0  0  0  0  0  0  0
   11.9313   -6.6510    0.0000 C   0  0  1  0  0  0  0  0  0  0  0  0
   12.2837   -7.3969    0.0000 O   0  0  0  0  0  0  0  0  0  0  0  0
   12.4012   -5.9728    0.0000 C   0  0  1  0  0  0  0  0  0  0  0  0
   12.0488   -5.2269    0.0000 O   0  0  0  0  0  0  0  0  0  0  0  0
   13.2234   -6.0406    0.0000 C   0  0  0  0  0  0  0  0  0  0  0  0
   13.6932   -5.3625    0.0000 C   0  0  0  0  0  0  0  0  0  0  0  0
   13.3408   -4.6165    0.0000 C   0  0  0  0  0  0  0  0  0  0  0  0
   14.5154   -5.4303    0.0000 C   0  0  0  0  0  0  0  0  0  0  0  0
    7.3505   -1.9718    0.0000 C   0  0  0  0  0  0  0  0  0  0  0  0
    7.8203   -1.2936    0.0000 C   0  0  0  0  0  0  0  0  0  0  0  0
  1  2  1  0  0  0  0
  2  3  1  0  0  0  0
  3  4  2  0  0  0  0
  4  5  1  0  0  0  0
  5  6  2  0  0  0  0
  6  7  1  0  0  0  0
  7  8  1  0  0  0  0
  8  9  1  1  0  0  0
  9 10  1  0  0  0  0
 10 11  2  0  0  0  0
 10 12  1  0  0  0  0
 12 13  1  0  0  0  0
 13 14  1  0  0  0  0
 13 15  1  0  0  0  0
 13 16  1  0  0  0  0
  8 17  1  0  0  0  0
 17 18  2  0  0  0  0
 17 19  1  0  0  0  0
 20 19  1  1  0  0  0
 20 21  1  0  0  0  0
 21 22  1  0  0  0  0
 22 23  2  0  0  0  0
 23 24  1  0  0  0  0
 24 25  2  0  0  0  0
 25 26  1  0  0  0  0
 22 26  1  0  0  0  0
 20 27  1  0  0  0  0
 27 28  2  0  0  0  0
 27 29  1  0  0  0  0
 30 29  1  6  0  0  0
 30 31  1  0  0  0  0
 31 32  1  0  0  0  0
 32 33  1  0  0  0  0
 33 34  1  0  0  0  0
 34 35  1  0  0  0  0
 35 36  1  0  0  0  0
 36 37  1  0  0  0  0
 32 37  1  0  0  0  0
 30 38  1  0  0  0  0
 38 39  1  6  0  0  0
 38 40  1  0  0  0  0
 40 41  1  1  0  0  0
 40 42  1  0  0  0  0
 42 43  1  0  0  0  0
 43 44  1  0  0  0  0
 43 45  1  0  0  0  0
  6 46  1  0  0  0  0
 46 47  2  0  0  0  0
  3 47  1  0  0  0  0
M  END
> <DATABASE_ID>
DB03395

> <DATABASE_NAME>
drugbank

> <SMILES>
COC1=CC=C(C[C@H](NC(=O)CC(C)(C)N)C(=O)N[C@@H](CC2=CN=CN2)C(=O)N[C@@H](CC2CCCCC2)[C@@H](O)[C@@H](O)CC(C)C)C=C1

> <INCHI_IDENTIFIER>
InChI=1S/C35H56N6O6/c1-22(2)15-30(42)32(44)27(16-23-9-7-6-8-10-23)40-34(46)29(18-25-20-37-21-38-25)41-33(45)28(39-31(43)19-35(3,4)36)17-24-11-13-26(47-5)14-12-24/h11-14,20-23,27-30,32,42,44H,6-10,15-19,36H2,1-5H3,(H,37,38)(H,39,43)(H,40,46)(H,41,45)/t27-,28-,29-,30-,32+/m0/s1

> <INCHI_KEY>
KQXVERRYBYGQJZ-WRPDIKACSA-N

> <FORMULA>
C35H56N6O6

> <MOLECULAR_WEIGHT>
656.8557

> <EXACT_MASS>
656.426133554

> <JCHEM_ACCEPTOR_COUNT>
8

> <JCHEM_ATOM_COUNT>
103

> <JCHEM_AVERAGE_NEUTRAL_MICROSPECIES_CHARGE>
1.3532662696562663

> <JCHEM_AVERAGE_POLARIZABILITY>
72.63345008603193

> <JCHEM_BIOAVAILABILITY>
0

> <JCHEM_DONOR_COUNT>
7

> <JCHEM_FORMAL_CHARGE>
0

> <JCHEM_GHOSE_FILTER>
0

> <JCHEM_IUPAC>
3-amino-N-[(1S)-1-{[(1S)-1-{[(2S,3R,4S)-1-cyclohexyl-3,4-dihydroxy-6-methylheptan-2-yl]carbamoyl}-2-(1H-imidazol-5-yl)ethyl]carbamoyl}-2-(4-methoxyphenyl)ethyl]-3-methylbutanamide

> <ALOGPS_LOGP>
2.47

> <JCHEM_LOGP>
1.7491089343333306

> <ALOGPS_LOGS>
-4.73

> <JCHEM_MDDR_LIKE_RULE>
1

> <JCHEM_NEUTRAL_CHARGE>
2

> <JCHEM_NUMBER_OF_RINGS>
3

> <JCHEM_PHYSIOLOGICAL_CHARGE>
1

> <JCHEM_PKA>
12.530296232954369

> <JCHEM_PKA_STRONGEST_ACIDIC>
12.032070538056276

> <JCHEM_PKA_STRONGEST_BASIC>
9.579912115984543

> <JCHEM_POLAR_SURFACE_AREA>
191.68999999999997

> <JCHEM_REFRACTIVITY>
180.15779999999998

> <JCHEM_ROTATABLE_BOND_COUNT>
18

> <JCHEM_RULE_OF_FIVE>
0

> <ALOGPS_SOLUBILITY>
1.22e-02 g/l

> <JCHEM_TRADITIONAL_IUPAC>
tetrahydrofolic acid

> <JCHEM_VEBER_RULE>
0

> <DRUGBANK_ID>
DB03395

> <SECONDARY_ACCESSION_NUMBERS>
EXPT03298

> <DRUG_GROUPS>
experimental

> <GENERIC_NAME>
Enalkiren

> <SYNONYMS>
Enalkiren; Enalkirene; Enalkirenum; Enalquireno

$$$$
