
  Mrv0541 05031421012D          

 33 34  0  0  1  0            999 V2000
    0.7145   -1.2375    0.0000 C   0  0  0  0  0  0  0  0  0  0  0  0
    0.7145   -2.8875    0.0000 C   0  0  0  0  0  0  0  0  0  0  0  0
    0.0000   -1.6500    0.0000 C   0  0  2  0  0  0  0  0  0  0  0  0
    0.7145   -3.7125    0.0000 C   0  0  2  0  0  0  0  0  0  0  0  0
   -1.4289   -2.4750    0.0000 C   0  0  2  0  0  0  0  0  0  0  0  0
   -0.7145   -1.2375    0.0000 C   0  0  1  0  0  0  0  0  0  0  0  0
   -1.4289   -1.6500    0.0000 C   0  0  2  0  0  0  0  0  0  0  0  0
    0.0000   -4.9500    0.0000 C   0  0  2  0  0  0  0  0  0  0  0  0
    0.7145   -5.3625    0.0000 C   0  0  2  0  0  0  0  0  0  0  0  0
    0.0000   -4.1250    0.0000 C   0  0  2  0  0  0  0  0  0  0  0  0
    1.4289   -4.9500    0.0000 C   0  0  2  0  0  0  0  0  0  0  0  0
   -0.7145   -2.8875    0.0000 C   0  0  1  0  0  0  0  0  0  0  0  0
   -2.1434   -2.8875    0.0000 F   0  0  0  0  0  0  0  0  0  0  0  0
    0.7145   -0.4125    0.0000 O   0  0  0  0  0  0  0  0  0  0  0  0
    1.4289   -2.4750    0.0000 O   0  0  0  0  0  0  0  0  0  0  0  0
   -0.7145   -0.4125    0.0000 O   0  0  0  0  0  0  0  0  0  0  0  0
   -2.1434   -1.2375    0.0000 O   0  0  0  0  0  0  0  0  0  0  0  0
   -0.7145   -5.3625    0.0000 O   0  0  0  0  0  0  0  0  0  0  0  0
    0.7145   -6.1875    0.0000 O   0  0  0  0  0  0  0  0  0  0  0  0
    2.1434   -5.3625    0.0000 O   0  0  0  0  0  0  0  0  0  0  0  0
    1.4289   -4.1250    0.0000 O   0  0  0  0  0  0  0  0  0  0  0  0
    0.0000   -2.4750    0.0000 O   0  0  0  0  0  0  0  0  0  0  0  0
   -0.7145   -3.7125    0.0000 O   0  0  0  0  0  0  0  0  0  0  0  0
   -0.2822   -0.8748    0.0000 H   0  0  0  0  0  0  0  0  0  0  0  0
   -0.0980   -3.5692    0.0000 H   0  0  0  0  0  0  0  0  0  0  0  0
   -2.2414   -2.3317    0.0000 H   0  0  0  0  0  0  0  0  0  0  0  0
   -0.1842   -0.6055    0.0000 H   0  0  0  0  0  0  0  0  0  0  0  0
   -2.2414   -1.7933    0.0000 H   0  0  0  0  0  0  0  0  0  0  0  0
    0.2822   -5.7252    0.0000 H   0  0  0  0  0  0  0  0  0  0  0  0
    0.1842   -5.9945    0.0000 H   0  0  0  0  0  0  0  0  0  0  0  0
   -0.2822   -3.3498    0.0000 H   0  0  0  0  0  0  0  0  0  0  0  0
    1.4289   -5.7750    0.0000 H   0  0  0  0  0  0  0  0  0  0  0  0
   -1.4289   -3.3000    0.0000 H   0  0  0  0  0  0  0  0  0  0  0  0
  3  1  1  1  0  0  0
  4  2  1  1  0  0  0
  6  3  1  0  0  0  0
  7  5  1  0  0  0  0
  7  6  1  0  0  0  0
  9  8  1  0  0  0  0
 10  4  1  0  0  0  0
 10  8  1  0  0  0  0
 11  9  1  0  0  0  0
 12  5  1  0  0  0  0
  5 13  1  6  0  0  0
 14  1  1  0  0  0  0
 15  2  1  0  0  0  0
  6 16  1  1  0  0  0
  7 17  1  1  0  0  0
  8 18  1  1  0  0  0
  9 19  1  6  0  0  0
 11 20  1  1  0  0  0
 21  4  1  0  0  0  0
 21 11  1  0  0  0  0
 22  3  1  0  0  0  0
 22 12  1  0  0  0  0
 10 23  1  6  0  0  0
 12 23  1  1  0  0  0
  3 24  1  6  0  0  0
  4 25  1  6  0  0  0
  5 26  1  1  0  0  0
  6 27  1  6  0  0  0
  7 28  1  6  0  0  0
  8 29  1  6  0  0  0
  9 30  1  1  0  0  0
 10 31  1  1  0  0  0
 11 32  1  6  0  0  0
 12 33  1  6  0  0  0
M  END
> <DATABASE_ID>
DB04155

> <DATABASE_NAME>
drugbank

> <SMILES>
[H][C@@]1(O)O[C@]([H])(CO)[C@@]([H])(O[C@]2([H])O[C@]([H])(CO)[C@]([H])(O)[C@]([H])(O)[C@@]2([H])F)[C@]([H])(O)[C@@]1([H])O

> <INCHI_IDENTIFIER>
InChI=1S/C12H21FO10/c13-5-7(17)6(16)3(1-14)22-12(5)23-10-4(2-15)21-11(20)9(19)8(10)18/h3-12,14-20H,1-2H2/t3-,4-,5-,6+,7-,8-,9-,10-,11-,12+/m1/s1

> <INCHI_KEY>
KWMZPXRIEZDXAQ-QRZGKKJRSA-N

> <FORMULA>
C12H21FO10

> <MOLECULAR_WEIGHT>
344.2875

> <EXACT_MASS>
344.111875097

> <JCHEM_ACCEPTOR_COUNT>
10

> <JCHEM_ATOM_COUNT>
44

> <JCHEM_AVERAGE_NEUTRAL_MICROSPECIES_CHARGE>
-5.83473818020017e-05

> <JCHEM_AVERAGE_POLARIZABILITY>
30.712373279509936

> <JCHEM_BIOAVAILABILITY>
1

> <JCHEM_DONOR_COUNT>
7

> <JCHEM_FORMAL_CHARGE>
0

> <JCHEM_GHOSE_FILTER>
0

> <JCHEM_IUPAC>
(2R,3R,4R,5S,6R)-5-{[(2S,3R,4S,5R,6R)-3-fluoro-4,5-dihydroxy-6-(hydroxymethyl)oxan-2-yl]oxy}-6-(hydroxymethyl)oxane-2,3,4-triol

> <ALOGPS_LOGP>
-2.09

> <JCHEM_LOGP>
-3.812283089666667

> <ALOGPS_LOGS>
-0.07

> <JCHEM_MDDR_LIKE_RULE>
0

> <JCHEM_NEUTRAL_CHARGE>
0

> <JCHEM_NUMBER_OF_RINGS>
2

> <JCHEM_PHYSIOLOGICAL_CHARGE>
0

> <JCHEM_PKA>
12.394366147826297

> <JCHEM_PKA_STRONGEST_ACIDIC>
11.280013494268928

> <JCHEM_PKA_STRONGEST_BASIC>
-2.9810957088284855

> <JCHEM_POLAR_SURFACE_AREA>
169.29999999999998

> <JCHEM_REFRACTIVITY>
66.6446

> <JCHEM_ROTATABLE_BOND_COUNT>
4

> <JCHEM_RULE_OF_FIVE>
0

> <ALOGPS_SOLUBILITY>
2.90e+02 g/l

> <JCHEM_TRADITIONAL_IUPAC>
biotin

> <JCHEM_VEBER_RULE>
0

> <DRUGBANK_ID>
DB04155

> <SECONDARY_ACCESSION_NUMBERS>
EXPT00118

> <DRUG_GROUPS>
experimental

> <GENERIC_NAME>
2-Fluoro-2-Deoxy-Beta-D-Galactopyranosyl-Beta-D-Glucopyranose

$$$$
