
  Mrv0541 02231217102D          

 12 13  0  0  0  0            999 V2000
    0.0000    0.0000    0.0000 N   0  0  0  0  0  0  0  0  0  0  0  0
    0.7145   -0.4125    0.0000 C   0  0  0  0  0  0  0  0  0  0  0  0
    1.4289    0.0000    0.0000 N   0  0  0  0  0  0  0  0  0  0  0  0
    2.1434   -0.4125    0.0000 C   0  0  0  0  0  0  0  0  0  0  0  0
    2.8579    0.0000    0.0000 C   0  0  0  0  0  0  0  0  0  0  0  0
    3.5724   -0.4125    0.0000 C   0  0  0  0  0  0  0  0  0  0  0  0
    3.5724   -1.2375    0.0000 C   0  0  0  0  0  0  0  0  0  0  0  0
    2.8579   -1.6500    0.0000 C   0  0  0  0  0  0  0  0  0  0  0  0
    2.1434   -1.2375    0.0000 C   0  0  0  0  0  0  0  0  0  0  0  0
    1.4289   -1.6500    0.0000 C   0  0  0  0  0  0  0  0  0  0  0  0
    1.4289   -2.4750    0.0000 O   0  0  0  0  0  0  0  0  0  0  0  0
    0.7145   -1.2375    0.0000 N   0  0  0  0  0  0  0  0  0  0  0  0
  1  2  1  0  0  0  0
  2  3  2  0  0  0  0
  3  4  1  0  0  0  0
  4  5  2  0  0  0  0
  5  6  1  0  0  0  0
  6  7  2  0  0  0  0
  7  8  1  0  0  0  0
  8  9  2  0  0  0  0
  4  9  1  0  0  0  0
  9 10  1  0  0  0  0
 10 11  2  0  0  0  0
 10 12  1  0  0  0  0
  2 12  1  0  0  0  0
M  END
> <DATABASE_ID>
DB03780

> <DATABASE_NAME>
drugbank

> <SMILES>
NC1=NC2=CC=CC=C2C(=O)N1

> <INCHI_IDENTIFIER>
InChI=1S/C8H7N3O/c9-8-10-6-4-2-1-3-5(6)7(12)11-8/h1-4H,(H3,9,10,11,12)

> <INCHI_KEY>
SDTFBAXSPXZDKC-UHFFFAOYSA-N

> <FORMULA>
C8H7N3O

> <MOLECULAR_WEIGHT>
161.1607

> <EXACT_MASS>
161.058911861

> <JCHEM_ACCEPTOR_COUNT>
3

> <JCHEM_ATOM_COUNT>
19

> <JCHEM_AVERAGE_NEUTRAL_MICROSPECIES_CHARGE>
0.06018018030485035

> <JCHEM_AVERAGE_POLARIZABILITY>
15.706292864286334

> <JCHEM_BIOAVAILABILITY>
1

> <JCHEM_DONOR_COUNT>
2

> <JCHEM_FORMAL_CHARGE>
0

> <JCHEM_GHOSE_FILTER>
0

> <JCHEM_IUPAC>
2-amino-3,4-dihydroquinazolin-4-one

> <ALOGPS_LOGP>
0.06

> <JCHEM_LOGP>
0.4970616343333333

> <ALOGPS_LOGS>
-1.98

> <JCHEM_MDDR_LIKE_RULE>
0

> <JCHEM_NEUTRAL_CHARGE>
0

> <JCHEM_NUMBER_OF_RINGS>
2

> <JCHEM_PHYSIOLOGICAL_CHARGE>
0

> <JCHEM_PKA_STRONGEST_ACIDIC>
11.418522231098395

> <JCHEM_PKA_STRONGEST_BASIC>
5.805963220414361

> <JCHEM_POLAR_SURFACE_AREA>
67.47999999999999

> <JCHEM_REFRACTIVITY>
46.188700000000004

> <JCHEM_ROTATABLE_BOND_COUNT>
0

> <JCHEM_RULE_OF_FIVE>
1

> <ALOGPS_SOLUBILITY>
1.67e+00 g/l

> <JCHEM_TRADITIONAL_IUPAC>
biotin

> <JCHEM_VEBER_RULE>
0

> <DRUGBANK_ID>
DB03780

> <SECONDARY_ACCESSION_NUMBERS>
EXPT00551

> <DRUG_GROUPS>
experimental

> <GENERIC_NAME>
2-Aminoquinazolin-4(3h)-One

$$$$
