
  Mrv0541 05031421482D          

 16 15  0  0  1  0            999 V2000
    1.9520   -0.5230    0.0000 C   0  0  0  0  0  0  0  0  0  0  0  0
    0.5230    1.1270    0.0000 C   0  0  0  0  0  0  0  0  0  0  0  0
    4.0954    0.7145    0.0000 C   0  0  0  0  0  0  0  0  0  0  0  0
    1.2375    0.7145    0.0000 C   0  0  2  0  0  0  0  0  0  0  0  0
    3.3809    1.1270    0.0000 C   0  0  0  0  0  0  0  0  0  0  0  0
    1.9520    1.1270    0.0000 C   0  0  2  0  0  0  0  0  0  0  0  0
    2.6664    0.7145    0.0000 C   0  0  2  0  0  0  0  0  0  0  0  0
   -0.1914    0.7145    0.0000 O   0  0  0  0  0  0  0  0  0  0  0  0
    4.8099    1.1270    0.0000 O   0  0  0  0  0  0  0  0  0  0  0  0
    1.2375   -0.1105    0.0000 O   0  0  0  0  0  0  0  0  0  0  0  0
    3.3809    1.9520    0.0000 O   0  0  0  0  0  0  0  0  0  0  0  0
    1.9520    1.9520    0.0000 O   0  0  0  0  0  0  0  0  0  0  0  0
    2.6664   -0.1105    0.0000 O   0  0  0  0  0  0  0  0  0  0  0  0
    1.2375    1.5395    0.0000 H   0  0  0  0  0  0  0  0  0  0  0  0
    1.9520    0.3020    0.0000 H   0  0  0  0  0  0  0  0  0  0  0  0
    2.6664    1.5395    0.0000 H   0  0  0  0  0  0  0  0  0  0  0  0
  4  2  1  0  0  0  0
  5  3  1  0  0  0  0
  6  4  1  0  0  0  0
  7  5  1  0  0  0  0
  7  6  1  0  0  0  0
  8  2  1  0  0  0  0
  9  3  1  0  0  0  0
  4 10  1  1  0  0  0
 11  5  2  0  0  0  0
  6 12  1  6  0  0  0
 13  1  1  0  0  0  0
  7 13  1  6  0  0  0
  4 14  1  1  0  0  0
  6 15  1  6  0  0  0
  7 16  1  6  0  0  0
M  END
> <DATABASE_ID>
DB02438

> <DATABASE_NAME>
drugbank

> <SMILES>
[H][C@@](O)(CO)[C@@]([H])(O)[C@]([H])(OC)C(=O)CO

> <INCHI_IDENTIFIER>
InChI=1S/C7H14O6/c1-13-7(5(11)3-9)6(12)4(10)2-8/h4,6-10,12H,2-3H2,1H3/t4-,6-,7-/m1/s1

> <INCHI_KEY>
OFSVCCCZZQKHKQ-QPPQHZFASA-N

> <FORMULA>
C7H14O6

> <MOLECULAR_WEIGHT>
194.1825

> <EXACT_MASS>
194.07903818

> <JCHEM_ACCEPTOR_COUNT>
6

> <JCHEM_ATOM_COUNT>
27

> <JCHEM_AVERAGE_NEUTRAL_MICROSPECIES_CHARGE>
-2.012837360887512e-06

> <JCHEM_AVERAGE_POLARIZABILITY>
18.344162574914144

> <JCHEM_BIOAVAILABILITY>
1

> <JCHEM_DONOR_COUNT>
4

> <JCHEM_FORMAL_CHARGE>
0

> <JCHEM_GHOSE_FILTER>
0

> <JCHEM_IUPAC>
(3S,4R,5R)-1,4,5,6-tetrahydroxy-3-methoxyhexan-2-one

> <ALOGPS_LOGP>
-1.93

> <JCHEM_LOGP>
-2.6239053883333328

> <ALOGPS_LOGS>
0.42

> <JCHEM_MDDR_LIKE_RULE>
0

> <JCHEM_NEUTRAL_CHARGE>
0

> <JCHEM_NUMBER_OF_RINGS>
0

> <JCHEM_PHYSIOLOGICAL_CHARGE>
0

> <JCHEM_PKA>
13.698980721085618

> <JCHEM_PKA_STRONGEST_ACIDIC>
12.767407576003407

> <JCHEM_PKA_STRONGEST_BASIC>
-2.9745070630761212

> <JCHEM_POLAR_SURFACE_AREA>
107.22

> <JCHEM_REFRACTIVITY>
42.313

> <JCHEM_ROTATABLE_BOND_COUNT>
6

> <JCHEM_RULE_OF_FIVE>
1

> <ALOGPS_SOLUBILITY>
5.07e+02 g/l

> <JCHEM_TRADITIONAL_IUPAC>
biotin

> <JCHEM_VEBER_RULE>
0

> <DRUGBANK_ID>
DB02438

> <SECONDARY_ACCESSION_NUMBERS>
EXPT00180

> <DRUG_GROUPS>
experimental

> <GENERIC_NAME>
3-O-Methylfructose in Linear Form

$$$$
