
  Mrv0541 05031423462D          

 17 16  0  0  1  0            999 V2000
    1.4289   -0.8250    0.0000 C   0  0  0  0  0  0  0  0  0  0  0  0
   -0.7145    1.2375    0.0000 C   0  0  0  0  0  0  0  0  0  0  0  0
   -0.0000   -0.8250    0.0000 C   0  0  0  0  0  0  0  0  0  0  0  0
    0.7145   -1.2375    0.0000 C   0  0  2  0  0  0  0  0  0  0  0  0
    0.0000    0.8250    0.0000 C   0  0  2  0  0  0  0  0  0  0  0  0
   -0.7145    2.0625    0.0000 C   0  0  0  0  0  0  0  0  0  0  0  0
    0.7145   -2.0625    0.0000 C   0  0  0  0  0  0  0  0  0  0  0  0
    0.7145    1.2375    0.0000 N   0  0  0  0  0  0  0  0  0  0  0  0
   -1.4289    2.4750    0.0000 O   0  0  0  0  0  0  0  0  0  0  0  0
   -0.0000    2.4750    0.0000 O   0  0  0  0  0  0  0  0  0  0  0  0
    1.4289   -2.4750    0.0000 O   0  0  0  0  0  0  0  0  0  0  0  0
   -0.0000   -2.4750    0.0000 O   0  0  0  0  0  0  0  0  0  0  0  0
   -0.8250    0.0000    0.0000 O   0  0  0  0  0  0  0  0  0  0  0  0
    0.8250    0.0000    0.0000 O   0  0  0  0  0  0  0  0  0  0  0  0
    0.0000    0.0000    0.0000 P   0  0  0  0  0  0  0  0  0  0  0  0
    0.7145   -0.4125    0.0000 H   0  0  0  0  0  0  0  0  0  0  0  0
   -0.0000    1.6500    0.0000 H   0  0  0  0  0  0  0  0  0  0  0  0
  4  1  1  1  0  0  0
  4  3  1  0  0  0  0
  5  2  1  0  0  0  0
  6  2  1  0  0  0  0
  7  4  1  0  0  0  0
  5  8  1  6  0  0  0
  9  6  2  0  0  0  0
 10  6  1  0  0  0  0
 11  7  2  0  0  0  0
 12  7  1  0  0  0  0
 15  3  1  0  0  0  0
 15  5  1  0  0  0  0
 15 13  1  0  0  0  0
 15 14  2  0  0  0  0
  4 16  1  6  0  0  0
  5 17  1  1  0  0  0
M  END
> <DATABASE_ID>
DB03340

> <DATABASE_NAME>
drugbank

> <SMILES>
[H][C@@](C)(CP(O)(=O)[C@@]([H])(N)CC(O)=O)C(O)=O

> <INCHI_IDENTIFIER>
InChI=1S/C7H14NO6P/c1-4(7(11)12)3-15(13,14)5(8)2-6(9)10/h4-5H,2-3,8H2,1H3,(H,9,10)(H,11,12)(H,13,14)/t4-,5-/m1/s1

> <INCHI_KEY>
NJOTXUMMTTYQMQ-RFZPGFLSSA-N

> <FORMULA>
C7H14NO6P

> <MOLECULAR_WEIGHT>
239.1629

> <EXACT_MASS>
239.055873697

> <JCHEM_ACCEPTOR_COUNT>
7

> <JCHEM_ATOM_COUNT>
29

> <JCHEM_AVERAGE_NEUTRAL_MICROSPECIES_CHARGE>
-1.9988554156770806

> <JCHEM_AVERAGE_POLARIZABILITY>
20.520518269626507

> <JCHEM_BIOAVAILABILITY>
1

> <JCHEM_DONOR_COUNT>
4

> <JCHEM_FORMAL_CHARGE>
0

> <JCHEM_GHOSE_FILTER>
0

> <JCHEM_IUPAC>
(2S)-3-{[(1R)-1-amino-2-carboxyethyl](hydroxy)phosphoryl}-2-methylpropanoic acid

> <ALOGPS_LOGP>
-2.43

> <JCHEM_LOGP>
-2.3367689573747032

> <ALOGPS_LOGS>
-0.92

> <JCHEM_MDDR_LIKE_RULE>
0

> <JCHEM_NEUTRAL_CHARGE>
-2

> <JCHEM_NUMBER_OF_RINGS>
0

> <JCHEM_PHYSIOLOGICAL_CHARGE>
-2

> <JCHEM_PKA>
3.9099028568534573

> <JCHEM_PKA_STRONGEST_ACIDIC>
-0.06999786410264049

> <JCHEM_PKA_STRONGEST_BASIC>
10.009377726450316

> <JCHEM_POLAR_SURFACE_AREA>
137.92000000000002

> <JCHEM_REFRACTIVITY>
49.690200000000004

> <JCHEM_ROTATABLE_BOND_COUNT>
6

> <JCHEM_RULE_OF_FIVE>
1

> <ALOGPS_SOLUBILITY>
2.90e+01 g/l

> <JCHEM_TRADITIONAL_IUPAC>
tetrahydrofolic acid

> <JCHEM_VEBER_RULE>
0

> <DRUGBANK_ID>
DB03340

> <SECONDARY_ACCESSION_NUMBERS>
EXPT00448

> <DRUG_GROUPS>
experimental

> <GENERIC_NAME>
3-[(1-Amino-2-Carboxy-Ethyl)-Hydroxy-Phosphinoyl]-2-Methyl-Propionic Acid

$$$$
