
  Mrv0541 12161323002D          

 17 18  0  0  0  0            999 V2000
    3.8167   -0.7667    0.0000 O   0  0  0  0  0  0  0  0  0  0  0  0
    3.1042   -1.1792    0.0000 C   0  0  0  0  0  0  0  0  0  0  0  0
    4.5292   -1.1750    0.0000 C   0  0  0  0  0  0  0  0  0  0  0  0
    2.3792   -0.7667    0.0000 C   0  0  0  0  0  0  0  0  0  0  0  0
    5.2375   -0.7542    0.0000 C   0  0  0  0  0  0  0  0  0  0  0  0
    1.6750   -1.1875    0.0000 C   0  0  0  0  0  0  0  0  0  0  0  0
    5.9542   -1.1625    0.0000 C   0  0  0  0  0  0  0  0  0  0  0  0
    3.1042   -2.0125    0.0000 C   0  0  0  0  0  0  0  0  0  0  0  0
    4.5292   -2.0000    0.0000 C   0  0  0  0  0  0  0  0  0  0  0  0
    1.6750   -2.0125    0.0000 C   0  0  0  0  0  0  0  0  0  0  0  0
    5.9625   -1.9917    0.0000 C   0  0  0  0  0  0  0  0  0  0  0  0
    2.3792    0.0583    0.0000 Cl  0  0  0  0  0  0  0  0  0  0  0  0
    5.2291    0.0625    0.0000 O   0  0  0  0  0  0  0  0  0  0  0  0
    2.3792   -2.4250    0.0000 C   0  0  0  0  0  0  0  0  0  0  0  0
    5.2417   -2.4042    0.0000 C   0  0  0  0  0  0  0  0  0  0  0  0
    0.9542   -2.4250    0.0000 Cl  0  0  0  0  0  0  0  0  0  0  0  0
    6.6792   -2.4042    0.0000 Cl  0  0  0  0  0  0  0  0  0  0  0  0
  2  1  1  0  0  0  0
  3  1  1  0  0  0  0
  4  2  2  0  0  0  0
  5  3  1  0  0  0  0
  6  4  1  0  0  0  0
  7  5  2  0  0  0  0
  8  2  1  0  0  0  0
  9  3  2  0  0  0  0
 10 14  1  0  0  0  0
 11 15  2  0  0  0  0
 12  4  1  0  0  0  0
 13  5  1  0  0  0  0
 14  8  2  0  0  0  0
 15  9  1  0  0  0  0
 16 10  1  0  0  0  0
 17 11  1  0  0  0  0
  7 11  1  0  0  0  0
  6 10  2  0  0  0  0
M  END
> <DATABASE_ID>
DB08604

> <DATABASE_NAME>
drugbank

> <SMILES>
OC1=CC(Cl)=CC=C1OC1=C(Cl)C=C(Cl)C=C1

> <INCHI_IDENTIFIER>
InChI=1S/C12H7Cl3O2/c13-7-1-3-11(9(15)5-7)17-12-4-2-8(14)6-10(12)16/h1-6,16H

> <INCHI_KEY>
XEFQLINVKFYRCS-UHFFFAOYSA-N

> <FORMULA>
C12H7Cl3O2

> <MOLECULAR_WEIGHT>
289.542

> <EXACT_MASS>
287.951162589

> <JCHEM_ACCEPTOR_COUNT>
1

> <JCHEM_ATOM_COUNT>
24

> <JCHEM_AVERAGE_NEUTRAL_MICROSPECIES_CHARGE>
-0.1726123591182033

> <JCHEM_AVERAGE_POLARIZABILITY>
25.92401369691182

> <JCHEM_BIOAVAILABILITY>
1

> <JCHEM_DONOR_COUNT>
1

> <JCHEM_FORMAL_CHARGE>
0

> <JCHEM_GHOSE_FILTER>
1

> <JCHEM_IUPAC>
5-chloro-2-(2,4-dichlorophenoxy)phenol

> <ALOGPS_LOGP>
5.53

> <JCHEM_LOGP>
4.982101706333333

> <ALOGPS_LOGS>
-4.68

> <JCHEM_MDDR_LIKE_RULE>
0

> <JCHEM_NEUTRAL_CHARGE>
0

> <JCHEM_NUMBER_OF_RINGS>
2

> <JCHEM_PHYSIOLOGICAL_CHARGE>
0

> <JCHEM_PKA_STRONGEST_ACIDIC>
7.680637141174448

> <JCHEM_PKA_STRONGEST_BASIC>
-3.7626176476453383

> <JCHEM_POLAR_SURFACE_AREA>
29.46

> <JCHEM_REFRACTIVITY>
68.6941

> <JCHEM_ROTATABLE_BOND_COUNT>
2

> <JCHEM_RULE_OF_FIVE>
1

> <ALOGPS_SOLUBILITY>
6.05e-03 g/l

> <JCHEM_TRADITIONAL_IUPAC>
biotin

> <JCHEM_VEBER_RULE>
1

> <DRUGBANK_ID>
DB08604

> <DRUG_GROUPS>
approved; investigational

> <GENERIC_NAME>
Triclosan

> <SYNONYMS>
2,4,4'-Trichloro-2'-hydroxydiphenyl ether; 5-Chloro-2-(2,4-dichloro-phenoxy)-phenol; Triclosan; TriclosÃ¡n; Triclosanum

> <PRODUCTS>
1% Triclosan Anti-microbial Foaming Skin Cleanser; 1% Triclosan Anti-microbial Skin Cleanser; 1014 Foaming Antimicrobial; 3 in 1 Antibacterial Hair and Body Wash; AEROSCENT Milk and Honey Antibacterial Moisturizing; APRIL Bath and Shower Anti-Bacterial Lathering Cleanser; APRIL Bath and Shower Anti-bacterial Hand 3 Pack; Ab Handsoap; Accent Plus Antibacterial Skin Cleanser; Acclaim; Acnopur Mousse Assainissante; Action Chemical Antibac Clear; Activ; Adasept Acne Gel; Adasept Liq 0.5%; AeroGreen Antibac; Aerogreen Antibacterial; After Sport Body Wash With Triclosan; Aire-Master Antibacterial Liquid Handsoap; Aire-Master Foaming AB handsoap; Ajax Antibacterial; Aktif Anti-bacterial Lotion Soap; Alcohol Free Hand Sanitizer; All Day Freshness Antibacterial Body Wash with Moisturizer; Allegheny Antibac; Alphascrub Antiseptic Gel Soap; Alphascrub Antiseptic Gel Soap 0.5%; Altair Hand Care System Foam Anti-Bacterial Hand; Anchor Foaming Mango; Anti Bacterial Kitchen; Anti-Bacterial Deep Cleansing Hand Aloha Orchid; Anti-Bacterial Deep Cleansing Hand Apple Lavender; Anti-Bacterial Deep Cleansing Hand Apple Mango; Anti-Bacterial Deep Cleansing Hand Apple Wreath; Anti-Bacterial Deep Cleansing Hand Aqua Blossom; Anti-Bacterial Deep Cleansing Hand Aspen Autumn Day; Anti-Bacterial Deep Cleansing Hand Beach Flower; Anti-Bacterial Deep Cleansing Hand Bella Flora; Anti-Bacterial Deep Cleansing Hand Berry Parfait; Anti-Bacterial Deep Cleansing Hand Berry Sangria; Anti-Bacterial Deep Cleansing Hand Berry Vanilla; Anti-Bacterial Deep Cleansing Hand Black Cherry Merlot; Anti-Bacterial Deep Cleansing Hand Black Raspberry Vanilla; Anti-Bacterial Deep Cleansing Hand Blushing Mimosa; Anti-Bacterial Deep Cleansing Hand California Poppy; Anti-Bacterial Deep Cleansing Hand Calypso Berry; Anti-Bacterial Deep Cleansing Hand Candy Cane Bliss; Anti-Bacterial Deep Cleansing Hand Caramel Apple; Anti-Bacterial Deep Cleansing Hand Caramel Dream; Anti-Bacterial Deep Cleansing Hand Caribbean Escape; Anti-Bacterial Deep Cleansing Hand Cherry Blossom; Anti-Bacterial Deep Cleansing Hand Cilantro Peach; Anti-Bacterial Deep Cleansing Hand Cinnamon Heaven; Anti-Bacterial Deep Cleansing Hand Citrus Blueberry Swirl; Anti-Bacterial Deep Cleansing Hand Citrus Crush; Anti-Bacterial Deep Cleansing Hand Citrus Fig; Anti-Bacterial Deep Cleansing Hand Citrus Garland; Anti-Bacterial Deep Cleansing Hand Citrus Mint; Anti-Bacterial Deep Cleansing Hand Coconut Cove; Anti-Bacterial Deep Cleansing Hand Coconut Lime Verbena; Anti-Bacterial Deep Cleansing Hand Coconut Mango; Anti-Bacterial Deep Cleansing Hand Coconut Pineapple; Anti-Bacterial Deep Cleansing Hand Coconut Vanilla; Anti-Bacterial Deep Cleansing Hand Cool Summer Splash; Anti-Bacterial Deep Cleansing Hand Coral Reef; Anti-Bacterial Deep Cleansing Hand Cranapple Crisp; Anti-Bacterial Deep Cleansing Hand Cranberry Harvest; Anti-Bacterial Deep Cleansing Hand Cranberry Tangerine; Anti-Bacterial Deep Cleansing Hand Creamy Pumpkin; Anti-Bacterial Deep Cleansing Hand Crisp Cucumber; Anti-Bacterial Deep Cleansing Hand Crispy Golden Pear; Anti-Bacterial Deep Cleansing Hand Cucumber Melon; Anti-Bacterial Deep Cleansing Hand Dancing Waters; Anti-Bacterial Deep Cleansing Hand Eucalyptus Spearmint; Anti-Bacterial Deep Cleansing Hand Exotic Rainforest; Anti-Bacterial Deep Cleansing Hand Festive Vanilla Fig; Anti-Bacterial Deep Cleansing Hand Fresh Bamboo; Anti-Bacterial Deep Cleansing Hand Fresh Cut Lemon; Anti-Bacterial Deep Cleansing Hand Fresh Lavender; Anti-Bacterial Deep Cleansing Hand Fresh Lime Basil; Anti-Bacterial Deep Cleansing Hand Fresh Linen; Anti-Bacterial Deep Cleansing Hand Fresh Market Apple; Anti-Bacterial Deep Cleansing Hand Fresh Picked Apple Blossoms; Anti-Bacterial Deep Cleansing Hand Fresh Picked Apples; Anti-Bacterial Deep Cleansing Hand Fresh Picked Apricots; Anti-Bacterial Deep Cleansing Hand Fresh Picked Blueberries; Anti-Bacterial Deep Cleansing Hand Fresh Picked Cherries; Anti-Bacterial Deep Cleansing Hand Fresh Picked Crimson Plum; Anti-Bacterial Deep Cleansing Hand Fresh Picked Farmstand Apple; Anti-Bacterial Deep Cleansing Hand Fresh Picked First Bloom; Anti-Bacterial Deep Cleansing Hand Fresh Picked Garden Herbs; Anti-Bacterial Deep Cleansing Hand Fresh Picked Heirloom Cranberries; Anti-Bacterial Deep Cleansing Hand Fresh Picked Honeycrisp Apple; Anti-Bacterial Deep Cleansing Hand Fresh Picked Lemons; Anti-Bacterial Deep Cleansing Hand Fresh Picked Peaches; Anti-Bacterial Deep Cleansing Hand Fresh Picked Pear; Anti-Bacterial Deep Cleansing Hand Fresh Picked Pears; Anti-Bacterial Deep Cleansing Hand Fresh Picked Pomegranate; Anti-Bacterial Deep Cleansing Hand Fresh Picked Raspberries; Anti-Bacterial Deep Cleansing Hand Fresh Picked Scarlet Pumpkin; Anti-Bacterial Deep Cleansing Hand Fresh Picked Strawberries; Anti-Bacterial Deep Cleansing Hand Fresh Picked Sweet Clementine; Anti-Bacterial Deep Cleansing Hand Fresh Picked Tangerine; Anti-Bacterial Deep Cleansing Hand Fresh Picked Watermelon; Anti-Bacterial Deep Cleansing Hand Fresh Picked Wildberries; Anti-Bacterial Deep Cleansing Hand Fresh Sparkling Snow; Anti-Bacterial Deep Cleansing Hand Frosted Orange Spice; Anti-Bacterial Deep Cleansing Hand Frosted Plum Berry; Anti-Bacterial Deep Cleansing Hand Georgia Bourbon Peach; Anti-Bacterial Deep Cleansing Hand Ginger Pear; Anti-Bacterial Deep Cleansing Hand Guava Grapefruit Blast; Anti-Bacterial Deep Cleansing Hand Heartland Harvest Marmalade; Anti-Bacterial Deep Cleansing Hand Holly Berry Wreath; Anti-Bacterial Deep Cleansing Hand Holly Citrus Wreath; Anti-Bacterial Deep Cleansing Hand Iced Gingerbread; Anti-Bacterial Deep Cleansing Hand Island Bamboo; Anti-Bacterial Deep Cleansing Hand Island Breeze; Anti-Bacterial Deep Cleansing Hand Island Margarita; Anti-Bacterial Deep Cleansing Hand Island Nectar; Anti-Bacterial Deep Cleansing Hand Italian Lavender; Anti-Bacterial Deep Cleansing Hand Japanese Cherry Blossom; Anti-Bacterial Deep Cleansing Hand Kitchen Apple; Anti-Bacterial Deep Cleansing Hand Kitchen Lemon; Anti-Bacterial Deep Cleansing Hand Kitchen Mandarin; Anti-Bacterial Deep Cleansing Hand Lemon Clementine; Anti-Bacterial Deep Cleansing Hand Lemon Daisy; Anti-Bacterial Deep Cleansing Hand Lemon Meringue Cheer; Anti-Bacterial Deep Cleansing Hand Lemon Pomegranate Pop; Anti-Bacterial Deep Cleansing Hand Lemon Sunshine Slush; Anti-Bacterial Deep Cleansing Hand Lemon Vanilla; Anti-Bacterial Deep Cleansing Hand Malibu Citrus; Anti-Bacterial Deep Cleansing Hand Mandarin Blossom; Anti-Bacterial Deep Cleansing Hand Mandarin Nectar; Anti-Bacterial Deep Cleansing Hand Mango Berry Sparkler; Anti-Bacterial Deep Cleansing Hand Mango Mai Tai; Anti-Bacterial Deep Cleansing Hand Mango Margarita; Anti-Bacterial Deep Cleansing Hand Mango Paradise; Anti-Bacterial Deep Cleansing Hand Midnight Pomegranate; Anti-Bacterial Deep Cleansing Hand Mint Chocolate; Anti-Bacterial Deep Cleansing Hand Mistletoe Kiss; Anti-Bacterial Deep Cleansing Hand Montana Mountain Air; Anti-Bacterial Deep Cleansing Hand Moonligh Path; Anti-Bacterial Deep Cleansing Hand Nectarine Mint; Anti-Bacterial Deep Cleansing Hand New England Autumn Bouquet; Anti-Bacterial Deep Cleansing Hand Oatmeal Raisin Cookie; Anti-Bacterial Deep Cleansing Hand Ocean Citrus; Anti-Bacterial Deep Cleansing Hand Ocean Pearl; Anti-Bacterial Deep Cleansing Hand Ocean Sunset; Anti-Bacterial Deep Cleansing Hand Orange Sapphire; Anti-Bacterial Deep Cleansing Hand Orange Spice; Anti-Bacterial Deep Cleansing Hand Orchard Leaves; Anti-Bacterial Deep Cleansing Hand Orchard Walk; Anti-Bacterial Deep Cleansing Hand Pacific Blue; Anti-Bacterial Deep Cleansing Hand Papaya Melon Scoop; Anti-Bacterial Deep Cleansing Hand Paradise Coconut; Anti-Bacterial Deep Cleansing Hand Paris Amour; Anti-Bacterial Deep Cleansing Hand Passionfruit Coconut; Anti-Bacterial Deep Cleansing Hand Passionfruit Colada; Anti-Bacterial Deep Cleansing Hand Passionfruit Fig; Anti-Bacterial Deep Cleansing Hand Peach Bellini; Anti-Bacterial Deep Cleansing Hand Peach Blossom; Anti-Bacterial Deep Cleansing Hand Peach Poppy; Anti-Bacterial Deep Cleansing Hand Peach Punch; Anti-Bacterial Deep Cleansing Hand Pink Berry Citrus; Anti-Bacterial Deep Cleansing Hand Pink Grapefruit; Anti-Bacterial Deep Cleansing Hand Pink Sugarplum; Anti-Bacterial Deep Cleansing Hand Pumpkin Caramel Latte; Anti-Bacterial Deep Cleansing Hand Pumpkin Cupcake; Anti-Bacterial Deep Cleansing Hand Pure Vanilla; Anti-Bacterial Deep Cleansing Hand Rainkissed Leaves; Anti-Bacterial Deep Cleansing Hand Raspberry Pink Peony; Anti-Bacterial Deep Cleansing Hand Ribbon Candy; Anti-Bacterial Deep Cleansing Hand Sea Island Cotton; Anti-Bacterial Deep Cleansing Hand Seattle Hazelnut Latte; Anti-Bacterial Deep Cleansing Hand Sicilian Lemon; Anti-Bacterial Deep Cleansing Hand Snow Frosted Apple; Anti-Bacterial Deep Cleansing Hand Snow Kissed Mint; Anti-Bacterial Deep Cleansing Hand Snow Mint; Anti-Bacterial Deep Cleansing Hand Sonoma Vineyard Berries; Anti-Bacterial Deep Cleansing Hand Sparkling Mojito; Anti-Bacterial Deep Cleansing Hand Sparkling Pink Champagne; Anti-Bacterial Deep Cleansing Hand Sparkling Snow; Anti-Bacterial Deep Cleansing Hand Spice Kissed Pumpkin; Anti-Bacterial Deep Cleansing Hand Strawberry Basil; Anti-Bacterial Deep Cleansing Hand Strawberry Hibiscus; Anti-Bacterial Deep Cleansing Hand Sugar Lemon Fizz; Anti-Bacterial Deep Cleansing Hand Sugar Plum; Anti-Bacterial Deep Cleansing Hand Sugar Plum Dream; Anti-Bacterial Deep Cleansing Hand Sugared Vanilla Wish; Anti-Bacterial Deep Cleansing Hand Summer Escape; Anti-Bacterial Deep Cleansing Hand Sunburst Tangerine; Anti-Bacterial Deep Cleansing Hand Sweet Cinnamon Pumpkin; Anti-Bacterial Deep Cleansing Hand Sweet Orange Pumpkin; Anti-Bacterial Deep Cleansing Hand Sweet Pea; Anti-Bacterial Deep Cleansing Hand Tangelo Orange Twist; Anti-Bacterial Deep Cleansing Hand Tropical Berries; Anti-Bacterial Deep Cleansing Hand Tropical Papaya; Anti-Bacterial Deep Cleansing Hand Tropical Passionfruit; Anti-Bacterial Deep Cleansing Hand Tropical Sorbet Float; Anti-Bacterial Deep Cleansing Hand Tuscan Vineyard; Anti-Bacterial Deep Cleansing Hand Twilight Woods; Anti-Bacterial Deep Cleansing Hand Twisted Peppermint; Anti-Bacterial Deep Cleansing Hand Vanilla Bean Noel; Anti-Bacterial Deep Cleansing Hand Vanilla Berry Sorbet; Anti-Bacterial Deep Cleansing Hand Vanilla Buttercream; Anti-Bacterial Deep Cleansing Hand Vanilla Pistachio; Anti-Bacterial Deep Cleansing Hand Vanilla Snap; Anti-Bacterial Deep Cleansing Hand Warm Apple Cider; Anti-Bacterial Deep Cleansing Hand Warm Vanilla Sugar; Anti-Bacterial Deep Cleansing Hand Washington Apple Harvest; Anti-Bacterial Deep Cleansing Hand White Citrus; Anti-Bacterial Deep Cleansing Hand Wild Honeysuckle; Anti-Bacterial Deep Cleansing Hand Wildberry Dahlia; Anti-Bacterial Deep Cleansing Hand Wildberry Freesia; Anti-Bacterial Deep Cleansing Hand Wildberry Hibiscus; Anti-Bacterial Deep Cleansing Hand Winter Candy Apple; Anti-Bacterial Deep Cleansing Hand Winter Cranberry; Anti-Bacterial Deep Cleansing Hand Yuletide Pear Vanilla; Anti-Bacterial Deep Cleansing Hand reamy Pumpkin; Anti-Bacterial Gentle Foaming Hand Aloha Orchid; Anti-Bacterial Gentle Foaming Hand American Berry Pie; Anti-Bacterial Gentle Foaming Hand Apple Lavender; Anti-Bacterial Gentle Foaming Hand Apple Wreath; Anti-Bacterial Gentle Foaming Hand Aqua Blossom; Anti-Bacterial Gentle Foaming Hand Aspen Autumn Day; Anti-Bacterial Gentle Foaming Hand Beach Flower; Anti-Bacterial Gentle Foaming Hand Bella Flora; Anti-Bacterial Gentle Foaming Hand Berry Parfait; Anti-Bacterial Gentle Foaming Hand Berry Sangria; Anti-Bacterial Gentle Foaming Hand Berry Twinkle; Anti-Bacterial Gentle Foaming Hand Berry Vanilla; Anti-Bacterial Gentle Foaming Hand Black Cherry Merlot; Anti-Bacterial Gentle Foaming Hand Black Raspberry Vanilla; Anti-Bacterial Gentle Foaming Hand Blueberry Pancake; Anti-Bacterial Gentle Foaming Hand Blushing Mimosa; Anti-Bacterial Gentle Foaming Hand Brewberry; Anti-Bacterial Gentle Foaming Hand California Poppy; Anti-Bacterial Gentle Foaming Hand Calypso Berry; Anti-Bacterial Gentle Foaming Hand Candy Cane Bliss; Anti-Bacterial Gentle Foaming Hand Caramel Apple; Anti-Bacterial Gentle Foaming Hand Caramel Dream; Anti-Bacterial Gentle Foaming Hand Caribbean Escape; Anti-Bacterial Gentle Foaming Hand Cherry Blossom; Anti-Bacterial Gentle Foaming Hand Cilantro Peach; Anti-Bacterial Gentle Foaming Hand Cinnamon Heaven; Anti-Bacterial Gentle Foaming Hand Cinnamon Raisin Cookie; Anti-Bacterial Gentle Foaming Hand Citrus Blueberry Swirl; Anti-Bacterial Gentle Foaming Hand Citrus Crush; Anti-Bacterial Gentle Foaming Hand Citrus Fig; Anti-Bacterial Gentle Foaming Hand Citrus Garland; Anti-Bacterial Gentle Foaming Hand Citrus Mint; Anti-Bacterial Gentle Foaming Hand Coconut Cove; Anti-Bacterial Gentle Foaming Hand Coconut Lime Verbena; Anti-Bacterial Gentle Foaming Hand Coconut Mango; Anti-Bacterial Gentle Foaming Hand Coconut Pineapple; Anti-Bacterial Gentle Foaming Hand Coconut Vanilla; Anti-Bacterial Gentle Foaming Hand Cool Summer Splash; Anti-Bacterial Gentle Foaming Hand Coral Reef; Anti-Bacterial Gentle Foaming Hand Cranapple Crisp; Anti-Bacterial Gentle Foaming Hand Cranberry Harvest; Anti-Bacterial Gentle Foaming Hand Cranberry Tangerine; Anti-Bacterial Gentle Foaming Hand Creamy Pumpkin; Anti-Bacterial Gentle Foaming Hand Crisp Cucumber; Anti-Bacterial Gentle Foaming Hand Crisp Golden Pear; Anti-Bacterial Gentle Foaming Hand Cucumber Melon; Anti-Bacterial Gentle Foaming Hand Dancing Waters; Anti-Bacterial Gentle Foaming Hand Eucalyptus Mint; Anti-Bacterial Gentle Foaming Hand Exotic Rainforest; Anti-Bacterial Gentle Foaming Hand Festive Vanilla Fig; Anti-Bacterial Gentle Foaming Hand Fresh Balsam; Anti-Bacterial Gentle Foaming Hand Fresh Bamboo; Anti-Bacterial Gentle Foaming Hand Fresh Cut Lemon; Anti-Bacterial Gentle Foaming Hand Fresh Lavender; Anti-Bacterial Gentle Foaming Hand Fresh Lime Basil; Anti-Bacterial Gentle Foaming Hand Fresh Linen; Anti-Bacterial Gentle Foaming Hand Fresh Market Apple; Anti-Bacterial Gentle Foaming Hand Fresh Picked Apple Blossoms; Anti-Bacterial Gentle Foaming Hand Fresh Picked Apples; Anti-Bacterial Gentle Foaming Hand Fresh Picked Apricots; Anti-Bacterial Gentle Foaming Hand Fresh Picked Blueberries; Anti-Bacterial Gentle Foaming Hand Fresh Picked Cherries; Anti-Bacterial Gentle Foaming Hand Fresh Picked Crimson Plum; Anti-Bacterial Gentle Foaming Hand Fresh Picked Farmstand Apple; Anti-Bacterial Gentle Foaming Hand Fresh Picked First Bloom; Anti-Bacterial Gentle Foaming Hand Fresh Picked Garden Herbs; Anti-Bacterial Gentle Foaming Hand Fresh Picked Heirloom Cranberries; Anti-Bacterial Gentle Foaming Hand Fresh Picked Heirloom Pear; Anti-Bacterial Gentle Foaming Hand Fresh Picked Honeycrisp Apple; Anti-Bacterial Gentle Foaming Hand Fresh Picked Lemons; Anti-Bacterial Gentle Foaming Hand Fresh Picked Peaches; Anti-Bacterial Gentle Foaming Hand Fresh Picked Pear; Anti-Bacterial Gentle Foaming Hand Fresh Picked Pears; Anti-Bacterial Gentle Foaming Hand Fresh Picked Pomegranate; Anti-Bacterial Gentle Foaming Hand Fresh Picked Raspberries; Anti-Bacterial Gentle Foaming Hand Fresh Picked Scarlet Pumpkin; Anti-Bacterial Gentle Foaming Hand Fresh Picked Strawberries; Anti-Bacterial Gentle Foaming Hand Fresh Picked Sweet Clementine; Anti-Bacterial Gentle Foaming Hand Fresh Picked Tangerine; Anti-Bacterial Gentle Foaming Hand Fresh Picked Watermelon; Anti-Bacterial Gentle Foaming Hand Fresh Picked Wildberries; Anti-Bacterial Gentle Foaming Hand Fresh Sparkling Snow; Anti-Bacterial Gentle Foaming Hand Frosted Orange Spice; Anti-Bacterial Gentle Foaming Hand Frosted Plum Berry; Anti-Bacterial Gentle Foaming Hand Georgia Bourbon Peach; Anti-Bacterial Gentle Foaming Hand Ginger Pear; Anti-Bacterial Gentle Foaming Hand Green Apple; Anti-Bacterial Gentle Foaming Hand Green Apple Candy; Anti-Bacterial Gentle Foaming Hand Guava Grapefruit Blast; Anti-Bacterial Gentle Foaming Hand Heartland Harvest Marmalade; Anti-Bacterial Gentle Foaming Hand Holly Berry Wreath; Anti-Bacterial Gentle Foaming Hand Holly Citrus Wreath; Anti-Bacterial Gentle Foaming Hand I Heart Watermelon Apple; Anti-Bacterial Gentle Foaming Hand I Heart Watermelon Basil; Anti-Bacterial Gentle Foaming Hand I Heart Watermelon Cherry; Anti-Bacterial Gentle Foaming Hand I Heart Watermelon Wildberry Dahlia; Anti-Bacterial Gentle Foaming Hand Iced Gingerbread; Anti-Bacterial Gentle Foaming Hand Island Bamboo; Anti-Bacterial Gentle Foaming Hand Island Breeze; Anti-Bacterial Gentle Foaming Hand Island Margarita; Anti-Bacterial Gentle Foaming Hand Island Nectar; Anti-Bacterial Gentle Foaming Hand Italian Lavender; Anti-Bacterial Gentle Foaming Hand Japanese Cherry Blossom; Anti-Bacterial Gentle Foaming Hand Kitchen Apple; Anti-Bacterial Gentle Foaming Hand Kitchen Lemon; Anti-Bacterial Gentle Foaming Hand Kitchen Mandarin; Anti-Bacterial Gentle Foaming Hand Lemon Clementine; Anti-Bacterial Gentle Foaming Hand Lemon Meringue Cheer; Anti-Bacterial Gentle Foaming Hand Lemon Pomegranate Pop; Anti-Bacterial Gentle Foaming Hand Lemon Sunshine Slush; Anti-Bacterial Gentle Foaming Hand Lemon Vanilla; Anti-Bacterial Gentle Foaming Hand Malibu Citrus; Anti-Bacterial Gentle Foaming Hand Mandarin Blossom; Anti-Bacterial Gentle Foaming Hand Mandarin Nectar; Anti-Bacterial Gentle Foaming Hand Mango Berry Sparkler; Anti-Bacterial Gentle Foaming Hand Mango Mai Tai; Anti-Bacterial Gentle Foaming Hand Mango Margarita; Anti-Bacterial Gentle Foaming Hand Mango Paradise; Anti-Bacterial Gentle Foaming Hand Marshmallow; Anti-Bacterial Gentle Foaming Hand Midnight Pomegranate; Anti-Bacterial Gentle Foaming Hand Mint Chocolate; Anti-Bacterial Gentle Foaming Hand Mistletoe Kiss; Anti-Bacterial Gentle Foaming Hand Montana Mountain Air; Anti-Bacterial Gentle Foaming Hand Moonlight Path; Anti-Bacterial Gentle Foaming Hand Nectarine Mint; Anti-Bacterial Gentle Foaming Hand New England Autumn Bouquet; Anti-Bacterial Gentle Foaming Hand Noir for Men; Anti-Bacterial Gentle Foaming Hand Ocean Citrus; Anti-Bacterial Gentle Foaming Hand Ocean Pearl; Anti-Bacterial Gentle Foaming Hand Ocean Sunset; Anti-Bacterial Gentle Foaming Hand Ocean for Men; Anti-Bacterial Gentle Foaming Hand Orange Sapphire; Anti-Bacterial Gentle Foaming Hand Orange Spice; Anti-Bacterial Gentle Foaming Hand Orchard Leaves; Anti-Bacterial Gentle Foaming Hand Orchard Walk; Anti-Bacterial Gentle Foaming Hand Pacific Blue; Anti-Bacterial Gentle Foaming Hand Paradise Coconut; Anti-Bacterial Gentle Foaming Hand Paris Amour; Anti-Bacterial Gentle Foaming Hand Passionfruit Coconut; Anti-Bacterial Gentle Foaming Hand Passionfruit Colada; Anti-Bacterial Gentle Foaming Hand Peach Bellini; Anti-Bacterial Gentle Foaming Hand Peach Blossom; Anti-Bacterial Gentle Foaming Hand Peach Punch; Anti-Bacterial Gentle Foaming Hand Peppermint Patty; Anti-Bacterial Gentle Foaming Hand Pink Grapefruit; Anti-Bacterial Gentle Foaming Hand Pink Sugarplum; Anti-Bacterial Gentle Foaming Hand Pomegranate Passion; Anti-Bacterial Gentle Foaming Hand Pumpkin Caramel Latte; Anti-Bacterial Gentle Foaming Hand Pumpkin Cupcake; Anti-Bacterial Gentle Foaming Hand Pure Vanilla; Anti-Bacterial Gentle Foaming Hand Rainkissed Leaves; Anti-Bacterial Gentle Foaming Hand Raspberry Pink Peony; Anti-Bacterial Gentle Foaming Hand Ribbon Candy; Anti-Bacterial Gentle Foaming Hand Sea Island Cotton; Anti-Bacterial Gentle Foaming Hand Seattle Hazelnut Latte; Anti-Bacterial Gentle Foaming Hand Sicilian Lemon; Anti-Bacterial Gentle Foaming Hand Snow Frosted Apple; Anti-Bacterial Gentle Foaming Hand Snow Kissed Mint; Anti-Bacterial Gentle Foaming Hand Snow Mint; Anti-Bacterial Gentle Foaming Hand Sonoma Vineyard Berries; Anti-Bacterial Gentle Foaming Hand Sour Patch Kids; Anti-Bacterial Gentle Foaming Hand Sparkling Mojito; Anti-Bacterial Gentle Foaming Hand Sparkling Pink Champagne; Anti-Bacterial Gentle Foaming Hand Sparkling Snow; Anti-Bacterial Gentle Foaming Hand Spice Kissed Pumpkin; Anti-Bacterial Gentle Foaming Hand Strawberry Basil; Anti-Bacterial Gentle Foaming Hand Sugar Lemon Fizz; Anti-Bacterial Gentle Foaming Hand Sugar Plum; Anti-Bacterial Gentle Foaming Hand Sugar Plum Dream; Anti-Bacterial Gentle Foaming Hand Sugared Vanilla Wish; Anti-Bacterial Gentle Foaming Hand Summer Escape; Anti-Bacterial Gentle Foaming Hand Sunburst Tangerine; Anti-Bacterial Gentle Foaming Hand Sweet Cinnamon Pumpkin; Anti-Bacterial Gentle Foaming Hand Sweet Orange Pumpkin; Anti-Bacterial Gentle Foaming Hand Sweet Pea; Anti-Bacterial Gentle Foaming Hand Tangelo Orange Twist; Anti-Bacterial Gentle Foaming Hand Tis The Season; Anti-Bacterial Gentle Foaming Hand Tropical Berries; Anti-Bacterial Gentle Foaming Hand Tropical Papaya; Anti-Bacterial Gentle Foaming Hand Tropical Passionfruit; Anti-Bacterial Gentle Foaming Hand Tropical Sorbet Float; Anti-Bacterial Gentle Foaming Hand Tuscan Vineyard; Anti-Bacterial Gentle Foaming Hand Twilight Woods; Anti-Bacterial Gentle Foaming Hand Twilight Woods for Men; Anti-Bacterial Gentle Foaming Hand Twisted Peppermint; Anti-Bacterial Gentle Foaming Hand Vampire Blood; Anti-Bacterial Gentle Foaming Hand Vanilla Bean Noel; Anti-Bacterial Gentle Foaming Hand Vanilla Berry Sorbet; Anti-Bacterial Gentle Foaming Hand Vanilla Bliss; Anti-Bacterial Gentle Foaming Hand Vanilla Buttercream; Anti-Bacterial Gentle Foaming Hand Vanilla Pistachio; Anti-Bacterial Gentle Foaming Hand Vanilla Snap; Anti-Bacterial Gentle Foaming Hand Vanilla Snow Flake; Anti-Bacterial Gentle Foaming Hand Vermont Sugar Maple; Anti-Bacterial Gentle Foaming Hand Warm Apple Cider; Anti-Bacterial Gentle Foaming Hand Warm Vanilla Sugar; Anti-Bacterial Gentle Foaming Hand Washington Apple Harvest; Anti-Bacterial Gentle Foaming Hand White Citrus; Anti-Bacterial Gentle Foaming Hand Wild Honeysuckle; Anti-Bacterial Gentle Foaming Hand Wildberry Hibiscus; Anti-Bacterial Gentle Foaming Hand Winter; Anti-Bacterial Gentle Foaming Hand Winter Candy Apple; Anti-Bacterial Gentle Foaming Hand Winter Cranberry; Anti-Bacterial Gentle Foaming Hand Winter Spice Vanilla; Anti-Bacterial Gentle Foaming Hand Yuletide Pear Vanilla; Anti-Bacterial Hand Citrus Garland; Anti-Bacterial Hand Cranberry Tangerine; Anti-Bacterial Hand Kitchen Lemon; Anti-Bacterial Moisturizing Hand Apple Wreath; Anti-Bacterial Moisturizing Hand Aqua Blossom; Anti-Bacterial Moisturizing Hand Berry Vanilla; Anti-Bacterial Moisturizing Hand Black Raspberry Vanilla; Anti-Bacterial Moisturizing Hand Calypso Berry; Anti-Bacterial Moisturizing Hand Candy Cane Bliss; Anti-Bacterial Moisturizing Hand Caramel Apple; Anti-Bacterial Moisturizing Hand Caramel Dream; Anti-Bacterial Moisturizing Hand Caribbean Escape; Anti-Bacterial Moisturizing Hand Cherry Blossom; Anti-Bacterial Moisturizing Hand Cinnamon Heaven; Anti-Bacterial Moisturizing Hand Citrus Crush; Anti-Bacterial Moisturizing Hand Citrus Mint; Anti-Bacterial Moisturizing Hand Coconut Lime Verbena; Anti-Bacterial Moisturizing Hand Coconut Mango; Anti-Bacterial Moisturizing Hand Coconut Passionfruit; Anti-Bacterial Moisturizing Hand Coconut Pineapple; Anti-Bacterial Moisturizing Hand Coconut Vanilla; Anti-Bacterial Moisturizing Hand Cranapple Crisp; Anti-Bacterial Moisturizing Hand Creamy Pumpkin; Anti-Bacterial Moisturizing Hand Cucumber Melon; Anti-Bacterial Moisturizing Hand Dancing Waters; Anti-Bacterial Moisturizing Hand Eucalyptus Mint; Anti-Bacterial Moisturizing Hand Festive Vanilla Fig; Anti-Bacterial Moisturizing Hand Fresh Bamboo; Anti-Bacterial Moisturizing Hand Fresh Lavender; Anti-Bacterial Moisturizing Hand Fresh Lemon; Anti-Bacterial Moisturizing Hand Fresh Lime Basil; Anti-Bacterial Moisturizing Hand Fresh Linen; Anti-Bacterial Moisturizing Hand Fresh Market Apple; Anti-Bacterial Moisturizing Hand Fresh Picked Apricots; Anti-Bacterial Moisturizing Hand Fresh Picked Blackberries; Anti-Bacterial Moisturizing Hand Fresh Picked Cherries; Anti-Bacterial Moisturizing Hand Fresh Picked Lemons; Anti-Bacterial Moisturizing Hand Fresh Picked Pear; Anti-Bacterial Moisturizing Hand Fresh Picked Pears; Anti-Bacterial Moisturizing Hand Fresh Picked Pomegranates; Anti-Bacterial Moisturizing Hand Fresh Picked Strawberries; Anti-Bacterial Moisturizing Hand Fresh Picked Tangerine; Anti-Bacterial Moisturizing Hand Frosted Orange Spice; Anti-Bacterial Moisturizing Hand Holly Berry Wreath; Anti-Bacterial Moisturizing Hand Iced Gingerbread; Anti-Bacterial Moisturizing Hand Island Margarita; Anti-Bacterial Moisturizing Hand Island Nectar; Anti-Bacterial Moisturizing Hand Japanese Cherry Blossom; Anti-Bacterial Moisturizing Hand Kitchen Lemon; Anti-Bacterial Moisturizing Hand Lemon Clementine; Anti-Bacterial Moisturizing Hand Lemon Vanilla; Anti-Bacterial Moisturizing Hand Mandarin Nectar; Anti-Bacterial Moisturizing Hand Mango Margarita; Anti-Bacterial Moisturizing Hand Midnight Pomegranate; Anti-Bacterial Moisturizing Hand Mint Chocolate; Anti-Bacterial Moisturizing Hand Mistletoe Kiss; Anti-Bacterial Moisturizing Hand Moonlight Path; Anti-Bacterial Moisturizing Hand Nectarine Mint; Anti-Bacterial Moisturizing Hand Oatmeal Raisin Cookie; Anti-Bacterial Moisturizing Hand Ocean Citrus; Anti-Bacterial Moisturizing Hand Orange Sapphire; Anti-Bacterial Moisturizing Hand Orange Spice; Anti-Bacterial Moisturizing Hand Orchard Leaves; Anti-Bacterial Moisturizing Hand Peach Bellini; Anti-Bacterial Moisturizing Hand Peach Blossom; Anti-Bacterial Moisturizing Hand Pink Grapefruit; Anti-Bacterial Moisturizing Hand Pink Sugarplum; Anti-Bacterial Moisturizing Hand Pomegranate Passion; Anti-Bacterial Moisturizing Hand Pumpkin Caramel Latte; Anti-Bacterial Moisturizing Hand Rainkissed Leaves; Anti-Bacterial Moisturizing Hand Ribbon Candy; Anti-Bacterial Moisturizing Hand Sea Island Cotton; Anti-Bacterial Moisturizing Hand Snow Mint; Anti-Bacterial Moisturizing Hand Sparkling Snow; Anti-Bacterial Moisturizing Hand Sugar Plum; Anti-Bacterial Moisturizing Hand Summer Escape; Anti-Bacterial Moisturizing Hand Sunbrust Tangerine; Anti-Bacterial Moisturizing Hand Sweet Cinnamon Pumpkin; Anti-Bacterial Moisturizing Hand Sweet Pea; Anti-Bacterial Moisturizing Hand Tropical Papaya; Anti-Bacterial Moisturizing Hand Tropical Passionfruit; Anti-Bacterial Moisturizing Hand Twilight Woods; Anti-Bacterial Moisturizing Hand Twisted Peppermint; Anti-Bacterial Moisturizing Hand Unscented; Anti-Bacterial Moisturizing Hand Vanilla Bean Noel; Anti-Bacterial Moisturizing Hand Vanilla Berry Sorbet; Anti-Bacterial Moisturizing Hand Warm Vanilla Sugar; Anti-Bacterial Moisturizing Hand White Citrus; Anti-Bacterial Moisturizing Hand Wild Honeysuckle; Anti-Bacterial Moisturizing Hand Winter Candy Apple; Anti-Bacterial Moisturizing Hand Winter Cranberry; Anti-Bacterial Moisturizing Hand Winter Spice Vanilla; Anti-Bacterial Moisturizing Hand Yuletide Pear Vanilla; Anti-bac - Asp 0.5%; Anti-bac Foam Soap; Anti-bacterial 3pk; Anti-bacterial Blue Raspberry Hand; Anti-bacterial Bubble Gum Hand; Anti-bacterial Deep Cleansing Hand Soap; Anti-bacterial Deep Cleansing Hand Soap / Savon DÃ©sincrustant Pour Les Mains AntibactÃ©rien; Anti-bacterial Foaming; Anti-bacterial Foaming Hand Soap; Anti-bacterial Fresh Aloe Hand; Anti-bacterial Gentle Foaming Hand Soap; Anti-bacterial Lemon Drop Hand; Anti-bacterial Moisturizing Hand Lotion; Anti-bacterial Moisturizing Hand Soap; Anti-bacterial Strawberry Kiss Hand; Anti-microbial Cleanser; Anti-microbial Moisturizer; AntiBAC FH FOAM Cucumber Aloe with Microhydration; AntiBAC FH Pure FOAM; AntiBac Foam Wash; AntiBac Foam Wash/Aerogreen; Antibac Foam Wash; Antibacterial; Antibacterial 2X; Antibacterial Amber Floral; Antibacterial Amber Hand Soap; Antibacterial Bar; Antibacterial Body Cleansing Gel - 0.55%; Antibacterial Body Wash; Antibacterial Body Wash Moisturizing; Antibacterial Body Wash Spring Water 2 in 1; Antibacterial Citrus Coconut; Antibacterial Citrus Fresh; Antibacterial Citrus Scent; Antibacterial Clean & Smooth; Antibacterial Clean & Smooth Gentle Skin Cleaner; Antibacterial Clean and Smooth Gentle Skin Cleanser; Antibacterial Cucumber Melon; Antibacterial Foam Energizing Citrus; Antibacterial Foam Lavender Fragrance; Antibacterial Foam with Moisturizers; Antibacterial Foaming; Antibacterial Foaming Berry Medley; Antibacterial Foaming Complete; Antibacterial Foaming Cranberry; Antibacterial Foaming Cucumber Melon; Antibacterial Foaming Fresh Pear; Antibacterial Foaming Green Tea; Antibacterial Foaming Hand Cleanser; Antibacterial Foaming Hand Soap; Antibacterial Foaming Hand Sp Cherry and Almond; Antibacterial Foaming Hand Sp Clean and Mild; Antibacterial Foaming Hand Sp Cucumber and Melon; Antibacterial Foaming Hand Sp Lemongrass; Antibacterial Foaming Hand Wash Olive; Antibacterial Foaming Olive and Aloe; Antibacterial Foaming Original; Antibacterial Foaming Pear Scent; Antibacterial Foaming Plumeria; Antibacterial Foaming Pomegranate; Antibacterial Foaming Refill; Antibacterial Foaming Skin Cleanser; Antibacterial Foaming Soap Tranquil Meadow; Antibacterial Foaming Soap Tropical Breeze; Antibacterial Foamy Mango; Antibacterial Fresh Pear; Antibacterial Hand; Antibacterial Hand - Aloe Vera; Antibacterial Hand - Ocean Fresh Scent; Antibacterial Hand - Strawberry Pomegranate Scent; Antibacterial Hand -Vanilla Brown Sugar; Antibacterial Hand Cleaner with Aloe and Vitamin E; Antibacterial Hand Cleanse; Antibacterial Hand Sanitizer; Antibacterial Hand Soap; Antibacterial Hand Soap With Light Moisturizers; Antibacterial Hand Soap for Sensitive Skin; Antibacterial Hand Sp With Light Moisturizers; Antibacterial Hand Sp With Light Moisturizers Refill; Antibacterial Handlotion; Antibacterial Hsoap Fresh and Light Scent - Refill; Antibacterial Light Moisturizers; Antibacterial Light Moisturizers Refill; Antibacterial Liquid Energizing Citrus; Antibacterial Liquid Hand; Antibacterial Liquid Hand Soap; Antibacterial Liquid Soap; Antibacterial Liquid Soap 0.5%; Antibacterial Liquid Soap Vanilla Savon Liquide Antibacterien Vanille; Antibacterial Lotion Soap; Antibacterial Mandarin; Antibacterial Mandarin and Grapefruit; Antibacterial Mandarin and Grapefruit Handsoap Gentle Cleansing Formula; Antibacterial Mandarin and Pomelo; Antibacterial Mint Scent; Antibacterial Original Scent; Antibacterial Pamegranate Apple; Antibacterial Passion Flower; Antibacterial Plum Foam; Antibacterial Refill; Antibacterial SUNBLOSSOM; Antibacterial Skin Rain Forest Extract From Entiere; Antibacterial Sparkling Mist; Antibacterial Spray Hand Soap/savon Antibacterien En Aerosol Pour Les Mains; Antibacterial Wet Wipes; Antibacterial With Light Moisturizers; Antibacterial for The Kitchen; Antimicrobial; Antimicrobial 0.3% Triclosan / Antimicrobien 0.3% Triclosan; Antimicrobial Foam; Antimicrobial Foaming Hand Soap / Savon Ã Mains Moussant Antimicrobien; Antimicrobial Hand; Antimicrobial Handsoap With Triclosan; Antiodorant Antiseptic Lotion Soap; Antiseptic Concentrated Lotion Hand Soap .3%; Antiseptic Hand Soap; Antiseptic Hand Soap - Liquid 1%; Antiseptic Hand Soap 0.3%; Antiseptic Hand Soap Liq 0.3%; Antiseptic Liquid Hand Soap 0.3%; Antiseptic Lotion Hand Soap 0.75%; Antiseptic-antiseptique Lot 0.3%; Aplicare Physicians Antibacterial; Appeal Antibac; Appeal Antibacterial Hand Wash; Applaud; Apple Cider Antibacterial Foaming Hand Wash; Apple Spice Antibacterial Foaming Hand Wash; April Bath and Shower Anti-bacterial Hand; Aquasept - Liquid - 0.5%; Aromafields Jasmine Scented Anti-Bacterial Hand; Aromafields Jasmine Scented Antibacterial Hand Wash; Aromafields Lavender Scented Anti-Bacterial Hand; Aromafields Lavender Scented Antibacterial Hand Wash; Aromafields Plumeria Scented Anti-Bacterial Hand; Aromafields Plumeria Scented Antibacterial Hand Wash; Aromafields Tiger Lily Scented Anti-Bacterial Hand; Aromafields Tiger Lily Scented Antibacterial Hand Wash; Asepso; Asept; Aspen Hand Soap Antibacterial; Astound Antibac; Astound Antibacterial; Aterra Antibacterial Foaming Hand Wash; Aterra Antibacterial Hand Wash; Athleticare Anti-Bacterial Hand AC 550; Aurora Antibacterial Apple Summer Berry; Aurora Antibacterial Basil Key Lime; Aurora Antibacterial Coconut Tropical Island; Aurora Antibacterial Japanese Flower Garden; Aurora Antibacterial Vanilla Brown Sugar; Autumn Medley Antibacterial Foaming Hand Wash; Avalon Premium French Milled; Avocado Antibacterial Hand Wash; Avocado Lime Antibacterial Foaming Hand Wash; Avocado Olive Antibacterial Foaming Hand Wash; Avon Clearskin Dual Action Anti-bacterial Cleanser; Avon Clearskin Medicated Foaming Cleanser; Avon Grime Busters Liquid Soap for Kids-.25%; Avon Naturals Antibacterial Liquid Soap; Avon Naturals Blackberry & Vanilla Anti-bacterial Hand Soap; Avon Skin So Soft Antibacterial Moisturizing Body Wash With Triclosan; Avon Skin So Soft Antibacterial Moisturizing Hand Lotion With Triclosan; Avon Skin So Soft Antibacterial Moisturizing Liquid Soap With Triclosan; Avon Skin-SO-soft Antibacterial Bar Soap; BANEN Antibacterial Handlotion; Bacti-Foam; Bacti-Free tm Antibacterial Hand; Bacti-Stat; Bacti-Stat AE; Bacti-stat 0.3%; Bacto Liq 0.2%; Basil and Plum Antibacterial Foaming Hand Wash; Basis All Clear Bar; BeCause Antibacterial Hand Jafra; Bebelle for Kids Antibacterial Hand; Ben E. Keith Antibacterial Hand Cleaner; Ben E. Keith Foaming Antibacterial Hand Cleaner; Benzocaine and Triclosan; Berkley Jensen Hypoallergenic Antibacterial Hand Soap Soap Enriched with Vitamin E and Aloe Vera Moisturizers; Bihos Antiseptic Lotion Hand Soap 0.3%; Bihos-lot 0.3%; Bio-lux; Bio-main San; Bio-perle - Lot Top 0.1%; Bio-safe Lotion; Bioclenz Medicated Hand Soap; Biotech-transfer Skin Shield Barrier Lotion; Blueberry Antibacterial Hand Wash; Blueberry Dream Antibacterial Hand Wash; Bm-san; Bob Barker Antibacterial Bar; Bobbarker Antibacterial Bar; Body Essence Raspberry Antibacterial; Body Series Antibacterial Hand Soap; Body Wash; Body Wash Clear Spring; Bodycology Brown Sugar Vanilla; Bodycology Cherry Blossom; Bodycology Coconut Lime; Bodycology Cucumber Melon; Bodycology Peppermint Sugar anti-bacterial scrubbing hand soap; Bodycology Sparkling Cranberry anti-bacterial scrubbing hand soap; Bodycology White Gardenia; Bodycology white gardenia anti-bacterial foaming hand soap; Bodycology white gardenia anti-bacterial scrubbing hand soap; Bright Solutions; Bright Solutions Antibac; Bright Solutions Antibacterial; CARE ONE Antibacterial Foaming Hand Soap Green Tea; CERTAPHIL Purifying Facial; CETAPHIL Gentle Clean; CV Medicated; CVS Antibacterial Foaming Kitchen; CVS Phramacy Antibacterial Melon; Cactus Flower and Mango Antibacterial Deep Cleansing Hand Sp; Cactus Flower and Mango Antibacterial Gentle Foaming Hand Sp; Cadisept Gel 0.3%; Calgon Vestal Medicated Lotion Soap 0.5%; Candy Apple Anti Bacterial Foaming Hand; Cardinal Health Antimicrobial Soap with Triclosan; Care One Antibacterial Peppermint Swirl; Care One Antibacterial Rum Raisin; Care One Antibacterial Snow Kissed Pear; Care One Antibacterial Tangerine Spice; Care One Creamy Coconut; Care One Lemon Verbena; Care One Peppermint Swirl; Care One Pine; Care One Pumpkin Pie; Care One Sun Kissed Pear; Care One Vanilla Apple Blossom; Care One Vanilla Bean; Careone Antibacterial; Careone Apple Berry; Careone Country Apple; Careone Lime Basil; Careone Tahitian Coconut; Careone Vanilla Brown Sugar; Caribbean Escape Anti Bacterial Foaming Hand; Cetaphil; Cetaphil Gentle Cleansing Antibacterial Bar; Cetaphil MEN 3-in-1 Active Antibacterial Bar; Cetaphil Men; Cetaphil Purifying Facial Bar; Chemstar Antibac; Cherry Creme Hand Soap Antibacterial; Chinese Herb Essence Bacteriostatic Foaming Agent; Chlorel; Chlorosept; Cinnamon Clove Antibacterial Foaming Hand Wash; Cinnamon Sticks Antibacterial Foaming Hand Wash; Cinnamon and Cream Antibacterial Foaming Hand Wash; Citrus Basil Antibacterial Cleansing Hand Wash; Citrus Basil Antibacterial Creamy Hand Wash; Citrus Basil Antibacterial Foaming Hand Wash; Citrus Basil Antibacterial Hand Wash; Citrus Basil and Lime Antibacterial Hand Wash; Citrus Breeze Antibacterial Foaming Hand Wash; Citrus Burst Antibacterial Cleansing Hand Wash; Citrus Burst Antibacterial Foaming Hand Wash; Citrus Burst Antibacterial Hand Wash; Citrus and Aloe Antibacterial Foaming Hand Wash; Citrus and Casaba Antibacterial Hand Wash; Citrus and Olive Antibacterial Foaming Hand Wash; Citrus, Basil and Lime Antibacterial Foaming Hand Wash; Clario Foaming Antibacterial Skin Cleanser; Clario Hand Cleanser; Clean & Clear Foaming Facial Cleaner; Clean & Clear Foaming Facial Cleanser; Clean Force; Clean Strike; Clean and Refresh Body Wash Moisturizing; Clean and Refreshing Body Wash Spring Fresh; Clean ems Hand Cleaner Towels; Clear Antibacterial Hand; Clearasil Daily Face Wash; Clearasil Medicated Cleansing Soap; Clearasil Skin Tone Acne Crm Medication; Clearasil Vanishing Acne Crm Medication; Clearskin Pore Penetrating Cleanser; CliniShield Health Care Personnel Handwash; Cns 80 Antiseptic Waterless Hand Cleaner; Coconut Antibacterial Creamy Hand Wash; Colgate Total - Advanced Health; Colgate Total Advance Whitening; Colgate Total Advanced Clean; Colgate Total Advanced Deep Clean; Colgate Total Advanced Fresh plus Whitening; Colgate Total Advanced Health Daily Repair; Colgate Total Advanced Health Gum Defense; Colgate Total Advanced Health Sensitive; Colgate Total Advanced Whitening; Colgate Total Clean Mint; Colgate Total Clean Mint ANTIGINGIVITIS; Colgate Total Clean in Between; Colgate Total Daily Repair; Colgate Total Fresh Mint Stripe; Colgate Total Gum Defense; Colgate Total Tpt; Colgate Total Whitening; Colgate Total Whitening Gel; Compliance; Contend Anti-bacterial Gel Skin Cleanser; Cool Plum Antibacterial foaming hand; Coral; Cotton Candy Anti Bacterial Foaming Hand; Country Apple Antibacterial Foaming Hand Wash; Cranberry Antibacterial Foaming Hand Wash; Cranberry Cherry Scented Antibac; Cranberry Cream Antibacterial Hand Wash; Cranberry Orange Antibacterial Foaming Hand Wash; Cranberry Spice Antibacterial Foaming Hand Wash; Creamy Peach Antibacterial Foaming Hand Wash; Crown Antiseptic Hand Soap; Cucumber & Melon Antibacterial Hand Soap; Cucumber Lime Antibacterial Foaming Hand Wash; Cucumber Melon Antibacterial Foaming Hand Wash; Cucumber and Lime Antibacterial Foaming Hand Wash; Cv Medicated Lotion Soap; Cvs Pharmacy; Cvs Pharmacy Antibacterial; Cvs Pharmacy Clean Antibacterial; Cvs Pharmacy Mandarin Citrus; Cvs Pharmacy Pear White Tea; DELUXE Dish DETERGENT; DHC Hand; DT Antibacterial Foaming Hand Wash; Dalan Antibacterial Deodorant Golden Tropics; Dalan Antibacterial Deodorant Ocean Breeze; Dalan Antibacterial Deodorant Spring Freshness; Dalan Covex Antibacterial Deodorant Maximum Hygiene; Dalan Covex Antibacterial Deodorant Natural Hygiene; Dalan Covex Antibacterial Deodorant Soft Hygiene; Dawn Classic; Dawn Direct Foam Citrus Kick; Dawn EXTRA ACTION; Dawn Ultra Concentrated Apple Blossom; Dawn Ultra Concentrated Orange; Dawn Ultra Concentrated Power Scrubber Apple Blossom; Dawn Ultra Concentrated Power Scrubber Orange; DawnMist Antibacterial; DawnMist Deodorant Bar No. 1; DawnMist Deodorant Bar No. 1 1/2; DawnMist Deodorant Bar No. 1/2; DawnMist Deodorant Bar No. 3; DawnMist Deodorant Bar No. 3/4; DawnMist Deodorant Bar No. 5; Dawnmist Deodorant; Deb Antimicrobial Fragrance and Dye Free; Deb Gold; Deb Med Antibacterial Foam Hand Wash; Deb Med Antimicrobial Foaming Hand Wash; Deb Med Antimicrobial Foaming Hand Wash Cucumber Aloe; Deb Med Antimicrobial Foaming Hand Wash Fragrance Free Dye Free; Deb Med Antimicrobial Foaming Hand Wash Fresh Grapefruit; DebMed Antimicrobial; DebMed Antimicrobial Body Wash and Shampoo; Delta Foremost Antibac; Deluxe All-purpose; Derma Med; Derma-Glove; DermaCare; DermaCen Antimicrobial-T Hand; DermaCen Foaming Antimicrobial-T Hand; DermaSana; Dermagerm; Dermaprot Triclotrex-B; Dermasept Plus Liq 1%; Dermaseptic; Dermoplus Medicated; Dewberry Burst Antibacterial Foaming Hand Wash; Dg Body Antibacterial; Dg Body Antibacterial Hand; Dial Aloe Antibacterial Soap with Moisturizer; Dial Antibacterial Hand Wash; Dial Clear and Refresh Antibacterial Hand Soap Clear; Dial Complete Antibacterial AntibactÃ©rienne Foaming Hand Wash Mousse Nettoyante Pour Les Mains Gentle On Skin Douce Pour LA Peau Power Berries Super Petits Fruits; Dial Complete Antibacterial AntibactÃ©rienne Foaming Hand Wash Mousse Nettoyante Pour Les Mains Gentle On Skin Douce Pour LA Peau Spring Water Source Naturelle; Dial Complete Antibacterial AntibactÃ©rienne Foaming Hand Wash Mousse Nettoyante Pours Le Mains With/avec Lotion; Dial Complete Antibacterial Foaming Hand Wash; Dial Complete Antibacterial Foaming Hand Wash Hello Kitty; Dial Complete Antibacterial Foaming Hand Wash White Tea and Vitamin E; Dial Complete Antibacterial Foaming Hand Wash with Lotion Clean Citrus, Gentle on skin; Dial Complete Antibacterial Foaming Hand Wash with Lotion Cool Plum, Gentle on skin; Dial Complete Antibacterial Foaming Hand Wash with Lotion Cranberry with Antioxidants; Dial Complete Antibacterial Foaming Hand Wash with Lotion Fresh Pear with Lotion; Dial Complete Antibacterial Foaming Hand Wash with Lotion Gentle on Skin, Frosted Pear with Lotion; Dial Complete Antibacterial Foaming Hand Wash with Lotion Iced Cranberry, Gentle on Skin; Dial Complete Antibacterial Foaming Hand Wash with Lotion Original Scent, Gentle on skin; Dial Complete Antibacterial Foaming Hand Wash with Lotion Soothing White Tea, Gentle on skin; Dial Complete Antibacterial Foaming Hand Washholiday line holiday line holiday line; Dial Complete Antibacterial Foaming Hand Washkitchen crisp limkitchen crisp lim kitchen crisp lime; Dial Complete Antibacterial/ AntibactÃ©rienne Foaming Hand Wash/mousse Nettoyante Pour Les Mains; Dial Complete Hello Kitty Antibacterial/antibactÃ©rienne Foaming Hand Wash/mousse Nettoyante Pours Les Mains; Dial Complete Moisturizing Antibacterial Foaming Hand Wash; Dial Complete With Lotion Antibacterial Foaming Hand Wash; Dial Country Orchard Antibacterial Soap with Moisturizer; Dial Gold Antibacterial Soap with Moisturizer; Dial Lavender and Twilight Jasmine Antibacterial Body Wash; Dial Mountain Fresh Antibacterial Body Wash; Dial Mountain Fresh Antibacterial Soap with Moisturizers; Dial Pomeganate and Tangerine Antibacterial Soap with Moisturizer; Dial Spring Water Antibacterial Soap with Moisturizer; Dial Tropical Escape Antibacterial Body Wash; Dial White Tea and Vitamin E Antibacterial Hand Soap; DigiClean E; DigiClean Slim-Line; DigiKlenz; Digiclean; Digiclean Antibacterial Foam Hand Soap; Digiclean Antibacterial Hand Soap; Digiclean E Hand Soap; Digiclean Slim-line Anti-bacterial Foam Hand Soap; Dignity Antibacterial; Dignity Health Medspa Antibacterial; Dimension Foaming Antibacterial Hand Soap; Dr.Phi Antibacterial hand wash; Dreumex Omnicare; Dt Antibacterial Hand; Dvm Handsoap Liq 0.5%; Dygen Liq 0.5%; ELF Milk and Honey Cleansing Anti-bacterial Hand; EZ Foam 6793; EZ-SAN Anti-Bacterial Foam Hand; Eco-Clean Elite; Eco-clean Elite Antibacterial Foam Hand Soap; EcoCare 250; Ecolab; Ecolab Digiclean; Ecolab Facilipro; Ecosave Grapefruit and Lemongrass Soap Antibacterial Hand Soap; Ecosave Japanese Cherry Blossom Soap Antibacterial Hand Soap; Ecosave Lavender Antibacterial Hand Soap; Endure 100; Endure 200; Endure 250; Endure 250 Foaming Healthcare Personnel Hand Wash; Enriched Foam Antibacterial Soap; Ensuite; EpiCare Plus; EpiSoft; Episoft Foaming Antibacterial Lotion Soap; Equaline; Equaline Liquid; Equate Antibacterial Foaming; Equate Spring Showers Antibacterial; Essential Everyday Orange Scent; Estesol Clear; Estesol Gold; Excelon Antibacterial Foam Cleanser; Excelon Antibacterial Plum Scent Foam Handwash Triclosan Liquid; Exchange Select Ultra Citrus Scent; Exuviance Moisturizing Antibacterial Facial Cleanser; Fa; Fair and Square Antibacterial with Moisturizer; Family Dollar Antibacterial; Family Dollar Antibacterial Hand; Family Dollar Foaming Antibacterial Hand Wash; First Aid Antiseptic Well at Walgreens; First Aid Cream 0.5%; First Degree Burn; First Force; First Mark Antibacterial Hand Wash; First Mark Foam Antimicrobial Hand Cleaner; Fivestar Specialties; Florafree Gel 0.3%; Foam Antibacterial Hand Wash; Foaming Antibacterial; Foaming Antibacterial Cucumber Melon; Foaming Antibacterial Hand Soap; Foaming Antibacterial Pear; Foaming Antibacterial Plumeria; Foaming Antimicrobial; Foaming Hand Soap; Foaming Hand Wash; Foaming Hand Wash Antibacterial; Foamy Mango; Forest Fresh; Freds Antibacterial Fresh Pear; French Vanilla and Lavender Antibacterial Foaming Hand Wash; FresHands; Fresh Blueberry Antibacterial Foaming Hand Wash; Fresh Citrus; Fresh Herbs Antibacterial Foaming Hand Wash; Fresh Herbs Antibacterial Hand Wash; Fresh Lemon Antibacterial Foaming Hand Wash; Fresh Lemon Antibacterial Hand Wash; Fresh Lime Antibacterial Foaming Hand Wash; Fresh Linen Antibacterial Foaming Hand Wash; Fresh Pear Foaming hand; Fresh PearSilk Antibacterial Foaming Hand; Fresh Picked Strawberries Anti Bacterial Foaming Hand; Fresh Power Gold; Freshscent Anti-Bacterial; Fruit Medley Antibacterial Foaming Hand Wash; Fu Er Jie; Fuller Antibacterial Hand; Fullermax #1084 - Lot 0.3%; G-995 - Lot Top 0.1%; GOJO Antibac Ltn Sp Fragrance Free; GOJO Antibacterial; GOJO Antibacterial Foam Handwash Triclosan Liquid; GOJO Antibacterial Foam Sp; GOJO Antibacterial Ltion Sp with Triclosan Fragrance Free; GOJO Antibacterial Plum Scent Foam Handwash Triclosan Liquid; GOJO E2 Foam Sanitizing So ap; GOJO E2 Sanitizing Ltn Sp; GOJO Foaming Handsoap Crystal; GOJO One Step Hand Wash and Sanitising Foam; Gain Ultra Lemon Zest; Gehwol Foot and Shoe Deodorant; Gel-X Liq 0.3%; Gentle Fresh Defense; Gentle Rain Antibacterial; Gentle Rain Antibacterial All Body Cleanser; Georgia Pacific Gold Am; Georgia Pacific Pacific Garden Handsoap; Germ-X; Germa Tan; Germasidol; Germicida Antimicrobial; Ginger Blossom Antibacterial Foaming Hand Wash; Ginger and Lemon Antibacterial Foaming Hand Wash; Gold Antibacterial Hand Soap with Moisturizer; Golden Pear Antibacterial Cleansing Hand Wash; Golden Pear Antibacterial Foaming Hand Wash; Golden Pear Antibacterial Foaming Handwash; Good Neighbor Pharmacy First Aid; Grape Vineyard Antibacterial Hand Wash; Great Value Ultra Concentrated Green Apple Scent; Great Value Ultra Concentrated Orange Scent; Green Tea and Ginseng Antibacterial Foaming Hand Wash; H50h Antiseptic Liq Hand Soap 0.3%; HFS Antimicrobial Foam Hand So ap with Triclosan - Triclosan Liquid; HFS Antimicrobial Foam Hand Soap With Triclosan; HUSKY 575 Foaming Antiseptic Hand Cleaner; Hand; Hand Antibacterial Premium; Hand Cleanse; Hand Cleanse - Ocean Fresh; Hand Cleanse - Strawberry Pomegranate; Hand Cleanse Citrus Blast Scent; Hand Cleanse Fresh Peach Scent; Hand Cleanse Refill; Hand Cleanse Water Melon Scent; Hand Essentials Antibacterial; Hand Guard Foaming Antimicrobial; Hand Kleen Foaming Antibacterial Hand; Hand Kleen Golden Touch Antibacterial Hand Cleanser; Hand Kleen Premium Antibacterial Hand; Hand Kleen Southern OrchardAntibacterial Han Antibacterial Hand Cleanser; Hand Sanitizer Alcohol Free; Hand Sanitizer Spray; Hand Sanitizer Wipes; Hand Wash Nettoyant Pour Les Mains Citrus Cilantro None; Hand Wash Nettoyant Pour Les Mains Orange Pekoe None; Hand Wash Nettoyant Pour Les Mains Plum Grapefruit None; Hand Wash Nettoyant Pour Les Mains Vallina Tuberose None; Handfresh Antibacterial Cleanser; Hands On Defense; Handsoap; Handtastic Foamy Mango; Hansol L'executive Antiseptic Liq 0.3%; Harris Teeter Antibacterial; Harris Teeter Foaming; Harvest Grape Antibacterial Foaming Hand Wash; Haunted Halloween Antibacterial Foaming Hand Wash; Healing Waters Cucumber Mint Antibacterial Hand Soap; Healing Waters Mandarin Vanilla Antibacterial Hand Soap; Healing Waters Sweet Pea Antibacterial Hand Soap; Health Care Personnel Handwash; Health Smart Antibacterial Spring Rain; Health Smart Antibacterial cucumber melon; Health Smart Antibacterial lavender chamomile; Health Smart Antibacterial original; Health Smart Antibacterial sweet pea orchid; Health Stat; Health-Stat Foam; Healthguard Anti-bacterial Hand Soap; Healthy Accents Antibacterial Body Wash Spring Fresh; High Five; Hill Country Essentials; Hill Country Essentials Antibacterial; Hill Country Essentials Antibacterial Foaming; Hill Country Essentials Lavender and Jasmine; Hillyard Golden Antimicrobial; Hillyard Golden Antimicrobial Foaming; Holiday Elegance; Holiday EleganceFrosted Gingerbre Frosted Gingerbread; Holiday EleganceFrosted GingerbreFrosted Gingerbre Frosted Gingerbread; Holiday ElegancePeppermint Twist Peppermint Twist Peppermint Twist; Holiday Treats Antibacterial Foaming Hand Wash; Home 360 Ultra Dish Detergent Green Apple Scent; Home Sense Ultra Green Apple Scent; Honey Almond Antibacterial Foaming Hand Wash; Honey Apple Antibacterial Foaming Hand Wash; Honey Vanilla Antibacterial Foaming Hand Wash; Honey Vanilla Antibacterial Hand Wash; Husky 575 Foaming Antiseptic Hand Cleaner; HyVee Ultra Concentrated Citrus Scent; HyVee Ultra Concentrated Green Apple Scent; Hygenipak Green Anti-microbial Skin Cleanser; Hygenipak Instafoam Anti-microbial Foaming Skin Cleanser; Hygenipak Plus Anti-microbial Skin Cleanser; ICI Food Handler Foam Wash; ICI Pleasantly Perfumed Antibacterial Foam Handwash; IMAGE ESSENTIALS Antibacterial; Iced Vanilla Antibacterial Foaming Hand Wash; Image Essentials; Image Essentials Antibacterial Gold; Image Essentials Antibacterial Hand Gold; Image Essentials Antibacterial Hand Mandarin and Grapefruit; Image Essentials Spring Fresh; Inhibit Gel; Ino-F Antibac Antibacterial Hand Soap; Instant First Aid CVS; Instant Hand Sanitizer; Island Banana Antibacterial Foaming Hand Wash; Island Blossom Antibacterial Foaming Hand Wash; Island Breeze Antibacterial Foaming Hand Wash; Island Spring Antibacterial Body Wash with Moisturizers; Isohex; Jabonito Fresh; Jade; Japanese Blossom Scented Antibac; Jasmine Foaming; Jasmine Mint Antibacterial Foaming Hand Wash; Jasmine Rose Hand Wash Nettoyant Pour Les Mains None; Jasmine Tea and Basil Antibacterial Hand Sp; Jh-19 Antiseptic Hand Soap 0.3%; Jisberry Antibacterial Hand; Jisberry Antibacterial Handlotion; John Deere Hand Sanitizer Wipes; Johnson's Cln and Clr.antibact.foam.cleanser; Joy Non-ultra; Joy Ultra Orange; Juicy Orange Antibacterial Foaming Hand Wash; KLEENEX Antibacterial Clear Skin Cleanser; KLEENEX Antibacterial Skin Cleanser; KLEENEX Luxury Antibacterial Skin Cleanser; Karesse; Kay QSR; Keystone; Keystone Antibacterial; Keystone Antibacterial Foam Hand Soap; Keystone Classic; Keystone Slim-line Antibacterial Foam Hand Soap; Kimcare Antibacterial Healthcare Personnel Handwash; Kimcare Antibacterial Luxury Foam Antibacterial Skin Cleanser; Kindest Kare Antimicrobial Foam Handwash; Kindest Kare Antimicrobial Foaming Handwash Healthcare Personnel Handwash; Kindest Kare Antimicrobial Hand and Body Wash; Kitchen Citrus foaming hand; Kiwi Lime Antibacterial Foaming Hand Wash; Kiwi Strawberry Antibacterial Foaming Hand Wash; Kiwi Strawberry Foaming Hand Wash; Kleenex Antibacterial Foam Skin Cleanser; Kleenex Antibacterial Skin Cleanser; Kleenex Clear Antibacterial Skin Cleanser; KooBoos Instant Hand Sanitizer; L'executif Antiseptic Handsoap 0.5%; Laura Line Antibacterial 0.2% Cream Soap; Laura Line Antibacterial 1% Liquid Soap; Laura Line Antibacterial Soap; Lavender Antibacterial Foaming Hand Wash; Lavender Foaming; Lavender Sage Antibacterial Foaming Hand Wash; Lavender and Sage Antibacterial Foaming Hand Wash; Le Techniq Antibacterial Vanilla Brown Sugar; Le Techniq Foaming Antibacterial Hand; Le Techniq Morning Mist Antibacterial Hand; Le Techniq Pear; Le Techniq Spring Fresh; Lemon Basil Antibacterial Foaming Hand Wash; Lemon Drop Antibacterial Hand Wash; Lemon Fresh Antibacterial Foaming Hand Wash; Lemon Verbeba Antibacterial Foaming Hand Wash; Lemon Verbena Antibacterial Foaming Hand Wash; Lemon Verbena Antibacterial Hand Wash; Lemon Zest Antibacterial Foaming Hand Wash; Lemon Zest Antibacterial Hand; Lemon and Basil Antibacterial Foaming Hand Wash; Lemon and Olive Oil Antibacterial Foaming Hand Wash; Lemongrass Tea Antibacterial Foaming Hand Wash; Lever 2000 Antibacterial; Lever 2000 Antibacterial Liquid Soap; Lever Bac Anti-bacterial Hand Cleaner Liq; Liquid Hand Cleanse; Liquid Nature Antibacterial Hand Soap; Lornamead Yardley; Lotion Kleen Green 0.55%; Lucky Antibacterial Deodorant; Lucky Antibacterial Hand Soap Supersoft; Lucky Supersoft Antibacterial Hand; Luxury; Luxury Antibacterial Foaming; Lynx medi foam; Lysol I.C. Antimicrobial; Lysol No Touch; Macaroon Antibacterial Foaming Hand Wash; Mandarin Nectar Antibacterial Foaming Hand Wash; Mandarin Nectar Antibacterial Foaming Handwash; Mandarin Orange Antibacterial Foaming Hand Wash; Mandarin Orange Antibacterial Hand; Manderin Orange Antibacterial Foaming Hand Wash; Mango Madness Anti Bacterial Foaming Hand; Mango Spice Antibacterial Foaming Handwash; Manosan; Marathon - Savon A Mains Antimicrobien - Triclosan Gel; Market Basket Ultra; Maxim; Mc-10 Antiseptic Hand Lotion 0.3%; McKesson Antimicrobial Hand; McKesson Foaming Hand Cleanse; Mckesson Antimicrobial Hand; MedSpa Antibacterial Bar; Medi Clean Antimicrobial/antibacterial Hand Cleaner; Medicated Lotion Soap M.L.S. 0.3% Triclosan; Medicated Soft N Sure Healthcare Personnel Handwash; Medspa Antibacterial Bar; Meijer Antibacterial Foaming; Menu Antiseptic Hand Soap White Pearl; Mevon 77 Liq - Extra Mild; Michaels Antiseptic Hand Soap; Microline Antiseptic Hand Cleanser 0.5%; Mint and Aloe Antibacterial Foaming Hand Wash; Mischievous Orange Antibacterial Foaming Hand Wash; Mistletoe and Mint Antibacterial Foaming Hand Wash; Mline; Moist SURE; Moisturizing Anti-bacterial Hand Soap; Moisturizing Antibacterial Hand Cleanser; Moussant Foaming Antibacterial Hand Soap; Mousse Antibacterial; Mulling Spices Antibacterial Foaming Hand Wash; My Essentials Citrus Scent; Myo-ther Antimicrobial Skin Cleanser; Mystic; Nail MD; Natural Concept Body Wash Spring Breeze; Natural Spring Antibacterial Hand Soap; Naturals Antibacterial Liquid Soap Vanilla; Naturals Blackberry and Vanilla Anti-Bacterial Hand; Naturals Cucumber and Melon Anti Bacterial Hand; Naturals Lime Blossom & Verbena Anti-bacterial Hand Soap; Naturals Lime Blossom and Verbena Anti-Bacterial Hand; Naturals Pomegranate and Mango Anti-Bacterial Hand; NeoCeuticals Antibacterial Facial Cleanser; NeoStrata Antibacterial Facial Cleanser; North Woods DermaFoam Premium Antibacterial; Noxzema Bacteria Fighting Cleanser; Noxzema Triple Clean; Noxzema Triple Clean Antibacterial Lathering Cleanser; Nu Skin Antibacterial Body Cleansing; Ocean Breeze Antibacterial Foaming Hand Wash; Oil Free Foaming Facial Cleanser; Olive Leaf Antibacterial Cleansing Hand Wash; Olive Leaf Antibacterial Creamy Hand Wash; Olive Leaf Antibacterial Foaming Hand Wash; Olive Oil Antibacterial Foaming Hand Wash; Olive Oil and Lemon Antibacterial Foaming Hand Wash; One Step Anti-bacterial Moisturizing Hand Lotion; One Step Anti-bacterial Moisturizing Hand Soap; Optisource Foam Antibacterial Skin Cleanser; Or/scrub; Oral Plan Antibacterial Mouthrinse With Fluoride; Orange Basil and Lime Antibacterial Foaming Hand Wash; Orange Bliss Antibacterial Foaming Hand Wash; Orange Blossom Antibacterial Foaming Hand Wash; Orange Cinnamon Antibacterial Foaming Hand Wash; Orange Clove Antibacterial Foaming Hand Wash; Orasoft 3; Orchid; Orchid By H E B Antibacterial Hand White Lavender and Mint; Orchid By H E B Antibacterial Moisturizing Vanilla and Apple Blossom; Orchid By H E B Cactus Flower and Mango Antibacterial Gentle Foaming Hand; Orchid By H E B Vanilla Brown Sugar; Orchid By H E B White Lavender and Mint; Orchid Cactus Flower and Mango; Orchid Jasmine Tea and Basil; Original Antibacterial Foaming hand; Original Antibacterial foaming hand Source; Our Family Dish and Antibacterial Citrus Burst Scent; Our Family Dish and Antibacterial Green Apple Scent; Oxy Daily Facial Cleanser Regular; Oxy Medicated Daily Face Wash E.S. 0.6%; Oxy Medicated Daily Face Wash Regular 0.3%; Oxy Medicated Soap 1%; PANROSA Antibacterial Hand; PANROSA Green Apple Scented Hand; PANROSA Honey Scented Hand; PANROSA Lavender Scented Hand; PANROSA Rose Scented Hand; PF Anti Bac; PRIME SOURCE Antibacterial Foam So ap Triclosan Liquid; PRIME SOURCE Antibacterial Plum Scent Foam Handwash Triclosan Liquid; PRO-LINK OPTIMUM Foaming Medicated Handwash; PROBLEND Antibacterial Foam; PROVON Antibacterial Foam Handwash; PROVON Antibacterial Perineal Wash; PROVON Antibacterial Plum Foam Handwash; PROVON Foaming Medicated Handwash with Moisturizers and Triclosan; PROVON Medicated Foam Handwash with Advanced Moisturizers; PROVON Medicated Foam Handwash with Advanced Moisturizers and Triclosan; PROVON Medicated Ltion S oap with Triclosan; Pacific; Pacific Anti-bacterial Hand Cleanse Blueberry Essence; Pacific Anti-bacterial Hand Cleanse Kiwi Essence; Pacific Anti-bacterial Hand Cleanse Peach Essence; Pacific Anti-bacterial Hand Cleanse Strawberry Essence; Pacific Garden Antibacterial Foam Soothing Lavender; Pacific Garden Antimicrobial, Fragrance Free, Dye Free; Pacific Garden Antimicrobial, Pacific Citrus, Mandarin; Palmers Skin Success; Palmolive Antibacterial; Panache; Panache Antibacterial Body Wash; Panoxyl Clear Acne Cleansing Gel; Panrosa Antibacterial Hand With Moisturizers; Papaya Mango Antibacterial Foaming Hand Wash; Passion Flower Antibacterial Foaming Hand Wash; Peaches and Cream Antibacterial Foaming Hand Wash; Pear Antibacterial Hand Soap; Pear Barlet Antibacterial Hand; Pear Blossom Antibacterial Gel Hand Wash; Pear Foaming Soap; Perfect Purity Antibacterial Gold; Perle + Antiseptic Lotion Soap / Savon Lotion Antiseptique; Personal Care Antibacterial Foaming Hand Wash; Personal Care Antibacterial Hand; Personal Care Antibacterial Hand - Fresh Melon; Personal Care Antibacterial Hand - Fresh Peach; Personal Care Oil Free Foaming Facial Cleanser; Phs Gold; Pier 1 Imports Citrus and Sunflowers Anti-bacterial Hand Wash N/A; Pier 1 Imports Coconut Breeze Anti-bacterial Hand Wash N/A; Pier 1 Imports Cool Watermelon Anti-bacterial Hand Wash N/A; Pier 1 Imports Granny Smith Apple Anti-bacterial Hand Wash N/A; Pier 1 Imports Lily Flower Anti-bacterial Hand Wash N/A; Pier 1 Imports Ocean Water Anti-bacterial Hand Wash N/A; Pier 1 Imports Sweet Cherry Anti-bacterial Hand Wash N/A; Pier 1 Imports Sweet Grape Anti-bacterial Hand Wash N/A; Pier 1 Imports Sweet Orange Anti-bacterial Hand Wash N/A; Pier 1 Imports Warm Vanilla Anti-bacterial Hand Wash N/A; Pineapple Orange Antibacterial Foaming Hand Wash; Pineapple Pear Antibacterial Foaming Handwash; Pink Peony Antibacterial Foaming Hand Wash; Pioneer Antibac; Piranha Brand Foaming Antibacterial Hand; Pomegranate & Mango Antibacterial Hand Soap; Pomegranate Antibacterial Foaming Hand Wash; Pomegranate Orange Antibacterial Foaming Hand Wash; Pomegranate Spice Antibacterial Hand Wash; Powerhouse Fresh Scent Ultra Dish; Prevail Lemongrass Scented Antibacterial Hand; Prevail Pomegranate Scented Antibacterial Hand; Prevail White Tea Scented Antibacterial Hand; Prevens; Price Chopper Pumpkin Spice Antibacterial Foaming; Prime Source Antibacterial Foam Soap; Primory Antibacterial Plum Scent Foam Handwash Triclosan Liquid; Pro Advantage Antibacterial; ProClean; ProFormance Series Antibacterial; Process Gel 0.3%; Proforce Commercial Products; Proformance Antibacterial; Promani Lot 0.2%; Protect Antibacterial Bar; Protection Plus Antibacterial; Protex Balance antibacterial; Protex antibacterial; Provon Antibacterial Body Wash; Provon Foaming Medicated Handwash With Triclosan and Moisturizers; Provon Medicated Lotion Soap With Triclosan; Publix UltraDish Detergent; Publix UltraDish Detergent Green Apple Scent; Pumpkin Seeds Antibacterial Foaming Hand Wash; Pumpkin Spice Antibacterial Foaming Hand Wash; Pureforce; Purgo Satin Foam; Purgo Ultra; Purgo Ultra Foam; Puritan; Puro Azul; QFS Antimicrobial Hand So ap with Triclosan - Triclosan Liquid; Qfs Antimicrobial Hand Soap With Triclosan; Quik Gel; Quik Spray; Quik Wipes; Quiksan; Radiance; Raggedy Ann and Andy Cotton Candy; Raggedy Ann and Andy Tropical Breeze; Red Apple Antibacterial Hand; Red Max Pro Anti-Bacterial Hand Cleaner; Red Max Pro Anti-bacterial Foaming Mango Splash; Red Max Pro Anti-bacterial Foaming Springtime Mist; Reeva Antibacterial Green Apple; Refresh AntiBac Foam; Reliable Mousse Foaming Antiseptic Hand Soap; Renewal; Rite Aid; Rite Aid Antibacterial; Rite Aid Foaming Hand; Rite Aid Liquid; Rite Aid Renewal; Rite Aid Renewal Antibacterial; Rite Aid Renewal Antibacterial Clear Spring; Rite Aid Renewal Clear Spring; Rite Aid Renewal Pear; Rite Aid Renewal White Tea; Roccos Old School Tattoo Balm Anti Bacterial Wash; RoyaLab Germ Away; Royal Antibacterial (apple and pear) moisturizing hand cleanse; Royal Antibacterial (coconut and lime); Royal Antibacterial (coconut and lime) moisturizing hand cleanse; Royal Antibacterial (mango); Royal Antibacterial Orange Berry Hand Cleanse; Royal Antibacterial Passion Plum Hand Cleanse; Royal Antibacterial Raspberry Hand Cleanse; Royal Antibacterial Tropical Fruit Hand Cleanse; Royal Antibacterial apple and pear; Royal Antibacterial mango Moisturizing Hand; S802 Supreme Liq 0.3%; SBS UltraGreen; SBS UltraPink; Safe 4 Hours Anti-microbial Spray Skin Protector; Safe 4 Hours Antibacterial Skin Protector; Safe Hands Antibacterial Liquid Hand; Safeguard; Safety Gold Antibacterial Hand; Safeway; Safeway Care Refill; Safeway Home Lemon Scent; Safeway Home Orange Scent; Safeway Triclosan Antibacterial Liquid Soap; Sage and Citrus Antibacterial Foaming Hand Wash; Sandy Beaches Antibacterial Foaming Hand Wash; Sani Clean Silk Antibacterial Hand Soap; Sani-derm Sd-300 Antibact Hand Soap 0.3%; SaniSuds Foam Antibacterial Hand; Sanitex MVP Foam Anti-Bacterial; Sanygel 0.3%; Satin Pink; Savon Antiseptique Milan; Savon Pour Les Mains Antiseptique Menu; Scott Antibacterial; Scott Antibacterial Foam Soap; Scott Clear Antibacterial Skin Cleanser; Sea Breeze Antibacterial Foaming Hand Wash; Seaqaderm Soap; Secure Antibac; Sentry Antibac; Septisol NPD with Triclosan Antiseptic; Septisol Solution; Serca Antibacterial Hand Soap; Servo-Stat T; Servo-Stat T Foam; Servo-Stat TE; Shop Rite Ultra So-soft; Shopko Antibacterial Deep Cleansing Hand; Shopko Antibacterial Foaming Hand Cleanser; Shopko Antibacterial Foaming Hand Sanitizer; Shunfa Anti-Bacteria Spra; Siams; Signatry Antibacterial Foam Cleanser; Signatry Antibacterial Plum Scent Foam Handwash Triclosan Liquid; Signature Care Antibacterial Foaming Hand Pear Scent; Signature Care Antibacterial Foaming Moisturizing; Silk Antibacterial Foaming Hand; Silk Antibacterial Foaming Hand Fresh Pear; Silk Antibacterial Foaming Hand Original; Simple Pleasures Antibacterial Foaming Hand; Simple Pleasures Antibacterial Hand; Simply Botanical Sensation Soothing Skin; Simply Right Antibacterial; Simply Right Body Care; Simply Right Body Care Antibacterial; Simply Right Body Care Sparkling Mist; Simply Right Sparkling Mist; Skintegrity Antibacterial Hand Amber; Skintegrity Antibacterial Hand Blue; Skintegrity Antibacterial Hand Clear; Skintegrity Antibacterial Hand Foaming; Skintegrity Antibacterial Hand Foaming with Skin Conditioners; Skinvisible Antiseptic Skin Cleanser; Smile Shower Soap; Smith and Johnson Antibacterial; Snow Drop Antibacterial Foaming Hand Wash; Soapy Sudz; Soft Care Antibacterial Hand Soap; Soft Care Antiseptic Skin Cleanser II; Soft Care Cross-contamination Control IV; Soft Care Foam Antibacterial Hand; Soft Care Foam Antibacterial Hand Soap; Soft Care Foam Select; Soft Care Foam Select Antibacterial Hand; Soft Care Foam Select Antibacterial Soap; Soft Care Foam Select Antibacterial Triclosan; Soft Care Foaming Antibacterial Hand; Soft Care Neutra Germ Antibacterial; Soft Care Neutra Germ Fragrance Free Antibacterial; Soft Care Neutra-Germ Antibacterial Fragrance Free; Soft Care Nutra-germ Antibacterial Lotion Soap; Soft and Silky/Health Guard Antibacterial Hand; Softcide EC; Softone Luxury Foam Antibacterial Skin Cleanser; Softsoap Antibacterial; Softsoap Antibacterial Hand; Softsoap Aquatic Splash Antibacterial with light Moisturizers; Solarcaine First Aid Cream; Solarcaine First Aid Spray; Soothing Foot Spray - Liquid; Source Antibacterial Foaming Hand Original; Southern Home Supreme Clean Ultra Concentrated Orange Scent; Spa Originals Antibacterial Gold Hand; SpaSoap Liquid Antibacterial; SpaSoap Liquid Antibacterial 2X Ultra; Sparkling Mist Antibacterial Cleanser With Moisturizers; Spatherapy; Spiced Cider Antibacterial Foaming Hand Wash; Spiced Pumpkin Antibacterial Foaming Hand Wash; Spooky Sugar Cookie Antibacterial Foaming Hand Wash; Sport Gel Antiseptic Soap; Spray Antibacterial Soap; Stoko Estesol Gold Antibacterial Hand Wash; Stoko Refresh; Stoko Refresh 4in1 Antibacterial Foam Wash; Stoko Refresh 4in1 Food Handler Foam; Stoko Refresh Antibacterial Foam; Stoko Refresh Antibacterial Foam Soap; Stoko Refresh Antibacterial Foam Wash for 4 In 1 Dispensing System; Stoko Refresh Food Handler Foam; Stoko Sp. Antibacterial Cleanser; Stoko Spray Antibacterial Cleanser; Strawberry & Guava Antibacterial Hand Soap; Studio 35 Spring Morning; Su 990 Germicidal Hand Cleaner 0.5%; Subito Liq 0.3%; Sugar Cookie Antibacterial Foaming Hand Wash; Sugar Cookie Antibacterial Hand Wash; Summer Berry Antibacterial Foaming Hand Wash; Summer Bouquet Antibacterial Foaming Hand Wash; Summer Breeze Antibacterial Foaming Hand Wash; Summer Citrus Antibacterial Foaming Hand Wash; Sun Blossom Antibacterial Foaming Hand Wash; Super Doucet Liq 0.1%; Super-lotion; Surgi Bac Hand Wash 0.5%; Surgi-bac Lotion Soap 0.5%; Sween Antibacterial Moisturizing Lotion; Sweet Fig Antibacterial Foaming Hand Wash; Sweet Fig Antibacterial Hand Wash; Sweet Golden Pear Antibacterial Foaming Hand Wash; Sweet Golden Pear Antibacterial Hand Wash; Sweet Honey Antibacterial Hand Wash; Sweet Olive Leaf Antibacterial Foaming Hand Wash; Sweet Papaya Antibacterial Foaming Hand Wash; Sweet Peaches Antibacterial Foaming Hand Wash; Sweet Pear Antibacterial Foaming Hand Wash; Sweet Red Apple Antibacterial Foaming Hand Wash; Swisher; Sysco Antimicrobial Hand Soap; T-Chem E2 Rated; T36 Medicated Cleanser; TC EnrichedFoam Antibacterial; TC EnrichedLotion Antibacterial Sanitizing Hand Cleaner; TC Enrichedlotion Antibacterial Hand Wash; TC SpraySoap; TENSOGEL Antiseptic Handwash; TING Athetes foot; TING Cream; Tabac Original Antiperspirant; Tardan Shp; Tc Antibacterial Lotion Soap; Tc Enriched Foam Antibacterial Hand Wash; Tc Enriched Lotion Antibacterial Hand Wash; Tersaseptic; Theochem Tea Tree Hand and Body Wash; Theochem White Tea Hand and Body Wash; Thera Rx; Therazcream; Tidy Bac Antibacterial Hand Cleanser; TopCare Antibacterial Foaming; Topcare Antibacterial Fresh Pear; Topcare Mandarin; Topco Antibacterial; Tork Foam Antibacterial Soap; Tork Premium; Tork Premium Antibacterial; Total Whitening; Tradition Bacteriostatic Hand Soap (fg40); Transeptic Liq 0.5%; Trick or Treat Antibacterial Foaming Hand Wash; Triclonex T2; Triclosan; Tricloseptic; Triclotrex-B Antibacterial; Triclotrex-B Antibacterial (neutral); Tuscan Lemon Antibacterial Foaming Hand Wash; Tuscan Lemon Antibacterial Hand Wash; Ulta Blood Orange Cranberry Anti-Bacterial Gentle Foaming; Ulta Coconut Cream Anti-Bacterial Deep Cleansing; Ulta Coconut Cream Anti-Bacterial Gentle Foaming; Ulta Fresh Spice Anti-Bacterial Deep Cleansing; Ulta Freshwater Mist Anti-Bacterial Deep Cleansing; Ulta Freshwater Mist Anti-Bacterial Gentle Foaming; Ulta Lavender Woods Anti-Bacterial Deep Cleansing; Ulta Lavender Woods Anti-Bacterial Gentle Foaming; Ulta Mandarin Mint Anti-Bacterial Deep Cleansing; Ulta Mandarin Mint Anti-Bacterial Gentle Foaming; Ulta Nectarine Spice Anti-Bacterial Deep Cleansing; Ulta Nectarine Spice Anti-Bacterial Gentle Foaming; Ulta Pomegranate Lime Anti-Bacterial Deep Cleansing; Ulta Pomegranate Lime Anti-Bacterial Gentle Foaming; Ulta Red Raspberry Anti-Bacterial Deep Cleansing; Ulta Simply Clean Anti-Bacterial Gentle Foaming; Ulta Sparkling Lemon Anti-Bacterial Deep Cleansing; Ulta Sparkling Lemon Anti-Bacterial Gentle Foaming; Ulta Vanilla Sugar Anti-Bacterial Deep Cleansing; Ulta Vanilla Sugar Anti-Bacterial Gentle Foaming; Ultra Blue Antibacterial Foaming Skin Cleanser; Ultra Mild Antibacterial Skin Cleanser; Ultra Palmolive Antibacterial; Ultragreen Antibacterial; United Lab Antibac; Up (and) Up Green Apple Scent; Up-87 Lotion Soap/up-87 Savon Lotion; Uphold Plus; Valiant Hand Soap - Lot 0.5%; Valour Antiseptic Hand Cleanser; Vanilla Antibacterial Hand Soap; Vanilla Brown Sugar Scented Antibac; Vanilla Cream; Vanilla Cream Antibacterial Hand Wash; Vanilla Cream and Apple Blossom Antibacterial Moisturizing Hand Sp; Vanilla Cupcake Anti Bacterial Foaming Hand; Vanilla Honey Antibacterial Foaming Hand Wash; Victoria Bay; Vineyard Antibacterial Foaming Hand Wash; Vineyard Grape Antibacterial Hand Wash; Virx; Wash-Free Disinfectant Gel; Wegmans; Wegmans Antibacterial; Wegmans Antibacterial Cucumber Melon; Wegmans Antibacterial With Moisturizers; Wegmans Orange Scent; Wegmans Ultra Dishwashing Orange Scent; West Antiseptic Soap; WhiskCare 387; White Lavendar and Mint Antibacterial Gentle Foaming Hand Sp; White Lavender and Mint Antibacterial Moisturizing Hand Sp; White Pearl - Lotion - 0.4%; White Tea Antibacterial; Wild Strawberry Antibacterial Hand Wash; Winning Hands Antibacterial; Winning Hands Foaming Antibacterial; Winning Hands Foaming Antibacterial Hand Cleanser; Winning Hands Mild Antibacterial Cleaner; Witchs Brew Antibacterial Foaming Hand Wash; Wood Wyant Qfs Antimicrobial Hand Soap; XtraCare Antibacterial Hand Cleanse Fresh Citrus; XtraCare Antibacterial Hand Cleanse Mountain Spring; XtraCare Antibacterial Hand Cleanse Original; XtraCare Antibacterial Hand Cleanse Strawberry Pomegranate; XtraCare Foaming Facial Cleanser; Zarina Medicated Antiseptic Soap; Zep Acclaim; Zep Anti-Bacterial Foaming Hand Cleaner; Zep Applaud Hand Cleaner; Zep Aspen; Zep Blue Sky Foaming; Zep Cherry Creme; Zep Citrus Blast; Zep Clean Ems; Zep Commercial Anti-bacterial Foaming Tropical Breeze; Zep Commercial Antibacterial Hand Soap Liquid Refill; Zep Commercial Antibacterial Pear; Zep Evening Calm; Zep Lemongrass; Zep Lemongrass Hand Soap - Antibacterial; Zep Mango Foaming; Zep Morning Snow; Zep Pear Anti-Bacterial; Zep Professional Healthcare Worker; Zep Professional Mild Antimicrobial Hand Cleaner; Zep Professional Tranquil Meadows; Zep Professional Z-Verdant Foaming; Zep Provisions Pot and Pan Premium; Zep Provisions Pot and Pan Premium FF; Zep Soapy Sudz; Zep Summer Rain; Zep Tranquil Meadows; dalan ANTIBACTERIAL deodorant Ocean Breeze regenerating; dalan GOLDEN TROPICS antibacterial deodorant; dalan OCEAN BREEZE antibacterial deodorant; dalan Spring Freshness antibacterial deodorant; dalan Therapy ANTIBACTERIAL and odor neutralizer; eZ Foam Foaming Antibacterial Hand; eZFoam Foaming Antibacterial Moisture Wash; enMotion Antimicrobial Foam; enMotion Antimicrobial Foam with Moisturizers Tranquil Aloe, Green; enMotion Antimicrobial with Moisturizers, Fragrance free, dye free; enMotion Antimicrobial with Moisturizers, Tranquil Aloe, Green; enMotion Antimicrobial, with Moisturizers, Tranquil Aloe, Green; enMotion High Frequency Antimicrobial Foam Handwash; freshscent Anti-Bacterial; germstarAntibacterialSoap; kiwi crate Liquid Hand; natural extensions Antibacterial Foaming Hand Wash; natural extensions Antibacterial Liquid Hand Wash

> <INTERNATIONAL_BRANDS>
DERMAPROT; Stri-Dex cleansing bar

$$$$
