
  Mrv0541 05041404342D          

 72 77  0  0  1  0            999 V2000
   -2.8579    0.8250    0.0000 C   0  0  0  0  0  0  0  0  0  0  0  0
   -4.2868    0.8250    0.0000 C   0  0  0  0  0  0  0  0  0  0  0  0
   -3.5724    7.0125    0.0000 C   0  0  0  0  0  0  0  0  0  0  0  0
   -2.8579    5.7750    0.0000 C   0  0  0  0  0  0  0  0  0  0  0  0
   -7.1447    7.4250    0.0000 C   0  0  0  0  0  0  0  0  0  0  0  0
   -5.7158    7.4250    0.0000 C   0  0  0  0  0  0  0  0  0  0  0  0
   -9.2881    4.5375    0.0000 C   0  0  0  0  0  0  0  0  0  0  0  0
   -8.5737    5.7750    0.0000 C   0  0  0  0  0  0  0  0  0  0  0  0
   -7.8592    1.2375    0.0000 C   0  0  0  0  0  0  0  0  0  0  0  0
   -8.5737    2.4750    0.0000 C   0  0  0  0  0  0  0  0  0  0  0  0
   -4.2868    3.3000    0.0000 C   0  0  0  0  0  0  0  0  0  0  0  0
   -3.5724    1.2375    0.0000 C   0  0  0  0  0  0  0  0  0  0  0  0
   -3.5724    6.1875    0.0000 C   0  0  0  0  0  0  0  0  0  0  0  0
   -6.4302    7.0125    0.0000 C   0  0  0  0  0  0  0  0  0  0  0  0
   -8.5737    4.9500    0.0000 C   0  0  0  0  0  0  0  0  0  0  0  0
   -7.8592    2.0625    0.0000 C   0  0  0  0  0  0  0  0  0  0  0  0
   -2.8579   -0.0000    0.0000 C   0  0  0  0  0  0  0  0  0  0  0  0
   -4.2868    0.0000    0.0000 C   0  0  0  0  0  0  0  0  0  0  0  0
   -2.8579    7.4250    0.0000 C   0  0  0  0  0  0  0  0  0  0  0  0
   -2.1434    6.1875    0.0000 C   0  0  0  0  0  0  0  0  0  0  0  0
   -7.1447    8.2500    0.0000 C   0  0  0  0  0  0  0  0  0  0  0  0
   -5.7158    8.2500    0.0000 C   0  0  0  0  0  0  0  0  0  0  0  0
  -10.0026    4.9500    0.0000 C   0  0  0  0  0  0  0  0  0  0  0  0
   -9.2881    6.1875    0.0000 C   0  0  0  0  0  0  0  0  0  0  0  0
   -8.5737    0.8250    0.0000 C   0  0  0  0  0  0  0  0  0  0  0  0
   -9.2881    2.0625    0.0000 C   0  0  0  0  0  0  0  0  0  0  0  0
   -5.0013    3.7125    0.0000 C   0  0  1  0  0  0  0  0  0  0  0  0
   -3.5724   -0.4125    0.0000 C   0  0  0  0  0  0  0  0  0  0  0  0
   -2.1434    7.0125    0.0000 C   0  0  0  0  0  0  0  0  0  0  0  0
   -6.4302    8.6625    0.0000 C   0  0  0  0  0  0  0  0  0  0  0  0
  -10.0026    5.7750    0.0000 C   0  0  0  0  0  0  0  0  0  0  0  0
   -9.2881    1.2375    0.0000 C   0  0  0  0  0  0  0  0  0  0  0  0
   -5.0013    4.5375    0.0000 C   0  0  2  0  0  0  0  0  0  0  0  0
   -5.7158    4.9500    0.0000 C   0  0  1  0  0  0  0  0  0  0  0  0
   -6.4302    4.5375    0.0000 C   0  0  1  0  0  0  0  0  0  0  0  0
   -3.5724    2.0625    0.0000 C   0  0  0  0  0  0  0  0  0  0  0  0
   -4.2868    5.7750    0.0000 C   0  0  0  0  0  0  0  0  0  0  0  0
   -6.4302    6.1875    0.0000 C   0  0  0  0  0  0  0  0  0  0  0  0
   -7.8592    4.5375    0.0000 C   0  0  0  0  0  0  0  0  0  0  0  0
   -7.1447    2.4750    0.0000 C   0  0  0  0  0  0  0  0  0  0  0  0
   -6.4302    3.7125    0.0000 C   0  0  1  0  0  0  0  0  0  0  0  0
   -2.1434   -0.4125    0.0000 O   0  0  0  0  0  0  0  0  0  0  0  0
   -5.0013   -0.4125    0.0000 O   0  0  0  0  0  0  0  0  0  0  0  0
   -2.8579    8.2500    0.0000 O   0  0  0  0  0  0  0  0  0  0  0  0
   -1.4289    5.7750    0.0000 O   0  0  0  0  0  0  0  0  0  0  0  0
   -7.8592    8.6625    0.0000 O   0  0  0  0  0  0  0  0  0  0  0  0
   -5.0013    8.6625    0.0000 O   0  0  0  0  0  0  0  0  0  0  0  0
  -10.7171    4.5375    0.0000 O   0  0  0  0  0  0  0  0  0  0  0  0
   -9.2881    7.0125    0.0000 O   0  0  0  0  0  0  0  0  0  0  0  0
   -8.5737    0.0000    0.0000 O   0  0  0  0  0  0  0  0  0  0  0  0
  -10.0026    2.4750    0.0000 O   0  0  0  0  0  0  0  0  0  0  0  0
   -3.5724   -1.2375    0.0000 O   0  0  0  0  0  0  0  0  0  0  0  0
   -1.4289    7.4250    0.0000 O   0  0  0  0  0  0  0  0  0  0  0  0
   -6.4302    9.4875    0.0000 O   0  0  0  0  0  0  0  0  0  0  0  0
  -10.7171    6.1875    0.0000 O   0  0  0  0  0  0  0  0  0  0  0  0
  -10.0026    0.8250    0.0000 O   0  0  0  0  0  0  0  0  0  0  0  0
   -2.8579    2.4750    0.0000 O   0  0  0  0  0  0  0  0  0  0  0  0
   -5.0013    6.1875    0.0000 O   0  0  0  0  0  0  0  0  0  0  0  0
   -7.1447    5.7750    0.0000 O   0  0  0  0  0  0  0  0  0  0  0  0
   -7.8592    3.7125    0.0000 O   0  0  0  0  0  0  0  0  0  0  0  0
   -6.4302    2.0625    0.0000 O   0  0  0  0  0  0  0  0  0  0  0  0
   -4.2868    2.4750    0.0000 O   0  0  0  0  0  0  0  0  0  0  0  0
   -5.7158    3.3000    0.0000 O   0  0  0  0  0  0  0  0  0  0  0  0
   -4.2868    4.9500    0.0000 O   0  0  0  0  0  0  0  0  0  0  0  0
   -5.7158    5.7750    0.0000 O   0  0  0  0  0  0  0  0  0  0  0  0
   -7.1447    4.9500    0.0000 O   0  0  0  0  0  0  0  0  0  0  0  0
   -7.1447    3.3000    0.0000 O   0  0  0  0  0  0  0  0  0  0  0  0
   -4.4710    4.3445    0.0000 H   0  0  0  0  0  0  0  0  0  0  0  0
   -4.1888    4.3942    0.0000 H   0  0  0  0  0  0  0  0  0  0  0  0
   -5.0013    5.3625    0.0000 H   0  0  0  0  0  0  0  0  0  0  0  0
   -6.4302    5.3625    0.0000 H   0  0  0  0  0  0  0  0  0  0  0  0
   -7.1447    4.1250    0.0000 H   0  0  0  0  0  0  0  0  0  0  0  0
 12  1  2  0  0  0  0
 12  2  1  0  0  0  0
 13  3  2  0  0  0  0
 13  4  1  0  0  0  0
 14  5  2  0  0  0  0
 14  6  1  0  0  0  0
 15  7  2  0  0  0  0
 15  8  1  0  0  0  0
 16  9  2  0  0  0  0
 16 10  1  0  0  0  0
 17  1  1  0  0  0  0
 18  2  2  0  0  0  0
 19  3  1  0  0  0  0
 20  4  2  0  0  0  0
 21  5  1  0  0  0  0
 22  6  2  0  0  0  0
 23  7  1  0  0  0  0
 24  8  2  0  0  0  0
 25  9  1  0  0  0  0
 26 10  2  0  0  0  0
 27 11  1  6  0  0  0
 28 17  2  0  0  0  0
 28 18  1  0  0  0  0
 29 19  2  0  0  0  0
 29 20  1  0  0  0  0
 30 21  2  0  0  0  0
 30 22  1  0  0  0  0
 31 23  2  0  0  0  0
 31 24  1  0  0  0  0
 32 25  2  0  0  0  0
 32 26  1  0  0  0  0
 33 27  1  0  0  0  0
 34 33  1  0  0  0  0
 35 34  1  0  0  0  0
 36 12  1  0  0  0  0
 37 13  1  0  0  0  0
 38 14  1  0  0  0  0
 39 15  1  0  0  0  0
 40 16  1  0  0  0  0
 41 35  1  0  0  0  0
 42 17  1  0  0  0  0
 43 18  1  0  0  0  0
 44 19  1  0  0  0  0
 45 20  1  0  0  0  0
 46 21  1  0  0  0  0
 47 22  1  0  0  0  0
 48 23  1  0  0  0  0
 49 24  1  0  0  0  0
 50 25  1  0  0  0  0
 51 26  1  0  0  0  0
 52 28  1  0  0  0  0
 53 29  1  0  0  0  0
 54 30  1  0  0  0  0
 55 31  1  0  0  0  0
 56 32  1  0  0  0  0
 57 36  2  0  0  0  0
 58 37  2  0  0  0  0
 59 38  2  0  0  0  0
 60 39  2  0  0  0  0
 61 40  2  0  0  0  0
 62 11  1  0  0  0  0
 62 36  1  0  0  0  0
 63 27  1  0  0  0  0
 63 41  1  0  0  0  0
 33 64  1  6  0  0  0
 64 37  1  0  0  0  0
 34 65  1  1  0  0  0
 65 38  1  0  0  0  0
 35 66  1  1  0  0  0
 66 39  1  0  0  0  0
 67 40  1  0  0  0  0
 41 67  1  1  0  0  0
 27 68  1  1  0  0  0
 33 69  1  1  0  0  0
 34 70  1  6  0  0  0
 35 71  1  6  0  0  0
 41 72  1  6  0  0  0
M  END
> <DATABASE_ID>
DB03208

> <DATABASE_NAME>
drugbank

> <SMILES>
[H][C@@]1(COC(=O)C2=CC(O)=C(O)C(O)=C2)O[C@@]([H])(OC(=O)C2=CC(O)=C(O)C(O)=C2)[C@@]([H])(OC(=O)C2=CC(O)=C(O)C(O)=C2)[C@@]([H])(OC(=O)C2=CC(O)=C(O)C(O)=C2)[C@]1([H])OC(=O)C1=CC(O)=C(O)C(O)=C1

> <INCHI_IDENTIFIER>
InChI=1S/C41H32O26/c42-17-1-12(2-18(43)28(17)52)36(57)62-11-27-33(64-37(58)13-3-19(44)29(53)20(45)4-13)34(65-38(59)14-5-21(46)30(54)22(47)6-14)35(66-39(60)15-7-23(48)31(55)24(49)8-15)41(63-27)67-40(61)16-9-25(50)32(56)26(51)10-16/h1-10,27,33-35,41-56H,11H2/t27-,33+,34-,35-,41-/m0/s1

> <INCHI_KEY>
QJYNZEYHSMRWBK-CGKDMBANSA-N

> <FORMULA>
C41H32O26

> <MOLECULAR_WEIGHT>
940.6772

> <EXACT_MASS>
940.118181196

> <JCHEM_ACCEPTOR_COUNT>
21

> <JCHEM_ATOM_COUNT>
99

> <JCHEM_AVERAGE_NEUTRAL_MICROSPECIES_CHARGE>
-0.530206713919592

> <JCHEM_AVERAGE_POLARIZABILITY>
86.19315043131736

> <JCHEM_BIOAVAILABILITY>
0

> <JCHEM_DONOR_COUNT>
15

> <JCHEM_FORMAL_CHARGE>
0

> <JCHEM_GHOSE_FILTER>
0

> <JCHEM_IUPAC>
[(2S,3R,4S,5S,6S)-3,4,5,6-tetrakis(3,4,5-trihydroxybenzoyloxy)oxan-2-yl]methyl 3,4,5-trihydroxybenzoate

> <ALOGPS_LOGP>
3.43

> <JCHEM_LOGP>
4.990480200333333

> <ALOGPS_LOGS>
-3.14

> <JCHEM_MDDR_LIKE_RULE>
1

> <JCHEM_NEUTRAL_CHARGE>
-1

> <JCHEM_NUMBER_OF_RINGS>
6

> <JCHEM_PHYSIOLOGICAL_CHARGE>
-1

> <JCHEM_PKA>
7.8333341961662954

> <JCHEM_PKA_STRONGEST_ACIDIC>
7.434932913585431

> <JCHEM_PKA_STRONGEST_BASIC>
-5.548951582132849

> <JCHEM_POLAR_SURFACE_AREA>
444.18000000000006

> <JCHEM_REFRACTIVITY>
214.74690000000015

> <JCHEM_ROTATABLE_BOND_COUNT>
16

> <JCHEM_RULE_OF_FIVE>
0

> <ALOGPS_SOLUBILITY>
6.79e-01 g/l

> <JCHEM_TRADITIONAL_IUPAC>
biotin

> <JCHEM_VEBER_RULE>
0

> <DRUGBANK_ID>
DB03208

> <SECONDARY_ACCESSION_NUMBERS>
EXPT01589

> <DRUG_GROUPS>
experimental

> <GENERIC_NAME>
Beta-1,2,3,4,6-Penta-O-Galloyl-D-Glucopyranose

$$$$
