
  Mrv0541 02231216082D          

 15 14  0  0  1  0            999 V2000
    9.9513    4.0954    0.0000 N   0  0  0  0  0  0  0  0  0  0  0  0
    9.9513    3.2704    0.0000 C   0  0  1  0  0  0  0  0  0  0  0  0
    9.2368    2.8579    0.0000 C   0  0  0  0  0  0  0  0  0  0  0  0
    8.5224    3.2704    0.0000 C   0  0  0  0  0  0  0  0  0  0  0  0
    7.8079    2.8579    0.0000 S   0  0  0  0  0  0  0  0  0  0  0  0
    7.0934    3.2704    0.0000 C   0  0  0  0  0  0  0  0  0  0  0  0
    6.3789    2.8579    0.0000 C   0  0  0  0  0  0  0  0  0  0  0  0
    5.6645    3.2704    0.0000 C   0  0  0  0  0  0  0  0  0  0  0  0
    4.9500    2.8579    0.0000 C   0  0  0  0  0  0  0  0  0  0  0  0
    4.2355    3.2704    0.0000 C   0  0  0  0  0  0  0  0  0  0  0  0
    3.5211    2.8579    0.0000 O   0  0  0  0  0  0  0  0  0  0  0  0
    4.2355    4.0954    0.0000 O   0  0  0  0  0  0  0  0  0  0  0  0
   10.6658    2.8579    0.0000 C   0  0  0  0  0  0  0  0  0  0  0  0
   11.3802    3.2704    0.0000 O   0  0  0  0  0  0  0  0  0  0  0  0
   10.6658    2.0329    0.0000 O   0  0  0  0  0  0  0  0  0  0  0  0
  2  1  1  6  0  0  0
  2  3  1  0  0  0  0
  3  4  1  0  0  0  0
  4  5  1  0  0  0  0
  5  6  1  0  0  0  0
  6  7  1  0  0  0  0
  7  8  1  0  0  0  0
  8  9  1  0  0  0  0
  9 10  1  0  0  0  0
 10 11  1  0  0  0  0
 10 12  2  0  0  0  0
  2 13  1  0  0  0  0
 13 14  1  0  0  0  0
 13 15  2  0  0  0  0
M  END
> <DATABASE_ID>
DB02337

> <DATABASE_NAME>
drugbank

> <SMILES>
N[C@@H](CCSCCCCC(O)=O)C(O)=O

> <INCHI_IDENTIFIER>
InChI=1S/C9H17NO4S/c10-7(9(13)14)4-6-15-5-2-1-3-8(11)12/h7H,1-6,10H2,(H,11,12)(H,13,14)/t7-/m0/s1

> <INCHI_KEY>
BMONDXDFXRPNKQ-ZETCQYMHSA-N

> <FORMULA>
C9H17NO4S

> <MOLECULAR_WEIGHT>
235.301

> <EXACT_MASS>
235.087828727

> <JCHEM_ACCEPTOR_COUNT>
5

> <JCHEM_ATOM_COUNT>
32

> <JCHEM_AVERAGE_NEUTRAL_MICROSPECIES_CHARGE>
-0.9990085046542337

> <JCHEM_AVERAGE_POLARIZABILITY>
25.227468550727764

> <JCHEM_BIOAVAILABILITY>
1

> <JCHEM_DONOR_COUNT>
3

> <JCHEM_FORMAL_CHARGE>
0

> <JCHEM_GHOSE_FILTER>
0

> <JCHEM_IUPAC>
5-{[(3S)-3-amino-3-carboxypropyl]sulfanyl}pentanoic acid

> <ALOGPS_LOGP>
-1.65

> <JCHEM_LOGP>
-1.9481372780126096

> <ALOGPS_LOGS>
-2.08

> <JCHEM_MDDR_LIKE_RULE>
0

> <JCHEM_NEUTRAL_CHARGE>
-1

> <JCHEM_NUMBER_OF_RINGS>
0

> <JCHEM_PHYSIOLOGICAL_CHARGE>
-1

> <JCHEM_PKA>
4.617444090673764

> <JCHEM_PKA_STRONGEST_ACIDIC>
2.5529736055266063

> <JCHEM_PKA_STRONGEST_BASIC>
9.50232405741572

> <JCHEM_POLAR_SURFACE_AREA>
100.62

> <JCHEM_REFRACTIVITY>
57.775200000000005

> <JCHEM_ROTATABLE_BOND_COUNT>
9

> <JCHEM_RULE_OF_FIVE>
1

> <ALOGPS_SOLUBILITY>
1.98e+00 g/l

> <JCHEM_TRADITIONAL_IUPAC>
biotin

> <JCHEM_VEBER_RULE>
0

> <DRUGBANK_ID>
DB02337

> <SECONDARY_ACCESSION_NUMBERS>
EXPT00843

> <DRUG_GROUPS>
experimental

> <GENERIC_NAME>
S-(D-Carboxybutyl)-L-Homocysteine

$$$$
