
  Mrv0541 02231216192D          

  5  4  0  0  1  0            999 V2000
    0.8250    1.4289    0.0000 C   0  0  0  0  0  0  0  0  0  0  0  0
    1.2375    0.7145    0.0000 C   0  0  0  0  0  0  0  0  0  0  0  0
    0.8250    0.0000    0.0000 C   0  0  1  0  0  0  0  0  0  0  0  0
    1.2375   -0.7145    0.0000 C   0  0  0  0  0  0  0  0  0  0  0  0
    0.0000    0.0000    0.0000 O   0  0  0  0  0  0  0  0  0  0  0  0
  1  2  1  0  0  0  0
  2  3  1  0  0  0  0
  3  4  1  0  0  0  0
  3  5  1  1  0  0  0
M  END
> <DATABASE_ID>
DB02606

> <DATABASE_NAME>
drugbank

> <SMILES>
CC[C@@H](C)O

> <INCHI_IDENTIFIER>
InChI=1S/C4H10O/c1-3-4(2)5/h4-5H,3H2,1-2H3/t4-/m1/s1

> <INCHI_KEY>
BTANRVKWQNVYAZ-SCSAIBSYSA-N

> <FORMULA>
C4H10O

> <MOLECULAR_WEIGHT>
74.1216

> <EXACT_MASS>
74.073164942

> <JCHEM_ACCEPTOR_COUNT>
1

> <JCHEM_ATOM_COUNT>
15

> <JCHEM_AVERAGE_NEUTRAL_MICROSPECIES_CHARGE>
2.3571619710871437e-09

> <JCHEM_AVERAGE_POLARIZABILITY>
9.03338336161798

> <JCHEM_BIOAVAILABILITY>
1

> <JCHEM_DONOR_COUNT>
1

> <JCHEM_FORMAL_CHARGE>
0

> <JCHEM_GHOSE_FILTER>
0

> <JCHEM_IUPAC>
(2R)-butan-2-ol

> <ALOGPS_LOGP>
0.66

> <JCHEM_LOGP>
0.7773283056666666

> <ALOGPS_LOGS>
0.42

> <JCHEM_MDDR_LIKE_RULE>
0

> <JCHEM_NEUTRAL_CHARGE>
0

> <JCHEM_NUMBER_OF_RINGS>
0

> <JCHEM_PHYSIOLOGICAL_CHARGE>
0

> <JCHEM_PKA_STRONGEST_ACIDIC>
17.68625361490547

> <JCHEM_PKA_STRONGEST_BASIC>
-1.6238326688403466

> <JCHEM_POLAR_SURFACE_AREA>
20.23

> <JCHEM_REFRACTIVITY>
21.9527

> <JCHEM_ROTATABLE_BOND_COUNT>
1

> <JCHEM_RULE_OF_FIVE>
1

> <ALOGPS_SOLUBILITY>
1.95e+02 g/l

> <JCHEM_TRADITIONAL_IUPAC>
biotin

> <JCHEM_VEBER_RULE>
1

> <DRUGBANK_ID>
DB02606

> <SECONDARY_ACCESSION_NUMBERS>
EXPT02861

> <DRUG_GROUPS>
experimental; investigational

> <GENERIC_NAME>
2-Butanol

$$$$
