
  Mrv0541 02231215452D          

  8  8  0  0  1  0            999 V2000
    2.1434    1.2375    0.0000 O   0  0  0  0  0  0  0  0  0  0  0  0
    1.4289    0.8250    0.0000 C   0  0  1  0  0  0  0  0  0  0  0  0
    1.4289    0.0000    0.0000 C   0  0  0  0  0  0  0  0  0  0  0  0
    0.7145   -0.4125    0.0000 S   0  0  0  0  0  0  0  0  0  0  0  0
    0.0000    0.0000    0.0000 S   0  0  0  0  0  0  0  0  0  0  0  0
    0.0000    0.8250    0.0000 C   0  0  0  0  0  0  0  0  0  0  0  0
    0.7145    1.2375    0.0000 C   0  0  2  0  0  0  0  0  0  0  0  0
    0.7145    2.0625    0.0000 O   0  0  0  0  0  0  0  0  0  0  0  0
  2  1  1  1  0  0  0
  2  3  1  0  0  0  0
  3  4  1  0  0  0  0
  4  5  1  0  0  0  0
  5  6  1  0  0  0  0
  6  7  1  0  0  0  0
  2  7  1  0  0  0  0
  7  8  1  6  0  0  0
M  END
> <DATABASE_ID>
DB01822

> <DATABASE_NAME>
drugbank

> <SMILES>
O[C@H]1CSSC[C@@H]1O

> <INCHI_IDENTIFIER>
InChI=1S/C4H8O2S2/c5-3-1-7-8-2-4(3)6/h3-6H,1-2H2/t3-,4-/m0/s1

> <INCHI_KEY>
YPGMOWHXEQDBBV-IMJSIDKUSA-N

> <FORMULA>
C4H8O2S2

> <MOLECULAR_WEIGHT>
152.235

> <EXACT_MASS>
151.99657088

> <JCHEM_ACCEPTOR_COUNT>
2

> <JCHEM_ATOM_COUNT>
16

> <JCHEM_AVERAGE_NEUTRAL_MICROSPECIES_CHARGE>
-3.459346590050802e-07

> <JCHEM_AVERAGE_POLARIZABILITY>
14.18180862329522

> <JCHEM_BIOAVAILABILITY>
1

> <JCHEM_DONOR_COUNT>
2

> <JCHEM_FORMAL_CHARGE>
0

> <JCHEM_GHOSE_FILTER>
0

> <JCHEM_IUPAC>
(4R,5R)-1,2-dithiane-4,5-diol

> <ALOGPS_LOGP>
-0.44

> <JCHEM_LOGP>
-0.5909905626666665

> <ALOGPS_LOGS>
-0.33

> <JCHEM_MDDR_LIKE_RULE>
0

> <JCHEM_NEUTRAL_CHARGE>
0

> <JCHEM_NUMBER_OF_RINGS>
1

> <JCHEM_PHYSIOLOGICAL_CHARGE>
0

> <JCHEM_PKA>
14.903570118541026

> <JCHEM_PKA_STRONGEST_ACIDIC>
13.476841094082925

> <JCHEM_PKA_STRONGEST_BASIC>
-3.3333591853447033

> <JCHEM_POLAR_SURFACE_AREA>
40.46

> <JCHEM_REFRACTIVITY>
37.2684

> <JCHEM_ROTATABLE_BOND_COUNT>
0

> <JCHEM_RULE_OF_FIVE>
1

> <ALOGPS_SOLUBILITY>
7.05e+01 g/l

> <JCHEM_TRADITIONAL_IUPAC>
tetrahydrofolic acid

> <JCHEM_VEBER_RULE>
0

> <DRUGBANK_ID>
DB01822

> <SECONDARY_ACCESSION_NUMBERS>
EXPT01282

> <DRUG_GROUPS>
experimental

> <GENERIC_NAME>
(4R,5R)-1,2-dithiane-4,5-diol

> <SYNONYMS>
D-4,5-Dihydroxy-1,2-dithiane; Dithiane Diol

$$$$
