
  Mrv0541 05041407132D          

  9  8  0  0  1  0            999 V2000
   -2.3645   -1.0164    0.0000 C   0  0  0  0  0  0  0  0  0  0  0  0
   -1.6500   -1.4289    0.0000 C   0  0  0  0  0  0  0  0  0  0  0  0
   -0.9355   -1.0164    0.0000 C   0  0  0  0  0  0  0  0  0  0  0  0
   -0.2211   -1.4289    0.0000 C   0  0  0  0  0  0  0  0  0  0  0  0
    1.2079   -1.4289    0.0000 C   0  0  0  0  0  0  0  0  0  0  0  0
    0.4934   -1.0164    0.0000 C   0  0  1  0  0  0  0  0  0  0  0  0
    0.4934   -0.1914    0.0000 N   0  0  0  0  0  0  0  0  0  0  0  0
    1.9224   -1.0164    0.0000 O   0  0  0  0  0  0  0  0  0  0  0  0
    0.4934   -1.8414    0.0000 H   0  0  0  0  0  0  0  0  0  0  0  0
  2  1  1  0  0  0  0
  3  2  1  0  0  0  0
  4  3  1  0  0  0  0
  6  4  1  0  0  0  0
  6  5  1  0  0  0  0
  6  7  1  1  0  0  0
  8  5  2  0  0  0  0
  6  9  1  1  0  0  0
M  END
> <DATABASE_ID>
DB03241

> <DATABASE_NAME>
drugbank

> <SMILES>
[H][C@](N)(CCCC)C=O

> <INCHI_IDENTIFIER>
InChI=1S/C6H13NO/c1-2-3-4-6(7)5-8/h5-6H,2-4,7H2,1H3/t6-/m0/s1

> <INCHI_KEY>
TZJGKUCHNFFHGN-LURJTMIESA-N

> <FORMULA>
C6H13NO

> <MOLECULAR_WEIGHT>
115.1735

> <EXACT_MASS>
115.099714043

> <JCHEM_ACCEPTOR_COUNT>
2

> <JCHEM_ATOM_COUNT>
21

> <JCHEM_AVERAGE_NEUTRAL_MICROSPECIES_CHARGE>
0.9245596981212183

> <JCHEM_AVERAGE_POLARIZABILITY>
13.500162151159834

> <JCHEM_BIOAVAILABILITY>
1

> <JCHEM_DONOR_COUNT>
1

> <JCHEM_FORMAL_CHARGE>
0

> <JCHEM_GHOSE_FILTER>
0

> <JCHEM_IUPAC>
(2S)-2-aminohexanal

> <ALOGPS_LOGP>
0.90

> <JCHEM_LOGP>
0.6743321579999999

> <ALOGPS_LOGS>
-0.42

> <JCHEM_MDDR_LIKE_RULE>
0

> <JCHEM_NEUTRAL_CHARGE>
1

> <JCHEM_NUMBER_OF_RINGS>
0

> <JCHEM_PHYSIOLOGICAL_CHARGE>
1

> <JCHEM_PKA_STRONGEST_BASIC>
8.088331540879626

> <JCHEM_POLAR_SURFACE_AREA>
43.09

> <JCHEM_REFRACTIVITY>
33.2979

> <JCHEM_ROTATABLE_BOND_COUNT>
4

> <JCHEM_RULE_OF_FIVE>
1

> <ALOGPS_SOLUBILITY>
4.36e+01 g/l

> <JCHEM_TRADITIONAL_IUPAC>
tetrahydrofolic acid

> <JCHEM_VEBER_RULE>
0

> <DRUGBANK_ID>
DB03241

> <SECONDARY_ACCESSION_NUMBERS>
EXPT02081

> <DRUG_GROUPS>
experimental

> <GENERIC_NAME>
1-Amino-1-Carbonyl Pentane

$$$$
