
  Mrv0541 02231215422D          

 10 10  0  0  0  0            999 V2000
    1.4289   -1.6500    0.0000 O   0  0  0  0  0  0  0  0  0  0  0  0
    0.7145   -1.2375    0.0000 C   0  0  0  0  0  0  0  0  0  0  0  0
    0.7145   -0.4125    0.0000 C   0  0  0  0  0  0  0  0  0  0  0  0
    0.0000    0.0000    0.0000 C   0  0  0  0  0  0  0  0  0  0  0  0
    0.0000    0.8250    0.0000 C   0  0  0  0  0  0  0  0  0  0  0  0
   -0.7145    1.2375    0.0000 O   0  0  0  0  0  0  0  0  0  0  0  0
    0.7145    1.2375    0.0000 C   0  0  0  0  0  0  0  0  0  0  0  0
    0.7145    2.0625    0.0000 O   0  0  0  0  0  0  0  0  0  0  0  0
    1.4289    0.8250    0.0000 C   0  0  0  0  0  0  0  0  0  0  0  0
    1.4289    0.0000    0.0000 O   0  0  0  0  0  0  0  0  0  0  0  0
  1  2  1  0  0  0  0
  2  3  1  0  0  0  0
  3  4  2  0  0  0  0
  4  5  1  0  0  0  0
  5  6  2  0  0  0  0
  5  7  1  0  0  0  0
  7  8  1  0  0  0  0
  7  9  2  0  0  0  0
  9 10  1  0  0  0  0
  3 10  1  0  0  0  0
M  END
> <DATABASE_ID>
DB01759

> <DATABASE_NAME>
drugbank

> <SMILES>
OCC1=CC(=O)C(O)=CO1

> <INCHI_IDENTIFIER>
InChI=1S/C6H6O4/c7-2-4-1-5(8)6(9)3-10-4/h1,3,7,9H,2H2

> <INCHI_KEY>
BEJNERDRQOWKJM-UHFFFAOYSA-N

> <FORMULA>
C6H6O4

> <MOLECULAR_WEIGHT>
142.1094

> <EXACT_MASS>
142.02660868

> <JCHEM_ACCEPTOR_COUNT>
4

> <JCHEM_ATOM_COUNT>
16

> <JCHEM_AVERAGE_NEUTRAL_MICROSPECIES_CHARGE>
-0.004971828501780135

> <JCHEM_AVERAGE_POLARIZABILITY>
12.633690024529503

> <JCHEM_BIOAVAILABILITY>
1

> <JCHEM_DONOR_COUNT>
2

> <JCHEM_FORMAL_CHARGE>
0

> <JCHEM_GHOSE_FILTER>
0

> <JCHEM_IUPAC>
5-hydroxy-2-(hydroxymethyl)-4H-pyran-4-one

> <ALOGPS_LOGP>
-1.02

> <JCHEM_LOGP>
-0.5004820473333333

> <ALOGPS_LOGS>
-0.19

> <JCHEM_MDDR_LIKE_RULE>
0

> <JCHEM_NEUTRAL_CHARGE>
0

> <JCHEM_NUMBER_OF_RINGS>
1

> <JCHEM_PHYSIOLOGICAL_CHARGE>
0

> <JCHEM_PKA>
14.398083037650226

> <JCHEM_PKA_STRONGEST_ACIDIC>
9.301322706894073

> <JCHEM_PKA_STRONGEST_BASIC>
-3.083176877268227

> <JCHEM_POLAR_SURFACE_AREA>
66.76

> <JCHEM_REFRACTIVITY>
35.265699999999995

> <JCHEM_ROTATABLE_BOND_COUNT>
1

> <JCHEM_RULE_OF_FIVE>
1

> <ALOGPS_SOLUBILITY>
9.23e+01 g/l

> <JCHEM_TRADITIONAL_IUPAC>
biotin

> <JCHEM_VEBER_RULE>
0

> <DRUGBANK_ID>
DB01759

> <SECONDARY_ACCESSION_NUMBERS>
EXPT01978

> <DRUG_GROUPS>
experimental

> <GENERIC_NAME>
Kojic acid

> <SYNONYMS>
5-hydroxy-2-(hydroxymethyl)-4-pyrone; 5-hydroxy-2-(hydroxymethyl)-4H-pyran-4-one; Ã¡cido kÃ³jico

> <PRODUCTS>
AnubisMed

$$$$
