
  Mrv0541 02241216092D          

  5  3  0  0  0  0            999 V2000
   -1.1959    0.6180    0.0000 K   0  3  0  0  0  0  0  0  0  0  0  0
    1.1959    0.6180    0.0000 O   0  0  0  0  0  0  0  0  0  0  0  0
    0.4534   -0.6180    0.0000 O   0  5  0  0  0  0  0  0  0  0  0  0
    0.4534    0.2070    0.0000 C   0  0  0  0  0  0  0  0  0  0  0  0
   -0.2059    0.6180    0.0000 O   0  0  0  0  0  0  0  0  0  0  0  0
  2  4  2  0  0  0  0
  3  4  1  0  0  0  0
  4  5  1  0  0  0  0
M  CHG  2   1   1   3  -1
M  END
> <DATABASE_ID>
DB11098

> <DATABASE_NAME>
drugbank

> <SMILES>
[K+].OC([O-])=O

> <INCHI_IDENTIFIER>
InChI=1S/CH2O3.K/c2-1(3)4;/h(H2,2,3,4);/q;+1/p-1

> <INCHI_KEY>
TYJJADVDDVDEDZ-UHFFFAOYSA-M

> <FORMULA>
CHKO3

> <MOLECULAR_WEIGHT>
100.1151

> <EXACT_MASS>
99.956275759

> <JCHEM_ACCEPTOR_COUNT>
3

> <JCHEM_ATOM_COUNT>
6

> <JCHEM_AVERAGE_NEUTRAL_MICROSPECIES_CHARGE>
-1.0006337308913795

> <JCHEM_AVERAGE_POLARIZABILITY>
3.860121269879195

> <JCHEM_BIOAVAILABILITY>
1

> <JCHEM_DONOR_COUNT>
1

> <JCHEM_FORMAL_CHARGE>
0

> <JCHEM_GHOSE_FILTER>
0

> <JCHEM_IUPAC>
potassium hydrogen carbonate

> <ALOGPS_LOGP>
-0.08

> <JCHEM_LOGP>
0.25005136566666664

> <ALOGPS_LOGS>
0.83

> <JCHEM_MDDR_LIKE_RULE>
0

> <JCHEM_NEUTRAL_CHARGE>
-1

> <JCHEM_NUMBER_OF_RINGS>
0

> <JCHEM_PHYSIOLOGICAL_CHARGE>
-1

> <JCHEM_PKA>
10.322599505540001

> <JCHEM_PKA_STRONGEST_ACIDIC>
3.501076428435099

> <JCHEM_POLAR_SURFACE_AREA>
60.36

> <JCHEM_REFRACTIVITY>
20.3353

> <JCHEM_ROTATABLE_BOND_COUNT>
0

> <JCHEM_RULE_OF_FIVE>
1

> <ALOGPS_SOLUBILITY>
6.81e+02 g/l

> <JCHEM_TRADITIONAL_IUPAC>
biotin

> <JCHEM_VEBER_RULE>
0

> <DRUGBANK_ID>
DB11098

> <DRUG_GROUPS>
approved

> <GENERIC_NAME>
Potassium bicarbonate

> <SYNONYMS>
Carbonic acid, monopotassium salt; Potassium bicarbonate; Potassium hydrogen carbonate

> <PRODUCTS>
Alka-Seltzer Gold; BasoSAN; Betacol; Buffered Vitamin C Pwr W Cal-mag-potassium; Calcor; Coenzyme Q10 Isotonix Vitamin and Mineral Supplement; Effer-K 10 mEq Cherry Vanilla; Effer-K 10 mEq Unflavored; Effer-K 20 mEq Orange Cream; Effer-K 20 mEq Unflavored; Effer-K Cherry Berry; Effer-K Lemon Citrus; Effer-K Orange; Effer-K Unflavored; Effervescent Potassium Chloride; Isotonix Advanced B-complex Vitamins With Potassium and Magnesium; Isotonix Vitamin B-folic Acid-mineral Supple; K-Vescent Efffervescent; K-effervescent; KLOR-Con/EF; Klor-con/ef; Multi-min Electro C Pow Plus B2; Neo K; Pleo Alkala Antacid; Potassium Bicarbonate; Potassium Bicarbonate Eff; Potassium-novartis; Relief OTC antacid; Sibnayal; Solution Carda; TowerX Effervescent Potassium

$$$$
