
  Mrv0541 05041400072D          

 49 52  0  0  1  0            999 V2000
   -2.3119   -5.4102    0.0000 C   0  0  0  0  0  0  0  0  0  0  0  0
   -0.5683   -1.4940    0.0000 C   0  0  0  0  0  0  0  0  0  0  0  0
    3.3523    1.1104    0.0000 C   0  0  0  0  0  0  0  0  0  0  0  0
    0.6538    1.5229    0.0000 C   0  0  0  0  0  0  0  0  0  0  0  0
   -2.2257   -6.2307    0.0000 C   0  0  2  0  0  0  0  0  0  0  0  0
    0.0992   -1.0091    0.0000 C   0  0  2  0  0  0  0  0  0  0  0  0
    1.9233    1.9354    0.0000 C   0  0  0  0  0  0  0  0  0  0  0  0
   -2.8387   -6.7827    0.0000 C   0  0  2  0  0  0  0  0  0  0  0  0
    0.8838   -1.2640    0.0000 C   0  0  2  0  0  0  0  0  0  0  0  0
   -2.5032   -7.5364    0.0000 C   0  0  2  0  0  0  0  0  0  0  0  0
    1.3687   -0.5966    0.0000 C   0  0  2  0  0  0  0  0  0  0  0  0
    2.6378    2.3479    0.0000 C   0  0  2  0  0  0  0  0  0  0  0  0
    1.9233    1.1104    0.0000 C   0  0  0  0  0  0  0  0  0  0  0  0
    0.8838    0.0709    0.0000 C   0  0  2  0  0  0  0  0  0  0  0  0
   -1.6827   -7.4501    0.0000 C   0  0  2  0  0  0  0  0  0  0  0  0
    2.6378    3.1729    0.0000 N   0  3  0  0  0  0  0  0  0  0  0  0
    3.3523    1.9354    0.0000 N   0  0  0  0  0  0  0  0  0  0  0  0
    2.6378    0.6979    0.0000 N   0  0  0  0  0  0  0  0  0  0  0  0
    1.1387    2.1904    0.0000 N   0  0  0  0  0  0  0  0  0  0  0  0
    1.1387    0.8555    0.0000 N   0  0  0  0  0  0  0  0  0  0  0  0
   -3.6457   -6.6112    0.0000 O   0  0  0  0  0  0  0  0  0  0  0  0
    1.1387   -2.0486    0.0000 O   0  0  0  0  0  0  0  0  0  0  0  0
   -2.9157   -8.2508    0.0000 O   0  0  0  0  0  0  0  0  0  0  0  0
   -1.1307   -8.0632    0.0000 O   0  0  0  0  0  0  0  0  0  0  0  0
    1.8917   -1.7235    0.0000 O   0  0  0  0  0  0  0  0  0  0  0  0
    3.3207   -0.8985    0.0000 O   0  0  0  0  0  0  0  0  0  0  0  0
    3.0187   -2.0255    0.0000 O   0  0  0  0  0  0  0  0  0  0  0  0
   -2.5512   -4.1910    0.0000 O   0  0  0  0  0  0  0  0  0  0  0  0
   -0.9102   -4.0186    0.0000 O   0  0  0  0  0  0  0  0  0  0  0  0
   -1.6344   -2.1319    0.0000 O   0  0  0  0  0  0  0  0  0  0  0  0
   -0.6646   -3.4668    0.0000 O   0  0  0  0  0  0  0  0  0  0  0  0
   -1.6444   -4.9253    0.0000 O   0  0  0  0  0  0  0  0  0  0  0  0
   -0.4820   -2.3145    0.0000 O   0  0  0  0  0  0  0  0  0  0  0  0
    0.0992   -0.1841    0.0000 O   0  0  0  0  0  0  0  0  0  0  0  0
   -1.5112   -6.6432    0.0000 O   0  0  0  0  0  0  0  0  0  0  0  0
    2.1937   -0.5966    0.0000 O   0  0  0  0  0  0  0  0  0  0  0  0
   -1.8169   -3.2843    0.0000 O   0  0  0  0  0  0  0  0  0  0  0  0
    2.6062   -1.3110    0.0000 P   0  0  0  0  0  0  0  0  0  0  0  0
   -1.7307   -4.1048    0.0000 P   0  0  0  0  0  0  0  0  0  0  0  0
   -1.1495   -2.7994    0.0000 P   0  0  0  0  0  0  0  0  0  0  0  0
   -3.0505   -6.2163    0.0000 H   0  0  0  0  0  0  0  0  0  0  0  0
    0.4991   -1.7306    0.0000 H   0  0  0  0  0  0  0  0  0  0  0  0
   -3.3119   -6.1069    0.0000 H   0  0  0  0  0  0  0  0  0  0  0  0
    0.5351   -2.0117    0.0000 H   0  0  0  0  0  0  0  0  0  0  0  0
   -3.3271   -7.4932    0.0000 H   0  0  0  0  0  0  0  0  0  0  0  0
    1.7432   -1.3316    0.0000 H   0  0  0  0  0  0  0  0  0  0  0  0
    1.9233    2.7604    0.0000 H   0  0  0  0  0  0  0  0  0  0  0  0
    1.6986    0.1999    0.0000 H   0  0  0  0  0  0  0  0  0  0  0  0
   -1.9784   -8.2203    0.0000 H   0  0  0  0  0  0  0  0  0  0  0  0
  5  1  1  1  0  0  0
  6  2  1  1  0  0  0
  8  5  1  0  0  0  0
  9  6  1  0  0  0  0
 10  8  1  0  0  0  0
 11  9  1  0  0  0  0
 12  7  1  0  0  0  0
 13  7  2  0  0  0  0
 14 11  1  0  0  0  0
 15 10  1  0  0  0  0
 12 16  1  6  0  0  0
 17  3  1  0  0  0  0
 17 12  1  0  0  0  0
 18  3  1  0  0  0  0
 18 13  1  0  0  0  0
 19  4  2  0  0  0  0
 19  7  1  0  0  0  0
 20  4  1  0  0  0  0
 20 13  1  0  0  0  0
 14 20  1  1  0  0  0
  8 21  1  6  0  0  0
  9 22  1  6  0  0  0
 10 23  1  6  0  0  0
 15 24  1  1  0  0  0
 32  1  1  0  0  0  0
 33  2  1  0  0  0  0
 34  6  1  0  0  0  0
 34 14  1  0  0  0  0
 35  5  1  0  0  0  0
 35 15  1  0  0  0  0
 11 36  1  6  0  0  0
 38 25  1  0  0  0  0
 38 26  1  0  0  0  0
 38 27  2  0  0  0  0
 38 36  1  0  0  0  0
 39 28  1  0  0  0  0
 39 29  2  0  0  0  0
 39 32  1  0  0  0  0
 39 37  1  0  0  0  0
 40 30  1  0  0  0  0
 40 31  2  0  0  0  0
 40 33  1  0  0  0  0
 40 37  1  0  0  0  0
  5 41  1  6  0  0  0
  6 42  1  6  0  0  0
  8 43  1  1  0  0  0
  9 44  1  1  0  0  0
 10 45  1  1  0  0  0
 11 46  1  1  0  0  0
 12 47  1  1  0  0  0
 14 48  1  6  0  0  0
 15 49  1  6  0  0  0
M  CHG  1  16   1
M  END
> <DATABASE_ID>
DB04497

> <DATABASE_NAME>
drugbank

> <SMILES>
[H][C@@]1(O)O[C@]([H])(COP(O)(=O)OP(O)(=O)OC[C@@]2([H])O[C@@]([H])(N3C=NC4=C3NCN[C@@]4([H])[NH3+])[C@]([H])(OP(O)(O)=O)[C@]2([H])O)[C@@]([H])(O)[C@@]1([H])O

> <INCHI_IDENTIFIER>
InChI=1S/C15H28N5O17P3/c16-12-7-13(18-3-17-12)20(4-19-7)14-11(36-38(25,26)27)9(22)6(34-14)2-33-40(30,31)37-39(28,29)32-1-5-8(21)10(23)15(24)35-5/h4-6,8-12,14-15,17-18,21-24H,1-3,16H2,(H,28,29)(H,30,31)(H2,25,26,27)/p+1/t5-,6-,8-,9-,10-,11-,12-,14-,15-/m1/s1

> <INCHI_KEY>
QHNQLFGTVLWISK-MQSGHBOVSA-O

> <FORMULA>
C15H29N5O17P3

> <MOLECULAR_WEIGHT>
644.3353

> <EXACT_MASS>
644.077129063

> <JCHEM_ACCEPTOR_COUNT>
16

> <JCHEM_ATOM_COUNT>
69

> <JCHEM_AVERAGE_NEUTRAL_MICROSPECIES_CHARGE>
-3.551976941354627

> <JCHEM_AVERAGE_POLARIZABILITY>
53.45303012551222

> <JCHEM_BIOAVAILABILITY>
0

> <JCHEM_DONOR_COUNT>
11

> <JCHEM_FORMAL_CHARGE>
1

> <JCHEM_GHOSE_FILTER>
0

> <JCHEM_IUPAC>
(6R)-9-[(2R,3R,4R,5R)-4-hydroxy-5-({[hydroxy({[hydroxy({[(2R,3S,4R,5R)-3,4,5-trihydroxyoxolan-2-yl]methoxy})phosphoryl]oxy})phosphoryl]oxy}methyl)-3-(phosphonooxy)oxolan-2-yl]-2,3,6,9-tetrahydro-1H-purin-6-aminium

> <ALOGPS_LOGP>
-1.59

> <JCHEM_LOGP>
-10.000905199098344

> <ALOGPS_LOGS>
-2.03

> <JCHEM_MDDR_LIKE_RULE>
1

> <JCHEM_NEUTRAL_CHARGE>
-3

> <JCHEM_NUMBER_OF_RINGS>
4

> <JCHEM_PHYSIOLOGICAL_CHARGE>
-4

> <JCHEM_PKA>
1.88829093209476

> <JCHEM_PKA_STRONGEST_ACIDIC>
0.7201731056505137

> <JCHEM_PKA_STRONGEST_BASIC>
6.847254527073586

> <JCHEM_POLAR_SURFACE_AREA>
337.95000000000005

> <JCHEM_REFRACTIVITY>
133.57179999999994

> <JCHEM_ROTATABLE_BOND_COUNT>
11

> <JCHEM_RULE_OF_FIVE>
0

> <ALOGPS_SOLUBILITY>
6.36e+00 g/l

> <JCHEM_TRADITIONAL_IUPAC>
biotin

> <JCHEM_VEBER_RULE>
0

> <DRUGBANK_ID>
DB04497

> <SECONDARY_ACCESSION_NUMBERS>
EXPT00548

> <DRUG_GROUPS>
experimental

> <GENERIC_NAME>
2'-Monophosphoadenosine-5'-Diphosphoribose

$$$$
