
  Mrv0541 02231215472D          

 12 12  0  0  1  0            999 V2000
    2.1434    2.0625    0.0000 O   0  0  0  0  0  0  0  0  0  0  0  0
    2.1434    1.2375    0.0000 C   0  0  0  0  0  0  0  0  0  0  0  0
    1.4289    0.8250    0.0000 C   0  0  1  0  0  0  0  0  0  0  0  0
    1.4289    0.0000    0.0000 O   0  0  0  0  0  0  0  0  0  0  0  0
    0.7145   -0.4125    0.0000 C   0  0  1  0  0  0  0  0  0  0  0  0
    0.7145   -1.2375    0.0000 S   0  0  0  0  0  0  0  0  0  0  0  0
    0.0000    0.0000    0.0000 C   0  0  2  0  0  0  0  0  0  0  0  0
   -0.7145   -0.4125    0.0000 O   0  0  0  0  0  0  0  0  0  0  0  0
    0.0000    0.8250    0.0000 C   0  0  1  0  0  0  0  0  0  0  0  0
   -0.7145    1.2375    0.0000 O   0  0  0  0  0  0  0  0  0  0  0  0
    0.7145    1.2375    0.0000 C   0  0  2  0  0  0  0  0  0  0  0  0
    0.7145    2.0625    0.0000 S   0  0  0  0  0  0  0  0  0  0  0  0
  1  2  1  0  0  0  0
  3  2  1  1  0  0  0
  3  4  1  0  0  0  0
  4  5  1  0  0  0  0
  5  6  1  1  0  0  0
  5  7  1  0  0  0  0
  7  8  1  6  0  0  0
  7  9  1  0  0  0  0
  9 10  1  1  0  0  0
  9 11  1  0  0  0  0
  3 11  1  0  0  0  0
 11 12  1  6  0  0  0
M  END
> <DATABASE_ID>
DB03857

> <DATABASE_NAME>
drugbank

> <SMILES>
OC[C@H]1O[C@@H](S)[C@H](O)[C@@H](O)[C@@H]1S

> <INCHI_IDENTIFIER>
InChI=1S/C6H12O4S2/c7-1-2-5(11)3(8)4(9)6(12)10-2/h2-9,11-12H,1H2/t2-,3-,4-,5-,6+/m1/s1

> <INCHI_KEY>
MUOMBPNNVXJUGT-UKFBFLRUSA-N

> <FORMULA>
C6H12O4S2

> <MOLECULAR_WEIGHT>
212.287

> <EXACT_MASS>
212.017700252

> <JCHEM_ACCEPTOR_COUNT>
4

> <JCHEM_ATOM_COUNT>
24

> <JCHEM_AVERAGE_NEUTRAL_MICROSPECIES_CHARGE>
-0.028288191206949954

> <JCHEM_AVERAGE_POLARIZABILITY>
20.360478295203492

> <JCHEM_BIOAVAILABILITY>
1

> <JCHEM_DONOR_COUNT>
5

> <JCHEM_FORMAL_CHARGE>
0

> <JCHEM_GHOSE_FILTER>
0

> <JCHEM_IUPAC>
(2S,3R,4R,5S,6R)-6-(hydroxymethyl)-2,5-disulfanyloxane-3,4-diol

> <ALOGPS_LOGP>
-0.41

> <JCHEM_LOGP>
-1.0101437450000004

> <ALOGPS_LOGS>
-1.42

> <JCHEM_MDDR_LIKE_RULE>
0

> <JCHEM_NEUTRAL_CHARGE>
0

> <JCHEM_NUMBER_OF_RINGS>
1

> <JCHEM_PHYSIOLOGICAL_CHARGE>
0

> <JCHEM_PKA>
9.559797940497175

> <JCHEM_PKA_STRONGEST_ACIDIC>
8.588249317806104

> <JCHEM_PKA_STRONGEST_BASIC>
-2.959030895938965

> <JCHEM_POLAR_SURFACE_AREA>
69.92

> <JCHEM_REFRACTIVITY>
48.35379999999999

> <JCHEM_ROTATABLE_BOND_COUNT>
1

> <JCHEM_RULE_OF_FIVE>
1

> <ALOGPS_SOLUBILITY>
8.09e+00 g/l

> <JCHEM_TRADITIONAL_IUPAC>
tetrahydrofolic acid

> <JCHEM_VEBER_RULE>
0

> <DRUGBANK_ID>
DB03857

> <SECONDARY_ACCESSION_NUMBERS>
EXPT02958

> <DRUG_GROUPS>
experimental

> <GENERIC_NAME>
1,4-dithio-beta-D-glucopyranose

> <SYNONYMS>
1,4-deoxy-1,4-dithio-beta-D-glucopyranose

$$$$
