
  Mrv0541 05041407222D          

 24 24  0  0  1  0            999 V2000
   -1.4289    0.8250    0.0000 C   0  0  0  0  0  0  0  0  0  0  0  0
   -0.7145    1.2375    0.0000 C   0  0  2  0  0  0  0  0  0  0  0  0
    1.4289    0.8250    0.0000 C   0  0  1  0  0  0  0  0  0  0  0  0
    0.7145    1.2375    0.0000 C   0  0  1  0  0  0  0  0  0  0  0  0
    1.4289   -0.0000    0.0000 C   0  0  1  0  0  0  0  0  0  0  0  0
    0.0000    0.8250    0.0000 C   0  0  2  0  0  0  0  0  0  0  0  0
    0.7145   -0.4125    0.0000 C   0  0  1  0  0  0  0  0  0  0  0  0
   -0.7145    2.0625    0.0000 O   0  0  0  0  0  0  0  0  0  0  0  0
    2.1434    1.2375    0.0000 O   0  0  0  0  0  0  0  0  0  0  0  0
    0.7145    2.0625    0.0000 O   0  0  0  0  0  0  0  0  0  0  0  0
    2.1434   -0.4125    0.0000 O   0  0  0  0  0  0  0  0  0  0  0  0
    0.7145   -1.2375    0.0000 O   0  0  0  0  0  0  0  0  0  0  0  0
   -3.5724    0.4125    0.0000 O   0  0  0  0  0  0  0  0  0  0  0  0
   -3.2704    1.5395    0.0000 O   0  0  0  0  0  0  0  0  0  0  0  0
   -2.4454    0.1105    0.0000 O   0  0  0  0  0  0  0  0  0  0  0  0
   -2.1434    1.2375    0.0000 O   0  0  0  0  0  0  0  0  0  0  0  0
    0.0000    0.0000    0.0000 O   0  0  0  0  0  0  0  0  0  0  0  0
   -2.8579    0.8250    0.0000 P   0  0  0  0  0  0  0  0  0  0  0  0
   -0.7145    0.4125    0.0000 H   0  0  0  0  0  0  0  0  0  0  0  0
    1.1468    1.6002    0.0000 H   0  0  0  0  0  0  0  0  0  0  0  0
    1.2448    1.8695    0.0000 H   0  0  0  0  0  0  0  0  0  0  0  0
    2.1434    0.4125    0.0000 H   0  0  0  0  0  0  0  0  0  0  0  0
    0.0000    1.6500    0.0000 H   0  0  0  0  0  0  0  0  0  0  0  0
    1.4289   -0.8250    0.0000 H   0  0  0  0  0  0  0  0  0  0  0  0
  2  1  1  0  0  0  0
  4  3  1  0  0  0  0
  5  3  1  0  0  0  0
  6  2  1  6  0  0  0
  6  4  1  0  0  0  0
  7  5  1  0  0  0  0
  2  8  1  6  0  0  0
  3  9  1  6  0  0  0
  4 10  1  1  0  0  0
  5 11  1  6  0  0  0
  7 12  1  1  0  0  0
 16  1  1  0  0  0  0
 17  6  1  0  0  0  0
 17  7  1  0  0  0  0
 18 13  1  0  0  0  0
 18 14  1  0  0  0  0
 18 15  2  0  0  0  0
 18 16  1  0  0  0  0
  2 19  1  6  0  0  0
  3 20  1  1  0  0  0
  4 21  1  6  0  0  0
  5 22  1  1  0  0  0
  6 23  1  1  0  0  0
  7 24  1  6  0  0  0
M  END
> <DATABASE_ID>
DB02470

> <DATABASE_NAME>
drugbank

> <SMILES>
[H][C@@](O)(COP(O)(O)=O)[C@@]1([H])O[C@]([H])(O)[C@@]([H])(O)[C@@]([H])(O)[C@]1([H])O

> <INCHI_IDENTIFIER>
InChI=1S/C7H15O10P/c8-2(1-16-18(13,14)15)6-4(10)3(9)5(11)7(12)17-6/h2-12H,1H2,(H2,13,14,15)/t2-,3+,4+,5+,6-,7+/m1/s1

> <INCHI_KEY>
SDADNVAZGVDAIM-QTNLNCNHSA-N

> <FORMULA>
C7H15O10P

> <MOLECULAR_WEIGHT>
290.1618

> <EXACT_MASS>
290.040283212

> <JCHEM_ACCEPTOR_COUNT>
9

> <JCHEM_ATOM_COUNT>
33

> <JCHEM_AVERAGE_NEUTRAL_MICROSPECIES_CHARGE>
-1.8589303143887381

> <JCHEM_AVERAGE_POLARIZABILITY>
23.241329104754772

> <JCHEM_BIOAVAILABILITY>
1

> <JCHEM_DONOR_COUNT>
7

> <JCHEM_FORMAL_CHARGE>
0

> <JCHEM_GHOSE_FILTER>
0

> <JCHEM_IUPAC>
[(2R)-2-hydroxy-2-[(2R,3S,4S,5S,6S)-3,4,5,6-tetrahydroxyoxan-2-yl]ethoxy]phosphonic acid

> <ALOGPS_LOGP>
-2.27

> <JCHEM_LOGP>
-3.6864401913333325

> <ALOGPS_LOGS>
-0.92

> <JCHEM_MDDR_LIKE_RULE>
0

> <JCHEM_NEUTRAL_CHARGE>
-2

> <JCHEM_NUMBER_OF_RINGS>
1

> <JCHEM_PHYSIOLOGICAL_CHARGE>
-2

> <JCHEM_PKA>
6.516686880098577

> <JCHEM_PKA_STRONGEST_ACIDIC>
1.4908840610832481

> <JCHEM_PKA_STRONGEST_BASIC>
-3.546087587166545

> <JCHEM_POLAR_SURFACE_AREA>
177.14

> <JCHEM_REFRACTIVITY>
52.758799999999994

> <JCHEM_ROTATABLE_BOND_COUNT>
4

> <JCHEM_RULE_OF_FIVE>
0

> <ALOGPS_SOLUBILITY>
3.46e+01 g/l

> <JCHEM_TRADITIONAL_IUPAC>
biotin

> <JCHEM_VEBER_RULE>
0

> <DRUGBANK_ID>
DB02470

> <SECONDARY_ACCESSION_NUMBERS>
EXPT02091

> <DRUG_GROUPS>
experimental

> <GENERIC_NAME>
D-Glycero-D-Mannopyranose-7-Phosphate

$$$$
