
  Mrv0541 02231215502D          

 10  9  0  0  1  0            999 V2000
    1.6500    0.0000    0.0000 C   0  0  0  0  0  0  0  0  0  0  0  0
    1.2375    0.7145    0.0000 C   0  0  0  0  0  0  0  0  0  0  0  0
    0.8250    1.4289    0.0000 C   0  0  0  0  0  0  0  0  0  0  0  0
    0.5230    0.3020    0.0000 C   0  0  0  0  0  0  0  0  0  0  0  0
   -0.1914    0.7145    0.0000 O   0  0  0  0  0  0  0  0  0  0  0  0
    1.9520    1.1270    0.0000 C   0  0  1  0  0  0  0  0  0  0  0  0
    1.9520    1.9520    0.0000 O   0  0  0  0  0  0  0  0  0  0  0  0
    2.6664    0.7145    0.0000 C   0  0  0  0  0  0  0  0  0  0  0  0
    3.3809    1.1270    0.0000 O   0  5  0  0  0  0  0  0  0  0  0  0
    2.6664   -0.1105    0.0000 O   0  0  0  0  0  0  0  0  0  0  0  0
  1  2  1  0  0  0  0
  2  3  1  0  0  0  0
  2  4  1  0  0  0  0
  4  5  1  0  0  0  0
  2  6  1  0  0  0  0
  6  7  1  1  0  0  0
  6  8  1  0  0  0  0
  8  9  1  0  0  0  0
  8 10  2  0  0  0  0
M  CHG  1   9  -1
M  END
> <DATABASE_ID>
DB01930

> <DATABASE_NAME>
drugbank

> <SMILES>
CC(C)(CO)[C@@H](O)C([O-])=O

> <INCHI_IDENTIFIER>
InChI=1S/C6H12O4/c1-6(2,3-7)4(8)5(9)10/h4,7-8H,3H2,1-2H3,(H,9,10)/p-1/t4-/m0/s1

> <INCHI_KEY>
OTOIIPJYVQJATP-BYPYZUCNSA-M

> <FORMULA>
C6H11O4

> <MOLECULAR_WEIGHT>
147.1491

> <EXACT_MASS>
147.06573384

> <JCHEM_ACCEPTOR_COUNT>
4

> <JCHEM_ATOM_COUNT>
21

> <JCHEM_AVERAGE_NEUTRAL_MICROSPECIES_CHARGE>
-0.9990820530624654

> <JCHEM_AVERAGE_POLARIZABILITY>
13.975526924038585

> <JCHEM_BIOAVAILABILITY>
1

> <JCHEM_DONOR_COUNT>
2

> <JCHEM_FORMAL_CHARGE>
-1

> <JCHEM_GHOSE_FILTER>
0

> <JCHEM_IUPAC>
(2R)-2,4-dihydroxy-3,3-dimethylbutanoate

> <ALOGPS_LOGP>
-0.34

> <JCHEM_LOGP>
-0.48710460333333305

> <ALOGPS_LOGS>
0.46

> <JCHEM_MDDR_LIKE_RULE>
0

> <JCHEM_NEUTRAL_CHARGE>
-1

> <JCHEM_NUMBER_OF_RINGS>
0

> <JCHEM_PHYSIOLOGICAL_CHARGE>
-1

> <JCHEM_PKA>
13.75748740826327

> <JCHEM_PKA_STRONGEST_ACIDIC>
3.963302291289117

> <JCHEM_PKA_STRONGEST_BASIC>
-2.7868824038873443

> <JCHEM_POLAR_SURFACE_AREA>
80.59

> <JCHEM_REFRACTIVITY>
44.8453

> <JCHEM_ROTATABLE_BOND_COUNT>
3

> <JCHEM_RULE_OF_FIVE>
1

> <ALOGPS_SOLUBILITY>
4.73e+02 g/l

> <JCHEM_TRADITIONAL_IUPAC>
biotin

> <JCHEM_VEBER_RULE>
0

> <DRUGBANK_ID>
DB01930

> <SECONDARY_ACCESSION_NUMBERS>
EXPT02489

> <DRUG_GROUPS>
experimental

> <GENERIC_NAME>
2,4-Dihydroxy-3,3-Dimethyl-Butyrate

$$$$
