
  Mrv0541 02231217172D          

  7  6  0  0  1  0            999 V2000
    2.0625    0.7145    0.0000 N   0  0  0  0  0  0  0  0  0  0  0  0
    1.2375    0.7145    0.0000 C   0  0  2  0  0  0  0  0  0  0  0  0
    0.8250    1.4289    0.0000 C   0  0  0  0  0  0  0  0  0  0  0  0
    1.2375    2.1434    0.0000 O   0  0  0  0  0  0  0  0  0  0  0  0
    0.8250    0.0000    0.0000 C   0  0  0  0  0  0  0  0  0  0  0  0
    1.2375   -0.7145    0.0000 O   0  0  0  0  0  0  0  0  0  0  0  0
    0.0000    0.0000    0.0000 O   0  0  0  0  0  0  0  0  0  0  0  0
  2  1  1  1  0  0  0
  2  3  1  0  0  0  0
  3  4  1  0  0  0  0
  2  5  1  0  0  0  0
  5  6  1  0  0  0  0
  5  7  2  0  0  0  0
M  END
> <DATABASE_ID>
DB03929

> <DATABASE_NAME>
drugbank

> <SMILES>
N[C@H](CO)C(O)=O

> <INCHI_IDENTIFIER>
InChI=1S/C3H7NO3/c4-2(1-5)3(6)7/h2,5H,1,4H2,(H,6,7)/t2-/m1/s1

> <INCHI_KEY>
MTCFGRXMJLQNBG-UWTATZPHSA-N

> <FORMULA>
C3H7NO3

> <MOLECULAR_WEIGHT>
105.0926

> <EXACT_MASS>
105.042593095

> <JCHEM_ACCEPTOR_COUNT>
4

> <JCHEM_ATOM_COUNT>
14

> <JCHEM_AVERAGE_NEUTRAL_MICROSPECIES_CHARGE>
-0.011549007732057009

> <JCHEM_AVERAGE_POLARIZABILITY>
9.387821307652931

> <JCHEM_BIOAVAILABILITY>
1

> <JCHEM_DONOR_COUNT>
3

> <JCHEM_FORMAL_CHARGE>
0

> <JCHEM_GHOSE_FILTER>
0

> <JCHEM_IUPAC>
(2R)-2-amino-3-hydroxypropanoic acid

> <ALOGPS_LOGP>
-3.42

> <JCHEM_LOGP>
-3.8877352328917727

> <ALOGPS_LOGS>
0.66

> <JCHEM_MDDR_LIKE_RULE>
0

> <JCHEM_NEUTRAL_CHARGE>
0

> <JCHEM_NUMBER_OF_RINGS>
0

> <JCHEM_PHYSIOLOGICAL_CHARGE>
0

> <JCHEM_PKA>
15.166073878847005

> <JCHEM_PKA_STRONGEST_ACIDIC>
2.033990015469951

> <JCHEM_PKA_STRONGEST_BASIC>
8.931303956589883

> <JCHEM_POLAR_SURFACE_AREA>
83.55000000000001

> <JCHEM_REFRACTIVITY>
22.041000000000004

> <JCHEM_ROTATABLE_BOND_COUNT>
2

> <JCHEM_RULE_OF_FIVE>
1

> <ALOGPS_SOLUBILITY>
4.80e+02 g/l

> <JCHEM_TRADITIONAL_IUPAC>
tetrahydrofolic acid

> <JCHEM_VEBER_RULE>
0

> <DRUGBANK_ID>
DB03929

> <SECONDARY_ACCESSION_NUMBERS>
EXPT01275

> <DRUG_GROUPS>
approved; experimental

> <GENERIC_NAME>
D-Serine

$$$$
