
  Mrv0541 02231217552D          

 24 27  0  0  1  0            999 V2000
    4.5080    2.0625    0.0000 N   0  0  0  0  0  0  0  0  0  0  0  0
    5.8137    2.3401    0.0000 N   0  0  0  0  0  0  0  0  0  0  0  0
    3.7935    1.6500    0.0000 C   0  0  0  0  0  0  0  0  0  0  0  0
    3.7935    0.8250    0.0000 C   0  0  0  0  0  0  0  0  0  0  0  0
    3.0791    2.0625    0.0000 C   0  0  0  0  0  0  0  0  0  0  0  0
    3.0791    0.4125    0.0000 C   0  0  0  0  0  0  0  0  0  0  0  0
    4.5080    0.4125    0.0000 C   0  0  0  0  0  0  0  0  0  0  0  0
    3.7935   -0.8250    0.0000 C   0  0  0  0  0  0  0  0  0  0  0  0
    2.3645    1.6500    0.0000 C   0  0  0  0  0  0  0  0  0  0  0  0
    3.0791    2.8876    0.0000 C   0  0  0  0  0  0  0  0  0  0  0  0
    3.0791   -0.4125    0.0000 C   0  0  0  0  0  0  0  0  0  0  0  0
    4.5080   -0.4125    0.0000 C   0  0  0  0  0  0  0  0  0  0  0  0
    4.5942    2.8830    0.0000 C   0  0  0  0  0  0  0  0  0  0  0  0
    5.2616    1.7270    0.0000 C   0  0  0  0  0  0  0  0  0  0  0  0
    3.7935   -1.6500    0.0000 C   0  0  0  0  0  0  0  0  0  0  0  0
    1.6500    2.0625    0.0000 C   0  0  0  0  0  0  0  0  0  0  0  0
    2.3645    3.3001    0.0000 C   0  0  0  0  0  0  0  0  0  0  0  0
    5.4012    3.0545    0.0000 C   0  0  0  0  0  0  0  0  0  0  0  0
    1.6500    2.8876    0.0000 C   0  0  0  0  0  0  0  0  0  0  0  0
    3.0791   -2.0625    0.0000 C   0  0  0  0  0  0  0  0  0  0  0  0
    4.5080   -2.0625    0.0000 C   0  0  0  0  0  0  0  0  0  0  0  0
    3.0791   -2.8876    0.0000 C   0  0  0  0  0  0  0  0  0  0  0  0
    4.5080   -2.8876    0.0000 C   0  0  0  0  0  0  0  0  0  0  0  0
    3.7935   -3.3001    0.0000 C   0  0  0  0  0  0  0  0  0  0  0  0
  1  3  1  0  0  0  0
  1 13  1  0  0  0  0
  1 14  1  0  0  0  0
  2 14  2  0  0  0  0
  2 18  1  0  0  0  0
  3  4  1  0  0  0  0
  3  5  1  0  0  0  0
  4  6  2  0  0  0  0
  4  7  1  0  0  0  0
  5  9  2  0  0  0  0
  5 10  1  0  0  0  0
  6 11  1  0  0  0  0
  7 12  2  0  0  0  0
  8 11  2  0  0  0  0
  8 12  1  0  0  0  0
  8 15  1  0  0  0  0
  9 16  1  0  0  0  0
 10 17  2  0  0  0  0
 13 18  2  0  0  0  0
 15 20  2  0  0  0  0
 15 21  1  0  0  0  0
 16 19  2  0  0  0  0
 17 19  1  0  0  0  0
 20 22  1  0  0  0  0
 21 23  2  0  0  0  0
 22 24  2  0  0  0  0
 23 24  1  0  0  0  0
M  END
> <DATABASE_ID>
DB04794

> <DATABASE_NAME>
drugbank

> <SMILES>
C1=CN(C=N1)C(C1=CC=CC=C1)C1=CC=C(C=C1)C1=CC=CC=C1

> <INCHI_IDENTIFIER>
InChI=1S/C22H18N2/c1-3-7-18(8-4-1)19-11-13-21(14-12-19)22(24-16-15-23-17-24)20-9-5-2-6-10-20/h1-17,22H

> <INCHI_KEY>
OCAPBUJLXMYKEJ-UHFFFAOYSA-N

> <FORMULA>
C22H18N2

> <MOLECULAR_WEIGHT>
310.3917

> <EXACT_MASS>
310.146998586

> <JCHEM_ACCEPTOR_COUNT>
1

> <JCHEM_ATOM_COUNT>
42

> <JCHEM_AVERAGE_NEUTRAL_MICROSPECIES_CHARGE>
0.18680619999215

> <JCHEM_AVERAGE_POLARIZABILITY>
35.405755245174404

> <JCHEM_BIOAVAILABILITY>
1

> <JCHEM_DONOR_COUNT>
0

> <JCHEM_FORMAL_CHARGE>
0

> <JCHEM_GHOSE_FILTER>
1

> <JCHEM_IUPAC>
1-({[1,1'-biphenyl]-4-yl}(phenyl)methyl)-1H-imidazole

> <ALOGPS_LOGP>
4.92

> <JCHEM_LOGP>
5.234390525333334

> <ALOGPS_LOGS>
-5.10

> <JCHEM_MDDR_LIKE_RULE>
0

> <JCHEM_NEUTRAL_CHARGE>
0

> <JCHEM_NUMBER_OF_RINGS>
4

> <JCHEM_PHYSIOLOGICAL_CHARGE>
0

> <JCHEM_PKA_STRONGEST_BASIC>
6.36119722731228

> <JCHEM_POLAR_SURFACE_AREA>
17.82

> <JCHEM_REFRACTIVITY>
97.94110000000002

> <JCHEM_ROTATABLE_BOND_COUNT>
4

> <JCHEM_RULE_OF_FIVE>
0

> <ALOGPS_SOLUBILITY>
2.45e-03 g/l

> <JCHEM_TRADITIONAL_IUPAC>
tetrahydrofolic acid

> <JCHEM_VEBER_RULE>
1

> <DRUGBANK_ID>
DB04794

> <DRUG_GROUPS>
approved; investigational

> <GENERIC_NAME>
Bifonazole

> <SYNONYMS>
(+-)-1-(p,alpha-Diphenylbenzyl)imidazole; 1-((4-Biphenylyl)phenylmethyl)-1H-imidazole; 1-(alpha-(4-Biphenylyl)benzyl)imidazole; 1-(p,alpha-Diphenylbenzyl)imidazole; 1-[biphenyl-4-yl(phenyl)methyl]imidazole; Bifonazol; Bifonazole; Bifonazolum

> <INTERNATIONAL_BRANDS>
Amycor; Azolmen; Bayclear Plus; Bifonol; Canespor; Canesten; Mycospor

$$$$
