
  Mrv0541 02231216442D          

 12 12  0  0  0  0            999 V2000
    2.1434    1.2375    0.0000 O   0  0  0  0  0  0  0  0  0  0  0  0
    1.4289    0.8250    0.0000 C   0  0  0  0  0  0  0  0  0  0  0  0
    1.4289    0.0000    0.0000 C   0  0  0  0  0  0  0  0  0  0  0  0
    2.1434   -0.4125    0.0000 Br  0  0  0  0  0  0  0  0  0  0  0  0
    0.7145   -0.4125    0.0000 C   0  0  0  0  0  0  0  0  0  0  0  0
    0.7145   -1.2375    0.0000 Br  0  0  0  0  0  0  0  0  0  0  0  0
    0.0000    0.0000    0.0000 C   0  0  0  0  0  0  0  0  0  0  0  0
   -0.7145   -0.4125    0.0000 Br  0  0  0  0  0  0  0  0  0  0  0  0
    0.0000    0.8250    0.0000 C   0  0  0  0  0  0  0  0  0  0  0  0
   -0.7145    1.2375    0.0000 Br  0  0  0  0  0  0  0  0  0  0  0  0
    0.7145    1.2375    0.0000 C   0  0  0  0  0  0  0  0  0  0  0  0
    0.7145    2.0625    0.0000 Br  0  0  0  0  0  0  0  0  0  0  0  0
  1  2  1  0  0  0  0
  2  3  2  0  0  0  0
  3  4  1  0  0  0  0
  3  5  1  0  0  0  0
  5  6  1  0  0  0  0
  5  7  2  0  0  0  0
  7  8  1  0  0  0  0
  7  9  1  0  0  0  0
  9 10  1  0  0  0  0
  9 11  2  0  0  0  0
  2 11  1  0  0  0  0
 11 12  1  0  0  0  0
M  END
> <DATABASE_ID>
DB03167

> <DATABASE_NAME>
drugbank

> <SMILES>
OC1=C(Br)C(Br)=C(Br)C(Br)=C1Br

> <INCHI_IDENTIFIER>
InChI=1S/C6HBr5O/c7-1-2(8)4(10)6(12)5(11)3(1)9/h12H

> <INCHI_KEY>
SVHOVVJFOWGYJO-UHFFFAOYSA-N

> <FORMULA>
C6HBr5O

> <MOLECULAR_WEIGHT>
488.592

> <EXACT_MASS>
483.594427889

> <JCHEM_ACCEPTOR_COUNT>
1

> <JCHEM_ATOM_COUNT>
13

> <JCHEM_AVERAGE_NEUTRAL_MICROSPECIES_CHARGE>
-0.9897872783406713

> <JCHEM_AVERAGE_POLARIZABILITY>
26.176797287498125

> <JCHEM_BIOAVAILABILITY>
1

> <JCHEM_DONOR_COUNT>
1

> <JCHEM_FORMAL_CHARGE>
0

> <JCHEM_GHOSE_FILTER>
0

> <JCHEM_IUPAC>
pentabromophenol

> <ALOGPS_LOGP>
5.30

> <JCHEM_LOGP>
5.5134436209999995

> <ALOGPS_LOGS>
-5.38

> <JCHEM_MDDR_LIKE_RULE>
0

> <JCHEM_NEUTRAL_CHARGE>
-1

> <JCHEM_NUMBER_OF_RINGS>
1

> <JCHEM_PHYSIOLOGICAL_CHARGE>
-1

> <JCHEM_PKA_STRONGEST_ACIDIC>
5.0135996281153945

> <JCHEM_PKA_STRONGEST_BASIC>
-8.376872536191156

> <JCHEM_POLAR_SURFACE_AREA>
20.23

> <JCHEM_REFRACTIVITY>
66.1529

> <JCHEM_ROTATABLE_BOND_COUNT>
0

> <JCHEM_RULE_OF_FIVE>
0

> <ALOGPS_SOLUBILITY>
2.06e-03 g/l

> <JCHEM_TRADITIONAL_IUPAC>
tetrahydrofolic acid

> <JCHEM_VEBER_RULE>
1

> <DRUGBANK_ID>
DB03167

> <SECONDARY_ACCESSION_NUMBERS>
EXPT02511

> <DRUG_GROUPS>
experimental

> <GENERIC_NAME>
Pentabromophenol

$$$$
