
  Mrv0541 02231216082D          

 28 30  0  0  0  0            999 V2000
    4.2868   -2.4750    0.0000 C   0  0  0  0  0  0  0  0  0  0  0  0
    4.2868   -1.6500    0.0000 N   0  0  0  0  0  0  0  0  0  0  0  0
    3.5724   -1.2375    0.0000 C   0  0  0  0  0  0  0  0  0  0  0  0
    2.8579   -1.6500    0.0000 C   0  0  0  0  0  0  0  0  0  0  0  0
    2.1434   -1.2375    0.0000 C   0  0  0  0  0  0  0  0  0  0  0  0
    1.4289   -1.6500    0.0000 C   0  0  0  0  0  0  0  0  0  0  0  0
    0.7145   -1.2375    0.0000 C   0  0  0  0  0  0  0  0  0  0  0  0
    0.0000   -1.6500    0.0000 C   0  0  0  0  0  0  0  0  0  0  0  0
   -0.7145   -1.2375    0.0000 O   0  0  0  0  0  0  0  0  0  0  0  0
   -1.4289   -1.6500    0.0000 C   0  0  0  0  0  0  0  0  0  0  0  0
   -1.4289   -2.4750    0.0000 C   0  0  0  0  0  0  0  0  0  0  0  0
   -2.1434   -2.8875    0.0000 C   0  0  0  0  0  0  0  0  0  0  0  0
   -2.8579   -2.4750    0.0000 C   0  0  0  0  0  0  0  0  0  0  0  0
   -2.8579   -1.6500    0.0000 C   0  0  0  0  0  0  0  0  0  0  0  0
   -3.6425   -1.3951    0.0000 O   0  0  0  0  0  0  0  0  0  0  0  0
   -4.1274   -2.0625    0.0000 C   0  0  0  0  0  0  0  0  0  0  0  0
   -3.6425   -2.7299    0.0000 C   0  0  0  0  0  0  0  0  0  0  0  0
   -3.8974   -3.5146    0.0000 C   0  0  0  0  0  0  0  0  0  0  0  0
   -3.3454   -4.1277    0.0000 C   0  0  0  0  0  0  0  0  0  0  0  0
   -3.6004   -4.9123    0.0000 C   0  0  0  0  0  0  0  0  0  0  0  0
   -4.4073   -5.0838    0.0000 C   0  0  0  0  0  0  0  0  0  0  0  0
   -4.6623   -5.8684    0.0000 Br  0  0  0  0  0  0  0  0  0  0  0  0
   -4.9594   -4.4707    0.0000 C   0  0  0  0  0  0  0  0  0  0  0  0
   -4.7044   -3.6861    0.0000 C   0  0  0  0  0  0  0  0  0  0  0  0
   -2.1434   -1.2375    0.0000 C   0  0  0  0  0  0  0  0  0  0  0  0
    5.0013   -1.2375    0.0000 C   0  0  0  0  0  0  0  0  0  0  0  0
    5.7158   -1.6500    0.0000 C   0  0  0  0  0  0  0  0  0  0  0  0
    6.4302   -1.2375    0.0000 C   0  0  0  0  0  0  0  0  0  0  0  0
  1  2  1  0  0  0  0
  2  3  1  0  0  0  0
  3  4  1  0  0  0  0
  4  5  1  0  0  0  0
  5  6  1  0  0  0  0
  6  7  1  0  0  0  0
  7  8  1  0  0  0  0
  8  9  1  0  0  0  0
  9 10  1  0  0  0  0
 10 11  2  0  0  0  0
 11 12  1  0  0  0  0
 12 13  2  0  0  0  0
 13 14  1  0  0  0  0
 14 15  1  0  0  0  0
 15 16  1  0  0  0  0
 16 17  2  0  0  0  0
 13 17  1  0  0  0  0
 17 18  1  0  0  0  0
 18 19  2  0  0  0  0
 19 20  1  0  0  0  0
 20 21  2  0  0  0  0
 21 22  1  0  0  0  0
 21 23  1  0  0  0  0
 23 24  2  0  0  0  0
 18 24  1  0  0  0  0
 14 25  2  0  0  0  0
 10 25  1  0  0  0  0
  2 26  1  0  0  0  0
 26 27  1  0  0  0  0
 27 28  2  0  0  0  0
M  END
> <DATABASE_ID>
DB02339

> <DATABASE_NAME>
drugbank

> <SMILES>
CN(CCCCCCOC1=CC=C2C(OC=C2C2=CC=C(Br)C=C2)=C1)CC=C

> <INCHI_IDENTIFIER>
InChI=1S/C24H28BrNO2/c1-3-14-26(2)15-6-4-5-7-16-27-21-12-13-22-23(18-28-24(22)17-21)19-8-10-20(25)11-9-19/h3,8-13,17-18H,1,4-7,14-16H2,2H3

> <INCHI_KEY>
JYNZIOFUHBJABQ-UHFFFAOYSA-N

> <FORMULA>
C24H28BrNO2

> <MOLECULAR_WEIGHT>
442.389

> <EXACT_MASS>
441.130341792

> <JCHEM_ACCEPTOR_COUNT>
2

> <JCHEM_ATOM_COUNT>
56

> <JCHEM_AVERAGE_NEUTRAL_MICROSPECIES_CHARGE>
0.9961934824140304

> <JCHEM_AVERAGE_POLARIZABILITY>
47.78572787395272

> <JCHEM_BIOAVAILABILITY>
0

> <JCHEM_DONOR_COUNT>
0

> <JCHEM_FORMAL_CHARGE>
0

> <JCHEM_GHOSE_FILTER>
0

> <JCHEM_IUPAC>
(6-{[3-(4-bromophenyl)-1-benzofuran-6-yl]oxy}hexyl)(methyl)(prop-2-en-1-yl)amine

> <ALOGPS_LOGP>
6.73

> <JCHEM_LOGP>
6.607030024

> <ALOGPS_LOGS>
-5.18

> <JCHEM_MDDR_LIKE_RULE>
1

> <JCHEM_NEUTRAL_CHARGE>
1

> <JCHEM_NUMBER_OF_RINGS>
3

> <JCHEM_PHYSIOLOGICAL_CHARGE>
1

> <JCHEM_PKA_STRONGEST_BASIC>
9.417815838652855

> <JCHEM_POLAR_SURFACE_AREA>
25.61

> <JCHEM_REFRACTIVITY>
120.0151

> <JCHEM_ROTATABLE_BOND_COUNT>
11

> <JCHEM_RULE_OF_FIVE>
0

> <ALOGPS_SOLUBILITY>
2.93e-03 g/l

> <JCHEM_TRADITIONAL_IUPAC>
biotin

> <JCHEM_VEBER_RULE>
0

> <DRUGBANK_ID>
DB02339

> <SECONDARY_ACCESSION_NUMBERS>
EXPT02742

> <DRUG_GROUPS>
experimental

> <GENERIC_NAME>
Allyl-{6-[3-(4-Bromo-Phenyl)-Benzofuran-6-Yloxy]-Hexyl-}-Methyl-Amin

$$$$
