
  Mrv0541 02231216202D          

 12 11  0  0  0  0            999 V2000
    1.0461   -1.4289    0.0000 C   0  0  0  0  0  0  0  0  0  0  0  0
    1.7605   -1.0164    0.0000 C   0  0  0  0  0  0  0  0  0  0  0  0
    2.4750   -1.4289    0.0000 N   0  3  0  0  0  0  0  0  0  0  0  0
    2.0625   -2.1434    0.0000 C   0  0  0  0  0  0  0  0  0  0  0  0
    2.8875   -0.7145    0.0000 C   0  0  0  0  0  0  0  0  0  0  0  0
    3.1895   -1.8414    0.0000 C   0  0  0  0  0  0  0  0  0  0  0  0
    3.9039   -1.4289    0.0000 C   0  0  0  0  0  0  0  0  0  0  0  0
    4.6184   -1.8414    0.0000 C   0  0  0  0  0  0  0  0  0  0  0  0
    5.3329   -1.4289    0.0000 S   0  0  0  0  0  0  0  0  0  0  0  0
    6.0474   -1.0164    0.0000 O   0  5  0  0  0  0  0  0  0  0  0  0
    5.7454   -2.1434    0.0000 O   0  0  0  0  0  0  0  0  0  0  0  0
    4.9204   -0.7145    0.0000 O   0  0  0  0  0  0  0  0  0  0  0  0
  1  2  1  0  0  0  0
  2  3  1  0  0  0  0
  3  4  1  0  0  0  0
  3  5  1  0  0  0  0
  3  6  1  0  0  0  0
  6  7  1  0  0  0  0
  7  8  1  0  0  0  0
  8  9  1  0  0  0  0
  9 10  1  0  0  0  0
  9 11  2  0  0  0  0
  9 12  2  0  0  0  0
M  CHG  2   3   1  10  -1
M  END
> <DATABASE_ID>
DB02618

> <DATABASE_NAME>
drugbank

> <SMILES>
CC[N+](C)(C)CCCS([O-])(=O)=O

> <INCHI_IDENTIFIER>
InChI=1S/C7H17NO3S/c1-4-8(2,3)6-5-7-12(9,10)11/h4-7H2,1-3H3

> <INCHI_KEY>
NNCRHRDBFDCWPA-UHFFFAOYSA-N

> <FORMULA>
C7H17NO3S

> <MOLECULAR_WEIGHT>
195.28

> <EXACT_MASS>
195.092914105

> <JCHEM_ACCEPTOR_COUNT>
3

> <JCHEM_ATOM_COUNT>
29

> <JCHEM_AVERAGE_NEUTRAL_MICROSPECIES_CHARGE>
1.3414727995098019e-08

> <JCHEM_AVERAGE_POLARIZABILITY>
20.474268617680625

> <JCHEM_BIOAVAILABILITY>
1

> <JCHEM_DONOR_COUNT>
0

> <JCHEM_FORMAL_CHARGE>
0

> <JCHEM_GHOSE_FILTER>
0

> <JCHEM_IUPAC>
3-(ethyldimethylazaniumyl)propane-1-sulfonate

> <ALOGPS_LOGP>
-1.51

> <JCHEM_LOGP>
-4.535108751805079

> <ALOGPS_LOGS>
-2.99

> <JCHEM_MDDR_LIKE_RULE>
0

> <JCHEM_NEUTRAL_CHARGE>
0

> <JCHEM_NUMBER_OF_RINGS>
0

> <JCHEM_PHYSIOLOGICAL_CHARGE>
0

> <JCHEM_PKA_STRONGEST_ACIDIC>
-0.8724181215895602

> <JCHEM_POLAR_SURFACE_AREA>
57.199999999999996

> <JCHEM_REFRACTIVITY>
59.08030000000001

> <JCHEM_ROTATABLE_BOND_COUNT>
5

> <JCHEM_RULE_OF_FIVE>
1

> <ALOGPS_SOLUBILITY>
2.54e-01 g/l

> <JCHEM_TRADITIONAL_IUPAC>
biotin

> <JCHEM_VEBER_RULE>
0

> <DRUGBANK_ID>
DB02618

> <SECONDARY_ACCESSION_NUMBERS>
EXPT02323

> <DRUG_GROUPS>
experimental

> <GENERIC_NAME>
Ethyl Dimethyl Ammonio Propane Sulfonate

$$$$
