 
  Mrv0541 02231215132D          

 66 74  0  0  1  0            999 V2000
   11.7501  -10.4231    0.0000 C   0  0  1  0  0  0  0  0  0  0  0  0
   11.7535   -9.5952    0.0000 C   0  0  0  0  0  0  0  0  0  0  0  0
   11.0394   -9.1789    0.0000 C   0  0  1  0  0  0  0  0  0  0  0  0
   10.3219   -9.5893    0.0000 C   0  0  1  0  0  0  0  0  0  0  0  0
   10.3185  -10.4171    0.0000 C   0  0  2  0  0  0  0  0  0  0  0  0
   11.0325  -10.8334    0.0000 O   0  0  0  0  0  0  0  0  0  0  0  0
   11.0428   -8.3556    0.0000 O   0  0  0  0  0  0  0  0  0  0  0  0
    9.6072   -9.1727    0.0000 O   0  0  0  0  0  0  0  0  0  0  0  0
    9.5984  -10.8289    0.0000 C   0  0  0  0  0  0  0  0  0  0  0  0
   14.6157   -9.5952    0.0000 C   0  0  2  0  0  0  0  0  0  0  0  0
   13.9131   -9.1818    0.0000 O   0  0  0  0  0  0  0  0  0  0  0  0
   13.1692   -9.5952    0.0000 C   0  0  1  0  0  0  0  0  0  0  0  0
   13.1692  -10.4218    0.0000 C   0  0  2  0  0  0  0  0  0  0  0  0
   13.8718  -10.8350    0.0000 C   0  0  2  0  0  0  0  0  0  0  0  0
   14.6157  -10.4218    0.0000 C   0  0  0  0  0  0  0  0  0  0  0  0
   22.3855   -9.2231    0.0000 C   0  0  2  0  0  0  0  0  0  0  0  0
   21.6829   -9.6365    0.0000 C   0  0  1  0  0  0  0  0  0  0  0  0
   22.3855   -8.3967    0.0000 C   0  0  1  0  0  0  0  0  0  0  0  0
   20.9803   -9.2231    0.0000 C   0  0  1  0  0  0  0  0  0  0  0  0
   21.6829  -10.4218    0.0000 C   0  0  0  0  0  0  0  0  0  0  0  0
   21.6829   -8.0246    0.0000 C   0  0  1  0  0  0  0  0  0  0  0  0
   22.3442   -7.6940    0.0000 C   0  0  0  0  0  0  0  0  0  0  0  0
   20.2778   -9.5952    0.0000 C   0  0  2  0  0  0  0  0  0  0  0  0
   20.9803   -8.3967    0.0000 C   0  0  0  0  0  0  0  0  0  0  0  0
   20.9803  -10.8350    0.0000 C   0  0  0  0  0  0  0  0  0  0  0  0
   20.2778  -10.4218    0.0000 C   0  0  2  0  0  0  0  0  0  0  0  0
   19.5751   -9.2231    0.0000 C   0  0  0  0  0  0  0  0  0  0  0  0
   20.2778   -8.8512    0.0000 C   0  0  0  0  0  0  0  0  0  0  0  0
   19.5751  -10.8350    0.0000 C   0  0  0  0  0  0  0  0  0  0  0  0
   18.8725   -9.5952    0.0000 C   0  0  0  0  0  0  0  0  0  0  0  0
   18.8725  -10.4218    0.0000 C   0  0  2  0  0  0  0  0  0  0  0  0
   21.6829   -7.1980    0.0000 O   0  0  0  0  0  0  0  0  0  0  0  0
   23.1294   -9.4712    0.0000 C   0  0  0  0  0  0  0  0  0  0  0  0
   23.6252   -8.8512    0.0000 C   0  0  0  0  0  0  0  0  0  0  0  0
   23.1708   -8.1899    0.0000 C   0  0  2  0  0  0  0  0  0  0  0  0
   23.4186   -7.4048    0.0000 C   0  0  0  0  0  0  0  0  0  0  0  0
   24.2039   -7.1567    0.0000 C   0  0  0  0  0  0  0  0  0  0  0  0
   24.2039   -6.3302    0.0000 C   0  0  0  0  0  0  0  0  0  0  0  0
   23.4186   -6.0409    0.0000 O   0  0  0  0  0  0  0  0  0  0  0  0
   22.9227   -6.7435    0.0000 C   0  0  0  0  0  0  0  0  0  0  0  0
   24.8652   -5.8342    0.0000 O   0  0  0  0  0  0  0  0  0  0  0  0
   18.1700  -10.8350    0.0000 O   0  0  0  0  0  0  0  0  0  0  0  0
   17.4674  -10.4218    0.0000 C   0  0  1  0  0  0  0  0  0  0  0  0
   17.4674   -9.5952    0.0000 C   0  0  0  0  0  0  0  0  0  0  0  0
   16.7234   -9.1818    0.0000 C   0  0  1  0  0  0  0  0  0  0  0  0
   16.0209   -9.5952    0.0000 C   0  0  1  0  0  0  0  0  0  0  0  0
   16.0209  -10.4218    0.0000 C   0  0  2  0  0  0  0  0  0  0  0  0
   16.7234  -10.8350    0.0000 O   0  0  0  0  0  0  0  0  0  0  0  0
   16.7234   -8.3553    0.0000 O   0  0  0  0  0  0  0  0  0  0  0  0
   15.3183   -9.1818    0.0000 O   0  0  0  0  0  0  0  0  0  0  0  0
   15.3183  -10.8350    0.0000 C   0  0  0  0  0  0  0  0  0  0  0  0
   12.4568   -9.1759    0.0000 C   0  0  0  0  0  0  0  0  0  0  0  0
   12.4518  -10.8321    0.0000 O   0  0  0  0  0  0  0  0  0  0  0  0
   13.8617  -11.6615    0.0000 O   0  0  0  0  0  0  0  0  0  0  0  0
    9.6072   -8.3462    0.0000 C   0  0  2  0  0  0  0  0  0  0  0  0
   10.3248   -7.9317    0.0000 O   0  0  0  0  0  0  0  0  0  0  0  0
   10.3248   -7.1052    0.0000 C   0  0  1  0  0  0  0  0  0  0  0  0
    9.6089   -6.6919    0.0000 C   0  0  2  0  0  0  0  0  0  0  0  0
    8.8914   -7.1063    0.0000 C   0  0  1  0  0  0  0  0  0  0  0  0
    8.8914   -7.9328    0.0000 C   0  0  1  0  0  0  0  0  0  0  0  0
    8.1647   -6.6865    0.0000 O   0  0  0  0  0  0  0  0  0  0  0  0
   11.0308   -6.6977    0.0000 C   0  0  0  0  0  0  0  0  0  0  0  0
    8.1565   -8.3572    0.0000 O   0  0  0  0  0  0  0  0  0  0  0  0
    9.6090   -5.8756    0.0000 O   0  0  0  0  0  0  0  0  0  0  0  0
   11.7405   -7.1075    0.0000 O   0  0  0  0  0  0  0  0  0  0  0  0
   22.3855  -10.0497    0.0000 O   0  0  0  0  0  0  0  0  0  0  0  0
  1  2  1  0  0  0  0
  2  3  1  0  0  0  0
  3  4  1  0  0  0  0
  4  5  1  0  0  0  0
  5  6  1  0  0  0  0
  1  6  1  0  0  0  0
  3  7  1  1  0  0  0
  4  8  1  1  0  0  0
  5  9  1  6  0  0  0
 10 11  1  0  0  0  0
 11 12  1  0  0  0  0
 12 13  1  0  0  0  0
 13 14  1  0  0  0  0
 14 15  1  0  0  0  0
 10 15  1  0  0  0  0
 16 17  1  0  0  0  0
 16 18  1  0  0  0  0
 17 19  1  0  0  0  0
 17 20  1  6  0  0  0
 18 21  1  0  0  0  0
 18 22  1  1  0  0  0
 19 23  1  0  0  0  0
 19 24  1  1  0  0  0
 20 25  1  0  0  0  0
 23 26  1  0  0  0  0
 23 27  1  0  0  0  0
 23 28  1  1  0  0  0
 26 29  1  6  0  0  0
 27 30  1  0  0  0  0
 29 31  1  0  0  0  0
 21 24  1  0  0  0  0
 25 26  1  0  0  0  0
 30 31  1  0  0  0  0
 21 32  1  1  0  0  0
 16 33  1  0  0  0  0
 33 34  1  0  0  0  0
 34 35  1  0  0  0  0
 18 35  1  0  0  0  0
 35 36  1  1  0  0  0
 36 37  2  0  0  0  0
 37 38  1  0  0  0  0
 38 39  1  0  0  0  0
 39 40  1  0  0  0  0
 36 40  1  0  0  0  0
 38 41  2  0  0  0  0
 43 42  1  6  0  0  0
 43 44  1  0  0  0  0
 44 45  1  0  0  0  0
 45 46  1  0  0  0  0
 46 47  1  0  0  0  0
 47 48  1  0  0  0  0
 43 48  1  0  0  0  0
 31 42  1  1  0  0  0
 45 49  1  1  0  0  0
 46 50  1  1  0  0  0
 47 51  1  6  0  0  0
 10 50  1  1  0  0  0
 12 52  1  1  0  0  0
 13 53  1  6  0  0  0
 14 54  1  6  0  0  0
  1 53  1  6  0  0  0
 55  8  1  1  0  0  0
 55 56  1  0  0  0  0
 56 57  1  0  0  0  0
 57 58  1  0  0  0  0
 58 59  1  0  0  0  0
 59 60  1  0  0  0  0
 55 60  1  0  0  0  0
 59 61  1  1  0  0  0
 57 62  1  1  0  0  0
 60 63  1  6  0  0  0
 58 64  1  6  0  0  0
 62 65  1  0  0  0  0
 16 66  1  1  0  0  0
M  END
> <DATABASE_ID>
DB01078

> <DATABASE_NAME>
drugbank

> <SMILES>
C[C@H]1O[C@H](C[C@H](O)[C@@H]1O[C@H]1C[C@H](O)[C@H](O[C@H]2C[C@H](O)[C@H](O[C@@H]3O[C@H](CO)[C@@H](O)[C@H](O)[C@H]3O)[C@@H](C)O2)[C@@H](C)O1)O[C@H]1CC[C@@]2(C)[C@H](CC[C@@H]3[C@@H]2C[C@@H](O)[C@]2(C)[C@H](CC[C@]32O)C2=CC(=O)OC2)C1

> <INCHI_IDENTIFIER>
InChI=1S/C47H74O19/c1-20-41(64-36-16-30(50)42(21(2)60-36)65-37-17-31(51)43(22(3)61-37)66-44-40(56)39(55)38(54)32(18-48)63-44)29(49)15-35(59-20)62-25-8-10-45(4)24(13-25)6-7-27-28(45)14-33(52)46(5)26(9-11-47(27,46)57)23-12-34(53)58-19-23/h12,20-22,24-33,35-44,48-52,54-57H,6-11,13-19H2,1-5H3/t20-,21-,22-,24-,25+,26-,27-,28+,29+,30+,31+,32-,33-,35+,36+,37+,38-,39+,40-,41-,42-,43-,44+,45+,46+,47+/m1/s1

> <INCHI_KEY>
OBATZBGFDSVCJD-LALPQLPRSA-N

> <FORMULA>
C47H74O19

> <MOLECULAR_WEIGHT>
943.0791

> <EXACT_MASS>
942.482430186

> <JCHEM_ACCEPTOR_COUNT>
18

> <JCHEM_ATOM_COUNT>
140

> <JCHEM_AVERAGE_NEUTRAL_MICROSPECIES_CHARGE>
-0.413889701966854

> <JCHEM_AVERAGE_POLARIZABILITY>
100.59546217818595

> <JCHEM_BIOAVAILABILITY>
0

> <JCHEM_DONOR_COUNT>
9

> <JCHEM_FORMAL_CHARGE>
0

> <JCHEM_GHOSE_FILTER>
0

> <JCHEM_IUPAC>
4-[(1R,3aS,3bR,5aR,7S,9aS,9bS,11R,11aS)-3a,11-dihydroxy-7-{[(2R,4S,5S,6R)-4-hydroxy-5-{[(2S,4S,5S,6R)-4-hydroxy-5-{[(2S,4S,5S,6R)-4-hydroxy-6-methyl-5-{[(2S,3R,4S,5S,6R)-3,4,5-trihydroxy-6-(hydroxymethyl)oxan-2-yl]oxy}oxan-2-yl]oxy}-6-methyloxan-2-yl]oxy}-6-methyloxan-2-yl]oxy}-9a,11a-dimethyl-hexadecahydro-1H-cyclopenta[a]phenanthren-1-yl]-2,5-dihydrofuran-2-one

> <ALOGPS_LOGP>
-0.49

> <JCHEM_LOGP>
0.5958450263333351

> <ALOGPS_LOGS>
-3.30

> <JCHEM_MDDR_LIKE_RULE>
1

> <JCHEM_NEUTRAL_CHARGE>
0

> <JCHEM_NUMBER_OF_RINGS>
9

> <JCHEM_PHYSIOLOGICAL_CHARGE>
-1

> <JCHEM_PKA>
12.183381612717268

> <JCHEM_PKA_STRONGEST_ACIDIC>
7.15111243257494

> <JCHEM_PKA_STRONGEST_BASIC>
-3.1988993899710594

> <JCHEM_POLAR_SURFACE_AREA>
282.21

> <JCHEM_REFRACTIVITY>
225.64610000000008

> <JCHEM_ROTATABLE_BOND_COUNT>
10

> <JCHEM_RULE_OF_FIVE>
0

> <ALOGPS_SOLUBILITY>
4.68e-01 g/l

> <JCHEM_TRADITIONAL_IUPAC>
biotin

> <JCHEM_VEBER_RULE>
0

> <DRUGBANK_ID>
DB01078

> <SECONDARY_ACCESSION_NUMBERS>
APRD00909

> <DRUG_GROUPS>
approved

> <GENERIC_NAME>
Deslanoside

> <SYNONYMS>
(3β,5β,12β)-3-{[β-D-glucopyranosyl-(1→4)-2,6-dideoxy-β-D-ribo-hexopyranosyl-(1→4)-2,6-dideoxy-β-D-ribo-hexopyranosyl-(1→4)-2,6-dideoxy-β-D-ribo-hexopyranosyl]oxy}-12,14-dihydroxycard-20(22)-enolide; 3-[(O-β-D-glucopyranosyl-(1→4)-O-2,6-dideoxy-β-D-ribo-hexopyranosyl-(1→4)-O-2,6-dideoxy-β-D-ribo-hexopyranosyl-(1→4)-O-2,6-dideoxy-β-D-ribo-hexopyranosyl)oxy]-12,14-dihydroxy-3β,5β,12β-card-20(22)-enolide; Deacetyllanatoside C; Desacetyllanatoside C; Deslanoside; Deslanosido; Deslanosidum; Glucodigoxin

$$$$
