
  Mrv0541 10211208552D          

 15 14  0  0  0  0            999 V2000
    1.2375   -0.7145    0.0000 C   0  0  0  0  0  0  0  0  0  0  0  0
    2.0625   -0.7145    0.0000 C   0  0  2  0  0  0  0  0  0  0  0  0
    2.4750   -1.4289    0.0000 C   0  0  2  0  0  0  0  0  0  0  0  0
    3.3000   -1.4289    0.0000 C   0  0  0  0  0  0  0  0  0  0  0  0
    2.4750   -0.0000    0.0000 O   0  0  0  0  0  0  0  0  0  0  0  0
    2.0625   -2.1434    0.0000 O   0  0  0  0  0  0  0  0  0  0  0  0
    3.7125   -2.1434    0.0000 O   0  0  0  0  0  0  0  0  0  0  0  0
    3.7125   -0.7145    0.0000 O   0  0  0  0  0  0  0  0  0  0  0  0
   -0.8250    0.0000    0.0000 O   0  0  0  0  0  0  0  0  0  0  0  0
    0.0000    0.8250    0.0000 O   0  0  0  0  0  0  0  0  0  0  0  0
    0.0000   -0.8250    0.0000 O   0  0  0  0  0  0  0  0  0  0  0  0
    0.8250    0.0000    0.0000 O   0  0  0  0  0  0  0  0  0  0  0  0
    0.0000    0.0000    0.0000 P   0  0  0  0  0  0  0  0  0  0  0  0
    1.6500   -1.4289    0.0000 H   0  0  0  0  0  0  0  0  0  0  0  0
    2.8875   -0.7145    0.0000 H   0  0  0  0  0  0  0  0  0  0  0  0
  2  1  1  0  0  0  0
  3  2  1  0  0  0  0
  4  3  1  0  0  0  0
  2  5  1  6  0  0  0
  3  6  1  1  0  0  0
  7  4  2  0  0  0  0
  8  4  1  0  0  0  0
 12  1  1  0  0  0  0
 13  9  1  0  0  0  0
 13 10  1  0  0  0  0
 13 11  2  0  0  0  0
 13 12  1  0  0  0  0
  2 14  1  6  0  0  0
  3 15  1  1  0  0  0
M  END
> <DATABASE_ID>
DB03108

> <DATABASE_NAME>
drugbank

> <SMILES>
[H][C@@](O)(COP(O)(O)=O)[C@@]([H])(O)C(O)=O

> <INCHI_IDENTIFIER>
InChI=1S/C4H9O8P/c5-2(3(6)4(7)8)1-12-13(9,10)11/h2-3,5-6H,1H2,(H,7,8)(H2,9,10,11)/t2-,3-/m1/s1

> <INCHI_KEY>
ZCZXOHUILRHRQJ-PWNYCUMCSA-N

> <FORMULA>
C4H9O8P

> <MOLECULAR_WEIGHT>
216.0832

> <EXACT_MASS>
216.003503776

> <JCHEM_ACCEPTOR_COUNT>
7

> <JCHEM_ATOM_COUNT>
22

> <JCHEM_AVERAGE_NEUTRAL_MICROSPECIES_CHARGE>
-2.8555035956879613

> <JCHEM_AVERAGE_POLARIZABILITY>
15.983749664120097

> <JCHEM_BIOAVAILABILITY>
1

> <JCHEM_DONOR_COUNT>
5

> <JCHEM_FORMAL_CHARGE>
0

> <JCHEM_GHOSE_FILTER>
0

> <JCHEM_IUPAC>
(2R,3R)-2,3-dihydroxy-4-(phosphonooxy)butanoic acid

> <ALOGPS_LOGP>
-2.33

> <JCHEM_LOGP>
-2.2726404579999997

> <ALOGPS_LOGS>
-1.04

> <JCHEM_MDDR_LIKE_RULE>
0

> <JCHEM_NEUTRAL_CHARGE>
-3

> <JCHEM_NUMBER_OF_RINGS>
0

> <JCHEM_PHYSIOLOGICAL_CHARGE>
-3

> <JCHEM_PKA>
3.469281509972466

> <JCHEM_PKA_STRONGEST_ACIDIC>
1.466216982657708

> <JCHEM_PKA_STRONGEST_BASIC>
-3.615101449431472

> <JCHEM_POLAR_SURFACE_AREA>
144.52

> <JCHEM_REFRACTIVITY>
37.2189

> <JCHEM_ROTATABLE_BOND_COUNT>
5

> <JCHEM_RULE_OF_FIVE>
1

> <ALOGPS_SOLUBILITY>
1.96e+01 g/l

> <JCHEM_TRADITIONAL_IUPAC>
biotin

> <JCHEM_VEBER_RULE>
0

> <DRUGBANK_ID>
DB03108

> <SECONDARY_ACCESSION_NUMBERS>
EXPT01166

> <DRUG_GROUPS>
experimental

> <GENERIC_NAME>
4-phospho-D-erythronic acid

> <SYNONYMS>
4-Phospho-D-Erythronate; 4-Phosphoerythronate

$$$$
