
  Mrv0541 05041401172D          

  9 10  0  0  0  0            999 V2000
    3.3523    1.1104    0.0000 C   0  0  0  0  0  0  0  0  0  0  0  0
    3.3523    1.9354    0.0000 C   0  0  0  0  0  0  0  0  0  0  0  0
    2.6378    0.6979    0.0000 C   0  0  0  0  0  0  0  0  0  0  0  0
    2.6378    2.3479    0.0000 C   0  0  0  0  0  0  0  0  0  0  0  0
    0.6538    1.5229    0.0000 C   0  0  0  0  0  0  0  0  0  0  0  0
    1.9233    1.1104    0.0000 C   0  0  0  0  0  0  0  0  0  0  0  0
    1.9233    1.9354    0.0000 C   0  0  0  0  0  0  0  0  0  0  0  0
    1.1387    0.8555    0.0000 N   0  0  0  0  0  0  0  0  0  0  0  0
    1.1387    2.1904    0.0000 N   0  0  0  0  0  0  0  0  0  0  0  0
  2  1  2  0  0  0  0
  3  1  1  0  0  0  0
  4  2  1  0  0  0  0
  6  3  2  0  0  0  0
  7  4  2  0  0  0  0
  7  6  1  0  0  0  0
  8  5  2  0  0  0  0
  8  6  1  0  0  0  0
  9  5  1  0  0  0  0
  9  7  1  0  0  0  0
M  END
> <DATABASE_ID>
DB02962

> <DATABASE_NAME>
drugbank

> <SMILES>
N1C=NC2=CC=CC=C12

> <INCHI_IDENTIFIER>
InChI=1S/C7H6N2/c1-2-4-7-6(3-1)8-5-9-7/h1-5H,(H,8,9)

> <INCHI_KEY>
HYZJCKYKOHLVJF-UHFFFAOYSA-N

> <FORMULA>
C7H6N2

> <MOLECULAR_WEIGHT>
118.1359

> <EXACT_MASS>
118.053098202

> <JCHEM_ACCEPTOR_COUNT>
1

> <JCHEM_ATOM_COUNT>
15

> <JCHEM_AVERAGE_NEUTRAL_MICROSPECIES_CHARGE>
0.05833733335364405

> <JCHEM_AVERAGE_POLARIZABILITY>
12.212975396012341

> <JCHEM_BIOAVAILABILITY>
1

> <JCHEM_DONOR_COUNT>
1

> <JCHEM_FORMAL_CHARGE>
0

> <JCHEM_GHOSE_FILTER>
0

> <JCHEM_IUPAC>
1H-1,3-benzodiazole

> <ALOGPS_LOGP>
1.67

> <JCHEM_LOGP>
1.259503999

> <ALOGPS_LOGS>
-0.84

> <JCHEM_MDDR_LIKE_RULE>
0

> <JCHEM_NEUTRAL_CHARGE>
0

> <JCHEM_NUMBER_OF_RINGS>
2

> <JCHEM_PHYSIOLOGICAL_CHARGE>
0

> <JCHEM_PKA_STRONGEST_ACIDIC>
12.247718068764053

> <JCHEM_PKA_STRONGEST_BASIC>
5.792095757715238

> <JCHEM_POLAR_SURFACE_AREA>
28.68

> <JCHEM_REFRACTIVITY>
34.9685

> <JCHEM_ROTATABLE_BOND_COUNT>
0

> <JCHEM_RULE_OF_FIVE>
1

> <ALOGPS_SOLUBILITY>
1.70e+01 g/l

> <JCHEM_TRADITIONAL_IUPAC>
biotin

> <JCHEM_VEBER_RULE>
1

> <DRUGBANK_ID>
DB02962

> <SECONDARY_ACCESSION_NUMBERS>
EXPT00791

> <DRUG_GROUPS>
experimental; investigational

> <GENERIC_NAME>
Benzimidazole

$$$$
