
  Mrv0541 05041411152D          

 34 35  0  0  1  0            999 V2000
   -0.0000    0.8250    0.0000 C   0  0  0  0  0  0  0  0  0  0  0  0
    0.7145    3.7125    0.0000 C   0  0  0  0  0  0  0  0  0  0  0  0
   -3.5724    4.5375    0.0000 C   0  0  0  0  0  0  0  0  0  0  0  0
    0.0000    3.3000    0.0000 C   0  0  2  0  0  0  0  0  0  0  0  0
   -3.5724    3.7125    0.0000 C   0  0  2  0  0  0  0  0  0  0  0  0
   -4.2868    3.3000    0.0000 C   0  0  2  0  0  0  0  0  0  0  0  0
   -0.7145    3.7125    0.0000 C   0  0  2  0  0  0  0  0  0  0  0  0
   -4.2868    2.4750    0.0000 C   0  0  1  0  0  0  0  0  0  0  0  0
   -1.4289    3.3000    0.0000 C   0  0  1  0  0  0  0  0  0  0  0  0
   -3.5724    2.0625    0.0000 C   0  0  1  0  0  0  0  0  0  0  0  0
   -1.4289    2.4750    0.0000 C   0  0  1  0  0  0  0  0  0  0  0  0
   -0.7145    2.0625    0.0000 C   0  0  1  0  0  0  0  0  0  0  0  0
   -2.8579    2.4750    0.0000 C   0  0  2  0  0  0  0  0  0  0  0  0
    1.4289    3.3000    0.0000 O   0  0  0  0  0  0  0  0  0  0  0  0
   -2.8579    4.9500    0.0000 O   0  0  0  0  0  0  0  0  0  0  0  0
   -5.0013    3.7125    0.0000 O   0  0  0  0  0  0  0  0  0  0  0  0
   -0.7145    4.5375    0.0000 O   0  0  0  0  0  0  0  0  0  0  0  0
   -5.0013    2.0625    0.0000 O   0  0  0  0  0  0  0  0  0  0  0  0
   -2.1434    3.7125    0.0000 O   0  0  0  0  0  0  0  0  0  0  0  0
   -3.5724    1.2375    0.0000 O   0  0  0  0  0  0  0  0  0  0  0  0
   -0.7145    1.2375    0.0000 O   0  0  0  0  0  0  0  0  0  0  0  0
   -0.0000    2.4750    0.0000 O   0  0  0  0  0  0  0  0  0  0  0  0
   -2.8579    3.3000    0.0000 O   0  0  0  0  0  0  0  0  0  0  0  0
   -2.1434    2.0625    0.0000 S   0  0  0  0  0  0  0  0  0  0  0  0
   -0.2822    4.0752    0.0000 H   0  0  0  0  0  0  0  0  0  0  0  0
   -4.3848    3.8558    0.0000 H   0  0  0  0  0  0  0  0  0  0  0  0
   -4.5690    4.0752    0.0000 H   0  0  0  0  0  0  0  0  0  0  0  0
   -0.1842    4.3445    0.0000 H   0  0  0  0  0  0  0  0  0  0  0  0
   -5.0013    2.8875    0.0000 H   0  0  0  0  0  0  0  0  0  0  0  0
   -1.4289    4.1250    0.0000 H   0  0  0  0  0  0  0  0  0  0  0  0
   -4.2868    1.6500    0.0000 H   0  0  0  0  0  0  0  0  0  0  0  0
   -2.1434    2.8875    0.0000 H   0  0  0  0  0  0  0  0  0  0  0  0
   -1.4289    1.6500    0.0000 H   0  0  0  0  0  0  0  0  0  0  0  0
   -2.8579    1.6500    0.0000 H   0  0  0  0  0  0  0  0  0  0  0  0
  4  2  1  1  0  0  0
  5  3  1  1  0  0  0
  6  5  1  0  0  0  0
  7  4  1  0  0  0  0
  8  6  1  0  0  0  0
  9  7  1  0  0  0  0
 10  8  1  0  0  0  0
 11  9  1  0  0  0  0
 12 11  1  0  0  0  0
 13 10  1  0  0  0  0
 14  2  1  0  0  0  0
 15  3  1  0  0  0  0
  6 16  1  6  0  0  0
  7 17  1  6  0  0  0
  8 18  1  1  0  0  0
  9 19  1  1  0  0  0
 10 20  1  1  0  0  0
 21  1  1  0  0  0  0
 12 21  1  6  0  0  0
 22  4  1  0  0  0  0
 22 12  1  0  0  0  0
 23  5  1  0  0  0  0
 23 13  1  0  0  0  0
 11 24  1  1  0  0  0
 13 24  1  6  0  0  0
  4 25  1  6  0  0  0
  5 26  1  6  0  0  0
  6 27  1  1  0  0  0
  7 28  1  1  0  0  0
  8 29  1  6  0  0  0
  9 30  1  6  0  0  0
 10 31  1  6  0  0  0
 11 32  1  6  0  0  0
 12 33  1  1  0  0  0
 13 34  1  1  0  0  0
M  END
> <DATABASE_ID>
DB02422

> <DATABASE_NAME>
drugbank

> <SMILES>
[H][C@]1(CO)O[C@]([H])(OC)[C@@]([H])(S[C@@]2([H])O[C@]([H])(CO)[C@@]([H])(O)[C@]([H])(O)[C@]2([H])O)[C@@]([H])(O)[C@]1([H])O

> <INCHI_IDENTIFIER>
InChI=1S/C13H24O10S/c1-21-12-11(9(19)7(17)4(2-14)22-12)24-13-10(20)8(18)6(16)5(3-15)23-13/h4-20H,2-3H2,1H3/t4-,5-,6-,7-,8+,9+,10+,11+,12+,13-/m1/s1

> <INCHI_KEY>
WAYOKHSZGNFKSX-ZEEOCKJESA-N

> <FORMULA>
C13H24O10S

> <MOLECULAR_WEIGHT>
372.389

> <EXACT_MASS>
372.109017678

> <JCHEM_ACCEPTOR_COUNT>
10

> <JCHEM_ATOM_COUNT>
48

> <JCHEM_AVERAGE_NEUTRAL_MICROSPECIES_CHARGE>
-6.892071287961865e-06

> <JCHEM_AVERAGE_POLARIZABILITY>
35.22470543988119

> <JCHEM_BIOAVAILABILITY>
1

> <JCHEM_DONOR_COUNT>
7

> <JCHEM_FORMAL_CHARGE>
0

> <JCHEM_GHOSE_FILTER>
0

> <JCHEM_IUPAC>
(2R,3S,4S,5S,6R)-2-{[(2S,3S,4S,5S,6R)-4,5-dihydroxy-6-(hydroxymethyl)-2-methoxyoxan-3-yl]sulfanyl}-6-(hydroxymethyl)oxane-3,4,5-triol

> <ALOGPS_LOGP>
-2.62

> <JCHEM_LOGP>
-3.6439458500000006

> <ALOGPS_LOGS>
-0.00

> <JCHEM_MDDR_LIKE_RULE>
0

> <JCHEM_NEUTRAL_CHARGE>
0

> <JCHEM_NUMBER_OF_RINGS>
2

> <JCHEM_PHYSIOLOGICAL_CHARGE>
0

> <JCHEM_PKA>
12.909502559091507

> <JCHEM_PKA_STRONGEST_ACIDIC>
12.341584300246357

> <JCHEM_PKA_STRONGEST_BASIC>
-2.979753038871131

> <JCHEM_POLAR_SURFACE_AREA>
169.29999999999998

> <JCHEM_REFRACTIVITY>
79.2319

> <JCHEM_ROTATABLE_BOND_COUNT>
5

> <JCHEM_RULE_OF_FIVE>
0

> <ALOGPS_SOLUBILITY>
3.69e+02 g/l

> <JCHEM_TRADITIONAL_IUPAC>
tetrahydrofolic acid

> <JCHEM_VEBER_RULE>
0

> <DRUGBANK_ID>
DB02422

> <SECONDARY_ACCESSION_NUMBERS>
EXPT02920

> <DRUG_GROUPS>
experimental

> <GENERIC_NAME>
Methyl-2-S-(Alpha-D-Mannopyranosyl)-2-Thio-Alpha-D-Mannopyranoside

$$$$
