
  Mrv0541 02231217552D          

 86 93  0  0  0  0            999 V2000
   18.6758   -5.0512    0.0000 S   0  0  0  0  0  0  0  0  0  0  0  0
    3.8240    4.0177    0.0000 S   0  0  0  0  0  0  0  0  0  0  0  0
   15.4603   -6.9106    0.0000 S   0  0  0  0  0  0  0  0  0  0  0  0
    5.6789    7.2358    0.0000 S   0  0  0  0  0  0  0  0  0  0  0  0
   18.3737   -7.6072    0.0000 S   0  0  0  0  0  0  0  0  0  0  0  0
    2.8075    6.3823    0.0000 S   0  0  0  0  0  0  0  0  0  0  0  0
   19.0883   -5.7656    0.0000 O   0  0  0  0  0  0  0  0  0  0  0  0
    3.4115    3.3032    0.0000 O   0  0  0  0  0  0  0  0  0  0  0  0
   15.0560   -7.6299    0.0000 O   0  0  0  0  0  0  0  0  0  0  0  0
    5.6694    8.0608    0.0000 O   0  0  0  0  0  0  0  0  0  0  0  0
   19.3902   -4.6387    0.0000 O   0  0  0  0  0  0  0  0  0  0  0  0
   18.2633   -4.3367    0.0000 O   0  0  0  0  0  0  0  0  0  0  0  0
    4.5384    3.6052    0.0000 O   0  0  0  0  0  0  0  0  0  0  0  0
    3.1095    4.4302    0.0000 O   0  0  0  0  0  0  0  0  0  0  0  0
   18.7862   -8.3216    0.0000 O   0  0  0  0  0  0  0  0  0  0  0  0
    2.0930    6.7948    0.0000 O   0  0  0  0  0  0  0  0  0  0  0  0
   14.7410   -6.5064    0.0000 O   0  0  0  0  0  0  0  0  0  0  0  0
   16.1794   -7.3149    0.0000 O   0  0  0  0  0  0  0  0  0  0  0  0
    6.5039    7.2453    0.0000 O   0  0  0  0  0  0  0  0  0  0  0  0
    4.8540    7.2263    0.0000 O   0  0  0  0  0  0  0  0  0  0  0  0
   17.6593   -8.0197    0.0000 O   0  0  0  0  0  0  0  0  0  0  0  0
   19.0883   -7.1947    0.0000 O   0  0  0  0  0  0  0  0  0  0  0  0
    3.2200    7.0967    0.0000 O   0  0  0  0  0  0  0  0  0  0  0  0
    2.3950    5.6677    0.0000 O   0  0  0  0  0  0  0  0  0  0  0  0
   15.9097   -3.2745    0.0000 O   0  0  0  0  0  0  0  0  0  0  0  0
    7.3384    4.6845    0.0000 O   0  0  0  0  0  0  0  0  0  0  0  0
   15.5220   -1.1264    0.0000 O   0  0  0  0  0  0  0  0  0  0  0  0
    9.3926    3.9462    0.0000 O   0  0  0  0  0  0  0  0  0  0  0  0
   13.5008    2.4697    0.0000 O   0  0  0  0  0  0  0  0  0  0  0  0
   17.1388   -4.0032    0.0000 N   0  0  0  0  0  0  0  0  0  0  0  0
    6.0928    3.9844    0.0000 N   0  0  0  0  0  0  0  0  0  0  0  0
   16.7677   -0.4263    0.0000 N   0  0  0  0  0  0  0  0  0  0  0  0
    9.3760    2.5174    0.0000 N   0  0  0  0  0  0  0  0  0  0  0  0
   13.4843    1.0408    0.0000 N   0  0  0  0  0  0  0  0  0  0  0  0
   12.2551    1.7695    0.0000 N   0  0  0  0  0  0  0  0  0  0  0  0
   17.1362   -5.4637    0.0000 C   0  0  0  0  0  0  0  0  0  0  0  0
    4.9509    5.1447    0.0000 C   0  0  0  0  0  0  0  0  0  0  0  0
   16.7237   -6.1781    0.0000 C   0  0  0  0  0  0  0  0  0  0  0  0
    4.9509    5.9697    0.0000 C   0  0  0  0  0  0  0  0  0  0  0  0
   17.9612   -5.4637    0.0000 C   0  0  0  0  0  0  0  0  0  0  0  0
    4.2365    4.7322    0.0000 C   0  0  0  0  0  0  0  0  0  0  0  0
   15.8644   -6.1914    0.0000 C   0  0  0  0  0  0  0  0  0  0  0  0
    5.6885    6.4108    0.0000 C   0  0  0  0  0  0  0  0  0  0  0  0
   16.7181   -4.7129    0.0000 C   0  0  0  0  0  0  0  0  0  0  0  0
    5.6885    4.7036    0.0000 C   0  0  0  0  0  0  0  0  0  0  0  0
   17.1362   -6.8926    0.0000 C   0  0  0  0  0  0  0  0  0  0  0  0
    4.2365    6.3823    0.0000 C   0  0  0  0  0  0  0  0  0  0  0  0
   17.9612   -6.8926    0.0000 C   0  0  0  0  0  0  0  0  0  0  0  0
    3.5220    5.9697    0.0000 C   0  0  0  0  0  0  0  0  0  0  0  0
   18.3737   -6.1781    0.0000 C   0  0  0  0  0  0  0  0  0  0  0  0
    3.5220    5.1447    0.0000 C   0  0  0  0  0  0  0  0  0  0  0  0
   15.4291   -5.4505    0.0000 C   0  0  0  0  0  0  0  0  0  0  0  0
    6.4360    5.9869    0.0000 C   0  0  0  0  0  0  0  0  0  0  0  0
   15.8587   -4.7062    0.0000 C   0  0  0  0  0  0  0  0  0  0  0  0
    6.4360    5.1275    0.0000 C   0  0  0  0  0  0  0  0  0  0  0  0
   16.7346   -3.2840    0.0000 C   0  0  0  0  0  0  0  0  0  0  0  0
    6.9177    3.9749    0.0000 C   0  0  0  0  0  0  0  0  0  0  0  0
   17.1553   -2.5744    0.0000 C   0  0  0  0  0  0  0  0  0  0  0  0
    7.3219    3.2556    0.0000 C   0  0  0  0  0  0  0  0  0  0  0  0
   16.7511   -1.8551    0.0000 C   0  0  0  0  0  0  0  0  0  0  0  0
    8.1469    3.2461    0.0000 C   0  0  0  0  0  0  0  0  0  0  0  0
   17.1718   -1.1455    0.0000 C   0  0  0  0  0  0  0  0  0  0  0  0
    8.5511    2.5269    0.0000 C   0  0  0  0  0  0  0  0  0  0  0  0
   17.9803   -2.5839    0.0000 C   0  0  0  0  0  0  0  0  0  0  0  0
    6.9012    2.5460    0.0000 C   0  0  0  0  0  0  0  0  0  0  0  0
   17.9969   -1.1550    0.0000 C   0  0  0  0  0  0  0  0  0  0  0  0
    8.1303    1.8172    0.0000 C   0  0  0  0  0  0  0  0  0  0  0  0
   18.4010   -1.8742    0.0000 C   0  0  0  0  0  0  0  0  0  0  0  0
    7.3055    1.8268    0.0000 C   0  0  0  0  0  0  0  0  0  0  0  0
   18.4175   -0.4453    0.0000 C   0  0  0  0  0  0  0  0  0  0  0  0
    8.5346    1.0980    0.0000 C   0  0  0  0  0  0  0  0  0  0  0  0
   15.9427   -0.4167    0.0000 C   0  0  0  0  0  0  0  0  0  0  0  0
    9.7968    3.2271    0.0000 C   0  0  0  0  0  0  0  0  0  0  0  0
   15.5385    0.3025    0.0000 C   0  0  0  0  0  0  0  0  0  0  0  0
   10.6217    3.2175    0.0000 C   0  0  0  0  0  0  0  0  0  0  0  0
   14.7135    0.3120    0.0000 C   0  0  0  0  0  0  0  0  0  0  0  0
   11.0260    2.4982    0.0000 C   0  0  0  0  0  0  0  0  0  0  0  0
   14.3093    1.0313    0.0000 C   0  0  0  0  0  0  0  0  0  0  0  0
   11.8509    2.4887    0.0000 C   0  0  0  0  0  0  0  0  0  0  0  0
   15.9592    1.0121    0.0000 C   0  0  0  0  0  0  0  0  0  0  0  0
   11.0425    3.9272    0.0000 C   0  0  0  0  0  0  0  0  0  0  0  0
   14.7300    1.7409    0.0000 C   0  0  0  0  0  0  0  0  0  0  0  0
   12.2716    3.1984    0.0000 C   0  0  0  0  0  0  0  0  0  0  0  0
   15.5550    1.7314    0.0000 C   0  0  0  0  0  0  0  0  0  0  0  0
   11.8675    3.9176    0.0000 C   0  0  0  0  0  0  0  0  0  0  0  0
   13.0801    1.7600    0.0000 C   0  0  0  0  0  0  0  0  0  0  0  0
  1  7  1  0  0  0  0
  1 11  2  0  0  0  0
  1 12  2  0  0  0  0
  1 40  1  0  0  0  0
  2  8  1  0  0  0  0
  2 13  2  0  0  0  0
  2 14  2  0  0  0  0
  2 41  1  0  0  0  0
  3  9  1  0  0  0  0
  3 17  2  0  0  0  0
  3 18  2  0  0  0  0
  3 42  1  0  0  0  0
  4 10  1  0  0  0  0
  4 19  2  0  0  0  0
  4 20  2  0  0  0  0
  4 43  1  0  0  0  0
  5 15  1  0  0  0  0
  5 21  2  0  0  0  0
  5 22  2  0  0  0  0
  5 48  1  0  0  0  0
  6 16  1  0  0  0  0
  6 23  2  0  0  0  0
  6 24  2  0  0  0  0
  6 49  1  0  0  0  0
 25 56  2  0  0  0  0
 26 57  2  0  0  0  0
 27 72  2  0  0  0  0
 28 73  2  0  0  0  0
 29 86  2  0  0  0  0
 30 44  1  0  0  0  0
 30 56  1  0  0  0  0
 31 45  1  0  0  0  0
 31 57  1  0  0  0  0
 32 62  1  0  0  0  0
 32 72  1  0  0  0  0
 33 63  1  0  0  0  0
 33 73  1  0  0  0  0
 34 78  1  0  0  0  0
 34 86  1  0  0  0  0
 35 79  1  0  0  0  0
 35 86  1  0  0  0  0
 36 38  1  0  0  0  0
 36 40  1  0  0  0  0
 36 44  2  0  0  0  0
 37 39  1  0  0  0  0
 37 41  1  0  0  0  0
 37 45  2  0  0  0  0
 38 42  2  0  0  0  0
 38 46  1  0  0  0  0
 39 43  2  0  0  0  0
 39 47  1  0  0  0  0
 40 50  2  0  0  0  0
 41 51  2  0  0  0  0
 42 52  1  0  0  0  0
 43 53  1  0  0  0  0
 44 54  1  0  0  0  0
 45 55  1  0  0  0  0
 46 48  2  0  0  0  0
 47 49  2  0  0  0  0
 48 50  1  0  0  0  0
 49 51  1  0  0  0  0
 52 54  2  0  0  0  0
 53 55  2  0  0  0  0
 56 58  1  0  0  0  0
 57 59  1  0  0  0  0
 58 60  2  0  0  0  0
 58 64  1  0  0  0  0
 59 61  2  0  0  0  0
 59 65  1  0  0  0  0
 60 62  1  0  0  0  0
 61 63  1  0  0  0  0
 62 66  2  0  0  0  0
 63 67  2  0  0  0  0
 64 68  2  0  0  0  0
 65 69  2  0  0  0  0
 66 68  1  0  0  0  0
 66 70  1  0  0  0  0
 67 69  1  0  0  0  0
 67 71  1  0  0  0  0
 72 74  1  0  0  0  0
 73 75  1  0  0  0  0
 74 76  2  0  0  0  0
 74 80  1  0  0  0  0
 75 77  2  0  0  0  0
 75 81  1  0  0  0  0
 76 78  1  0  0  0  0
 77 79  1  0  0  0  0
 78 82  2  0  0  0  0
 79 83  2  0  0  0  0
 80 84  2  0  0  0  0
 81 85  2  0  0  0  0
 82 84  1  0  0  0  0
 83 85  1  0  0  0  0
M  END
> <DATABASE_ID>
DB04786

> <DATABASE_NAME>
drugbank

> <SMILES>
CC1=C(NC(=O)C2=CC(NC(=O)NC3=CC=CC(=C3)C(=O)NC3=C(C)C=CC(=C3)C(=O)NC3=C4C(C=C(C=C4S(O)(=O)=O)S(O)(=O)=O)=C(C=C3)S(O)(=O)=O)=CC=C2)C=C(C=C1)C(=O)NC1=C2C(C=C(C=C2S(O)(=O)=O)S(O)(=O)=O)=C(C=C1)S(O)(=O)=O

> <INCHI_IDENTIFIER>
InChI=1S/C51H40N6O23S6/c1-25-9-11-29(49(60)54-37-13-15-41(83(69,70)71)35-21-33(81(63,64)65)23-43(45(35)37)85(75,76)77)19-39(25)56-47(58)27-5-3-7-31(17-27)52-51(62)53-32-8-4-6-28(18-32)48(59)57-40-20-30(12-10-26(40)2)50(61)55-38-14-16-42(84(72,73)74)36-22-34(82(66,67)68)24-44(46(36)38)86(78,79)80/h3-24H,1-2H3,(H,54,60)(H,55,61)(H,56,58)(H,57,59)(H2,52,53,62)(H,63,64,65)(H,66,67,68)(H,69,70,71)(H,72,73,74)(H,75,76,77)(H,78,79,80)

> <INCHI_KEY>
FIAFUQMPZJWCLV-UHFFFAOYSA-N

> <FORMULA>
C51H40N6O23S6

> <MOLECULAR_WEIGHT>
1297.28

> <EXACT_MASS>
1296.046905756

> <JCHEM_ACCEPTOR_COUNT>
23

> <JCHEM_ATOM_COUNT>
126

> <JCHEM_AVERAGE_NEUTRAL_MICROSPECIES_CHARGE>
-6.000050893965963

> <JCHEM_AVERAGE_POLARIZABILITY>
120.22217289747852

> <JCHEM_BIOAVAILABILITY>
0

> <JCHEM_DONOR_COUNT>
12

> <JCHEM_FORMAL_CHARGE>
0

> <JCHEM_GHOSE_FILTER>
0

> <JCHEM_IUPAC>
8-{4-methyl-3-[3-({[3-({2-methyl-5-[(4,6,8-trisulfonaphthalen-1-yl)carbamoyl]phenyl}carbamoyl)phenyl]carbamoyl}amino)benzamido]benzamido}naphthalene-1,3,5-trisulfonic acid

> <ALOGPS_LOGP>
-0.12

> <JCHEM_LOGP>
5.577430975666668

> <ALOGPS_LOGS>
-5.17

> <JCHEM_MDDR_LIKE_RULE>
1

> <JCHEM_NEUTRAL_CHARGE>
-6

> <JCHEM_NUMBER_OF_RINGS>
8

> <JCHEM_PHYSIOLOGICAL_CHARGE>
-6

> <JCHEM_PKA>
-3.0349701962204056

> <JCHEM_PKA_STRONGEST_ACIDIC>
-3.4551167533665503

> <JCHEM_POLAR_SURFACE_AREA>
483.7499999999997

> <JCHEM_REFRACTIVITY>
314.9045999999999

> <JCHEM_ROTATABLE_BOND_COUNT>
16

> <JCHEM_RULE_OF_FIVE>
0

> <ALOGPS_SOLUBILITY>
8.72e-03 g/l

> <JCHEM_TRADITIONAL_IUPAC>
biotin

> <JCHEM_VEBER_RULE>
0

> <DRUGBANK_ID>
DB04786

> <DRUG_GROUPS>
investigational

> <GENERIC_NAME>
Suramin

> <SYNONYMS>
Suramin; Suramine

> <INTERNATIONAL_BRANDS>
309 Fourneau; Antrypol; Bayer 205; Belganyl; Germanin; Moranyl; Naganin; Naganine; Naganol; Naphuride

> <SALTS>
Suramin sodium

$$$$
