
  Mrv0541 02231217512D          

 29 32  0  0  1  0            999 V2000
    6.9960   -2.9136    0.0000 C   0  0  0  0  0  0  0  0  0  0  0  0
    7.7104   -2.5011    0.0000 C   0  0  0  0  0  0  0  0  0  0  0  0
    7.7104   -1.6761    0.0000 C   0  0  0  0  0  0  0  0  0  0  0  0
    8.4249   -2.9136    0.0000 C   0  0  0  0  0  0  0  0  0  0  0  0
    9.1394   -2.5011    0.0000 C   0  0  0  0  0  0  0  0  0  0  0  0
    9.8538   -2.9136    0.0000 C   0  0  0  0  0  0  0  0  0  0  0  0
   10.5683   -2.5011    0.0000 C   0  0  1  0  0  0  0  0  0  0  0  0
   10.9808   -3.2156    0.0000 C   0  0  0  0  0  0  0  0  0  0  0  0
   10.1558   -1.7867    0.0000 O   0  0  0  0  0  0  0  0  0  0  0  0
   11.2828   -2.0886    0.0000 C   0  0  1  0  0  0  0  0  0  0  0  0
   11.3690   -1.2682    0.0000 C   0  0  0  0  0  0  0  0  0  0  0  0
   12.1760   -1.0966    0.0000 C   0  0  0  0  0  0  0  0  0  0  0  0
   12.5885   -1.8111    0.0000 C   0  0  1  0  0  0  0  0  0  0  0  0
   13.3955   -1.9826    0.0000 C   0  0  2  0  0  0  0  0  0  0  0  0
   13.9475   -1.3695    0.0000 C   0  0  0  0  0  0  0  0  0  0  0  0
   14.7545   -1.5411    0.0000 C   0  0  0  0  0  0  0  0  0  0  0  0
   15.0094   -2.3257    0.0000 C   0  0  0  0  0  0  0  0  0  0  0  0
   15.8164   -2.4972    0.0000 C   0  0  0  0  0  0  0  0  0  0  0  0
   16.0713   -3.2818    0.0000 C   0  0  1  0  0  0  0  0  0  0  0  0
   16.8783   -3.4534    0.0000 O   0  0  0  0  0  0  0  0  0  0  0  0
   15.5193   -3.8949    0.0000 C   0  0  0  0  0  0  0  0  0  0  0  0
   14.7123   -3.7234    0.0000 C   0  0  0  0  0  0  0  0  0  0  0  0
   14.4574   -2.9388    0.0000 C   0  0  1  0  0  0  0  0  0  0  0  0
   13.9053   -3.5519    0.0000 C   0  0  0  0  0  0  0  0  0  0  0  0
   13.6504   -2.7673    0.0000 C   0  0  1  0  0  0  0  0  0  0  0  0
   13.0984   -3.3803    0.0000 C   0  0  0  0  0  0  0  0  0  0  0  0
   12.2914   -3.2088    0.0000 C   0  0  0  0  0  0  0  0  0  0  0  0
   12.0365   -2.4242    0.0000 C   0  0  2  0  0  0  0  0  0  0  0  0
   11.4234   -2.9762    0.0000 C   0  0  0  0  0  0  0  0  0  0  0  0
  1  2  1  0  0  0  0
  2  3  1  0  0  0  0
  2  4  1  0  0  0  0
  4  5  1  0  0  0  0
  5  6  1  0  0  0  0
  6  7  1  0  0  0  0
  7  8  1  6  0  0  0
  7  9  1  6  0  0  0
 10  7  1  1  0  0  0
 10 11  1  0  0  0  0
 11 12  1  0  0  0  0
 13 12  1  1  0  0  0
 13 14  1  0  0  0  0
 14 15  1  6  0  0  0
 15 16  1  0  0  0  0
 16 17  2  0  0  0  0
 17 18  1  0  0  0  0
 18 19  1  0  0  0  0
 19 20  1  1  0  0  0
 19 21  1  0  0  0  0
 21 22  1  0  0  0  0
 22 23  1  0  0  0  0
 17 23  1  0  0  0  0
 23 24  1  1  0  0  0
 23 25  1  0  0  0  0
 14 25  1  0  0  0  0
 25 26  1  1  0  0  0
 26 27  1  0  0  0  0
 27 28  1  0  0  0  0
 10 28  1  0  0  0  0
 13 28  1  0  0  0  0
 28 29  1  1  0  0  0
M  END
> <DATABASE_ID>
DB04704

> <DATABASE_NAME>
drugbank

> <SMILES>
CC(C)CCC[C@@](C)(O)[C@H]1CC[C@H]2[C@@H]3CC=C4C[C@@H](O)CC[C@]4(C)[C@H]3CC[C@]12C

> <INCHI_IDENTIFIER>
InChI=1S/C27H46O2/c1-18(2)7-6-14-27(5,29)24-11-10-22-21-9-8-19-17-20(28)12-15-25(19,3)23(21)13-16-26(22,24)4/h8,18,20-24,28-29H,6-7,9-17H2,1-5H3/t20-,21-,22-,23-,24-,25-,26-,27+/m0/s1

> <INCHI_KEY>
MCKLJFJEQRYRQT-MGNSQDQZSA-N

> <FORMULA>
C27H46O2

> <MOLECULAR_WEIGHT>
402.6529

> <EXACT_MASS>
402.349780716

> <JCHEM_ACCEPTOR_COUNT>
2

> <JCHEM_ATOM_COUNT>
75

> <JCHEM_AVERAGE_NEUTRAL_MICROSPECIES_CHARGE>
5.4852044899484914e-08

> <JCHEM_AVERAGE_POLARIZABILITY>
50.56754661203492

> <JCHEM_BIOAVAILABILITY>
1

> <JCHEM_DONOR_COUNT>
2

> <JCHEM_FORMAL_CHARGE>
0

> <JCHEM_GHOSE_FILTER>
0

> <JCHEM_IUPAC>
(1S,3aS,3bS,7S,9aR,9bS,11aS)-1-[(2R)-2-hydroxy-6-methylheptan-2-yl]-9a,11a-dimethyl-1H,2H,3H,3aH,3bH,4H,6H,7H,8H,9H,9aH,9bH,10H,11H,11aH-cyclopenta[a]phenanthren-7-ol

> <ALOGPS_LOGP>
6.06

> <JCHEM_LOGP>
5.797681805666667

> <ALOGPS_LOGS>
-5.85

> <JCHEM_MDDR_LIKE_RULE>
0

> <JCHEM_NEUTRAL_CHARGE>
0

> <JCHEM_NUMBER_OF_RINGS>
4

> <JCHEM_PHYSIOLOGICAL_CHARGE>
0

> <JCHEM_PKA_STRONGEST_ACIDIC>
18.20428950550382

> <JCHEM_PKA_STRONGEST_BASIC>
-0.25845961692815167

> <JCHEM_POLAR_SURFACE_AREA>
40.46

> <JCHEM_REFRACTIVITY>
122.29859999999998

> <JCHEM_ROTATABLE_BOND_COUNT>
5

> <JCHEM_RULE_OF_FIVE>
0

> <ALOGPS_SOLUBILITY>
5.71e-04 g/l

> <JCHEM_TRADITIONAL_IUPAC>
biotin

> <JCHEM_VEBER_RULE>
0

> <DRUGBANK_ID>
DB04704

> <DRUG_GROUPS>
experimental

> <GENERIC_NAME>
20-hydroxycholesterol

$$$$
