
  Mrv0541 02231217472D          

 45 46  0  0  1  0            999 V2000
    6.2966   -0.5631    0.0000 C   0  0  0  0  0  0  0  0  0  0  0  0
    6.1682   -1.3780    0.0000 C   0  0  0  0  0  0  0  0  0  0  0  0
    6.8099   -1.8966    0.0000 O   0  0  0  0  0  0  0  0  0  0  0  0
    6.6815   -2.7116    0.0000 C   0  0  0  0  0  0  0  0  0  0  0  0
    5.9116   -3.0079    0.0000 O   0  0  0  0  0  0  0  0  0  0  0  0
    7.3232   -3.2302    0.0000 C   0  0  0  0  0  0  0  0  0  0  0  0
    7.1948   -4.0452    0.0000 C   0  0  0  0  0  0  0  0  0  0  0  0
    7.8364   -4.5638    0.0000 C   0  0  2  0  0  0  0  0  0  0  0  0
    7.7081   -5.3787    0.0000 C   0  0  0  0  0  0  0  0  0  0  0  0
    6.9382   -5.6751    0.0000 C   0  0  2  0  0  0  0  0  0  0  0  0
    6.7254   -6.4722    0.0000 C   0  0  0  0  0  0  0  0  0  0  0  0
    5.9015   -6.5161    0.0000 C   0  0  0  0  0  0  0  0  0  0  0  0
    5.6052   -5.7462    0.0000 N   0  0  0  0  0  0  0  0  0  0  0  0
    6.2459   -5.2264    0.0000 C   0  0  0  0  0  0  0  0  0  0  0  0
    6.2020   -4.4026    0.0000 O   0  0  0  0  0  0  0  0  0  0  0  0
    8.6064   -4.2674    0.0000 N   0  0  0  0  0  0  0  0  0  0  0  0
    9.2480   -4.7860    0.0000 C   0  0  0  0  0  0  0  0  0  0  0  0
    9.1197   -5.6010    0.0000 O   0  0  0  0  0  0  0  0  0  0  0  0
   10.0179   -4.4897    0.0000 C   0  0  2  0  0  0  0  0  0  0  0  0
   10.1463   -3.6747    0.0000 C   0  0  0  0  0  0  0  0  0  0  0  0
    9.5046   -3.1561    0.0000 C   0  0  0  0  0  0  0  0  0  0  0  0
    8.7347   -3.4525    0.0000 C   0  0  0  0  0  0  0  0  0  0  0  0
    9.6330   -2.3412    0.0000 C   0  0  0  0  0  0  0  0  0  0  0  0
   10.6595   -5.0083    0.0000 N   0  0  0  0  0  0  0  0  0  0  0  0
   11.4295   -4.7120    0.0000 C   0  0  0  0  0  0  0  0  0  0  0  0
   11.5578   -3.8970    0.0000 O   0  0  0  0  0  0  0  0  0  0  0  0
   12.0711   -5.2306    0.0000 C   0  0  1  0  0  0  0  0  0  0  0  0
   12.8410   -4.9342    0.0000 N   0  0  0  0  0  0  0  0  0  0  0  0
   13.4826   -5.4528    0.0000 C   0  0  0  0  0  0  0  0  0  0  0  0
   13.3543   -6.2678    0.0000 O   0  0  0  0  0  0  0  0  0  0  0  0
   14.2526   -5.1565    0.0000 C   0  0  1  0  0  0  0  0  0  0  0  0
   14.8942   -5.6751    0.0000 N   0  0  0  0  0  0  0  0  0  0  0  0
   15.6641   -5.3787    0.0000 C   0  0  0  0  0  0  0  0  0  0  0  0
   15.7925   -4.5638    0.0000 O   0  0  0  0  0  0  0  0  0  0  0  0
   16.3057   -5.8973    0.0000 C   0  0  0  0  0  0  0  0  0  0  0  0
   17.1024   -5.6831    0.0000 C   0  0  0  0  0  0  0  0  0  0  0  0
   17.5524   -6.3746    0.0000 O   0  0  0  0  0  0  0  0  0  0  0  0
   17.0338   -7.0162    0.0000 C   0  0  0  0  0  0  0  0  0  0  0  0
   16.2633   -6.7213    0.0000 C   0  0  0  0  0  0  0  0  0  0  0  0
   14.3809   -4.3415    0.0000 C   0  0  0  0  0  0  0  0  0  0  0  0
   15.1508   -4.0452    0.0000 C   0  0  0  0  0  0  0  0  0  0  0  0
   13.7393   -3.8229    0.0000 C   0  0  0  0  0  0  0  0  0  0  0  0
   11.9428   -6.0455    0.0000 C   0  0  0  0  0  0  0  0  0  0  0  0
   12.5844   -6.5641    0.0000 C   0  0  0  0  0  0  0  0  0  0  0  0
   11.1728   -6.3419    0.0000 C   0  0  0  0  0  0  0  0  0  0  0  0
  1  2  1  0  0  0  0
  2  3  1  0  0  0  0
  3  4  1  0  0  0  0
  4  5  2  0  0  0  0
  4  6  1  0  0  0  0
  6  7  2  0  0  0  0
  7  8  1  0  0  0  0
  8  9  1  0  0  0  0
 10  9  1  6  0  0  0
 10 11  1  0  0  0  0
 11 12  1  0  0  0  0
 12 13  1  0  0  0  0
 13 14  1  0  0  0  0
 10 14  1  0  0  0  0
 14 15  2  0  0  0  0
  8 16  1  1  0  0  0
 16 17  1  0  0  0  0
 17 18  2  0  0  0  0
 17 19  1  0  0  0  0
 19 20  1  0  0  0  0
 20 21  1  0  0  0  0
 21 22  1  0  0  0  0
 21 23  1  0  0  0  0
 19 24  1  6  0  0  0
 24 25  1  0  0  0  0
 25 26  2  0  0  0  0
 25 27  1  0  0  0  0
 27 28  1  1  0  0  0
 28 29  1  0  0  0  0
 29 30  2  0  0  0  0
 29 31  1  0  0  0  0
 31 32  1  6  0  0  0
 32 33  1  0  0  0  0
 33 34  2  0  0  0  0
 33 35  1  0  0  0  0
 35 36  2  0  0  0  0
 36 37  1  0  0  0  0
 37 38  1  0  0  0  0
 38 39  2  0  0  0  0
 35 39  1  0  0  0  0
 31 40  1  0  0  0  0
 40 41  1  0  0  0  0
 40 42  1  0  0  0  0
 27 43  1  0  0  0  0
 43 44  1  0  0  0  0
 43 45  1  0  0  0  0
M  END
> <DATABASE_ID>
DB04613

> <DATABASE_NAME>
drugbank

> <SMILES>
CCOC(=O)\C=C\[C@H](C[C@@H]1CCNC1=O)NC(=O)[C@H](CC(C)C)NC(=O)[C@H](C(C)C)NC(=O)[C@H](C(C)C)NC(=O)C1=COC=C1

> <INCHI_IDENTIFIER>
InChI=1S/C32H49N5O8/c1-8-45-25(38)10-9-23(16-21-11-13-33-28(21)39)34-30(41)24(15-18(2)3)35-31(42)26(19(4)5)37-32(43)27(20(6)7)36-29(40)22-12-14-44-17-22/h9-10,12,14,17-21,23-24,26-27H,8,11,13,15-16H2,1-7H3,(H,33,39)(H,34,41)(H,35,42)(H,36,40)(H,37,43)/b10-9+/t21-,23+,24-,26-,27-/m0/s1

> <INCHI_KEY>
JQGYBVLTABWBOF-VTQXMFKGSA-N

> <FORMULA>
C32H49N5O8

> <MOLECULAR_WEIGHT>
631.7602

> <EXACT_MASS>
631.358113569

> <JCHEM_ACCEPTOR_COUNT>
6

> <JCHEM_ATOM_COUNT>
94

> <JCHEM_AVERAGE_NEUTRAL_MICROSPECIES_CHARGE>
-1.5317400561182428e-05

> <JCHEM_AVERAGE_POLARIZABILITY>
67.20959453996123

> <JCHEM_BIOAVAILABILITY>
0

> <JCHEM_DONOR_COUNT>
5

> <JCHEM_FORMAL_CHARGE>
0

> <JCHEM_GHOSE_FILTER>
0

> <JCHEM_IUPAC>
ethyl (2E,4S)-4-[(2S)-2-[(2S)-2-[(2S)-2-[(furan-3-yl)formamido]-3-methylbutanamido]-3-methylbutanamido]-4-methylpentanamido]-5-[(3S)-2-oxopyrrolidin-3-yl]pent-2-enoate

> <ALOGPS_LOGP>
2.33

> <JCHEM_LOGP>
2.050386013666667

> <ALOGPS_LOGS>
-4.10

> <JCHEM_MDDR_LIKE_RULE>
0

> <JCHEM_NEUTRAL_CHARGE>
0

> <JCHEM_NUMBER_OF_RINGS>
2

> <JCHEM_PHYSIOLOGICAL_CHARGE>
0

> <JCHEM_PKA>
12.885451658763802

> <JCHEM_PKA_STRONGEST_ACIDIC>
11.893592090522835

> <JCHEM_PKA_STRONGEST_BASIC>
-1.1928532080873702

> <JCHEM_POLAR_SURFACE_AREA>
184.94

> <JCHEM_REFRACTIVITY>
166.8705

> <JCHEM_ROTATABLE_BOND_COUNT>
18

> <JCHEM_RULE_OF_FIVE>
0

> <ALOGPS_SOLUBILITY>
4.96e-02 g/l

> <JCHEM_TRADITIONAL_IUPAC>
tetrahydrofolic acid

> <JCHEM_VEBER_RULE>
0

> <DRUGBANK_ID>
DB04613

> <DRUG_GROUPS>
experimental

> <GENERIC_NAME>
(E)-(4S,6S)-6-((S)-2-{(S)-2-[(FURAN-2-CARBONYL)-AMINO]-3-METHYL-BUTYRYLAMINO}-3-METHYL-BUTYRYLAMINO)-8-METHYL-5-OXO-4-((R)-2-OXO-PYRROLIDIN-3-YLMETHYL)-NON-2-ENOIC ACID ETHYL ESTER

$$$$
