
  Mrv0541 02231219032D          

 17 16  0  0  1  0            999 V2000
   11.2220   -9.2159    0.0000 P   0  0  0  0  0  0  0  0  0  0  0  0
   10.5075   -9.6285    0.0000 O   0  0  0  0  0  0  0  0  0  0  0  0
   11.6345   -9.9304    0.0000 O   0  0  0  0  0  0  0  0  0  0  0  0
   11.9365   -8.8034    0.0000 O   0  0  0  0  0  0  0  0  0  0  0  0
    8.3640   -8.3909    0.0000 O   0  0  0  0  0  0  0  0  0  0  0  0
    7.6496  -10.4535    0.0000 O   0  0  0  0  0  0  0  0  0  0  0  0
    9.0786  -10.4535    0.0000 O   0  0  0  0  0  0  0  0  0  0  0  0
    6.9351   -8.3909    0.0000 O   0  0  0  0  0  0  0  0  0  0  0  0
    5.5061   -9.2159    0.0000 O   0  0  0  0  0  0  0  0  0  0  0  0
   10.8095   -8.5015    0.0000 O   0  0  0  0  0  0  0  0  0  0  0  0
    6.2206  -10.4535    0.0000 O   0  0  0  0  0  0  0  0  0  0  0  0
    8.3640   -9.2159    0.0000 C   0  0  1  0  0  0  0  0  0  0  0  0
    7.6496   -9.6285    0.0000 C   0  0  1  0  0  0  0  0  0  0  0  0
    9.0786   -9.6285    0.0000 C   0  0  1  0  0  0  0  0  0  0  0  0
    6.9351   -9.2159    0.0000 C   0  0  2  0  0  0  0  0  0  0  0  0
    9.7930   -9.2159    0.0000 C   0  0  0  0  0  0  0  0  0  0  0  0
    6.2206   -9.6285    0.0000 C   0  0  0  0  0  0  0  0  0  0  0  0
  1  2  1  0  0  0  0
  1  3  1  0  0  0  0
  1  4  1  0  0  0  0
  1 10  2  0  0  0  0
  2 16  1  0  0  0  0
 12  5  1  6  0  0  0
 13  6  1  6  0  0  0
 14  7  1  1  0  0  0
 15  8  1  6  0  0  0
  9 17  1  0  0  0  0
 11 17  2  0  0  0  0
 12 13  1  0  0  0  0
 12 14  1  0  0  0  0
 13 15  1  0  0  0  0
 14 16  1  0  0  0  0
 15 17  1  0  0  0  0
M  END
> <DATABASE_ID>
DB02076

> <DATABASE_NAME>
drugbank

> <SMILES>
O[C@H](COP(O)(O)=O)[C@@H](O)[C@H](O)[C@@H](O)C(O)=O

> <INCHI_IDENTIFIER>
InChI=1S/C6H13O10P/c7-2(1-16-17(13,14)15)3(8)4(9)5(10)6(11)12/h2-5,7-10H,1H2,(H,11,12)(H2,13,14,15)/t2-,3-,4+,5-/m1/s1

> <INCHI_KEY>
BIRSGZKFKXLSJQ-SQOUGZDYSA-N

> <FORMULA>
C6H13O10P

> <MOLECULAR_WEIGHT>
276.1352

> <EXACT_MASS>
276.024633148

> <JCHEM_ACCEPTOR_COUNT>
9

> <JCHEM_ATOM_COUNT>
30

> <JCHEM_AVERAGE_NEUTRAL_MICROSPECIES_CHARGE>
-2.8582930934315107

> <JCHEM_AVERAGE_POLARIZABILITY>
21.604298093643212

> <JCHEM_BIOAVAILABILITY>
1

> <JCHEM_DONOR_COUNT>
7

> <JCHEM_FORMAL_CHARGE>
0

> <JCHEM_GHOSE_FILTER>
0

> <JCHEM_IUPAC>
(2R,3S,4R,5R)-2,3,4,5-tetrahydroxy-6-(phosphonooxy)hexanoic acid

> <ALOGPS_LOGP>
-2.27

> <JCHEM_LOGP>
-3.533310342

> <ALOGPS_LOGS>
-1.12

> <JCHEM_MDDR_LIKE_RULE>
0

> <JCHEM_NEUTRAL_CHARGE>
-3

> <JCHEM_NUMBER_OF_RINGS>
0

> <JCHEM_PHYSIOLOGICAL_CHARGE>
-3

> <JCHEM_PKA>
3.4439499496677928

> <JCHEM_PKA_STRONGEST_ACIDIC>
1.4859275426968526

> <JCHEM_PKA_STRONGEST_BASIC>
-3.539574960052646

> <JCHEM_POLAR_SURFACE_AREA>
184.98

> <JCHEM_REFRACTIVITY>
49.14390000000001

> <JCHEM_ROTATABLE_BOND_COUNT>
7

> <JCHEM_RULE_OF_FIVE>
0

> <ALOGPS_SOLUBILITY>
2.07e+01 g/l

> <JCHEM_TRADITIONAL_IUPAC>
biotin

> <JCHEM_VEBER_RULE>
0

> <DRUGBANK_ID>
DB02076

> <SECONDARY_ACCESSION_NUMBERS>
EXPT00290

> <DRUG_GROUPS>
experimental

> <GENERIC_NAME>
6-phospho-D-gluconic acid

$$$$
