
  Mrv0541 05041402582D          

105105  0  0  0  0            999 V2000
  101.4549  -53.6250    0.0000 C   0  0  0  0  0  0  0  0  0  0  0  0
  101.1529  -52.4980    0.0000 C   0  0  0  0  0  0  0  0  0  0  0  0
  100.3279  -53.9270    0.0000 C   0  0  0  0  0  0  0  0  0  0  0  0
   98.8990  -52.4980    0.0000 C   0  0  0  0  0  0  0  0  0  0  0  0
   99.7240  -53.9270    0.0000 C   0  0  0  0  0  0  0  0  0  0  0  0
   97.8825  -53.2125    0.0000 C   0  0  0  0  0  0  0  0  0  0  0  0
   98.5970  -54.4500    0.0000 C   0  0  0  0  0  0  0  0  0  0  0  0
   97.1681  -53.6250    0.0000 C   0  0  0  0  0  0  0  0  0  0  0  0
   97.8825  -54.8625    0.0000 C   0  0  0  0  0  0  0  0  0  0  0  0
   32.8657  -54.4500    0.0000 C   0  0  0  0  0  0  0  0  0  0  0  0
   33.5801  -54.8625    0.0000 C   0  0  0  0  0  0  0  0  0  0  0  0
   35.0091  -54.8625    0.0000 C   0  0  0  0  0  0  0  0  0  0  0  0
   35.7235  -54.4500    0.0000 C   0  0  0  0  0  0  0  0  0  0  0  0
   37.1525  -54.4500    0.0000 C   0  0  0  0  0  0  0  0  0  0  0  0
   37.8670  -54.8625    0.0000 C   0  0  0  0  0  0  0  0  0  0  0  0
   39.2959  -54.8625    0.0000 C   0  0  0  0  0  0  0  0  0  0  0  0
   40.0104  -54.4500    0.0000 C   0  0  0  0  0  0  0  0  0  0  0  0
   41.4393  -54.4500    0.0000 C   0  0  0  0  0  0  0  0  0  0  0  0
   42.1538  -54.8625    0.0000 C   0  0  0  0  0  0  0  0  0  0  0  0
   43.5827  -54.8625    0.0000 C   0  0  0  0  0  0  0  0  0  0  0  0
   44.2972  -54.4500    0.0000 C   0  0  0  0  0  0  0  0  0  0  0  0
   45.7261  -54.4500    0.0000 C   0  0  0  0  0  0  0  0  0  0  0  0
   46.4406  -54.8625    0.0000 C   0  0  0  0  0  0  0  0  0  0  0  0
   47.8696  -54.8625    0.0000 C   0  0  0  0  0  0  0  0  0  0  0  0
   48.5840  -54.4500    0.0000 C   0  0  0  0  0  0  0  0  0  0  0  0
   50.0130  -54.4500    0.0000 C   0  0  0  0  0  0  0  0  0  0  0  0
   50.7274  -54.8625    0.0000 C   0  0  0  0  0  0  0  0  0  0  0  0
   52.1564  -54.8625    0.0000 C   0  0  0  0  0  0  0  0  0  0  0  0
   52.8709  -54.4500    0.0000 C   0  0  0  0  0  0  0  0  0  0  0  0
   54.2998  -54.4500    0.0000 C   0  0  0  0  0  0  0  0  0  0  0  0
   55.0143  -54.8625    0.0000 C   0  0  0  0  0  0  0  0  0  0  0  0
   56.4432  -54.8625    0.0000 C   0  0  0  0  0  0  0  0  0  0  0  0
   57.1577  -54.4500    0.0000 C   0  0  0  0  0  0  0  0  0  0  0  0
   58.5866  -54.4500    0.0000 C   0  0  0  0  0  0  0  0  0  0  0  0
   59.3011  -54.8625    0.0000 C   0  0  0  0  0  0  0  0  0  0  0  0
   60.7300  -54.8625    0.0000 C   0  0  0  0  0  0  0  0  0  0  0  0
   61.4445  -54.4500    0.0000 C   0  0  0  0  0  0  0  0  0  0  0  0
   62.8734  -54.4500    0.0000 C   0  0  0  0  0  0  0  0  0  0  0  0
   63.5879  -54.8625    0.0000 C   0  0  0  0  0  0  0  0  0  0  0  0
   65.0169  -54.8625    0.0000 C   0  0  0  0  0  0  0  0  0  0  0  0
   65.7313  -54.4500    0.0000 C   0  0  0  0  0  0  0  0  0  0  0  0
   67.1603  -54.4500    0.0000 C   0  0  0  0  0  0  0  0  0  0  0  0
   67.8747  -54.8625    0.0000 C   0  0  0  0  0  0  0  0  0  0  0  0
   69.3037  -54.8625    0.0000 C   0  0  0  0  0  0  0  0  0  0  0  0
   70.0182  -54.4500    0.0000 C   0  0  0  0  0  0  0  0  0  0  0  0
   71.4471  -54.4500    0.0000 C   0  0  0  0  0  0  0  0  0  0  0  0
   72.1616  -54.8625    0.0000 C   0  0  0  0  0  0  0  0  0  0  0  0
   73.5905  -54.8625    0.0000 C   0  0  0  0  0  0  0  0  0  0  0  0
   74.3050  -54.4500    0.0000 C   0  0  0  0  0  0  0  0  0  0  0  0
   75.7339  -54.4500    0.0000 C   0  0  0  0  0  0  0  0  0  0  0  0
   76.4484  -54.8625    0.0000 C   0  0  0  0  0  0  0  0  0  0  0  0
   77.8773  -54.8625    0.0000 C   0  0  0  0  0  0  0  0  0  0  0  0
   78.5918  -54.4500    0.0000 C   0  0  0  0  0  0  0  0  0  0  0  0
   80.0207  -54.4500    0.0000 C   0  0  0  0  0  0  0  0  0  0  0  0
   80.7352  -54.8625    0.0000 C   0  0  0  0  0  0  0  0  0  0  0  0
   82.1642  -54.8625    0.0000 C   0  0  0  0  0  0  0  0  0  0  0  0
   82.8786  -54.4500    0.0000 C   0  0  0  0  0  0  0  0  0  0  0  0
   84.3076  -54.4500    0.0000 C   0  0  0  0  0  0  0  0  0  0  0  0
   85.0220  -54.8625    0.0000 C   0  0  0  0  0  0  0  0  0  0  0  0
   86.4510  -54.8625    0.0000 C   0  0  0  0  0  0  0  0  0  0  0  0
   87.1655  -54.4500    0.0000 C   0  0  0  0  0  0  0  0  0  0  0  0
   88.5944  -54.4500    0.0000 C   0  0  0  0  0  0  0  0  0  0  0  0
   89.3089  -54.8625    0.0000 C   0  0  0  0  0  0  0  0  0  0  0  0
   90.7378  -54.8625    0.0000 C   0  0  0  0  0  0  0  0  0  0  0  0
   91.4523  -54.4500    0.0000 C   0  0  0  0  0  0  0  0  0  0  0  0
   92.8812  -54.4500    0.0000 C   0  0  0  0  0  0  0  0  0  0  0  0
   93.5957  -54.8625    0.0000 C   0  0  0  0  0  0  0  0  0  0  0  0
   95.0246  -54.8625    0.0000 C   0  0  0  0  0  0  0  0  0  0  0  0
   95.7391  -54.4500    0.0000 C   0  0  0  0  0  0  0  0  0  0  0  0
  100.0259  -52.8000    0.0000 C   0  0  0  0  0  0  0  0  0  0  0  0
   98.5970  -53.6250    0.0000 C   0  0  0  0  0  0  0  0  0  0  0  0
   97.1681  -54.4500    0.0000 C   0  0  0  0  0  0  0  0  0  0  0  0
  100.7404  -53.2125    0.0000 C   0  0  0  0  0  0  0  0  0  0  0  0
   99.3115  -53.2125    0.0000 C   0  0  0  0  0  0  0  0  0  0  0  0
   32.1512  -54.8625    0.0000 O   0  0  0  0  0  0  0  0  0  0  0  0
   34.2946  -54.4500    0.0000 O   0  0  0  0  0  0  0  0  0  0  0  0
   36.4380  -54.8625    0.0000 O   0  0  0  0  0  0  0  0  0  0  0  0
   38.5814  -54.4500    0.0000 O   0  0  0  0  0  0  0  0  0  0  0  0
   40.7248  -54.8625    0.0000 O   0  0  0  0  0  0  0  0  0  0  0  0
   42.8683  -54.4500    0.0000 O   0  0  0  0  0  0  0  0  0  0  0  0
   45.0117  -54.8625    0.0000 O   0  0  0  0  0  0  0  0  0  0  0  0
   47.1551  -54.4500    0.0000 O   0  0  0  0  0  0  0  0  0  0  0  0
   49.2985  -54.8625    0.0000 O   0  0  0  0  0  0  0  0  0  0  0  0
   51.4419  -54.4500    0.0000 O   0  0  0  0  0  0  0  0  0  0  0  0
   53.5853  -54.8625    0.0000 O   0  0  0  0  0  0  0  0  0  0  0  0
   55.7287  -54.4500    0.0000 O   0  0  0  0  0  0  0  0  0  0  0  0
   57.8721  -54.8625    0.0000 O   0  0  0  0  0  0  0  0  0  0  0  0
   60.0156  -54.4500    0.0000 O   0  0  0  0  0  0  0  0  0  0  0  0
   62.1590  -54.8625    0.0000 O   0  0  0  0  0  0  0  0  0  0  0  0
   64.3024  -54.4500    0.0000 O   0  0  0  0  0  0  0  0  0  0  0  0
   66.4458  -54.8625    0.0000 O   0  0  0  0  0  0  0  0  0  0  0  0
   68.5892  -54.4500    0.0000 O   0  0  0  0  0  0  0  0  0  0  0  0
   70.7326  -54.8625    0.0000 O   0  0  0  0  0  0  0  0  0  0  0  0
   72.8760  -54.4500    0.0000 O   0  0  0  0  0  0  0  0  0  0  0  0
   75.0195  -54.8625    0.0000 O   0  0  0  0  0  0  0  0  0  0  0  0
   77.1629  -54.4500    0.0000 O   0  0  0  0  0  0  0  0  0  0  0  0
   79.3063  -54.8625    0.0000 O   0  0  0  0  0  0  0  0  0  0  0  0
   81.4497  -54.4500    0.0000 O   0  0  0  0  0  0  0  0  0  0  0  0
   83.5931  -54.8625    0.0000 O   0  0  0  0  0  0  0  0  0  0  0  0
   85.7365  -54.4500    0.0000 O   0  0  0  0  0  0  0  0  0  0  0  0
   87.8799  -54.8625    0.0000 O   0  0  0  0  0  0  0  0  0  0  0  0
   90.0233  -54.4500    0.0000 O   0  0  0  0  0  0  0  0  0  0  0  0
   92.1668  -54.8625    0.0000 O   0  0  0  0  0  0  0  0  0  0  0  0
   94.3102  -54.4500    0.0000 O   0  0  0  0  0  0  0  0  0  0  0  0
   96.4536  -54.8625    0.0000 O   0  0  0  0  0  0  0  0  0  0  0  0
  8  6  1  0  0  0  0
  9  7  2  0  0  0  0
 11 10  1  0  0  0  0
 13 12  1  0  0  0  0
 15 14  1  0  0  0  0
 17 16  1  0  0  0  0
 19 18  1  0  0  0  0
 21 20  1  0  0  0  0
 23 22  1  0  0  0  0
 25 24  1  0  0  0  0
 27 26  1  0  0  0  0
 29 28  1  0  0  0  0
 31 30  1  0  0  0  0
 33 32  1  0  0  0  0
 35 34  1  0  0  0  0
 37 36  1  0  0  0  0
 39 38  1  0  0  0  0
 41 40  1  0  0  0  0
 43 42  1  0  0  0  0
 45 44  1  0  0  0  0
 47 46  1  0  0  0  0
 49 48  1  0  0  0  0
 51 50  1  0  0  0  0
 53 52  1  0  0  0  0
 55 54  1  0  0  0  0
 57 56  1  0  0  0  0
 59 58  1  0  0  0  0
 61 60  1  0  0  0  0
 63 62  1  0  0  0  0
 65 64  1  0  0  0  0
 67 66  1  0  0  0  0
 69 68  1  0  0  0  0
 71  6  2  0  0  0  0
 71  7  1  0  0  0  0
 72  8  2  0  0  0  0
 72  9  1  0  0  0  0
 73  1  1  0  0  0  0
 73  2  1  0  0  0  0
 73  3  1  0  0  0  0
 73 70  1  0  0  0  0
 74  4  1  0  0  0  0
 74  5  1  0  0  0  0
 74 70  1  0  0  0  0
 74 71  1  0  0  0  0
 75 10  1  0  0  0  0
 76 11  1  0  0  0  0
 76 12  1  0  0  0  0
 77 13  1  0  0  0  0
 77 14  1  0  0  0  0
 78 15  1  0  0  0  0
 78 16  1  0  0  0  0
 79 17  1  0  0  0  0
 79 18  1  0  0  0  0
 80 19  1  0  0  0  0
 80 20  1  0  0  0  0
 81 21  1  0  0  0  0
 81 22  1  0  0  0  0
 82 23  1  0  0  0  0
 82 24  1  0  0  0  0
 83 25  1  0  0  0  0
 83 26  1  0  0  0  0
 84 27  1  0  0  0  0
 84 28  1  0  0  0  0
 85 29  1  0  0  0  0
 85 30  1  0  0  0  0
 86 31  1  0  0  0  0
 86 32  1  0  0  0  0
 87 33  1  0  0  0  0
 87 34  1  0  0  0  0
 88 35  1  0  0  0  0
 88 36  1  0  0  0  0
 89 37  1  0  0  0  0
 89 38  1  0  0  0  0
 90 39  1  0  0  0  0
 90 40  1  0  0  0  0
 91 41  1  0  0  0  0
 91 42  1  0  0  0  0
 92 43  1  0  0  0  0
 92 44  1  0  0  0  0
 93 45  1  0  0  0  0
 93 46  1  0  0  0  0
 94 47  1  0  0  0  0
 94 48  1  0  0  0  0
 95 49  1  0  0  0  0
 95 50  1  0  0  0  0
 96 51  1  0  0  0  0
 96 52  1  0  0  0  0
 97 53  1  0  0  0  0
 97 54  1  0  0  0  0
 98 55  1  0  0  0  0
 98 56  1  0  0  0  0
 99 57  1  0  0  0  0
 99 58  1  0  0  0  0
100 59  1  0  0  0  0
100 60  1  0  0  0  0
101 61  1  0  0  0  0
101 62  1  0  0  0  0
102 63  1  0  0  0  0
102 64  1  0  0  0  0
103 65  1  0  0  0  0
103 66  1  0  0  0  0
104 67  1  0  0  0  0
104 68  1  0  0  0  0
105 69  1  0  0  0  0
105 72  1  0  0  0  0
M  END
> <DATABASE_ID>
DB04682

> <DATABASE_NAME>
drugbank

> <SMILES>
CC(C)(C)CC(C)(C)C1=CC=C(OCCOCCOCCOCCOCCOCCOCCOCCOCCOCCOCCOCCOCCOCCOCCOCCOCCOCCOCCOCCOCCOCCOCCOCCOCCOCCOCCOCCOCCOCCO)C=C1

> <INCHI_IDENTIFIER>
InChI=1S/C74H142O31/c1-73(2,3)70-74(4,5)71-6-8-72(9-7-71)105-69-68-104-67-66-103-65-64-102-63-62-101-61-60-100-59-58-99-57-56-98-55-54-97-53-52-96-51-50-95-49-48-94-47-46-93-45-44-92-43-42-91-41-40-90-39-38-89-37-36-88-35-34-87-33-32-86-31-30-85-29-28-84-27-26-83-25-24-82-23-22-81-21-20-80-19-18-79-17-16-78-15-14-77-13-12-76-11-10-75/h6-9,75H,10-70H2,1-5H3

> <INCHI_KEY>
WEGJDERSZWOWIB-UHFFFAOYSA-N

> <FORMULA>
C74H142O31

> <MOLECULAR_WEIGHT>
1527.9007

> <EXACT_MASS>
1526.953507826

> <JCHEM_ACCEPTOR_COUNT>
31

> <JCHEM_ATOM_COUNT>
247

> <JCHEM_AVERAGE_NEUTRAL_MICROSPECIES_CHARGE>
-7.309744321415875e-09

> <JCHEM_AVERAGE_POLARIZABILITY>
187.6588935654209

> <JCHEM_BIOAVAILABILITY>
0

> <JCHEM_DONOR_COUNT>
1

> <JCHEM_FORMAL_CHARGE>
0

> <JCHEM_GHOSE_FILTER>
0

> <JCHEM_IUPAC>
89-[4-(2,4,4-trimethylpentan-2-yl)phenoxy]-3,6,9,12,15,18,21,24,27,30,33,36,39,42,45,48,51,54,57,60,63,66,69,72,75,78,81,84,87-nonacosaoxanonaoctacontan-1-ol

> <ALOGPS_LOGP>
1.31

> <JCHEM_LOGP>
2.784442613666662

> <ALOGPS_LOGS>
-6.44

> <JCHEM_MDDR_LIKE_RULE>
0

> <JCHEM_NEUTRAL_CHARGE>
0

> <JCHEM_NUMBER_OF_RINGS>
1

> <JCHEM_PHYSIOLOGICAL_CHARGE>
0

> <JCHEM_PKA_STRONGEST_ACIDIC>
15.121155523152114

> <JCHEM_PKA_STRONGEST_BASIC>
-2.7458065741732653

> <JCHEM_POLAR_SURFACE_AREA>
297.13

> <JCHEM_REFRACTIVITY>
395.9665999999998

> <JCHEM_ROTATABLE_BOND_COUNT>
93

> <JCHEM_RULE_OF_FIVE>
0

> <ALOGPS_SOLUBILITY>
5.53e-04 g/l

> <JCHEM_TRADITIONAL_IUPAC>
tetrahydrofolic acid

> <JCHEM_VEBER_RULE>
0

> <DRUGBANK_ID>
DB04682

> <DRUG_GROUPS>
experimental

> <GENERIC_NAME>
Octylphenoxy polyethoxyethanol

$$$$
