
  Mrv0541 05041411062D          

 64 72  0  0  0  0            999 V2000
   -0.7012   -3.2881    0.0000 C   0  0  0  0  0  0  0  0  0  0  0  0
    0.7277   -3.2857    0.0000 C   0  0  0  0  0  0  0  0  0  0  0  0
   -3.3109    0.6359    0.0000 C   0  0  0  0  0  0  0  0  0  0  0  0
   -3.2749   -0.7926    0.0000 C   0  0  0  0  0  0  0  0  0  0  0  0
    3.2913   -0.6769    0.0000 C   0  0  0  0  0  0  0  0  0  0  0  0
    3.2688    0.7518    0.0000 C   0  0  0  0  0  0  0  0  0  0  0  0
    0.7188    3.2873    0.0000 C   0  0  0  0  0  0  0  0  0  0  0  0
   -0.7101    3.2869    0.0000 C   0  0  0  0  0  0  0  0  0  0  0  0
   -0.6999   -4.1131    0.0000 C   0  0  0  0  0  0  0  0  0  0  0  0
    0.7291   -4.1107    0.0000 C   0  0  0  0  0  0  0  0  0  0  0  0
   -4.1356    0.6152    0.0000 C   0  0  0  0  0  0  0  0  0  0  0  0
   -4.0997   -0.8133    0.0000 C   0  0  0  0  0  0  0  0  0  0  0  0
    4.1162   -0.6639    0.0000 C   0  0  0  0  0  0  0  0  0  0  0  0
    4.0937    0.7648    0.0000 C   0  0  0  0  0  0  0  0  0  0  0  0
    0.7186    4.1123    0.0000 C   0  0  0  0  0  0  0  0  0  0  0  0
   -0.7103    4.1119    0.0000 C   0  0  0  0  0  0  0  0  0  0  0  0
   -1.4819   -2.0624    0.0000 C   0  0  0  0  0  0  0  0  0  0  0  0
    1.5044   -2.0364    0.0000 C   0  0  0  0  0  0  0  0  0  0  0  0
   -2.0430   -1.5110    0.0000 C   0  0  0  0  0  0  0  0  0  0  0  0
    2.0558   -1.4752    0.0000 C   0  0  0  0  0  0  0  0  0  0  0  0
   -2.0393    1.4169    0.0000 C   0  0  0  0  0  0  0  0  0  0  0  0
    2.0297    1.5110    0.0000 C   0  0  0  0  0  0  0  0  0  0  0  0
   -1.4588    2.0076    0.0000 C   0  0  0  0  0  0  0  0  0  0  0  0
    1.4686    2.0624    0.0000 C   0  0  0  0  0  0  0  0  0  0  0  0
    0.0126   -2.8744    0.0000 C   0  0  0  0  0  0  0  0  0  0  0  0
   -2.8805   -0.0680    0.0000 C   0  0  0  0  0  0  0  0  0  0  0  0
    2.8676    0.0309    0.0000 C   0  0  0  0  0  0  0  0  0  0  0  0
    0.0045    2.8746    0.0000 C   0  0  0  0  0  0  0  0  0  0  0  0
    0.0153   -4.5244    0.0000 C   0  0  0  0  0  0  0  0  0  0  0  0
   -4.5300   -0.1095    0.0000 C   0  0  0  0  0  0  0  0  0  0  0  0
    4.5174    0.0570    0.0000 C   0  0  0  0  0  0  0  0  0  0  0  0
    0.0040    4.5246    0.0000 C   0  0  0  0  0  0  0  0  0  0  0  0
   -0.7243   -1.6459    0.0000 C   0  0  0  0  0  0  0  0  0  0  0  0
    0.7106   -1.6627    0.0000 C   0  0  0  0  0  0  0  0  0  0  0  0
   -1.6690   -0.7465    0.0000 C   0  0  0  0  0  0  0  0  0  0  0  0
    1.6683   -0.6881    0.0000 C   0  0  0  0  0  0  0  0  0  0  0  0
   -1.6818    0.7174    0.0000 C   0  0  0  0  0  0  0  0  0  0  0  0
    1.6265    0.7462    0.0000 C   0  0  0  0  0  0  0  0  0  0  0  0
   -0.7239    1.6627    0.0000 C   0  0  0  0  0  0  0  0  0  0  0  0
    0.7107    1.6752    0.0000 C   0  0  0  0  0  0  0  0  0  0  0  0
    0.0112   -2.0494    0.0000 C   0  0  0  0  0  0  0  0  0  0  0  0
   -2.0558   -0.0472    0.0000 C   0  0  0  0  0  0  0  0  0  0  0  0
    2.0427    0.0179    0.0000 C   0  0  0  0  0  0  0  0  0  0  0  0
    0.0047    2.0496    0.0000 C   0  0  0  0  0  0  0  0  0  0  0  0
   -0.8480   -0.8857    0.0000 N   0  0  0  0  0  0  0  0  0  0  0  0
    0.8501   -0.8709    0.0000 N   0  0  0  0  0  0  0  0  0  0  0  0
   -0.8926    0.8706    0.0000 N   0  0  0  0  0  0  0  0  0  0  0  0
    0.8643    0.8567    0.0000 N   0  0  0  0  0  0  0  0  0  0  0  0
    0.0180   -6.1744    0.0000 O   0  5  0  0  0  0  0  0  0  0  0  0
    0.8416   -5.3480    0.0000 O   0  5  0  0  0  0  0  0  0  0  0  0
   -0.8084   -5.3508    0.0000 O   0  5  0  0  0  0  0  0  0  0  0  0
   -6.1795   -0.1510    0.0000 O   0  5  0  0  0  0  0  0  0  0  0  0
   -5.3340   -0.9549    0.0000 O   0  0  0  0  0  0  0  0  0  0  0  0
   -5.3755    0.6945    0.0000 O   0  0  0  0  0  0  0  0  0  0  0  0
    6.1672    0.0830    0.0000 O   0  0  0  0  0  0  0  0  0  0  0  0
    5.3293    0.8949    0.0000 O   0  0  0  0  0  0  0  0  0  0  0  0
    5.3553   -0.7549    0.0000 O   0  0  0  0  0  0  0  0  0  0  0  0
    0.0036    6.1746    0.0000 O   0  0  0  0  0  0  0  0  0  0  0  0
    0.8288    5.3498    0.0000 O   0  0  0  0  0  0  0  0  0  0  0  0
   -0.8212    5.3494    0.0000 O   0  0  0  0  0  0  0  0  0  0  0  0
    0.0166   -5.3494    0.0000 S   0  0  0  0  0  0  0  0  0  0  0  0
   -5.3548   -0.1302    0.0000 S   0  0  0  0  0  0  0  0  0  0  0  0
    5.3423    0.0700    0.0000 S   0  0  0  0  0  0  0  0  0  0  0  0
    0.0038    5.3496    0.0000 S   0  0  0  0  0  0  0  0  0  0  0  0
  9  1  1  0  0  0  0
 10  2  2  0  0  0  0
 11  3  1  0  0  0  0
 12  4  2  0  0  0  0
 13  5  1  0  0  0  0
 14  6  2  0  0  0  0
 15  7  1  0  0  0  0
 16  8  2  0  0  0  0
 19 17  2  0  0  0  0
 20 18  2  0  0  0  0
 23 21  2  0  0  0  0
 24 22  1  0  0  0  0
 25  1  2  0  0  0  0
 25  2  1  0  0  0  0
 26  3  2  0  0  0  0
 26  4  1  0  0  0  0
 27  5  2  0  0  0  0
 27  6  1  0  0  0  0
 28  7  2  0  0  0  0
 28  8  1  0  0  0  0
 29  9  2  0  0  0  0
 29 10  1  0  0  0  0
 30 11  2  0  0  0  0
 30 12  1  0  0  0  0
 31 13  2  0  0  0  0
 31 14  1  0  0  0  0
 32 15  2  0  0  0  0
 32 16  1  0  0  0  0
 33 17  1  0  0  0  0
 34 18  1  0  0  0  0
 35 19  1  0  0  0  0
 36 20  1  0  0  0  0
 37 21  1  0  0  0  0
 38 22  2  0  0  0  0
 39 23  1  0  0  0  0
 40 24  2  0  0  0  0
 41 25  1  0  0  0  0
 41 33  2  0  0  0  0
 41 34  1  0  0  0  0
 42 26  1  0  0  0  0
 42 35  2  0  0  0  0
 42 37  1  0  0  0  0
 43 27  1  0  0  0  0
 43 36  2  0  0  0  0
 43 38  1  0  0  0  0
 44 28  1  0  0  0  0
 44 39  2  0  0  0  0
 44 40  1  0  0  0  0
 45 33  1  0  0  0  0
 45 35  1  0  0  0  0
 46 34  2  0  0  0  0
 46 36  1  0  0  0  0
 47 37  2  0  0  0  0
 47 39  1  0  0  0  0
 48 38  1  0  0  0  0
 48 40  1  0  0  0  0
 61 29  1  0  0  0  0
 61 49  1  0  0  0  0
 61 50  1  0  0  0  0
 61 51  1  0  0  0  0
 62 30  1  0  0  0  0
 62 52  1  0  0  0  0
 62 53  1  0  0  0  0
 62 54  1  0  0  0  0
 63 31  1  0  0  0  0
 63 55  1  0  0  0  0
 63 56  1  0  0  0  0
 63 57  1  0  0  0  0
 64 32  1  0  0  0  0
 64 58  1  0  0  0  0
 64 59  1  0  0  0  0
 64 60  1  0  0  0  0
M  CHG  4  49  -1  50  -1  51  -1  52  -1
M  END
> <DATABASE_ID>
DB01999

> <DATABASE_NAME>
drugbank

> <SMILES>
OS(O)(O)C1=CC=C(C=C1)C-1=C2\C=CC(=N2)\C(=C2/N\C(\C=C2)=C(/C2=N/C(/C=C2)=C(\C2=CC=C\-1N2)C1=CC=C(C=C1)S(O)(O)O)C1=CC=C(C=C1)S([O-])([O-])[O-])\C1=CC=C(C=C1)S(O)(O)[O-]

> <INCHI_IDENTIFIER>
InChI=1S/C44H38N4O12S4/c49-61(50,51)29-9-1-25(2-10-29)41-33-17-19-35(45-33)42(26-3-11-30(12-4-26)62(52,53)54)37-21-23-39(47-37)44(28-7-15-32(16-8-28)64(58,59)60)40-24-22-38(48-40)43(36-20-18-34(41)46-36)27-5-13-31(14-6-27)63(55,56)57/h1-24,45,48-60H/p-4/b41-33-,41-34-,42-35-,42-37-,43-36-,43-38-,44-39-,44-40-

> <INCHI_KEY>
OVPFWIRROXFHGQ-LWQDQPMZSA-J

> <FORMULA>
C44H34N4O12S4

> <MOLECULAR_WEIGHT>
939.02

> <EXACT_MASS>
938.105605332

> <JCHEM_ACCEPTOR_COUNT>
14

> <JCHEM_ATOM_COUNT>
98

> <JCHEM_AVERAGE_NEUTRAL_MICROSPECIES_CHARGE>
0.013451899681913838

> <JCHEM_AVERAGE_POLARIZABILITY>
99.33896430279158

> <JCHEM_BIOAVAILABILITY>
0

> <JCHEM_DONOR_COUNT>
10

> <JCHEM_FORMAL_CHARGE>
-4

> <JCHEM_GHOSE_FILTER>
0

> <JCHEM_IUPAC>
[4-(17-{4-[dihydroxy(oxido)-lambda4-sulfanyl]phenyl}-7,12-bis[4-(trihydroxy-lambda4-sulfanyl)phenyl]-21,22,23,24-tetraazapentacyclo[16.2.1.1^{3,6}.1^{8,11}.1^{13,16}]tetracosa-1,3(24),4,6,8,10,12,14,16(22),17,19-undecaen-2-yl)phenyl]-lambda4-sulfanetris(olate)

> <JCHEM_LOGP>
7.264724800666666

> <JCHEM_MDDR_LIKE_RULE>
1

> <JCHEM_NEUTRAL_CHARGE>
0

> <JCHEM_NUMBER_OF_RINGS>
9

> <JCHEM_PHYSIOLOGICAL_CHARGE>
0

> <JCHEM_PKA>
14.62133729224479

> <JCHEM_PKA_STRONGEST_ACIDIC>
14.041600205032449

> <JCHEM_PKA_STRONGEST_BASIC>
5.122808183415421

> <JCHEM_POLAR_SURFACE_AREA>
311.44

> <JCHEM_REFRACTIVITY>
239.97820000000016

> <JCHEM_ROTATABLE_BOND_COUNT>
8

> <JCHEM_RULE_OF_FIVE>
0

> <JCHEM_TRADITIONAL_IUPAC>
tetrahydrofolic acid

> <JCHEM_VEBER_RULE>
0

> <DRUGBANK_ID>
DB01999

> <SECONDARY_ACCESSION_NUMBERS>
EXPT02891

> <DRUG_GROUPS>
experimental

> <GENERIC_NAME>
5,10,15,20-Tetrakis(4-Sulpfonatophenyl)-21h,23h-Porphine

$$$$
