
  Mrv0541 02241204372D          

  3  2  0  0  0  0            999 V2000
    1.6500    0.0000    0.0000 S   0  0  0  0  0  0  0  0  0  0  0  0
    2.4750    0.0000    0.0000 Se  0  0  0  0  0  0  0  0  0  0  0  0
    3.3000    0.0000    0.0000 S   0  0  0  0  0  0  0  0  0  0  0  0
  1  2  2  0  0  0  0
  2  3  2  0  0  0  0
M  END
> <DATABASE_ID>
DB00971

> <DATABASE_NAME>
drugbank

> <SMILES>
S=[Se]=S

> <INCHI_IDENTIFIER>
InChI=1S/S2Se/c1-3-2

> <INCHI_KEY>
JNMWHTHYDQTDQZ-UHFFFAOYSA-N

> <FORMULA>
S2Se

> <MOLECULAR_WEIGHT>
143.09

> <EXACT_MASS>
143.860663208

> <JCHEM_ACCEPTOR_COUNT>
1

> <JCHEM_ATOM_COUNT>
3

> <JCHEM_AVERAGE_NEUTRAL_MICROSPECIES_CHARGE>
0.0

> <JCHEM_AVERAGE_POLARIZABILITY>
9.588737687019666

> <JCHEM_BIOAVAILABILITY>
1

> <JCHEM_DONOR_COUNT>
0

> <JCHEM_FORMAL_CHARGE>
0

> <JCHEM_GHOSE_FILTER>
0

> <JCHEM_IUPAC>
thione

> <JCHEM_LOGP>
0.9128999999999998

> <JCHEM_MDDR_LIKE_RULE>
0

> <JCHEM_NEUTRAL_CHARGE>
0

> <JCHEM_NUMBER_OF_RINGS>
0

> <JCHEM_PHYSIOLOGICAL_CHARGE>
0

> <JCHEM_POLAR_SURFACE_AREA>
0.0

> <JCHEM_REFRACTIVITY>
31.9825

> <JCHEM_ROTATABLE_BOND_COUNT>
0

> <JCHEM_RULE_OF_FIVE>
1

> <JCHEM_TRADITIONAL_IUPAC>
biotin

> <JCHEM_VEBER_RULE>
1

> <DRUGBANK_ID>
DB00971

> <SECONDARY_ACCESSION_NUMBERS>
APRD01323

> <DRUG_GROUPS>
approved

> <GENERIC_NAME>
Selenium Sulfide

> <SYNONYMS>
Selenii disulfidum; Selenium disulfide; Selenium disulphide; Selenium Sulfide; Selenium sulfide, micronized; Selenium sulphide; Selenium sulphide, micronized; Selenium(IV) disulfide; Selenium(IV) disulphide; Selenium(IV) sulfide; Selenium(IV) sulphide

> <PRODUCTS>
Antidandruff Medicated; CVS Pharmacy Dandruff Moisturizing with Aloe; Care One Medicated; Care One Moisturizing; CareOne Medicated Dandruff with Menthol; CareOne Moisturizing Dandruff with Aloe; Careone Medicated Dandruff; Careone Moisturizing Dandruff; Clease and Treat; Cvs Pharmacy Maximum Strength Dandruff; Cvs Pharmacy Medicated; DG Body MEDICATED DANDRUFF; Dandruff; Daylogic Maximum Strength Dandruff; Equaline Aloe; Equaline Clinical Strength; Equaline Medicated Dandruff; Equaline Menthol; Equaline Moisturizing Dandruff; Equaline Moisturizing Dandruff Medicated Formula; Equate; Equate Aloe; Equate Clinical Strength Dandruff; Equate Critical Strength; Equate Medicated Dandruff; Equate Medicated Dandruff Anti-Dandruff; Equate Moisturizing Dandruff; GoodSense Medicated Dandruff Anti-Seborrheic Dermatitis, Anti-Dandruff; HEB Dandruff; Head and Shoulders 2in1 Clinical Strength Dandruff Defense Advanced Oil Control; Head and Shoulders 2in1 Clinical Strength Dandruff Defense Intensive Itch Relief; Head and Shoulders Clinical Solutions 2in1 Dandruff; Head and Shoulders Clinical Solutions 2in1 Itch; Head and Shoulders Clinical Strength; Head and Shoulders Clinical Strength Dandruff Defense Advanced Oil Control; Head and Shoulders Clinical Strength Dandruff Defense Dry Scalp Rescue; Head and Shoulders Clinical Strength Dandruff Defense Intensive Itch Relief; Head and Shoulders Clinical Strength Dandruff Defense Sensitive Scalp; Head and Shoulders Itch; Healthy Accents; Healthy Accents Medicated Dandruff; Kroger Medicated Dandruff; LeThechniq Dandruff Moisturizing; Leader Medicated Dandruff Anti-Seborrheic Dermatitis, Anti-Dandruff; Medicated Dandruff; Medicated Dandruff Maximum Strength; Meijer Medicated Selenium Sulfide Anti-Dandruff; Moisturizing Selsun Blue; Naturaltech Purifying Anti-dandruff; OREAD GREEN Anti-Dandruff; Prosoria Medicated; Renewal Dandruff Moisturizing; Renewal Medicated; Rexall Aloe; Rite Aid MEDICATED DANDRUFF; Rite Aid Moisturizing Dandruff Medicated Formula; Rite Aid Renewal; Rite Aid Renewal Medicated; Rugby Anti-Dandruff; Safeway; Safeway Care Medicated Dandruff; Safeway Medicated Dandruff; SelRx; Selenium Sulfide; Selenium sulfide; Selenos; Selsun Azul Revitalizante; Selsun Azul Suave y Manejable Humectante; Selsun Blue 2-in-1; Selsun Blue Accion Humetante; Selsun Blue Medicated; Selsun Blue Moisturizing; Selsun Blue Normal to Oily; Selsun Blue, 2-IN-1; Selsun Blue, Normal Oily Hair; Selsun Oro; Shopko Beauty Maximum Strength Medicated Dandruff; Shopko Beauty Moisturizing Dandruff; Tersi; TopCare MEDICATED DANDRUFF; Topcare Gentle Dandruff Clinical Strength; Topcare Medicated Dandruff; Zun Spot MS

> <INTERNATIONAL_BRANDS>
Exsel Lotion Shampoo; Glo-Sel; Head & Shoulders Intensive Treatment; Versel Lotion

$$$$
