
  Mrv0541 02231216062D          

 38 40  0  0  0  0            999 V2000
   -5.9189   -5.3448    0.0000 C   0  0  0  0  0  0  0  0  0  0  0  0
   -5.1343   -5.5997    0.0000 C   0  0  0  0  0  0  0  0  0  0  0  0
   -4.5212   -5.0477    0.0000 C   0  0  0  0  0  0  0  0  0  0  0  0
   -4.9627   -6.4067    0.0000 C   0  0  0  0  0  0  0  0  0  0  0  0
   -4.2091   -6.7422    0.0000 C   0  0  0  0  0  0  0  0  0  0  0  0
   -4.2953   -7.5627    0.0000 N   0  0  0  0  0  0  0  0  0  0  0  0
   -5.1023   -7.7342    0.0000 C   0  0  0  0  0  0  0  0  0  0  0  0
   -5.4378   -8.4879    0.0000 N   0  0  0  0  0  0  0  0  0  0  0  0
   -6.2583   -8.5741    0.0000 C   0  0  0  0  0  0  0  0  0  0  0  0
   -6.7432   -7.9067    0.0000 O   0  0  0  0  0  0  0  0  0  0  0  0
   -6.5939   -9.3278    0.0000 C   0  0  0  0  0  0  0  0  0  0  0  0
   -6.1814  -10.0423    0.0000 C   0  0  0  0  0  0  0  0  0  0  0  0
   -6.7334  -10.6554    0.0000 C   0  0  0  0  0  0  0  0  0  0  0  0
   -6.5619  -11.4624    0.0000 N   0  0  0  0  0  0  0  0  0  0  0  0
   -7.1750  -12.0144    0.0000 C   0  0  0  0  0  0  0  0  0  0  0  0
   -7.9596  -11.7595    0.0000 O   0  0  0  0  0  0  0  0  0  0  0  0
   -7.0034  -12.8214    0.0000 C   0  0  0  0  0  0  0  0  0  0  0  0
   -6.2498  -13.1569    0.0000 C   0  0  0  0  0  0  0  0  0  0  0  0
   -6.3360  -13.9774    0.0000 C   0  0  0  0  0  0  0  0  0  0  0  0
   -5.7229  -14.5294    0.0000 N   0  0  0  0  0  0  0  0  0  0  0  0
   -5.8944  -15.3364    0.0000 C   0  0  0  0  0  0  0  0  0  0  0  0
   -5.2813  -15.8884    0.0000 O   0  0  0  0  0  0  0  0  0  0  0  0
   -7.1430  -14.1489    0.0000 C   0  0  0  0  0  0  0  0  0  0  0  0
   -7.5555  -13.4345    0.0000 N   0  0  0  0  0  0  0  0  0  0  0  0
   -8.3760  -13.3482    0.0000 C   0  0  0  0  0  0  0  0  0  0  0  0
   -7.4871  -10.3198    0.0000 C   0  0  0  0  0  0  0  0  0  0  0  0
   -7.4008   -9.4994    0.0000 N   0  0  0  0  0  0  0  0  0  0  0  0
   -8.0139   -8.9473    0.0000 C   0  0  0  0  0  0  0  0  0  0  0  0
   -5.5148   -7.0198    0.0000 S   0  0  0  0  0  0  0  0  0  0  0  0
   -3.4946   -6.3297    0.0000 C   0  0  0  0  0  0  0  0  0  0  0  0
   -3.4946   -5.5047    0.0000 O   0  0  0  0  0  0  0  0  0  0  0  0
   -2.7801   -6.7422    0.0000 N   0  0  0  0  0  0  0  0  0  0  0  0
   -2.0656   -6.3297    0.0000 C   0  0  0  0  0  0  0  0  0  0  0  0
   -1.3512   -6.7422    0.0000 C   0  0  0  0  0  0  0  0  0  0  0  0
   -0.6367   -6.3297    0.0000 C   0  0  0  0  0  0  0  0  0  0  0  0
    0.0778   -6.7422    0.0000 N   0  0  0  0  0  0  0  0  0  0  0  0
    0.7922   -6.3297    0.0000 C   0  0  0  0  0  0  0  0  0  0  0  0
    0.0778   -7.5672    0.0000 C   0  0  0  0  0  0  0  0  0  0  0  0
  1  2  1  0  0  0  0
  2  3  1  0  0  0  0
  2  4  1  0  0  0  0
  4  5  2  0  0  0  0
  5  6  1  0  0  0  0
  6  7  2  0  0  0  0
  7  8  1  0  0  0  0
  8  9  1  0  0  0  0
  9 10  2  0  0  0  0
  9 11  1  0  0  0  0
 11 12  2  0  0  0  0
 12 13  1  0  0  0  0
 13 14  1  0  0  0  0
 14 15  1  0  0  0  0
 15 16  2  0  0  0  0
 15 17  1  0  0  0  0
 17 18  2  0  0  0  0
 18 19  1  0  0  0  0
 19 20  1  0  0  0  0
 20 21  1  0  0  0  0
 21 22  2  0  0  0  0
 19 23  2  0  0  0  0
 23 24  1  0  0  0  0
 17 24  1  0  0  0  0
 24 25  1  0  0  0  0
 13 26  2  0  0  0  0
 26 27  1  0  0  0  0
 11 27  1  0  0  0  0
 27 28  1  0  0  0  0
  7 29  1  0  0  0  0
  4 29  1  0  0  0  0
  5 30  1  0  0  0  0
 30 31  2  0  0  0  0
 30 32  1  0  0  0  0
 32 33  1  0  0  0  0
 33 34  1  0  0  0  0
 34 35  1  0  0  0  0
 35 36  1  0  0  0  0
 36 37  1  0  0  0  0
 36 38  1  0  0  0  0
M  END
> <DATABASE_ID>
DB02295

> <DATABASE_NAME>
drugbank

> <SMILES>
CC(C)C1=C(N=C(NC(=O)C2=CC(NC(=O)C3=CC(NC=O)=CN3C)=CN2C)S1)C(=O)NCCCN(C)C

> <INCHI_IDENTIFIER>
InChI=1S/C25H34N8O4S/c1-15(2)21-20(24(37)26-8-7-9-31(3)4)29-25(38-21)30-23(36)19-11-17(13-33(19)6)28-22(35)18-10-16(27-14-34)12-32(18)5/h10-15H,7-9H2,1-6H3,(H,26,37)(H,27,34)(H,28,35)(H,29,30,36)

> <INCHI_KEY>
VDYCDKRATGWFDA-UHFFFAOYSA-N

> <FORMULA>
C25H34N8O4S

> <MOLECULAR_WEIGHT>
542.654

> <EXACT_MASS>
542.242372306

> <JCHEM_ACCEPTOR_COUNT>
6

> <JCHEM_ATOM_COUNT>
72

> <JCHEM_AVERAGE_NEUTRAL_MICROSPECIES_CHARGE>
0.9949445721301017

> <JCHEM_AVERAGE_POLARIZABILITY>
60.37268288992112

> <JCHEM_BIOAVAILABILITY>
0

> <JCHEM_DONOR_COUNT>
4

> <JCHEM_FORMAL_CHARGE>
0

> <JCHEM_GHOSE_FILTER>
0

> <JCHEM_IUPAC>
N-[3-(dimethylamino)propyl]-2-[4-(4-formamido-1-methyl-1H-pyrrole-2-amido)-1-methyl-1H-pyrrole-2-amido]-5-(propan-2-yl)-1,3-thiazole-4-carboxamide

> <ALOGPS_LOGP>
2.41

> <JCHEM_LOGP>
2.052411993666667

> <ALOGPS_LOGS>
-3.80

> <JCHEM_MDDR_LIKE_RULE>
1

> <JCHEM_NEUTRAL_CHARGE>
1

> <JCHEM_NUMBER_OF_RINGS>
3

> <JCHEM_PHYSIOLOGICAL_CHARGE>
1

> <JCHEM_PKA>
14.264883012691765

> <JCHEM_PKA_STRONGEST_ACIDIC>
11.655930342363451

> <JCHEM_PKA_STRONGEST_BASIC>
9.295965854390273

> <JCHEM_POLAR_SURFACE_AREA>
142.39000000000001

> <JCHEM_REFRACTIVITY>
151.78469999999993

> <JCHEM_ROTATABLE_BOND_COUNT>
11

> <JCHEM_RULE_OF_FIVE>
0

> <ALOGPS_SOLUBILITY>
8.60e-02 g/l

> <JCHEM_TRADITIONAL_IUPAC>
tetrahydrofolic acid

> <JCHEM_VEBER_RULE>
0

> <DRUGBANK_ID>
DB02295

> <SECONDARY_ACCESSION_NUMBERS>
EXPT00474

> <DRUG_GROUPS>
experimental

> <GENERIC_NAME>
N-[3-(Dimethylamino)Propyl]-2-({[4-({[4-(Formylamino)-1-Methyl-1h-Pyrrol-2-Yl]Carbonyl}Amino)-1-Methyl-1h-Pyrrol-2-Yl]Carbonyl}Amino)-5-Isopropyl-1,3-Thiazole-4-Carboxamide

$$$$
