
  Mrv0541 02231217572D          

 28 31  0  0  1  0            999 V2000
    7.9191    0.7358    0.0000 O   0  0  0  0  0  0  0  0  0  0  0  0
    9.8546   -0.1650    0.0000 O   0  0  0  0  0  0  0  0  0  0  0  0
    9.8576    1.6299    0.0000 O   0  0  0  0  0  0  0  0  0  0  0  0
    8.7047    2.7996    0.0000 O   0  0  0  0  0  0  0  0  0  0  0  0
    8.1466   -0.7167    0.0000 N   0  0  0  0  0  0  0  0  0  0  0  0
    8.1466   -2.0446    0.0000 N   0  0  0  0  0  0  0  0  0  0  0  0
    6.6515   -0.5556    0.0000 N   0  0  0  0  0  0  0  0  0  0  0  0
    4.5080   -0.9681    0.0000 N   0  0  0  0  0  0  0  0  0  0  0  0
    5.2224   -0.5556    0.0000 N   0  0  0  0  0  0  0  0  0  0  0  0
    5.9370   -1.7931    0.0000 N   0  0  0  0  0  0  0  0  0  0  0  0
    6.6515   -3.0306    0.0000 N   0  0  0  0  0  0  0  0  0  0  0  0
    9.1880    0.3211    0.0000 C   0  0  1  0  0  0  0  0  0  0  0  0
    8.4029    0.0675    0.0000 C   0  0  1  0  0  0  0  0  0  0  0  0
    9.1894    1.1461    0.0000 C   0  0  1  0  0  0  0  0  0  0  0  0
    8.4052    1.4024    0.0000 C   0  0  1  0  0  0  0  0  0  0  0  0
    3.0791   -0.9681    0.0000 C   0  0  0  0  0  0  0  0  0  0  0  0
    2.3645   -0.5556    0.0000 C   0  0  0  0  0  0  0  0  0  0  0  0
    3.0791   -1.7931    0.0000 C   0  0  0  0  0  0  0  0  0  0  0  0
    1.6500   -0.9681    0.0000 C   0  0  0  0  0  0  0  0  0  0  0  0
    2.3645   -2.2056    0.0000 C   0  0  0  0  0  0  0  0  0  0  0  0
    1.6500   -1.7931    0.0000 C   0  0  0  0  0  0  0  0  0  0  0  0
    8.1516    2.1875    0.0000 C   0  0  0  0  0  0  0  0  0  0  0  0
    7.3659   -0.9681    0.0000 C   0  0  0  0  0  0  0  0  0  0  0  0
    8.6280   -1.3806    0.0000 C   0  0  0  0  0  0  0  0  0  0  0  0
    3.7935   -0.5556    0.0000 C   0  0  0  0  0  0  0  0  0  0  0  0
    7.3659   -1.7931    0.0000 C   0  0  0  0  0  0  0  0  0  0  0  0
    6.6515   -2.2056    0.0000 C   0  0  0  0  0  0  0  0  0  0  0  0
    5.9370   -0.9681    0.0000 C   0  0  0  0  0  0  0  0  0  0  0  0
  1 13  1  0  0  0  0
  1 15  1  0  0  0  0
 12  2  1  1  0  0  0
 14  3  1  1  0  0  0
  4 22  1  0  0  0  0
 13  5  1  6  0  0  0
  5 23  1  0  0  0  0
  5 24  1  0  0  0  0
  6 24  2  0  0  0  0
  6 26  1  0  0  0  0
  7 23  2  0  0  0  0
  7 28  1  0  0  0  0
  8  9  1  0  0  0  0
  8 25  2  0  0  0  0
  9 28  1  0  0  0  0
 10 27  1  0  0  0  0
 10 28  2  0  0  0  0
 11 27  1  0  0  0  0
 12 13  1  0  0  0  0
 12 14  1  0  0  0  0
 14 15  1  0  0  0  0
 15 22  1  6  0  0  0
 16 17  1  0  0  0  0
 16 18  1  0  0  0  0
 16 25  1  0  0  0  0
 17 19  1  0  0  0  0
 18 20  1  0  0  0  0
 19 21  1  0  0  0  0
 20 21  1  0  0  0  0
 23 26  1  0  0  0  0
 26 27  2  0  0  0  0
M  END
> <DATABASE_ID>
DB04853

> <DATABASE_NAME>
drugbank

> <SMILES>
OC[C@H]1O[C@H]([C@H](O)[C@@H]1O)N1C=NC2=C(N)N=C(N\N=C\C3CCCCC3)N=C12

> <INCHI_IDENTIFIER>
InChI=1S/C17H25N7O4/c18-14-11-15(22-17(21-14)23-20-6-9-4-2-1-3-5-9)24(8-19-11)16-13(27)12(26)10(7-25)28-16/h6,8-10,12-13,16,25-27H,1-5,7H2,(H3,18,21,22,23)/b20-6+/t10-,12-,13-,16-/m1/s1

> <INCHI_KEY>
XJFMHMFFBSOEPR-DNZQAUTHSA-N

> <FORMULA>
C17H25N7O4

> <MOLECULAR_WEIGHT>
391.4249

> <EXACT_MASS>
391.196802323

> <JCHEM_ACCEPTOR_COUNT>
10

> <JCHEM_ATOM_COUNT>
53

> <JCHEM_AVERAGE_NEUTRAL_MICROSPECIES_CHARGE>
0.00588704450040061

> <JCHEM_AVERAGE_POLARIZABILITY>
40.96704627181513

> <JCHEM_BIOAVAILABILITY>
1

> <JCHEM_DONOR_COUNT>
5

> <JCHEM_FORMAL_CHARGE>
0

> <JCHEM_GHOSE_FILTER>
1

> <JCHEM_IUPAC>
(2R,3R,4S,5R)-2-{6-amino-2-[(2E)-2-(cyclohexylmethylidene)hydrazin-1-yl]-9H-purin-9-yl}-5-(hydroxymethyl)oxolane-3,4-diol

> <ALOGPS_LOGP>
1.41

> <JCHEM_LOGP>
0.4609811766666674

> <ALOGPS_LOGS>
-2.54

> <JCHEM_MDDR_LIKE_RULE>
0

> <JCHEM_NEUTRAL_CHARGE>
0

> <JCHEM_NUMBER_OF_RINGS>
4

> <JCHEM_PHYSIOLOGICAL_CHARGE>
0

> <JCHEM_PKA>
12.564874789781317

> <JCHEM_PKA_STRONGEST_ACIDIC>
11.82294718226308

> <JCHEM_PKA_STRONGEST_BASIC>
4.752144835256899

> <JCHEM_POLAR_SURFACE_AREA>
163.93

> <JCHEM_REFRACTIVITY>
101.74180000000001

> <JCHEM_ROTATABLE_BOND_COUNT>
5

> <JCHEM_RULE_OF_FIVE>
1

> <ALOGPS_SOLUBILITY>
1.14e+00 g/l

> <JCHEM_TRADITIONAL_IUPAC>
biotin

> <JCHEM_VEBER_RULE>
0

> <DRUGBANK_ID>
DB04853

> <DRUG_GROUPS>
investigational

> <GENERIC_NAME>
Binodenoson

> <SYNONYMS>
2-((Cyclohexylmethylene)hydrazino)adenosine; Binodenoson

$$$$
