
  Mrv0541 05041407262D          

 33 32  0  0  1  0            999 V2000
   -0.1914   -0.7145    0.0000 C   0  0  0  0  0  0  0  0  0  0  0  0
   -3.0493    1.7605    0.0000 C   0  0  0  0  0  0  0  0  0  0  0  0
    0.5230   -1.1270    0.0000 C   0  0  0  0  0  0  0  0  0  0  0  0
    1.2375   -0.7145    0.0000 C   0  0  0  0  0  0  0  0  0  0  0  0
    1.9520   -1.1270    0.0000 C   0  0  0  0  0  0  0  0  0  0  0  0
    2.6664   -0.7145    0.0000 C   0  0  0  0  0  0  0  0  0  0  0  0
    3.3809   -1.1270    0.0000 C   0  0  0  0  0  0  0  0  0  0  0  0
    4.0954   -0.7145    0.0000 C   0  0  0  0  0  0  0  0  0  0  0  0
    4.0954    0.1105    0.0000 C   0  0  0  0  0  0  0  0  0  0  0  0
    4.8099    0.5230    0.0000 C   0  0  0  0  0  0  0  0  0  0  0  0
    4.8099    1.3480    0.0000 C   0  0  0  0  0  0  0  0  0  0  0  0
    4.0954    1.7605    0.0000 C   0  0  0  0  0  0  0  0  0  0  0  0
    4.0954    2.5855    0.0000 C   0  0  0  0  0  0  0  0  0  0  0  0
    3.3809    2.9980    0.0000 C   0  0  0  0  0  0  0  0  0  0  0  0
    2.6664    2.5855    0.0000 C   0  0  0  0  0  0  0  0  0  0  0  0
    2.6664    1.7605    0.0000 C   0  0  0  0  0  0  0  0  0  0  0  0
    1.9520    1.3480    0.0000 C   0  0  0  0  0  0  0  0  0  0  0  0
    1.2375    1.7605    0.0000 C   0  0  0  0  0  0  0  0  0  0  0  0
    0.5230    1.3480    0.0000 C   0  0  0  0  0  0  0  0  0  0  0  0
   -0.1914    1.7605    0.0000 C   0  0  0  0  0  0  0  0  0  0  0  0
   -0.9059    1.3480    0.0000 C   0  0  0  0  0  0  0  0  0  0  0  0
   -1.2079    2.4750    0.0000 F   0  0  0  0  0  0  0  0  0  0  0  0
   -2.0329    1.0461    0.0000 O   0  0  0  0  0  0  0  0  0  0  0  0
   -2.3349    2.1730    0.0000 O   0  0  0  0  0  0  0  0  0  0  0  0
   -1.6204    1.7605    0.0000 P   0  0  2  0  0  0  0  0  0  0  0  0
    3.3809   -1.9520    0.0000 H   0  0  0  0  0  0  0  0  0  0  0  0
    4.8099   -1.1270    0.0000 H   0  0  0  0  0  0  0  0  0  0  0  0
    5.5243    0.1105    0.0000 H   0  0  0  0  0  0  0  0  0  0  0  0
    5.5243    1.7605    0.0000 H   0  0  0  0  0  0  0  0  0  0  0  0
    4.8099    2.9980    0.0000 H   0  0  0  0  0  0  0  0  0  0  0  0
    3.3809    3.8230    0.0000 H   0  0  0  0  0  0  0  0  0  0  0  0
    3.3809    1.3480    0.0000 H   0  0  0  0  0  0  0  0  0  0  0  0
    1.9520    0.5230    0.0000 H   0  0  0  0  0  0  0  0  0  0  0  0
  3  1  1  0  0  0  0
  4  3  1  0  0  0  0
  5  4  1  0  0  0  0
  6  5  1  0  0  0  0
  7  6  1  0  0  0  0
  8  7  2  0  0  0  0
  9  8  1  0  0  0  0
 10  9  1  0  0  0  0
 11 10  2  0  0  0  0
 12 11  1  0  0  0  0
 13 12  1  0  0  0  0
 14 13  2  0  0  0  0
 15 14  1  0  0  0  0
 16 15  1  0  0  0  0
 17 16  2  0  0  0  0
 18 17  1  0  0  0  0
 19 18  1  0  0  0  0
 20 19  1  0  0  0  0
 21 20  1  0  0  0  0
 24  2  1  0  0  0  0
 25 21  1  0  0  0  0
 25 22  1  1  0  0  0
 25 23  2  0  0  0  0
 25 24  1  6  0  0  0
 26  7  1  0  0  0  0
 27  8  1  0  0  0  0
 28 10  1  0  0  0  0
 29 11  1  0  0  0  0
 30 13  1  0  0  0  0
 31 14  1  0  0  0  0
 32 16  1  0  0  0  0
 33 17  1  0  0  0  0
M  END
> <DATABASE_ID>
DB02465

> <DATABASE_NAME>
drugbank

> <SMILES>
[H]\C(CCCCC)=C(/[H])C\C([H])=C(\[H])C\C([H])=C(\[H])C\C([H])=C(\[H])CCCC[P@](F)(=O)OC

> <INCHI_IDENTIFIER>
InChI=1S/C21H36FO2P/c1-3-4-5-6-7-8-9-10-11-12-13-14-15-16-17-18-19-20-21-25(22,23)24-2/h7-8,10-11,13-14,16-17H,3-6,9,12,15,18-21H2,1-2H3/b8-7-,11-10-,14-13-,17-16-/t25-/m0/s1

> <INCHI_KEY>
KWKZCGMJGHHOKJ-WTIHWRCNSA-N

> <FORMULA>
C21H36FO2P

> <MOLECULAR_WEIGHT>
370.4815

> <EXACT_MASS>
370.243695113

> <JCHEM_ACCEPTOR_COUNT>
1

> <JCHEM_ATOM_COUNT>
61

> <JCHEM_AVERAGE_NEUTRAL_MICROSPECIES_CHARGE>
0.0

> <JCHEM_AVERAGE_POLARIZABILITY>
42.21506517685459

> <JCHEM_BIOAVAILABILITY>
0

> <JCHEM_DONOR_COUNT>
0

> <JCHEM_FORMAL_CHARGE>
0

> <JCHEM_GHOSE_FILTER>
0

> <JCHEM_IUPAC>
(S)-(methyl [(5Z,8Z,11Z,14Z)-icosa-5,8,11,14-tetraen-1-yl]phosphonofluoridate)

> <ALOGPS_LOGP>
6.87

> <JCHEM_LOGP>
6.826752058

> <ALOGPS_LOGS>
-5.99

> <JCHEM_MDDR_LIKE_RULE>
0

> <JCHEM_NEUTRAL_CHARGE>
0

> <JCHEM_NUMBER_OF_RINGS>
0

> <JCHEM_PHYSIOLOGICAL_CHARGE>
0

> <JCHEM_PKA_STRONGEST_BASIC>
-8.517155079709234

> <JCHEM_POLAR_SURFACE_AREA>
26.3

> <JCHEM_REFRACTIVITY>
112.67679999999999

> <JCHEM_ROTATABLE_BOND_COUNT>
16

> <JCHEM_RULE_OF_FIVE>
0

> <ALOGPS_SOLUBILITY>
3.80e-04 g/l

> <JCHEM_TRADITIONAL_IUPAC>
tetrahydrofolic acid

> <JCHEM_VEBER_RULE>
0

> <DRUGBANK_ID>
DB02465

> <SECONDARY_ACCESSION_NUMBERS>
EXPT02119

> <DRUG_GROUPS>
experimental

> <GENERIC_NAME>
Methoxy arachidonyl fluorophosphonate

> <SYNONYMS>
MAFP; Methoxy arachidonyl fluorophosphonate; Methyl arachidonylfluorophosphonate

$$$$
