
  Mrv0541 05041405492D          

 15 15  0  0  0  0            999 V2000
    1.4289   -0.0000    0.0000 C   0  0  0  0  0  0  0  0  0  0  0  0
    1.4289    0.8250    0.0000 C   0  0  0  0  0  0  0  0  0  0  0  0
    0.7145   -1.2375    0.0000 C   0  0  0  0  0  0  0  0  0  0  0  0
    0.0000   -0.0000    0.0000 C   0  0  0  0  0  0  0  0  0  0  0  0
    0.7145   -0.4125    0.0000 C   0  0  0  0  0  0  0  0  0  0  0  0
    1.4289   -1.6500    0.0000 C   0  0  0  0  0  0  0  0  0  0  0  0
    0.7145    1.2375    0.0000 C   0  0  0  0  0  0  0  0  0  0  0  0
    0.0000    0.8250    0.0000 C   0  0  0  0  0  0  0  0  0  0  0  0
    1.4289   -2.4750    0.0000 C   0  0  0  0  0  0  0  0  0  0  0  0
    2.1434   -1.2375    0.0000 N   0  0  0  0  0  0  0  0  0  0  0  0
    0.7145    2.0625    0.0000 O   0  0  0  0  0  0  0  0  0  0  0  0
   -0.7145    1.2375    0.0000 O   0  0  0  0  0  0  0  0  0  0  0  0
    2.1434   -2.8875    0.0000 O   0  0  0  0  0  0  0  0  0  0  0  0
    0.7145   -2.8875    0.0000 O   0  0  0  0  0  0  0  0  0  0  0  0
    2.1434   -0.4125    0.0000 H   0  0  0  0  0  0  0  0  0  0  0  0
  2  1  2  0  0  0  0
  5  1  1  0  0  0  0
  5  3  1  0  0  0  0
  5  4  2  0  0  0  0
  6  3  1  0  0  0  0
  7  2  1  0  0  0  0
  8  4  1  0  0  0  0
  8  7  2  0  0  0  0
  9  6  1  0  0  0  0
 10  6  2  0  0  0  0
 11  7  1  0  0  0  0
 12  8  1  0  0  0  0
 13  9  2  0  0  0  0
 14  9  1  0  0  0  0
 15 10  1  0  0  0  0
M  END
> <DATABASE_ID>
DB07979

> <DATABASE_NAME>
drugbank

> <SMILES>
[H]N=C(CC1=CC(O)=C(O)C=C1)C(O)=O

> <INCHI_IDENTIFIER>
InChI=1S/C9H9NO4/c10-6(9(13)14)3-5-1-2-7(11)8(12)4-5/h1-2,4,10-12H,3H2,(H,13,14)/b10-6-

> <INCHI_KEY>
VFINRVRRNHRWEQ-POHAHGRESA-N

> <FORMULA>
C9H9NO4

> <MOLECULAR_WEIGHT>
195.1721

> <EXACT_MASS>
195.053157781

> <JCHEM_ACCEPTOR_COUNT>
5

> <JCHEM_ATOM_COUNT>
23

> <JCHEM_AVERAGE_NEUTRAL_MICROSPECIES_CHARGE>
-0.08894888656721034

> <JCHEM_AVERAGE_POLARIZABILITY>
18.06702487101214

> <JCHEM_BIOAVAILABILITY>
1

> <JCHEM_DONOR_COUNT>
4

> <JCHEM_FORMAL_CHARGE>
0

> <JCHEM_GHOSE_FILTER>
1

> <JCHEM_IUPAC>
3-(3,4-dihydroxyphenyl)-2-iminopropanoic acid

> <ALOGPS_LOGP>
0.69

> <JCHEM_LOGP>
0.8170389221394162

> <ALOGPS_LOGS>
-2.56

> <JCHEM_MDDR_LIKE_RULE>
0

> <JCHEM_NEUTRAL_CHARGE>
0

> <JCHEM_NUMBER_OF_RINGS>
1

> <JCHEM_PHYSIOLOGICAL_CHARGE>
0

> <JCHEM_PKA>
9.27710540523681

> <JCHEM_PKA_STRONGEST_ACIDIC>
3.6217749713401104

> <JCHEM_PKA_STRONGEST_BASIC>
2.6013953018141325

> <JCHEM_POLAR_SURFACE_AREA>
101.61

> <JCHEM_REFRACTIVITY>
59.1454

> <JCHEM_ROTATABLE_BOND_COUNT>
3

> <JCHEM_RULE_OF_FIVE>
1

> <ALOGPS_SOLUBILITY>
5.33e-01 g/l

> <JCHEM_TRADITIONAL_IUPAC>
tetrahydrofolic acid

> <JCHEM_VEBER_RULE>
0

> <DRUGBANK_ID>
DB07979

> <DRUG_GROUPS>
experimental

> <GENERIC_NAME>
(2E)-3-(3,4-DIHYDROXYPHENYL)-2-IMINOPROPANOIC ACID

$$$$
