
  Mrv0541 05041400062D          

 11 10  0  0  1  0            999 V2000
    0.0000    0.8250    0.0000 C   0  0  0  0  0  0  0  0  0  0  0  0
    0.7145    1.2375    0.0000 C   0  0  2  0  0  0  0  0  0  0  0  0
    0.7145    2.0625    0.0000 C   0  0  0  0  0  0  0  0  0  0  0  0
    1.4289    0.8250    0.0000 N   0  0  0  0  0  0  0  0  0  0  0  0
    1.4289    2.4750    0.0000 O   0  0  0  0  0  0  0  0  0  0  0  0
    0.0000    2.4750    0.0000 O   0  0  0  0  0  0  0  0  0  0  0  0
   -0.0000   -0.8250    0.0000 O   0  0  0  0  0  0  0  0  0  0  0  0
   -0.8250    0.0000    0.0000 O   0  0  0  0  0  0  0  0  0  0  0  0
    0.8250    0.0000    0.0000 O   0  0  0  0  0  0  0  0  0  0  0  0
    0.0000    0.0000    0.0000 P   0  0  0  0  0  0  0  0  0  0  0  0
    0.0000    1.6500    0.0000 H   0  0  0  0  0  0  0  0  0  0  0  0
  2  1  1  0  0  0  0
  3  2  1  0  0  0  0
  2  4  1  1  0  0  0
  5  3  2  0  0  0  0
  6  3  1  0  0  0  0
 10  1  1  0  0  0  0
 10  7  1  0  0  0  0
 10  8  1  0  0  0  0
 10  9  2  0  0  0  0
  2 11  1  1  0  0  0
M  END
> <DATABASE_ID>
DB03292

> <DATABASE_NAME>
drugbank

> <SMILES>
[H][C@@](N)(CP(O)(O)=O)C(O)=O

> <INCHI_IDENTIFIER>
InChI=1S/C3H8NO5P/c4-2(3(5)6)1-10(7,8)9/h2H,1,4H2,(H,5,6)(H2,7,8,9)/t2-/m1/s1

> <INCHI_KEY>
LBTABPSJONFLPO-UWTATZPHSA-N

> <FORMULA>
C3H8NO5P

> <MOLECULAR_WEIGHT>
169.0731

> <EXACT_MASS>
169.014008883

> <JCHEM_ACCEPTOR_COUNT>
6

> <JCHEM_ATOM_COUNT>
18

> <JCHEM_AVERAGE_NEUTRAL_MICROSPECIES_CHARGE>
-1.1460856849181305

> <JCHEM_AVERAGE_POLARIZABILITY>
12.858371456950707

> <JCHEM_BIOAVAILABILITY>
1

> <JCHEM_DONOR_COUNT>
4

> <JCHEM_FORMAL_CHARGE>
0

> <JCHEM_GHOSE_FILTER>
0

> <JCHEM_IUPAC>
(2S)-2-amino-3-phosphonopropanoic acid

> <ALOGPS_LOGP>
-2.49

> <JCHEM_LOGP>
-3.825907258582544

> <ALOGPS_LOGS>
-0.69

> <JCHEM_MDDR_LIKE_RULE>
0

> <JCHEM_NEUTRAL_CHARGE>
-1

> <JCHEM_NUMBER_OF_RINGS>
0

> <JCHEM_PHYSIOLOGICAL_CHARGE>
-1

> <JCHEM_PKA>
2.3032935262741114

> <JCHEM_PKA_STRONGEST_ACIDIC>
1.3962969931080482

> <JCHEM_PKA_STRONGEST_BASIC>
9.829618218775977

> <JCHEM_POLAR_SURFACE_AREA>
120.85000000000002

> <JCHEM_REFRACTIVITY>
31.0815

> <JCHEM_ROTATABLE_BOND_COUNT>
3

> <JCHEM_RULE_OF_FIVE>
1

> <ALOGPS_SOLUBILITY>
3.47e+01 g/l

> <JCHEM_TRADITIONAL_IUPAC>
tetrahydrofolic acid

> <JCHEM_VEBER_RULE>
0

> <DRUGBANK_ID>
DB03292

> <SECONDARY_ACCESSION_NUMBERS>
EXPT00542

> <DRUG_GROUPS>
experimental

> <GENERIC_NAME>
3-Phosphono-D-alanine

> <SYNONYMS>
(S)-2-Amino-3-phosphonopropanoic acid; D-2-Amino-3-phosphonopropionic acid

$$$$
