
  Mrv0541 05041406412D          

 53 52  0  0  1  0            999 V2000
    9.2961   -5.7158    0.0000 C   0  0  0  0  0  0  0  0  0  0  0  0
   10.0105   -4.4783    0.0000 C   0  0  0  0  0  0  0  0  0  0  0  0
   34.3025   -5.3033    0.0000 C   0  0  0  0  0  0  0  0  0  0  0  0
   33.5881   -6.5408    0.0000 C   0  0  0  0  0  0  0  0  0  0  0  0
   12.8684   -4.4783    0.0000 C   0  0  0  0  0  0  0  0  0  0  0  0
   30.7302   -6.5408    0.0000 C   0  0  0  0  0  0  0  0  0  0  0  0
   15.7263   -4.4783    0.0000 C   0  0  0  0  0  0  0  0  0  0  0  0
   27.8723   -6.5408    0.0000 C   0  0  0  0  0  0  0  0  0  0  0  0
   18.5842   -4.4783    0.0000 C   0  0  0  0  0  0  0  0  0  0  0  0
   25.0144   -6.5408    0.0000 C   0  0  0  0  0  0  0  0  0  0  0  0
   11.4395   -5.3033    0.0000 C   0  0  0  0  0  0  0  0  0  0  0  0
   32.1591   -5.7158    0.0000 C   0  0  0  0  0  0  0  0  0  0  0  0
   14.2974   -5.3033    0.0000 C   0  0  0  0  0  0  0  0  0  0  0  0
   29.3012   -5.7158    0.0000 C   0  0  0  0  0  0  0  0  0  0  0  0
   17.1552   -5.3033    0.0000 C   0  0  0  0  0  0  0  0  0  0  0  0
   26.4434   -5.7158    0.0000 C   0  0  0  0  0  0  0  0  0  0  0  0
   10.7250   -5.7158    0.0000 C   0  0  0  0  0  0  0  0  0  0  0  0
   32.8736   -5.3033    0.0000 C   0  0  0  0  0  0  0  0  0  0  0  0
   12.1539   -5.7158    0.0000 C   0  0  0  0  0  0  0  0  0  0  0  0
   31.4447   -5.3033    0.0000 C   0  0  0  0  0  0  0  0  0  0  0  0
   13.5829   -5.7158    0.0000 C   0  0  0  0  0  0  0  0  0  0  0  0
   30.0157   -5.3033    0.0000 C   0  0  0  0  0  0  0  0  0  0  0  0
   15.0118   -5.7158    0.0000 C   0  0  0  0  0  0  0  0  0  0  0  0
   28.5868   -5.3033    0.0000 C   0  0  0  0  0  0  0  0  0  0  0  0
   16.4408   -5.7158    0.0000 C   0  0  0  0  0  0  0  0  0  0  0  0
   27.1578   -5.3033    0.0000 C   0  0  0  0  0  0  0  0  0  0  0  0
   17.8697   -5.7158    0.0000 C   0  0  0  0  0  0  0  0  0  0  0  0
   25.7289   -5.3033    0.0000 C   0  0  0  0  0  0  0  0  0  0  0  0
   19.2987   -5.7158    0.0000 C   0  0  0  0  0  0  0  0  0  0  0  0
   24.2999   -5.3033    0.0000 C   0  0  0  0  0  0  0  0  0  0  0  0
   20.0131   -5.3033    0.0000 C   0  0  0  0  0  0  0  0  0  0  0  0
   23.5855   -5.7158    0.0000 C   0  0  0  0  0  0  0  0  0  0  0  0
   22.1565   -6.5408    0.0000 C   0  0  0  0  0  0  0  0  0  0  0  0
   21.4421   -5.3033    0.0000 C   0  0  0  0  0  0  0  0  0  0  0  0
   10.0105   -5.3033    0.0000 C   0  0  0  0  0  0  0  0  0  0  0  0
   33.5881   -5.7158    0.0000 C   0  0  0  0  0  0  0  0  0  0  0  0
   12.8684   -5.3033    0.0000 C   0  0  2  0  0  0  0  0  0  0  0  0
   30.7302   -5.7158    0.0000 C   0  0  2  0  0  0  0  0  0  0  0  0
   15.7263   -5.3033    0.0000 C   0  0  2  0  0  0  0  0  0  0  0  0
   27.8723   -5.7158    0.0000 C   0  0  2  0  0  0  0  0  0  0  0  0
   18.5842   -5.3033    0.0000 C   0  0  2  0  0  0  0  0  0  0  0  0
   25.0144   -5.7158    0.0000 C   0  0  2  0  0  0  0  0  0  0  0  0
   22.1565   -5.7158    0.0000 C   0  0  2  0  0  0  0  0  0  0  0  0
   22.8710   -6.9533    0.0000 O   0  0  0  0  0  0  0  0  0  0  0  0
   20.7276   -5.7158    0.0000 O   0  0  0  0  0  0  0  0  0  0  0  0
   22.8710   -5.3033    0.0000 O   0  0  0  0  0  0  0  0  0  0  0  0
   12.1539   -4.8908    0.0000 H   0  0  0  0  0  0  0  0  0  0  0  0
   31.4447   -6.1283    0.0000 H   0  0  0  0  0  0  0  0  0  0  0  0
   15.0118   -4.8908    0.0000 H   0  0  0  0  0  0  0  0  0  0  0  0
   28.5868   -6.1283    0.0000 H   0  0  0  0  0  0  0  0  0  0  0  0
   17.8697   -4.8908    0.0000 H   0  0  0  0  0  0  0  0  0  0  0  0
   25.7289   -6.1283    0.0000 H   0  0  0  0  0  0  0  0  0  0  0  0
   21.4421   -6.1283    0.0000 H   0  0  0  0  0  0  0  0  0  0  0  0
 17 11  1  0  0  0  0
 18 12  1  0  0  0  0
 19 11  1  0  0  0  0
 20 12  1  0  0  0  0
 21 13  1  0  0  0  0
 22 14  1  0  0  0  0
 23 13  1  0  0  0  0
 24 14  1  0  0  0  0
 25 15  1  0  0  0  0
 26 16  1  0  0  0  0
 27 15  1  0  0  0  0
 28 16  1  0  0  0  0
 31 29  1  0  0  0  0
 32 30  1  0  0  0  0
 35  1  1  0  0  0  0
 35  2  1  0  0  0  0
 35 17  1  0  0  0  0
 36  3  1  0  0  0  0
 36  4  1  0  0  0  0
 36 18  1  0  0  0  0
 37  5  1  1  0  0  0
 37 19  1  0  0  0  0
 37 21  1  0  0  0  0
 38  6  1  1  0  0  0
 38 20  1  0  0  0  0
 38 22  1  0  0  0  0
 39  7  1  1  0  0  0
 39 23  1  0  0  0  0
 39 25  1  0  0  0  0
 40  8  1  1  0  0  0
 40 24  1  0  0  0  0
 40 26  1  0  0  0  0
 41  9  1  1  0  0  0
 41 27  1  0  0  0  0
 41 29  1  0  0  0  0
 42 10  1  1  0  0  0
 42 28  1  0  0  0  0
 42 30  1  0  0  0  0
 43 33  1  0  0  0  0
 43 34  1  0  0  0  0
 44 33  1  0  0  0  0
 45 31  1  0  0  0  0
 45 34  1  0  0  0  0
 46 32  1  0  0  0  0
 43 46  1  1  0  0  0
 37 47  1  6  0  0  0
 38 48  1  6  0  0  0
 39 49  1  6  0  0  0
 40 50  1  6  0  0  0
 41 51  1  6  0  0  0
 42 52  1  6  0  0  0
 43 53  1  1  0  0  0
M  END
> <DATABASE_ID>
DB03646

> <DATABASE_NAME>
drugbank

> <SMILES>
[H][C@@](C)(CCCC(C)C)CCC[C@@]([H])(C)CCC[C@@]([H])(C)CCOC[C@@]([H])(CO)OCC[C@]([H])(C)CCC[C@]([H])(C)CCC[C@]([H])(C)CCCC(C)C

> <INCHI_IDENTIFIER>
InChI=1S/C43H88O3/c1-35(2)17-11-19-37(5)21-13-23-39(7)25-15-27-41(9)29-31-45-34-43(33-44)46-32-30-42(10)28-16-26-40(8)24-14-22-38(6)20-12-18-36(3)4/h35-44H,11-34H2,1-10H3/t37-,38-,39-,40-,41-,42-,43-/m1/s1

> <INCHI_KEY>
ISDBCJSGCHUHFI-UMZPFTBHSA-N

> <FORMULA>
C43H88O3

> <MOLECULAR_WEIGHT>
653.157

> <EXACT_MASS>
652.673346682

> <JCHEM_ACCEPTOR_COUNT>
3

> <JCHEM_ATOM_COUNT>
134

> <JCHEM_AVERAGE_NEUTRAL_MICROSPECIES_CHARGE>
-2.482560096290637e-08

> <JCHEM_AVERAGE_POLARIZABILITY>
88.27085662703196

> <JCHEM_BIOAVAILABILITY>
0

> <JCHEM_DONOR_COUNT>
1

> <JCHEM_FORMAL_CHARGE>
0

> <JCHEM_GHOSE_FILTER>
0

> <JCHEM_IUPAC>
(2R)-2,3-bis({[(3R,7R,11R)-3,7,11,15-tetramethylhexadecyl]oxy})propan-1-ol

> <ALOGPS_LOGP>
10.10

> <JCHEM_LOGP>
15.060837744666664

> <ALOGPS_LOGS>
-8.03

> <JCHEM_MDDR_LIKE_RULE>
0

> <JCHEM_NEUTRAL_CHARGE>
0

> <JCHEM_NUMBER_OF_RINGS>
0

> <JCHEM_PHYSIOLOGICAL_CHARGE>
0

> <JCHEM_PKA_STRONGEST_ACIDIC>
14.603089442794543

> <JCHEM_PKA_STRONGEST_BASIC>
-2.972408677721667

> <JCHEM_POLAR_SURFACE_AREA>
38.69

> <JCHEM_REFRACTIVITY>
204.57850000000005

> <JCHEM_ROTATABLE_BOND_COUNT>
34

> <JCHEM_RULE_OF_FIVE>
0

> <ALOGPS_SOLUBILITY>
6.11e-06 g/l

> <JCHEM_TRADITIONAL_IUPAC>
biotin

> <JCHEM_VEBER_RULE>
0

> <DRUGBANK_ID>
DB03646

> <SECONDARY_ACCESSION_NUMBERS>
EXPT01991

> <DRUG_GROUPS>
experimental

> <GENERIC_NAME>
2,3-di-O-phytanyl-sn-glycerol

> <SYNONYMS>
2,3-Di-O-phytanyl-sn-glycerol; 2,3-diphytanyl-sn-glycerol; Archaeol

$$$$
