
  Mrv0541 05041402052D          

 12 13  0  0  0  0            999 V2000
   -0.6078    3.5277    0.0000 C   0  0  0  0  0  0  0  0  0  0  0  0
   -2.0367    3.5277    0.0000 C   0  0  0  0  0  0  0  0  0  0  0  0
   -0.6078    4.3527    0.0000 C   0  0  0  0  0  0  0  0  0  0  0  0
   -2.0367    4.3527    0.0000 C   0  0  0  0  0  0  0  0  0  0  0  0
   -0.6548    1.8053    0.0000 C   0  0  0  0  0  0  0  0  0  0  0  0
   -1.7347    1.0206    0.0000 C   0  0  0  0  0  0  0  0  0  0  0  0
   -1.3222    3.1152    0.0000 C   0  0  0  0  0  0  0  0  0  0  0  0
   -1.3222    4.7652    0.0000 C   0  0  0  0  0  0  0  0  0  0  0  0
   -1.3222    2.2902    0.0000 C   0  0  0  0  0  0  0  0  0  0  0  0
   -1.3222    5.5902    0.0000 Cl  0  0  0  0  0  0  0  0  0  0  0  0
   -0.9097    1.0206    0.0000 N   0  0  0  0  0  0  0  0  0  0  0  0
   -1.9897    1.8053    0.0000 N   0  0  0  0  0  0  0  0  0  0  0  0
  3  1  1  0  0  0  0
  4  2  2  0  0  0  0
  7  1  2  0  0  0  0
  7  2  1  0  0  0  0
  8  3  2  0  0  0  0
  8  4  1  0  0  0  0
  9  5  2  0  0  0  0
  9  7  1  0  0  0  0
 10  8  1  0  0  0  0
 11  5  1  0  0  0  0
 11  6  2  0  0  0  0
 12  6  1  0  0  0  0
 12  9  1  0  0  0  0
M  END
> <DATABASE_ID>
DB02974

> <DATABASE_NAME>
drugbank

> <SMILES>
ClC1=CC=C(C=C1)C1=CN=CN1

> <INCHI_IDENTIFIER>
InChI=1S/C9H7ClN2/c10-8-3-1-7(2-4-8)9-5-11-6-12-9/h1-6H,(H,11,12)

> <INCHI_KEY>
DVKIFCXVRCGAEE-UHFFFAOYSA-N

> <FORMULA>
C9H7ClN2

> <MOLECULAR_WEIGHT>
178.618

> <EXACT_MASS>
178.029775941

> <JCHEM_ACCEPTOR_COUNT>
1

> <JCHEM_ATOM_COUNT>
19

> <JCHEM_AVERAGE_NEUTRAL_MICROSPECIES_CHARGE>
0.29196756722355466

> <JCHEM_AVERAGE_POLARIZABILITY>
17.86125500419742

> <JCHEM_BIOAVAILABILITY>
1

> <JCHEM_DONOR_COUNT>
1

> <JCHEM_FORMAL_CHARGE>
0

> <JCHEM_GHOSE_FILTER>
0

> <JCHEM_IUPAC>
5-(4-chlorophenyl)-1H-imidazole

> <ALOGPS_LOGP>
2.48

> <JCHEM_LOGP>
2.026046955

> <ALOGPS_LOGS>
-1.57

> <JCHEM_MDDR_LIKE_RULE>
0

> <JCHEM_NEUTRAL_CHARGE>
0

> <JCHEM_NUMBER_OF_RINGS>
2

> <JCHEM_PHYSIOLOGICAL_CHARGE>
0

> <JCHEM_PKA_STRONGEST_ACIDIC>
12.315720985167037

> <JCHEM_PKA_STRONGEST_BASIC>
6.615290748491771

> <JCHEM_POLAR_SURFACE_AREA>
28.68

> <JCHEM_REFRACTIVITY>
48.83129999999999

> <JCHEM_ROTATABLE_BOND_COUNT>
1

> <JCHEM_RULE_OF_FIVE>
1

> <ALOGPS_SOLUBILITY>
4.78e+00 g/l

> <JCHEM_TRADITIONAL_IUPAC>
biotin

> <JCHEM_VEBER_RULE>
1

> <DRUGBANK_ID>
DB02974

> <SECONDARY_ACCESSION_NUMBERS>
EXPT01008

> <DRUG_GROUPS>
experimental

> <GENERIC_NAME>
4-(4-Chlorophenyl)Imidazole

$$$$
