
  Mrv0541 02231215482D          

 33 36  0  0  0  0            999 V2000
    0.0768    0.9256    0.0000 C   0  0  0  0  0  0  0  0  0  0  0  0
    0.8838    0.7541    0.0000 C   0  0  0  0  0  0  0  0  0  0  0  0
    1.4358    1.3672    0.0000 C   0  0  0  0  0  0  0  0  0  0  0  0
    1.1387   -0.0305    0.0000 C   0  0  0  0  0  0  0  0  0  0  0  0
    1.9233   -0.2854    0.0000 C   0  0  0  0  0  0  0  0  0  0  0  0
    2.6378    0.1271    0.0000 N   0  0  0  0  0  0  0  0  0  0  0  0
    3.3523   -0.2854    0.0000 C   0  0  0  0  0  0  0  0  0  0  0  0
    4.0668    0.1271    0.0000 N   0  0  0  0  0  0  0  0  0  0  0  0
    4.0668    0.9521    0.0000 C   0  0  1  0  0  0  0  0  0  0  0  0
    3.3523    1.3646    0.0000 C   0  0  0  0  0  0  0  0  0  0  0  0
    3.3523    2.1896    0.0000 C   0  0  0  0  0  0  0  0  0  0  0  0
    4.0668    2.6021    0.0000 C   0  0  2  0  0  0  0  0  0  0  0  0
    4.0668    3.4271    0.0000 N   0  0  0  0  0  0  0  0  0  0  0  0
    4.7812    2.1896    0.0000 C   0  0  0  0  0  0  0  0  0  0  0  0
    4.7812    1.3646    0.0000 C   0  0  0  0  0  0  0  0  0  0  0  0
    3.3523   -1.1104    0.0000 C   0  0  0  0  0  0  0  0  0  0  0  0
    2.6378   -1.5229    0.0000 C   0  0  0  0  0  0  0  0  0  0  0  0
    2.6378   -2.3479    0.0000 N   0  0  0  0  0  0  0  0  0  0  0  0
    1.9233   -2.7604    0.0000 C   0  0  0  0  0  0  0  0  0  0  0  0
    1.9233   -3.5854    0.0000 C   0  0  0  0  0  0  0  0  0  0  0  0
    1.2089   -3.9979    0.0000 C   0  0  0  0  0  0  0  0  0  0  0  0
    0.4944   -3.5854    0.0000 C   0  0  0  0  0  0  0  0  0  0  0  0
    0.4944   -2.7604    0.0000 C   0  0  0  0  0  0  0  0  0  0  0  0
    1.2089   -2.3479    0.0000 C   0  0  0  0  0  0  0  0  0  0  0  0
   -0.2201   -3.9979    0.0000 S   0  0  0  0  0  0  0  0  0  0  0  0
   -0.6326   -3.2835    0.0000 O   0  0  0  0  0  0  0  0  0  0  0  0
    0.1924   -4.7124    0.0000 O   0  0  0  0  0  0  0  0  0  0  0  0
   -0.9345   -4.4104    0.0000 N   0  0  0  0  0  0  0  0  0  0  0  0
   -0.9345   -5.2354    0.0000 C   0  0  0  0  0  0  0  0  0  0  0  0
   -1.6490   -3.9979    0.0000 C   0  0  0  0  0  0  0  0  0  0  0  0
    1.9233   -1.1104    0.0000 N   0  0  0  0  0  0  0  0  0  0  0  0
    1.1387   -1.3654    0.0000 N   0  0  0  0  0  0  0  0  0  0  0  0
    0.6538   -0.6979    0.0000 C   0  0  0  0  0  0  0  0  0  0  0  0
  1  2  1  0  0  0  0
  2  3  1  0  0  0  0
  2  4  1  0  0  0  0
  4  5  2  0  0  0  0
  5  6  1  0  0  0  0
  6  7  2  0  0  0  0
  7  8  1  0  0  0  0
  9  8  1  1  0  0  0
  9 10  1  0  0  0  0
 10 11  1  0  0  0  0
 11 12  1  0  0  0  0
 12 13  1  6  0  0  0
 12 14  1  0  0  0  0
 14 15  1  0  0  0  0
  9 15  1  0  0  0  0
  7 16  1  0  0  0  0
 16 17  2  0  0  0  0
 17 18  1  0  0  0  0
 18 19  1  0  0  0  0
 19 20  2  0  0  0  0
 20 21  1  0  0  0  0
 21 22  2  0  0  0  0
 22 23  1  0  0  0  0
 23 24  2  0  0  0  0
 19 24  1  0  0  0  0
 22 25  1  0  0  0  0
 25 26  2  0  0  0  0
 25 27  2  0  0  0  0
 25 28  1  0  0  0  0
 28 29  1  0  0  0  0
 28 30  1  0  0  0  0
 17 31  1  0  0  0  0
  5 31  1  0  0  0  0
 31 32  1  0  0  0  0
 32 33  2  0  0  0  0
  4 33  1  0  0  0  0
M  END
> <DATABASE_ID>
DB01888

> <DATABASE_NAME>
drugbank

> <SMILES>
CC(C)C1=C2N=C(N[C@H]3CC[C@H](N)CC3)C=C(NC3=CC=C(C=C3)S(=O)(=O)N(C)C)N2N=C1

> <INCHI_IDENTIFIER>
InChI=1S/C23H33N7O2S/c1-15(2)20-14-25-30-22(27-18-9-11-19(12-10-18)33(31,32)29(3)4)13-21(28-23(20)30)26-17-7-5-16(24)6-8-17/h9-17,27H,5-8,24H2,1-4H3,(H,26,28)/t16-,17-

> <INCHI_KEY>
MDIWBYRNTPTYQI-QAQDUYKDSA-N

> <FORMULA>
C23H33N7O2S

> <MOLECULAR_WEIGHT>
471.619

> <EXACT_MASS>
471.241644025

> <JCHEM_ACCEPTOR_COUNT>
7

> <JCHEM_ATOM_COUNT>
66

> <JCHEM_AVERAGE_NEUTRAL_MICROSPECIES_CHARGE>
1.0000093782312127

> <JCHEM_AVERAGE_POLARIZABILITY>
52.802114077814196

> <JCHEM_BIOAVAILABILITY>
1

> <JCHEM_DONOR_COUNT>
3

> <JCHEM_FORMAL_CHARGE>
0

> <JCHEM_GHOSE_FILTER>
0

> <JCHEM_IUPAC>
N,N-dimethyl-4-{[3-(propan-2-yl)-5-{[(1r,4r)-4-aminocyclohexyl]amino}pyrazolo[1,5-a]pyrimidin-7-yl]amino}benzene-1-sulfonamide

> <ALOGPS_LOGP>
3.03

> <JCHEM_LOGP>
2.8534873220000003

> <ALOGPS_LOGS>
-4.70

> <JCHEM_MDDR_LIKE_RULE>
1

> <JCHEM_NEUTRAL_CHARGE>
1

> <JCHEM_NUMBER_OF_RINGS>
4

> <JCHEM_PHYSIOLOGICAL_CHARGE>
1

> <JCHEM_PKA>
19.695228734201756

> <JCHEM_PKA_STRONGEST_ACIDIC>
17.142594745492218

> <JCHEM_PKA_STRONGEST_BASIC>
10.451366157914048

> <JCHEM_POLAR_SURFACE_AREA>
117.64999999999998

> <JCHEM_REFRACTIVITY>
142.5037

> <JCHEM_ROTATABLE_BOND_COUNT>
6

> <JCHEM_RULE_OF_FIVE>
1

> <ALOGPS_SOLUBILITY>
9.34e-03 g/l

> <JCHEM_TRADITIONAL_IUPAC>
tetrahydrofolic acid

> <JCHEM_VEBER_RULE>
0

> <DRUGBANK_ID>
DB01888

> <SECONDARY_ACCESSION_NUMBERS>
EXPT01046

> <DRUG_GROUPS>
experimental

> <GENERIC_NAME>
4-[5-(Trans-4-Aminocyclohexylamino)-3-Isopropylpyrazolo[1,5-a]Pyrimidin-7-Ylamino]-N,N-Dimethylbenzenesulfonamide

$$$$
