
  Mrv0541 02241212482D          

 12 12  0  0  0  0            999 V2000
    1.4289    0.0000    0.0000 C   0  0  0  0  0  0  0  0  0  0  0  0
    0.7145   -0.4125    0.0000 C   0  0  0  0  0  0  0  0  0  0  0  0
    0.0000    0.0000    0.0000 C   0  0  0  0  0  0  0  0  0  0  0  0
    0.0000    0.8250    0.0000 C   0  0  0  0  0  0  0  0  0  0  0  0
    0.7145    1.2375    0.0000 C   0  0  0  0  0  0  0  0  0  0  0  0
    1.4289    0.8250    0.0000 C   0  0  0  0  0  0  0  0  0  0  0  0
    0.7145    2.0625    0.0000 I   0  0  0  0  0  0  0  0  0  0  0  0
   -0.7145   -0.4125    0.0000 C   0  0  0  0  0  0  0  0  0  0  0  0
   -0.7145   -1.2375    0.0000 N   0  0  0  0  0  0  0  0  0  0  0  0
   -1.4289   -1.6500    0.0000 C   0  0  0  0  0  0  0  0  0  0  0  0
   -1.4289   -2.4750    0.0000 N   0  0  0  0  0  0  0  0  0  0  0  0
   -2.1434   -1.2375    0.0000 N   0  0  0  0  0  0  0  0  0  0  0  0
  1  2  2  0  0  0  0
  2  3  1  0  0  0  0
  3  4  2  0  0  0  0
  4  5  1  0  0  0  0
  5  6  2  0  0  0  0
  1  6  1  0  0  0  0
  5  7  1  0  0  0  0
  3  8  1  0  0  0  0
  8  9  1  0  0  0  0
  9 10  2  0  0  0  0
 10 11  1  0  0  0  0
 10 12  1  0  0  0  0
M  END
> <DATABASE_ID>
DB06704

> <DATABASE_NAME>
drugbank

> <SMILES>
NC(N)=NCC1=CC(I)=CC=C1

> <INCHI_IDENTIFIER>
InChI=1S/C8H10IN3/c9-7-3-1-2-6(4-7)5-12-8(10)11/h1-4H,5H2,(H4,10,11,12)

> <INCHI_KEY>
PDWUPXJEEYOOTR-UHFFFAOYSA-N

> <FORMULA>
C8H10IN3

> <MOLECULAR_WEIGHT>
275.0896

> <EXACT_MASS>
274.991940755

> <JCHEM_ACCEPTOR_COUNT>
3

> <JCHEM_ATOM_COUNT>
22

> <JCHEM_AVERAGE_NEUTRAL_MICROSPECIES_CHARGE>
0.9999464055846091

> <JCHEM_AVERAGE_POLARIZABILITY>
21.92774033036301

> <JCHEM_BIOAVAILABILITY>
1

> <JCHEM_DONOR_COUNT>
2

> <JCHEM_FORMAL_CHARGE>
0

> <JCHEM_GHOSE_FILTER>
1

> <JCHEM_IUPAC>
N''-[(3-iodophenyl)methyl]guanidine

> <ALOGPS_LOGP>
1.53

> <JCHEM_LOGP>
1.6402546463333332

> <ALOGPS_LOGS>
-3.50

> <JCHEM_MDDR_LIKE_RULE>
0

> <JCHEM_NEUTRAL_CHARGE>
1

> <JCHEM_NUMBER_OF_RINGS>
1

> <JCHEM_PHYSIOLOGICAL_CHARGE>
1

> <JCHEM_PKA_STRONGEST_BASIC>
11.270847308527944

> <JCHEM_POLAR_SURFACE_AREA>
64.39999999999999

> <JCHEM_REFRACTIVITY>
58.31569999999999

> <JCHEM_ROTATABLE_BOND_COUNT>
2

> <JCHEM_RULE_OF_FIVE>
1

> <ALOGPS_SOLUBILITY>
8.78e-02 g/l

> <JCHEM_TRADITIONAL_IUPAC>
tetrahydrofolic acid

> <JCHEM_VEBER_RULE>
0

> <DRUGBANK_ID>
DB06704

> <SECONDARY_ACCESSION_NUMBERS>
DB09497

> <DRUG_GROUPS>
approved; investigational

> <GENERIC_NAME>
Iobenguane

> <SYNONYMS>
((3-iodophenyl)methyl)guanidine; 3-iodobenzylguanidine; m-iodobenzylguanidine; Metaiodobenzylguanidine; mIBG

> <PRODUCTS>
AdreView; Azedra; Iobenguane Sulfate I 131 Injection

> <SALTS>
Iobenguane I 123; Iobenguane I 131; Iobenguane sulfate; Iobenguane sulfate I 123; Iobenguane sulfate I 131

$$$$
