
  Mrv0541 05041410302D          

 88 89  0  0  1  0            999 V2000
    7.8592  -13.6125    0.0000 C   0  0  0  0  0  0  0  0  0  0  0  0
   13.5749  -12.7875    0.0000 C   0  0  0  0  0  0  0  0  0  0  0  0
    9.2881   -7.8375    0.0000 C   0  0  0  0  0  0  0  0  0  0  0  0
   11.4315   -9.0750    0.0000 C   0  0  0  0  0  0  0  0  0  0  0  0
    6.4302   -7.8375    0.0000 C   0  0  0  0  0  0  0  0  0  0  0  0
   11.4315  -16.5000    0.0000 C   0  0  0  0  0  0  0  0  0  0  0  0
    9.2881  -10.3125    0.0000 C   0  0  0  0  0  0  0  0  0  0  0  0
   15.0039  -10.3125    0.0000 C   0  0  0  0  0  0  0  0  0  0  0  0
   12.8605  -14.0250    0.0000 C   0  0  0  0  0  0  0  0  0  0  0  0
    7.1447  -14.0250    0.0000 C   0  0  0  0  0  0  0  0  0  0  0  0
    6.4302  -10.3125    0.0000 C   0  0  0  0  0  0  0  0  0  0  0  0
   14.2894  -11.5500    0.0000 C   0  0  0  0  0  0  0  0  0  0  0  0
   12.1460  -15.2625    0.0000 C   0  0  0  0  0  0  0  0  0  0  0  0
   10.7171   -7.8375    0.0000 C   0  0  0  0  0  0  0  0  0  0  0  0
    9.2881  -12.7875    0.0000 C   0  0  0  0  0  0  0  0  0  0  0  0
    9.2881  -13.6125    0.0000 C   0  0  0  0  0  0  0  0  0  0  0  0
   10.0026  -12.3750    0.0000 C   0  0  0  0  0  0  0  0  0  0  0  0
   12.1460  -12.7875    0.0000 C   0  0  0  0  0  0  0  0  0  0  0  0
   12.1460  -10.3125    0.0000 C   0  0  0  0  0  0  0  0  0  0  0  0
    8.5737   -9.0750    0.0000 C   0  0  0  0  0  0  0  0  0  0  0  0
   12.1460  -13.6125    0.0000 C   0  0  0  0  0  0  0  0  0  0  0  0
   12.8605   -9.9000    0.0000 C   0  0  0  0  0  0  0  0  0  0  0  0
    7.8592   -8.6625    0.0000 C   0  0  0  0  0  0  0  0  0  0  0  0
    5.0013   -8.6625    0.0000 C   0  0  0  0  0  0  0  0  0  0  0  0
    4.2868   -9.0750    0.0000 C   0  0  0  0  0  0  0  0  0  0  0  0
    8.5737  -14.8500    0.0000 C   0  0  0  0  0  0  0  0  0  0  0  0
    7.8592  -16.0875    0.0000 C   0  0  0  0  0  0  0  0  0  0  0  0
    9.2881  -16.0875    0.0000 C   0  0  0  0  0  0  0  0  0  0  0  0
    8.5737  -17.3250    0.0000 C   0  0  0  0  0  0  0  0  0  0  0  0
   13.5749  -11.1375    0.0000 C   0  0  0  0  0  0  0  0  0  0  0  0
   11.4315  -14.8500    0.0000 C   0  0  0  0  0  0  0  0  0  0  0  0
    8.5737  -14.0250    0.0000 C   0  0  0  0  0  0  0  0  0  0  0  0
   12.8605  -12.3750    0.0000 C   0  0  1  0  0  0  0  0  0  0  0  0
    9.2881   -8.6625    0.0000 C   0  0  1  0  0  0  0  0  0  0  0  0
   11.4315   -9.9000    0.0000 C   0  0  1  0  0  0  0  0  0  0  0  0
    6.4302   -8.6625    0.0000 C   0  0  1  0  0  0  0  0  0  0  0  0
   10.7171  -16.0875    0.0000 C   0  0  2  0  0  0  0  0  0  0  0  0
   10.0026   -9.9000    0.0000 C   0  0  1  0  0  0  0  0  0  0  0  0
    8.5737  -16.5000    0.0000 C   0  0  0  0  0  0  0  0  0  0  0  0
   13.5749  -10.3125    0.0000 C   0  0  1  0  0  0  0  0  0  0  0  0
   11.4315  -14.0250    0.0000 C   0  0  2  0  0  0  0  0  0  0  0  0
    7.8592  -15.2625    0.0000 C   0  0  2  0  0  0  0  0  0  0  0  0
    7.1447   -9.0750    0.0000 C   0  0  0  0  0  0  0  0  0  0  0  0
    5.7158   -9.0750    0.0000 C   0  0  2  0  0  0  0  0  0  0  0  0
   12.8605  -11.5500    0.0000 C   0  0  1  0  0  0  0  0  0  0  0  0
   10.7171  -15.2625    0.0000 C   0  0  1  0  0  0  0  0  0  0  0  0
   10.0026  -16.5000    0.0000 C   0  0  2  0  0  0  0  0  0  0  0  0
    3.5724   -8.6625    0.0000 C   0  0  0  0  0  0  0  0  0  0  0  0
   10.0026  -11.5500    0.0000 C   0  0  0  0  0  0  0  0  0  0  0  0
    9.2881  -17.7375    0.0000 C   0  0  0  0  0  0  0  0  0  0  0  0
   10.0026   -9.0750    0.0000 C   0  0  1  0  0  0  0  0  0  0  0  0
   10.7171  -10.3125    0.0000 C   0  0  1  0  0  0  0  0  0  0  0  0
    7.1447   -9.9000    0.0000 O   0  0  0  0  0  0  0  0  0  0  0  0
    2.8579   -9.0750    0.0000 O   0  0  0  0  0  0  0  0  0  0  0  0
    3.5724   -7.8375    0.0000 O   0  0  0  0  0  0  0  0  0  0  0  0
    9.2881  -11.1375    0.0000 O   0  0  0  0  0  0  0  0  0  0  0  0
    9.2881  -18.5625    0.0000 O   0  0  0  0  0  0  0  0  0  0  0  0
   14.2894   -9.9000    0.0000 O   0  0  0  0  0  0  0  0  0  0  0  0
   12.1460  -14.4375    0.0000 O   0  0  0  0  0  0  0  0  0  0  0  0
    7.1447  -14.8500    0.0000 O   0  0  0  0  0  0  0  0  0  0  0  0
    5.7158   -9.9000    0.0000 O   0  0  0  0  0  0  0  0  0  0  0  0
   13.5749  -11.9625    0.0000 O   0  0  0  0  0  0  0  0  0  0  0  0
   11.4315  -15.6750    0.0000 O   0  0  0  0  0  0  0  0  0  0  0  0
   10.7171   -8.6625    0.0000 O   0  0  0  0  0  0  0  0  0  0  0  0
   10.0026  -17.3250    0.0000 O   0  0  0  0  0  0  0  0  0  0  0  0
   10.7171  -11.1375    0.0000 O   0  0  0  0  0  0  0  0  0  0  0  0
    8.5737  -12.3750    0.0000 H   0  0  0  0  0  0  0  0  0  0  0  0
   10.0026  -14.0250    0.0000 H   0  0  0  0  0  0  0  0  0  0  0  0
   10.7171  -12.7875    0.0000 H   0  0  0  0  0  0  0  0  0  0  0  0
   11.4315  -12.3750    0.0000 H   0  0  0  0  0  0  0  0  0  0  0  0
   12.1460  -11.1375    0.0000 H   0  0  0  0  0  0  0  0  0  0  0  0
   12.6763  -14.2445    0.0000 H   0  0  0  0  0  0  0  0  0  0  0  0
   12.8605   -9.0750    0.0000 H   0  0  0  0  0  0  0  0  0  0  0  0
   12.8605  -13.2000    0.0000 H   0  0  0  0  0  0  0  0  0  0  0  0
    8.5737   -8.2500    0.0000 H   0  0  0  0  0  0  0  0  0  0  0  0
   12.1460   -9.4875    0.0000 H   0  0  0  0  0  0  0  0  0  0  0  0
    7.1447   -8.2500    0.0000 H   0  0  0  0  0  0  0  0  0  0  0  0
   11.5295  -15.9442    0.0000 H   0  0  0  0  0  0  0  0  0  0  0  0
    9.1901   -9.7567    0.0000 H   0  0  0  0  0  0  0  0  0  0  0  0
   13.5749   -9.4875    0.0000 H   0  0  0  0  0  0  0  0  0  0  0  0
   12.2565  -14.0250    0.0000 H   0  0  0  0  0  0  0  0  0  0  0  0
    7.8592  -14.4375    0.0000 H   0  0  0  0  0  0  0  0  0  0  0  0
    5.7158   -8.2500    0.0000 H   0  0  0  0  0  0  0  0  0  0  0  0
   13.6855  -11.5500    0.0000 H   0  0  0  0  0  0  0  0  0  0  0  0
   11.5421  -15.2625    0.0000 H   0  0  0  0  0  0  0  0  0  0  0  0
   10.7171  -16.9125    0.0000 H   0  0  0  0  0  0  0  0  0  0  0  0
    9.1901   -9.2183    0.0000 H   0  0  0  0  0  0  0  0  0  0  0  0
   10.7171   -9.4875    0.0000 H   0  0  0  0  0  0  0  0  0  0  0  0
 16 15  1  0  0  0  0
 17 15  2  0  0  0  0
 21 18  2  0  0  0  0
 22 19  2  0  0  0  0
 23 20  1  0  0  0  0
 25 24  1  0  0  0  0
 32  1  1  0  0  0  0
 32 16  2  0  0  0  0
 32 26  1  0  0  0  0
 33  2  1  1  0  0  0
 33 18  1  0  0  0  0
 34  3  1  6  0  0  0
 34 20  1  0  0  0  0
 35  4  1  1  0  0  0
 35 19  1  0  0  0  0
 36  5  1  1  0  0  0
 37  6  1  1  0  0  0
 38  7  1  1  0  0  0
 39 27  1  0  0  0  0
 39 28  1  0  0  0  0
 39 29  2  0  0  0  0
 40 22  1  0  0  0  0
 40 30  1  0  0  0  0
 41 21  1  0  0  0  0
 41 31  1  0  0  0  0
 42 26  1  0  0  0  0
 42 27  1  0  0  0  0
 43 23  1  0  0  0  0
 43 36  1  0  0  0  0
 44 24  1  0  0  0  0
 44 36  1  0  0  0  0
 45 30  1  0  0  0  0
 45 33  1  0  0  0  0
 46 31  1  0  0  0  0
 46 37  1  0  0  0  0
 47 28  1  0  0  0  0
 47 37  1  0  0  0  0
 48 25  1  0  0  0  0
 49 17  1  0  0  0  0
 50 29  1  0  0  0  0
 51 34  1  0  0  0  0
 51 38  1  0  0  0  0
 52 35  1  0  0  0  0
 52 38  1  6  0  0  0
 53 43  2  0  0  0  0
 54 48  2  0  0  0  0
 55 48  1  0  0  0  0
 56 49  2  0  0  0  0
 57 50  2  0  0  0  0
 58  8  1  0  0  0  0
 40 58  1  6  0  0  0
 59  9  1  0  0  0  0
 41 59  1  1  0  0  0
 60 10  1  0  0  0  0
 42 60  1  6  0  0  0
 61 11  1  0  0  0  0
 44 61  1  1  0  0  0
 62 12  1  0  0  0  0
 45 62  1  6  0  0  0
 63 13  1  0  0  0  0
 46 63  1  6  0  0  0
 64 14  1  0  0  0  0
 51 64  1  1  0  0  0
 65 47  1  0  0  0  0
 65 50  1  0  0  0  0
 66 49  1  0  0  0  0
 66 52  1  0  0  0  0
 67 15  1  0  0  0  0
 68 16  1  0  0  0  0
 69 17  1  0  0  0  0
 70 18  1  0  0  0  0
 71 19  1  0  0  0  0
 72 21  1  0  0  0  0
 73 22  1  0  0  0  0
 33 74  1  6  0  0  0
 34 75  1  1  0  0  0
 35 76  1  6  0  0  0
 36 77  1  6  0  0  0
 37 78  1  6  0  0  0
 38 79  1  6  0  0  0
 40 80  1  1  0  0  0
 41 81  1  6  0  0  0
 42 82  1  1  0  0  0
 44 83  1  1  0  0  0
 45 84  1  1  0  0  0
 46 85  1  1  0  0  0
 47 86  1  1  0  0  0
 51 87  1  1  0  0  0
 52 88  1  1  0  0  0
M  END
> <DATABASE_ID>
DB04775

> <DATABASE_NAME>
drugbank

> <SMILES>
[H]/C1=C([H])\C(=O)O[C@]([H])([C@@]([H])(C)[C@@]([H])(OC)[C@@]([H])(C)CCC(=O)[C@]([H])(C)[C@@]([H])(CCC(O)=O)OC)[C@@]([H])(C)\C([H])=C([H])\[C@@]([H])(C[C@]([H])(OC)[C@@]([H])(C)\C([H])=C([H])\[C@]([H])(C[C@]([H])(OC)[C@@]([H])(C)[C@@]2([H])CC(C[C@@]([H])(C\C(C)=C\1/[H])OC)=CC(=O)O2)OC)OC

> <INCHI_IDENTIFIER>
InChI=1S/C52H84O14/c1-32-16-15-17-49(56)66-52(38(7)51(64-14)34(3)20-23-43(53)36(5)44(61-11)24-25-48(54)55)35(4)19-22-40(58-8)30-45(62-12)33(2)18-21-41(59-9)31-46(63-13)37(6)47-28-39(29-50(57)65-47)27-42(26-32)60-10/h15-19,21-22,29,33-38,40-42,44-47,51-52H,20,23-28,30-31H2,1-14H3,(H,54,55)/b17-15+,21-18+,22-19+,32-16+/t33-,34-,35-,36-,37+,38-,40-,41+,42+,44+,45-,46-,47+,51-,52-/m0/s1

> <INCHI_KEY>
QTLSHCJDXCYLJK-VRWAWWQJSA-N

> <FORMULA>
C52H84O14

> <MOLECULAR_WEIGHT>
933.215

> <EXACT_MASS>
932.586107396

> <JCHEM_ACCEPTOR_COUNT>
12

> <JCHEM_ATOM_COUNT>
150

> <JCHEM_AVERAGE_NEUTRAL_MICROSPECIES_CHARGE>
-0.9976502815035249

> <JCHEM_AVERAGE_POLARIZABILITY>
105.23218194282177

> <JCHEM_BIOAVAILABILITY>
0

> <JCHEM_DONOR_COUNT>
1

> <JCHEM_FORMAL_CHARGE>
0

> <JCHEM_GHOSE_FILTER>
0

> <JCHEM_IUPAC>
(4R,5R,9S,10S,11S)-4,10-dimethoxy-5,9-dimethyl-6-oxo-11-[(3R,5E,7E,11S,12S,13E,15R,17S,18S,19E,21S,23S,24R,25R)-3,15,17,21,23-pentamethoxy-5,12,18,24-tetramethyl-9,27-dioxo-10,26-dioxabicyclo[23.3.1]nonacosa-1(28),5,7,13,19-pentaen-11-yl]dodecanoic acid

> <ALOGPS_LOGP>
5.60

> <JCHEM_LOGP>
7.759553970666671

> <ALOGPS_LOGS>
-6.34

> <JCHEM_MDDR_LIKE_RULE>
0

> <JCHEM_NEUTRAL_CHARGE>
-1

> <JCHEM_NUMBER_OF_RINGS>
2

> <JCHEM_PHYSIOLOGICAL_CHARGE>
-1

> <JCHEM_PKA>
17.308595575384825

> <JCHEM_PKA_STRONGEST_ACIDIC>
4.372037504877416

> <JCHEM_PKA_STRONGEST_BASIC>
-3.3527193361596073

> <JCHEM_POLAR_SURFACE_AREA>
171.57999999999996

> <JCHEM_REFRACTIVITY>
259.26239999999996

> <JCHEM_ROTATABLE_BOND_COUNT>
18

> <JCHEM_RULE_OF_FIVE>
0

> <ALOGPS_SOLUBILITY>
4.31e-04 g/l

> <JCHEM_TRADITIONAL_IUPAC>
tetrahydrofolic acid

> <JCHEM_VEBER_RULE>
0

> <DRUGBANK_ID>
DB04775

> <DRUG_GROUPS>
experimental

> <GENERIC_NAME>
Reidispongiolide C

$$$$
