
  Mrv0541 02231216332D          

 15 15  0  0  0  0            999 V2000
   -0.7145    2.8875    0.0000 O   0  0  0  0  0  0  0  0  0  0  0  0
    0.0000    2.4750    0.0000 P   0  0  0  0  0  0  0  0  0  0  0  0
   -0.4125    1.7605    0.0000 O   0  0  0  0  0  0  0  0  0  0  0  0
    0.4125    3.1895    0.0000 O   0  0  0  0  0  0  0  0  0  0  0  0
    0.7145    2.0625    0.0000 C   0  0  0  0  0  0  0  0  0  0  0  0
    0.7145    1.2375    0.0000 C   0  0  0  0  0  0  0  0  0  0  0  0
    1.4289    0.8250    0.0000 C   0  0  0  0  0  0  0  0  0  0  0  0
    1.4289    0.0000    0.0000 C   0  0  0  0  0  0  0  0  0  0  0  0
    0.7145   -0.4125    0.0000 C   0  0  0  0  0  0  0  0  0  0  0  0
    0.0000    0.0000    0.0000 C   0  0  0  0  0  0  0  0  0  0  0  0
    0.0000    0.8250    0.0000 C   0  0  0  0  0  0  0  0  0  0  0  0
    1.4289    2.4750    0.0000 P   0  0  0  0  0  0  0  0  0  0  0  0
    2.1434    2.8875    0.0000 O   0  0  0  0  0  0  0  0  0  0  0  0
    1.8414    1.7605    0.0000 O   0  0  0  0  0  0  0  0  0  0  0  0
    1.0164    3.1895    0.0000 O   0  0  0  0  0  0  0  0  0  0  0  0
  1  2  1  0  0  0  0
  2  3  1  0  0  0  0
  2  4  2  0  0  0  0
  2  5  1  0  0  0  0
  5  6  1  0  0  0  0
  6  7  2  0  0  0  0
  7  8  1  0  0  0  0
  8  9  2  0  0  0  0
  9 10  1  0  0  0  0
 10 11  2  0  0  0  0
  6 11  1  0  0  0  0
  5 12  1  0  0  0  0
 12 13  1  0  0  0  0
 12 14  1  0  0  0  0
 12 15  2  0  0  0  0
M  END
> <DATABASE_ID>
DB02908

> <DATABASE_NAME>
drugbank

> <SMILES>
OP(O)(=O)C(C1=CC=CC=C1)P(O)(O)=O

> <INCHI_IDENTIFIER>
InChI=1S/C7H10O6P2/c8-14(9,10)7(15(11,12)13)6-4-2-1-3-5-6/h1-5,7H,(H2,8,9,10)(H2,11,12,13)

> <INCHI_KEY>
FRLTXWJJMCIUNT-UHFFFAOYSA-N

> <FORMULA>
C7H10O6P2

> <MOLECULAR_WEIGHT>
252.0982

> <EXACT_MASS>
251.995261076

> <JCHEM_ACCEPTOR_COUNT>
6

> <JCHEM_ATOM_COUNT>
25

> <JCHEM_AVERAGE_NEUTRAL_MICROSPECIES_CHARGE>
-2.3477432232466398

> <JCHEM_AVERAGE_POLARIZABILITY>
19.603641671185237

> <JCHEM_BIOAVAILABILITY>
1

> <JCHEM_DONOR_COUNT>
4

> <JCHEM_FORMAL_CHARGE>
0

> <JCHEM_GHOSE_FILTER>
0

> <JCHEM_IUPAC>
[phenyl(phosphono)methyl]phosphonic acid

> <ALOGPS_LOGP>
0.03

> <JCHEM_LOGP>
-0.49395093266666623

> <ALOGPS_LOGS>
-1.48

> <JCHEM_MDDR_LIKE_RULE>
0

> <JCHEM_NEUTRAL_CHARGE>
-2

> <JCHEM_NUMBER_OF_RINGS>
1

> <JCHEM_PHYSIOLOGICAL_CHARGE>
-3

> <JCHEM_PKA>
1.890424180522785

> <JCHEM_PKA_STRONGEST_ACIDIC>
1.1344327228374118

> <JCHEM_POLAR_SURFACE_AREA>
115.06

> <JCHEM_REFRACTIVITY>
52.449600000000004

> <JCHEM_ROTATABLE_BOND_COUNT>
3

> <JCHEM_RULE_OF_FIVE>
1

> <ALOGPS_SOLUBILITY>
8.42e+00 g/l

> <JCHEM_TRADITIONAL_IUPAC>
tetrahydrofolic acid

> <JCHEM_VEBER_RULE>
0

> <DRUGBANK_ID>
DB02908

> <SECONDARY_ACCESSION_NUMBERS>
EXPT00303

> <DRUG_GROUPS>
experimental

> <GENERIC_NAME>
RU78783

$$$$
