
  Mrv0541 02231217192D          

 10 10  0  0  0  0            999 V2000
    1.4289   -1.6500    0.0000 O   0  0  0  0  0  0  0  0  0  0  0  0
    0.7145   -1.2375    0.0000 C   0  0  0  0  0  0  0  0  0  0  0  0
    0.0000   -1.6500    0.0000 O   0  0  0  0  0  0  0  0  0  0  0  0
    0.7145   -0.4125    0.0000 C   0  0  0  0  0  0  0  0  0  0  0  0
    0.0000    0.0000    0.0000 C   0  0  0  0  0  0  0  0  0  0  0  0
    0.0000    0.8250    0.0000 C   0  0  0  0  0  0  0  0  0  0  0  0
    0.7145    1.2375    0.0000 C   0  0  0  0  0  0  0  0  0  0  0  0
    0.7145    2.0625    0.0000 Hg  0  0  0  0  0  0  0  0  0  0  0  0
    1.4289    0.8250    0.0000 C   0  0  0  0  0  0  0  0  0  0  0  0
    1.4289    0.0000    0.0000 C   0  0  0  0  0  0  0  0  0  0  0  0
  1  2  1  0  0  0  0
  2  3  2  0  0  0  0
  2  4  1  0  0  0  0
  4  5  2  0  0  0  0
  5  6  1  0  0  0  0
  6  7  2  0  0  0  0
  7  8  1  0  0  0  0
  7  9  1  0  0  0  0
  9 10  2  0  0  0  0
  4 10  1  0  0  0  0
M  END
> <DATABASE_ID>
DB03975

> <DATABASE_NAME>
drugbank

> <SMILES>
OC(=O)C1=CC=C([Hg])C=C1

> <INCHI_IDENTIFIER>
InChI=1S/C7H5O2.Hg/c8-7(9)6-4-2-1-3-5-6;/h2-5H,(H,8,9);

> <INCHI_KEY>
FVFZSVRSDNUCGG-UHFFFAOYSA-N

> <FORMULA>
C7H5HgO2

> <MOLECULAR_WEIGHT>
321.7

> <EXACT_MASS>
322.999580008

> <JCHEM_ACCEPTOR_COUNT>
2

> <JCHEM_ATOM_COUNT>
15

> <JCHEM_AVERAGE_NEUTRAL_MICROSPECIES_CHARGE>
-0.9989441437773258

> <JCHEM_AVERAGE_POLARIZABILITY>
13.921456693711011

> <JCHEM_BIOAVAILABILITY>
1

> <JCHEM_DONOR_COUNT>
1

> <JCHEM_FORMAL_CHARGE>
0

> <JCHEM_GHOSE_FILTER>
0

> <JCHEM_IUPAC>
(4-carboxyphenyl)mercury

> <ALOGPS_LOGP>
0.56

> <JCHEM_LOGP>
0.4180999999999999

> <ALOGPS_LOGS>
-0.83

> <JCHEM_MDDR_LIKE_RULE>
0

> <JCHEM_NEUTRAL_CHARGE>
-1

> <JCHEM_NUMBER_OF_RINGS>
1

> <JCHEM_PHYSIOLOGICAL_CHARGE>
-1

> <JCHEM_PKA_STRONGEST_ACIDIC>
4.024063578559564

> <JCHEM_POLAR_SURFACE_AREA>
37.3

> <JCHEM_REFRACTIVITY>
32.7305

> <JCHEM_ROTATABLE_BOND_COUNT>
1

> <JCHEM_RULE_OF_FIVE>
1

> <ALOGPS_SOLUBILITY>
4.77e+01 g/l

> <JCHEM_TRADITIONAL_IUPAC>
biotin

> <JCHEM_VEBER_RULE>
1

> <DRUGBANK_ID>
DB03975

> <SECONDARY_ACCESSION_NUMBERS>
EXPT02124

> <DRUG_GROUPS>
experimental

> <GENERIC_NAME>
Mercuribenzoic Acid

$$$$
