
  Mrv0541 02231217482D          

 14 13  0  0  1  0            999 V2000
    2.9980    1.7309    0.0000 C   0  0  0  0  0  0  0  0  0  0  0  0
    3.7125    2.1434    0.0000 C   0  0  0  0  0  0  0  0  0  0  0  0
    4.1250    1.4289    0.0000 C   0  0  0  0  0  0  0  0  0  0  0  0
    3.3000    2.8579    0.0000 C   0  0  0  0  0  0  0  0  0  0  0  0
    4.4270    2.5559    0.0000 O   0  0  0  0  0  0  0  0  0  0  0  0
    5.1414    2.1434    0.0000 C   0  0  0  0  0  0  0  0  0  0  0  0
    5.1414    1.3184    0.0000 O   0  0  0  0  0  0  0  0  0  0  0  0
    5.8559    2.5559    0.0000 C   0  0  1  0  0  0  0  0  0  0  0  0
    5.8559    3.3809    0.0000 N   0  0  0  0  0  0  0  0  0  0  0  0
    6.5704    2.1434    0.0000 C   0  0  0  0  0  0  0  0  0  0  0  0
    7.2849    2.5559    0.0000 C   0  0  0  0  0  0  0  0  0  0  0  0
    7.9993    2.1434    0.0000 C   0  0  0  0  0  0  0  0  0  0  0  0
    8.7138    2.5559    0.0000 N   0  0  0  0  0  0  0  0  0  0  0  0
    7.9993    1.3184    0.0000 O   0  0  0  0  0  0  0  0  0  0  0  0
  1  2  1  0  0  0  0
  2  3  1  0  0  0  0
  2  4  1  0  0  0  0
  2  5  1  0  0  0  0
  5  6  1  0  0  0  0
  6  7  2  0  0  0  0
  6  8  1  0  0  0  0
  8  9  1  1  0  0  0
  8 10  1  0  0  0  0
 10 11  1  0  0  0  0
 11 12  1  0  0  0  0
 12 13  1  0  0  0  0
 12 14  2  0  0  0  0
M  END
> <DATABASE_ID>
DB04636

> <DATABASE_NAME>
drugbank

> <SMILES>
CC(C)(C)OC(=O)[C@@H](N)CCC(N)=O

> <INCHI_IDENTIFIER>
InChI=1S/C9H18N2O3/c1-9(2,3)14-8(13)6(10)4-5-7(11)12/h6H,4-5,10H2,1-3H3,(H2,11,12)/t6-/m0/s1

> <INCHI_KEY>
VVOPSEUXHSUTJS-LURJTMIESA-N

> <FORMULA>
C9H18N2O3

> <MOLECULAR_WEIGHT>
202.2508

> <EXACT_MASS>
202.131742452

> <JCHEM_ACCEPTOR_COUNT>
3

> <JCHEM_ATOM_COUNT>
32

> <JCHEM_AVERAGE_NEUTRAL_MICROSPECIES_CHARGE>
0.6037693190593981

> <JCHEM_AVERAGE_POLARIZABILITY>
21.45988459861391

> <JCHEM_BIOAVAILABILITY>
1

> <JCHEM_DONOR_COUNT>
2

> <JCHEM_FORMAL_CHARGE>
0

> <JCHEM_GHOSE_FILTER>
0

> <JCHEM_IUPAC>
tert-butyl (2S)-2-amino-4-carbamoylbutanoate

> <ALOGPS_LOGP>
-0.27

> <JCHEM_LOGP>
-0.5389509296666665

> <ALOGPS_LOGS>
-1.15

> <JCHEM_MDDR_LIKE_RULE>
0

> <JCHEM_NEUTRAL_CHARGE>
1

> <JCHEM_NUMBER_OF_RINGS>
0

> <JCHEM_PHYSIOLOGICAL_CHARGE>
1

> <JCHEM_PKA_STRONGEST_ACIDIC>
16.457185351948862

> <JCHEM_PKA_STRONGEST_BASIC>
7.1829229370515115

> <JCHEM_POLAR_SURFACE_AREA>
95.41

> <JCHEM_REFRACTIVITY>
51.68460000000001

> <JCHEM_ROTATABLE_BOND_COUNT>
6

> <JCHEM_RULE_OF_FIVE>
1

> <ALOGPS_SOLUBILITY>
1.44e+01 g/l

> <JCHEM_TRADITIONAL_IUPAC>
tetrahydrofolic acid

> <JCHEM_VEBER_RULE>
0

> <DRUGBANK_ID>
DB04636

> <DRUG_GROUPS>
experimental

> <GENERIC_NAME>
Glutamine t-butyl ester

$$$$
