
  Mrv0541 05041400192D          

 12 11  0  0  1  0            999 V2000
    4.0954    0.7145    0.0000 C   0  0  0  0  0  0  0  0  0  0  0  0
    1.2375    0.7145    0.0000 C   0  0  0  0  0  0  0  0  0  0  0  0
    3.3809    1.1270    0.0000 C   0  0  0  0  0  0  0  0  0  0  0  0
    1.9520    1.1270    0.0000 C   0  0  0  0  0  0  0  0  0  0  0  0
    4.8099    1.1270    0.0000 C   0  0  1  0  0  0  0  0  0  0  0  0
    5.5243    0.7145    0.0000 C   0  0  0  0  0  0  0  0  0  0  0  0
    0.5230    1.1270    0.0000 N   0  0  0  0  0  0  0  0  0  0  0  0
    4.8099    1.9520    0.0000 N   0  0  0  0  0  0  0  0  0  0  0  0
    6.2388    1.1270    0.0000 O   0  0  0  0  0  0  0  0  0  0  0  0
    5.5243   -0.1105    0.0000 O   0  0  0  0  0  0  0  0  0  0  0  0
    2.6664    0.7145    0.0000 O   0  0  0  0  0  0  0  0  0  0  0  0
    4.8099    0.3020    0.0000 H   0  0  0  0  0  0  0  0  0  0  0  0
  3  1  1  0  0  0  0
  4  2  1  0  0  0  0
  5  1  1  0  0  0  0
  6  5  1  0  0  0  0
  7  2  1  0  0  0  0
  5  8  1  1  0  0  0
  9  6  2  0  0  0  0
 10  6  1  0  0  0  0
 11  3  1  0  0  0  0
 11  4  1  0  0  0  0
  5 12  1  1  0  0  0
M  END
> <DATABASE_ID>
DB02971

> <DATABASE_NAME>
drugbank

> <SMILES>
[H][C@](N)(CCOCCN)C(O)=O

> <INCHI_IDENTIFIER>
InChI=1S/C6H14N2O3/c7-2-4-11-3-1-5(8)6(9)10/h5H,1-4,7-8H2,(H,9,10)/t5-/m0/s1

> <INCHI_KEY>
FDDYPVBIHWFLOI-YFKPBYRVSA-N

> <FORMULA>
C6H14N2O3

> <MOLECULAR_WEIGHT>
162.187

> <EXACT_MASS>
162.100442324

> <JCHEM_ACCEPTOR_COUNT>
5

> <JCHEM_ATOM_COUNT>
25

> <JCHEM_AVERAGE_NEUTRAL_MICROSPECIES_CHARGE>
0.9912406368910032

> <JCHEM_AVERAGE_POLARIZABILITY>
17.030051573551773

> <JCHEM_BIOAVAILABILITY>
1

> <JCHEM_DONOR_COUNT>
3

> <JCHEM_FORMAL_CHARGE>
0

> <JCHEM_GHOSE_FILTER>
0

> <JCHEM_IUPAC>
(2S)-2-amino-4-(2-aminoethoxy)butanoic acid

> <ALOGPS_LOGP>
-3.73

> <JCHEM_LOGP>
-4.390947656190154

> <ALOGPS_LOGS>
-0.01

> <JCHEM_MDDR_LIKE_RULE>
0

> <JCHEM_NEUTRAL_CHARGE>
1

> <JCHEM_NUMBER_OF_RINGS>
0

> <JCHEM_PHYSIOLOGICAL_CHARGE>
1

> <JCHEM_PKA_STRONGEST_ACIDIC>
2.446204973137564

> <JCHEM_PKA_STRONGEST_BASIC>
9.753577734327868

> <JCHEM_POLAR_SURFACE_AREA>
98.57000000000001

> <JCHEM_REFRACTIVITY>
39.607400000000005

> <JCHEM_ROTATABLE_BOND_COUNT>
6

> <JCHEM_RULE_OF_FIVE>
1

> <ALOGPS_SOLUBILITY>
1.59e+02 g/l

> <JCHEM_TRADITIONAL_IUPAC>
biotin

> <JCHEM_VEBER_RULE>
0

> <DRUGBANK_ID>
DB02971

> <SECONDARY_ACCESSION_NUMBERS>
EXPT00593

> <DRUG_GROUPS>
experimental

> <GENERIC_NAME>
2-Amino-4-(2-Amino-Ethoxy)-Butyric Acid

$$$$
