
  Mrv0541 05031422442D          

 28 31  0  0  0  0            999 V2000
   -2.0051    3.2704    0.0000 C   0  0  0  0  0  0  0  0  0  0  0  0
   -2.4176    2.5559    0.0000 C   0  0  0  0  0  0  0  0  0  0  0  0
   -1.1801    3.2704    0.0000 C   0  0  0  0  0  0  0  0  0  0  0  0
   -2.0051    1.8414    0.0000 C   0  0  0  0  0  0  0  0  0  0  0  0
   -0.7676    2.5559    0.0000 C   0  0  0  0  0  0  0  0  0  0  0  0
    3.9934    0.8250    0.0000 C   0  0  0  0  0  0  0  0  0  0  0  0
    3.2789    1.2375    0.0000 C   0  0  0  0  0  0  0  0  0  0  0  0
   -1.1801   -1.0164    0.0000 C   0  0  0  0  0  0  0  0  0  0  0  0
   -0.7676   -1.7309    0.0000 C   0  0  0  0  0  0  0  0  0  0  0  0
   -1.1801    0.4125    0.0000 C   0  0  0  0  0  0  0  0  0  0  0  0
    0.0574   -0.3020    0.0000 C   0  0  0  0  0  0  0  0  0  0  0  0
    3.2789   -0.4125    0.0000 C   0  0  0  0  0  0  0  0  0  0  0  0
   -0.7676   -0.3020    0.0000 C   0  0  0  0  0  0  0  0  0  0  0  0
   -1.1801    1.8414    0.0000 C   0  0  0  0  0  0  0  0  0  0  0  0
    3.9934    0.0000    0.0000 C   0  0  0  0  0  0  0  0  0  0  0  0
   -0.7676    1.1270    0.0000 C   0  0  0  0  0  0  0  0  0  0  0  0
    0.4699    0.4125    0.0000 C   0  0  0  0  0  0  0  0  0  0  0  0
    2.5645    0.8250    0.0000 C   0  0  0  0  0  0  0  0  0  0  0  0
    2.5645    0.0000    0.0000 C   0  0  0  0  0  0  0  0  0  0  0  0
    0.0574    1.1270    0.0000 C   0  0  0  0  0  0  0  0  0  0  0  0
    4.7079   -0.4125    0.0000 C   0  0  0  0  0  0  0  0  0  0  0  0
    1.2949    0.4125    0.0000 C   0  0  0  0  0  0  0  0  0  0  0  0
   -1.1801   -2.4454    0.0000 N   0  3  0  0  0  0  0  0  0  0  0  0
    5.4223   -0.0000    0.0000 N   0  0  0  0  0  0  0  0  0  0  0  0
    4.7079   -1.2375    0.0000 N   0  0  0  0  0  0  0  0  0  0  0  0
    1.7798    1.0799    0.0000 N   0  0  0  0  0  0  0  0  0  0  0  0
    1.7798   -0.2549    0.0000 N   0  0  0  0  0  0  0  0  0  0  0  0
    0.4699    1.8414    0.0000 O   0  0  0  0  0  0  0  0  0  0  0  0
  2  1  2  0  0  0  0
  3  1  1  0  0  0  0
  4  2  1  0  0  0  0
  5  3  2  0  0  0  0
  7  6  2  0  0  0  0
  9  8  1  0  0  0  0
 13  8  1  0  0  0  0
 13 10  2  0  0  0  0
 13 11  1  0  0  0  0
 14  4  2  0  0  0  0
 14  5  1  0  0  0  0
 15  6  1  0  0  0  0
 15 12  2  0  0  0  0
 16 10  1  0  0  0  0
 16 14  1  0  0  0  0
 17 11  2  0  0  0  0
 18  7  1  0  0  0  0
 19 12  1  0  0  0  0
 19 18  2  0  0  0  0
 20 16  2  0  0  0  0
 20 17  1  0  0  0  0
 21 15  1  0  0  0  0
 22 17  1  0  0  0  0
 23  9  1  0  0  0  0
 24 21  2  0  0  0  0
 25 21  1  0  0  0  0
 26 18  1  0  0  0  0
 26 22  2  0  0  0  0
 27 19  1  0  0  0  0
 27 22  1  0  0  0  0
 28 20  1  0  0  0  0
M  CHG  1  23   1
M  END
> <DATABASE_ID>
DB04246

> <DATABASE_NAME>
drugbank

> <SMILES>
NC(=N)C1=CC2=C(C=C1)N=C(N2)C1=CC(CC[NH3+])=CC(=C1O)C1=CC=CC=C1

> <INCHI_IDENTIFIER>
InChI=1S/C22H21N5O/c23-9-8-13-10-16(14-4-2-1-3-5-14)20(28)17(11-13)22-26-18-7-6-15(21(24)25)12-19(18)27-22/h1-7,10-12,28H,8-9,23H2,(H3,24,25)(H,26,27)/p+1

> <INCHI_KEY>
YYUZFCLHOQHMPT-UHFFFAOYSA-O

> <FORMULA>
C22H22N5O

> <MOLECULAR_WEIGHT>
372.443

> <EXACT_MASS>
372.182435351

> <JCHEM_ACCEPTOR_COUNT>
4

> <JCHEM_ATOM_COUNT>
50

> <JCHEM_AVERAGE_NEUTRAL_MICROSPECIES_CHARGE>
1.9915503165749175

> <JCHEM_AVERAGE_POLARIZABILITY>
42.86951793525058

> <JCHEM_BIOAVAILABILITY>
1

> <JCHEM_DONOR_COUNT>
5

> <JCHEM_FORMAL_CHARGE>
1

> <JCHEM_GHOSE_FILTER>
0

> <JCHEM_IUPAC>
2-[5-(6-carbamimidoyl-1H-1,3-benzodiazol-2-yl)-6-hydroxy-[1,1'-biphenyl]-3-yl]ethan-1-aminium

> <ALOGPS_LOGP>
0.75

> <JCHEM_LOGP>
2.2441249698688233

> <ALOGPS_LOGS>
-5.45

> <JCHEM_MDDR_LIKE_RULE>
0

> <JCHEM_NEUTRAL_CHARGE>
2

> <JCHEM_NUMBER_OF_RINGS>
4

> <JCHEM_PHYSIOLOGICAL_CHARGE>
2

> <JCHEM_PKA>
10.671352212302434

> <JCHEM_PKA_STRONGEST_ACIDIC>
8.943581791598946

> <JCHEM_PKA_STRONGEST_BASIC>
11.561972897220267

> <JCHEM_POLAR_SURFACE_AREA>
126.42

> <JCHEM_REFRACTIVITY>
143.3809

> <JCHEM_ROTATABLE_BOND_COUNT>
5

> <JCHEM_RULE_OF_FIVE>
1

> <ALOGPS_SOLUBILITY>
1.46e-03 g/l

> <JCHEM_TRADITIONAL_IUPAC>
biotin

> <JCHEM_VEBER_RULE>
0

> <DRUGBANK_ID>
DB04246

> <SECONDARY_ACCESSION_NUMBERS>
EXPT00268

> <DRUG_GROUPS>
experimental

> <GENERIC_NAME>
CRA_23653

$$$$
