
  Mrv0541 05041408052D          

 43 46  0  0  1  0            999 V2000
   -0.0000    9.9000    0.0000 C   0  0  0  0  0  0  0  0  0  0  0  0
   -0.7145    9.4875    0.0000 C   0  0  0  0  0  0  0  0  0  0  0  0
   -2.1434    4.5375    0.0000 C   0  0  0  0  0  0  0  0  0  0  0  0
   -6.4302   11.1375    0.0000 C   0  0  0  0  0  0  0  0  0  0  0  0
   -1.4289    4.9500    0.0000 C   0  0  0  0  0  0  0  0  0  0  0  0
   -2.8579    4.9500    0.0000 C   0  0  0  0  0  0  0  0  0  0  0  0
   -6.4302   10.3125    0.0000 C   0  0  0  0  0  0  0  0  0  0  0  0
   -5.7158   11.5500    0.0000 C   0  0  0  0  0  0  0  0  0  0  0  0
   -1.4289    9.9000    0.0000 C   0  0  0  0  0  0  0  0  0  0  0  0
   -1.4289    5.7750    0.0000 C   0  0  0  0  0  0  0  0  0  0  0  0
   -2.8579    5.7750    0.0000 C   0  0  0  0  0  0  0  0  0  0  0  0
   -5.7158    9.9000    0.0000 C   0  0  0  0  0  0  0  0  0  0  0  0
   -5.0013   11.1375    0.0000 C   0  0  0  0  0  0  0  0  0  0  0  0
   -5.7158    5.7750    0.0000 C   0  0  0  0  0  0  0  0  0  0  0  0
   -6.4302    7.0125    0.0000 C   0  0  0  0  0  0  0  0  0  0  0  0
   -2.8579    9.9000    0.0000 C   0  0  0  0  0  0  0  0  0  0  0  0
   -5.0013    6.1875    0.0000 C   0  0  0  0  0  0  0  0  0  0  0  0
   -5.7158    7.4250    0.0000 C   0  0  0  0  0  0  0  0  0  0  0  0
   -7.8592    6.1875    0.0000 C   0  0  0  0  0  0  0  0  0  0  0  0
   -7.1447    4.9500    0.0000 C   0  0  0  0  0  0  0  0  0  0  0  0
   -8.5737    5.7750    0.0000 C   0  0  0  0  0  0  0  0  0  0  0  0
   -7.8592    4.5375    0.0000 C   0  0  0  0  0  0  0  0  0  0  0  0
   -3.5724    9.4875    0.0000 C   0  0  0  0  0  0  0  0  0  0  0  0
   -2.1434    7.0125    0.0000 C   0  0  0  0  0  0  0  0  0  0  0  0
   -2.1434    6.1875    0.0000 C   0  0  0  0  0  0  0  0  0  0  0  0
   -2.1434    9.4875    0.0000 C   0  0  1  0  0  0  0  0  0  0  0  0
   -6.4302    6.1875    0.0000 C   0  0  0  0  0  0  0  0  0  0  0  0
   -5.0013   10.3125    0.0000 C   0  0  0  0  0  0  0  0  0  0  0  0
   -2.8579    7.4250    0.0000 C   0  0  1  0  0  0  0  0  0  0  0  0
   -2.8579    8.2500    0.0000 C   0  0  0  0  0  0  0  0  0  0  0  0
   -4.2868    7.4250    0.0000 C   0  0  0  0  0  0  0  0  0  0  0  0
   -2.1434    8.6625    0.0000 N   0  0  0  0  0  0  0  0  0  0  0  0
   -3.5724    7.0125    0.0000 N   0  0  0  0  0  0  0  0  0  0  0  0
   -7.1447    5.7750    0.0000 N   0  0  0  0  0  0  0  0  0  0  0  0
   -5.0013    7.0125    0.0000 N   0  0  0  0  0  0  0  0  0  0  0  0
   -3.5724    8.6625    0.0000 O   0  0  0  0  0  0  0  0  0  0  0  0
   -4.2868    8.2500    0.0000 O   0  0  0  0  0  0  0  0  0  0  0  0
   -4.6993    9.1855    0.0000 O   0  0  0  0  0  0  0  0  0  0  0  0
   -3.8743   10.6145    0.0000 O   0  0  0  0  0  0  0  0  0  0  0  0
   -8.5737    4.9500    0.0000 O   0  0  0  0  0  0  0  0  0  0  0  0
   -4.2868    9.9000    0.0000 S   0  0  0  0  0  0  0  0  0  0  0  0
   -2.1434   10.3125    0.0000 H   0  0  0  0  0  0  0  0  0  0  0  0
   -2.1434    7.8375    0.0000 H   0  0  0  0  0  0  0  0  0  0  0  0
  2  1  1  0  0  0  0
  5  3  2  0  0  0  0
  6  3  1  0  0  0  0
  7  4  2  0  0  0  0
  8  4  1  0  0  0  0
  9  2  1  0  0  0  0
 10  5  1  0  0  0  0
 11  6  2  0  0  0  0
 12  7  1  0  0  0  0
 13  8  2  0  0  0  0
 17 14  1  0  0  0  0
 18 15  1  0  0  0  0
 21 19  1  0  0  0  0
 22 20  1  0  0  0  0
 23 16  2  0  0  0  0
 25 10  2  0  0  0  0
 25 11  1  0  0  0  0
 25 24  1  0  0  0  0
 26  9  1  0  0  0  0
 26 16  1  0  0  0  0
 27 14  1  0  0  0  0
 27 15  1  0  0  0  0
 28 12  2  0  0  0  0
 28 13  1  0  0  0  0
 29 24  1  0  0  0  0
 30 29  1  0  0  0  0
 26 32  1  1  0  0  0
 32 30  2  0  0  0  0
 29 33  1  1  0  0  0
 33 31  2  0  0  0  0
 34 19  1  0  0  0  0
 34 20  1  0  0  0  0
 34 27  1  0  0  0  0
 35 17  1  0  0  0  0
 35 18  1  0  0  0  0
 35 31  1  0  0  0  0
 30 36  1  4  0  0  0
 31 37  1  4  0  0  0
 40 21  1  0  0  0  0
 40 22  1  0  0  0  0
 23 41  1  4  0  0  0
 41 28  1  0  0  0  0
 41 38  2  0  0  0  0
 41 39  2  0  0  0  0
 26 42  1  1  0  0  0
 29 43  1  1  0  0  0
M  END
> <DATABASE_ID>
DB02243

> <DATABASE_NAME>
drugbank

> <SMILES>
[H][C@](CCC)(C=CS(=O)(=O)C1=CC=CC=C1)N=C(O)[C@]([H])(CC1=CC=CC=C1)N=C(O)N1CCC(CC1)N1CCOCC1

> <INCHI_IDENTIFIER>
InChI=1S/C31H42N4O5S/c1-2-9-26(16-23-41(38,39)28-12-7-4-8-13-28)32-30(36)29(24-25-10-5-3-6-11-25)33-31(37)35-17-14-27(15-18-35)34-19-21-40-22-20-34/h3-8,10-13,16,23,26-27,29H,2,9,14-15,17-22,24H2,1H3,(H,32,36)(H,33,37)/t26-,29-/m0/s1

> <INCHI_KEY>
OFBHNKJTHNHXQT-WNJJXGMVSA-N

> <FORMULA>
C31H42N4O5S

> <MOLECULAR_WEIGHT>
582.754

> <EXACT_MASS>
582.287591164

> <JCHEM_ACCEPTOR_COUNT>
9

> <JCHEM_ATOM_COUNT>
83

> <JCHEM_AVERAGE_NEUTRAL_MICROSPECIES_CHARGE>
0.7565206097450102

> <JCHEM_AVERAGE_POLARIZABILITY>
64.04108374341583

> <JCHEM_BIOAVAILABILITY>
0

> <JCHEM_DONOR_COUNT>
2

> <JCHEM_FORMAL_CHARGE>
0

> <JCHEM_GHOSE_FILTER>
0

> <JCHEM_IUPAC>
(2S)-N-[(3S)-1-(benzenesulfonyl)hex-1-en-3-yl]-2-({hydroxy[4-(morpholin-4-yl)piperidin-1-yl]methylidene}amino)-3-phenylpropanimidic acid

> <ALOGPS_LOGP>
3.55

> <JCHEM_LOGP>
0.21448703019324036

> <ALOGPS_LOGS>
-4.61

> <JCHEM_MDDR_LIKE_RULE>
1

> <JCHEM_NEUTRAL_CHARGE>
1

> <JCHEM_NUMBER_OF_RINGS>
4

> <JCHEM_PHYSIOLOGICAL_CHARGE>
1

> <JCHEM_PKA>
2.143525297947363

> <JCHEM_PKA_STRONGEST_ACIDIC>
-4.643100987849177

> <JCHEM_PKA_STRONGEST_BASIC>
15.000000017075168

> <JCHEM_POLAR_SURFACE_AREA>
115.03000000000002

> <JCHEM_REFRACTIVITY>
162.045

> <JCHEM_ROTATABLE_BOND_COUNT>
11

> <JCHEM_RULE_OF_FIVE>
0

> <ALOGPS_SOLUBILITY>
1.44e-02 g/l

> <JCHEM_TRADITIONAL_IUPAC>
tetrahydrofolic acid

> <JCHEM_VEBER_RULE>
0

> <DRUGBANK_ID>
DB02243

> <SECONDARY_ACCESSION_NUMBERS>
EXPT02269

> <DRUG_GROUPS>
experimental

> <GENERIC_NAME>
4-Morpholin-4-Yl-Piperidine-1-Carboxylic Acid [1-(3-Benzenesulfonyl-1-Propyl-Allylcarbamoyl)-2-Phenylethyl]-Amide

$$$$
