
  Mrv0541 05041402342D          

 32 35  0  0  0  0            999 V2000
   -3.5724    3.7125    0.0000 C   0  0  0  0  0  0  0  0  0  0  0  0
   -2.8579    3.3000    0.0000 C   0  0  0  0  0  0  0  0  0  0  0  0
   -0.7145    2.0625    0.0000 C   0  0  0  0  0  0  0  0  0  0  0  0
   -0.7145    1.2375    0.0000 C   0  0  0  0  0  0  0  0  0  0  0  0
    0.0000    0.0000    0.0000 C   0  0  0  0  0  0  0  0  0  0  0  0
    0.7145   -0.4125    0.0000 C   0  0  0  0  0  0  0  0  0  0  0  0
    0.0000    4.9500    0.0000 C   0  0  0  0  0  0  0  0  0  0  0  0
   -1.4289    4.9500    0.0000 C   0  0  0  0  0  0  0  0  0  0  0  0
    0.0000    5.7750    0.0000 C   0  0  0  0  0  0  0  0  0  0  0  0
   -1.4289    5.7750    0.0000 C   0  0  0  0  0  0  0  0  0  0  0  0
   -1.5152    8.2455    0.0000 C   0  0  0  0  0  0  0  0  0  0  0  0
   -2.3221    8.4170    0.0000 C   0  0  0  0  0  0  0  0  0  0  0  0
    0.7145    2.0625    0.0000 C   0  0  0  0  0  0  0  0  0  0  0  0
    0.0000    3.3000    0.0000 C   0  0  0  0  0  0  0  0  0  0  0  0
    1.4289    0.8250    0.0000 C   0  0  0  0  0  0  0  0  0  0  0  0
   -2.1826    7.0894    0.0000 C   0  0  0  0  0  0  0  0  0  0  0  0
    0.0000    2.4750    0.0000 C   0  0  0  0  0  0  0  0  0  0  0  0
    0.0000    0.8250    0.0000 C   0  0  0  0  0  0  0  0  0  0  0  0
   -0.7145    4.5375    0.0000 C   0  0  0  0  0  0  0  0  0  0  0  0
    1.4289    0.0000    0.0000 C   0  0  0  0  0  0  0  0  0  0  0  0
    0.7145    1.2375    0.0000 C   0  0  0  0  0  0  0  0  0  0  0  0
   -0.7145    6.1875    0.0000 C   0  0  0  0  0  0  0  0  0  0  0  0
   -1.4289    7.4250    0.0000 C   0  0  0  0  0  0  0  0  0  0  0  0
   -0.7145    3.7125    0.0000 C   0  0  0  0  0  0  0  0  0  0  0  0
    2.1434   -0.4125    0.0000 C   0  0  0  0  0  0  0  0  0  0  0  0
   -1.4289    3.3000    0.0000 C   0  0  0  0  0  0  0  0  0  0  0  0
    2.8579    0.0000    0.0000 N   0  0  0  0  0  0  0  0  0  0  0  0
    2.1434   -1.2375    0.0000 N   0  0  0  0  0  0  0  0  0  0  0  0
   -2.7346    7.7025    0.0000 N   0  0  0  0  0  0  0  0  0  0  0  0
   -1.4289    2.4750    0.0000 O   0  0  0  0  0  0  0  0  0  0  0  0
   -2.1434    3.7125    0.0000 O   0  0  0  0  0  0  0  0  0  0  0  0
   -0.7145    7.0125    0.0000 O   0  0  0  0  0  0  0  0  0  0  0  0
  2  1  1  0  0  0  0
  4  3  2  0  0  0  0
  6  5  2  0  0  0  0
  9  7  1  0  0  0  0
 10  8  2  0  0  0  0
 12 11  1  0  0  0  0
 17  3  1  0  0  0  0
 17 13  2  0  0  0  0
 17 14  1  0  0  0  0
 18  4  1  0  0  0  0
 18  5  1  0  0  0  0
 19  7  2  0  0  0  0
 19  8  1  0  0  0  0
 20  6  1  0  0  0  0
 20 15  2  0  0  0  0
 21 13  1  0  0  0  0
 21 15  1  0  0  0  0
 21 18  2  0  0  0  0
 22  9  2  0  0  0  0
 22 10  1  0  0  0  0
 23 11  1  0  0  0  0
 23 16  1  0  0  0  0
 24 14  1  0  0  0  0
 24 19  1  0  0  0  0
 25 20  1  0  0  0  0
 26 24  1  0  0  0  0
 27 25  1  0  0  0  0
 28 25  1  0  0  0  0
 29 12  1  0  0  0  0
 29 16  1  0  0  0  0
 30 26  2  0  0  0  0
 31  2  1  0  0  0  0
 31 26  1  0  0  0  0
 32 22  1  0  0  0  0
 32 23  1  0  0  0  0
M  END
> <DATABASE_ID>
DB07639

> <DATABASE_NAME>
drugbank

> <SMILES>
CCOC(=O)C(CC1=CC2=C(C=C1)C=CC(=C2)C(N)N)C1=CC=C(OC2CCNC2)C=C1

> <INCHI_IDENTIFIER>
InChI=1S/C26H31N3O3/c1-2-31-26(30)24(19-7-9-22(10-8-19)32-23-11-12-29-16-23)14-17-3-4-18-5-6-20(25(27)28)15-21(18)13-17/h3-10,13,15,23-25,29H,2,11-12,14,16,27-28H2,1H3

> <INCHI_KEY>
LOYXUXZQQVEADT-UHFFFAOYSA-N

> <FORMULA>
C26H31N3O3

> <MOLECULAR_WEIGHT>
433.5426

> <EXACT_MASS>
433.236541873

> <JCHEM_ACCEPTOR_COUNT>
5

> <JCHEM_ATOM_COUNT>
63

> <JCHEM_AVERAGE_NEUTRAL_MICROSPECIES_CHARGE>
1.8656198989473962

> <JCHEM_AVERAGE_POLARIZABILITY>
49.42960517568659

> <JCHEM_BIOAVAILABILITY>
1

> <JCHEM_DONOR_COUNT>
3

> <JCHEM_FORMAL_CHARGE>
0

> <JCHEM_GHOSE_FILTER>
1

> <JCHEM_IUPAC>
ethyl 3-[7-(diaminomethyl)naphthalen-2-yl]-2-[4-(pyrrolidin-3-yloxy)phenyl]propanoate

> <ALOGPS_LOGP>
2.87

> <JCHEM_LOGP>
3.305321671333332

> <ALOGPS_LOGS>
-5.75

> <JCHEM_MDDR_LIKE_RULE>
1

> <JCHEM_NEUTRAL_CHARGE>
2

> <JCHEM_NUMBER_OF_RINGS>
4

> <JCHEM_PHYSIOLOGICAL_CHARGE>
2

> <JCHEM_PKA_STRONGEST_BASIC>
10.310968267400836

> <JCHEM_POLAR_SURFACE_AREA>
99.6

> <JCHEM_REFRACTIVITY>
125.51899999999995

> <JCHEM_ROTATABLE_BOND_COUNT>
9

> <JCHEM_RULE_OF_FIVE>
1

> <ALOGPS_SOLUBILITY>
7.64e-04 g/l

> <JCHEM_TRADITIONAL_IUPAC>
biotin

> <JCHEM_VEBER_RULE>
0

> <DRUGBANK_ID>
DB07639

> <DRUG_GROUPS>
experimental

> <GENERIC_NAME>
3-(7-DIAMINOMETHYL-NAPHTHALEN-2-YL)-PROPIONIC ACID ETHYL ESTER

$$$$
