
  Mrv0541 02231217442D          

 10  9  0  0  1  0            999 V2000
    1.9520    1.9520    0.0000 N   0  0  0  0  0  0  0  0  0  0  0  0
    1.9520    1.1270    0.0000 C   0  0  1  0  0  0  0  0  0  0  0  0
    1.2375    0.7145    0.0000 C   0  0  2  0  0  0  0  0  0  0  0  0
    1.2375   -0.1105    0.0000 O   0  0  0  0  0  0  0  0  0  0  0  0
    0.5230    1.1270    0.0000 C   0  0  0  0  0  0  0  0  0  0  0  0
   -0.1914    0.7145    0.0000 N   0  0  0  0  0  0  0  0  0  0  0  0
    0.5230    1.9520    0.0000 O   0  0  0  0  0  0  0  0  0  0  0  0
    2.6664    0.7145    0.0000 C   0  0  0  0  0  0  0  0  0  0  0  0
    3.3809    1.1270    0.0000 O   0  0  0  0  0  0  0  0  0  0  0  0
    2.6664   -0.1105    0.0000 O   0  0  0  0  0  0  0  0  0  0  0  0
  2  1  1  6  0  0  0
  2  3  1  0  0  0  0
  3  4  1  6  0  0  0
  3  5  1  0  0  0  0
  5  6  1  0  0  0  0
  5  7  2  0  0  0  0
  2  8  1  0  0  0  0
  8  9  1  0  0  0  0
  8 10  2  0  0  0  0
M  END
> <DATABASE_ID>
DB04527

> <DATABASE_NAME>
drugbank

> <SMILES>
N[C@@H]([C@H](O)C(N)=O)C(O)=O

> <INCHI_IDENTIFIER>
InChI=1S/C4H8N2O4/c5-1(4(9)10)2(7)3(6)8/h1-2,7H,5H2,(H2,6,8)(H,9,10)/t1-,2-/m0/s1

> <INCHI_KEY>
VQTLPSCRBFYDNX-LWMBPPNESA-N

> <FORMULA>
C4H8N2O4

> <MOLECULAR_WEIGHT>
148.1173

> <EXACT_MASS>
148.048406754

> <JCHEM_ACCEPTOR_COUNT>
5

> <JCHEM_ATOM_COUNT>
18

> <JCHEM_AVERAGE_NEUTRAL_MICROSPECIES_CHARGE>
-0.1149861498997563

> <JCHEM_AVERAGE_POLARIZABILITY>
12.512675006700281

> <JCHEM_BIOAVAILABILITY>
1

> <JCHEM_DONOR_COUNT>
4

> <JCHEM_FORMAL_CHARGE>
0

> <JCHEM_GHOSE_FILTER>
0

> <JCHEM_IUPAC>
(2S,3S)-2-amino-3-carbamoyl-3-hydroxypropanoic acid

> <ALOGPS_LOGP>
-3.22

> <JCHEM_LOGP>
-5.0007149123470045

> <ALOGPS_LOGS>
-0.18

> <JCHEM_MDDR_LIKE_RULE>
0

> <JCHEM_NEUTRAL_CHARGE>
0

> <JCHEM_NUMBER_OF_RINGS>
0

> <JCHEM_PHYSIOLOGICAL_CHARGE>
0

> <JCHEM_PKA>
12.631688994468448

> <JCHEM_PKA_STRONGEST_ACIDIC>
1.7555260103407206

> <JCHEM_PKA_STRONGEST_BASIC>
7.886319049733675

> <JCHEM_POLAR_SURFACE_AREA>
126.64000000000001

> <JCHEM_REFRACTIVITY>
29.693100000000005

> <JCHEM_ROTATABLE_BOND_COUNT>
3

> <JCHEM_RULE_OF_FIVE>
1

> <ALOGPS_SOLUBILITY>
9.71e+01 g/l

> <JCHEM_TRADITIONAL_IUPAC>
biotin

> <JCHEM_VEBER_RULE>
0

> <DRUGBANK_ID>
DB04527

> <SECONDARY_ACCESSION_NUMBERS>
EXPT00462

> <DRUG_GROUPS>
experimental

> <GENERIC_NAME>
beta-Hydroxyasparagine

> <SYNONYMS>
(2S,3S)-3-Hydroxyasparagine

$$$$
