
  Mrv0541 05041402382D          

 43 46  0  0  0  0            999 V2000
   -3.7175   -1.6790    0.0000 C   0  0  0  0  0  0  0  0  0  0  0  0
   -2.4659    2.7908    0.0000 C   0  0  0  0  0  0  0  0  0  0  0  0
    0.7884   -2.8773    0.0000 C   0  0  0  0  0  0  0  0  0  0  0  0
    0.7323    2.8490    0.0000 C   0  0  0  0  0  0  0  0  0  0  0  0
    2.0090   -1.6351    0.0000 C   0  0  0  0  0  0  0  0  0  0  0  0
    1.9835    1.6091    0.0000 C   0  0  0  0  0  0  0  0  0  0  0  0
    2.3027   -2.4060    0.0000 C   0  0  0  0  0  0  0  0  0  0  0  0
    2.2812    2.3785    0.0000 C   0  0  0  0  0  0  0  0  0  0  0  0
   -2.3432   -2.0912    0.0000 C   0  0  0  0  0  0  0  0  0  0  0  0
   -2.9006    1.3881    0.0000 C   0  0  0  0  0  0  0  0  0  0  0  0
   -2.9171   -0.0760    0.0000 C   0  0  0  0  0  0  0  0  0  0  0  0
   -0.8501   -2.0782    0.0000 C   0  0  0  0  0  0  0  0  0  0  0  0
   -0.8566    2.0208    0.0000 C   0  0  0  0  0  0  0  0  0  0  0  0
    1.1814   -0.0109    0.0000 C   0  0  0  0  0  0  0  0  0  0  0  0
   -2.9043   -1.5398    0.0000 C   0  0  0  0  0  0  0  0  0  0  0  0
   -2.3201    1.9788    0.0000 C   0  0  0  0  0  0  0  0  0  0  0  0
    0.6431   -2.0652    0.0000 C   0  0  0  0  0  0  0  0  0  0  0  0
    0.6073    2.0336    0.0000 C   0  0  0  0  0  0  0  0  0  0  0  0
   -2.5431    0.6886    0.0000 C   0  0  0  0  0  0  0  0  0  0  0  0
   -1.5856   -1.6747    0.0000 C   0  0  0  0  0  0  0  0  0  0  0  0
    1.1945   -1.5040    0.0000 C   0  0  0  0  0  0  0  0  0  0  0  0
    1.1684    1.4822    0.0000 C   0  0  0  0  0  0  0  0  0  0  0  0
   -2.5303   -0.7753    0.0000 C   0  0  0  0  0  0  0  0  0  0  0  0
   -1.5852    1.6339    0.0000 C   0  0  0  0  0  0  0  0  0  0  0  0
   -0.1507   -1.6915    0.0000 C   0  0  0  0  0  0  0  0  0  0  0  0
   -0.1506    1.6464    0.0000 C   0  0  0  0  0  0  0  0  0  0  0  0
    0.8070   -0.7169    0.0000 C   0  0  0  0  0  0  0  0  0  0  0  0
    0.7652    0.7174    0.0000 C   0  0  0  0  0  0  0  0  0  0  0  0
    3.1172   -2.5371    0.0000 C   0  0  0  0  0  0  0  0  0  0  0  0
    3.0964    2.5055    0.0000 C   0  0  0  0  0  0  0  0  0  0  0  0
   -1.7093   -0.9145    0.0000 N   0  0  0  0  0  0  0  0  0  0  0  0
   -1.7539    0.8418    0.0000 N   0  5  0  0  0  0  0  0  0  0  0  0
   -0.0112   -0.8997    0.0000 N   0  0  0  0  0  0  0  0  0  0  0  0
    0.0030    0.8279    0.0000 N   0  0  0  0  0  0  0  0  0  0  0  0
    3.6380   -1.8972    0.0000 O   0  0  0  0  0  0  0  0  0  0  0  0
    3.4110   -3.3080    0.0000 O   0  5  0  0  0  0  0  0  0  0  0  0
    3.3940    3.2749    0.0000 O   0  0  0  0  0  0  0  0  0  0  0  0
    3.6139    1.8630    0.0000 O   0  0  0  0  0  0  0  0  0  0  0  0
    5.9952    0.0000    0.0000 Co  0  0  0  0  0  0  0  0  0  0  0  0
   -3.7419   -0.0968    0.0000 H   0  0  0  0  0  0  0  0  0  0  0  0
   -0.8488   -2.9032    0.0000 H   0  0  0  0  0  0  0  0  0  0  0  0
   -0.8569    2.8458    0.0000 H   0  0  0  0  0  0  0  0  0  0  0  0
    2.0063    0.0021    0.0000 H   0  0  0  0  0  0  0  0  0  0  0  0
  7  5  1  0  0  0  0
  8  6  1  0  0  0  0
 15  1  1  0  0  0  0
 15  9  2  0  0  0  0
 16  2  1  0  0  0  0
 16 10  2  0  0  0  0
 17  3  1  0  0  0  0
 18  4  1  0  0  0  0
 19 10  1  0  0  0  0
 19 11  2  0  0  0  0
 20  9  1  0  0  0  0
 20 12  2  0  0  0  0
 21  5  1  0  0  0  0
 21 17  1  0  0  0  0
 22  6  1  0  0  0  0
 22 18  2  0  0  0  0
 23 11  1  0  0  0  0
 23 15  1  0  0  0  0
 24 13  2  0  0  0  0
 24 16  1  0  0  0  0
 25 12  1  0  0  0  0
 25 17  2  0  0  0  0
 26 13  1  0  0  0  0
 26 18  1  0  0  0  0
 27 14  1  0  0  0  0
 27 21  2  0  0  0  0
 28 14  2  0  0  0  0
 28 22  1  0  0  0  0
 29  7  1  0  0  0  0
 30  8  1  0  0  0  0
 31 20  1  0  0  0  0
 31 23  2  0  0  0  0
 32 19  1  0  0  0  0
 32 24  1  0  0  0  0
 33 25  1  0  0  0  0
 33 27  1  0  0  0  0
 34 26  2  0  0  0  0
 34 28  1  0  0  0  0
 35 29  2  0  0  0  0
 36 29  1  0  0  0  0
 37 30  2  0  0  0  0
 38 30  1  0  0  0  0
 40 11  1  0  0  0  0
 41 12  1  0  0  0  0
 42 13  1  0  0  0  0
 43 14  1  0  0  0  0
M  CHG  3  32  -1  36  -1  39   7
M  END
> <DATABASE_ID>
DB02173

> <DATABASE_NAME>
drugbank

> <SMILES>
[Co+7].[H]\C-1=C2\[N-]\C(=C([H])/C3=N/C(=C([H])\C4=C(CCC([O-])=O)C(C)=C(N4)\C([H])=C4\C=C(C)C-1=N4)/C(CCC(O)=O)=C3C)C(C)=C2

> <INCHI_IDENTIFIER>
InChI=1S/C30H30N4O4.Co/c1-15-9-20-12-25-17(3)21(5-7-29(35)36)27(33-25)14-28-22(6-8-30(37)38)18(4)26(34-28)13-24-16(2)10-19(32-24)11-23(15)31-20;/h9-14H,5-8H2,1-4H3,(H4,31,32,33,34,35,36,37,38);/q;+7/p-2/b19-11-,20-12-,23-11-,24-13-,25-12-,26-13-,27-14-,28-14-;

> <INCHI_KEY>
KHTDHHCCHPGKMR-RWRCOHKGSA-L

> <FORMULA>
C30H28CoN4O4

> <MOLECULAR_WEIGHT>
567.5009

> <EXACT_MASS>
567.144255598

> <JCHEM_ACCEPTOR_COUNT>
7

> <JCHEM_ATOM_COUNT>
67

> <JCHEM_AVERAGE_NEUTRAL_MICROSPECIES_CHARGE>
-1.9746245060485608

> <JCHEM_AVERAGE_POLARIZABILITY>
58.1436657893971

> <JCHEM_BIOAVAILABILITY>
1

> <JCHEM_DONOR_COUNT>
2

> <JCHEM_FORMAL_CHARGE>
5

> <JCHEM_GHOSE_FILTER>
0

> <JCHEM_IUPAC>
lambda7-cobalt(7+) 5-(2-carboxyethyl)-9-(2-carboxylatoethyl)-4,10,15,20-tetramethyl-21,22,23,24-tetraazapentacyclo[16.2.1.1^{3,6}.1^{8,11}.1^{13,16}]tetracosa-1,3(24),4,6,8,10,12,14,16(22),17,19-undecaen-21-ide

> <JCHEM_LOGP>
4.896609870381014

> <JCHEM_MDDR_LIKE_RULE>
1

> <JCHEM_NEUTRAL_CHARGE>
-2

> <JCHEM_NUMBER_OF_RINGS>
5

> <JCHEM_PHYSIOLOGICAL_CHARGE>
-2

> <JCHEM_PKA>
4.337522549204889

> <JCHEM_PKA_STRONGEST_ACIDIC>
3.864429382419492

> <JCHEM_PKA_STRONGEST_BASIC>
5.238403938867902

> <JCHEM_POLAR_SURFACE_AREA>
131.89

> <JCHEM_REFRACTIVITY>
155.8864

> <JCHEM_ROTATABLE_BOND_COUNT>
6

> <JCHEM_RULE_OF_FIVE>
0

> <JCHEM_TRADITIONAL_IUPAC>
biotin

> <JCHEM_VEBER_RULE>
0

> <DRUGBANK_ID>
DB02173

> <SECONDARY_ACCESSION_NUMBERS>
EXPT01165

> <DRUG_GROUPS>
experimental

> <GENERIC_NAME>
Co(III)-(Deuteroporphyrin IX)

$$$$
