
  Mrv0541 05041404382D          

 23 23  0  0  1  0            999 V2000
   -1.2375   -0.9355    0.0000 C   0  0  0  0  0  0  0  0  0  0  0  0
   -1.4289   -1.6500    0.0000 C   0  0  0  0  0  0  0  0  0  0  0  0
    2.1434    1.2375    0.0000 C   0  0  0  0  0  0  0  0  0  0  0  0
    1.4289    0.8250    0.0000 C   0  0  2  0  0  0  0  0  0  0  0  0
    0.7145    1.2375    0.0000 C   0  0  2  0  0  0  0  0  0  0  0  0
    0.0000    0.8250    0.0000 C   0  0  1  0  0  0  0  0  0  0  0  0
    0.0000    0.0000    0.0000 C   0  0  2  0  0  0  0  0  0  0  0  0
    0.7145   -0.4125    0.0000 C   0  0  2  0  0  0  0  0  0  0  0  0
    0.7145   -1.2375    0.0000 N   0  0  0  0  0  0  0  0  0  0  0  0
    2.1434    2.0625    0.0000 O   0  0  0  0  0  0  0  0  0  0  0  0
    0.7145    2.0625    0.0000 O   0  0  0  0  0  0  0  0  0  0  0  0
   -0.7145    1.2375    0.0000 O   0  0  0  0  0  0  0  0  0  0  0  0
   -0.7145   -0.4125    0.0000 O   0  0  0  0  0  0  0  0  0  0  0  0
    0.4125   -2.3645    0.0000 O   0  0  0  0  0  0  0  0  0  0  0  0
   -0.4125   -0.9355    0.0000 O   0  0  0  0  0  0  0  0  0  0  0  0
   -0.7145   -2.0625    0.0000 O   0  0  0  0  0  0  0  0  0  0  0  0
    1.4289   -0.0000    0.0000 O   0  0  0  0  0  0  0  0  0  0  0  0
   -0.0000   -1.6500    0.0000 P   0  0  0  0  0  0  0  0  0  0  0  0
    1.1468    1.6002    0.0000 H   0  0  0  0  0  0  0  0  0  0  0  0
    1.2448    1.8695    0.0000 H   0  0  0  0  0  0  0  0  0  0  0  0
    0.0000    1.6500    0.0000 H   0  0  0  0  0  0  0  0  0  0  0  0
   -0.7145    0.4125    0.0000 H   0  0  0  0  0  0  0  0  0  0  0  0
   -0.0000   -0.8250    0.0000 H   0  0  0  0  0  0  0  0  0  0  0  0
  4  3  1  1  0  0  0
  5  4  1  0  0  0  0
  6  5  1  0  0  0  0
  7  6  1  0  0  0  0
  8  7  1  0  0  0  0
  8  9  1  1  0  0  0
 10  3  1  0  0  0  0
  5 11  1  6  0  0  0
  6 12  1  1  0  0  0
  7 13  1  6  0  0  0
 15  1  1  0  0  0  0
 16  2  1  0  0  0  0
 17  4  1  0  0  0  0
 17  8  1  0  0  0  0
 18  9  1  0  0  0  0
 18 14  2  0  0  0  0
 18 15  1  0  0  0  0
 18 16  1  0  0  0  0
  4 19  1  6  0  0  0
  5 20  1  1  0  0  0
  6 21  1  6  0  0  0
  7 22  1  1  0  0  0
  8 23  1  6  0  0  0
M  END
> <DATABASE_ID>
DB03392

> <DATABASE_NAME>
drugbank

> <SMILES>
[H][C@]1(O)[C@]([H])(O)[C@@]([H])(CO)O[C@@]([H])(NP(=O)(OC)OC)[C@]1([H])O

> <INCHI_IDENTIFIER>
InChI=1S/C8H18NO8P/c1-15-18(14,16-2)9-8-7(13)6(12)5(11)4(3-10)17-8/h4-8,10-13H,3H2,1-2H3,(H,9,14)/t4-,5-,6+,7-,8-/m1/s1

> <INCHI_KEY>
LJBUJRWZZYUNKX-JAJWTYFOSA-N

> <FORMULA>
C8H18NO8P

> <MOLECULAR_WEIGHT>
287.2042

> <EXACT_MASS>
287.077003069

> <JCHEM_ACCEPTOR_COUNT>
6

> <JCHEM_ATOM_COUNT>
36

> <JCHEM_AVERAGE_NEUTRAL_MICROSPECIES_CHARGE>
-6.454687318839753e-06

> <JCHEM_AVERAGE_POLARIZABILITY>
24.680306675881802

> <JCHEM_BIOAVAILABILITY>
1

> <JCHEM_DONOR_COUNT>
5

> <JCHEM_FORMAL_CHARGE>
0

> <JCHEM_GHOSE_FILTER>
0

> <JCHEM_IUPAC>
(2R,3R,4S,5S,6R)-2-[(dimethoxyphosphoryl)amino]-6-(hydroxymethyl)oxane-3,4,5-triol

> <ALOGPS_LOGP>
-2.26

> <JCHEM_LOGP>
-3.0293444080000005

> <ALOGPS_LOGS>
-0.95

> <JCHEM_MDDR_LIKE_RULE>
0

> <JCHEM_NEUTRAL_CHARGE>
0

> <JCHEM_NUMBER_OF_RINGS>
1

> <JCHEM_PHYSIOLOGICAL_CHARGE>
0

> <JCHEM_PKA>
13.0033994241073

> <JCHEM_PKA_STRONGEST_ACIDIC>
12.331853685038148

> <JCHEM_PKA_STRONGEST_BASIC>
-2.9802568579608586

> <JCHEM_POLAR_SURFACE_AREA>
137.71

> <JCHEM_REFRACTIVITY>
57.710699999999996

> <JCHEM_ROTATABLE_BOND_COUNT>
5

> <JCHEM_RULE_OF_FIVE>
1

> <ALOGPS_SOLUBILITY>
3.26e+01 g/l

> <JCHEM_TRADITIONAL_IUPAC>
tetrahydrofolic acid

> <JCHEM_VEBER_RULE>
0

> <DRUGBANK_ID>
DB03392

> <SECONDARY_ACCESSION_NUMBERS>
EXPT01599

> <DRUG_GROUPS>
experimental

> <GENERIC_NAME>
(3,4,5-Trihydroxy-6-Hydroxymethyl-Tetrahydro-Pyran-2-Yl)-Phosphoramidic Acid Dimethyl Ester

$$$$
