
  Mrv0541 02241222232D          

 57 59  0  0  1  0            999 V2000
   29.4432   -1.3291    0.0000 C   0  0  2  0  0  0  0  0  0  0  0  0
   28.7758   -0.8442    0.0000 O   0  0  0  0  0  0  0  0  0  0  0  0
   29.1883   -2.1137    0.0000 C   0  0  1  0  0  0  0  0  0  0  0  0
   28.1083   -1.3291    0.0000 C   0  0  1  0  0  0  0  0  0  0  0  0
   28.3633   -2.1137    0.0000 C   0  0  1  0  0  0  0  0  0  0  0  0
   29.6732   -2.7812    0.0000 O   0  0  0  0  0  0  0  0  0  0  0  0
   22.6975   -5.3701    0.0000 C   0  0  0  0  0  0  0  0  0  0  0  0
   23.4403   -5.7826    0.0000 C   0  0  0  0  0  0  0  0  0  0  0  0
   21.9830   -5.7826    0.0000 N   0  0  0  0  0  0  0  0  0  0  0  0
   21.2686   -5.3701    0.0000 C   0  0  0  0  0  0  0  0  0  0  0  0
   20.5541   -5.7826    0.0000 O   0  0  0  0  0  0  0  0  0  0  0  0
   22.0114   -4.1326    0.0000 C   0  0  0  0  0  0  0  0  0  0  0  0
   21.2686   -4.5451    0.0000 C   0  0  0  0  0  0  0  0  0  0  0  0
   22.0114   -3.3076    0.0000 N   0  0  0  0  0  0  0  0  0  0  0  0
   20.5825   -3.3076    0.0000 O   0  0  0  0  0  0  0  0  0  0  0  0
   21.2969   -2.8950    0.0000 C   0  0  0  0  0  0  0  0  0  0  0  0
   22.7259   -2.0700    0.0000 C   0  0  0  0  0  0  0  0  0  0  0  0
   21.5989   -0.9431    0.0000 C   0  0  0  0  0  0  0  0  0  0  0  0
   22.0114   -1.6575    0.0000 C   0  0  0  0  0  0  0  0  0  0  0  0
   22.4239   -0.9431    0.0000 C   0  0  0  0  0  0  0  0  0  0  0  0
   21.2969   -2.0700    0.0000 C   0  0  1  0  0  0  0  0  0  0  0  0
   20.5824   -1.6575    0.0000 O   0  0  0  0  0  0  0  0  0  0  0  0
   23.4403   -1.6575    0.0000 O   0  0  0  0  0  0  0  0  0  0  0  0
   25.0903   -1.6575    0.0000 O   0  0  0  0  0  0  0  0  0  0  0  0
   26.7403   -1.6575    0.0000 O   0  0  0  0  0  0  0  0  0  0  0  0
   24.2653   -0.8325    0.0000 O   0  0  0  0  0  0  0  0  0  0  0  0
   24.2653   -2.4825    0.0000 O   0  0  0  0  0  0  0  0  0  0  0  0
   25.9153   -0.8325    0.0000 O   0  0  0  0  0  0  0  0  0  0  0  0
   25.9153   -2.4825    0.0000 O   0  0  0  0  0  0  0  0  0  0  0  0
   24.2653   -1.6575    0.0000 P   0  0  0  0  0  0  0  0  0  0  0  0
   25.9153   -1.6575    0.0000 P   0  0  0  0  0  0  0  0  0  0  0  0
   27.3237   -1.0742    0.0000 C   0  0  0  0  0  0  0  0  0  0  0  0
   27.8783   -2.7812    0.0000 O   0  0  0  0  0  0  0  0  0  0  0  0
   27.0533   -3.6062    0.0000 O   0  0  0  0  0  0  0  0  0  0  0  0
   28.7033   -3.6062    0.0000 O   0  0  0  0  0  0  0  0  0  0  0  0
   27.8783   -3.6062    0.0000 P   0  0  0  0  0  0  0  0  0  0  0  0
   27.8783   -4.4312    0.0000 O   0  0  0  0  0  0  0  0  0  0  0  0
   30.2278   -1.0742    0.0000 N   0  0  0  0  0  0  0  0  0  0  0  0
   30.8410   -1.6262    0.0000 C   0  0  0  0  0  0  0  0  0  0  0  0
   30.5634   -0.3205    0.0000 C   0  0  0  0  0  0  0  0  0  0  0  0
   31.5554   -1.2137    0.0000 C   0  0  0  0  0  0  0  0  0  0  0  0
   30.8410   -2.4512    0.0000 N   0  0  0  0  0  0  0  0  0  0  0  0
   31.3839   -0.4067    0.0000 N   0  0  0  0  0  0  0  0  0  0  0  0
   32.2699   -1.6261    0.0000 C   0  0  0  0  0  0  0  0  0  0  0  0
   31.5555   -2.8636    0.0000 C   0  0  0  0  0  0  0  0  0  0  0  0
   32.2699   -2.4511    0.0000 N   0  0  0  0  0  0  0  0  0  0  0  0
   32.9843   -1.2136    0.0000 N   0  0  0  0  0  0  0  0  0  0  0  0
   24.1548   -5.3701    0.0000 S   0  0  0  0  0  0  0  0  0  0  0  0
   25.5837   -5.3701    0.0000 C   0  0  0  0  0  0  0  0  0  0  0  0
   26.2982   -5.7826    0.0000 C   0  0  0  0  0  0  0  0  0  0  0  0
   27.0127   -5.3701    0.0000 C   0  0  0  0  0  0  0  0  0  0  0  0
   27.7272   -5.7826    0.0000 C   0  0  0  0  0  0  0  0  0  0  0  0
   28.4416   -5.3701    0.0000 C   0  0  0  0  0  0  0  0  0  0  0  0
   29.1561   -5.7826    0.0000 C   0  0  0  0  0  0  0  0  0  0  0  0
   29.8706   -5.3701    0.0000 C   0  0  0  0  0  0  0  0  0  0  0  0
   24.8693   -5.7826    0.0000 C   0  0  0  0  0  0  0  0  0  0  0  0
   24.8693   -6.6076    0.0000 O   0  0  0  0  0  0  0  0  0  0  0  0
  1 38  1  1  0  0  0
  2  1  1  0  0  0  0
  3  1  1  0  0  0  0
  4  2  1  0  0  0  0
  5  3  1  0  0  0  0
  3  6  1  6  0  0  0
  4 32  1  1  0  0  0
  5  4  1  0  0  0  0
  5 33  1  6  0  0  0
  9  7  1  0  0  0  0
  7  8  1  0  0  0  0
  8 48  1  0  0  0  0
 10  9  1  0  0  0  0
 13 10  1  0  0  0  0
 10 11  2  0  0  0  0
 12 14  1  0  0  0  0
 13 12  1  0  0  0  0
 16 14  1  0  0  0  0
 16 15  2  0  0  0  0
 16 21  1  0  0  0  0
 19 17  1  0  0  0  0
 17 23  1  0  0  0  0
 19 18  1  0  0  0  0
 21 19  1  0  0  0  0
 19 20  1  0  0  0  0
 21 22  1  6  0  0  0
 23 30  1  0  0  0  0
 30 24  1  0  0  0  0
 24 31  1  0  0  0  0
 31 25  1  0  0  0  0
 32 25  1  0  0  0  0
 30 26  2  0  0  0  0
 30 27  1  0  0  0  0
 31 28  2  0  0  0  0
 31 29  1  0  0  0  0
 33 36  1  0  0  0  0
 36 34  1  0  0  0  0
 36 35  1  0  0  0  0
 36 37  2  0  0  0  0
 39 38  1  0  0  0  0
 40 38  1  0  0  0  0
 41 39  2  0  0  0  0
 42 39  1  0  0  0  0
 43 40  2  0  0  0  0
 44 41  1  0  0  0  0
 43 41  1  0  0  0  0
 45 42  2  0  0  0  0
 46 44  2  0  0  0  0
 47 44  1  0  0  0  0
 46 45  1  0  0  0  0
 48 56  1  0  0  0  0
 56 49  1  0  0  0  0
 49 50  1  0  0  0  0
 50 51  1  0  0  0  0
 51 52  1  0  0  0  0
 52 53  1  0  0  0  0
 53 54  1  0  0  0  0
 54 55  1  0  0  0  0
 56 57  2  0  0  0  0
M  END
> <DATABASE_ID>
DB02910

> <DATABASE_NAME>
drugbank

> <SMILES>
CCCCCCCC(=O)SCCNC(=O)CCNC(=O)[C@H](O)C(C)(C)COP(O)(=O)OP(O)(=O)OC[C@H]1O[C@H]([C@H](O)[C@@H]1OP(O)(O)=O)N1C=NC2=C1N=CN=C2N

> <INCHI_IDENTIFIER>
InChI=1S/C29H50N7O17P3S/c1-4-5-6-7-8-9-20(38)57-13-12-31-19(37)10-11-32-27(41)24(40)29(2,3)15-50-56(47,48)53-55(45,46)49-14-18-23(52-54(42,43)44)22(39)28(51-18)36-17-35-21-25(30)33-16-34-26(21)36/h16-18,22-24,28,39-40H,4-15H2,1-3H3,(H,31,37)(H,32,41)(H,45,46)(H,47,48)(H2,30,33,34)(H2,42,43,44)/t18-,22-,23-,24+,28-/m1/s1

> <INCHI_KEY>
KQMZYOXOBSXMII-CECATXLMSA-N

> <FORMULA>
C29H50N7O17P3S

> <MOLECULAR_WEIGHT>
893.73

> <EXACT_MASS>
893.219673435

> <JCHEM_ACCEPTOR_COUNT>
17

> <JCHEM_ATOM_COUNT>
107

> <JCHEM_AVERAGE_NEUTRAL_MICROSPECIES_CHARGE>
-3.9551811461944544

> <JCHEM_AVERAGE_POLARIZABILITY>
85.11658747842634

> <JCHEM_BIOAVAILABILITY>
0

> <JCHEM_DONOR_COUNT>
9

> <JCHEM_FORMAL_CHARGE>
0

> <JCHEM_GHOSE_FILTER>
0

> <JCHEM_IUPAC>
{[(2R,3S,4R,5R)-5-(6-amino-9H-purin-9-yl)-4-hydroxy-2-({[hydroxy({hydroxy[(3R)-3-hydroxy-2,2-dimethyl-3-[(2-{[2-(octanoylsulfanyl)ethyl]carbamoyl}ethyl)carbamoyl]propoxy]phosphoryl}oxy)phosphoryl]oxy}methyl)oxolan-3-yl]oxy}phosphonic acid

> <ALOGPS_LOGP>
0.45

> <JCHEM_LOGP>
-3.1423582947650726

> <ALOGPS_LOGS>
-2.41

> <JCHEM_MDDR_LIKE_RULE>
1

> <JCHEM_NEUTRAL_CHARGE>
-4

> <JCHEM_NUMBER_OF_RINGS>
3

> <JCHEM_PHYSIOLOGICAL_CHARGE>
-4

> <JCHEM_PKA>
0.921927296988387

> <JCHEM_PKA_STRONGEST_ACIDIC>
0.8257565645629557

> <JCHEM_PKA_STRONGEST_BASIC>
4.887053440723845

> <JCHEM_POLAR_SURFACE_AREA>
363.6299999999999

> <JCHEM_REFRACTIVITY>
199.8399

> <JCHEM_ROTATABLE_BOND_COUNT>
26

> <JCHEM_RULE_OF_FIVE>
0

> <ALOGPS_SOLUBILITY>
3.47e+00 g/l

> <JCHEM_TRADITIONAL_IUPAC>
tetrahydrofolic acid

> <JCHEM_VEBER_RULE>
0

> <DRUGBANK_ID>
DB02910

> <SECONDARY_ACCESSION_NUMBERS>
EXPT00977

> <DRUG_GROUPS>
experimental

> <GENERIC_NAME>
Octanoyl-Coenzyme A

$$$$
