
  Mrv0541 02231216032D          

 10  9  0  0  1  0            999 V2000
    4.6184    2.6664    0.0000 N   0  0  0  0  0  0  0  0  0  0  0  0
    4.6184    1.8414    0.0000 C   0  0  1  0  0  0  0  0  0  0  0  0
    3.9039    1.4289    0.0000 C   0  0  0  0  0  0  0  0  0  0  0  0
    3.1895    1.8414    0.0000 C   0  0  0  0  0  0  0  0  0  0  0  0
    2.4750    1.4289    0.0000 C   0  0  0  0  0  0  0  0  0  0  0  0
    1.7605    1.8414    0.0000 C   0  0  0  0  0  0  0  0  0  0  0  0
    1.0461    1.4289    0.0000 O   0  0  0  0  0  0  0  0  0  0  0  0
    5.3329    1.4289    0.0000 C   0  0  0  0  0  0  0  0  0  0  0  0
    6.0474    1.8414    0.0000 O   0  0  0  0  0  0  0  0  0  0  0  0
    5.3329    0.6039    0.0000 O   0  0  0  0  0  0  0  0  0  0  0  0
  2  1  1  6  0  0  0
  2  3  1  0  0  0  0
  3  4  1  0  0  0  0
  4  5  1  0  0  0  0
  5  6  1  0  0  0  0
  6  7  1  0  0  0  0
  2  8  1  0  0  0  0
  8  9  1  0  0  0  0
  8 10  2  0  0  0  0
M  END
> <DATABASE_ID>
DB03412

> <DATABASE_NAME>
drugbank

> <SMILES>
N[C@@H](CCCCO)C(O)=O

> <INCHI_IDENTIFIER>
InChI=1S/C6H13NO3/c7-5(6(9)10)3-1-2-4-8/h5,8H,1-4,7H2,(H,9,10)/t5-/m0/s1

> <INCHI_KEY>
OLUWXTFAPJJWPL-YFKPBYRVSA-N

> <FORMULA>
C6H13NO3

> <MOLECULAR_WEIGHT>
147.1723

> <EXACT_MASS>
147.089543287

> <JCHEM_ACCEPTOR_COUNT>
4

> <JCHEM_ATOM_COUNT>
23

> <JCHEM_AVERAGE_NEUTRAL_MICROSPECIES_CHARGE>
-0.0029374696013616387

> <JCHEM_AVERAGE_POLARIZABILITY>
15.548284196607092

> <JCHEM_BIOAVAILABILITY>
1

> <JCHEM_DONOR_COUNT>
3

> <JCHEM_FORMAL_CHARGE>
0

> <JCHEM_GHOSE_FILTER>
0

> <JCHEM_IUPAC>
(2S)-2-amino-6-hydroxyhexanoic acid

> <ALOGPS_LOGP>
-2.94

> <JCHEM_LOGP>
-2.8659076406581523

> <ALOGPS_LOGS>
-0.16

> <JCHEM_MDDR_LIKE_RULE>
0

> <JCHEM_NEUTRAL_CHARGE>
0

> <JCHEM_NUMBER_OF_RINGS>
0

> <JCHEM_PHYSIOLOGICAL_CHARGE>
0

> <JCHEM_PKA>
16.84390115987971

> <JCHEM_PKA_STRONGEST_ACIDIC>
2.4582763951696154

> <JCHEM_PKA_STRONGEST_BASIC>
9.526513736833133

> <JCHEM_POLAR_SURFACE_AREA>
83.55000000000001

> <JCHEM_REFRACTIVITY>
36.152

> <JCHEM_ROTATABLE_BOND_COUNT>
5

> <JCHEM_RULE_OF_FIVE>
1

> <ALOGPS_SOLUBILITY>
1.01e+02 g/l

> <JCHEM_TRADITIONAL_IUPAC>
tetrahydrofolic acid

> <JCHEM_VEBER_RULE>
0

> <DRUGBANK_ID>
DB03412

> <SECONDARY_ACCESSION_NUMBERS>
EXPT02015

> <DRUG_GROUPS>
experimental

> <GENERIC_NAME>
6-hydroxynorleucine

> <SYNONYMS>
2-Amino-6-hydroxycaproic acid; 6-hydroxy-L-norleucine; alpha-Amino-epsilon-hydroxycaproic acid

$$$$
