
  Mrv0541 05041402202D          

 34 38  0  0  1  0            999 V2000
    3.4990    4.4104    0.0000 C   0  0  0  0  0  0  0  0  0  0  0  0
    2.7845    4.8229    0.0000 C   0  0  0  0  0  0  0  0  0  0  0  0
    3.4990    3.5854    0.0000 C   0  0  0  0  0  0  0  0  0  0  0  0
    2.0701    4.4104    0.0000 C   0  0  0  0  0  0  0  0  0  0  0  0
    2.7845    3.1729    0.0000 C   0  0  0  0  0  0  0  0  0  0  0  0
   -2.6392    2.3721    0.0000 C   0  0  0  0  0  0  0  0  0  0  0  0
   -2.1977    1.0131    0.0000 C   0  0  0  0  0  0  0  0  0  0  0  0
    2.7845   -0.1271    0.0000 C   0  0  0  0  0  0  0  0  0  0  0  0
    3.4990    1.1104    0.0000 C   0  0  0  0  0  0  0  0  0  0  0  0
   -3.4239    2.1171    0.0000 C   0  0  0  0  0  0  0  0  0  0  0  0
   -2.9823    0.7581    0.0000 C   0  0  0  0  0  0  0  0  0  0  0  0
    3.4990   -0.5396    0.0000 C   0  0  0  0  0  0  0  0  0  0  0  0
    4.2135    0.6979    0.0000 C   0  0  0  0  0  0  0  0  0  0  0  0
    1.3556    3.1729    0.0000 C   0  0  0  0  0  0  0  0  0  0  0  0
   -1.2415    2.0750    0.0000 C   0  0  0  0  0  0  0  0  0  0  0  0
    1.3556    0.6979    0.0000 C   0  0  0  0  0  0  0  0  0  0  0  0
    2.0701    3.5854    0.0000 C   0  0  0  0  0  0  0  0  0  0  0  0
   -2.0261    1.8200    0.0000 C   0  0  0  0  0  0  0  0  0  0  0  0
    2.7845    0.6979    0.0000 C   0  0  0  0  0  0  0  0  0  0  0  0
   -3.5954    1.3102    0.0000 C   0  0  0  0  0  0  0  0  0  0  0  0
    4.2135   -0.1271    0.0000 C   0  0  0  0  0  0  0  0  0  0  0  0
    1.3556    2.3479    0.0000 C   0  0  0  0  0  0  0  0  0  0  0  0
    2.0701    1.1104    0.0000 C   0  0  0  0  0  0  0  0  0  0  0  0
    0.6411    1.9354    0.0000 C   0  0  0  0  0  0  0  0  0  0  0  0
   -0.1435    0.8555    0.0000 C   0  0  0  0  0  0  0  0  0  0  0  0
   -0.6284    1.5229    0.0000 C   0  0  2  0  0  0  0  0  0  0  0  0
    2.0701    1.9354    0.0000 N   0  0  0  0  0  0  0  0  0  0  0  0
   -0.1435    2.1904    0.0000 N   0  0  0  0  0  0  0  0  0  0  0  0
    0.6411    1.1104    0.0000 N   0  0  0  0  0  0  0  0  0  0  0  0
   -4.3800    1.0552    0.0000 O   0  0  0  0  0  0  0  0  0  0  0  0
    4.9279   -0.5396    0.0000 O   0  0  0  0  0  0  0  0  0  0  0  0
   -0.3984    0.0709    0.0000 O   0  0  0  0  0  0  0  0  0  0  0  0
   -1.0700    0.1639    0.0000 O   0  0  0  0  0  0  0  0  0  0  0  0
   -1.2415    0.9709    0.0000 O   0  0  0  0  0  0  0  0  0  0  0  0
  2  1  2  0  0  0  0
  3  1  1  0  0  0  0
  4  2  1  0  0  0  0
  5  3  2  0  0  0  0
 10  6  1  0  0  0  0
 11  7  2  0  0  0  0
 12  8  1  0  0  0  0
 13  9  2  0  0  0  0
 17  4  2  0  0  0  0
 17  5  1  0  0  0  0
 17 14  1  0  0  0  0
 18  6  2  0  0  0  0
 18  7  1  0  0  0  0
 18 15  1  0  0  0  0
 19  8  2  0  0  0  0
 19  9  1  0  0  0  0
 20 10  2  0  0  0  0
 20 11  1  0  0  0  0
 21 12  2  0  0  0  0
 21 13  1  0  0  0  0
 22 14  1  0  0  0  0
 23 16  2  0  0  0  0
 23 19  1  0  0  0  0
 24 22  1  0  0  0  0
 26 15  1  1  0  0  0
 26 25  1  0  0  0  0
 27 22  2  0  0  0  0
 27 23  1  0  0  0  0
 28 24  2  0  0  0  0
 28 26  1  0  0  0  0
 29 16  1  0  0  0  0
 29 24  1  0  0  0  0
 29 25  1  0  0  0  0
 30 20  1  0  0  0  0
 31 21  1  0  0  0  0
 32 25  2  0  0  0  0
 26 34  1  6  0  0  0
 34 33  1  0  0  0  0
M  END
> <DATABASE_ID>
DB02241

> <DATABASE_NAME>
drugbank

> <SMILES>
OO[C@]1(CC2=CC=C(O)C=C2)N=C2N(C=C(N=C2CC2=CC=CC=C2)C2=CC=C(O)C=C2)C1=O

> <INCHI_IDENTIFIER>
InChI=1S/C26H21N3O5/c30-20-10-6-18(7-11-20)15-26(34-33)25(32)29-16-23(19-8-12-21(31)13-9-19)27-22(24(29)28-26)14-17-4-2-1-3-5-17/h1-13,16,30-31,33H,14-15H2/t26-/m0/s1

> <INCHI_KEY>
HOSWCJDTHOAORT-SANMLTNESA-N

> <FORMULA>
C26H21N3O5

> <MOLECULAR_WEIGHT>
455.462

> <EXACT_MASS>
455.148120797

> <JCHEM_ACCEPTOR_COUNT>
7

> <JCHEM_ATOM_COUNT>
55

> <JCHEM_AVERAGE_NEUTRAL_MICROSPECIES_CHARGE>
-0.014321732037797316

> <JCHEM_AVERAGE_POLARIZABILITY>
46.89061235696448

> <JCHEM_BIOAVAILABILITY>
1

> <JCHEM_DONOR_COUNT>
3

> <JCHEM_FORMAL_CHARGE>
0

> <JCHEM_GHOSE_FILTER>
1

> <JCHEM_IUPAC>
(2S)-8-benzyl-2-hydroperoxy-6-(4-hydroxyphenyl)-2-[(4-hydroxyphenyl)methyl]-2H,3H-imidazo[1,2-a]pyrazin-3-one

> <ALOGPS_LOGP>
3.66

> <JCHEM_LOGP>
4.623203188

> <ALOGPS_LOGS>
-4.45

> <JCHEM_MDDR_LIKE_RULE>
1

> <JCHEM_NEUTRAL_CHARGE>
0

> <JCHEM_NUMBER_OF_RINGS>
5

> <JCHEM_PHYSIOLOGICAL_CHARGE>
0

> <JCHEM_PKA>
9.640307664207887

> <JCHEM_PKA_STRONGEST_ACIDIC>
8.948860266340485

> <JCHEM_PKA_STRONGEST_BASIC>
1.037417762896743

> <JCHEM_POLAR_SURFACE_AREA>
114.95000000000002

> <JCHEM_REFRACTIVITY>
125.51429999999996

> <JCHEM_ROTATABLE_BOND_COUNT>
6

> <JCHEM_RULE_OF_FIVE>
1

> <ALOGPS_SOLUBILITY>
1.60e-02 g/l

> <JCHEM_TRADITIONAL_IUPAC>
tetrahydrofolic acid

> <JCHEM_VEBER_RULE>
0

> <DRUGBANK_ID>
DB02241

> <SECONDARY_ACCESSION_NUMBERS>
EXPT01085

> <DRUG_GROUPS>
experimental

> <GENERIC_NAME>
8-Benzyl-2-Hydroperoxy-2-(4-Hydroxy-Benzyl)-6-(4-Hydroxy-Phenyl)-2h-Imidazo[1,2-a]Pyrazin-3-One

$$$$
