
  Mrv0541 05041400502D          

 15 15  0  0  1  0            999 V2000
    0.5678    1.9393    0.0000 C   0  0  0  0  0  0  0  0  0  0  0  0
    2.2857   -0.7365    0.0000 C   0  0  0  0  0  0  0  0  0  0  0  0
    1.2352    0.6294    0.0000 C   0  0  0  0  0  0  0  0  0  0  0  0
    0.5678    1.1143    0.0000 C   0  0  2  0  0  0  0  0  0  0  0  0
    0.9803   -0.1553    0.0000 C   0  0  2  0  0  0  0  0  0  0  0  0
   -0.0997    0.6294    0.0000 C   0  0  2  0  0  0  0  0  0  0  0  0
   -0.8843    0.8843    0.0000 C   0  0  0  0  0  0  0  0  0  0  0  0
    0.1553   -0.1553    0.0000 N   0  0  0  0  0  0  0  0  0  0  0  0
    1.4652   -0.8227    0.0000 N   0  0  0  0  0  0  0  0  0  0  0  0
   -1.4974    0.3323    0.0000 O   0  0  0  0  0  0  0  0  0  0  0  0
   -1.0558    1.6913    0.0000 O   0  0  0  0  0  0  0  0  0  0  0  0
    1.1296   -1.5764    0.0000 O   0  0  0  0  0  0  0  0  0  0  0  0
    1.3028    1.4888    0.0000 H   0  0  0  0  0  0  0  0  0  0  0  0
    1.7951   -0.0262    0.0000 H   0  0  0  0  0  0  0  0  0  0  0  0
   -0.2287    1.4442    0.0000 H   0  0  0  0  0  0  0  0  0  0  0  0
  4  1  1  6  0  0  0
  4  3  1  0  0  0  0
  5  3  1  0  0  0  0
  6  4  1  0  0  0  0
  6  7  1  1  0  0  0
  8  5  1  0  0  0  0
  8  6  1  0  0  0  0
  9  2  1  0  0  0  0
  5  9  1  1  0  0  0
 10  7  2  0  0  0  0
 11  7  1  0  0  0  0
 12  9  1  0  0  0  0
  4 13  1  1  0  0  0
  5 14  1  6  0  0  0
  6 15  1  6  0  0  0
M  END
> <DATABASE_ID>
DB01855

> <DATABASE_NAME>
drugbank

> <SMILES>
[H][C@@]1(C)C[C@]([H])(N[C@@]1([H])C(O)=O)N(C)O

> <INCHI_IDENTIFIER>
InChI=1S/C7H14N2O3/c1-4-3-5(9(2)12)8-6(4)7(10)11/h4-6,8,12H,3H2,1-2H3,(H,10,11)/t4-,5-,6-/m1/s1

> <INCHI_KEY>
PGYJBAGGGAUHGV-HSUXUTPPSA-N

> <FORMULA>
C7H14N2O3

> <MOLECULAR_WEIGHT>
174.1977

> <EXACT_MASS>
174.100442324

> <JCHEM_ACCEPTOR_COUNT>
5

> <JCHEM_ATOM_COUNT>
26

> <JCHEM_AVERAGE_NEUTRAL_MICROSPECIES_CHARGE>
-0.022185724306205124

> <JCHEM_AVERAGE_POLARIZABILITY>
17.50869769460779

> <JCHEM_BIOAVAILABILITY>
1

> <JCHEM_DONOR_COUNT>
3

> <JCHEM_FORMAL_CHARGE>
0

> <JCHEM_GHOSE_FILTER>
0

> <JCHEM_IUPAC>
(2R,3R,5R)-5-[hydroxy(methyl)amino]-3-methylpyrrolidine-2-carboxylic acid

> <ALOGPS_LOGP>
-2.49

> <JCHEM_LOGP>
-2.775980430793287

> <ALOGPS_LOGS>
-0.01

> <JCHEM_MDDR_LIKE_RULE>
0

> <JCHEM_NEUTRAL_CHARGE>
0

> <JCHEM_NUMBER_OF_RINGS>
1

> <JCHEM_PHYSIOLOGICAL_CHARGE>
0

> <JCHEM_PKA>
15.478474338183439

> <JCHEM_PKA_STRONGEST_ACIDIC>
3.105669161422548

> <JCHEM_PKA_STRONGEST_BASIC>
7.434980318425632

> <JCHEM_POLAR_SURFACE_AREA>
72.80000000000001

> <JCHEM_REFRACTIVITY>
41.872899999999994

> <JCHEM_ROTATABLE_BOND_COUNT>
2

> <JCHEM_RULE_OF_FIVE>
1

> <ALOGPS_SOLUBILITY>
1.70e+02 g/l

> <JCHEM_TRADITIONAL_IUPAC>
tetrahydrofolic acid

> <JCHEM_VEBER_RULE>
0

> <DRUGBANK_ID>
DB01855

> <SECONDARY_ACCESSION_NUMBERS>
EXPT00682

> <DRUG_GROUPS>
experimental

> <GENERIC_NAME>
5-(Hydroxy-Methyl-Amino)-3-Methyl-Pyrrolidine-2-Carboxylic Acid

$$$$
