
  Mrv0541 05031423572D          

 79 85  0  0  1  0            999 V2000
    5.7568    0.5361    0.0000 C   0  0  0  0  0  0  0  0  0  0  0  0
    2.3311   -1.6659    0.0000 C   0  0  0  0  0  0  0  0  0  0  0  0
    1.9656   -1.2979    0.0000 C   0  0  0  0  0  0  0  0  0  0  0  0
    1.2416    8.4805    0.0000 C   0  0  0  0  0  0  0  0  0  0  0  0
    6.1774    1.9254    0.0000 C   0  0  0  0  0  0  0  0  0  0  0  0
    4.9438   -2.1781    0.0000 C   0  0  0  0  0  0  0  0  0  0  0  0
    1.6689    1.3510    0.0000 C   0  0  0  0  0  0  0  0  0  0  0  0
    6.9042    1.4828    0.0000 C   0  0  0  0  0  0  0  0  0  0  0  0
    5.4316   -1.5053    0.0000 C   0  0  0  0  0  0  0  0  0  0  0  0
    2.5044    1.5792    0.0000 C   0  0  0  0  0  0  0  0  0  0  0  0
   -0.9379    8.3615    0.0000 C   0  0  0  0  0  0  0  0  0  0  0  0
    5.3326    2.0406    0.0000 C   0  0  0  0  0  0  0  0  0  0  0  0
    4.1064   -2.1895    0.0000 C   0  0  0  0  0  0  0  0  0  0  0  0
    1.4370    0.5408    0.0000 C   0  0  0  0  0  0  0  0  0  0  0  0
   -1.0494    7.5440    0.0000 C   0  0  0  0  0  0  0  0  0  0  0  0
    2.1140    1.9748    0.0000 C   0  0  0  0  0  0  0  0  0  0  0  0
    5.0567    0.9725    0.0000 C   0  0  0  0  0  0  0  0  0  0  0  0
    2.9823   -1.1594    0.0000 C   0  0  0  0  0  0  0  0  0  0  0  0
    2.4445   -0.6261    0.0000 C   0  0  0  0  0  0  0  0  0  0  0  0
    7.2447    0.7085    0.0000 C   0  0  2  0  0  0  0  0  0  0  0  0
    5.4536   -0.6709    0.0000 C   0  0  2  0  0  0  0  0  0  0  0  0
    3.3289    1.2225    0.0000 C   0  0  1  0  0  0  0  0  0  0  0  0
    2.5483    2.6762    0.0000 C   0  0  1  0  0  0  0  0  0  0  0  0
   -0.1742    8.6736    0.0000 C   0  0  0  0  0  0  0  0  0  0  0  0
    0.9432    4.1554    0.0000 C   0  0  2  0  0  0  0  0  0  0  0  0
    0.1186    4.1808    0.0000 C   0  0  2  0  0  0  0  0  0  0  0  0
   -1.0891    5.0192    0.0000 C   0  0  1  0  0  0  0  0  0  0  0  0
   -1.2356    5.8311    0.0000 C   0  0  1  0  0  0  0  0  0  0  0  0
   -0.2716    4.9077    0.0000 C   0  0  2  0  0  0  0  0  0  0  0  0
    6.9209   -0.0690    0.0000 C   0  0  0  0  0  0  0  0  0  0  0  0
    4.7620   -0.1322    0.0000 C   0  0  0  0  0  0  0  0  0  0  0  0
    3.7632    1.9239    0.0000 C   0  0  0  0  0  0  0  0  0  0  0  0
    2.1581    3.4030    0.0000 C   0  0  0  0  0  0  0  0  0  0  0  0
   -0.5088    6.2213    0.0000 C   0  0  2  0  0  0  0  0  0  0  0  0
    1.3776    4.8568    0.0000 C   0  0  0  0  0  0  0  0  0  0  0  0
    0.7010    9.8032    0.0000 C   0  0  0  0  0  0  0  0  0  0  0  0
    0.3664    7.3509    0.0000 C   0  0  0  0  0  0  0  0  0  0  0  0
    3.7386    0.1890    0.0000 Fe  0  7  0  0  0  0  0  0  0  0  0  0
    8.0696    0.7166    0.0000 N   0  0  0  0  0  0  0  0  0  0  0  0
    0.8125   10.6206    0.0000 N   0  0  0  0  0  0  0  0  0  0  0  0
    6.2868   -0.6078    0.0000 N   0  0  0  0  0  0  0  0  0  0  0  0
    4.0905    0.5802    0.0000 N   0  0  0  0  0  0  0  0  0  0  0  0
    3.3729    2.6507    0.0000 N   0  0  0  0  0  0  0  0  0  0  0  0
   -0.0627    9.4910    0.0000 N   0  0  0  0  0  0  0  0  0  0  0  0
    1.3335    3.4285    0.0000 N   0  0  0  0  0  0  0  0  0  0  0  0
    0.4779    8.1683    0.0000 N   0  0  0  0  0  0  0  0  0  0  0  0
   -0.3972    7.0388    0.0000 N   0  0  0  0  0  0  0  0  0  0  0  0
    4.6514    1.5204    0.0000 N   0  0  0  0  0  0  0  0  0  0  0  0
    3.7883   -1.3853    0.0000 N   0  0  0  0  0  0  0  0  0  0  0  0
    2.1975    0.1585    0.0000 N   0  0  0  0  0  0  0  0  0  0  0  0
    1.2894    2.0002    0.0000 O   0  0  0  0  0  0  0  0  0  0  0  0
   -0.3157    3.4794    0.0000 O   0  0  0  0  0  0  0  0  0  0  0  0
   -1.6598    4.4234    0.0000 O   0  0  0  0  0  0  0  0  0  0  0  0
   -1.9786    6.1897    0.0000 O   0  0  0  0  0  0  0  0  0  0  0  0
    7.5873   -0.5554    0.0000 O   0  0  0  0  0  0  0  0  0  0  0  0
    3.9419   -0.0416    0.0000 O   0  0  0  0  0  0  0  0  0  0  0  0
    4.5878    1.8984    0.0000 O   0  0  0  0  0  0  0  0  0  0  0  0
    2.5924    4.1044    0.0000 O   0  0  0  0  0  0  0  0  0  0  0  0
    0.9873    5.5836    0.0000 O   0  0  0  0  0  0  0  0  0  0  0  0
    2.2022    4.8313    0.0000 O   0  0  0  0  0  0  0  0  0  0  0  0
    1.3531    9.2979    0.0000 O   0  0  0  0  0  0  0  0  0  0  0  0
    1.0186    6.8456    0.0000 O   0  0  0  0  0  0  0  0  0  0  0  0
    4.0296    1.1602    0.0000 O   0  3  0  0  0  0  0  0  0  0  0  0
    2.9600   -0.2424    0.0000 O   0  3  0  0  0  0  0  0  0  0  0  0
    3.3763   -0.6008    0.0000 O   0  3  0  0  0  0  0  0  0  0  0  0
    4.6798    0.4582    0.0000 O   0  0  0  0  0  0  0  0  0  0  0  0
    4.1759   -0.6104    0.0000 O   0  0  0  0  0  0  0  0  0  0  0  0
    2.9176    0.5822    0.0000 O   0  0  0  0  0  0  0  0  0  0  0  0
    0.0870    5.6506    0.0000 S   0  0  0  0  0  0  0  0  0  0  0  0
    7.6922    1.4015    0.0000 H   0  0  0  0  0  0  0  0  0  0  0  0
    4.9595   -1.3315    0.0000 H   0  0  0  0  0  0  0  0  0  0  0  0
    3.0819    2.0096    0.0000 H   0  0  0  0  0  0  0  0  0  0  0  0
    1.7237    2.7016    0.0000 H   0  0  0  0  0  0  0  0  0  0  0  0
    0.3279    4.7049    0.0000 H   0  0  0  0  0  0  0  0  0  0  0  0
    0.2869    4.9885    0.0000 H   0  0  0  0  0  0  0  0  0  0  0  0
   -1.9128    4.9727    0.0000 H   0  0  0  0  0  0  0  0  0  0  0  0
   -2.0236    5.5867    0.0000 H   0  0  0  0  0  0  0  0  0  0  0  0
   -0.7421    4.2300    0.0000 H   0  0  0  0  0  0  0  0  0  0  0  0
   -1.1865    6.6918    0.0000 H   0  0  0  0  0  0  0  0  0  0  0  0
  8  5  1  0  0  0  0
  9  6  1  0  0  0  0
 10  7  1  0  0  0  0
 12  5  1  0  0  0  0
 13  6  1  0  0  0  0
 14  7  1  0  0  0  0
 15 11  2  0  0  0  0
 17  1  1  0  0  0  0
 18  2  1  0  0  0  0
 19  3  1  0  0  0  0
 20  8  1  0  0  0  0
 21  9  1  0  0  0  0
 22 10  1  0  0  0  0
 23 16  1  0  0  0  0
 24 11  1  0  0  0  0
 26 25  1  0  0  0  0
 28 27  1  0  0  0  0
 29 26  1  6  0  0  0
 29 27  1  0  0  0  0
 30 20  1  0  0  0  0
 31 21  1  0  0  0  0
 22 32  1  1  0  0  0
 33 23  1  0  0  0  0
 34 28  1  0  0  0  0
 35 25  1  0  0  0  0
 20 39  1  1  0  0  0
 40 36  1  0  0  0  0
 41 21  1  0  0  0  0
 41 30  1  0  0  0  0
 42 22  1  0  0  0  0
 42 31  1  0  0  0  0
 23 43  1  6  0  0  0
 43 32  1  0  0  0  0
 44 24  2  0  0  0  0
 44 36  1  0  0  0  0
 25 45  1  1  0  0  0
 45 33  1  0  0  0  0
 46  4  1  0  0  0  0
 46 24  1  0  0  0  0
 46 37  1  0  0  0  0
 47 15  1  0  0  0  0
 34 47  1  6  0  0  0
 47 37  1  0  0  0  0
 48 12  1  0  0  0  0
 48 17  1  0  0  0  0
 49 13  1  0  0  0  0
 49 18  1  0  0  0  0
 50 14  1  0  0  0  0
 50 19  1  0  0  0  0
 51 16  1  0  0  0  0
 26 52  1  6  0  0  0
 27 53  1  1  0  0  0
 28 54  1  6  0  0  0
 55 30  2  0  0  0  0
 56 31  2  0  0  0  0
 57 32  2  0  0  0  0
 58 33  2  0  0  0  0
 59 35  1  0  0  0  0
 60 35  2  0  0  0  0
 61 36  2  0  0  0  0
 62 37  2  0  0  0  0
 63 17  2  0  0  0  0
 63 38  1  0  0  0  0
 64 18  2  0  0  0  0
 64 38  1  0  0  0  0
 65 19  2  0  0  0  0
 65 38  1  0  0  0  0
 66 38  1  0  0  0  0
 66 48  1  0  0  0  0
 67 38  1  0  0  0  0
 67 49  1  0  0  0  0
 68 38  1  0  0  0  0
 68 50  1  0  0  0  0
 69 29  1  0  0  0  0
 69 34  1  0  0  0  0
 20 70  1  6  0  0  0
 21 71  1  1  0  0  0
 22 72  1  6  0  0  0
 23 73  1  6  0  0  0
 25 74  1  1  0  0  0
 26 75  1  6  0  0  0
 27 76  1  6  0  0  0
 28 77  1  1  0  0  0
 29 78  1  1  0  0  0
 34 79  1  1  0  0  0
M  CHG  4  38  -3  63   1  64   1  65   1
M  END
> <DATABASE_ID>
DB02724

> <DATABASE_NAME>
drugbank

> <SMILES>
O1N2C(=[O+][Fe-3]1134ON(C(=[O+]1)C)CCC[C@](C(=O)N[C@@](C(=O)N[C@@](C(O)=O)([C@@]([C@]1(S[C@@](N5C=C\C(=N\C(N)=O)N(C5=O)C)([C@@]([C@]1([H])O)([H])O)[H])[H])([H])O)[H])([H])CO)([H])NC([C@@]([H])(CCCN(O3)C(=[O+]4)C)NC([C@]([H])(N)CCC2)=O)=O)C

> <INCHI_IDENTIFIER>
InChI=1S/C37H57N12O18S.Fe/c1-17(51)47(65)12-5-8-20(38)30(57)40-21(9-6-13-48(66)18(2)52)31(58)41-22(10-7-14-49(67)19(3)53)32(59)42-23(16-50)33(60)44-25(35(61)62)26(54)29-27(55)28(56)34(68-29)46-15-11-24(43-36(39)63)45(4)37(46)64;/h11,15,20-23,25-29,34,50,54-56H,5-10,12-14,16,38H2,1-4H3,(H2,39,63)(H,40,57)(H,41,58)(H,42,59)(H,44,60)(H,61,62);/q-3;+3/b43-24-;/t20-,21-,22+,23+,25-,26-,27+,28+,29-,34-;/m1./s1

> <INCHI_KEY>
RQZRKFJHRUDTLB-OOXACHQASA-N

> <FORMULA>
C37H57FeN12O18S

> <MOLECULAR_WEIGHT>
1045.828

> <EXACT_MASS>
1045.298390903

> <JCHEM_ACCEPTOR_COUNT>
23

> <JCHEM_ATOM_COUNT>
126

> <JCHEM_AVERAGE_NEUTRAL_MICROSPECIES_CHARGE>
2.9311323767293254

> <JCHEM_AVERAGE_POLARIZABILITY>
98.68649222332158

> <JCHEM_BIOAVAILABILITY>
0

> <JCHEM_DONOR_COUNT>
11

> <JCHEM_FORMAL_CHARGE>
0

> <JCHEM_GHOSE_FILTER>
0

> <JCHEM_IUPAC>
(8S,11R,14R)-14-amino-8-{[(1S)-1-{[(1R,2R)-2-[(2R,3S,4S,5R)-5-[(4Z)-4-(carbamoylimino)-3-methyl-2-oxo-1,2,3,4-tetrahydropyrimidin-1-yl]-3,4-dihydroxythiolan-2-yl]-1-carboxy-2-hydroxyethyl]carbamoyl}-2-hydroxyethyl]carbamoyl}-3,19,22-trimethyl-10,13-dioxo-2lambda4,20lambda4,21lambda4,27,28,29-hexaoxa-4,9,12,18,23-pentaaza-1-ferrapentacyclo[9.9.6.1^{1,4}.1^{1,18}.1^{1,23}]nonacosa-2,19,21-triene-2,20,21-tris(ylium)-1,1,1-triuide

> <JCHEM_LOGP>
-9.97813292562009

> <JCHEM_MDDR_LIKE_RULE>
1

> <JCHEM_NEUTRAL_CHARGE>
0

> <JCHEM_NUMBER_OF_RINGS>
7

> <JCHEM_PHYSIOLOGICAL_CHARGE>
0

> <JCHEM_PKA>
10.44449089608557

> <JCHEM_PKA_STRONGEST_ACIDIC>
3.088515665251907

> <JCHEM_PKA_STRONGEST_BASIC>
8.132167831998595

> <JCHEM_POLAR_SURFACE_AREA>
479.4699999999999

> <JCHEM_REFRACTIVITY>
261.2276000000002

> <JCHEM_ROTATABLE_BOND_COUNT>
9

> <JCHEM_RULE_OF_FIVE>
0

> <JCHEM_TRADITIONAL_IUPAC>
tetrahydrofolic acid

> <JCHEM_VEBER_RULE>
0

> <DRUGBANK_ID>
DB02724

> <SECONDARY_ACCESSION_NUMBERS>
EXPT00495

> <DRUG_GROUPS>
experimental

> <GENERIC_NAME>
Delta-2-Albomycin A1

$$$$
