
  Mrv0541 02231216172D          

 47 50  0  0  1  0            999 V2000
   -2.0858  -13.5651    0.0000 C   0  0  0  0  0  0  0  0  0  0  0  0
   -1.3713  -13.1526    0.0000 C   0  0  0  0  0  0  0  0  0  0  0  0
   -1.3713  -12.3276    0.0000 C   0  0  0  0  0  0  0  0  0  0  0  0
   -0.6569  -13.5651    0.0000 C   0  0  0  0  0  0  0  0  0  0  0  0
    0.0576  -13.1526    0.0000 C   0  0  1  0  0  0  0  0  0  0  0  0
    0.0576  -12.3276    0.0000 N   0  0  0  0  0  0  0  0  0  0  0  0
    0.7721  -11.9151    0.0000 C   0  0  0  0  0  0  0  0  0  0  0  0
    1.4865  -12.3276    0.0000 N   0  0  0  0  0  0  0  0  0  0  0  0
    0.7721  -11.0901    0.0000 N   0  0  0  0  0  0  0  0  0  0  0  0
    0.7721  -13.5651    0.0000 C   0  0  0  0  0  0  0  0  0  0  0  0
    0.7721  -14.3901    0.0000 O   0  0  0  0  0  0  0  0  0  0  0  0
    1.4865  -13.1526    0.0000 N   0  0  0  0  0  0  0  0  0  0  0  0
    2.2010  -13.5651    0.0000 C   0  0  0  0  0  0  0  0  0  0  0  0
    2.9155  -13.1526    0.0000 C   0  0  0  0  0  0  0  0  0  0  0  0
    2.9155  -12.3276    0.0000 O   0  0  0  0  0  0  0  0  0  0  0  0
    3.6300  -13.5651    0.0000 N   0  0  0  0  0  0  0  0  0  0  0  0
    4.3444  -13.1526    0.0000 C   0  0  0  0  0  0  0  0  0  0  0  0
    5.0589  -13.5651    0.0000 C   0  0  0  0  0  0  0  0  0  0  0  0
    5.0589  -14.3901    0.0000 C   0  0  0  0  0  0  0  0  0  0  0  0
    4.3444  -14.8026    0.0000 C   0  0  0  0  0  0  0  0  0  0  0  0
    3.6300  -14.3901    0.0000 C   0  0  0  0  0  0  0  0  0  0  0  0
    5.7734  -14.8026    0.0000 C   0  0  0  0  0  0  0  0  0  0  0  0
    6.5270  -14.4671    0.0000 C   0  0  0  0  0  0  0  0  0  0  0  0
    7.0791  -15.0802    0.0000 C   0  0  0  0  0  0  0  0  0  0  0  0
    6.6666  -15.7947    0.0000 N   0  0  0  0  0  0  0  0  0  0  0  0
    5.8596  -15.6231    0.0000 N   0  0  0  0  0  0  0  0  0  0  0  0
    5.2465  -16.1752    0.0000 C   0  0  0  0  0  0  0  0  0  0  0  0
    7.8996  -14.9939    0.0000 C   0  0  0  0  0  0  0  0  0  0  0  0
    8.2351  -14.2403    0.0000 C   0  0  0  0  0  0  0  0  0  0  0  0
    7.7502  -13.5728    0.0000 Cl  0  0  0  0  0  0  0  0  0  0  0  0
    9.0556  -14.1540    0.0000 C   0  0  0  0  0  0  0  0  0  0  0  0
    9.3911  -13.4004    0.0000 Cl  0  0  0  0  0  0  0  0  0  0  0  0
    9.5405  -14.8215    0.0000 C   0  0  0  0  0  0  0  0  0  0  0  0
   10.3610  -14.7352    0.0000 O   0  0  0  0  0  0  0  0  0  0  0  0
   10.6966  -13.9816    0.0000 C   0  0  0  0  0  0  0  0  0  0  0  0
   11.5170  -13.8953    0.0000 C   0  0  0  0  0  0  0  0  0  0  0  0
   11.8526  -13.1416    0.0000 C   0  0  0  0  0  0  0  0  0  0  0  0
   12.6731  -13.0554    0.0000 C   0  0  0  0  0  0  0  0  0  0  0  0
   13.1580  -13.7229    0.0000 C   0  0  0  0  0  0  0  0  0  0  0  0
   13.9785  -13.6366    0.0000 N   0  0  0  0  0  0  0  0  0  0  0  0
   14.4634  -14.3041    0.0000 C   0  0  0  0  0  0  0  0  0  0  0  0
   15.2839  -14.2178    0.0000 C   0  0  0  0  0  0  0  0  0  0  0  0
   14.1278  -15.0577    0.0000 O   0  0  0  0  0  0  0  0  0  0  0  0
   12.8224  -14.4765    0.0000 C   0  0  0  0  0  0  0  0  0  0  0  0
   12.0020  -14.5628    0.0000 C   0  0  0  0  0  0  0  0  0  0  0  0
    9.2050  -15.5751    0.0000 C   0  0  0  0  0  0  0  0  0  0  0  0
    8.3845  -15.6614    0.0000 C   0  0  0  0  0  0  0  0  0  0  0  0
  1  2  1  0  0  0  0
  2  3  1  0  0  0  0
  2  4  1  0  0  0  0
  4  5  1  0  0  0  0
  5  6  1  1  0  0  0
  6  7  2  0  0  0  0
  7  8  1  0  0  0  0
  7  9  1  0  0  0  0
  5 10  1  0  0  0  0
 10 11  2  0  0  0  0
 10 12  1  0  0  0  0
 12 13  1  0  0  0  0
 13 14  1  0  0  0  0
 14 15  2  0  0  0  0
 14 16  1  0  0  0  0
 16 17  1  0  0  0  0
 17 18  1  0  0  0  0
 18 19  1  0  0  0  0
 19 20  1  0  0  0  0
 20 21  1  0  0  0  0
 16 21  1  0  0  0  0
 19 22  1  0  0  0  0
 22 23  2  0  0  0  0
 23 24  1  0  0  0  0
 24 25  2  0  0  0  0
 25 26  1  0  0  0  0
 22 26  1  0  0  0  0
 26 27  1  0  0  0  0
 24 28  1  0  0  0  0
 28 29  2  0  0  0  0
 29 30  1  0  0  0  0
 29 31  1  0  0  0  0
 31 32  1  0  0  0  0
 31 33  2  0  0  0  0
 33 34  1  0  0  0  0
 34 35  1  0  0  0  0
 35 36  1  0  0  0  0
 36 37  2  0  0  0  0
 37 38  1  0  0  0  0
 38 39  2  0  0  0  0
 39 40  1  0  0  0  0
 40 41  1  0  0  0  0
 41 42  1  0  0  0  0
 41 43  2  0  0  0  0
 39 44  1  0  0  0  0
 44 45  2  0  0  0  0
 36 45  1  0  0  0  0
 33 46  1  0  0  0  0
 46 47  2  0  0  0  0
 28 47  1  0  0  0  0
M  END
> <DATABASE_ID>
DB02555

> <DATABASE_NAME>
drugbank

> <SMILES>
CC(C)C[C@@H](N=C(N)N)C(=O)NCC(=O)N1CCC(CC1)C1=CC(=NN1C)C1=C(Cl)C(Cl)=C(OCC2=CC=C(NC(C)=O)C=C2)C=C1

> <INCHI_IDENTIFIER>
InChI=1S/C33H42Cl2N8O4/c1-19(2)15-26(40-33(36)37)32(46)38-17-29(45)43-13-11-22(12-14-43)27-16-25(41-42(27)4)24-9-10-28(31(35)30(24)34)47-18-21-5-7-23(8-6-21)39-20(3)44/h5-10,16,19,22,26H,11-15,17-18H2,1-4H3,(H,38,46)(H,39,44)(H4,36,37,40)/t26-/m1/s1

> <INCHI_KEY>
VCXMTWSYQSVWRK-AREMUKBSSA-N

> <FORMULA>
C33H42Cl2N8O4

> <MOLECULAR_WEIGHT>
685.644

> <EXACT_MASS>
684.270607286

> <JCHEM_ACCEPTOR_COUNT>
8

> <JCHEM_ATOM_COUNT>
89

> <JCHEM_AVERAGE_NEUTRAL_MICROSPECIES_CHARGE>
0.999751127225884

> <JCHEM_AVERAGE_POLARIZABILITY>
72.99138722468902

> <JCHEM_BIOAVAILABILITY>
0

> <JCHEM_DONOR_COUNT>
4

> <JCHEM_FORMAL_CHARGE>
0

> <JCHEM_GHOSE_FILTER>
0

> <JCHEM_IUPAC>
(2R)-2-[(diaminomethylidene)amino]-N-{2-[4-(3-{2,3-dichloro-4-[(4-acetamidophenyl)methoxy]phenyl}-1-methyl-1H-pyrazol-5-yl)piperidin-1-yl]-2-oxoethyl}-4-methylpentanamide

> <ALOGPS_LOGP>
4.72

> <JCHEM_LOGP>
3.4095949469999995

> <ALOGPS_LOGS>
-5.05

> <JCHEM_MDDR_LIKE_RULE>
1

> <JCHEM_NEUTRAL_CHARGE>
1

> <JCHEM_NUMBER_OF_RINGS>
4

> <JCHEM_PHYSIOLOGICAL_CHARGE>
1

> <JCHEM_PKA>
14.362798444435564

> <JCHEM_PKA_STRONGEST_ACIDIC>
12.792922675646784

> <JCHEM_PKA_STRONGEST_BASIC>
10.595201670051365

> <JCHEM_POLAR_SURFACE_AREA>
169.95999999999998

> <JCHEM_REFRACTIVITY>
194.96789999999996

> <JCHEM_ROTATABLE_BOND_COUNT>
12

> <JCHEM_RULE_OF_FIVE>
0

> <ALOGPS_SOLUBILITY>
6.16e-03 g/l

> <JCHEM_TRADITIONAL_IUPAC>
tetrahydrofolic acid

> <JCHEM_VEBER_RULE>
0

> <DRUGBANK_ID>
DB02555

> <SECONDARY_ACCESSION_NUMBERS>
EXPT01492

> <DRUG_GROUPS>
experimental

> <GENERIC_NAME>
SP4160

$$$$
