
  Mrv0541 05041411522D          

 33 34  0  0  1  0            999 V2000
    3.5724    3.7125    0.0000 C   0  0  0  0  0  0  0  0  0  0  0  0
    3.5724   -1.2375    0.0000 C   0  0  0  0  0  0  0  0  0  0  0  0
    2.8579    3.3000    0.0000 C   0  0  2  0  0  0  0  0  0  0  0  0
    3.5724   -0.4125    0.0000 C   0  0  2  0  0  0  0  0  0  0  0  0
    2.1434    3.7125    0.0000 C   0  0  1  0  0  0  0  0  0  0  0  0
    4.2868   -0.0000    0.0000 C   0  0  1  0  0  0  0  0  0  0  0  0
    1.4289    3.3000    0.0000 C   0  0  1  0  0  0  0  0  0  0  0  0
    4.2868    0.8250    0.0000 C   0  0  1  0  0  0  0  0  0  0  0  0
    1.4289    2.4750    0.0000 C   0  0  2  0  0  0  0  0  0  0  0  0
    3.5724    1.2375    0.0000 C   0  0  2  0  0  0  0  0  0  0  0  0
    2.1434    2.0625    0.0000 C   0  0  1  0  0  0  0  0  0  0  0  0
    2.8579    0.8250    0.0000 C   0  0  1  0  0  0  0  0  0  0  0  0
    3.5724    4.5375    0.0000 O   0  0  0  0  0  0  0  0  0  0  0  0
    4.2868   -1.6500    0.0000 O   0  0  0  0  0  0  0  0  0  0  0  0
    2.1434    4.5375    0.0000 O   0  0  0  0  0  0  0  0  0  0  0  0
    5.0013   -0.4125    0.0000 O   0  0  0  0  0  0  0  0  0  0  0  0
    0.7145    3.7125    0.0000 O   0  0  0  0  0  0  0  0  0  0  0  0
    5.0013    1.2375    0.0000 O   0  0  0  0  0  0  0  0  0  0  0  0
    0.7145    2.0625    0.0000 O   0  0  0  0  0  0  0  0  0  0  0  0
    3.5724    2.0625    0.0000 O   0  0  0  0  0  0  0  0  0  0  0  0
    2.8579    2.4750    0.0000 O   0  0  0  0  0  0  0  0  0  0  0  0
    2.8579   -0.0000    0.0000 O   0  0  0  0  0  0  0  0  0  0  0  0
    2.1434    1.2375    0.0000 S   0  0  0  0  0  0  0  0  0  0  0  0
    2.5757    4.0752    0.0000 H   0  0  0  0  0  0  0  0  0  0  0  0
    4.3848   -0.5558    0.0000 H   0  0  0  0  0  0  0  0  0  0  0  0
    2.6737    4.3445    0.0000 H   0  0  0  0  0  0  0  0  0  0  0  0
    4.5690   -0.7752    0.0000 H   0  0  0  0  0  0  0  0  0  0  0  0
    1.4289    4.1250    0.0000 H   0  0  0  0  0  0  0  0  0  0  0  0
    5.0013    0.4125    0.0000 H   0  0  0  0  0  0  0  0  0  0  0  0
    0.7145    2.8875    0.0000 H   0  0  0  0  0  0  0  0  0  0  0  0
    4.2868    1.6500    0.0000 H   0  0  0  0  0  0  0  0  0  0  0  0
    1.4289    1.6500    0.0000 H   0  0  0  0  0  0  0  0  0  0  0  0
    2.8579    1.6500    0.0000 H   0  0  0  0  0  0  0  0  0  0  0  0
  3  1  1  1  0  0  0
  4  2  1  1  0  0  0
  5  3  1  0  0  0  0
  6  4  1  0  0  0  0
  7  5  1  0  0  0  0
  8  6  1  0  0  0  0
  9  7  1  0  0  0  0
 10  8  1  0  0  0  0
 11  9  1  0  0  0  0
 12 10  1  0  0  0  0
 13  1  1  0  0  0  0
 14  2  1  0  0  0  0
  5 15  1  1  0  0  0
  6 16  1  1  0  0  0
  7 17  1  1  0  0  0
  8 18  1  1  0  0  0
  9 19  1  6  0  0  0
 10 20  1  6  0  0  0
 21  3  1  0  0  0  0
 21 11  1  0  0  0  0
 22  4  1  0  0  0  0
 22 12  1  0  0  0  0
 11 23  1  1  0  0  0
 12 23  1  1  0  0  0
  3 24  1  6  0  0  0
  4 25  1  6  0  0  0
  5 26  1  6  0  0  0
  6 27  1  6  0  0  0
  7 28  1  6  0  0  0
  8 29  1  6  0  0  0
  9 30  1  1  0  0  0
 10 31  1  1  0  0  0
 11 32  1  6  0  0  0
 12 33  1  6  0  0  0
M  END
> <DATABASE_ID>
DB04396

> <DATABASE_NAME>
drugbank

> <SMILES>
[H][C@]1(CO)O[C@@]([H])(S[C@]2([H])O[C@]([H])(CO)[C@]([H])(O)[C@]([H])(O)[C@@]2([H])O)[C@]([H])(O)[C@@]([H])(O)[C@@]1([H])O

> <INCHI_IDENTIFIER>
InChI=1S/C12H22O10S/c13-1-3-5(15)7(17)9(19)11(21-3)23-12-10(20)8(18)6(16)4(2-14)22-12/h3-20H,1-2H2/t3-,4-,5+,6+,7+,8+,9-,10-,11+,12+/m1/s1

> <INCHI_KEY>
SYKYBMOFPMXDRQ-ZFDCCPEWSA-N

> <FORMULA>
C12H22O10S

> <MOLECULAR_WEIGHT>
358.362

> <EXACT_MASS>
358.093367614

> <JCHEM_ACCEPTOR_COUNT>
10

> <JCHEM_ATOM_COUNT>
45

> <JCHEM_AVERAGE_NEUTRAL_MICROSPECIES_CHARGE>
-1.1901641213183626e-05

> <JCHEM_AVERAGE_POLARIZABILITY>
32.92211514787791

> <JCHEM_BIOAVAILABILITY>
1

> <JCHEM_DONOR_COUNT>
8

> <JCHEM_FORMAL_CHARGE>
0

> <JCHEM_GHOSE_FILTER>
0

> <JCHEM_IUPAC>
(2R,3R,4S,5R,6S)-2-(hydroxymethyl)-6-{[(2S,3R,4S,5R,6R)-3,4,5-trihydroxy-6-(hydroxymethyl)oxan-2-yl]sulfanyl}oxane-3,4,5-triol

> <ALOGPS_LOGP>
-2.97

> <JCHEM_LOGP>
-4.380422509000001

> <ALOGPS_LOGS>
0.10

> <JCHEM_MDDR_LIKE_RULE>
0

> <JCHEM_NEUTRAL_CHARGE>
0

> <JCHEM_NUMBER_OF_RINGS>
2

> <JCHEM_PHYSIOLOGICAL_CHARGE>
0

> <JCHEM_PKA>
12.668762489030058

> <JCHEM_PKA_STRONGEST_ACIDIC>
12.167404355243285

> <JCHEM_PKA_STRONGEST_BASIC>
-2.979753969849841

> <JCHEM_POLAR_SURFACE_AREA>
180.29999999999998

> <JCHEM_REFRACTIVITY>
74.69789999999998

> <JCHEM_ROTATABLE_BOND_COUNT>
4

> <JCHEM_RULE_OF_FIVE>
0

> <ALOGPS_SOLUBILITY>
4.52e+02 g/l

> <JCHEM_TRADITIONAL_IUPAC>
tetrahydrofolic acid

> <JCHEM_VEBER_RULE>
0

> <DRUGBANK_ID>
DB04396

> <SECONDARY_ACCESSION_NUMBERS>
EXPT03030

> <DRUG_GROUPS>
experimental

> <GENERIC_NAME>
Thiodigalactoside

$$$$
