
  Mrv0541 02231217002D          

 13 12  0  0  1  0            999 V2000
    7.2849    3.3809    0.0000 N   0  0  0  0  0  0  0  0  0  0  0  0
    7.2849    2.5559    0.0000 C   0  0  1  0  0  0  0  0  0  0  0  0
    6.5704    2.1434    0.0000 C   0  0  0  0  0  0  0  0  0  0  0  0
    5.8559    2.5559    0.0000 C   0  0  0  0  0  0  0  0  0  0  0  0
    5.8559    3.3809    0.0000 O   0  0  0  0  0  0  0  0  0  0  0  0
    5.1414    2.1434    0.0000 O   0  0  0  0  0  0  0  0  0  0  0  0
    4.4270    2.5559    0.0000 C   0  0  0  0  0  0  0  0  0  0  0  0
    3.7125    2.1434    0.0000 C   0  0  0  0  0  0  0  0  0  0  0  0
    2.9980    2.5559    0.0000 O   0  0  0  0  0  0  0  0  0  0  0  0
    3.7125    1.3184    0.0000 O   0  0  0  0  0  0  0  0  0  0  0  0
    7.9993    2.1434    0.0000 C   0  0  0  0  0  0  0  0  0  0  0  0
    8.7138    2.5559    0.0000 O   0  0  0  0  0  0  0  0  0  0  0  0
    7.9993    1.3184    0.0000 O   0  0  0  0  0  0  0  0  0  0  0  0
  2  1  1  6  0  0  0
  2  3  1  0  0  0  0
  3  4  1  0  0  0  0
  4  5  2  0  0  0  0
  4  6  1  0  0  0  0
  6  7  1  0  0  0  0
  7  8  1  0  0  0  0
  8  9  1  0  0  0  0
  8 10  2  0  0  0  0
  2 11  1  0  0  0  0
 11 12  1  0  0  0  0
 11 13  2  0  0  0  0
M  END
> <DATABASE_ID>
DB03522

> <DATABASE_NAME>
drugbank

> <SMILES>
N[C@@H](CC(=O)OCC(O)=O)C(O)=O

> <INCHI_IDENTIFIER>
InChI=1S/C6H9NO6/c7-3(6(11)12)1-5(10)13-2-4(8)9/h3H,1-2,7H2,(H,8,9)(H,11,12)/t3-/m0/s1

> <INCHI_KEY>
VYJCBTPDYBSANG-VKHMYHEASA-N

> <FORMULA>
C6H9NO6

> <MOLECULAR_WEIGHT>
191.1388

> <EXACT_MASS>
191.042987025

> <JCHEM_ACCEPTOR_COUNT>
6

> <JCHEM_ATOM_COUNT>
22

> <JCHEM_AVERAGE_NEUTRAL_MICROSPECIES_CHARGE>
-1.0242127999414834

> <JCHEM_AVERAGE_POLARIZABILITY>
16.431985702347333

> <JCHEM_BIOAVAILABILITY>
1

> <JCHEM_DONOR_COUNT>
3

> <JCHEM_FORMAL_CHARGE>
0

> <JCHEM_GHOSE_FILTER>
0

> <JCHEM_IUPAC>
(2S)-2-amino-4-(carboxymethoxy)-4-oxobutanoic acid

> <ALOGPS_LOGP>
-3.42

> <JCHEM_LOGP>
-3.9683058664266024

> <ALOGPS_LOGS>
-0.96

> <JCHEM_MDDR_LIKE_RULE>
0

> <JCHEM_NEUTRAL_CHARGE>
-1

> <JCHEM_NUMBER_OF_RINGS>
0

> <JCHEM_PHYSIOLOGICAL_CHARGE>
-1

> <JCHEM_PKA>
3.4822868552933204

> <JCHEM_PKA_STRONGEST_ACIDIC>
1.5123130760763859

> <JCHEM_PKA_STRONGEST_BASIC>
8.599793695197981

> <JCHEM_POLAR_SURFACE_AREA>
126.92000000000002

> <JCHEM_REFRACTIVITY>
37.3864

> <JCHEM_ROTATABLE_BOND_COUNT>
6

> <JCHEM_RULE_OF_FIVE>
1

> <ALOGPS_SOLUBILITY>
2.09e+01 g/l

> <JCHEM_TRADITIONAL_IUPAC>
tetrahydrofolic acid

> <JCHEM_VEBER_RULE>
0

> <DRUGBANK_ID>
DB03522

> <SECONDARY_ACCESSION_NUMBERS>
EXPT00567

> <DRUG_GROUPS>
experimental

> <GENERIC_NAME>
Aspartic Acid-4-Carboxymethyl Ester

$$$$
