
  Mrv0541 02231217142D          

 10 10  0  0  1  0            999 V2000
    2.1434    2.0625    0.0000 O   0  0  0  0  0  0  0  0  0  0  0  0
    2.1434    1.2375    0.0000 C   0  0  0  0  0  0  0  0  0  0  0  0
    1.4289    0.8250    0.0000 C   0  0  1  0  0  0  0  0  0  0  0  0
    1.4289    0.0000    0.0000 O   0  0  0  0  0  0  0  0  0  0  0  0
    0.7145   -0.4125    0.0000 N   0  0  0  0  0  0  0  0  0  0  0  0
    0.0000    0.0000    0.0000 C   0  0  0  0  0  0  0  0  0  0  0  0
    0.0000    0.8250    0.0000 C   0  0  1  0  0  0  0  0  0  0  0  0
   -0.7145    1.2375    0.0000 O   0  0  0  0  0  0  0  0  0  0  0  0
    0.7145    1.2375    0.0000 C   0  0  2  0  0  0  0  0  0  0  0  0
    0.7145    2.0625    0.0000 O   0  0  0  0  0  0  0  0  0  0  0  0
  1  2  1  0  0  0  0
  3  2  1  1  0  0  0
  3  4  1  0  0  0  0
  4  5  1  0  0  0  0
  5  6  1  0  0  0  0
  6  7  1  0  0  0  0
  7  8  1  1  0  0  0
  7  9  1  0  0  0  0
  3  9  1  0  0  0  0
  9 10  1  6  0  0  0
M  END
> <DATABASE_ID>
DB03862

> <DATABASE_NAME>
drugbank

> <SMILES>
OC[C@H]1ONC[C@@H](O)[C@@H]1O

> <INCHI_IDENTIFIER>
InChI=1S/C5H11NO4/c7-2-4-5(9)3(8)1-6-10-4/h3-9H,1-2H2/t3-,4-,5+/m1/s1

> <INCHI_KEY>
KHVCOYGKHDJPBZ-WDCZJNDASA-N

> <FORMULA>
C5H11NO4

> <MOLECULAR_WEIGHT>
149.1451

> <EXACT_MASS>
149.068807845

> <JCHEM_ACCEPTOR_COUNT>
5

> <JCHEM_ATOM_COUNT>
21

> <JCHEM_AVERAGE_NEUTRAL_MICROSPECIES_CHARGE>
0.001158016374390781

> <JCHEM_AVERAGE_POLARIZABILITY>
13.860715443769266

> <JCHEM_BIOAVAILABILITY>
1

> <JCHEM_DONOR_COUNT>
4

> <JCHEM_FORMAL_CHARGE>
0

> <JCHEM_GHOSE_FILTER>
0

> <JCHEM_IUPAC>
(4R,5S,6R)-6-(hydroxymethyl)-1,2-oxazinane-4,5-diol

> <ALOGPS_LOGP>
-1.95

> <JCHEM_LOGP>
-2.2013893606666666

> <ALOGPS_LOGS>
0.72

> <JCHEM_MDDR_LIKE_RULE>
0

> <JCHEM_NEUTRAL_CHARGE>
0

> <JCHEM_NUMBER_OF_RINGS>
1

> <JCHEM_PHYSIOLOGICAL_CHARGE>
0

> <JCHEM_PKA>
14.314390819399824

> <JCHEM_PKA_STRONGEST_ACIDIC>
12.942457355488905

> <JCHEM_PKA_STRONGEST_BASIC>
4.0646717044359475

> <JCHEM_POLAR_SURFACE_AREA>
81.95

> <JCHEM_REFRACTIVITY>
42.57699999999999

> <JCHEM_ROTATABLE_BOND_COUNT>
1

> <JCHEM_RULE_OF_FIVE>
1

> <ALOGPS_SOLUBILITY>
7.83e+02 g/l

> <JCHEM_TRADITIONAL_IUPAC>
tetrahydrofolic acid

> <JCHEM_VEBER_RULE>
0

> <DRUGBANK_ID>
DB03862

> <SECONDARY_ACCESSION_NUMBERS>
EXPT02466

> <DRUG_GROUPS>
experimental

> <GENERIC_NAME>
Tetrahydrooxazine

$$$$
