
  Mrv0541 02241215252D          

  1  0  0  0  0  0            999 V2000
    1.5395    0.4125    0.0000 Se  0  0  0  0  0 15  0  0  0  0  0  0
M  END
> <DATABASE_ID>
DB11135

> <DATABASE_NAME>
drugbank

> <SMILES>
[Se]

> <INCHI_IDENTIFIER>
InChI=1S/Se

> <INCHI_KEY>
BUGBHKTXTAQXES-UHFFFAOYSA-N

> <FORMULA>
Se

> <MOLECULAR_WEIGHT>
78.96

> <EXACT_MASS>
79.916521828

> <JCHEM_ACCEPTOR_COUNT>
1

> <JCHEM_ATOM_COUNT>
1

> <JCHEM_AVERAGE_NEUTRAL_MICROSPECIES_CHARGE>
0.0

> <JCHEM_AVERAGE_POLARIZABILITY>
1.7784

> <JCHEM_BIOAVAILABILITY>
1

> <JCHEM_DONOR_COUNT>
0

> <JCHEM_FORMAL_CHARGE>
0

> <JCHEM_GHOSE_FILTER>
0

> <JCHEM_IUPAC>
selenium

> <JCHEM_LOGP>
0.1473

> <JCHEM_MDDR_LIKE_RULE>
0

> <JCHEM_NEUTRAL_CHARGE>
0

> <JCHEM_NUMBER_OF_RINGS>
0

> <JCHEM_PHYSIOLOGICAL_CHARGE>
0

> <JCHEM_POLAR_SURFACE_AREA>
0.0

> <JCHEM_REFRACTIVITY>
13.1149

> <JCHEM_ROTATABLE_BOND_COUNT>
0

> <JCHEM_RULE_OF_FIVE>
1

> <JCHEM_TRADITIONAL_IUPAC>
tetrahydrofolic acid

> <JCHEM_VEBER_RULE>
1

> <DRUGBANK_ID>
DB11135

> <DRUG_GROUPS>
approved; investigational; vet_approved

> <GENERIC_NAME>
Selenium

> <SYNONYMS>
Selen; Selenio; Sélénium; Selenium elemental; Selenium metallicum; Selenium, elemental

> <PRODUCTS>
24 Multivitamins + Minerals; 50 Plus Multiple Vitamins & Minerals; A.C.E.S. Capsules; A.R.T.H. Away Formula; A/o-26 - Caplet; Aces Caplet; Aces Formula/formule A A S; Aces Tab; Adrien Gagnon Formule A-C-E + Selenium; Adult Formula 50+; Advanced B & T Formula; Am Caps; Amd; Avon Nutrivance Vitamin E Plus; Beta C & E With Selenium; Beta-CE Cap; Beta-carotene,vitamin C,e and Selenium Combo; Bio Selenium Tab 50mcg; Body Rox; Card-floe II Tab; Cell-wise; Cellular Formula; Chelamins Plus Tab; Chelapro; Classic Swiss One 10 Multivitamin and Mineral Tab; Coen.q10w.vit.c and E Beta-car.se Cu Zn Mn; Complete Multivitamins and Minerals Tablets Timed Release; Complete One A Day Tab; Complete One-A-day - Tab; Cps Capsules; Daily Energy Brand Vitamin & Mineral Drink Mix; Davinci Selenium Tab 50mcg; Dayavite; Defense Caplets; Diacomp - Cap; Doctor's Choice Brand for Men; Dry Form Vitamin E 400iu With Selenium 100mcg; E 400iu W Selenium 100mcg; E Plex 1000 Mega Strength; E Plex 200 Regular Strength; E Plex 400 Extra Strength; E Plex 600 Ultra Strength; Emuol V; Envirocomplex; Enviroflex - Tab; Extra 11; Extra Once A Day; Fem Time Tab; Folet DHA; Foliflex; Folitin-Z; Food Nutrition Inc. Men's Vitamin and Mineral Supplement; For Men; For-2; Formula 14 Dietary Supplement; Formula CF; Formula Cp Cap; Formula Gly; Formula Hh; Formula Im-vitamins and Minerals Tab; Formula Inf; Formula O.C.; Geri-plus Cap; Germacil; Glyco Lite Ect; Glyco Plus Ect; Gnc Selenium 50mcg Tablet; Grand Master Formula Tab; Great Day/am Formula Tab; Guardyn Tab; Henkel's Vitamin E and Selenium Cap; Hi Potency Multi Tab; Homosismin; IV-8 Formula; Icaps; Icaps Time Release; Imm Formula Cap; Innersource Tab; Isotonix Atx Vitamin Mineral Formula; Isotonix Multitech Vitamin Mineral Supplemen; Itabs Plus; Kamu Jay Multi Complex Tab; L-Methyl PNV DHA; L.G.I.T.; Liquid Opti-minplex +d; Longevit-E - Capsule; Luna Vitamin and Mineral Bar for Women; Magnum-75 Vitamin and Mineral Supplement; Maintain Multiple Vitamin & Minerals; Master Key Multi Vitamin Multi Mineral Formula 2; Maximum Once A Day; Maxine Vitamin and Mineral Supplement; Maxum Multi-vite; Mega Balance; Mega Capsules; Mega Multiple Minerals; Mega Plex III - Pck; Mega Plex IV - Pck; Mega Vitaminerals; Mega-vim 75 With Beta-carotene - Tablets; Men's; Men's 50+; Men's Biomultiple Vitamin and Mineral Supplement; Micro+6 Concentrate; Mineralex; Mlc; Multi - N.T.O.x Formula - Tab; Multi Cal Mag Liquid; Multi Flow Tablets; Multi II IV Vi Tab; Multi Mins Liquid; Multi Nt-OX; Multi Plex I - Tab; Multi Plex II - Tab; Multi Spectrum - Tablet; Multi Tabs; Multi Vitamin - Mineral; Multi Vitamins & Minerals; Multi-actin; Multi-force for Adults Tab; Multi-force for Women Tab; Multi-mins Minerals; Multi-vitamins With Minerals; Multicaps; Multimineral Chelates; Multimineral Tablets; Multiminerals; Multipack II; Multiple Vitamins and Minerals; Multitabs; Multitam; Multivitamin & Minerals (iron Free); Multivitamin & Multimineral; Multivitamins and Minerals With Betacarotene Tablets; Multivitamins and Minerals for Men; Multivitamins and Minerals for Women; Multra Plex; Nata Komplete; Natural Source Spectrum With Beta Carotene; Nicomide; Nicotinamide; Nitro Vites - Tab; Nutra-clear; Nutria; Nutrol E-400 Plus Zinc Et Selenium Cap; Nutrol V Capsule; Omega-3 Rx Complete; Onccor; One A Day Advance Adults; One A Day Advance Adults 50+; Only One - Tablet; PM Caps; PreQue 10; Prefera OB plus DHA; PreferaOB; PreferaOB plus DHA; Premium Prenatal; Prenatal Formula Tab; Prenatal Vi-min; Prenatrix; Prenatryl; Pretrate; Pro Hers Vanilla; Pro His Mint; Pro Pcos Citrus; Prometa; Protect Cardio AF; Protect Plus SO 60; Q.T. #4 Vitamin and Mineral Dietary Supplement; RayaVit; Revit Multi-vitamins and Minerals; Revitalize Multi-vitamin and Mineral Complex; Ribotin-E; Rocky Mountain Multiple Vit and Min Mega Tab; Selen-E-400 Tab; Selenion; Selenious Acid; Selenium; Selenium '100' Plus C&e; Selenium + E; Selenium 100; Selenium 100 - Caplet; Selenium 100mcg; Selenium 200 Mcg; Selenium 200 Mcg Tablets; Selenium 200mcg; Selenium 200mcg Plus C & E Tab; Selenium 50mcg; Selenium Ctr Srt 50mg; Selenium Oxide Tab 50mcg; Selenium Plus; Selenium Plus C & E; Selenium Tab 200mcg; Selenium Tab 50mcg; Selenium Tablets 100mcg; Selenium With E Tab; Selenium Yeast; Selenium-E-400; Senior Multi One; Silexin; Sincera - Tablets; Somavit Brand Vitamins and Minerals Complex; Spectrum 2 Cap; Strovite Forte Caplet; Strovite One Caplets; Super Ao Formula; Super Multi; Super Vita Vim Multivitamins and Minerals; Super Vita-vim With Beta-carotene - Tab; Swiss One Multi Vit & Chel Min Tab; Swiss Total One; Synergistic Selenium; Totalvit Plus; Twin G.F. Powder; Twin G.F. Powder Vanilla Flavor; Twin Opti Pwr; Udamin Sp; Ultimate Tab; Usana Multimineral Tablets; Usana Multimineral Tablets - Tab; V & M Vitamin and Mineral Supplement; Vege Swiss One Multivitamin W Chel Mins Tab; Venexa; Venexa FE; Ventrixyl; Ventrixyl Fe; Vie-CA-rad Capsules; Viprot; Vista Advanced AREDS2 Formula; Vita Balance 2000; Vita Vim Multivitamins and Minerals Tab; Vita Vim With Beta Carotene-caplet; Vita-vim - Tab; Vita-vim With Beta-carotene - Tab; Vitalife - Capsule; Vitamin A C E W.niacinam.beta Car.and Min.; Vitamin E + 3 (extra Strength); Vitamin E + 3 Extra Strength With Zinc; Vitamin E 400 + Selenium Cap; Vitamin E 400 I.U. & Selenium 50 Mcg Capsules; Vitamin E 400 I.U. With Selenium Dietary Supplement; Vitamin E 400 Iu With Selenium, Vitamin C & Manganese; Vitamin E 400 Iu and Selenium 100mcg; Vitamin E 400 Iu and Selenium 25 Mcg Capsules; Vitamin E 400I.U.with Selenium 50mcg-tab; Vitamin E With Selenium and Zinc; Vitamin and Mineral Supp Formula 1; Vitamine E 400 Ui and Selenium 50; Vitaminol; Vitaphil 90 DHA; Vitaphil DHA; Vitramyn; Vitranol; Vitranol Fe; Vitrexate; Vitrexate FE; Vitrexyl; Vitrexyl plus Iron; Vtb Vitamin and Mineral Supplement; Webber E Plus 3 Cap; Women's Biomultiple Vitamin and Mineral Supplement; Women's Change Formula; Yeast Free Selenium 60mcg; Zintrexyl-C; Zyvana

> <INTERNATIONAL_BRANDS>
B-Traxim Se; Selsaf 2000

$$$$
