
  Mrv0541 05031423442D          

 22 24  0  0  1  0            999 V2000
   -0.5683   -1.4940    0.0000 C   0  0  0  0  0  0  0  0  0  0  0  0
    3.3523    1.1104    0.0000 C   0  0  0  0  0  0  0  0  0  0  0  0
    0.6538    1.5229    0.0000 C   0  0  0  0  0  0  0  0  0  0  0  0
    0.0992   -1.0091    0.0000 C   0  0  2  0  0  0  0  0  0  0  0  0
    1.9233    1.9354    0.0000 C   0  0  0  0  0  0  0  0  0  0  0  0
    0.8838   -1.2640    0.0000 C   0  0  0  0  0  0  0  0  0  0  0  0
    1.3687   -0.5966    0.0000 C   0  0  2  0  0  0  0  0  0  0  0  0
    2.6378    2.3479    0.0000 C   0  0  0  0  0  0  0  0  0  0  0  0
    1.9233    1.1104    0.0000 C   0  0  0  0  0  0  0  0  0  0  0  0
    0.8838    0.0709    0.0000 C   0  0  2  0  0  0  0  0  0  0  0  0
    2.6378    3.1729    0.0000 N   0  0  0  0  0  0  0  0  0  0  0  0
    3.3523    1.9354    0.0000 N   0  0  0  0  0  0  0  0  0  0  0  0
    2.6378    0.6979    0.0000 N   0  0  0  0  0  0  0  0  0  0  0  0
    1.1387    2.1904    0.0000 N   0  0  0  0  0  0  0  0  0  0  0  0
    1.1387    0.8555    0.0000 N   0  0  0  0  0  0  0  0  0  0  0  0
   -0.4820   -2.3145    0.0000 O   0  0  0  0  0  0  0  0  0  0  0  0
    1.1387   -2.0486    0.0000 O   0  0  0  0  0  0  0  0  0  0  0  0
    2.1937   -0.5966    0.0000 O   0  0  0  0  0  0  0  0  0  0  0  0
    0.0992   -0.1841    0.0000 O   0  0  0  0  0  0  0  0  0  0  0  0
    0.2282   -1.8239    0.0000 H   0  0  0  0  0  0  0  0  0  0  0  0
    1.7432   -1.3316    0.0000 H   0  0  0  0  0  0  0  0  0  0  0  0
    1.6986    0.1999    0.0000 H   0  0  0  0  0  0  0  0  0  0  0  0
  4  1  1  1  0  0  0
  6  4  1  0  0  0  0
  7  6  1  0  0  0  0
  8  5  2  0  0  0  0
  9  5  1  0  0  0  0
 10  7  1  0  0  0  0
 11  8  1  0  0  0  0
 12  2  2  0  0  0  0
 12  8  1  0  0  0  0
 13  2  1  0  0  0  0
 13  9  2  0  0  0  0
 14  3  2  0  0  0  0
 14  5  1  0  0  0  0
 15  3  1  0  0  0  0
 15  9  1  0  0  0  0
 10 15  1  1  0  0  0
 16  1  1  0  0  0  0
 17  6  2  0  0  0  0
  7 18  1  6  0  0  0
 19  4  1  0  0  0  0
 19 10  1  0  0  0  0
  4 20  1  6  0  0  0
  7 21  1  1  0  0  0
 10 22  1  6  0  0  0
M  END
> <DATABASE_ID>
DB03273

> <DATABASE_NAME>
drugbank

> <SMILES>
[H][C@]1(CO)O[C@@]([H])(N2C=NC3=C(N)N=CN=C23)[C@]([H])(O)C1=O

> <INCHI_IDENTIFIER>
InChI=1S/C10H11N5O4/c11-8-5-9(13-2-12-8)15(3-14-5)10-7(18)6(17)4(1-16)19-10/h2-4,7,10,16,18H,1H2,(H2,11,12,13)/t4-,7-,10-/m1/s1

> <INCHI_KEY>
MIAZJCOESMXYNJ-XMRAEQSQSA-N

> <FORMULA>
C10H11N5O4

> <MOLECULAR_WEIGHT>
265.2254

> <EXACT_MASS>
265.081103865

> <JCHEM_ACCEPTOR_COUNT>
8

> <JCHEM_ATOM_COUNT>
30

> <JCHEM_AVERAGE_NEUTRAL_MICROSPECIES_CHARGE>
0.008162203154364908

> <JCHEM_AVERAGE_POLARIZABILITY>
24.642955724250726

> <JCHEM_BIOAVAILABILITY>
1

> <JCHEM_DONOR_COUNT>
3

> <JCHEM_FORMAL_CHARGE>
0

> <JCHEM_GHOSE_FILTER>
0

> <JCHEM_IUPAC>
(2R,4S,5R)-5-(6-amino-9H-purin-9-yl)-4-hydroxy-2-(hydroxymethyl)oxolan-3-one

> <ALOGPS_LOGP>
-1.82

> <JCHEM_LOGP>
-1.4757876973333335

> <ALOGPS_LOGS>
-1.29

> <JCHEM_MDDR_LIKE_RULE>
0

> <JCHEM_NEUTRAL_CHARGE>
0

> <JCHEM_NUMBER_OF_RINGS>
3

> <JCHEM_PHYSIOLOGICAL_CHARGE>
0

> <JCHEM_PKA>
14.514419320492753

> <JCHEM_PKA_STRONGEST_ACIDIC>
11.803340258450115

> <JCHEM_PKA_STRONGEST_BASIC>
3.935857129230344

> <JCHEM_POLAR_SURFACE_AREA>
136.38000000000002

> <JCHEM_REFRACTIVITY>
62.4289

> <JCHEM_ROTATABLE_BOND_COUNT>
2

> <JCHEM_RULE_OF_FIVE>
1

> <ALOGPS_SOLUBILITY>
1.36e+01 g/l

> <JCHEM_TRADITIONAL_IUPAC>
tetrahydrofolic acid

> <JCHEM_VEBER_RULE>
0

> <DRUGBANK_ID>
DB03273

> <SECONDARY_ACCESSION_NUMBERS>
EXPT00442

> <DRUG_GROUPS>
experimental

> <GENERIC_NAME>
3'-Oxo-Adenosine

$$$$
