
  Mrv0541 02231216342D          

 15 15  0  0  1  0            999 V2000
    1.4289    2.4750    0.0000 N   0  0  0  0  0  0  0  0  0  0  0  0
    2.1434    2.0625    0.0000 C   0  0  1  0  0  0  0  0  0  0  0  0
    2.1434    1.2375    0.0000 C   0  0  0  0  0  0  0  0  0  0  0  0
    1.4289    0.8250    0.0000 C   0  0  0  0  0  0  0  0  0  0  0  0
    1.4289    0.0000    0.0000 C   0  0  0  0  0  0  0  0  0  0  0  0
    0.7145   -0.4125    0.0000 C   0  0  0  0  0  0  0  0  0  0  0  0
    0.7145   -1.2375    0.0000 N   0  0  0  0  0  0  0  0  0  0  0  0
    0.0000    0.0000    0.0000 C   0  0  0  0  0  0  0  0  0  0  0  0
   -0.7145   -0.4125    0.0000 O   0  0  0  0  0  0  0  0  0  0  0  0
    0.0000    0.8250    0.0000 C   0  0  0  0  0  0  0  0  0  0  0  0
    0.7145    1.2375    0.0000 C   0  0  0  0  0  0  0  0  0  0  0  0
    0.7145    2.0625    0.0000 O   0  0  0  0  0  0  0  0  0  0  0  0
    2.8579    2.4750    0.0000 C   0  0  0  0  0  0  0  0  0  0  0  0
    2.8579    3.3000    0.0000 O   0  0  0  0  0  0  0  0  0  0  0  0
    3.5724    2.0625    0.0000 O   0  0  0  0  0  0  0  0  0  0  0  0
  2  1  1  6  0  0  0
  2  3  1  0  0  0  0
  3  4  1  0  0  0  0
  4  5  2  0  0  0  0
  5  6  1  0  0  0  0
  6  7  1  0  0  0  0
  6  8  2  0  0  0  0
  8  9  1  0  0  0  0
  8 10  1  0  0  0  0
 10 11  2  0  0  0  0
  4 11  1  0  0  0  0
 11 12  1  0  0  0  0
  2 13  1  0  0  0  0
 13 14  1  0  0  0  0
 13 15  2  0  0  0  0
M  END
> <DATABASE_ID>
DB02928

> <DATABASE_NAME>
drugbank

> <SMILES>
N[C@@H](CC1=CC(N)=C(O)C=C1O)C(O)=O

> <INCHI_IDENTIFIER>
InChI=1S/C9H12N2O4/c10-5-1-4(2-6(11)9(14)15)7(12)3-8(5)13/h1,3,6,12-13H,2,10-11H2,(H,14,15)/t6-/m0/s1

> <INCHI_KEY>
OIXIYIGKZVEKPI-LURJTMIESA-N

> <FORMULA>
C9H12N2O4

> <MOLECULAR_WEIGHT>
212.2026

> <EXACT_MASS>
212.079706882

> <JCHEM_ACCEPTOR_COUNT>
6

> <JCHEM_ATOM_COUNT>
27

> <JCHEM_AVERAGE_NEUTRAL_MICROSPECIES_CHARGE>
0.009256616256637522

> <JCHEM_AVERAGE_POLARIZABILITY>
20.414885049977542

> <JCHEM_BIOAVAILABILITY>
1

> <JCHEM_DONOR_COUNT>
5

> <JCHEM_FORMAL_CHARGE>
0

> <JCHEM_GHOSE_FILTER>
0

> <JCHEM_IUPAC>
(2S)-2-amino-3-(5-amino-2,4-dihydroxyphenyl)propanoic acid

> <ALOGPS_LOGP>
-2.57

> <JCHEM_LOGP>
-2.6656729081235477

> <ALOGPS_LOGS>
-1.82

> <JCHEM_MDDR_LIKE_RULE>
0

> <JCHEM_NEUTRAL_CHARGE>
0

> <JCHEM_NUMBER_OF_RINGS>
1

> <JCHEM_PHYSIOLOGICAL_CHARGE>
0

> <JCHEM_PKA>
9.99355012538043

> <JCHEM_PKA_STRONGEST_ACIDIC>
0.9890627681116749

> <JCHEM_PKA_STRONGEST_BASIC>
9.048292414400718

> <JCHEM_POLAR_SURFACE_AREA>
129.8

> <JCHEM_REFRACTIVITY>
53.778500000000015

> <JCHEM_ROTATABLE_BOND_COUNT>
3

> <JCHEM_RULE_OF_FIVE>
1

> <ALOGPS_SOLUBILITY>
3.21e+00 g/l

> <JCHEM_TRADITIONAL_IUPAC>
biotin

> <JCHEM_VEBER_RULE>
0

> <DRUGBANK_ID>
DB02928

> <SECONDARY_ACCESSION_NUMBERS>
EXPT03140

> <DRUG_GROUPS>
experimental

> <GENERIC_NAME>
3-Amino-6-Hydroxy-Tyrosine

$$$$
