
  Mrv0541 05041412122D          

 43 46  0  0  1  0            999 V2000
   -0.2182    6.5270    0.0000 C   0  0  0  0  0  0  0  0  0  0  0  0
   -2.8697    8.9960    0.0000 C   0  0  0  0  0  0  0  0  0  0  0  0
   -1.0307    6.6702    0.0000 C   0  0  0  0  0  0  0  0  0  0  0  0
   -3.6822    8.8527    0.0000 C   0  0  0  0  0  0  0  0  0  0  0  0
   -1.6590    2.4690    0.0000 C   0  0  0  0  0  0  0  0  0  0  0  0
   -0.9445    2.8815    0.0000 C   0  0  0  0  0  0  0  0  0  0  0  0
   -2.3734    2.8815    0.0000 C   0  0  0  0  0  0  0  0  0  0  0  0
   -5.8714    7.0157    0.0000 C   0  0  0  0  0  0  0  0  0  0  0  0
   -0.9445    3.7065    0.0000 C   0  0  0  0  0  0  0  0  0  0  0  0
   -2.3734    3.7065    0.0000 C   0  0  0  0  0  0  0  0  0  0  0  0
   -5.0590    7.1590    0.0000 C   0  0  0  0  0  0  0  0  0  0  0  0
   -6.4017    7.6477    0.0000 C   0  0  0  0  0  0  0  0  0  0  0  0
   -6.3337   12.0126    0.0000 C   0  0  0  0  0  0  0  0  0  0  0  0
   -6.6158   11.2374    0.0000 C   0  0  0  0  0  0  0  0  0  0  0  0
   -1.6590    4.9440    0.0000 C   0  0  0  0  0  0  0  0  0  0  0  0
   -1.5610    6.0382    0.0000 C   0  0  0  0  0  0  0  0  0  0  0  0
   -2.3734    5.3565    0.0000 C   0  0  0  0  0  0  0  0  0  0  0  0
   -5.3071    8.5662    0.0000 C   0  0  0  0  0  0  0  0  0  0  0  0
   -2.0913    6.9567    0.0000 C   0  0  0  0  0  0  0  0  0  0  0  0
   -4.9909   11.5239    0.0000 C   0  0  0  0  0  0  0  0  0  0  0  0
   -1.6590    4.1190    0.0000 C   0  0  0  0  0  0  0  0  0  0  0  0
   -4.7768    7.9342    0.0000 C   0  0  0  0  0  0  0  0  0  0  0  0
   -5.5212   12.1559    0.0000 C   0  0  0  0  0  0  0  0  0  0  0  0
   -6.1196    8.4229    0.0000 C   0  0  0  0  0  0  0  0  0  0  0  0
   -3.9643    8.0775    0.0000 C   0  0  2  0  0  0  0  0  0  0  0  0
   -2.6216    7.5887    0.0000 C   0  0  0  0  0  0  0  0  0  0  0  0
   -6.0855   10.6054    0.0000 C   0  0  0  0  0  0  0  0  0  0  0  0
   -3.4340    7.4455    0.0000 C   0  0  0  0  0  0  0  0  0  0  0  0
   -3.7162    6.6702    0.0000 C   0  0  0  0  0  0  0  0  0  0  0  0
   -2.3734    6.1815    0.0000 C   0  0  1  0  0  0  0  0  0  0  0  0
   -5.2390   12.9311    0.0000 C   0  0  0  0  0  0  0  0  0  0  0  0
   -4.9569   13.7064    0.0000 F   0  0  0  0  0  0  0  0  0  0  0  0
   -4.4638   12.6490    0.0000 F   0  0  0  0  0  0  0  0  0  0  0  0
   -6.0143   13.2133    0.0000 F   0  0  0  0  0  0  0  0  0  0  0  0
   -5.2731   10.7487    0.0000 N   0  0  0  0  0  0  0  0  0  0  0  0
   -6.6499    9.0549    0.0000 N   0  0  0  0  0  0  0  0  0  0  0  0
   -2.3394    8.3640    0.0000 O   0  0  0  0  0  0  0  0  0  0  0  0
   -4.5287    6.5270    0.0000 O   0  0  0  0  0  0  0  0  0  0  0  0
   -5.5925    9.5480    0.0000 O   0  0  0  0  0  0  0  0  0  0  0  0
   -7.1429   10.1123    0.0000 O   0  0  0  0  0  0  0  0  0  0  0  0
   -3.1859    6.0382    0.0000 O   0  0  0  0  0  0  0  0  0  0  0  0
   -6.3677    9.8302    0.0000 S   0  0  0  0  0  0  0  0  0  0  0  0
   -4.4946    8.7094    0.0000 H   0  0  0  0  0  0  0  0  0  0  0  0
  3  1  1  0  0  0  0
  4  2  1  0  0  0  0
  6  5  2  0  0  0  0
  7  5  1  0  0  0  0
  9  6  1  0  0  0  0
 10  7  2  0  0  0  0
 11  8  2  0  0  0  0
 12  8  1  0  0  0  0
 14 13  2  0  0  0  0
 16  3  1  0  0  0  0
 17 15  1  0  0  0  0
 21  9  2  0  0  0  0
 21 10  1  0  0  0  0
 21 15  1  0  0  0  0
 22 11  1  0  0  0  0
 22 18  2  0  0  0  0
 23 13  1  0  0  0  0
 23 20  2  0  0  0  0
 24 12  2  0  0  0  0
 24 18  1  0  0  0  0
 25  4  1  0  0  0  0
 25 22  1  0  0  0  0
 26 19  1  0  0  0  0
 27 14  1  0  0  0  0
 25 28  1  6  0  0  0
 28 26  2  0  0  0  0
 29 28  1  0  0  0  0
 30 16  1  6  0  0  0
 30 17  1  1  0  0  0
 30 19  1  0  0  0  0
 31 23  1  0  0  0  0
 32 31  1  0  0  0  0
 33 31  1  0  0  0  0
 34 31  1  0  0  0  0
 35 20  1  0  0  0  0
 35 27  2  0  0  0  0
 36 24  1  0  0  0  0
 37 26  1  0  0  0  0
 38 29  2  0  0  0  0
 41 29  1  0  0  0  0
 41 30  1  0  0  0  0
 42 27  1  0  0  0  0
 42 36  1  0  0  0  0
 42 39  2  0  0  0  0
 42 40  2  0  0  0  0
 25 43  1  6  0  0  0
M  END
> <DATABASE_ID>
DB00932

> <DATABASE_NAME>
drugbank

> <SMILES>
[H][C@@](CC)(C1=CC(NS(=O)(=O)C2=NC=C(C=C2)C(F)(F)F)=CC=C1)C1=C(O)C[C@@](CCC)(CCC2=CC=CC=C2)OC1=O

> <INCHI_IDENTIFIER>
InChI=1S/C31H33F3N2O5S/c1-3-16-30(17-15-21-9-6-5-7-10-21)19-26(37)28(29(38)41-30)25(4-2)22-11-8-12-24(18-22)36-42(39,40)27-14-13-23(20-35-27)31(32,33)34/h5-14,18,20,25,36-37H,3-4,15-17,19H2,1-2H3/t25-,30-/m1/s1

> <INCHI_KEY>
SUJUHGSWHZTSEU-FYBSXPHGSA-N

> <FORMULA>
C31H33F3N2O5S

> <MOLECULAR_WEIGHT>
602.664

> <EXACT_MASS>
602.206227481

> <JCHEM_ACCEPTOR_COUNT>
5

> <JCHEM_ATOM_COUNT>
75

> <JCHEM_AVERAGE_NEUTRAL_MICROSPECIES_CHARGE>
-0.9793196499581511

> <JCHEM_AVERAGE_POLARIZABILITY>
60.870599181758486

> <JCHEM_BIOAVAILABILITY>
0

> <JCHEM_DONOR_COUNT>
2

> <JCHEM_FORMAL_CHARGE>
0

> <JCHEM_GHOSE_FILTER>
0

> <JCHEM_IUPAC>
N-{3-[(1R)-1-[(6R)-4-hydroxy-2-oxo-6-(2-phenylethyl)-6-propyl-5,6-dihydro-2H-pyran-3-yl]propyl]phenyl}-5-(trifluoromethyl)pyridine-2-sulfonamide

> <ALOGPS_LOGP>
6.29

> <JCHEM_LOGP>
7.138675971333333

> <ALOGPS_LOGS>
-6.47

> <JCHEM_MDDR_LIKE_RULE>
1

> <JCHEM_NEUTRAL_CHARGE>
-1

> <JCHEM_NUMBER_OF_RINGS>
4

> <JCHEM_PHYSIOLOGICAL_CHARGE>
-1

> <JCHEM_PKA>
8.176697930820934

> <JCHEM_PKA_STRONGEST_ACIDIC>
5.959012616983649

> <JCHEM_PKA_STRONGEST_BASIC>
-2.3068735009068

> <JCHEM_POLAR_SURFACE_AREA>
105.59000000000002

> <JCHEM_REFRACTIVITY>
154.57229999999998

> <JCHEM_ROTATABLE_BOND_COUNT>
11

> <JCHEM_RULE_OF_FIVE>
0

> <ALOGPS_SOLUBILITY>
2.05e-04 g/l

> <JCHEM_TRADITIONAL_IUPAC>
biotin

> <JCHEM_VEBER_RULE>
0

> <DRUGBANK_ID>
DB00932

> <SECONDARY_ACCESSION_NUMBERS>
APRD01306

> <DRUG_GROUPS>
approved; investigational

> <GENERIC_NAME>
Tipranavir

> <SYNONYMS>
Tipranavir

> <PRODUCTS>
Aptivus

> <SALTS>
Tipranavir disodium

$$$$
