
  Mrv0541 02231218142D          

 12 12  0  0  0  0            999 V2000
    3.7934    2.2688    0.0000 N   0  0  0  0  0  0  0  0  0  0  0  0
    1.6500   -2.2688    0.0000 N   0  0  0  0  0  0  0  0  0  0  0  0
    3.0790    1.0313    0.0000 C   0  0  0  0  0  0  0  0  0  0  0  0
    3.7934    1.4438    0.0000 C   0  0  0  0  0  0  0  0  0  0  0  0
    3.0790    0.2063    0.0000 C   0  0  0  0  0  0  0  0  0  0  0  0
    2.3644   -0.2063    0.0000 C   0  0  0  0  0  0  0  0  0  0  0  0
    2.3644   -1.0313    0.0000 C   0  0  0  0  0  0  0  0  0  0  0  0
    4.5079    2.6812    0.0000 C   0  0  0  0  0  0  0  0  0  0  0  0
    3.0790   -1.4438    0.0000 C   0  0  0  0  0  0  0  0  0  0  0  0
    1.6500   -1.4438    0.0000 C   0  0  0  0  0  0  0  0  0  0  0  0
    3.0790   -2.2688    0.0000 C   0  0  0  0  0  0  0  0  0  0  0  0
    2.3644   -2.6812    0.0000 C   0  0  0  0  0  0  0  0  0  0  0  0
  1  4  1  0  0  0  0
  1  8  1  0  0  0  0
  2 10  1  0  0  0  0
  2 12  2  0  0  0  0
  3  4  1  0  0  0  0
  3  5  1  0  0  0  0
  5  6  2  0  0  0  0
  6  7  1  0  0  0  0
  7  9  1  0  0  0  0
  7 10  2  0  0  0  0
  9 11  2  0  0  0  0
 11 12  1  0  0  0  0
M  END
> <DATABASE_ID>
DB05855

> <DATABASE_NAME>
drugbank

> <SMILES>
CNCC\C=C\C1=CN=CC=C1

> <INCHI_IDENTIFIER>
InChI=1S/C10H14N2/c1-11-7-3-2-5-10-6-4-8-12-9-10/h2,4-6,8-9,11H,3,7H2,1H3/b5-2+

> <INCHI_KEY>
JUOSGGQXEBBCJB-GORDUTHDSA-N

> <FORMULA>
C10H14N2

> <MOLECULAR_WEIGHT>
162.2316

> <EXACT_MASS>
162.115698458

> <JCHEM_ACCEPTOR_COUNT>
2

> <JCHEM_ATOM_COUNT>
26

> <JCHEM_AVERAGE_NEUTRAL_MICROSPECIES_CHARGE>
1.0076026835390621

> <JCHEM_AVERAGE_POLARIZABILITY>
19.23615604795368

> <JCHEM_BIOAVAILABILITY>
1

> <JCHEM_DONOR_COUNT>
1

> <JCHEM_FORMAL_CHARGE>
0

> <JCHEM_GHOSE_FILTER>
1

> <JCHEM_IUPAC>
methyl[(3E)-4-(pyridin-3-yl)but-3-en-1-yl]amine

> <ALOGPS_LOGP>
1.33

> <JCHEM_LOGP>
1.212499097

> <ALOGPS_LOGS>
-1.53

> <JCHEM_MDDR_LIKE_RULE>
0

> <JCHEM_NEUTRAL_CHARGE>
1

> <JCHEM_NUMBER_OF_RINGS>
1

> <JCHEM_PHYSIOLOGICAL_CHARGE>
1

> <JCHEM_PKA_STRONGEST_BASIC>
10.47250780200123

> <JCHEM_POLAR_SURFACE_AREA>
24.92

> <JCHEM_REFRACTIVITY>
52.222699999999996

> <JCHEM_ROTATABLE_BOND_COUNT>
4

> <JCHEM_RULE_OF_FIVE>
1

> <ALOGPS_SOLUBILITY>
4.74e+00 g/l

> <JCHEM_TRADITIONAL_IUPAC>
biotin

> <JCHEM_VEBER_RULE>
1

> <DRUGBANK_ID>
DB05855

> <DRUG_GROUPS>
investigational

> <GENERIC_NAME>
Rivanicline

> <SYNONYMS>
(3E)-N-methyl-4-(pyridin-3-yl)but-3-en-1-amine; (E)-metanicotine; (E)-N-Methyl-4-(3-pyridinyl)-3-butene-1-amine; N-methyl-4-(3-pyridinyl)-(3E)-3-buten-1-amine; Rivanicline; trans-metanicotine

$$$$
