
  Mrv0541 02231217112D          

  9  9  0  0  0  0            999 V2000
    2.1434    1.2375    0.0000 N   0  0  0  0  0  0  0  0  0  0  0  0
    1.4289    0.8250    0.0000 C   0  0  0  0  0  0  0  0  0  0  0  0
    1.4289    0.0000    0.0000 C   0  0  0  0  0  0  0  0  0  0  0  0
    0.7145   -0.4125    0.0000 N   0  0  0  0  0  0  0  0  0  0  0  0
    0.0000    0.0000    0.0000 C   0  0  0  0  0  0  0  0  0  0  0  0
   -0.7145   -0.4125    0.0000 O   0  0  0  0  0  0  0  0  0  0  0  0
    0.0000    0.8250    0.0000 N   0  0  0  0  0  0  0  0  0  0  0  0
    0.7145    1.2375    0.0000 C   0  0  0  0  0  0  0  0  0  0  0  0
    0.7145    2.0625    0.0000 O   0  0  0  0  0  0  0  0  0  0  0  0
  1  2  1  0  0  0  0
  2  3  2  0  0  0  0
  3  4  1  0  0  0  0
  4  5  1  0  0  0  0
  5  6  2  0  0  0  0
  5  7  1  0  0  0  0
  7  8  1  0  0  0  0
  2  8  1  0  0  0  0
  8  9  2  0  0  0  0
M  END
> <DATABASE_ID>
DB03792

> <DATABASE_NAME>
drugbank

> <SMILES>
NC1=CNC(=O)NC1=O

> <INCHI_IDENTIFIER>
InChI=1S/C4H5N3O2/c5-2-1-6-4(9)7-3(2)8/h1H,5H2,(H2,6,7,8,9)

> <INCHI_KEY>
BISHACNKZIBDFM-UHFFFAOYSA-N

> <FORMULA>
C4H5N3O2

> <MOLECULAR_WEIGHT>
127.1014

> <EXACT_MASS>
127.038176419

> <JCHEM_ACCEPTOR_COUNT>
3

> <JCHEM_ATOM_COUNT>
14

> <JCHEM_AVERAGE_NEUTRAL_MICROSPECIES_CHARGE>
-0.026026197308885318

> <JCHEM_AVERAGE_POLARIZABILITY>
10.735848514481034

> <JCHEM_BIOAVAILABILITY>
1

> <JCHEM_DONOR_COUNT>
3

> <JCHEM_FORMAL_CHARGE>
0

> <JCHEM_GHOSE_FILTER>
0

> <JCHEM_IUPAC>
5-amino-1,2,3,4-tetrahydropyrimidine-2,4-dione

> <ALOGPS_LOGP>
-1.58

> <JCHEM_LOGP>
-1.7392962589999996

> <ALOGPS_LOGS>
-1.05

> <JCHEM_MDDR_LIKE_RULE>
0

> <JCHEM_NEUTRAL_CHARGE>
0

> <JCHEM_NUMBER_OF_RINGS>
1

> <JCHEM_PHYSIOLOGICAL_CHARGE>
0

> <JCHEM_PKA>
13.454477977665693

> <JCHEM_PKA_STRONGEST_ACIDIC>
8.573142634173783

> <JCHEM_PKA_STRONGEST_BASIC>
-5.777527044063051

> <JCHEM_POLAR_SURFACE_AREA>
84.22

> <JCHEM_REFRACTIVITY>
29.594200000000004

> <JCHEM_ROTATABLE_BOND_COUNT>
0

> <JCHEM_RULE_OF_FIVE>
1

> <ALOGPS_SOLUBILITY>
1.13e+01 g/l

> <JCHEM_TRADITIONAL_IUPAC>
tetrahydrofolic acid

> <JCHEM_VEBER_RULE>
0

> <DRUGBANK_ID>
DB03792

> <SECONDARY_ACCESSION_NUMBERS>
EXPT03241

> <DRUG_GROUPS>
experimental

> <GENERIC_NAME>
5-Aminouracil

> <SYNONYMS>
5-Amino-2,4-dihydroxypyrimidine; 5-aminopyrimidine-2,4(1H,3H)-dione

$$$$
