
  Mrv0541 02231217482D          

 37 40  0  0  1  0            999 V2000
    0.0000    0.8250    0.0000 C   0  0  0  0  0  0  0  0  0  0  0  0
    0.0000    0.0000    0.0000 N   0  0  0  0  0  0  0  0  0  0  0  0
    0.7145   -0.4125    0.0000 C   0  0  1  0  0  0  0  0  0  0  0  0
    1.4289    0.0000    0.0000 C   0  0  1  0  0  0  0  0  0  0  0  0
    1.4289    0.8250    0.0000 O   0  0  0  0  0  0  0  0  0  0  0  0
    2.1434   -0.4125    0.0000 C   0  0  1  0  0  0  0  0  0  0  0  0
    2.8579    0.0000    0.0000 O   0  0  0  0  0  0  0  0  0  0  0  0
    3.5724   -0.4125    0.0000 C   0  0  2  0  0  0  0  0  0  0  0  0
    4.2868    0.0000    0.0000 O   0  0  0  0  0  0  0  0  0  0  0  0
    4.2868    0.8250    0.0000 C   0  0  2  0  0  0  0  0  0  0  0  0
    5.0013    1.2375    0.0000 C   0  0  1  0  0  0  0  0  0  0  0  0
    5.7158    0.8250    0.0000 N   0  0  0  0  0  0  0  0  0  0  0  0
    5.0013    2.0625    0.0000 C   0  0  0  0  0  0  0  0  0  0  0  0
    4.2868    2.4750    0.0000 C   0  0  1  0  0  0  0  0  0  0  0  0
    4.2868    3.3000    0.0000 N   0  0  0  0  0  0  0  0  0  0  0  0
    3.5724    2.0625    0.0000 C   0  0  2  0  0  0  0  0  0  0  0  0
    2.8579    2.4750    0.0000 O   0  0  0  0  0  0  0  0  0  0  0  0
    3.5724    1.2375    0.0000 C   0  0  1  0  0  0  0  0  0  0  0  0
    2.8579    0.8250    0.0000 O   0  0  0  0  0  0  0  0  0  0  0  0
    3.5724   -1.2375    0.0000 C   0  0  2  0  0  0  0  0  0  0  0  0
    4.2868   -1.6500    0.0000 N   0  0  0  0  0  0  0  0  0  0  0  0
    2.8579   -1.6500    0.0000 C   0  0  0  0  0  0  0  0  0  0  0  0
    2.1434   -1.2375    0.0000 C   0  0  2  0  0  0  0  0  0  0  0  0
    1.4289   -1.6500    0.0000 O   0  0  0  0  0  0  0  0  0  0  0  0
    0.7145   -1.2375    0.0000 C   0  0  2  0  0  0  0  0  0  0  0  0
    0.0000   -1.6500    0.0000 O   0  0  0  0  0  0  0  0  0  0  0  0
   -0.7145   -1.2375    0.0000 C   0  0  1  0  0  0  0  0  0  0  0  0
   -0.7145   -0.4125    0.0000 O   0  0  0  0  0  0  0  0  0  0  0  0
   -1.4289    0.0000    0.0000 C   0  0  2  0  0  0  0  0  0  0  0  0
   -1.4289    0.8250    0.0000 C   0  0  0  0  0  0  0  0  0  0  0  0
   -0.7145    1.2375    0.0000 O   0  0  0  0  0  0  0  0  0  0  0  0
   -2.1434   -0.4125    0.0000 C   0  0  1  0  0  0  0  0  0  0  0  0
   -2.8579    0.0000    0.0000 N   0  0  0  0  0  0  0  0  0  0  0  0
   -2.1434   -1.2375    0.0000 C   0  0  2  0  0  0  0  0  0  0  0  0
   -2.8579   -1.6500    0.0000 O   0  0  0  0  0  0  0  0  0  0  0  0
   -1.4289   -1.6500    0.0000 C   0  0  1  0  0  0  0  0  0  0  0  0
   -1.4289   -2.4750    0.0000 O   0  0  0  0  0  0  0  0  0  0  0  0
  1  2  1  0  0  0  0
  3  2  1  1  0  0  0
  3  4  1  0  0  0  0
  4  5  1  1  0  0  0
  4  6  1  0  0  0  0
  6  7  1  1  0  0  0
  7  8  1  0  0  0  0
  8  9  1  6  0  0  0
 10  9  1  1  0  0  0
 10 11  1  0  0  0  0
 11 12  1  6  0  0  0
 11 13  1  0  0  0  0
 13 14  1  0  0  0  0
 14 15  1  6  0  0  0
 14 16  1  0  0  0  0
 16 17  1  1  0  0  0
 16 18  1  0  0  0  0
 10 18  1  0  0  0  0
 18 19  1  6  0  0  0
  8 20  1  0  0  0  0
 20 21  1  6  0  0  0
 20 22  1  0  0  0  0
 23 22  1  6  0  0  0
  6 23  1  0  0  0  0
 23 24  1  0  0  0  0
 24 25  1  0  0  0  0
  3 25  1  0  0  0  0
 25 26  1  6  0  0  0
 27 26  1  6  0  0  0
 27 28  1  0  0  0  0
 28 29  1  0  0  0  0
 29 30  1  1  0  0  0
 30 31  1  0  0  0  0
 29 32  1  0  0  0  0
 32 33  1  6  0  0  0
 32 34  1  0  0  0  0
 34 35  1  1  0  0  0
 34 36  1  0  0  0  0
 27 36  1  0  0  0  0
 36 37  1  6  0  0  0
M  END
> <DATABASE_ID>
DB04626

> <DATABASE_NAME>
drugbank

> <SMILES>
CN[C@H]1[C@@H](O)[C@H]2O[C@H](O[C@@H]3[C@@H](N)C[C@@H](N)[C@H](O)[C@H]3O)[C@H](N)C[C@@H]2O[C@@H]1O[C@H]1O[C@H](CO)[C@@H](N)[C@H](O)[C@H]1O

> <INCHI_IDENTIFIER>
InChI=1S/C21H41N5O11/c1-26-11-14(30)18-8(33-20(11)37-21-16(32)13(29)10(25)9(4-27)34-21)3-7(24)19(36-18)35-17-6(23)2-5(22)12(28)15(17)31/h5-21,26-32H,2-4,22-25H2,1H3/t5-,6+,7-,8+,9-,10-,11+,12+,13+,14-,15-,16-,17-,18+,19+,20-,21-/m1/s1

> <INCHI_KEY>
XZNUGFQTQHRASN-XQENGBIVSA-N

> <FORMULA>
C21H41N5O11

> <MOLECULAR_WEIGHT>
539.5771

> <EXACT_MASS>
539.280257179

> <JCHEM_ACCEPTOR_COUNT>
16

> <JCHEM_ATOM_COUNT>
78

> <JCHEM_AVERAGE_NEUTRAL_MICROSPECIES_CHARGE>
4.583593900331232

> <JCHEM_AVERAGE_POLARIZABILITY>
54.459241740375845

> <JCHEM_BIOAVAILABILITY>
0

> <JCHEM_DONOR_COUNT>
11

> <JCHEM_FORMAL_CHARGE>
0

> <JCHEM_GHOSE_FILTER>
0

> <JCHEM_IUPAC>
(2R,3R,4S,5S,6S)-2-{[(2R,3S,4R,4aR,6S,7R,8aS)-7-amino-6-{[(1R,2R,3S,4R,6S)-4,6-diamino-2,3-dihydroxycyclohexyl]oxy}-4-hydroxy-3-(methylamino)-octahydropyrano[3,2-b]pyran-2-yl]oxy}-5-amino-6-(hydroxymethyl)oxane-3,4-diol

> <ALOGPS_LOGP>
-2.77

> <JCHEM_LOGP>
-6.508110424333332

> <ALOGPS_LOGS>
-1.01

> <JCHEM_MDDR_LIKE_RULE>
1

> <JCHEM_NEUTRAL_CHARGE>
5

> <JCHEM_NUMBER_OF_RINGS>
4

> <JCHEM_PHYSIOLOGICAL_CHARGE>
5

> <JCHEM_PKA>
13.01068649753168

> <JCHEM_PKA_STRONGEST_ACIDIC>
12.289232377008174

> <JCHEM_PKA_STRONGEST_BASIC>
9.531348696338803

> <JCHEM_POLAR_SURFACE_AREA>
283.64

> <JCHEM_REFRACTIVITY>
120.91429999999998

> <JCHEM_ROTATABLE_BOND_COUNT>
6

> <JCHEM_RULE_OF_FIVE>
0

> <ALOGPS_SOLUBILITY>
5.33e+01 g/l

> <JCHEM_TRADITIONAL_IUPAC>
biotin

> <JCHEM_VEBER_RULE>
0

> <DRUGBANK_ID>
DB04626

> <DRUG_GROUPS>
experimental; vet_approved

> <GENERIC_NAME>
Apramycin

> <SYNONYMS>
4-O-((8R)-2-amino-8-O-(4-amino-4-deoxy-α-D-glucopyranosyl)-2,3,7-trideoxy-7-(methylamino)-D-glycero-α-D-allo-octodialdo-1,5:8,4-dipyranos-1-yl)-2-deoxy-D-streptamine; 4-O-(3α-amino-6α-((4-amino-4-deoxy-α-D-glucopyranosyl)oxy)-2,3,4,5aβ,6,7,8,8aα-octahydro-8β-hydroxy-7β-(methylamino)pyrano(3,2-b)pyran-2α-yl)-2-deoxy-D-streptamine; Apramicina; Apramycin; Apramycine; Apramycinum; Nebramycin II

> <SALTS>
Apramycin sulfate

$$$$
