
  Mrv0541 02231217052D          

 16 16  0  0  0  0            999 V2000
    2.1434    1.2375    0.0000 O   0  0  0  0  0  0  0  0  0  0  0  0
    1.4289    0.8250    0.0000 C   0  0  0  0  0  0  0  0  0  0  0  0
    1.4289    0.0000    0.0000 C   0  0  0  0  0  0  0  0  0  0  0  0
    0.7145   -0.4125    0.0000 C   0  0  0  0  0  0  0  0  0  0  0  0
    0.0000    0.0000    0.0000 C   0  0  0  0  0  0  0  0  0  0  0  0
    0.0000    0.8250    0.0000 C   0  0  0  0  0  0  0  0  0  0  0  0
    0.7145    1.2375    0.0000 C   0  0  0  0  0  0  0  0  0  0  0  0
    0.7145    2.0625    0.0000 N   0  3  0  0  0  0  0  0  0  0  0  0
    1.4289    2.4750    0.0000 O   0  5  0  0  0  0  0  0  0  0  0  0
    0.0000    2.4750    0.0000 O   0  0  0  0  0  0  0  0  0  0  0  0
   -0.7145   -0.4125    0.0000 N   0  3  0  0  0  0  0  0  0  0  0  0
   -0.7145   -1.2375    0.0000 O   0  5  0  0  0  0  0  0  0  0  0  0
   -1.4289    0.0000    0.0000 O   0  0  0  0  0  0  0  0  0  0  0  0
    2.1434   -0.4125    0.0000 N   0  3  0  0  0  0  0  0  0  0  0  0
    2.1434   -1.2375    0.0000 O   0  5  0  0  0  0  0  0  0  0  0  0
    2.8579    0.0000    0.0000 O   0  0  0  0  0  0  0  0  0  0  0  0
  1  2  1  0  0  0  0
  2  3  2  0  0  0  0
  3  4  1  0  0  0  0
  4  5  2  0  0  0  0
  5  6  1  0  0  0  0
  6  7  2  0  0  0  0
  2  7  1  0  0  0  0
  7  8  1  0  0  0  0
  8  9  1  0  0  0  0
  8 10  2  0  0  0  0
  5 11  1  0  0  0  0
 11 12  1  0  0  0  0
 11 13  2  0  0  0  0
  3 14  1  0  0  0  0
 14 15  1  0  0  0  0
 14 16  2  0  0  0  0
M  CHG  6   8   1   9  -1  11   1  12  -1  14   1  15  -1
M  END
> <DATABASE_ID>
DB03651

> <DATABASE_NAME>
drugbank

> <SMILES>
OC1=C(C=C(C=C1[N+]([O-])=O)[N+]([O-])=O)[N+]([O-])=O

> <INCHI_IDENTIFIER>
InChI=1S/C6H3N3O7/c10-6-4(8(13)14)1-3(7(11)12)2-5(6)9(15)16/h1-2,10H

> <INCHI_KEY>
OXNIZHLAWKMVMX-UHFFFAOYSA-N

> <FORMULA>
C6H3N3O7

> <MOLECULAR_WEIGHT>
229.1039

> <EXACT_MASS>
228.997099465

> <JCHEM_ACCEPTOR_COUNT>
7

> <JCHEM_ATOM_COUNT>
19

> <JCHEM_AVERAGE_NEUTRAL_MICROSPECIES_CHARGE>
-0.9999779182114434

> <JCHEM_AVERAGE_POLARIZABILITY>
16.94468391177283

> <JCHEM_BIOAVAILABILITY>
1

> <JCHEM_DONOR_COUNT>
1

> <JCHEM_FORMAL_CHARGE>
0

> <JCHEM_GHOSE_FILTER>
0

> <JCHEM_IUPAC>
2,4,6-trinitrophenol

> <ALOGPS_LOGP>
1.83

> <JCHEM_LOGP>
1.4896330623333336

> <ALOGPS_LOGS>
-3.07

> <JCHEM_MDDR_LIKE_RULE>
0

> <JCHEM_NEUTRAL_CHARGE>
-1

> <JCHEM_NUMBER_OF_RINGS>
1

> <JCHEM_PHYSIOLOGICAL_CHARGE>
-1

> <JCHEM_PKA_STRONGEST_ACIDIC>
2.3440438370957284

> <JCHEM_PKA_STRONGEST_BASIC>
-8.682829848019434

> <JCHEM_POLAR_SURFACE_AREA>
149.64999999999998

> <JCHEM_REFRACTIVITY>
47.000400000000006

> <JCHEM_ROTATABLE_BOND_COUNT>
3

> <JCHEM_RULE_OF_FIVE>
1

> <ALOGPS_SOLUBILITY>
1.94e-01 g/l

> <JCHEM_TRADITIONAL_IUPAC>
biotin

> <JCHEM_VEBER_RULE>
0

> <DRUGBANK_ID>
DB03651

> <SECONDARY_ACCESSION_NUMBERS>
EXPT03078; DB11163; DBSALT001532

> <DRUG_GROUPS>
experimental

> <GENERIC_NAME>
Picric acid

> <SYNONYMS>
Picricum acidum; Trinitrophenol

> <PRODUCTS>
Nitrotan; San Su

$$$$
