
  Mrv0541 02231217102D          

 40 42  0  0  1  0            999 V2000
   -2.3345   -4.2105    0.0000 C   0  0  0  0  0  0  0  0  0  0  0  0
   -2.7470   -3.4960    0.0000 C   0  0  0  0  0  0  0  0  0  0  0  0
   -3.5720   -3.4960    0.0000 C   0  0  0  0  0  0  0  0  0  0  0  0
   -2.3345   -2.7815    0.0000 C   0  0  0  0  0  0  0  0  0  0  0  0
   -1.5095   -2.7815    0.0000 C   0  0  0  0  0  0  0  0  0  0  0  0
   -1.0970   -2.0671    0.0000 N   0  0  0  0  0  0  0  0  0  0  0  0
   -0.2720   -2.0671    0.0000 C   0  0  0  0  0  0  0  0  0  0  0  0
    0.1405   -2.7815    0.0000 C   0  0  1  0  0  0  0  0  0  0  0  0
   -0.2720   -3.4960    0.0000 O   0  0  0  0  0  0  0  0  0  0  0  0
    0.9655   -2.7815    0.0000 C   0  0  2  0  0  0  0  0  0  0  0  0
    1.1350   -1.9489    0.0000 C   0  0  0  0  0  0  0  0  0  0  0  0
    1.7780   -1.3734    0.0000 C   0  0  0  0  0  0  0  0  0  0  0  0
    2.1888   -0.6300    0.0000 C   0  0  0  0  0  0  0  0  0  0  0  0
    3.0329   -0.5928    0.0000 C   0  0  0  0  0  0  0  0  0  0  0  0
    3.4854   -1.3027    0.0000 C   0  0  0  0  0  0  0  0  0  0  0  0
    4.2367   -1.7114    0.0000 O   0  0  0  0  0  0  0  0  0  0  0  0
    4.7828   -2.3610    0.0000 C   0  0  0  0  0  0  0  0  0  0  0  0
    4.9048   -3.2013    0.0000 C   0  0  0  0  0  0  0  0  0  0  0  0
    4.6015   -3.9920    0.0000 C   0  0  0  0  0  0  0  0  0  0  0  0
    3.9852   -4.5727    0.0000 C   0  0  0  0  0  0  0  0  0  0  0  0
    4.4071   -5.2817    0.0000 O   0  0  0  0  0  0  0  0  0  0  0  0
    3.1823   -4.8368    0.0000 N   0  0  0  0  0  0  0  0  0  0  0  0
    2.3363   -4.7363    0.0000 C   0  0  1  0  0  0  0  0  0  0  0  0
    2.0698   -5.5171    0.0000 C   0  0  0  0  0  0  0  0  0  0  0  0
    1.2604   -5.6767    0.0000 C   0  0  0  0  0  0  0  0  0  0  0  0
    2.6127   -6.1383    0.0000 C   0  0  0  0  0  0  0  0  0  0  0  0
    1.6158   -4.3048    0.0000 C   0  0  0  0  0  0  0  0  0  0  0  0
    1.0531   -4.9081    0.0000 O   0  0  0  0  0  0  0  0  0  0  0  0
    1.1353   -3.6159    0.0000 N   0  0  0  0  0  0  0  0  0  0  0  0
    3.0791   -2.0341    0.0000 C   0  0  0  0  0  0  0  0  0  0  0  0
    2.2548   -2.0560    0.0000 C   0  0  0  0  0  0  0  0  0  0  0  0
   -1.5095   -1.3526    0.0000 S   0  0  0  0  0  0  0  0  0  0  0  0
   -0.7950   -0.9401    0.0000 O   0  0  0  0  0  0  0  0  0  0  0  0
   -2.2240   -1.7651    0.0000 O   0  0  0  0  0  0  0  0  0  0  0  0
   -1.9220   -0.6381    0.0000 C   0  0  0  0  0  0  0  0  0  0  0  0
   -2.7470   -0.6381    0.0000 C   0  0  0  0  0  0  0  0  0  0  0  0
   -3.1595    0.0763    0.0000 C   0  0  0  0  0  0  0  0  0  0  0  0
   -2.7470    0.7908    0.0000 C   0  0  0  0  0  0  0  0  0  0  0  0
   -1.9220    0.7908    0.0000 C   0  0  0  0  0  0  0  0  0  0  0  0
   -1.5095    0.0763    0.0000 C   0  0  0  0  0  0  0  0  0  0  0  0
  1  2  1  0  0  0  0
  2  3  1  0  0  0  0
  2  4  1  0  0  0  0
  4  5  1  0  0  0  0
  5  6  1  0  0  0  0
  6  7  1  0  0  0  0
  7  8  1  0  0  0  0
  8  9  1  6  0  0  0
 10  8  1  6  0  0  0
 10 11  1  0  0  0  0
 11 12  1  0  0  0  0
 12 13  2  0  0  0  0
 13 14  1  0  0  0  0
 14 15  2  0  0  0  0
 15 16  1  0  0  0  0
 16 17  1  0  0  0  0
 17 18  1  0  0  0  0
 18 19  1  0  0  0  0
 19 20  1  0  0  0  0
 20 21  2  0  0  0  0
 20 22  1  0  0  0  0
 22 23  1  0  0  0  0
 23 24  1  1  0  0  0
 24 25  1  0  0  0  0
 24 26  1  0  0  0  0
 23 27  1  0  0  0  0
 27 28  2  0  0  0  0
 27 29  1  0  0  0  0
 10 29  1  0  0  0  0
 15 30  1  0  0  0  0
 30 31  2  0  0  0  0
 12 31  1  0  0  0  0
  6 32  1  0  0  0  0
 32 33  2  0  0  0  0
 32 34  2  0  0  0  0
 32 35  1  0  0  0  0
 35 36  2  0  0  0  0
 36 37  1  0  0  0  0
 37 38  2  0  0  0  0
 38 39  1  0  0  0  0
 39 40  2  0  0  0  0
 35 40  1  0  0  0  0
M  END
> <DATABASE_ID>
DB03768

> <DATABASE_NAME>
drugbank

> <SMILES>
CC(C)CCN(C[C@@H](O)[C@@H]1CC2=CC=C(OCCCC(=O)N[C@@H](C(C)C)C(=O)N1)C=C2)S(=O)(=O)C1=CC=CC=C1

> <INCHI_IDENTIFIER>
InChI=1S/C30H43N3O6S/c1-21(2)16-17-33(40(37,38)25-9-6-5-7-10-25)20-27(34)26-19-23-12-14-24(15-13-23)39-18-8-11-28(35)32-29(22(3)4)30(36)31-26/h5-7,9-10,12-15,21-22,26-27,29,34H,8,11,16-20H2,1-4H3,(H,31,36)(H,32,35)/t26-,27+,29-/m0/s1

> <INCHI_KEY>
WRUVOSYKHXGAQN-GKRYNVPLSA-N

> <FORMULA>
C30H43N3O6S

> <MOLECULAR_WEIGHT>
573.744

> <EXACT_MASS>
573.287256813

> <JCHEM_ACCEPTOR_COUNT>
6

> <JCHEM_ATOM_COUNT>
83

> <JCHEM_AVERAGE_NEUTRAL_MICROSPECIES_CHARGE>
-0.00011296216343997944

> <JCHEM_AVERAGE_POLARIZABILITY>
62.0127100792632

> <JCHEM_BIOAVAILABILITY>
1

> <JCHEM_DONOR_COUNT>
3

> <JCHEM_FORMAL_CHARGE>
0

> <JCHEM_GHOSE_FILTER>
0

> <JCHEM_IUPAC>
N-[(2R)-2-[(8S,11S)-6,9-dioxo-8-(propan-2-yl)-2-oxa-7,10-diazabicyclo[11.2.2]heptadeca-1(15),13,16-trien-11-yl]-2-hydroxyethyl]-N-(3-methylbutyl)benzenesulfonamide

> <ALOGPS_LOGP>
3.29

> <JCHEM_LOGP>
3.522283994999998

> <ALOGPS_LOGS>
-4.59

> <JCHEM_MDDR_LIKE_RULE>
1

> <JCHEM_NEUTRAL_CHARGE>
0

> <JCHEM_NUMBER_OF_RINGS>
3

> <JCHEM_PHYSIOLOGICAL_CHARGE>
0

> <JCHEM_PKA>
12.37281532580738

> <JCHEM_PKA_STRONGEST_ACIDIC>
10.964792126263212

> <JCHEM_PKA_STRONGEST_BASIC>
-1.3545016090817519

> <JCHEM_POLAR_SURFACE_AREA>
125.03999999999999

> <JCHEM_REFRACTIVITY>
154.47689999999992

> <JCHEM_ROTATABLE_BOND_COUNT>
8

> <JCHEM_RULE_OF_FIVE>
0

> <ALOGPS_SOLUBILITY>
1.48e-02 g/l

> <JCHEM_TRADITIONAL_IUPAC>
tetrahydrofolic acid

> <JCHEM_VEBER_RULE>
0

> <DRUGBANK_ID>
DB03768

> <SECONDARY_ACCESSION_NUMBERS>
EXPT01695

> <DRUG_GROUPS>
experimental

> <GENERIC_NAME>
N-[2-Hydroxy-2-(8-Isopropyl-6,9-Dioxo-2-Oxa-7,10-Diaza-Bicyclo[11.2.2]Heptadeca-1(16),13(17),14-Trien-11-Yl)-Ethyl]-N-(3-Methyl-Butyl)-Benzenesulfonamide,Inhibitor 3

$$$$
