
  Mrv0541 02241204352D          

 11 11  0  0  0  0            999 V2000
   -0.7145    3.7125    0.0000 O   0  5  0  0  0  0  0  0  0  0  0  0
    0.0000    3.3000    0.0000 N   0  3  0  0  0  0  0  0  0  0  0  0
    0.7145    3.7125    0.0000 O   0  0  0  0  0  0  0  0  0  0  0  0
    0.0000    2.4750    0.0000 O   0  0  0  0  0  0  0  0  0  0  0  0
    0.7145    2.0625    0.0000 Hg  0  0  0  0  0  0  0  0  0  0  0  0
    0.7145    1.2375    0.0000 C   0  0  0  0  0  0  0  0  0  0  0  0
    1.4289    0.8250    0.0000 C   0  0  0  0  0  0  0  0  0  0  0  0
    1.4289    0.0000    0.0000 C   0  0  0  0  0  0  0  0  0  0  0  0
    0.7145   -0.4125    0.0000 C   0  0  0  0  0  0  0  0  0  0  0  0
    0.0000    0.0000    0.0000 C   0  0  0  0  0  0  0  0  0  0  0  0
    0.0000    0.8250    0.0000 C   0  0  0  0  0  0  0  0  0  0  0  0
  1  2  1  0  0  0  0
  2  3  2  0  0  0  0
  2  4  1  0  0  0  0
  4  5  1  0  0  0  0
  5  6  1  0  0  0  0
  6  7  2  0  0  0  0
  7  8  1  0  0  0  0
  8  9  2  0  0  0  0
  9 10  1  0  0  0  0
 10 11  2  0  0  0  0
  6 11  1  0  0  0  0
M  CHG  2   1  -1   2   1
M  END
> <DATABASE_ID>
DB13388

> <DATABASE_NAME>
drugbank

> <SMILES>
[O-][N+](=O)O[Hg]C1=CC=CC=C1

> <INCHI_IDENTIFIER>
InChI=1S/C6H5.Hg.NO3/c1-2-4-6-5-3-1;;2-1(3)4/h1-5H;;/q;+1;-1

> <INCHI_KEY>
PDTFCHSETJBPTR-UHFFFAOYSA-N

> <FORMULA>
C6H5HgNO3

> <MOLECULAR_WEIGHT>
339.7

> <EXACT_MASS>
340.997568635

> <JCHEM_ACCEPTOR_COUNT>
3

> <JCHEM_ATOM_COUNT>
16

> <JCHEM_AVERAGE_NEUTRAL_MICROSPECIES_CHARGE>
0.0

> <JCHEM_AVERAGE_POLARIZABILITY>
14.57447083303628

> <JCHEM_BIOAVAILABILITY>
1

> <JCHEM_DONOR_COUNT>
0

> <JCHEM_FORMAL_CHARGE>
0

> <JCHEM_GHOSE_FILTER>
0

> <JCHEM_IUPAC>
phenylmercurio nitrate

> <ALOGPS_LOGP>
1.28

> <JCHEM_LOGP>
1.5714000000000001

> <ALOGPS_LOGS>
-1.40

> <JCHEM_MDDR_LIKE_RULE>
0

> <JCHEM_NEUTRAL_CHARGE>
0

> <JCHEM_NUMBER_OF_RINGS>
1

> <JCHEM_PHYSIOLOGICAL_CHARGE>
0

> <JCHEM_PKA_STRONGEST_BASIC>
-5.857583414554754

> <JCHEM_POLAR_SURFACE_AREA>
52.370000000000005

> <JCHEM_REFRACTIVITY>
33.7287

> <JCHEM_ROTATABLE_BOND_COUNT>
3

> <JCHEM_RULE_OF_FIVE>
1

> <ALOGPS_SOLUBILITY>
1.34e+01 g/l

> <JCHEM_TRADITIONAL_IUPAC>
tetrahydrofolic acid

> <JCHEM_VEBER_RULE>
0

> <DRUGBANK_ID>
DB13388

> <DRUG_GROUPS>
experimental

> <GENERIC_NAME>
Phenylmercuric nitrate

$$$$
