
  Mrv0541 05041409532D          

 30 32  0  0  1  0            999 V2000
   -2.3119   -5.4102    0.0000 C   0  0  0  0  0  0  0  0  0  0  0  0
   -2.3981   -4.5897    0.0000 C   0  0  0  0  0  0  0  0  0  0  0  0
   -1.7307   -4.1048    0.0000 C   0  0  0  0  0  0  0  0  0  0  0  0
   -0.5683   -1.4940    0.0000 C   0  0  0  0  0  0  0  0  0  0  0  0
    3.3523    1.1104    0.0000 C   0  0  0  0  0  0  0  0  0  0  0  0
    0.6538    1.5229    0.0000 C   0  0  0  0  0  0  0  0  0  0  0  0
    0.0992   -1.0091    0.0000 C   0  0  2  0  0  0  0  0  0  0  0  0
    1.9233    1.9354    0.0000 C   0  0  0  0  0  0  0  0  0  0  0  0
    0.8838   -1.2640    0.0000 C   0  0  2  0  0  0  0  0  0  0  0  0
    1.3687   -0.5966    0.0000 C   0  0  2  0  0  0  0  0  0  0  0  0
    2.6378    2.3479    0.0000 C   0  0  0  0  0  0  0  0  0  0  0  0
    1.9233    1.1104    0.0000 C   0  0  0  0  0  0  0  0  0  0  0  0
    0.8838    0.0709    0.0000 C   0  0  2  0  0  0  0  0  0  0  0  0
    2.6378    3.1729    0.0000 N   0  0  0  0  0  0  0  0  0  0  0  0
    3.3523    1.9354    0.0000 N   0  0  0  0  0  0  0  0  0  0  0  0
    2.6378    0.6979    0.0000 N   0  0  0  0  0  0  0  0  0  0  0  0
    1.1387    2.1904    0.0000 N   0  0  0  0  0  0  0  0  0  0  0  0
    1.1387    0.8555    0.0000 N   0  0  0  0  0  0  0  0  0  0  0  0
    1.1387   -2.0486    0.0000 O   0  0  0  0  0  0  0  0  0  0  0  0
    2.1937   -0.5966    0.0000 O   0  0  0  0  0  0  0  0  0  0  0  0
   -0.6646   -3.4668    0.0000 O   0  0  0  0  0  0  0  0  0  0  0  0
   -1.6344   -2.1319    0.0000 O   0  0  0  0  0  0  0  0  0  0  0  0
   -1.8169   -3.2843    0.0000 O   0  0  0  0  0  0  0  0  0  0  0  0
   -0.4820   -2.3145    0.0000 O   0  0  0  0  0  0  0  0  0  0  0  0
    0.0992   -0.1841    0.0000 O   0  0  0  0  0  0  0  0  0  0  0  0
   -1.1495   -2.7994    0.0000 P   0  0  0  0  0  0  0  0  0  0  0  0
    0.4991   -1.7306    0.0000 H   0  0  0  0  0  0  0  0  0  0  0  0
    0.5351   -2.0117    0.0000 H   0  0  0  0  0  0  0  0  0  0  0  0
    1.7432   -1.3316    0.0000 H   0  0  0  0  0  0  0  0  0  0  0  0
    1.6986    0.1999    0.0000 H   0  0  0  0  0  0  0  0  0  0  0  0
  2  1  1  0  0  0  0
  3  2  1  0  0  0  0
  7  4  1  1  0  0  0
  9  7  1  0  0  0  0
 10  9  1  0  0  0  0
 11  8  2  0  0  0  0
 12  8  1  0  0  0  0
 13 10  1  0  0  0  0
 14 11  1  0  0  0  0
 15  5  2  0  0  0  0
 15 11  1  0  0  0  0
 16  5  1  0  0  0  0
 16 12  2  0  0  0  0
 17  6  2  0  0  0  0
 17  8  1  0  0  0  0
 18  6  1  0  0  0  0
 18 12  1  0  0  0  0
 13 18  1  1  0  0  0
  9 19  1  6  0  0  0
 10 20  1  6  0  0  0
 23  3  1  0  0  0  0
 24  4  1  0  0  0  0
 25  7  1  0  0  0  0
 25 13  1  0  0  0  0
 26 21  1  0  0  0  0
 26 22  2  0  0  0  0
 26 23  1  0  0  0  0
 26 24  1  0  0  0  0
  7 27  1  6  0  0  0
  9 28  1  1  0  0  0
 10 29  1  1  0  0  0
 13 30  1  6  0  0  0
M  END
> <DATABASE_ID>
DB03230

> <DATABASE_NAME>
drugbank

> <SMILES>
[H][C@]1(COP(O)(=O)OCCC)O[C@@]([H])(N2C=NC3=C(N)N=CN=C23)[C@]([H])(O)[C@]1([H])O

> <INCHI_IDENTIFIER>
InChI=1S/C13H20N5O7P/c1-2-3-23-26(21,22)24-4-7-9(19)10(20)13(25-7)18-6-17-8-11(14)15-5-16-12(8)18/h5-7,9-10,13,19-20H,2-4H2,1H3,(H,21,22)(H2,14,15,16)/t7-,9-,10-,13-/m1/s1

> <INCHI_KEY>
XAMXMSZRQHPMRX-QYVSTXNMSA-N

> <FORMULA>
C13H20N5O7P

> <MOLECULAR_WEIGHT>
389.301

> <EXACT_MASS>
389.110034531

> <JCHEM_ACCEPTOR_COUNT>
9

> <JCHEM_ATOM_COUNT>
46

> <JCHEM_AVERAGE_NEUTRAL_MICROSPECIES_CHARGE>
-0.9917632502226013

> <JCHEM_AVERAGE_POLARIZABILITY>
35.44961026748676

> <JCHEM_BIOAVAILABILITY>
1

> <JCHEM_DONOR_COUNT>
4

> <JCHEM_FORMAL_CHARGE>
0

> <JCHEM_GHOSE_FILTER>
0

> <JCHEM_IUPAC>
{[(2R,3S,4R,5R)-5-(6-amino-9H-purin-9-yl)-3,4-dihydroxyoxolan-2-yl]methoxy}(propoxy)phosphinic acid

> <ALOGPS_LOGP>
-2.41

> <JCHEM_LOGP>
-2.9731702679649983

> <ALOGPS_LOGS>
-2.12

> <JCHEM_MDDR_LIKE_RULE>
1

> <JCHEM_NEUTRAL_CHARGE>
-1

> <JCHEM_NUMBER_OF_RINGS>
3

> <JCHEM_PHYSIOLOGICAL_CHARGE>
-1

> <JCHEM_PKA>
12.457192437145252

> <JCHEM_PKA_STRONGEST_ACIDIC>
1.912270417586781

> <JCHEM_PKA_STRONGEST_BASIC>
3.9428639213912606

> <JCHEM_POLAR_SURFACE_AREA>
175.06999999999996

> <JCHEM_REFRACTIVITY>
87.82339999999999

> <JCHEM_ROTATABLE_BOND_COUNT>
7

> <JCHEM_RULE_OF_FIVE>
1

> <ALOGPS_SOLUBILITY>
2.98e+00 g/l

> <JCHEM_TRADITIONAL_IUPAC>
tetrahydrofolic acid

> <JCHEM_VEBER_RULE>
0

> <DRUGBANK_ID>
DB03230

> <SECONDARY_ACCESSION_NUMBERS>
EXPT02666

> <DRUG_GROUPS>
experimental

> <GENERIC_NAME>
Adenosine-5'-Propylphosphate

$$$$
