
  Mrv0541 05041403152D          

 26 28  0  0  0  0            999 V2000
    8.5737    3.3000    0.0000 C   0  0  0  0  0  0  0  0  0  0  0  0
    5.0013   -0.4125    0.0000 C   0  0  0  0  0  0  0  0  0  0  0  0
    5.0013    0.4125    0.0000 C   0  0  0  0  0  0  0  0  0  0  0  0
    1.4289    0.8250    0.0000 C   0  0  0  0  0  0  0  0  0  0  0  0
    2.1434   -0.4125    0.0000 C   0  0  0  0  0  0  0  0  0  0  0  0
    0.7145    0.4125    0.0000 C   0  0  0  0  0  0  0  0  0  0  0  0
    1.4289   -0.8250    0.0000 C   0  0  0  0  0  0  0  0  0  0  0  0
    6.4302    3.7125    0.0000 C   0  0  0  0  0  0  0  0  0  0  0  0
    7.1447    2.4750    0.0000 C   0  0  0  0  0  0  0  0  0  0  0  0
    5.7158    3.3000    0.0000 C   0  0  0  0  0  0  0  0  0  0  0  0
    6.4302    2.0625    0.0000 C   0  0  0  0  0  0  0  0  0  0  0  0
    4.2868   -0.8250    0.0000 C   0  0  0  0  0  0  0  0  0  0  0  0
    2.1434    0.4125    0.0000 C   0  0  0  0  0  0  0  0  0  0  0  0
    0.7145   -0.4125    0.0000 C   0  0  0  0  0  0  0  0  0  0  0  0
    7.1447    3.3000    0.0000 C   0  0  0  0  0  0  0  0  0  0  0  0
    5.7158    2.4750    0.0000 C   0  0  0  0  0  0  0  0  0  0  0  0
    4.2868    0.8250    0.0000 C   0  0  0  0  0  0  0  0  0  0  0  0
    3.5724    0.4125    0.0000 C   0  0  0  0  0  0  0  0  0  0  0  0
    3.5724   -0.4125    0.0000 N   0  0  0  0  0  0  0  0  0  0  0  0
    2.8579    0.8250    0.0000 N   0  0  0  0  0  0  0  0  0  0  0  0
    4.2868    1.6500    0.0000 N   0  0  0  0  0  0  0  0  0  0  0  0
    0.0000   -0.8250    0.0000 O   0  0  0  0  0  0  0  0  0  0  0  0
    4.5888    2.7770    0.0000 O   0  0  0  0  0  0  0  0  0  0  0  0
    5.4138    1.3480    0.0000 O   0  0  0  0  0  0  0  0  0  0  0  0
    7.8592    3.7125    0.0000 O   0  0  0  0  0  0  0  0  0  0  0  0
    5.0013    2.0625    0.0000 S   0  0  0  0  0  0  0  0  0  0  0  0
  3  2  2  0  0  0  0
  6  4  1  0  0  0  0
  7  5  2  0  0  0  0
 10  8  1  0  0  0  0
 11  9  2  0  0  0  0
 12  2  1  0  0  0  0
 13  4  2  0  0  0  0
 13  5  1  0  0  0  0
 14  6  2  0  0  0  0
 14  7  1  0  0  0  0
 15  8  2  0  0  0  0
 15  9  1  0  0  0  0
 16 10  2  0  0  0  0
 16 11  1  0  0  0  0
 17  3  1  0  0  0  0
 18 17  2  0  0  0  0
 19 12  2  0  0  0  0
 19 18  1  0  0  0  0
 20 13  1  0  0  0  0
 20 18  1  0  0  0  0
 21 17  1  0  0  0  0
 22 14  1  0  0  0  0
 25  1  1  0  0  0  0
 25 15  1  0  0  0  0
 26 16  1  0  0  0  0
 26 21  1  0  0  0  0
 26 23  2  0  0  0  0
 26 24  2  0  0  0  0
M  END
> <DATABASE_ID>
DB12254

> <DATABASE_NAME>
drugbank

> <SMILES>
COC1=CC=C(C=C1)S(=O)(=O)NC1=C(NC2=CC=C(O)C=C2)N=CC=C1

> <INCHI_IDENTIFIER>
InChI=1S/C18H17N3O4S/c1-25-15-8-10-16(11-9-15)26(23,24)21-17-3-2-12-19-18(17)20-13-4-6-14(22)7-5-13/h2-12,21-22H,1H3,(H,19,20)

> <INCHI_KEY>
URCVCIZFVQDVPM-UHFFFAOYSA-N

> <FORMULA>
C18H17N3O4S

> <MOLECULAR_WEIGHT>
371.41

> <EXACT_MASS>
371.093976737

> <JCHEM_ACCEPTOR_COUNT>
6

> <JCHEM_ATOM_COUNT>
43

> <JCHEM_AVERAGE_NEUTRAL_MICROSPECIES_CHARGE>
-0.3825687177723352

> <JCHEM_AVERAGE_POLARIZABILITY>
38.292132351871516

> <JCHEM_BIOAVAILABILITY>
1

> <JCHEM_DONOR_COUNT>
3

> <JCHEM_FORMAL_CHARGE>
0

> <JCHEM_GHOSE_FILTER>
1

> <JCHEM_IUPAC>
N-{2-[(4-hydroxyphenyl)amino]pyridin-3-yl}-4-methoxybenzene-1-sulfonamide

> <ALOGPS_LOGP>
3.40

> <JCHEM_LOGP>
2.816385391

> <ALOGPS_LOGS>
-4.06

> <JCHEM_MDDR_LIKE_RULE>
0

> <JCHEM_NEUTRAL_CHARGE>
0

> <JCHEM_NUMBER_OF_RINGS>
3

> <JCHEM_PHYSIOLOGICAL_CHARGE>
-1

> <JCHEM_PKA>
10.338093933910713

> <JCHEM_PKA_STRONGEST_ACIDIC>
7.208589371971084

> <JCHEM_PKA_STRONGEST_BASIC>
4.226512239633035

> <JCHEM_POLAR_SURFACE_AREA>
100.55

> <JCHEM_REFRACTIVITY>
97.97710000000001

> <JCHEM_ROTATABLE_BOND_COUNT>
5

> <JCHEM_RULE_OF_FIVE>
1

> <ALOGPS_SOLUBILITY>
3.23e-02 g/l

> <JCHEM_TRADITIONAL_IUPAC>
tetrahydrofolic acid

> <JCHEM_VEBER_RULE>
0

> <DRUGBANK_ID>
DB12254

> <DRUG_GROUPS>
investigational

> <GENERIC_NAME>
ABT-751

> <SYNONYMS>
N-[2-(4-hydroxyanilino)pyridin-3-yl]-4-methoxybenzenesulfonamide

$$$$
