
  Mrv0541 02231217232D          

  9  8  0  0  1  0            999 V2000
    1.9520    1.9520    0.0000 C   0  0  0  0  0  0  0  0  0  0  0  0
    1.9520    1.1270    0.0000 C   0  0  1  0  0  0  0  0  0  0  0  0
    1.2375    0.7145    0.0000 N   0  0  0  0  0  0  0  0  0  0  0  0
    0.5230    1.1270    0.0000 C   0  0  0  0  0  0  0  0  0  0  0  0
   -0.1914    0.7145    0.0000 N   0  0  0  0  0  0  0  0  0  0  0  0
    0.5230    1.9520    0.0000 O   0  0  0  0  0  0  0  0  0  0  0  0
    2.6664    0.7145    0.0000 C   0  0  0  0  0  0  0  0  0  0  0  0
    3.3809    1.1270    0.0000 O   0  0  0  0  0  0  0  0  0  0  0  0
    2.6664   -0.1105    0.0000 O   0  0  0  0  0  0  0  0  0  0  0  0
  2  1  1  6  0  0  0
  2  3  1  0  0  0  0
  3  4  1  0  0  0  0
  4  5  1  0  0  0  0
  4  6  2  0  0  0  0
  2  7  1  0  0  0  0
  7  8  1  0  0  0  0
  7  9  2  0  0  0  0
M  END
> <DATABASE_ID>
DB04048

> <DATABASE_NAME>
drugbank

> <SMILES>
C[C@@H](NC(N)=O)C(O)=O

> <INCHI_IDENTIFIER>
InChI=1S/C4H8N2O3/c1-2(3(7)8)6-4(5)9/h2H,1H3,(H,7,8)(H3,5,6,9)/t2-/m1/s1

> <INCHI_KEY>
LUSWEUMSEVLFEQ-UWTATZPHSA-N

> <FORMULA>
C4H8N2O3

> <MOLECULAR_WEIGHT>
132.1179

> <EXACT_MASS>
132.053492132

> <JCHEM_ACCEPTOR_COUNT>
3

> <JCHEM_ATOM_COUNT>
17

> <JCHEM_AVERAGE_NEUTRAL_MICROSPECIES_CHARGE>
-0.9994052266386981

> <JCHEM_AVERAGE_POLARIZABILITY>
11.872959246023452

> <JCHEM_BIOAVAILABILITY>
1

> <JCHEM_DONOR_COUNT>
3

> <JCHEM_FORMAL_CHARGE>
0

> <JCHEM_GHOSE_FILTER>
0

> <JCHEM_IUPAC>
(2R)-2-(carbamoylamino)propanoic acid

> <ALOGPS_LOGP>
-1.17

> <JCHEM_LOGP>
-1.0934102453333332

> <ALOGPS_LOGS>
-0.35

> <JCHEM_MDDR_LIKE_RULE>
0

> <JCHEM_NEUTRAL_CHARGE>
-1

> <JCHEM_NUMBER_OF_RINGS>
0

> <JCHEM_PHYSIOLOGICAL_CHARGE>
-1

> <JCHEM_PKA>
15.019647638153609

> <JCHEM_PKA_STRONGEST_ACIDIC>
3.774616853492188

> <JCHEM_PKA_STRONGEST_BASIC>
-2.5552078650871226

> <JCHEM_POLAR_SURFACE_AREA>
92.41999999999999

> <JCHEM_REFRACTIVITY>
28.617800000000006

> <JCHEM_ROTATABLE_BOND_COUNT>
2

> <JCHEM_RULE_OF_FIVE>
1

> <ALOGPS_SOLUBILITY>
5.90e+01 g/l

> <JCHEM_TRADITIONAL_IUPAC>
tetrahydrofolic acid

> <JCHEM_VEBER_RULE>
0

> <DRUGBANK_ID>
DB04048

> <SECONDARY_ACCESSION_NUMBERS>
EXPT02308

> <DRUG_GROUPS>
experimental

> <GENERIC_NAME>
N-Carbamoyl-Alanine

$$$$
