
  Mrv0541 02231216282D          

 27 26  0  0  1  0            999 V2000
   -1.8118    5.1711    0.0000 C   0  0  0  0  0  0  0  0  0  0  0  0
   -1.0974    4.7586    0.0000 C   0  0  0  0  0  0  0  0  0  0  0  0
   -0.3829    5.1711    0.0000 C   0  0  0  0  0  0  0  0  0  0  0  0
   -1.0974    3.9336    0.0000 C   0  0  0  0  0  0  0  0  0  0  0  0
   -0.3829    3.5211    0.0000 C   0  0  0  0  0  0  0  0  0  0  0  0
   -0.3829    2.6961    0.0000 C   0  0  0  0  0  0  0  0  0  0  0  0
    0.3316    2.2836    0.0000 C   0  0  0  0  0  0  0  0  0  0  0  0
    1.0461    2.6961    0.0000 C   0  0  0  0  0  0  0  0  0  0  0  0
    0.3316    1.4586    0.0000 C   0  0  0  0  0  0  0  0  0  0  0  0
    1.0461    1.0461    0.0000 C   0  0  0  0  0  0  0  0  0  0  0  0
    1.0461    0.2211    0.0000 C   0  0  0  0  0  0  0  0  0  0  0  0
    1.7605   -0.1914    0.0000 C   0  0  0  0  0  0  0  0  0  0  0  0
    1.7605   -1.0164    0.0000 C   0  0  0  0  0  0  0  0  0  0  0  0
    2.4750   -1.4289    0.0000 C   0  0  0  0  0  0  0  0  0  0  0  0
    3.1895   -1.0164    0.0000 O   0  0  0  0  0  0  0  0  0  0  0  0
    3.9039   -1.4289    0.0000 P   0  0  2  0  0  0  0  0  0  0  0  0
    3.4914   -2.1434    0.0000 O   0  0  0  0  0  0  0  0  0  0  0  0
    4.3164   -0.7145    0.0000 O   0  0  0  0  0  0  0  0  0  0  0  0
    4.6184   -1.8414    0.0000 O   0  0  0  0  0  0  0  0  0  0  0  0
    5.3329   -1.4289    0.0000 P   0  0  0  0  0  0  0  0  0  0  0  0
    6.0474   -1.0164    0.0000 O   0  0  0  0  0  0  0  0  0  0  0  0
    5.7454   -2.1434    0.0000 O   0  0  0  0  0  0  0  0  0  0  0  0
    4.9204   -0.7145    0.0000 O   0  0  0  0  0  0  0  0  0  0  0  0
    2.4750    0.2211    0.0000 C   0  0  0  0  0  0  0  0  0  0  0  0
    3.1895    0.6336    0.0000 F   0  0  0  0  0  0  0  0  0  0  0  0
    2.8875   -0.4934    0.0000 F   0  0  0  0  0  0  0  0  0  0  0  0
    2.0625    0.9355    0.0000 F   0  0  0  0  0  0  0  0  0  0  0  0
  1  2  1  0  0  0  0
  2  3  1  0  0  0  0
  2  4  2  0  0  0  0
  4  5  1  0  0  0  0
  5  6  1  0  0  0  0
  6  7  1  0  0  0  0
  7  8  1  0  0  0  0
  7  9  2  0  0  0  0
  9 10  1  0  0  0  0
 10 11  1  0  0  0  0
 11 12  1  0  0  0  0
 12 13  2  0  0  0  0
 13 14  1  0  0  0  0
 14 15  1  0  0  0  0
 16 15  1  6  0  0  0
 16 17  1  1  0  0  0
 16 18  2  0  0  0  0
 16 19  1  0  0  0  0
 19 20  1  0  0  0  0
 20 21  1  0  0  0  0
 20 22  1  0  0  0  0
 20 23  2  0  0  0  0
 12 24  1  0  0  0  0
 24 25  1  0  0  0  0
 24 26  1  0  0  0  0
 24 27  1  0  0  0  0
M  END
> <DATABASE_ID>
DB02808

> <DATABASE_NAME>
drugbank

> <SMILES>
CC(C)=CCC\C(C)=C\CC\C(=C\CO[P@@](=O)(O)OP(O)(O)=O)C(F)(F)F

> <INCHI_IDENTIFIER>
InChI=1S/C15H25F3O7P2/c1-12(2)6-4-7-13(3)8-5-9-14(15(16,17)18)10-11-24-27(22,23)25-26(19,20)21/h6,8,10H,4-5,7,9,11H2,1-3H3,(H,22,23)(H2,19,20,21)/b13-8+,14-10-

> <INCHI_KEY>
PXLMLAFPAPGGKK-GVCYOOEQSA-N

> <FORMULA>
C15H25F3O7P2

> <MOLECULAR_WEIGHT>
436.2975

> <EXACT_MASS>
436.102760793

> <JCHEM_ACCEPTOR_COUNT>
5

> <JCHEM_ATOM_COUNT>
52

> <JCHEM_AVERAGE_NEUTRAL_MICROSPECIES_CHARGE>
-2.430134109953281

> <JCHEM_AVERAGE_POLARIZABILITY>
38.80239127906465

> <JCHEM_BIOAVAILABILITY>
1

> <JCHEM_DONOR_COUNT>
3

> <JCHEM_FORMAL_CHARGE>
0

> <JCHEM_GHOSE_FILTER>
1

> <JCHEM_IUPAC>
[({[(2Z,6E)-7,11-dimethyl-3-(trifluoromethyl)dodeca-2,6,10-trien-1-yl]oxy}(hydroxy)phosphoryl)oxy]phosphonic acid

> <ALOGPS_LOGP>
2.95

> <JCHEM_LOGP>
3.981160153000001

> <ALOGPS_LOGS>
-3.69

> <JCHEM_MDDR_LIKE_RULE>
0

> <JCHEM_NEUTRAL_CHARGE>
-2

> <JCHEM_NUMBER_OF_RINGS>
0

> <JCHEM_PHYSIOLOGICAL_CHARGE>
-3

> <JCHEM_PKA>
3.204320120976337

> <JCHEM_PKA_STRONGEST_ACIDIC>
1.7672038558888294

> <JCHEM_POLAR_SURFACE_AREA>
113.29000000000002

> <JCHEM_REFRACTIVITY>
97.663

> <JCHEM_ROTATABLE_BOND_COUNT>
12

> <JCHEM_RULE_OF_FIVE>
1

> <ALOGPS_SOLUBILITY>
8.96e-02 g/l

> <JCHEM_TRADITIONAL_IUPAC>
biotin

> <JCHEM_VEBER_RULE>
0

> <DRUGBANK_ID>
DB02808

> <SECONDARY_ACCESSION_NUMBERS>
EXPT01427

> <DRUG_GROUPS>
experimental

> <GENERIC_NAME>
Trifluorofurnesyl Diphosphate

$$$$
