
  Mrv0541 09131211472D          

 24 26  0  0  0  0            999 V2000
    6.2140    1.2111    0.0000 C   0  0  0  0  0  0  0  0  0  0  0  0
   -0.2701    2.5701    0.0000 C   0  0  0  0  0  0  0  0  0  0  0  0
    0.8839   -0.9817    0.0000 C   0  0  0  0  0  0  0  0  0  0  0  0
   -0.0986    1.7631    0.0000 C   0  0  0  0  0  0  0  0  0  0  0  0
    0.3430    3.1221    0.0000 C   0  0  0  0  0  0  0  0  0  0  0  0
    1.7044   -1.0679    0.0000 C   0  0  0  0  0  0  0  0  0  0  0  0
    0.5484   -0.2280    0.0000 C   0  0  0  0  0  0  0  0  0  0  0  0
    0.6860    1.5082    0.0000 C   0  0  0  0  0  0  0  0  0  0  0  0
    1.1276    2.8672    0.0000 C   0  0  0  0  0  0  0  0  0  0  0  0
    2.1893   -0.4005    0.0000 C   0  0  0  0  0  0  0  0  0  0  0  0
    1.0333    0.4394    0.0000 C   0  0  0  0  0  0  0  0  0  0  0  0
    4.8163    1.5082    0.0000 C   0  0  0  0  0  0  0  0  0  0  0  0
    4.2032    2.0602    0.0000 C   0  0  0  0  0  0  0  0  0  0  0  0
    5.6010    1.7631    0.0000 C   0  0  0  0  0  0  0  0  0  0  0  0
    1.2991    2.0602    0.0000 C   0  0  0  0  0  0  0  0  0  0  0  0
    1.8538    0.3532    0.0000 C   0  0  0  0  0  0  0  0  0  0  0  0
    3.4186    1.8053    0.0000 C   0  0  0  0  0  0  0  0  0  0  0  0
    2.7512    2.2902    0.0000 C   0  0  0  0  0  0  0  0  0  0  0  0
    3.1637    1.0206    0.0000 C   0  0  0  0  0  0  0  0  0  0  0  0
    2.0837    1.8053    0.0000 N   0  0  0  0  0  0  0  0  0  0  0  0
    2.3387    1.0206    0.0000 N   0  0  0  0  0  0  0  0  0  0  0  0
    5.7725    2.5701    0.0000 O   0  0  0  0  0  0  0  0  0  0  0  0
    2.7512    3.1152    0.0000 O   0  0  0  0  0  0  0  0  0  0  0  0
    3.6486    0.3532    0.0000 O   0  0  0  0  0  0  0  0  0  0  0  0
  4  2  2  0  0  0  0
  5  2  1  0  0  0  0
  6  3  2  0  0  0  0
  7  3  1  0  0  0  0
  8  4  1  0  0  0  0
  9  5  2  0  0  0  0
 10  6  1  0  0  0  0
 11  7  2  0  0  0  0
 13 12  1  0  0  0  0
 14  1  1  0  0  0  0
 14 12  1  0  0  0  0
 15  8  2  0  0  0  0
 15  9  1  0  0  0  0
 16 10  2  0  0  0  0
 16 11  1  0  0  0  0
 17 13  1  0  0  0  0
 18 17  1  0  0  0  0
 19 17  1  0  0  0  0
 20 15  1  0  0  0  0
 20 18  1  0  0  0  0
 21 16  1  0  0  0  0
 21 19  1  0  0  0  0
 21 20  1  0  0  0  0
 22 14  2  0  0  0  0
 23 18  2  0  0  0  0
 24 19  2  0  0  0  0
M  END
> <DATABASE_ID>
DB08940

> <DATABASE_NAME>
drugbank

> <SMILES>
CC(=O)CCC1C(=O)N(N(C1=O)C1=CC=CC=C1)C1=CC=CC=C1

> <INCHI_IDENTIFIER>
InChI=1S/C19H18N2O3/c1-14(22)12-13-17-18(23)20(15-8-4-2-5-9-15)21(19(17)24)16-10-6-3-7-11-16/h2-11,17H,12-13H2,1H3

> <INCHI_KEY>
LGYTZKPVOAIUKX-UHFFFAOYSA-N

> <FORMULA>
C19H18N2O3

> <MOLECULAR_WEIGHT>
322.3578

> <EXACT_MASS>
322.131742452

> <JCHEM_ACCEPTOR_COUNT>
3

> <JCHEM_ATOM_COUNT>
42

> <JCHEM_AVERAGE_NEUTRAL_MICROSPECIES_CHARGE>
-0.9963103503606866

> <JCHEM_AVERAGE_POLARIZABILITY>
33.64442141286797

> <JCHEM_BIOAVAILABILITY>
1

> <JCHEM_DONOR_COUNT>
0

> <JCHEM_FORMAL_CHARGE>
0

> <JCHEM_GHOSE_FILTER>
1

> <JCHEM_IUPAC>
4-(3-oxobutyl)-1,2-diphenylpyrazolidine-3,5-dione

> <ALOGPS_LOGP>
1.99

> <JCHEM_LOGP>
2.700612858333333

> <ALOGPS_LOGS>
-3.45

> <JCHEM_MDDR_LIKE_RULE>
0

> <JCHEM_NEUTRAL_CHARGE>
-1

> <JCHEM_NUMBER_OF_RINGS>
3

> <JCHEM_PHYSIOLOGICAL_CHARGE>
-1

> <JCHEM_PKA>
19.733160862650944

> <JCHEM_PKA_STRONGEST_ACIDIC>
4.5685904864336155

> <JCHEM_PKA_STRONGEST_BASIC>
-7.271719184487527

> <JCHEM_POLAR_SURFACE_AREA>
57.690000000000005

> <JCHEM_REFRACTIVITY>
89.37379999999999

> <JCHEM_ROTATABLE_BOND_COUNT>
5

> <JCHEM_RULE_OF_FIVE>
1

> <ALOGPS_SOLUBILITY>
1.13e-01 g/l

> <JCHEM_TRADITIONAL_IUPAC>
tetrahydrofolic acid

> <JCHEM_VEBER_RULE>
0

> <DRUGBANK_ID>
DB08940

> <DRUG_GROUPS>
experimental

> <GENERIC_NAME>
Kebuzone

> <SYNONYMS>
Kebuzone; ketophenylbutazone; quebuzona

$$$$
