
  Mrv0541 02231216492D          

 49 53  0  0  1  0            999 V2000
   -0.6248  -12.1480    0.0000 N   0  0  0  0  0  0  0  0  0  0  0  0
   -0.1755  -11.4562    0.0000 C   0  0  0  0  0  0  0  0  0  0  0  0
    0.6484  -11.4994    0.0000 O   0  0  0  0  0  0  0  0  0  0  0  0
   -0.5569  -10.7074    0.0000 C   0  0  0  0  0  0  0  0  0  0  0  0
   -1.0189   -9.9719    0.0000 C   0  0  2  0  0  0  0  0  0  0  0  0
   -1.3048  -10.7458    0.0000 N   0  0  0  0  0  0  0  0  0  0  0  0
   -2.1292  -10.7130    0.0000 C   0  0  0  0  0  0  0  0  0  0  0  0
   -2.8698  -10.7785    0.0000 O   0  0  0  0  0  0  0  0  0  0  0  0
   -2.3527   -9.9188    0.0000 C   0  0  2  0  0  0  0  0  0  0  0  0
   -1.7904  -10.5225    0.0000 C   0  0  0  0  0  0  0  0  0  0  0  0
   -2.0320  -11.3113    0.0000 C   0  0  0  0  0  0  0  0  0  0  0  0
   -2.8360  -11.4964    0.0000 C   0  0  0  0  0  0  0  0  0  0  0  0
   -3.3983  -10.8928    0.0000 C   0  0  0  0  0  0  0  0  0  0  0  0
   -3.1566  -10.1039    0.0000 C   0  0  0  0  0  0  0  0  0  0  0  0
   -3.0943   -9.4040    0.0000 N   0  0  0  0  0  0  0  0  0  0  0  0
   -3.0615   -8.5796    0.0000 C   0  0  0  0  0  0  0  0  0  0  0  0
   -2.2109   -8.4816    0.0000 O   0  0  0  0  0  0  0  0  0  0  0  0
   -3.7590   -8.1390    0.0000 C   0  0  0  0  0  0  0  0  0  0  0  0
   -3.7262   -7.3147    0.0000 C   0  0  2  0  0  0  0  0  0  0  0  0
   -2.9958   -6.9309    0.0000 C   0  0  0  0  0  0  0  0  0  0  0  0
   -2.2983   -7.3715    0.0000 C   0  0  0  0  0  0  0  0  0  0  0  0
   -1.5680   -6.9878    0.0000 C   0  0  0  0  0  0  0  0  0  0  0  0
   -0.8705   -7.4284    0.0000 C   0  0  2  0  0  0  0  0  0  0  0  0
   -0.9034   -8.2527    0.0000 C   0  0  0  0  0  0  0  0  0  0  0  0
   -0.2059   -8.6933    0.0000 N   0  0  0  0  0  0  0  0  0  0  0  0
   -0.2387   -9.5177    0.0000 C   0  0  0  0  0  0  0  0  0  0  0  0
    0.5775   -9.7215    0.0000 O   0  0  0  0  0  0  0  0  0  0  0  0
   -0.1074   -7.0281    0.0000 C   0  0  0  0  0  0  0  0  0  0  0  0
   -0.1074   -6.2203    0.0000 C   0  0  0  0  0  0  0  0  0  0  0  0
   -0.8219   -5.8078    0.0000 C   0  0  0  0  0  0  0  0  0  0  0  0
   -0.8219   -4.9828    0.0000 C   0  0  0  0  0  0  0  0  0  0  0  0
   -0.1074   -4.5703    0.0000 C   0  0  0  0  0  0  0  0  0  0  0  0
    0.6071   -4.9828    0.0000 C   0  0  0  0  0  0  0  0  0  0  0  0
    1.3215   -4.5703    0.0000 C   0  0  0  0  0  0  0  0  0  0  0  0
    2.0360   -4.9828    0.0000 C   0  0  0  0  0  0  0  0  0  0  0  0
    2.0360   -5.8078    0.0000 C   0  0  0  0  0  0  0  0  0  0  0  0
    1.3215   -6.2203    0.0000 C   0  0  0  0  0  0  0  0  0  0  0  0
    0.6071   -5.8078    0.0000 C   0  0  0  0  0  0  0  0  0  0  0  0
   -4.4237   -6.8741    0.0000 C   0  0  0  0  0  0  0  0  0  0  0  0
   -5.1540   -7.2578    0.0000 C   0  0  0  0  0  0  0  0  0  0  0  0
   -5.8515   -6.8172    0.0000 C   0  0  0  0  0  0  0  0  0  0  0  0
   -5.8186   -5.9929    0.0000 C   0  0  0  0  0  0  0  0  0  0  0  0
   -6.5161   -5.5523    0.0000 C   0  0  0  0  0  0  0  0  0  0  0  0
   -7.2465   -5.9361    0.0000 P   0  0  0  0  0  0  0  0  0  0  0  0
   -7.9768   -6.3198    0.0000 O   0  0  0  0  0  0  0  0  0  0  0  0
   -7.6302   -5.2057    0.0000 O   0  0  0  0  0  0  0  0  0  0  0  0
   -6.8627   -6.6664    0.0000 O   0  0  0  0  0  0  0  0  0  0  0  0
   -5.0883   -5.6091    0.0000 C   0  0  0  0  0  0  0  0  0  0  0  0
   -4.3908   -6.0497    0.0000 C   0  0  0  0  0  0  0  0  0  0  0  0
  1  2  1  0  0  0  0
  2  3  2  0  0  0  0
  2  4  1  0  0  0  0
  5  4  1  1  0  0  0
  5  6  1  0  0  0  0
  6  7  1  0  0  0  0
  7  8  2  0  0  0  0
  7  9  1  0  0  0  0
  9 10  1  0  0  0  0
 10 11  1  0  0  0  0
 11 12  1  0  0  0  0
 12 13  1  0  0  0  0
 13 14  1  0  0  0  0
  9 14  1  1  0  0  0
  9 15  1  0  0  0  0
 15 16  1  0  0  0  0
 16 17  2  0  0  0  0
 16 18  1  0  0  0  0
 18 19  1  0  0  0  0
 19 20  1  0  0  0  0
 20 21  2  0  0  0  0
 21 22  1  0  0  0  0
 22 23  1  0  0  0  0
 23 24  1  0  0  0  0
 24 25  1  0  0  0  0
 25 26  1  0  0  0  0
  5 26  1  0  0  0  0
 26 27  2  0  0  0  0
 23 28  1  1  0  0  0
 28 29  1  0  0  0  0
 29 30  2  0  0  0  0
 30 31  1  0  0  0  0
 31 32  2  0  0  0  0
 32 33  1  0  0  0  0
 33 34  2  0  0  0  0
 34 35  1  0  0  0  0
 35 36  2  0  0  0  0
 36 37  1  0  0  0  0
 37 38  2  0  0  0  0
 29 38  1  0  0  0  0
 33 38  1  0  0  0  0
 19 39  1  1  0  0  0
 39 40  2  0  0  0  0
 40 41  1  0  0  0  0
 41 42  2  0  0  0  0
 42 43  1  0  0  0  0
 43 44  1  0  0  0  0
 44 45  1  0  0  0  0
 44 46  1  0  0  0  0
 44 47  2  0  0  0  0
 42 48  1  0  0  0  0
 48 49  2  0  0  0  0
 39 49  1  0  0  0  0
M  END
> <DATABASE_ID>
DB03276

> <DATABASE_NAME>
drugbank

> <SMILES>
NC(=O)C[C@@H]1NC(=O)C2(CCCCC2)NC(=O)C[C@H](\C=C\C[C@H](CNC1=O)CC1=CC=CC2=CC=CC=C12)C1=CC=C(C=C1)CP(O)(O)=O

> <INCHI_IDENTIFIER>
InChI=1S/C37H45N4O7P/c38-33(42)22-32-35(44)39-23-26(20-30-12-7-10-28-9-2-3-13-31(28)30)8-6-11-29(27-16-14-25(15-17-27)24-49(46,47)48)21-34(43)41-37(36(45)40-32)18-4-1-5-19-37/h2-3,6-7,9-17,26,29,32H,1,4-5,8,18-24H2,(H2,38,42)(H,39,44)(H,40,45)(H,41,43)(H2,46,47,48)/b11-6+/t26-,29-,32-/m0/s1

> <INCHI_KEY>
RHYFMOCFCFUTNH-GZNVFMSSSA-N

> <FORMULA>
C37H45N4O7P

> <MOLECULAR_WEIGHT>
688.7496

> <EXACT_MASS>
688.302586326

> <JCHEM_ACCEPTOR_COUNT>
7

> <JCHEM_ATOM_COUNT>
94

> <JCHEM_AVERAGE_NEUTRAL_MICROSPECIES_CHARGE>
-1.1059639588084236

> <JCHEM_AVERAGE_POLARIZABILITY>
70.12720086653754

> <JCHEM_BIOAVAILABILITY>
0

> <JCHEM_DONOR_COUNT>
6

> <JCHEM_FORMAL_CHARGE>
0

> <JCHEM_GHOSE_FILTER>
0

> <JCHEM_IUPAC>
({4-[(10R,11E,14S,18S)-18-(carbamoylmethyl)-14-[(naphthalen-1-yl)methyl]-8,17,20-trioxo-7,16,19-triazaspiro[5.14]icos-11-en-10-yl]phenyl}methyl)phosphonic acid

> <ALOGPS_LOGP>
2.54

> <JCHEM_LOGP>
2.5796857103333326

> <ALOGPS_LOGS>
-5.92

> <JCHEM_MDDR_LIKE_RULE>
1

> <JCHEM_NEUTRAL_CHARGE>
-1

> <JCHEM_NUMBER_OF_RINGS>
5

> <JCHEM_PHYSIOLOGICAL_CHARGE>
-1

> <JCHEM_PKA>
8.227323521595094

> <JCHEM_PKA_STRONGEST_ACIDIC>
1.7343551261055408

> <JCHEM_PKA_STRONGEST_BASIC>
-0.9420835776804517

> <JCHEM_POLAR_SURFACE_AREA>
187.91999999999996

> <JCHEM_REFRACTIVITY>
186.90879999999996

> <JCHEM_ROTATABLE_BOND_COUNT>
7

> <JCHEM_RULE_OF_FIVE>
0

> <ALOGPS_SOLUBILITY>
8.25e-04 g/l

> <JCHEM_TRADITIONAL_IUPAC>
biotin

> <JCHEM_VEBER_RULE>
0

> <DRUGBANK_ID>
DB03276

> <SECONDARY_ACCESSION_NUMBERS>
EXPT01283

> <DRUG_GROUPS>
experimental

> <GENERIC_NAME>
4-[(10s,14s,18s)-18-(2-Amino-2-Oxoethyl)-14-(1-Naphthylmethyl)-8,17,20-Trioxo-7,16,19-Triazaspiro[5.14]Icos-11-En-10-Yl]Benzylphosphonic Acid

$$$$
