
  Mrv0541 02231217522D          

 16 16  0  0  1  0            999 V2000
    2.8579   -1.6500    0.0000 N   0  0  0  0  0  0  0  0  0  0  0  0
    2.1434   -1.2375    0.0000 C   0  0  0  0  0  0  0  0  0  0  0  0
    1.4289   -1.6500    0.0000 N   0  0  0  0  0  0  0  0  0  0  0  0
    2.1434   -0.4125    0.0000 N   0  0  0  0  0  0  0  0  0  0  0  0
    1.4289    0.0000    0.0000 C   0  0  0  0  0  0  0  0  0  0  0  0
    0.7145   -0.4125    0.0000 C   0  0  0  0  0  0  0  0  0  0  0  0
    0.0000    0.0000    0.0000 C   0  0  0  0  0  0  0  0  0  0  0  0
    0.0000    0.8250    0.0000 C   0  0  0  0  0  0  0  0  0  0  0  0
    0.7145    1.2375    0.0000 C   0  0  0  0  0  0  0  0  0  0  0  0
    1.4289    0.8250    0.0000 C   0  0  0  0  0  0  0  0  0  0  0  0
    0.7145    2.0625    0.0000 C   0  0  1  0  0  0  0  0  0  0  0  0
    1.4289    2.4750    0.0000 C   0  0  0  0  0  0  0  0  0  0  0  0
    1.4289    3.3000    0.0000 S   0  0  0  0  0  0  0  0  0  0  0  0
    0.0000    2.4750    0.0000 C   0  0  0  0  0  0  0  0  0  0  0  0
    0.0000    3.3000    0.0000 O   0  0  0  0  0  0  0  0  0  0  0  0
   -0.7145    2.0625    0.0000 O   0  0  0  0  0  0  0  0  0  0  0  0
  1  2  1  0  0  0  0
  2  3  1  0  0  0  0
  2  4  2  0  0  0  0
  4  5  1  0  0  0  0
  5  6  2  0  0  0  0
  6  7  1  0  0  0  0
  7  8  2  0  0  0  0
  8  9  1  0  0  0  0
  9 10  2  0  0  0  0
  5 10  1  0  0  0  0
  9 11  1  0  0  0  0
 11 12  1  0  0  0  0
 12 13  1  0  0  0  0
 11 14  1  6  0  0  0
 14 15  1  0  0  0  0
 14 16  2  0  0  0  0
M  END
> <DATABASE_ID>
DB04723

> <DATABASE_NAME>
drugbank

> <SMILES>
NC(N)=NC1=CC=CC(=C1)[C@@H](CS)C(O)=O

> <INCHI_IDENTIFIER>
InChI=1S/C10H13N3O2S/c11-10(12)13-7-3-1-2-6(4-7)8(5-16)9(14)15/h1-4,8,16H,5H2,(H,14,15)(H4,11,12,13)/t8-/m1/s1

> <INCHI_KEY>
YHBCRXAIIVZWEW-MRVPVSSYSA-N

> <FORMULA>
C10H13N3O2S

> <MOLECULAR_WEIGHT>
239.294

> <EXACT_MASS>
239.072847365

> <JCHEM_ACCEPTOR_COUNT>
5

> <JCHEM_ATOM_COUNT>
29

> <JCHEM_AVERAGE_NEUTRAL_MICROSPECIES_CHARGE>
-1.0550040653534154e-05

> <JCHEM_AVERAGE_POLARIZABILITY>
24.3566629358748

> <JCHEM_BIOAVAILABILITY>
1

> <JCHEM_DONOR_COUNT>
4

> <JCHEM_FORMAL_CHARGE>
0

> <JCHEM_GHOSE_FILTER>
1

> <JCHEM_IUPAC>
(2R)-2-{3-[(diaminomethylidene)amino]phenyl}-3-sulfanylpropanoic acid

> <ALOGPS_LOGP>
0.52

> <JCHEM_LOGP>
-0.049299949068812216

> <ALOGPS_LOGS>
-3.08

> <JCHEM_MDDR_LIKE_RULE>
0

> <JCHEM_NEUTRAL_CHARGE>
0

> <JCHEM_NUMBER_OF_RINGS>
1

> <JCHEM_PHYSIOLOGICAL_CHARGE>
0

> <JCHEM_PKA>
10.064160439422466

> <JCHEM_PKA_STRONGEST_ACIDIC>
3.7361075488200055

> <JCHEM_PKA_STRONGEST_BASIC>
11.160496444081742

> <JCHEM_POLAR_SURFACE_AREA>
101.70000000000002

> <JCHEM_REFRACTIVITY>
65.81779999999999

> <JCHEM_ROTATABLE_BOND_COUNT>
4

> <JCHEM_RULE_OF_FIVE>
1

> <ALOGPS_SOLUBILITY>
2.01e-01 g/l

> <JCHEM_TRADITIONAL_IUPAC>
biotin

> <JCHEM_VEBER_RULE>
0

> <DRUGBANK_ID>
DB04723

> <DRUG_GROUPS>
experimental

> <GENERIC_NAME>
2-(3-GUANIDINOPHENYL)-3-MERCAPTOPROPANOIC ACID

$$$$
