
  Mrv0541 02231217072D          

 18 18  0  0  0  0            999 V2000
   -3.5724   -2.8875    0.0000 N   0  0  0  0  0  0  0  0  0  0  0  0
   -2.8579   -3.3000    0.0000 C   0  0  0  0  0  0  0  0  0  0  0  0
   -2.1434   -2.8875    0.0000 C   0  0  0  0  0  0  0  0  0  0  0  0
   -1.4289   -3.3000    0.0000 C   0  0  0  0  0  0  0  0  0  0  0  0
   -0.7145   -2.8875    0.0000 C   0  0  0  0  0  0  0  0  0  0  0  0
    0.0000   -3.3000    0.0000 N   0  0  0  0  0  0  0  0  0  0  0  0
    0.7145   -2.8875    0.0000 C   0  0  0  0  0  0  0  0  0  0  0  0
    0.7145   -2.0625    0.0000 O   0  0  0  0  0  0  0  0  0  0  0  0
    1.4289   -3.3000    0.0000 C   0  0  0  0  0  0  0  0  0  0  0  0
    2.1434   -2.8875    0.0000 C   0  0  0  0  0  0  0  0  0  0  0  0
    2.8579   -3.3000    0.0000 C   0  0  0  0  0  0  0  0  0  0  0  0
    2.8579   -4.1250    0.0000 C   0  0  0  0  0  0  0  0  0  0  0  0
    2.1434   -4.5375    0.0000 C   0  0  0  0  0  0  0  0  0  0  0  0
    1.4289   -4.1250    0.0000 C   0  0  0  0  0  0  0  0  0  0  0  0
    3.5724   -4.5375    0.0000 S   0  0  0  0  0  0  0  0  0  0  0  0
    4.2868   -4.9500    0.0000 N   0  0  0  0  0  0  0  0  0  0  0  0
    3.1599   -5.2520    0.0000 O   0  0  0  0  0  0  0  0  0  0  0  0
    3.9849   -3.8230    0.0000 O   0  0  0  0  0  0  0  0  0  0  0  0
  1  2  1  0  0  0  0
  2  3  1  0  0  0  0
  3  4  1  0  0  0  0
  4  5  1  0  0  0  0
  5  6  1  0  0  0  0
  6  7  1  0  0  0  0
  7  8  2  0  0  0  0
  7  9  1  0  0  0  0
  9 10  2  0  0  0  0
 10 11  1  0  0  0  0
 11 12  2  0  0  0  0
 12 13  1  0  0  0  0
 13 14  2  0  0  0  0
  9 14  1  0  0  0  0
 12 15  1  0  0  0  0
 15 16  1  0  0  0  0
 15 17  2  0  0  0  0
 15 18  2  0  0  0  0
M  END
> <DATABASE_ID>
DB03697

> <DATABASE_NAME>
drugbank

> <SMILES>
NCCCCNC(=O)C1=CC=C(C=C1)S(N)(=O)=O

> <INCHI_IDENTIFIER>
InChI=1S/C11H17N3O3S/c12-7-1-2-8-14-11(15)9-3-5-10(6-4-9)18(13,16)17/h3-6H,1-2,7-8,12H2,(H,14,15)(H2,13,16,17)

> <INCHI_KEY>
ZDYFRIZTYRFPJC-UHFFFAOYSA-N

> <FORMULA>
C11H17N3O3S

> <MOLECULAR_WEIGHT>
271.336

> <EXACT_MASS>
271.099062115

> <JCHEM_ACCEPTOR_COUNT>
4

> <JCHEM_ATOM_COUNT>
35

> <JCHEM_AVERAGE_NEUTRAL_MICROSPECIES_CHARGE>
0.9965211814674073

> <JCHEM_AVERAGE_POLARIZABILITY>
28.611669616256012

> <JCHEM_BIOAVAILABILITY>
1

> <JCHEM_DONOR_COUNT>
3

> <JCHEM_FORMAL_CHARGE>
0

> <JCHEM_GHOSE_FILTER>
0

> <JCHEM_IUPAC>
N-(4-aminobutyl)-4-sulfamoylbenzamide

> <ALOGPS_LOGP>
-0.14

> <JCHEM_LOGP>
-1.0518334874945

> <ALOGPS_LOGS>
-2.21

> <JCHEM_MDDR_LIKE_RULE>
0

> <JCHEM_NEUTRAL_CHARGE>
1

> <JCHEM_NUMBER_OF_RINGS>
1

> <JCHEM_PHYSIOLOGICAL_CHARGE>
1

> <JCHEM_PKA>
14.474233743592427

> <JCHEM_PKA_STRONGEST_ACIDIC>
10.229231438912496

> <JCHEM_PKA_STRONGEST_BASIC>
9.625911839164544

> <JCHEM_POLAR_SURFACE_AREA>
115.28

> <JCHEM_REFRACTIVITY>
69.6508

> <JCHEM_ROTATABLE_BOND_COUNT>
6

> <JCHEM_RULE_OF_FIVE>
1

> <ALOGPS_SOLUBILITY>
1.67e+00 g/l

> <JCHEM_TRADITIONAL_IUPAC>
biotin

> <JCHEM_VEBER_RULE>
0

> <DRUGBANK_ID>
DB03697

> <SECONDARY_ACCESSION_NUMBERS>
EXPT02838

> <DRUG_GROUPS>
experimental

> <GENERIC_NAME>
4-Sulfonamide-[1-(4-Aminobutane)]Benzamide

$$$$
