
  Mrv0541 09241312552D          

 12 12  0  0  0  0            999 V2000
    0.7145   -0.4125    0.0000 C   0  0  0  0  0  0  0  0  0  0  0  0
    0.7145    0.4125    0.0000 C   0  0  0  0  0  0  0  0  0  0  0  0
    0.0000   -0.8250    0.0000 N   0  0  0  0  0  0  0  0  0  0  0  0
    0.0000    0.8250    0.0000 C   0  0  0  0  0  0  0  0  0  0  0  0
   -0.7145    0.4125    0.0000 C   0  0  0  0  0  0  0  0  0  0  0  0
   -0.7145   -0.4125    0.0000 C   0  0  0  0  0  0  0  0  0  0  0  0
    1.4289    0.8250    0.0000 C   0  0  0  0  0  0  0  0  0  0  0  0
    2.1434    0.4125    0.0000 O   0  0  0  0  0  0  0  0  0  0  0  0
   -1.4289   -0.8250    0.0000 C   0  0  0  0  0  0  0  0  0  0  0  0
   -1.4289    0.8250    0.0000 O   0  0  0  0  0  0  0  0  0  0  0  0
    0.0000    1.6500    0.0000 C   0  0  0  0  0  0  0  0  0  0  0  0
   -0.7145    2.0625    0.0000 O   0  0  0  0  0  0  0  0  0  0  0  0
  2  1  1  0  0  0  0
  7  2  1  0  0  0  0
  1  3  2  0  0  0  0
  4  2  2  0  0  0  0
 11  4  1  0  0  0  0
  5  4  1  0  0  0  0
 10  5  1  0  0  0  0
  6  3  1  0  0  0  0
  6  5  2  0  0  0  0
  9  6  1  0  0  0  0
  8  7  1  0  0  0  0
 11 12  1  0  0  0  0
M  END
> <DATABASE_ID>
DB00165

> <DATABASE_NAME>
drugbank

> <SMILES>
CC1=C(O)C(CO)=C(CO)C=N1

> <INCHI_IDENTIFIER>
InChI=1S/C8H11NO3/c1-5-8(12)7(4-11)6(3-10)2-9-5/h2,10-12H,3-4H2,1H3

> <INCHI_KEY>
LXNHXLLTXMVWPM-UHFFFAOYSA-N

> <FORMULA>
C8H11NO3

> <MOLECULAR_WEIGHT>
169.1778

> <EXACT_MASS>
169.073893223

> <JCHEM_ACCEPTOR_COUNT>
4

> <JCHEM_ATOM_COUNT>
23

> <JCHEM_AVERAGE_NEUTRAL_MICROSPECIES_CHARGE>
0.03303610474091776

> <JCHEM_AVERAGE_POLARIZABILITY>
17.112304740817216

> <JCHEM_BIOAVAILABILITY>
1

> <JCHEM_DONOR_COUNT>
3

> <JCHEM_FORMAL_CHARGE>
0

> <JCHEM_GHOSE_FILTER>
0

> <JCHEM_IUPAC>
4,5-bis(hydroxymethyl)-2-methylpyridin-3-ol

> <ALOGPS_LOGP>
-0.57

> <JCHEM_LOGP>
-0.9513212983333332

> <ALOGPS_LOGS>
-1.02

> <JCHEM_MDDR_LIKE_RULE>
0

> <JCHEM_NEUTRAL_CHARGE>
0

> <JCHEM_NUMBER_OF_RINGS>
1

> <JCHEM_PHYSIOLOGICAL_CHARGE>
0

> <JCHEM_PKA>
14.533140285427315

> <JCHEM_PKA_STRONGEST_ACIDIC>
9.397430003835803

> <JCHEM_PKA_STRONGEST_BASIC>
5.584997111043129

> <JCHEM_POLAR_SURFACE_AREA>
73.58000000000001

> <JCHEM_REFRACTIVITY>
44.1053

> <JCHEM_ROTATABLE_BOND_COUNT>
2

> <JCHEM_RULE_OF_FIVE>
1

> <ALOGPS_SOLUBILITY>
1.61e+01 g/l

> <JCHEM_TRADITIONAL_IUPAC>
biotin

> <JCHEM_VEBER_RULE>
0

> <DRUGBANK_ID>
DB00165

> <SECONDARY_ACCESSION_NUMBERS>
NUTR00002; APRD00204

> <DRUG_GROUPS>
approved; investigational; nutraceutical; vet_approved

> <GENERIC_NAME>
Pyridoxine

> <SYNONYMS>
2-methyl-3-hydroxy-4,5-dihydroxymethylpyridine; 3-hydroxy-4,5-bis(hydroxymethyl)-2-methylpyridine; 3-hydroxy-4,5-dimethylol-α-picoline; 5-hydroxy-6-methyl-3,4-pyridinedimethanol; Piridoxina; Pyridoxine; Pyridoxinum; Pyridoxol; Vitamin B6

> <PRODUCTS>
24 Multivitamins + Minerals; 50 Plus; 50 Plus Multiple Vitamins & Minerals; A.R.T.H. Away Formula; Acetabolan III Vitamin and Mineral Supplement; Acetabolan-II Vitamin and Mineral Supplement; Active FE; Active OB; Acv; Adeks - Dps; Adeks Tablets; Adrenogist Tab; Adult Formula 50+; Adult Infuvite Multiple Vitamins; Advanced 2000 Capsules; Advanced AM PM; Advanced B & T Formula; Alertonic; Alkadrenergy Tablets; Allbee C 800 Tab; Allbee With C 550 Cap; Allbee With Vitamin C Cap; Alsimine W Vitamins A D; Am Caps; American Eagle Energizer Plus Vitamin Supplement Drink; American Plus Energy & Vitamin Drink; Amerix Multivitamin; Anaplex Tab; Animal Shapes; Animal Shapes w/Iron Chewtabs; Animi-3; Animi-3 with Vitamin D; Antlerviron; Apo-doxylamine/b6; Aqua-S Supplement; Av-VITE FB; Av-VITE FB Forte; Avon Nutrivance Vitamin E Plus; Avon Vitadvance Multi-kids Complete; AzesChew; B 50 Capsules; B 6 Plus; B C Antistress Cap; B Complex 25mg Vitamin Supplement; B Complex 50 Vitamin Cap; B Complex 50+ Caplet; B Complex 500 Tab; B Complex Plus C 300mg Tab; B Complex Tablets; B Complex W C Forte Cap; B Complex W C and B12 Inj; B Complex W Vit C W Non-med Yeast&liver Tab; B Complex W Vitamin C Fortis Cap; B Complex With C 300mg; B Complex With C 300mg Tab; B Complex With C 550mg; B Compound 50mg Tab; B Plus C 300 mg; B Plus C 300mg Timed Release; B Stress C + Iron & Vite; B Totum 500; B Virol; B With C 500 Cap; B-100 Caps; B-100 Complex Tablets; B-100 Hi Potency B Vitamins Tab; B-100 Vitamin Supplement; B-50 Complex; B-50 Complex Tab; B-50 Hi Potency B Vitamins Tab; B-6 500mg Continuous Released; B-6 Caps 250mg; B-6 Pyridoxine HCL; B-Combo; B-Nexa; B-Serene Rx; B-complex; B-complex 100; B-complex 50; B-complex Tab; B-complex Tablets; B-complex With Vitamin C, Biotin, Folic Acid; B-complex-50 Tab; B-plex; B-plex 100; B-plus - Tab; B50 B Complex Tab; B50 Complex; B6 100mg Pyridoxine HCl; B6 25 Tab 25mg; B6 250 Caplet 250mg; B6 400mg Ctr Tab; B6 Cap 100mg; B6 Plus Tab; B6 Pyridoxine HCl Tab 50mg; B6 Tab 100mg; B6 Tablets 100mg; B6, B12 & Folic Acid; B6, B12 & Folic Acid Multi-vitamin Tablets; B6-niacinamide Tab; BP Vit 3; Bacmin; Baisix; Bal-Care DHA; Bal-Care DHA Essential; Balanced B 125 Srt; Balanced B-100 B-complex Vitamins Tab; Balanced B-100 Timed Release; Balanced B-50 B-complex Vitamins Tab; Balanced B-50 B-complex Vitamins, Timed Rele; Balanced B-50 Complex; Balanced B-complex Vit + Vit C&e Tab; Balanced B100; Balanced B50 Complex; Beminal 500 Tab; Beminal Fortis Elx; Beminal W C Fortis Inj; Beminal With C Fortis Cap; Beminal With C Fortis Pws; Bev B-150; Bio-fen; Biosculpt; Body Rox; Body Tropics Plus Tab; Bonjesta; Bugs Bunny Chew Multi Vit Plus Iron; Bugs Bunny and Friends Multiple Vitamins; BumP DHA; C 106 Tab; C-B Complex; C-Nate DHA; C-apnto-B6 Vitamins W Magnesium Tab; C-force; C. Vit-min Formula; C.A.G. Tab; C.R.D.-force; C.R.T. X Multivitamin & Mineral Powder Mix; CHOpro; Cal M Tab; Calcium Folic Acid Plus D Chewable; Calcium PNV; Carbassist Tablets; Carbaway; Card-floe II Tab; Cardiotek-RX; Carthaphy Cap; Cataplex F Tab 2mg; Cavan Alpha; Cavan Folate DHA; Cavan Folate OB; Cavan Heme OB; Cavan One; Cavan Prenatal; Cavan X; Cavan-EC SOD DHA; Cda-21 Vitamins With Non-medicinal Probiotic Complex; Cedevita Plus Vitamin Supplement; Cedevita Sugar-free Vitamin Supplement; Cell Power Boosting Essence; Central-vite 18 Essential; Centratex; Century Complete; Chela Iron Plus C,b Complex; Chela Zinc Plus; Chew.multiple Vits.with Extra C for Children; Chewable Adult Multivitamins With Minerals; Chewable Children's Complete Multivitamins With Essential Minerals; Chewable Multiple Vit Plus Iron for Children; Chewable Multiple Vitamins Plus Extra C; Chewable Multiple Vitamins Plus Iron Tab; Chewable Multiple Vitamins Tab; Chewable Multiple Vitamins for Children; Chewable Multivitamins; Chewable Multivitamins Plus Iron; Children Choice Multivit Chewable Tab; Children Choice Multivitamin W Iron Chew Tab; Children's Chew Multi & Min Tab; Children's Chewable Multi Vit W Iron; Children's Chewable Multi Vitamins; Children's Chewable Multi Vitamins With Iron Tablets; Children's Chewable Multi-vitamin; Children's Chewable Multi-vitamin Complete With Minerals; Children's Chewable Multiple Vit.plus Iron; Children's Chewable Multiple Vitamins (chewable Tablets); Children's Chewable Multiple Vitamins - Tab; Children's Chewable Multiple Vitamins With Extra Vitamin C (chewable Tablets); Children's Chewable Multiple Vitamins With Iron Tablets (chewable Tablets); Children's Chewable Multivitamin Complete With Minerals; Children's Chewable Multivitamin and Multimineral; Children's Chewable Multivitamins With Minerals; Children's Chewable Multivitamins and Minerals; Children's Chewable Tab; Children's Chewable Vit and Min Tab; Children's Chewable With Iron; Children's Multivitamins; Children's Multivitamins With Iron; Children's Vitamins Chewable; Children's Vitamins W Iron Chewable; Childrens Chew Multi Vitamin Tab; Childrens Chewab Vitamin W Chel Minerals; Childrens Chewable Multiple Vitamins; Childrens Chewable Multiple Vitamins Plus Fe; Childrens Chewable Multiple Vitamins Tab; Childrens Chewable Multiple Vitamins W.iron; Childrens Chewable Multivitamins; Childrens Chewable Multivitamins W Iron; Childrens Chewable Tab; Childrens Chewable Vitamin Tab; Childrens Chewable Vitamins; Childrens Chewable Vitamins W Iron; Childrens Multiple Vit and Min Chew Tab; Choice OB DHA; CitraNatal 90 DHA; CitraNatal Assure; CitraNatal B-Calm; CitraNatal DHA; CitraNatal Essence; CitraNatal Harmony; CitraNatal Harmony 3.0; CitraNatal Medley; CitraNatal Rx; Citranatal B-calm; Classic Swiss One 10 Multivitamin and Mineral Tab; Complete Mega B; Complete Multivitamins and Minerals Tablets Timed Release; Complete Multivitamins and Minerals for Children; Complete Natal DHA; Complete One-A-day - Tab; Complete-RF Prenatal; CompleteNate Chewable; Complex-75; Complexe B 75mg; Complexe B Compose 75; Complexe B-75; Concept DHA; Concept OB; Corvita; Corvita 150; Corvite; Corvite 150; Corvite FE; Corvite Free; Croq-vit Pour Enfants; Cyroplex; DaVITE; Daily Balance Tab; Daily Energy Brand B-complex; Daily Supplement Packs; Daily-Vite; Dalivit; Davimet; Dayavite; Deriton; Derma-force; Dermagran Moisturizing Spray; Dexifol; Dia-vite; Diacomp - Cap; Dialyvite; Dialyvite 3000; Dialyvite 5000; Dialyvite Supreme D; Dialyvite with Zinc; Diaplex; Diclectin; Diclegis; Divista; Docosavit; Doctor's Choice Brand for Men; Dothelle DHA; Doxylamine Succinate and Pyridoxine Hydrochloride; Doxylamine succinate and pyridoxine hydrochloride; Dp 2000; Dr. AVi MULTIVITAMIN with Zinc, Real Ginger, Lemon and Lemongrass; Dr.NOAH SOLIDTOOTHPASTE; Dr.Pauhls TOOTHPAST E LIME MANDARIN FLAVOR; Dr.Pauhls TOOTHPAST E PATCHOULI MUSK FLAVOR; Dr.Pauhls TOOTHPAST E VANILLE BLACK TEA FLAVOR; Duet DHA; Duet DHA 400; Duet DHA 400 ec; Duet DHA Balanced; DuetDHA Balanced; DuetDHA Complete; Dynam Ampoule Et Tablet; E.S.T. Complex; E.V.C. Vitamins Tab; EC + Complex; Earthpals Children's Chewables Multi-vitamin & Mineral Tablets; Edge OB; Efferlife Multivitamins and Minerals; Elite OB Prenatal Multivitamin; Ellis Tonic; Energy 80 Prolonged Release Tab; Energy Booster Essence; Enrich Core Pack - Children Vitamin and Mineral Supplement; Envirocomplex; Enviroflex - Tab; Escavite; Escavite D; Escavite Lq; Essential B Tablets; Essential Vitamins and Minerals; Evc - Liq; Evc Liquid Vitamins A,c,b6 With Beta Caro&zn; Everyday Multiple Vitamins; Everyday Multiple Vitamins With Iron; Extra Once A Day; Extra P.N. Vitamin-mineral Drink Mix; Extra-Virt Plus DHA; Ez-flex; FaBB; Fb Formula; Fem - Control; Fem - F.S. Formula; Fem - Pmt; Fem Time Tab; Feminex 300 Tab; Feminique W Iron and Calcium Tab; Femitab Tab; Ferra Naka Plus Vitamins; Fibrik; Fizz Multivitamins for Kids W C Loz; Flexadyn Tab; Flinstones Multiple Plus Iron; Flintstones Multiple Vitamins; Flintstones Multiple Vitamins Plus Iron; Flintstones Multiple Vitamins Tab; Flintstones W Extra C Tab; Floradix Formula Liq; Floravit - Syr; Floriva; Floriva Plus; Focalgin 90 DHA; Focalgin B; Focalgin CA; FolaGent DHA; FolaMax; FolaMed DHA; Folastin; Folbic; Folcal DHA; Folcaps; Folcaps Care One; Folcaps Omega-3; Folet DHA; Folet One; Folgard; Folic Acid Plus; Folic-K; Folica BE; Folica-V; Foliflex; Folika-MG; Folika-NC; Folika-T; Folika-V; Folitin-Z; Folivane-OB; Folivane-PRx DHA; Folivane-Plus with Ascorbic Acid Precursors; Folplex; Foltabs 800; Foltabs Prenatal; Foltabs Prenatal Plus DHA; Foltx; For Kids Only Chewable Multivit. Plus Iron; For Kids Only Chewable Multivitamins; For Kids Only Chewable Multivitamins - Tab; For Men; For-2; Formula 6100 Cap; Formula A.L.- Tab 17mg; Formula Adr-vitamin B2,b6 W Calpan Tab; Formula B; Formula BP; Formula Ch. Les.; Formula Cm; Formula Cn; Formula D.S.; Formula EC; Formula Est'ro Tab Support; Formula F L W; Formula Fe-vitamin and Mineral Tab; Formula Fm Vitamins & Minerals Tab; Formula Gly; Formula Hh; Formula Im-vitamins and Minerals Tab; Formula Js; Formula Lf; Formula O-care Vitamin and Mineral Supplement; Formula O.C.; Formula Pro-B; Formula R Tab; Formula Statin Support; Formula Wb; Formule No 202 Profil Tab 8.45gm; Fortamines 10 Capsules; Fortamines-10 Comprimes; Fortaplex Inj; Fortistress Tab; Forty Plus Vitamin Supplement; Fusion Activator Formula Tab; Fusion Plus; Garfield Chewable Multivitamins Tab; Garfield Chewable Multivits Plus Iron Tab; Genicin Vita-Q; Genicin Vita-S; Geritol Liquid; Gestamine Comprimes; Gesticare DHA; Glyco Lite Ect; Glyco Plus Ect; Glyco-aide Tab; Grand Master Formula Tab; Great Day/am Formula Tab; Gynedyn Tab; H. Formula - Tab; H.W. Children's Chewable Multi Vit & Mineral; Harvest Of Values All B Complex Tab; Hemarexin Tab; HemeNatal OB; HemeNatal OB plus DHA; Hemocyte Plus; Hi Potency B Complex W Chelated Minerals; Hi Potency B52 B Complex Tab; Hi Potency Balanced B-100 Complex - Tab; Hi Potency Klb6 Tab 17mg; Hi Potency Multi Tab; Hi Potency Stress B Tension With C; High Potency Multivitamins & Minerals Caplets; High Potency Vitamin B Complex + C Tab; Hill.vite; Homosismin; Homosistrol Capsules; Homosistrox Capsules; Hylavite; Hylazinc; Hypo Vites Tab; Hyporyl - Tab; INATAL Ultra; Iberet 500; Ifb; Inatal Advance; Infantol Drops; Infuvite Adult Multiple Vitamins; Innersource Tab; Innoble ONECHEWTOOTHPASTE; Insur-all Vitamin Supplement; Integra Plus; Iron 25mg With Vit B-cmplx, Vit C, Cu & Mo; Iron Polysaccharides Folic Acid DHA; Iron Vitamins B6,b12,c,folic Acid Tab; Iron, Vit & Min Supp; Irospan 24/6; Isotamine B 300; Isotonix Advanced B-complex Vitamins With Potassium and Magnesium; Isotonix Multitech Vitamin Mineral Supplemen; Jenliva; Junior Multi Vitamins - Regular; K.L. Vitamin-mineral; Kanga Sport Vitamins B & C Plus Minerals; Kanga-B Vitamin B Group + C; Kanga-V Multivitamins & Minerals; Kanga-kid Multi-vitamin & Mineral; Kanga-kid Vitamins & Iron; Kaydia Patch; Kenwood Liquid Supplement; Kid's Choice Children's Chewable Vitamins - Tab; Kidmag Vitamins W Magnesium Tab; Kids Stuff Tablets; Kids Stuff With Iron Tablets; Kimchi Vitamin chewable multivitamin; Kindervites; Klb 6 Tab; Klb 6 Tab 8.33mg; Klb6 Tablets 17mg; Kmg Plus; L Fac Tab; L-Methyl MC; L-Methyl-MC; L.C. Supplement; L.I.P. Complex; Leritone Junior; Levomefolate Calcium, Cyanocobalamin and Pyridoxine Hydrochloride; Lgb-dtx Tab 10mg; Lip - Fac Formula; Lipo Factors Plus B6; Lipo-B-C Tab; Lipotrope-plus B6 Tab; Lipotropic Ctr; Lipovitan; Lipovite; Liqui B Complex; Liqui B Complex Plus; Liqui Infant Vitamins; Liqui Vita; Liquid B Complex 50; Livron Plus Ampoule; Livron Plus Tab; Longevit-E - Capsule; Lorid; Low Potency B Complex Tab; Lubricant Eye Drops; Luna Vitamin and Mineral Bar for Women; Lustime Angel; Lustime Unicorn; Lutime; Lysamine Diet Supp Amp-tab; M-Natal Plus; M.V.I. 12; M.V.I. Adult; M.V.I. Paediatric; M.V.I. Pediatric; M.V.I.-12; MVC-Fluoride; MYNEPHROCAPS DIALYSIS/STRESS Vitamin Supplement; Magnesium 50mg With Vitamin B6 Tab; Magnum-75 Vitamin and Mineral Supplement; Maintain Multiple Vitamin & Minerals; Maltlevol 12 Liq; Maltlevol Liq; Mangadyn; Marnatal F; Master Key Multi Vitamin Multi Mineral Formula 2; Materna; Materna - Tab; Materna-tab; Maxi 10 Tab; Maximum Once A Day; Maxine Vitamin and Mineral Supplement; Maxum Multi-vite; Medi Wrinkle Serum; Mega 13 Multivitamin Formula; Mega Balance; Mega Capsules; Mega Plex III - Pck; Mega Plex IV - Pck; Mega Vitaminerals; Mega-vim 75 With Beta-carotene - Tablets; Megavite Rx; Megavites Tab; Men's; Men's 50+; Men's Biomultiple Vitamin and Mineral Supplement; Men's Multi Master Formula; Meplex T 750; Meth-X Vitamin and Mineral Supplement; Methaver; Mi-Omega NF; Milltrium Senior Vitamin and Mineral Supplement; Min-chex Cap; Mini-B Tab; Mnps Formula Supplement; Molyhen; Moms Choice Rx; Mor-vites Tab; Multi #2; Multi - N.T.O.x Formula - Tab; Multi 1000; Multi 12 Injection; Multi B; Multi Enfants Tab; Multi Flow Tablets; Multi II IV Vi Tab; Multi Nt-OX; Multi Plex I - Tab; Multi Plex II - Tab; Multi Pro; Multi Rol; Multi Spectrum - Tablet; Multi Tabs; Multi Vitamin & Minerals; Multi Vitamin - Mineral; Multi Vitamin Drops with Fluoride; Multi Vitamin Drops with Fluoride and Iron; Multi Vitamin Drops with Fluoride with Iron; Multi Vitamin Plus Iron; Multi Vitamin and Fluoride; Multi Vitamin and Mineral vitamin; Multi Vitamin with Fluoride; Multi Vitamin, Iron and Fluoride; Multi Vitamines - Liq; Multi Vitamins & Minerals; Multi Vite Liq Adult; Multi Vite Liq Junior; Multi-11; Multi-12 Pediatric; Multi-12/k1 Pediatric; Multi-Nate 30; Multi-Vit with Fluoride; Multi-Vit with Fluoride and Iron; Multi-Vitamin; Multi-Vitamin Drops with Fluoride and Iron; Multi-Vitamin Fluoride; Multi-Vitamin Fluoride Drops; Multi-Vitamin Fluoride and Iron Drops; Multi-Vitamin With Fluoride; Multi-Vitamin with Fluoride; Multi-actin; Multi-force for Adults Tab; Multi-force for Women Tab; Multi-kid; Multi-phyto Capsules; Multi-vitamin Dietary Supplement; Multi-vitamines Enfants Comprime; Multi-vitamins; Multi-vitamins With Minerals; MultiVitamin Drops with Fluoride and Iron; MultiVitamin with Fluoride; MultiVitamin with Fluoride Chewable; MultiVitamin with Fluoride Drops; MultiVitamin, Iron and Fluoride Drops; Multicaps; Multinate DHA; Multinate DHA Extra; Multipack II; Multiple Vit Plus Iron Tab; Multiple Vitamin Plus Minerals Tab; Multiple Vitamin Tab; Multiple Vitamins; Multiple Vitamins & Minerals Tablets; Multiple Vitamins - Tablet; Multiple Vitamins Childrens Chewable; Multiple Vitamins Plus Iron - Tab; Multiple Vitamins Plus Iron Tab; Multiple Vitamins Plus Iron for Women; Multiple Vitamins Tab; Multiple Vitamins W Iron Tab; Multiple Vitamins W Minerals Tab; Multiple Vitamins With Iron; Multiple Vitamins With Iron Tablets; Multiple Vitamins With Minerals Tablets; Multiple Vitamins and Minerals; Multiple Vitamins and Minerals Capsules; Multiple Vitamins and Minerals Tab; Multisol; Multitabs; Multitam; Multivit Et Fer Ampoules Et Comprimes; Multivit with Fluoride; Multivit-liq; Multivitamin; Multivitamin & Minerals (iron Free); Multivitamin & Multimineral; Multivitamin Drops with Fluoride; Multivitamin with Fluoride; Multivitamin with fluoride; Multivitamine; Multivitamines; Multivitamines Et Mineraux; Multivitamines Et Mineraux Junior Regulier; Multivitamines Et Mineraux Reguliers / Regular Multivitamins and Minerals; Multivitamines Plus Fer Pour Enfants (chewable Tablets); Multivitamines Pour Enfants (chewable Tablets); Multivitamins; Multivitamins W Iron; Multivitamins W Minerals Extra Strength; Multivitamins and Minerals - Complete; Multivitamins and Minerals Tablets; Multivitamins and Minerals With Betacarotene Tablets; Multivitamins and Minerals for Men; Multivitamins and Minerals for Women; Multivitamins and Minerals for Young Men; Multivitamins and Minerals for Young Women; Multivitamins and Multiminerals Formula Regular Tablet; Multivitamins for Children; Multra Plex; Multra With Iron; Munit-E Tablet; Mvc; Mvc 9 Plus 3 Inj; Mvc 9+4 Inj; Mycelized Childrens Multi-vitamin Liq; Myhephron Dialysis and Stress Supplement; N.E.U. Complex; N.U.T. Complex; NEONATAL Complete; NESTABS ABC Prenatal Multi-vitamin/Mineral Supplement with DHA/EPA; NESTABS DHA Prenatal Multi-vitamin/Mineral Supplement with DHA/EPA; NESTABS Prenatal Multi-vitamin/Mineral Supplement; Nata Komplete; NataChew; NataFort; Natal-V RX Multi-vitamin/Multi-mineral; Natalvirt 90dha; Natalvirt Ca; Natavite; Natelle One; Natural Source Spectrum With Beta Carotene; Neo Bex Elixir; Neo-bex; Neo-bex Injectable; Neomultivite; Neonatal DHA; Neonatal Plus Vitamin; Neonatal Vitamin; Neonatal19; NephPlex Rx; Nephrocaps; Nephrocaps-QT; Nephron FA; Nestabs ONE; NeuroBion; Neutral C + Coenzyme Q10 Plus Vitamins & Minerals; New Chapter's D'adamo 4 Your Type Multiple for Type O; Nexa Plus; Nexa Select; Nexa Select Rx Prenatal Vitamin with Plant-Based DHA; Ni-C-E-LE Plus; Niaacinamide Azelaic AC TURMER FA B6 Zinc Ox Copper; Niacex B6; Niacinamide-B6 Cap; NicAzel; NicAzel Doxy Kit; NicAzelFORTE; Nicadan; Nicadan ZX; Nicaprin; Nicazyme; Niva-Fol; Niva-Plus; NovaFerrum Multivitamin with Iron Pediatric Drops; NovaMV Multivitamin; Novel Vita; Nrg Plus Liq; NuFera; Numark Multivitamins; Nutra Boost; Nutra-clear; Nutri-Tab OB; Nutri-Tab OB plus DHA; Nutrilite Double X; Nutrol-B-complex; Nutrol-B6 Tab 100mg; O-Cal FA multivitamin; O-Cal Prenatal Vitamin; OB Complete 400; OB Complete DHA; OB Complete Gold; OB Complete Petite; OB Complete Prenatal; Olympian Multi Vit Plus Minerals Tab; Onccor; Oncovite; One A Day Advance Adults; One A Day Advance Adults 50+; One A Day Advance Fem; One A Day Multiple Vit W Minerals; One A Day Tab; One Daily VITES; One Daily Vitamin and Mineral Dietary Supplement; One Per Day Vitamin and Mineral Dietary Supplement; One Tablet Daily Mens Formula; One-A-day Advance Fem - Tablets; One-A-day Advance Men's; Only One - Tablet; Oral Projeqt O1 Toothpastetablets; Orange Flavored Crystal Chews Tab; Orifer F; Original Bioscal Forte Multi-vitamin Supplement Capsules; Orti B; Osteo Factors; Osteo Formula; Osteo Regime; Osteo-force; Osteoshield; P & Sp Special Formula; P.N. Vitamin-mineral Drink; P.N.P. Vitamin Drink; P.R.O. Complex; PM Caps; PMS-doxylamine-pyridoxine; PNV Ferrous Fumarate Docusate Folic Acid; PNV Prenatal Plus Multivitamin; PNV Prenatal Vitamin; PNV Prenatal Vitamin Plus Vitamin A; PNV Tabs 20-1; PNV Tabs 29-1; PNV-First; PNV-Omega; PNV-Select; PR Natal 400; PR Natal 400 ec; PR Natal 430; PR Natal 430 ec; PRENATE Enhance; PRENATE Restore; PROTECT IRON Liquid; Paire OB Plus DHA; Palm Springs Multvit and Min Tab; Paramettes Adults; Paramettes Chewable Multivitamins Plus Iron; Paramettes Chewable Multivits With Iron Tab; Paramettes Multivits Plus Iron Tab (teens); Paramettes Syrup; Pediatric Infuvite Multiple Vitamins; Pediatric Infuvite Multiple Vitamins for Infusion; Perfect Wrinkle Serum; Perioe lucky fresh - cavity care; Phosthenine Vitamines Et Fer (ampoules Buvable); Phytofortis + Calcium A-D; Phytoplex B Liq; Phytopure; Phytovim Cap; Ply Vi Sol Chewable Tab; Pnv Ob DHA; Pnv-OB-dha; Pnv-VP-U; Pnv-dha; Poly Vi Flor Chewable Tab; Poly-VI-flor; Poly-Vi-Flor; Poly-Vi-Flor with Iron; Poly-Vi-Sol; Poly-Vitamin with Fluoride; Poly-Vite Pediatric Oral Solution; Poly-Vite/Iron Oral Solution; Polymine Avec Zinc Et Cuivre; Pour Ma Santé; Powertech Vitamin and Mineral Supplement; Pre-Tabs DHA Prenatal Multi-vitamin/Mineral Supplement with DHA/EPA; PreFol-DHA; PreGen DHA; PreGenna; PreNatal 19; PreNatal Vitamins Plus; PreNexa; PreNexa premier; PrePLUS; PreTAB; Prefera OB plus DHA; PreferaOB; PreferaOB ONE; PreferaOB One; PreferaOB plus DHA; Pregvit; Pregvit Folic 4; Pregvit Folic 5; Premel; Premium Prenatal; Premium Prenatal - Tablets; Prena1; Prena1 Chew; Prena1 Plus; Prenaissance; Prenaissance Plus; Prenara; Prenatabs FA; Prenatal; Prenatal Formula Tab; Prenatal Mega Antioxidant; Prenatal Plus; Prenatal Plus Iron; Prenatal Plus Multivitamin Plus DHA MiniCaps; Prenatal Plus Vitamins; Prenatal Supplement - Tab; Prenatal Vi-min; Prenatal Vitamin No 53 Iron Fum Folic Acid Docusate CA DHA; Prenatal Vitamin and Mineral Supplement; Prenatal Vitamin and Mineral Supplement -tab; Prenatal Vitamin and Mineral Supplement Tab; Prenatal Vitamins Plus; Prenatal Vitamins Plus Low Iron; Prenatal Vitamins and Minerals Tablets; Prenatal and Post Partum Supplement; Prenatal, DHA; Prenate AM; Prenate Chewable; Prenate DHA; Prenate Elite; Prenate Essential; Prenate Mini; Prenate Pixie; Prenate Star; Prenatrix; Prenatryl; Prenatvite; Prenatvite Complete; Prenatvite Plus; Preplus; Pretrate; Prevital Tab; Prim - Royal P.M.T.; PrimaCare; Pro Hers Vanilla; Pro His Mint; Pro Pcos Citrus; ProFola; Prometa; Pros-gard Zinc and Vitamin B6 - Capsule; Prosgard; Prost-10 Vitamin and Mineral Supplement; Protect Cardio AF; Protect Plus SO 60; Provida DHA; Provida OB; PureFe OB Plus; PureFe Plus; PureVit DualFe Plus; Pyridoxen Tab 50mg; Pyridoxine; Pyridoxine HCl Inj 100mg/ml; Pyridoxine HCl Tab 100mg; Pyridoxine HCl Tab 25mg; Pyridoxine HCl Tab 50mg; Pyridoxine Hci; Pyridoxine Hydrochloride; Pyridoxine Hydrochloride Injection 100mg/ml; Pyridoxine Hydrochloride Injection USP 100 mg/ml; Pyridoxine Hydrochloride Injection, USP; Pyridoxine-S Tab 50mg; Q.T. #4 Vitamin and Mineral Dietary Supplement; Q.T. Vitamin and Mineral Drink Mix; Quflora FE; Quflora FE Pediatric Drops; Quflora Gummies; Quflora Pediatric; Quflora Pediatric Drops; R.E.S. Complex; RE FAC-x; RE Nata; RE Nata OB; RE Prenatal Multivitamin with Iron; RayaVit; Re Ob 90 DHA; Reaphirm Plant Source DHA; Recal D; Red American Eagle Vitamin Supplement Drink; Red Bull; RediChew; Redoxon-cal; Reebok; Reliv So Sense Daily Vitamin Supplement; Relnate DHA; RenaPlex; RenaPlex-D; Renal Caps Dialysis/Stress Vitamin Supplement; Renate; Renate DHA; Reno Caps; Replavite; Revit Multi-vitamins and Minerals; Revit Plus Cap; Revitalize Multi-vitamin and Mineral Complex; Revitex Ampoules Et Comprimes; Revival 1 Tab; Ribotin-E; Right Choice A.M. Multi Formula - Caplet; Rocky Mountain Multiple Vit and Min Mega Tab; Rogenic; Rulavite DHA; Se-Care Chewable; Se-Care Conceive; Se-Natal; Se-Natal 19; Se-Natal 19 Chewable; Se-Natal One; Se-Plete DHA; Se-Tan DHA; Se-Tan PLUS; Select OB; Select-OB Plus DHA Prenatal Supplement Plus DHA; Senior Multi One; SetonET; SetonET-EC; Shen Min Vitamin Supplement; Sibergin B - Cap; Snow White Ampoule; Solaray; Somarexin and C 1000; Somavit Brand Vitamins and Minerals Complex; Soothe; Sopalamine 3b Plus; Sopalamine/3b Plus C; Sopalamine/3b Tab; Spark Cap; Spd Tab; Spectrum 2 Cap; Spectrum Performa Multivitamins and Minerals Tablets; Stress B & C Caplet; Stress B Capsules With Vitamin C; Stress B Complex With C and E Tab; Stress B Complex With C, E & Iron; Stress B Complex With C, E and Iron Tab; Stress B Complex With C,e, Zinc and Copper; Stress B With 1000 Mg Vitamin C; Stress B&c Tab; Stress B-complex Plus Iron With Vitamins C&e; Stress Complex 600 Avec Vit E Cuivre Zinc; Stress Ctr Srt; Stress Formula; Stress Formula + Iron; Stress Formula B-comp + 500mg Vit C Tab; Stress Formula Multi-B Comp + 500mg Vit C Cap; Stress Formula Multivitamin Tablets USP; Stress Formula Tab; Stress Formula Vit B With C Complex; Stress Forte Plus Lipotropic Factors; Stress Tab; Stress Tab With Iron and Vitamin E; Stress Tab With Zinc, Copper and Vitamin E; Stress Tablets; Stress Vitamin B With C Complex Tablets; Stressmates; Stresstabs + Zinc-copper; Strovite Forte Caplet; Strovite One Caplets; Sun-rype Vitaburst; Super B Compound W 500mg Vit C; Super Charged Energy; Super Daily No 2; Super Kids Chewable Multivitamin Multimineral (chewable Tablets); Super Klb6 Tab 17mg; Super Multi; Super Pantoplex; Super Stress Capsules; Super Stress Mega B Plus 1000mg Vit C Tab; Super Vita Vim Multivitamins and Minerals; Super Vita-vim With Beta-carotene - Tab; Super Vitalex Ampoule Buvable; Super-pote Vitamin Supplement; Supplement De Multivitamines Infusion Arome Fruits Rouges; Supravite 10ml Ampoule; Supravite Bouteille 250ml; Supravite C 1000; Supravite Pour Enfants; Supravite Stress Avec Vit E; Supravite Stress Avec Vit E Cuivre Et Zinc; Supravite Stress Avec Vit E Et Fer; Surbex 500 Filmtab; Surbex-500 With Iron; Surbex-500 With Zinc; Swical-energy 3e Age; Swical-energy-2; Swiss One; Swiss One Multi Vit & Chel Min Tab; Swiss One Multivitamin and Mineral Caplet; Swiss One Timed Release Tab; Swiss Total One; T.R.I. B-plex Src; TL Gard Rx; TL-Care DHA; TL-Fluorivite; TL-Folate; TL-Select; TL-Select DHA; TRONVite; Taliment; Taliva; Tandem DHA; Tandem OB; Tandem Plus; Tar-end; Taron BC; Taron-C DHA; Taron-prex Prenatal; Tendera-OB; Teva-doxylamine/pyridoxine Dr; Thrivite 19; Thrivite Rx; Time Release B 100 Compound - Tablet; Timed Release B Complex 100 Srt; Timed Release B-complex 100; Timed Release B-complex 50; Timed Release Vita-vim Srt; Tini-cal Ampoules; Tobakient; Toni Com Liq; Tonicol Et A-D-C Ampoules/comprimes; Total Living Concepts Formula One - Tab; Totalvit Plus; Tozal; Tri Adrenopan; Tri-Zel; TriAdvance; TriStart DHA; TriStart FREE; TriStart ONE; Tricare Prenatal; Tricare Prenatal 2-part Daily Prenatal Vitamin System; Tricare Prenatal Compleat; Tricare Prenatal DHA One; Tricare Prenatal DHA One Rx Multivitamin; Tricare Prenatal DHA One With Folate; Tricare Prenatal Quick Dissolve; Trinatal GT; Trinatal Rx 1; Trinatal Ultra; TriphroCaps; Triveen-Duo DHA; Triveen-PRx RNF; Twin G.F. Powder; Twin G.F. Powder Vanilla Flavor; Twin Opti Pwr; Twin Ultra Liquid Fruit Punch Flavor; Twin Ultra Liquid Grape Flavor; Twin Ultra Liquid Lemon-lime Flavor; Twin Ultra Liquid Orange Flavor; Udamin Sp; Ultimate OB DHA; Ultimate Tab; UltimateCare ONE; UltimateCare ONE NF; Ultr F/b E.S. Mega Lipotropic Fmla W B6bet; Ultra Enerforce; Ultra Hr; Usana Megavitamin Tablets - Tab; V & M Vitamin and Mineral Supplement; V-Natal; VIL-Rx; VITAFOL Gummies; VP CH Plus; VP CH Ultra; VP-HEME One; VP-Vite Rx; Vasculine; Vasodyn Tab; Vasula Tab; Vc II; Vege 1 Daily Tab; Vege Swiss One Multivitamin W Chel Mins Tab; VemaVite-PRx 2 with Fish-Based DHA; Vena-Bal DHA; Venexa; Venexa FE; Ventrixyl; Ventrixyl Fe; Viamon Ampoules Et Comprimes; Vigo Multivitamins Drops/lozenge; Vimeral Tab; Vinacal; Vinate AZ; Vinate Care; Viprot; Virt Nate; Virt Vite GT; Virt-Advance; Virt-Bal DHA Plus; Virt-C DHA; Virt-Caps; Virt-Care One; Virt-Gard; Virt-Nate; Virt-Nate DHA; Virt-PN; Virt-PN DHA; Virt-PN Plus; Virt-Pn; Virt-Pn DHA; Virt-Select PRENATAL/POSTNATAL; Virt-Tabs; Virt-Vite; Virt-Vite Forte; Virt-Vite Plus; VirtPrex; Vit B Complex Ctr; Vit B Complex Plus Vit C 550mg; Vit B6 Ctr Srt 100mg; Vit B6 Pyridoxine HCl Tab 50mg USP; Vit B6 Tab 250mg; Vit-HA Multi Vitamin and Zinc Supplement; Vita B + C 500 Tab; Vita B Complex Tab; Vita Balance 2000; Vita Day Tab; Vita Plex Tab; Vita Vim Multivitamins and Minerals Tab; Vita Vim With Beta Carotene-caplet; Vita-B; Vita-B-75 Cap; Vita-doxine Cap 250mg; Vita-vim - Tab; Vita-vim With Beta-carotene - Tab; Vita-worth B-complex Tablets; VitaPhil Aide; VitaXyme; Vitabanks Vitamin Tab; Vitachrom Gc; Vitaday Junior Tab; Vitafant; Vitafer - Liq; Vitaflex Dietary Suplement; Vitafol; Vitafol Caplet; Vitafol Fe Plus; Vitafol Nano; Vitafol OB Caplet; Vitafol One; Vitafol Plus; Vitafol Ultra; Vitafol-OB Plus DHA Prenatal Supplement Plus DHA; Vital Be-100; Vital-D Rx; Vitalife - Capsule; Vitamin & Mineral Formula 1 Dietary Supplement; Vitamin B + C Cap; Vitamin B Complex; Vitamin B Complex + C 300mg Cap; Vitamin B Complex + C 600mg Tab; Vitamin B Complex 100; Vitamin B Complex 100 Tab; Vitamin B Complex 50; Vitamin B Complex Plus 300mg Vitamin C; Vitamin B Complex Plus C 300mg Timed Release; Vitamin B Complex Suppl; Vitamin B Complex Tab; Vitamin B Complex W C 300mg Tab; Vitamin B Complex W C Tab; Vitamin B Compound Tab; Vitamin B Compound W C Tab 500mg; Vitamin B Compound W Vit C 250mg Tab; Vitamin B Compound With Vitamin C Fortis Capsule Dtc; Vitamin B Cpd W Vit C Tab; Vitamin B Tablets; Vitamin B-6 100mg; Vitamin B-6 100mg Tab; Vitamin B-6 17mg Tab; Vitamin B-6 200mg; Vitamin B-6 50 Mg Tablet; Vitamin B-6 Tab 200mg; Vitamin B-Complex; Vitamin B6; Vitamin B6 & B12 With Folic Acid; Vitamin B6 100 Mg USP; Vitamin B6 100 mg; Vitamin B6 100mg; Vitamin B6 100mg Caplet; Vitamin B6 100mg Tab; Vitamin B6 200mg; Vitamin B6 250 Mg Capsules; Vitamin B6 50mg; Vitamin B6 50mg Tab; Vitamin B6 Cap 250mg; Vitamin B6 Capsules 100mg; Vitamin B6 Capsules 3.5mg; Vitamin B6 Tab 100mg; Vitamin B6 Tab 100mg USP; Vitamin B6 Tab 250mg; Vitamin B6 Tab 25mg; Vitamin B6 Tab 50mg; Vitamin B6 Tablet; Vitamin B6 Tablets 250mg; Vitamin B6 Tablets-250mg; Vitamine 110 Liq; Vitamine B6 100 Mg - Tablet; Vitamine B6 100mg; Vitamine B6 25mg Comprime; Vitamine B6 Tab 100mg USP; Vitamine B6 Tab 250mg; Vitamine B6 Tab 25mg USP Chewable; Vitamine Du Groupe B Plus Fer - Liq; Vitamines Et Mineraux; Vitamines Et Mineraux Comprimes; Vitamines Et Mineraux Enfants 970; Vitamines Pour Bebes Et Enfants; Vitamune; Vitaphil 90 DHA; Vitaphil DHA; Vitaplex; Vitasure; Vitazyme; Vitogen B Stress C Vit E Zinc & Cop; Vitogen B Stress C600; Vitramyn; Vitranol; Vitranol Fe; Vitrexate; Vitrexate FE; Vitrexyl; Vitrexyl plus Iron; Viva CT Prenatal; Viva Kids - Tab; Vol-Care Rx; Vol-Nate; Vol-Plus; Vol-Tab Rx; Vontee; Vp-CH-pnv; Vp-ggr-B6; Vp-heme Ob; Vp-heme Ob DHA; Vp-pnv-dha; Vp-zel; Vtb Vitamin and Mineral Supplement; Vyo Cylate - Pwr; Vyqua; Wellness Formula; WesCap-C-DHA; WesCap-PN DHA; WesCaps; WesNate DHA; WesTab Mini; WesTab Plus; WestGel DHA; Women's Biomultiple Vitamin and Mineral Supplement; Women's Change Formula; Women's Formula; Xvite; Z Bec Tab; Z-force Vitamin and Mineral Supplement; Z-mass PM Vitamin and Mineral Supplement; Zatean-CH; Zatean-Pn; Zatean-Pn DHA; Zatean-Pn Plus; Zeldana; Zinc Plus Vitamin B6 Tab; Zinc Plus Vitamins C & B6 Lozenges; Zingiber; Zintrexyl-C; Zoo Chews; Zoo Chews Plus Iron; Zyvana; ahoSAN; bioJET; healthy mamaBE WELL ROUNDED BE WELL ROUNDED; hormaSAN forte; natelle COMPLETE; tensioSAN; vitaMedMD One Rx; vitaMedMD Rx Plus

> <INTERNATIONAL_BRANDS>
Becilan; Beesix; Benadon; Bonasanit; Hexa-Betalin; Hexobion; Nestrex

> <SALTS>
Pyridoxine hydrochloride

$$$$
