
  Mrv0541 05041408512D          

 47 50  0  0  1  0            999 V2000
   -2.9157   -9.6798    0.0000 C   0  0  0  0  0  0  0  0  0  0  0  0
   -0.5683   -1.4940    0.0000 C   0  0  0  0  0  0  0  0  0  0  0  0
   -2.3119   -5.4102    0.0000 C   0  0  0  0  0  0  0  0  0  0  0  0
    3.3523    1.1104    0.0000 C   0  0  0  0  0  0  0  0  0  0  0  0
    0.6538    1.5229    0.0000 C   0  0  0  0  0  0  0  0  0  0  0  0
   -2.5032   -8.9653    0.0000 C   0  0  0  0  0  0  0  0  0  0  0  0
    0.0992   -1.0091    0.0000 C   0  0  2  0  0  0  0  0  0  0  0  0
   -2.2257   -6.2307    0.0000 C   0  0  2  0  0  0  0  0  0  0  0  0
    1.9233    1.9354    0.0000 C   0  0  0  0  0  0  0  0  0  0  0  0
    0.8838   -1.2640    0.0000 C   0  0  2  0  0  0  0  0  0  0  0  0
   -2.8387   -6.7827    0.0000 C   0  0  2  0  0  0  0  0  0  0  0  0
    1.3687   -0.5966    0.0000 C   0  0  2  0  0  0  0  0  0  0  0  0
   -2.5032   -7.5364    0.0000 C   0  0  2  0  0  0  0  0  0  0  0  0
    2.6378    2.3479    0.0000 C   0  0  0  0  0  0  0  0  0  0  0  0
    1.9233    1.1104    0.0000 C   0  0  0  0  0  0  0  0  0  0  0  0
    0.8838    0.0709    0.0000 C   0  0  2  0  0  0  0  0  0  0  0  0
   -1.6827   -7.4501    0.0000 C   0  0  1  0  0  0  0  0  0  0  0  0
    2.6378    3.1729    0.0000 N   0  0  0  0  0  0  0  0  0  0  0  0
    3.3523    1.9354    0.0000 N   0  0  0  0  0  0  0  0  0  0  0  0
    2.6378    0.6979    0.0000 N   0  0  0  0  0  0  0  0  0  0  0  0
    1.1387    2.1904    0.0000 N   0  0  0  0  0  0  0  0  0  0  0  0
    1.1387    0.8555    0.0000 N   0  0  0  0  0  0  0  0  0  0  0  0
   -1.6782   -8.9653    0.0000 O   0  0  0  0  0  0  0  0  0  0  0  0
    1.1387   -2.0486    0.0000 O   0  0  0  0  0  0  0  0  0  0  0  0
   -3.6457   -6.6112    0.0000 O   0  0  0  0  0  0  0  0  0  0  0  0
    2.1937   -0.5966    0.0000 O   0  0  0  0  0  0  0  0  0  0  0  0
   -1.1307   -8.0632    0.0000 O   0  0  0  0  0  0  0  0  0  0  0  0
   -0.6646   -3.4668    0.0000 O   0  0  0  0  0  0  0  0  0  0  0  0
   -1.6344   -2.1319    0.0000 O   0  0  0  0  0  0  0  0  0  0  0  0
   -0.9102   -4.0186    0.0000 O   0  0  0  0  0  0  0  0  0  0  0  0
   -2.5512   -4.1910    0.0000 O   0  0  0  0  0  0  0  0  0  0  0  0
   -0.4820   -2.3145    0.0000 O   0  0  0  0  0  0  0  0  0  0  0  0
   -1.6444   -4.9253    0.0000 O   0  0  0  0  0  0  0  0  0  0  0  0
   -2.9157   -8.2508    0.0000 O   0  0  0  0  0  0  0  0  0  0  0  0
    0.0992   -0.1841    0.0000 O   0  0  0  0  0  0  0  0  0  0  0  0
   -1.5112   -6.6432    0.0000 O   0  0  0  0  0  0  0  0  0  0  0  0
   -1.8169   -3.2843    0.0000 O   0  0  0  0  0  0  0  0  0  0  0  0
   -1.1495   -2.7994    0.0000 P   0  0  0  0  0  0  0  0  0  0  0  0
   -1.7307   -4.1048    0.0000 P   0  0  0  0  0  0  0  0  0  0  0  0
    0.4991   -1.7306    0.0000 H   0  0  0  0  0  0  0  0  0  0  0  0
   -3.0505   -6.2163    0.0000 H   0  0  0  0  0  0  0  0  0  0  0  0
    0.5351   -2.0117    0.0000 H   0  0  0  0  0  0  0  0  0  0  0  0
   -3.3119   -6.1069    0.0000 H   0  0  0  0  0  0  0  0  0  0  0  0
    1.7432   -1.3316    0.0000 H   0  0  0  0  0  0  0  0  0  0  0  0
   -3.3271   -7.4932    0.0000 H   0  0  0  0  0  0  0  0  0  0  0  0
    1.6986    0.1999    0.0000 H   0  0  0  0  0  0  0  0  0  0  0  0
   -1.9784   -8.2203    0.0000 H   0  0  0  0  0  0  0  0  0  0  0  0
  6  1  1  0  0  0  0
  7  2  1  1  0  0  0
  8  3  1  1  0  0  0
 10  7  1  0  0  0  0
 11  8  1  0  0  0  0
 12 10  1  0  0  0  0
 13 11  1  0  0  0  0
 14  9  2  0  0  0  0
 15  9  1  0  0  0  0
 16 12  1  0  0  0  0
 17 13  1  0  0  0  0
 18 14  1  0  0  0  0
 19  4  2  0  0  0  0
 19 14  1  0  0  0  0
 20  4  1  0  0  0  0
 20 15  2  0  0  0  0
 21  5  2  0  0  0  0
 21  9  1  0  0  0  0
 22  5  1  0  0  0  0
 22 15  1  0  0  0  0
 16 22  1  1  0  0  0
 23  6  2  0  0  0  0
 10 24  1  6  0  0  0
 11 25  1  6  0  0  0
 12 26  1  6  0  0  0
 17 27  1  6  0  0  0
 32  2  1  0  0  0  0
 33  3  1  0  0  0  0
 34  6  1  0  0  0  0
 13 34  1  6  0  0  0
 35  7  1  0  0  0  0
 35 16  1  0  0  0  0
 36  8  1  0  0  0  0
 36 17  1  0  0  0  0
 38 28  1  0  0  0  0
 38 29  2  0  0  0  0
 38 32  1  0  0  0  0
 38 37  1  0  0  0  0
 39 30  1  0  0  0  0
 39 31  2  0  0  0  0
 39 33  1  0  0  0  0
 39 37  1  0  0  0  0
  7 40  1  6  0  0  0
  8 41  1  6  0  0  0
 10 42  1  1  0  0  0
 11 43  1  1  0  0  0
 12 44  1  1  0  0  0
 13 45  1  1  0  0  0
 16 46  1  6  0  0  0
 17 47  1  1  0  0  0
M  END
> <DATABASE_ID>
DB03478

> <DATABASE_NAME>
drugbank

> <SMILES>
[H][C@]1(O)O[C@]([H])(COP(O)(=O)OP(O)(=O)OC[C@@]2([H])O[C@@]([H])(N3C=NC4=C(N)N=CN=C34)[C@]([H])(O)[C@]2([H])O)[C@@]([H])(O)[C@@]1([H])OC(C)=O

> <INCHI_IDENTIFIER>
InChI=1S/C17H25N5O15P2/c1-6(23)34-13-11(25)8(36-17(13)27)3-33-39(30,31)37-38(28,29)32-2-7-10(24)12(26)16(35-7)22-5-21-9-14(18)19-4-20-15(9)22/h4-5,7-8,10-13,16-17,24-27H,2-3H2,1H3,(H,28,29)(H,30,31)(H2,18,19,20)/t7-,8-,10-,11-,12-,13-,16-,17+/m1/s1

> <INCHI_KEY>
BFNOPXRXIQJDHO-DLFWLGJNSA-N

> <FORMULA>
C17H25N5O15P2

> <MOLECULAR_WEIGHT>
601.3524

> <EXACT_MASS>
601.082238179

> <JCHEM_ACCEPTOR_COUNT>
15

> <JCHEM_ATOM_COUNT>
64

> <JCHEM_AVERAGE_NEUTRAL_MICROSPECIES_CHARGE>
-1.9917262091372565

> <JCHEM_AVERAGE_POLARIZABILITY>
50.673801502416225

> <JCHEM_BIOAVAILABILITY>
0

> <JCHEM_DONOR_COUNT>
7

> <JCHEM_FORMAL_CHARGE>
0

> <JCHEM_GHOSE_FILTER>
0

> <JCHEM_IUPAC>
[({[(2R,3R,4R,5S)-4-(acetyloxy)-3,5-dihydroxyoxolan-2-yl]methoxy}(hydroxy)phosphoryl)oxy]({[(2R,3S,4R,5R)-5-(6-amino-9H-purin-9-yl)-3,4-dihydroxyoxolan-2-yl]methoxy})phosphinic acid

> <ALOGPS_LOGP>
-1.67

> <JCHEM_LOGP>
-5.720423477499784

> <ALOGPS_LOGS>
-2.23

> <JCHEM_MDDR_LIKE_RULE>
1

> <JCHEM_NEUTRAL_CHARGE>
-2

> <JCHEM_NUMBER_OF_RINGS>
4

> <JCHEM_PHYSIOLOGICAL_CHARGE>
-2

> <JCHEM_PKA>
2.2830270023306096

> <JCHEM_PKA_STRONGEST_ACIDIC>
1.8542479141773074

> <JCHEM_PKA_STRONGEST_BASIC>
4.9307312573526065

> <JCHEM_POLAR_SURFACE_AREA>
297.59000000000003

> <JCHEM_REFRACTIVITY>
120.27479999999997

> <JCHEM_ROTATABLE_BOND_COUNT>
11

> <JCHEM_RULE_OF_FIVE>
0

> <ALOGPS_SOLUBILITY>
3.54e+00 g/l

> <JCHEM_TRADITIONAL_IUPAC>
biotin

> <JCHEM_VEBER_RULE>
0

> <DRUGBANK_ID>
DB03478

> <SECONDARY_ACCESSION_NUMBERS>
EXPT02408

> <DRUG_GROUPS>
experimental

> <GENERIC_NAME>
2'-O-Acetyl Adenosine-5-Diphosphoribose

$$$$
