
  Mrv0541 02231218122D          

 52 51  0  0  1  0            999 V2000
    5.2224   -3.8174    0.0000 P   0  0  0  0  0  0  0  0  0  0  0  0
    4.5080   -4.2299    0.0000 O   0  0  0  0  0  0  0  0  0  0  0  0
    8.0804   -3.8174    0.0000 O   0  0  0  0  0  0  0  0  0  0  0  0
    5.9370   -3.4048    0.0000 O   0  0  0  0  0  0  0  0  0  0  0  0
    8.0804   -2.1673    0.0000 O   0  0  0  0  0  0  0  0  0  0  0  0
    8.7949   -2.5798    0.0000 O   0  0  0  0  0  0  0  0  0  0  0  0
    4.8099   -3.1029    0.0000 O   0  5  0  0  0  0  0  0  0  0  0  0
    5.6350   -4.5318    0.0000 O   0  0  0  0  0  0  0  0  0  0  0  0
    7.3659   -0.9298    0.0000 O   0  0  0  0  0  0  0  0  0  0  0  0
    2.3645   -3.8174    0.0000 N   0  3  0  0  0  0  0  0  0  0  0  0
   13.7963   -3.8174    0.0000 C   0  0  0  0  0  0  0  0  0  0  0  0
   14.5108   -3.4048    0.0000 C   0  0  0  0  0  0  0  0  0  0  0  0
   13.0818   -3.4048    0.0000 C   0  0  0  0  0  0  0  0  0  0  0  0
   15.2253   -3.8174    0.0000 C   0  0  0  0  0  0  0  0  0  0  0  0
   12.3674   -3.8174    0.0000 C   0  0  0  0  0  0  0  0  0  0  0  0
   15.9398   -3.4048    0.0000 C   0  0  0  0  0  0  0  0  0  0  0  0
   11.6529   -3.4048    0.0000 C   0  0  0  0  0  0  0  0  0  0  0  0
   16.6542   -3.8174    0.0000 C   0  0  0  0  0  0  0  0  0  0  0  0
   10.9383   -3.8174    0.0000 C   0  0  0  0  0  0  0  0  0  0  0  0
   17.3688   -3.4048    0.0000 C   0  0  0  0  0  0  0  0  0  0  0  0
    3.0791   -4.2299    0.0000 C   0  0  0  0  0  0  0  0  0  0  0  0
   10.2239   -3.4048    0.0000 C   0  0  0  0  0  0  0  0  0  0  0  0
   18.0832   -3.8174    0.0000 C   0  0  0  0  0  0  0  0  0  0  0  0
    1.6500   -3.4048    0.0000 C   0  0  0  0  0  0  0  0  0  0  0  0
    1.9520   -4.5318    0.0000 C   0  0  0  0  0  0  0  0  0  0  0  0
    2.7770   -3.1029    0.0000 C   0  0  0  0  0  0  0  0  0  0  0  0
    3.7935   -3.8174    0.0000 C   0  0  0  0  0  0  0  0  0  0  0  0
    9.5094   -3.8174    0.0000 C   0  0  0  0  0  0  0  0  0  0  0  0
   18.7977   -3.4048    0.0000 C   0  0  0  0  0  0  0  0  0  0  0  0
    9.5094    1.1327    0.0000 C   0  0  0  0  0  0  0  0  0  0  0  0
   10.2239    1.5453    0.0000 C   0  0  0  0  0  0  0  0  0  0  0  0
    9.5094    0.3077    0.0000 C   0  0  0  0  0  0  0  0  0  0  0  0
   14.5108    4.0203    0.0000 C   0  0  0  0  0  0  0  0  0  0  0  0
   13.7963    3.6078    0.0000 C   0  0  0  0  0  0  0  0  0  0  0  0
   10.2239    2.3703    0.0000 C   0  0  0  0  0  0  0  0  0  0  0  0
   15.2253    3.6078    0.0000 C   0  0  0  0  0  0  0  0  0  0  0  0
   13.0818    4.0203    0.0000 C   0  0  0  0  0  0  0  0  0  0  0  0
    8.7949   -3.4048    0.0000 C   0  0  0  0  0  0  0  0  0  0  0  0
    8.7949   -0.1048    0.0000 C   0  0  0  0  0  0  0  0  0  0  0  0
    7.3659   -3.4048    0.0000 C   0  0  0  0  0  0  0  0  0  0  0  0
   19.5122   -3.8174    0.0000 C   0  0  0  0  0  0  0  0  0  0  0  0
   10.9383    2.7828    0.0000 C   0  0  0  0  0  0  0  0  0  0  0  0
   15.9398    4.0203    0.0000 C   0  0  0  0  0  0  0  0  0  0  0  0
   12.3674    3.6078    0.0000 C   0  0  0  0  0  0  0  0  0  0  0  0
    8.7949   -0.9298    0.0000 C   0  0  0  0  0  0  0  0  0  0  0  0
    6.6515   -3.8174    0.0000 C   0  0  0  0  0  0  0  0  0  0  0  0
    7.3659   -2.5798    0.0000 C   0  0  0  0  0  0  0  0  0  0  0  0
   10.9383    3.6078    0.0000 C   0  0  0  0  0  0  0  0  0  0  0  0
   16.6542    3.6078    0.0000 C   0  0  0  0  0  0  0  0  0  0  0  0
   11.6529    4.0203    0.0000 C   0  0  0  0  0  0  0  0  0  0  0  0
    8.0804   -1.3423    0.0000 C   0  0  0  0  0  0  0  0  0  0  0  0
   17.3688    4.0203    0.0000 C   0  0  0  0  0  0  0  0  0  0  0  0
  1  2  1  0  0  0  0
  1  4  1  0  0  0  0
  1  7  1  0  0  0  0
  1  8  2  0  0  0  0
  2 27  1  0  0  0  0
  3 38  1  0  0  0  0
  3 40  1  0  0  0  0
  4 46  1  0  0  0  0
  5 47  1  0  0  0  0
  5 51  1  0  0  0  0
  6 38  2  0  0  0  0
  9 51  2  0  0  0  0
 10 21  1  0  0  0  0
 10 24  1  0  0  0  0
 10 25  1  0  0  0  0
 10 26  1  0  0  0  0
 11 12  1  0  0  0  0
 11 13  1  0  0  0  0
 12 14  1  0  0  0  0
 13 15  1  0  0  0  0
 14 16  1  0  0  0  0
 15 17  1  0  0  0  0
 16 18  1  0  0  0  0
 17 19  1  0  0  0  0
 18 20  1  0  0  0  0
 19 22  1  0  0  0  0
 20 23  1  0  0  0  0
 21 27  1  0  0  0  0
 22 28  1  0  0  0  0
 23 29  1  0  0  0  0
 28 38  1  0  0  0  0
 29 41  1  0  0  0  0
 30 31  1  0  0  0  0
 30 32  1  0  0  0  0
 31 35  1  0  0  0  0
 32 39  1  0  0  0  0
 33 34  1  0  0  0  0
 33 36  1  0  0  0  0
 34 37  1  0  0  0  0
 35 42  1  0  0  0  0
 36 43  1  0  0  0  0
 37 44  1  0  0  0  0
 39 45  1  0  0  0  0
 40 46  1  0  0  0  0
 40 47  1  0  0  0  0
 42 48  1  0  0  0  0
 43 49  1  0  0  0  0
 44 50  1  0  0  0  0
 45 51  1  0  0  0  0
 48 50  2  0  0  0  0
 49 52  1  0  0  0  0
M  CHG  2   7  -1  10   1
M  END
> <DATABASE_ID>
DB05456

> <DATABASE_NAME>
drugbank

> <SMILES>
CCCCCCCCCCCCCCCC(=O)OC(COC(=O)CCCCCCC\C=C/CCCCCCCC)COP([O-])(=O)OCC[N+](C)(C)C

> <INCHI_IDENTIFIER>
InChI=1S/C42H82NO8P/c1-6-8-10-12-14-16-18-20-21-23-24-26-28-30-32-34-41(44)48-38-40(39-50-52(46,47)49-37-36-43(3,4)5)51-42(45)35-33-31-29-27-25-22-19-17-15-13-11-9-7-2/h20-21,40H,6-19,22-39H2,1-5H3/b21-20-

> <INCHI_KEY>
RRVPPYNAZJRZFR-MRCUWXFGSA-N

> <FORMULA>
C42H82NO8P

> <MOLECULAR_WEIGHT>
760.0761

> <EXACT_MASS>
759.577805117

> <JCHEM_ACCEPTOR_COUNT>
4

> <JCHEM_ATOM_COUNT>
134

> <JCHEM_AVERAGE_NEUTRAL_MICROSPECIES_CHARGE>
7.1623261702624674e-06

> <JCHEM_AVERAGE_POLARIZABILITY>
93.43294735744112

> <JCHEM_BIOAVAILABILITY>
0

> <JCHEM_DONOR_COUNT>
0

> <JCHEM_FORMAL_CHARGE>
0

> <JCHEM_GHOSE_FILTER>
0

> <JCHEM_IUPAC>
(2-{[2-(hexadecanoyloxy)-3-[(9Z)-octadec-9-enoyloxy]propyl phosphonato]oxy}ethyl)trimethylazanium

> <ALOGPS_LOGP>
5.59

> <JCHEM_LOGP>
8.641012052528252

> <ALOGPS_LOGS>
-7.60

> <JCHEM_MDDR_LIKE_RULE>
0

> <JCHEM_NEUTRAL_CHARGE>
0

> <JCHEM_NUMBER_OF_RINGS>
0

> <JCHEM_PHYSIOLOGICAL_CHARGE>
0

> <JCHEM_PKA_STRONGEST_ACIDIC>
1.8550572064469142

> <JCHEM_PKA_STRONGEST_BASIC>
-6.7441593091697225

> <JCHEM_POLAR_SURFACE_AREA>
111.19

> <JCHEM_REFRACTIVITY>
226.18370000000002

> <JCHEM_ROTATABLE_BOND_COUNT>
41

> <JCHEM_RULE_OF_FIVE>
0

> <ALOGPS_SOLUBILITY>
2.06e-05 g/l

> <JCHEM_TRADITIONAL_IUPAC>
biotin

> <JCHEM_VEBER_RULE>
0

> <DRUGBANK_ID>
DB05456

> <DRUG_GROUPS>
investigational

> <GENERIC_NAME>
ETC-588

$$$$
