
  Mrv0541 02231216482D          

 13 12  0  0  1  0            999 V2000
    3.9039    0.6039    0.0000 O   0  0  0  0  0  0  0  0  0  0  0  0
    3.9039    1.4289    0.0000 C   0  0  1  0  0  0  0  0  0  0  0  0
    3.1895    1.8414    0.0000 C   0  0  0  0  0  0  0  0  0  0  0  0
    2.4750    1.4289    0.0000 C   0  0  0  0  0  0  0  0  0  0  0  0
    2.4750    0.6039    0.0000 O   0  0  0  0  0  0  0  0  0  0  0  0
    1.7605    1.8414    0.0000 C   0  0  0  0  0  0  0  0  0  0  0  0
    1.0461    1.4289    0.0000 O   0  5  0  0  0  0  0  0  0  0  0  0
    1.7605    2.6664    0.0000 O   0  0  0  0  0  0  0  0  0  0  0  0
    4.6184    1.8414    0.0000 C   0  0  1  0  0  0  0  0  0  0  0  0
    4.6184    2.6664    0.0000 O   0  0  0  0  0  0  0  0  0  0  0  0
    5.3329    1.4289    0.0000 C   0  0  0  0  0  0  0  0  0  0  0  0
    6.0474    1.8414    0.0000 O   0  5  0  0  0  0  0  0  0  0  0  0
    5.3329    0.6039    0.0000 O   0  0  0  0  0  0  0  0  0  0  0  0
  2  1  1  1  0  0  0
  2  3  1  0  0  0  0
  3  4  1  0  0  0  0
  4  5  2  0  0  0  0
  4  6  1  0  0  0  0
  6  7  1  0  0  0  0
  6  8  2  0  0  0  0
  2  9  1  0  0  0  0
  9 10  1  1  0  0  0
  9 11  1  0  0  0  0
 11 12  1  0  0  0  0
 11 13  2  0  0  0  0
M  CHG  2   7  -1  12  -1
M  END
> <DATABASE_ID>
DB03237

> <DATABASE_NAME>
drugbank

> <SMILES>
O[C@@H](CC(=O)C([O-])=O)[C@@H](O)C([O-])=O

> <INCHI_IDENTIFIER>
InChI=1S/C6H8O7/c7-2(4(9)6(12)13)1-3(8)5(10)11/h2,4,7,9H,1H2,(H,10,11)(H,12,13)/p-2/t2-,4+/m0/s1

> <INCHI_KEY>
QUURPCHWPQNNGL-ZAFYKAAXSA-L

> <FORMULA>
C6H6O7

> <MOLECULAR_WEIGHT>
190.1076

> <EXACT_MASS>
190.011352546

> <JCHEM_ACCEPTOR_COUNT>
7

> <JCHEM_ATOM_COUNT>
19

> <JCHEM_AVERAGE_NEUTRAL_MICROSPECIES_CHARGE>
-1.9998069758978398

> <JCHEM_AVERAGE_POLARIZABILITY>
14.694627719914209

> <JCHEM_BIOAVAILABILITY>
1

> <JCHEM_DONOR_COUNT>
2

> <JCHEM_FORMAL_CHARGE>
-2

> <JCHEM_GHOSE_FILTER>
0

> <JCHEM_IUPAC>
(2R,3S)-2,3-dihydroxy-5-oxohexanedioate

> <ALOGPS_LOGP>
-1.36

> <JCHEM_LOGP>
-1.4547567023333332

> <ALOGPS_LOGS>
0.06

> <JCHEM_MDDR_LIKE_RULE>
0

> <JCHEM_NEUTRAL_CHARGE>
-2

> <JCHEM_NUMBER_OF_RINGS>
0

> <JCHEM_PHYSIOLOGICAL_CHARGE>
-2

> <JCHEM_PKA>
3.33838439791637

> <JCHEM_PKA_STRONGEST_ACIDIC>
2.4970879353607827

> <JCHEM_PKA_STRONGEST_BASIC>
-3.3482003818927395

> <JCHEM_POLAR_SURFACE_AREA>
137.79000000000002

> <JCHEM_REFRACTIVITY>
57.85790000000001

> <JCHEM_ROTATABLE_BOND_COUNT>
5

> <JCHEM_RULE_OF_FIVE>
1

> <ALOGPS_SOLUBILITY>
2.62e+02 g/l

> <JCHEM_TRADITIONAL_IUPAC>
biotin

> <JCHEM_VEBER_RULE>
0

> <DRUGBANK_ID>
DB03237

> <SECONDARY_ACCESSION_NUMBERS>
EXPT01611

> <DRUG_GROUPS>
experimental

> <GENERIC_NAME>
2,3-Dihydroxy-5-Oxo-Hexanedioate

$$$$
