
  Mrv0541 02231218082D          

 87 93  0  0  1  0            999 V2000
    4.2474   -7.9376    0.0000 O   0  0  0  0  0  0  0  0  0  0  0  0
    5.2019   -6.8962    0.0000 O   0  0  0  0  0  0  0  0  0  0  0  0
    5.6154   -6.1413    0.0000 O   0  0  0  0  0  0  0  0  0  0  0  0
    5.7911   -5.4915    0.0000 O   0  0  0  0  0  0  0  0  0  0  0  0
    2.0594   -5.7459    0.0000 O   0  0  0  0  0  0  0  0  0  0  0  0
    2.9243   -3.4501    0.0000 O   0  0  0  0  0  0  0  0  0  0  0  0
    2.3669   -4.7957    0.0000 O   0  0  0  0  0  0  0  0  0  0  0  0
    6.2597   -2.8058    0.0000 O   0  0  0  0  0  0  0  0  0  0  0  0
    6.1553   -8.1189    0.0000 O   0  0  0  0  0  0  0  0  0  0  0  0
    6.7859   -5.3216    0.0000 O   0  0  0  0  0  0  0  0  0  0  0  0
    3.9347   -2.4397    0.0000 O   0  0  0  0  0  0  0  0  0  0  0  0
    7.2702   -3.8162    0.0000 O   0  0  0  0  0  0  0  0  0  0  0  0
    7.4265   -1.6390    0.0000 O   0  0  0  0  0  0  0  0  0  0  0  0
    6.0462   -2.0089    0.0000 O   0  0  0  0  0  0  0  0  0  0  0  0
   10.0307   -3.0765    0.0000 O   0  0  0  0  0  0  0  0  0  0  0  0
    8.6505   -3.4464    0.0000 N   0  0  0  0  0  0  0  0  0  0  0  0
    4.2698   -5.8736    0.0000 C   0  0  2  0  0  0  0  0  0  0  0  0
    4.3951   -6.7238    0.0000 C   0  0  2  0  0  0  0  0  0  0  0  0
    3.5077   -5.5579    0.0000 C   0  0  1  0  0  0  0  0  0  0  0  0
    3.7174   -7.2521    0.0000 C   0  0  1  0  0  0  0  0  0  0  0  0
    5.0321   -5.5579    0.0000 C   0  0  1  0  0  0  0  0  0  0  0  0
    5.3478   -4.7957    0.0000 C   0  0  2  0  0  0  0  0  0  0  0  0
    2.8179   -6.0705    0.0000 C   0  0  2  0  0  0  0  0  0  0  0  0
    2.9235   -6.9233    0.0000 C   0  0  0  0  0  0  0  0  0  0  0  0
    5.0321   -4.0335    0.0000 C   0  0  0  0  0  0  0  0  0  0  0  0
    4.9307   -7.4049    0.0000 C   0  0  0  0  0  0  0  0  0  0  0  0
    3.1920   -4.7957    0.0000 C   0  0  0  0  0  0  0  0  0  0  0  0
    5.9031   -4.1838    0.0000 C   0  0  0  0  0  0  0  0  0  0  0  0
    4.2698   -3.7177    0.0000 C   0  0  0  0  0  0  0  0  0  0  0  0
    2.7455   -5.2422    0.0000 C   0  0  0  0  0  0  0  0  0  0  0  0
    3.5077   -4.0335    0.0000 C   0  0  1  0  0  0  0  0  0  0  0  0
    5.6764   -3.3891    0.0000 C   0  0  1  0  0  0  0  0  0  0  0  0
    4.8817   -3.1624    0.0000 C   0  0  0  0  0  0  0  0  0  0  0  0
    5.9485   -3.7879    0.0000 C   0  0  0  0  0  0  0  0  0  0  0  0
    5.2777   -3.1170    0.0000 C   0  0  0  0  0  0  0  0  0  0  0  0
    4.6940   -2.3590    0.0000 C   0  0  0  0  0  0  0  0  0  0  0  0
    5.4561   -7.6810    0.0000 C   0  0  0  0  0  0  0  0  0  0  0  0
    6.4373   -6.0693    0.0000 C   0  0  0  0  0  0  0  0  0  0  0  0
    4.9034   -8.2936    0.0000 C   0  0  0  0  0  0  0  0  0  0  0  0
    3.1378   -2.6532    0.0000 C   0  0  0  0  0  0  0  0  0  0  0  0
    7.0566   -3.0193    0.0000 C   0  0  0  0  0  0  0  0  0  0  0  0
    7.1131   -6.5426    0.0000 C   0  0  0  0  0  0  0  0  0  0  0  0
    7.6400   -2.4359    0.0000 C   0  0  1  0  0  0  0  0  0  0  0  0
    2.5545   -2.0699    0.0000 C   0  0  0  0  0  0  0  0  0  0  0  0
    7.8608   -6.1939    0.0000 C   0  0  0  0  0  0  0  0  0  0  0  0
    7.0412   -7.3644    0.0000 C   0  0  0  0  0  0  0  0  0  0  0  0
    8.4369   -2.6495    0.0000 C   0  0  2  0  0  0  0  0  0  0  0  0
    8.5366   -6.6671    0.0000 C   0  0  0  0  0  0  0  0  0  0  0  0
    7.7170   -7.8377    0.0000 C   0  0  0  0  0  0  0  0  0  0  0  0
    8.4647   -7.4889    0.0000 C   0  0  0  0  0  0  0  0  0  0  0  0
    9.0203   -2.0661    0.0000 C   0  0  0  0  0  0  0  0  0  0  0  0
    6.6296   -1.4255    0.0000 C   0  0  0  0  0  0  0  0  0  0  0  0
    8.8068   -1.2692    0.0000 C   0  0  0  0  0  0  0  0  0  0  0  0
    9.8172   -2.2797    0.0000 C   0  0  0  0  0  0  0  0  0  0  0  0
    9.4473   -3.6599    0.0000 C   0  0  0  0  0  0  0  0  0  0  0  0
    6.4161   -0.6287    0.0000 C   0  0  0  0  0  0  0  0  0  0  0  0
    9.3902   -0.6858    0.0000 C   0  0  0  0  0  0  0  0  0  0  0  0
   10.4005   -1.6963    0.0000 C   0  0  0  0  0  0  0  0  0  0  0  0
    9.6608   -4.4568    0.0000 C   0  0  0  0  0  0  0  0  0  0  0  0
    6.9994   -0.0453    0.0000 C   0  0  0  0  0  0  0  0  0  0  0  0
   10.1870   -0.8993    0.0000 C   0  0  0  0  0  0  0  0  0  0  0  0
   10.4578   -4.6703    0.0000 C   0  0  0  0  0  0  0  0  0  0  0  0
    9.0775   -5.0401    0.0000 C   0  0  0  0  0  0  0  0  0  0  0  0
    6.7859    0.7517    0.0000 C   0  0  0  0  0  0  0  0  0  0  0  0
   10.6713   -5.4672    0.0000 C   0  0  0  0  0  0  0  0  0  0  0  0
    9.2910   -5.8371    0.0000 C   0  0  0  0  0  0  0  0  0  0  0  0
    7.3693    1.3350    0.0000 C   0  0  0  0  0  0  0  0  0  0  0  0
   10.0879   -6.0506    0.0000 C   0  0  0  0  0  0  0  0  0  0  0  0
    8.1662    1.1215    0.0000 C   0  0  0  0  0  0  0  0  0  0  0  0
    8.7495    1.7049    0.0000 C   0  0  0  0  0  0  0  0  0  0  0  0
    8.5360    2.5018    0.0000 C   0  0  0  0  0  0  0  0  0  0  0  0
    7.7392    2.7153    0.0000 C   0  0  0  0  0  0  0  0  0  0  0  0
    7.5256    3.5121    0.0000 C   0  0  0  0  0  0  0  0  0  0  0  0
    6.7287    3.7257    0.0000 C   0  0  0  0  0  0  0  0  0  0  0  0
    6.1453    3.1423    0.0000 C   0  0  0  0  0  0  0  0  0  0  0  0
    5.3484    3.3559    0.0000 C   0  0  0  0  0  0  0  0  0  0  0  0
    5.1349    4.1528    0.0000 C   0  0  0  0  0  0  0  0  0  0  0  0
    5.7183    4.7361    0.0000 C   0  0  0  0  0  0  0  0  0  0  0  0
    5.5048    5.5330    0.0000 C   0  0  0  0  0  0  0  0  0  0  0  0
    6.0881    6.1164    0.0000 C   0  0  0  0  0  0  0  0  0  0  0  0
    6.8850    5.9028    0.0000 C   0  0  0  0  0  0  0  0  0  0  0  0
    7.4684    6.4862    0.0000 C   0  0  0  0  0  0  0  0  0  0  0  0
    7.2549    7.2831    0.0000 C   0  0  0  0  0  0  0  0  0  0  0  0
    6.4579    7.4967    0.0000 C   0  0  0  0  0  0  0  0  0  0  0  0
    6.2444    8.2936    0.0000 C   0  0  0  0  0  0  0  0  0  0  0  0
    4.8796   -6.1262    0.0000 H   0  0  0  0  0  0  0  0  0  0  0  0
    3.3166   -7.7765    0.0000 H   0  0  0  0  0  0  0  0  0  0  0  0
  1 20  1  0  0  0  0
  1 26  1  0  0  0  0
 18  2  1  1  0  0  0
  2 37  1  0  0  0  0
 21  3  1  1  0  0  0
  3 38  1  0  0  0  0
 22  4  1  6  0  0  0
 23  5  1  6  0  0  0
 31  6  1  6  0  0  0
  6 40  1  0  0  0  0
  7 27  2  0  0  0  0
 32  8  1  1  0  0  0
  8 41  1  0  0  0  0
  9 37  2  0  0  0  0
 10 38  2  0  0  0  0
 11 40  2  0  0  0  0
 12 41  2  0  0  0  0
 43 13  1  6  0  0  0
 13 52  1  0  0  0  0
 14 52  2  0  0  0  0
 15 55  2  0  0  0  0
 47 16  1  6  0  0  0
 16 55  1  0  0  0  0
 17 18  1  0  0  0  0
 17 19  1  0  0  0  0
 17 21  1  0  0  0  0
 17 86  1  1  0  0  0
 18 20  1  0  0  0  0
 18 26  1  0  0  0  0
 19 23  1  0  0  0  0
 19 27  1  0  0  0  0
 19 30  1  6  0  0  0
 20 24  1  0  0  0  0
 20 87  1  1  0  0  0
 21 22  1  0  0  0  0
 22 25  1  0  0  0  0
 22 28  1  0  0  0  0
 23 24  1  0  0  0  0
 25 29  1  0  0  0  0
 25 34  1  0  0  0  0
 25 35  1  0  0  0  0
 27 31  1  0  0  0  0
 28 32  1  0  0  0  0
 29 31  1  0  0  0  0
 29 33  2  0  0  0  0
 32 33  1  0  0  0  0
 33 36  1  0  0  0  0
 37 39  1  0  0  0  0
 38 42  1  0  0  0  0
 40 44  1  0  0  0  0
 41 43  1  0  0  0  0
 42 45  2  0  0  0  0
 42 46  1  0  0  0  0
 43 47  1  0  0  0  0
 45 48  1  0  0  0  0
 46 49  2  0  0  0  0
 47 51  1  0  0  0  0
 48 50  2  0  0  0  0
 49 50  1  0  0  0  0
 51 53  2  0  0  0  0
 51 54  1  0  0  0  0
 52 56  1  0  0  0  0
 53 57  1  0  0  0  0
 54 58  2  0  0  0  0
 55 59  1  0  0  0  0
 56 60  1  0  0  0  0
 57 61  2  0  0  0  0
 58 61  1  0  0  0  0
 59 62  2  0  0  0  0
 59 63  1  0  0  0  0
 60 64  1  0  0  0  0
 62 65  1  0  0  0  0
 63 66  2  0  0  0  0
 64 67  2  0  0  0  0
 65 68  2  0  0  0  0
 66 68  1  0  0  0  0
 67 69  1  0  0  0  0
 69 70  1  0  0  0  0
 70 71  2  0  0  0  0
 71 72  1  0  0  0  0
 72 73  1  0  0  0  0
 73 74  2  0  0  0  0
 74 75  1  0  0  0  0
 75 76  1  0  0  0  0
 76 77  2  0  0  0  0
 77 78  1  0  0  0  0
 78 79  1  0  0  0  0
 79 80  2  0  0  0  0
 80 81  1  0  0  0  0
 81 82  1  0  0  0  0
 82 83  2  0  0  0  0
 83 84  1  0  0  0  0
 84 85  1  0  0  0  0
M  END
> <DATABASE_ID>
DB05297

> <DATABASE_NAME>
drugbank

> <SMILES>
CC\C=C/C\C=C/C\C=C/C\C=C/C\C=C/C\C=C/CCC(=O)O[C@@H](C(=O)O[C@H]1C[C@@]2(O)[C@@H](OC(=O)C3=CC=CC=C3)[C@@]3([H])[C@@](C)([C@@H](O)C[C@@]4([H])OC[C@@]34OC(=O)C)C(=O)[C@H](OC(=O)C)C(=C1C)C2(C)C)[C@@H](NC(=O)C1=CC=CC=C1)C1=CC=CC=C1

> <INCHI_IDENTIFIER>
InChI=1S/C69H81NO15/c1-8-9-10-11-12-13-14-15-16-17-18-19-20-21-22-23-24-25-35-42-55(74)83-59(57(49-36-29-26-30-37-49)70-63(76)50-38-31-27-32-39-50)65(78)82-52-44-69(79)62(84-64(77)51-40-33-28-34-41-51)60-67(7,53(73)43-54-68(60,45-80-54)85-48(4)72)61(75)58(81-47(3)71)56(46(52)2)66(69,5)6/h9-10,12-13,15-16,18-19,21-22,24-34,36-41,52-54,57-60,62,73,79H,8,11,14,17,20,23,35,42-45H2,1-7H3,(H,70,76)/b10-9-,13-12-,16-15-,19-18-,22-21-,25-24-/t52-,53-,54+,57-,58+,59+,60-,62-,67+,68-,69+/m0/s1

> <INCHI_KEY>
LRCZQSDQZJBHAF-PUBGEWHCSA-N

> <FORMULA>
C69H81NO15

> <MOLECULAR_WEIGHT>
1164.3791

> <EXACT_MASS>
1163.560620927

> <JCHEM_ACCEPTOR_COUNT>
10

> <JCHEM_ATOM_COUNT>
166

> <JCHEM_AVERAGE_NEUTRAL_MICROSPECIES_CHARGE>
-4.620911685671898e-06

> <JCHEM_AVERAGE_POLARIZABILITY>
124.76463891665378

> <JCHEM_BIOAVAILABILITY>
0

> <JCHEM_DONOR_COUNT>
3

> <JCHEM_FORMAL_CHARGE>
0

> <JCHEM_GHOSE_FILTER>
0

> <JCHEM_IUPAC>
(1S,2S,3R,4S,7R,9S,10S,12R,15S)-4,12-bis(acetyloxy)-15-{[(2R,3S)-2-[(4Z,7Z,10Z,13Z,16Z,19Z)-docosa-4,7,10,13,16,19-hexaenoyloxy]-3-phenyl-3-(phenylformamido)propanoyl]oxy}-1,9-dihydroxy-10,14,17,17-tetramethyl-11-oxo-6-oxatetracyclo[11.3.1.0^{3,10}.0^{4,7}]heptadec-13-en-2-yl benzoate

> <ALOGPS_LOGP>
6.99

> <JCHEM_LOGP>
10.955775972333331

> <ALOGPS_LOGS>
-7.18

> <JCHEM_MDDR_LIKE_RULE>
1

> <JCHEM_NEUTRAL_CHARGE>
0

> <JCHEM_NUMBER_OF_RINGS>
7

> <JCHEM_PHYSIOLOGICAL_CHARGE>
0

> <JCHEM_PKA>
13.059539297487392

> <JCHEM_PKA_STRONGEST_ACIDIC>
12.551079016795097

> <JCHEM_PKA_STRONGEST_BASIC>
-1.1779888890893002

> <JCHEM_POLAR_SURFACE_AREA>
227.35999999999999

> <JCHEM_REFRACTIVITY>
326.19149999999956

> <JCHEM_ROTATABLE_BOND_COUNT>
30

> <JCHEM_RULE_OF_FIVE>
0

> <ALOGPS_SOLUBILITY>
7.67e-05 g/l

> <JCHEM_TRADITIONAL_IUPAC>
biotin

> <JCHEM_VEBER_RULE>
0

> <DRUGBANK_ID>
DB05297

> <DRUG_GROUPS>
investigational

> <GENERIC_NAME>
Paclitaxel docosahexaenoic acid

> <SYNONYMS>
DHA Paclitaxel; DHA-paclitaxel; Paclitaxel 2'-(all-cis-4,7,10,13,16,19-docosahexaenoate); Paclitaxel docosahexaenoic acid ester

$$$$
