
  Mrv0541 05041408172D          

 47 49  0  0  1  0            999 V2000
    4.4656    8.0045    0.0000 C   0  0  0  0  0  0  0  0  0  0  0  0
    3.6586    7.8330    0.0000 C   0  0  0  0  0  0  0  0  0  0  0  0
    5.0013    2.0625    0.0000 C   0  0  0  0  0  0  0  0  0  0  0  0
    5.0013    2.8875    0.0000 C   0  0  0  0  0  0  0  0  0  0  0  0
    5.7158    0.8250    0.0000 C   0  0  0  0  0  0  0  0  0  0  0  0
    6.4302    0.4125    0.0000 C   0  0  0  0  0  0  0  0  0  0  0  0
    4.8781    7.2900    0.0000 C   0  0  0  0  0  0  0  0  0  0  0  0
    7.1447    1.6500    0.0000 C   0  0  0  0  0  0  0  0  0  0  0  0
    2.8579    6.6000    0.0000 C   0  0  0  0  0  0  0  0  0  0  0  0
   -0.0000    4.1250    0.0000 C   0  0  0  0  0  0  0  0  0  0  0  0
    3.5724    2.8875    0.0000 C   0  0  0  0  0  0  0  0  0  0  0  0
    5.7158    1.6500    0.0000 C   0  0  0  0  0  0  0  0  0  0  0  0
    4.2868    3.3000    0.0000 C   0  0  0  0  0  0  0  0  0  0  0  0
    7.1447    0.8250    0.0000 C   0  0  0  0  0  0  0  0  0  0  0  0
    3.5724    7.0125    0.0000 C   0  0  0  0  0  0  0  0  0  0  0  0
   -0.7145    4.5375    0.0000 C   0  0  1  0  0  0  0  0  0  0  0  0
    6.4302    2.0625    0.0000 C   0  0  0  0  0  0  0  0  0  0  0  0
    2.8579    5.7750    0.0000 C   0  0  0  0  0  0  0  0  0  0  0  0
    4.2868    4.1250    0.0000 C   0  0  0  0  0  0  0  0  0  0  0  0
    2.1434    4.5375    0.0000 C   0  0  1  0  0  0  0  0  0  0  0  0
    2.8579    4.1250    0.0000 C   0  0  2  0  0  0  0  0  0  0  0  0
   -1.4289    4.1250    0.0000 C   0  0  0  0  0  0  0  0  0  0  0  0
    5.0013    4.5375    0.0000 C   0  0  0  0  0  0  0  0  0  0  0  0
    1.4289    4.1250    0.0000 C   0  0  0  0  0  0  0  0  0  0  0  0
   -0.7145    5.3625    0.0000 N   0  0  0  0  0  0  0  0  0  0  0  0
    2.1434    5.3625    0.0000 N   0  0  0  0  0  0  0  0  0  0  0  0
    3.5724    4.5375    0.0000 N   0  0  0  0  0  0  0  0  0  0  0  0
    7.8592    0.4125    0.0000 N   0  0  0  0  0  0  0  0  0  0  0  0
    6.4302    2.8875    0.0000 N   0  0  0  0  0  0  0  0  0  0  0  0
    3.5724    5.3625    0.0000 O   0  5  0  0  0  0  0  0  0  0  0  0
   -1.4289    3.3000    0.0000 O   0  0  0  0  0  0  0  0  0  0  0  0
   -2.1434    4.5375    0.0000 O   0  5  0  0  0  0  0  0  0  0  0  0
    5.0013    5.3625    0.0000 O   0  0  0  0  0  0  0  0  0  0  0  0
    5.7158    4.1250    0.0000 O   0  0  0  0  0  0  0  0  0  0  0  0
    1.4289    3.3000    0.0000 O   0  0  0  0  0  0  0  0  0  0  0  0
    8.5737    0.8250    0.0000 O   0  0  0  0  0  0  0  0  0  0  0  0
    7.8592   -0.4125    0.0000 O   0  0  0  0  0  0  0  0  0  0  0  0
    5.7158    3.3000    0.0000 O   0  0  0  0  0  0  0  0  0  0  0  0
    7.1447    3.3000    0.0000 O   0  0  0  0  0  0  0  0  0  0  0  0
    0.7145    4.5375    0.0000 O   0  0  0  0  0  0  0  0  0  0  0  0
    4.3260    6.6769    0.0000 S   0  0  0  0  0  0  0  0  0  0  0  0
    2.8579    3.3000    0.0000 S   0  0  0  0  0  0  0  0  0  0  0  0
    4.2868    1.6500    0.0000 H   0  0  0  0  0  0  0  0  0  0  0  0
    5.5316    3.5195    0.0000 H   0  0  0  0  0  0  0  0  0  0  0  0
   -0.7145    3.7125    0.0000 H   0  0  0  0  0  0  0  0  0  0  0  0
    2.1434    3.7125    0.0000 H   0  0  0  0  0  0  0  0  0  0  0  0
    2.8579    4.9500    0.0000 H   0  0  0  0  0  0  0  0  0  0  0  0
  2  1  1  0  0  0  0
  4  3  2  0  0  0  0
  6  5  2  0  0  0  0
  7  1  2  0  0  0  0
 12  3  1  0  0  0  0
 12  5  1  0  0  0  0
 13  4  1  0  0  0  0
 13 11  1  0  0  0  0
 14  6  1  0  0  0  0
 14  8  2  0  0  0  0
 15  2  2  0  0  0  0
 15  9  1  0  0  0  0
 16 10  1  0  0  0  0
 17  8  1  0  0  0  0
 17 12  2  0  0  0  0
 18  9  1  0  0  0  0
 19 13  2  0  0  0  0
 21 20  1  6  0  0  0
 22 16  1  0  0  0  0
 23 19  1  0  0  0  0
 24 20  1  0  0  0  0
 16 25  1  6  0  0  0
 26 18  2  0  0  0  0
 20 26  1  6  0  0  0
 27 19  1  0  0  0  0
 27 21  1  0  0  0  0
 28 14  1  0  0  0  0
 29 17  1  0  0  0  0
 18 30  1  4  0  0  0
 31 22  2  0  0  0  0
 32 22  1  0  0  0  0
 33 23  2  0  0  0  0
 34 23  1  0  0  0  0
 35 24  2  0  0  0  0
 36 28  2  0  0  0  0
 37 28  2  0  0  0  0
 38 29  2  0  0  0  0
 39 29  2  0  0  0  0
 40 10  1  0  0  0  0
 40 24  1  0  0  0  0
 41  7  1  0  0  0  0
 41 15  1  0  0  0  0
 42 11  1  0  0  0  0
 42 21  1  0  0  0  0
 43  3  1  0  0  0  0
 44  4  1  0  0  0  0
 16 45  1  6  0  0  0
 20 46  1  6  0  0  0
 21 47  1  1  0  0  0
M  CHG  2  30  -1  32  -1
M  END
> <DATABASE_ID>
DB04041

> <DATABASE_NAME>
drugbank

> <SMILES>
[H]\C(=C(\[H])C1=C(C=C(C=C1)N(=O)=O)N(=O)=O)C1=C(N[C@]([H])(SC1)[C@]([H])(N=C([O-])CC1=CC=CS1)C(=O)OC[C@]([H])(N)C([O-])=O)C(O)=O

> <INCHI_IDENTIFIER>
InChI=1S/C24H23N5O11S2/c25-16(22(31)32)10-40-24(35)20(26-18(30)9-15-2-1-7-41-15)21-27-19(23(33)34)13(11-42-21)4-3-12-5-6-14(28(36)37)8-17(12)29(38)39/h1-8,16,20-21,27H,9-11,25H2,(H,26,30)(H,31,32)(H,33,34)/p-2/b4-3+/t16-,20-,21+/m0/s1

> <INCHI_KEY>
GPHOELDACAWWAE-DEKCOHRESA-L

> <FORMULA>
C24H21N5O11S2

> <MOLECULAR_WEIGHT>
619.58

> <EXACT_MASS>
619.067897919

> <JCHEM_ACCEPTOR_COUNT>
13

> <JCHEM_ATOM_COUNT>
63

> <JCHEM_AVERAGE_NEUTRAL_MICROSPECIES_CHARGE>
-0.08770647402639153

> <JCHEM_AVERAGE_POLARIZABILITY>
57.5942223376197

> <JCHEM_BIOAVAILABILITY>
0

> <JCHEM_DONOR_COUNT>
3

> <JCHEM_FORMAL_CHARGE>
-2

> <JCHEM_GHOSE_FILTER>
0

> <JCHEM_IUPAC>
(2S)-2-amino-3-{[(2R)-2-[(2R)-4-carboxy-5-[(1E)-2-(2,4-dinitrophenyl)ethenyl]-3,6-dihydro-2H-1,3-thiazin-2-yl]-2-{[1-oxido-2-(thiophen-2-yl)ethylidene]amino}acetyl]oxy}propanoate

> <ALOGPS_LOGP>
0.30

> <JCHEM_LOGP>
0.1970593356106425

> <ALOGPS_LOGS>
-5.18

> <JCHEM_MDDR_LIKE_RULE>
1

> <JCHEM_NEUTRAL_CHARGE>
0

> <JCHEM_NUMBER_OF_RINGS>
3

> <JCHEM_PHYSIOLOGICAL_CHARGE>
0

> <JCHEM_PKA>
4.270652555877565

> <JCHEM_PKA_STRONGEST_ACIDIC>
1.78077696327438

> <JCHEM_PKA_STRONGEST_BASIC>
8.603227452390634

> <JCHEM_POLAR_SURFACE_AREA>
268.84

> <JCHEM_REFRACTIVITY>
171.46649999999997

> <JCHEM_ROTATABLE_BOND_COUNT>
14

> <JCHEM_RULE_OF_FIVE>
0

> <ALOGPS_SOLUBILITY>
4.34e-03 g/l

> <JCHEM_TRADITIONAL_IUPAC>
tetrahydrofolic acid

> <JCHEM_VEBER_RULE>
0

> <DRUGBANK_ID>
DB04041

> <SECONDARY_ACCESSION_NUMBERS>
EXPT02306

> <DRUG_GROUPS>
experimental

> <GENERIC_NAME>
Nitrocefin Acyl-Serine

$$$$
