
  Mrv0541 02231216172D          

 12 12  0  0  1  0            999 V2000
    1.4290    2.0625    0.0000 N   0  0  0  0  0  0  0  0  0  0  0  0
    0.7145    2.4750    0.0000 C   0  0  2  0  0  0  0  0  0  0  0  0
    0.0000    2.0625    0.0000 C   0  0  0  0  0  0  0  0  0  0  0  0
    0.0000    1.2375    0.0000 C   0  0  0  0  0  0  0  0  0  0  0  0
   -0.7144    0.8250    0.0000 C   0  0  0  0  0  0  0  0  0  0  0  0
   -0.7144    0.0000    0.0000 C   0  0  0  0  0  0  0  0  0  0  0  0
    0.0000   -0.4125    0.0000 C   0  0  0  0  0  0  0  0  0  0  0  0
    0.7145    0.0000    0.0000 C   0  0  0  0  0  0  0  0  0  0  0  0
    0.7145    0.8250    0.0000 C   0  0  0  0  0  0  0  0  0  0  0  0
    0.7145    3.3000    0.0000 C   0  0  0  0  0  0  0  0  0  0  0  0
    1.4290    3.7125    0.0000 O   0  0  0  0  0  0  0  0  0  0  0  0
    0.0000    3.7125    0.0000 O   0  0  0  0  0  0  0  0  0  0  0  0
  2  1  1  6  0  0  0
  2  3  1  0  0  0  0
  3  4  1  0  0  0  0
  4  5  2  0  0  0  0
  5  6  1  0  0  0  0
  6  7  2  0  0  0  0
  7  8  1  0  0  0  0
  8  9  2  0  0  0  0
  4  9  1  0  0  0  0
  2 10  1  0  0  0  0
 10 11  1  0  0  0  0
 10 12  2  0  0  0  0
M  END
> <DATABASE_ID>
DB02556

> <DATABASE_NAME>
drugbank

> <SMILES>
N[C@H](CC1=CC=CC=C1)C(O)=O

> <INCHI_IDENTIFIER>
InChI=1S/C9H11NO2/c10-8(9(11)12)6-7-4-2-1-3-5-7/h1-5,8H,6,10H2,(H,11,12)/t8-/m1/s1

> <INCHI_KEY>
COLNVLDHVKWLRT-MRVPVSSYSA-N

> <FORMULA>
C9H11NO2

> <MOLECULAR_WEIGHT>
165.1891

> <EXACT_MASS>
165.078978601

> <JCHEM_ACCEPTOR_COUNT>
3

> <JCHEM_ATOM_COUNT>
23

> <JCHEM_AVERAGE_NEUTRAL_MICROSPECIES_CHARGE>
-0.0035311057069575824

> <JCHEM_AVERAGE_POLARIZABILITY>
17.13388689151298

> <JCHEM_BIOAVAILABILITY>
1

> <JCHEM_DONOR_COUNT>
2

> <JCHEM_FORMAL_CHARGE>
0

> <JCHEM_GHOSE_FILTER>
0

> <JCHEM_IUPAC>
(2R)-2-amino-3-phenylpropanoic acid

> <ALOGPS_LOGP>
-1.35

> <JCHEM_LOGP>
-1.184438468740489

> <ALOGPS_LOGS>
-1.60

> <JCHEM_MDDR_LIKE_RULE>
0

> <JCHEM_NEUTRAL_CHARGE>
0

> <JCHEM_NUMBER_OF_RINGS>
1

> <JCHEM_PHYSIOLOGICAL_CHARGE>
0

> <JCHEM_PKA_STRONGEST_ACIDIC>
2.469229772182635

> <JCHEM_PKA_STRONGEST_BASIC>
9.446936344396194

> <JCHEM_POLAR_SURFACE_AREA>
63.32

> <JCHEM_REFRACTIVITY>
45.11630000000001

> <JCHEM_ROTATABLE_BOND_COUNT>
3

> <JCHEM_RULE_OF_FIVE>
1

> <ALOGPS_SOLUBILITY>
4.14e+00 g/l

> <JCHEM_TRADITIONAL_IUPAC>
tetrahydrofolic acid

> <JCHEM_VEBER_RULE>
0

> <DRUGBANK_ID>
DB02556

> <SECONDARY_ACCESSION_NUMBERS>
EXPT01257

> <DRUG_GROUPS>
experimental

> <GENERIC_NAME>
D-Phenylalanine

$$$$
