
  Mrv0541 02231216532D          

 12 11  0  0  1  0            999 V2000
    1.0461    1.4289    0.0000 C   0  0  0  0  0  0  0  0  0  0  0  0
    1.7605    1.8414    0.0000 S   0  0  0  0  0  0  0  0  0  0  0  0
    2.4750    1.4289    0.0000 C   0  0  0  0  0  0  0  0  0  0  0  0
    3.1895    1.8414    0.0000 C   0  0  0  0  0  0  0  0  0  0  0  0
    3.9039    1.4289    0.0000 C   0  0  1  0  0  0  0  0  0  0  0  0
    4.6184    1.8414    0.0000 N   0  0  0  0  0  0  0  0  0  0  0  0
    5.3329    1.4289    0.0000 C   0  0  0  0  0  0  0  0  0  0  0  0
    6.0474    1.8414    0.0000 N   0  0  0  0  0  0  0  0  0  0  0  0
    5.3329    0.6039    0.0000 O   0  0  0  0  0  0  0  0  0  0  0  0
    3.9039    0.6039    0.0000 C   0  0  0  0  0  0  0  0  0  0  0  0
    4.6184    0.1914    0.0000 O   0  0  0  0  0  0  0  0  0  0  0  0
    3.1895    0.1914    0.0000 O   0  0  0  0  0  0  0  0  0  0  0  0
  1  2  1  0  0  0  0
  2  3  1  0  0  0  0
  3  4  1  0  0  0  0
  4  5  1  0  0  0  0
  5  6  1  1  0  0  0
  6  7  1  0  0  0  0
  7  8  1  0  0  0  0
  7  9  2  0  0  0  0
  5 10  1  0  0  0  0
 10 11  1  0  0  0  0
 10 12  2  0  0  0  0
M  END
> <DATABASE_ID>
DB03364

> <DATABASE_NAME>
drugbank

> <SMILES>
CSCC[C@@H](NC(N)=O)C(O)=O

> <INCHI_IDENTIFIER>
InChI=1S/C6H12N2O3S/c1-12-3-2-4(5(9)10)8-6(7)11/h4H,2-3H2,1H3,(H,9,10)(H3,7,8,11)/t4-/m1/s1

> <INCHI_KEY>
DEWDMTSMCKXBNP-SCSAIBSYSA-N

> <FORMULA>
C6H12N2O3S

> <MOLECULAR_WEIGHT>
192.236

> <EXACT_MASS>
192.05686295

> <JCHEM_ACCEPTOR_COUNT>
3

> <JCHEM_ATOM_COUNT>
24

> <JCHEM_AVERAGE_NEUTRAL_MICROSPECIES_CHARGE>
-0.9991244331044793

> <JCHEM_AVERAGE_POLARIZABILITY>
18.784714598182838

> <JCHEM_BIOAVAILABILITY>
1

> <JCHEM_DONOR_COUNT>
3

> <JCHEM_FORMAL_CHARGE>
0

> <JCHEM_GHOSE_FILTER>
0

> <JCHEM_IUPAC>
(2R)-2-(carbamoylamino)-4-(methylsulfanyl)butanoic acid

> <ALOGPS_LOGP>
-0.88

> <JCHEM_LOGP>
-0.4419818669999997

> <ALOGPS_LOGS>
-1.18

> <JCHEM_MDDR_LIKE_RULE>
0

> <JCHEM_NEUTRAL_CHARGE>
-1

> <JCHEM_NUMBER_OF_RINGS>
0

> <JCHEM_PHYSIOLOGICAL_CHARGE>
-1

> <JCHEM_PKA>
15.172884796776886

> <JCHEM_PKA_STRONGEST_ACIDIC>
3.942673089101605

> <JCHEM_PKA_STRONGEST_BASIC>
-2.2682360903757806

> <JCHEM_POLAR_SURFACE_AREA>
92.41999999999999

> <JCHEM_REFRACTIVITY>
45.70650000000001

> <JCHEM_ROTATABLE_BOND_COUNT>
5

> <JCHEM_RULE_OF_FIVE>
1

> <ALOGPS_SOLUBILITY>
1.28e+01 g/l

> <JCHEM_TRADITIONAL_IUPAC>
tetrahydrofolic acid

> <JCHEM_VEBER_RULE>
0

> <DRUGBANK_ID>
DB03364

> <SECONDARY_ACCESSION_NUMBERS>
EXPT00877

> <DRUG_GROUPS>
experimental

> <GENERIC_NAME>
N-Carbamyl-D-Methionine

$$$$
