
  Mrv0541 02231215492D          

  6  5  0  0  0  0            999 V2000
    1.2375    2.1434    0.0000 C   0  0  0  0  0  0  0  0  0  0  0  0
    0.8250    1.4289    0.0000 Te  0  0  0  0  0  0  0  0  0  0  0  0
    1.2375    0.7145    0.0000 C   0  0  0  0  0  0  0  0  0  0  0  0
    0.8250    0.0000    0.0000 C   0  0  0  0  0  0  0  0  0  0  0  0
    1.2375   -0.7145    0.0000 O   0  5  0  0  0  0  0  0  0  0  0  0
    0.0000    0.0000    0.0000 O   0  0  0  0  0  0  0  0  0  0  0  0
  1  2  1  0  0  0  0
  2  3  1  0  0  0  0
  3  4  1  0  0  0  0
  4  5  1  0  0  0  0
  4  6  2  0  0  0  0
M  CHG  1   5  -1
M  END
> <DATABASE_ID>
DB01918

> <DATABASE_NAME>
drugbank

> <SMILES>
C[Te]CC([O-])=O

> <INCHI_IDENTIFIER>
InChI=1S/C3H6O2Te/c1-6-2-3(4)5/h2H2,1H3,(H,4,5)/p-1

> <INCHI_KEY>
OKJWQADPGUWQAJ-UHFFFAOYSA-M

> <FORMULA>
C3H5O2Te

> <MOLECULAR_WEIGHT>
200.7

> <EXACT_MASS>
202.935177157

> <JCHEM_ACCEPTOR_COUNT>
3

> <JCHEM_ATOM_COUNT>
11

> <JCHEM_AVERAGE_NEUTRAL_MICROSPECIES_CHARGE>
-0.9993715265984668

> <JCHEM_AVERAGE_POLARIZABILITY>
9.159773113880156

> <JCHEM_BIOAVAILABILITY>
1

> <JCHEM_DONOR_COUNT>
0

> <JCHEM_FORMAL_CHARGE>
-1

> <JCHEM_GHOSE_FILTER>
0

> <JCHEM_IUPAC>
2-(methyltellanyl)acetate

> <ALOGPS_LOGP>
-0.30

> <JCHEM_LOGP>
-0.29469999999999996

> <ALOGPS_LOGS>
-0.28

> <JCHEM_MDDR_LIKE_RULE>
0

> <JCHEM_NEUTRAL_CHARGE>
-1

> <JCHEM_NUMBER_OF_RINGS>
0

> <JCHEM_PHYSIOLOGICAL_CHARGE>
-1

> <JCHEM_PKA_STRONGEST_ACIDIC>
3.7985599303857462

> <JCHEM_POLAR_SURFACE_AREA>
40.129999999999995

> <JCHEM_REFRACTIVITY>
28.167500000000004

> <JCHEM_ROTATABLE_BOND_COUNT>
2

> <JCHEM_RULE_OF_FIVE>
1

> <ALOGPS_SOLUBILITY>
1.16e+02 g/l

> <JCHEM_TRADITIONAL_IUPAC>
biotin

> <JCHEM_VEBER_RULE>
0

> <DRUGBANK_ID>
DB01918

> <SECONDARY_ACCESSION_NUMBERS>
EXPT02242

> <DRUG_GROUPS>
experimental

> <GENERIC_NAME>
[Methyltelluro]Acetate

$$$$
