
  Mrv0541 02231217132D          

  9  9  0  0  1  0            999 V2000
    2.1434    1.2375    0.0000 C   0  0  0  0  0  0  0  0  0  0  0  0
    1.4289    0.8250    0.0000 C   0  0  0  0  0  0  0  0  0  0  0  0
    1.4289    0.0000    0.0000 C   0  0  0  0  0  0  0  0  0  0  0  0
    0.7145   -0.4125    0.0000 C   0  0  0  0  0  0  0  0  0  0  0  0
    0.0000    0.0000    0.0000 C   0  0  0  0  0  0  0  0  0  0  0  0
    0.0000    0.8250    0.0000 C   0  0  0  0  0  0  0  0  0  0  0  0
   -0.7145    1.2375    0.0000 C   0  0  0  0  0  0  0  0  0  0  0  0
    0.7145    1.2375    0.0000 C   0  0  1  0  0  0  0  0  0  0  0  0
    0.7145    2.0625    0.0000 N   0  0  0  0  0  0  0  0  0  0  0  0
  1  2  1  0  0  0  0
  2  3  2  0  0  0  0
  3  4  1  0  0  0  0
  4  5  2  0  0  0  0
  5  6  1  0  0  0  0
  6  7  2  0  0  0  0
  6  8  1  0  0  0  0
  2  8  1  0  0  0  0
  8  9  1  1  0  0  0
M  END
> <DATABASE_ID>
DB03842

> <DATABASE_NAME>
drugbank

> <SMILES>
CC1=CC=CC(=C)[C@H]1N

> <INCHI_IDENTIFIER>
InChI=1S/C8H11N/c1-6-4-3-5-7(2)8(6)9/h3-5,8H,1,9H2,2H3/t8-/m1/s1

> <INCHI_KEY>
RFDXLWZZNPOBLL-MRVPVSSYSA-N

> <FORMULA>
C8H11N

> <MOLECULAR_WEIGHT>
121.1796

> <EXACT_MASS>
121.089149357

> <JCHEM_ACCEPTOR_COUNT>
1

> <JCHEM_ATOM_COUNT>
20

> <JCHEM_AVERAGE_NEUTRAL_MICROSPECIES_CHARGE>
0.9953678059611016

> <JCHEM_AVERAGE_POLARIZABILITY>
14.069761936895283

> <JCHEM_BIOAVAILABILITY>
1

> <JCHEM_DONOR_COUNT>
1

> <JCHEM_FORMAL_CHARGE>
0

> <JCHEM_GHOSE_FILTER>
0

> <JCHEM_IUPAC>
(1S)-2-methyl-6-methylidenecyclohexa-2,4-dien-1-amine

> <ALOGPS_LOGP>
1.37

> <JCHEM_LOGP>
0.9445178299999999

> <ALOGPS_LOGS>
-1.05

> <JCHEM_MDDR_LIKE_RULE>
0

> <JCHEM_NEUTRAL_CHARGE>
1

> <JCHEM_NUMBER_OF_RINGS>
1

> <JCHEM_PHYSIOLOGICAL_CHARGE>
1

> <JCHEM_PKA_STRONGEST_BASIC>
9.332196846525953

> <JCHEM_POLAR_SURFACE_AREA>
26.02

> <JCHEM_REFRACTIVITY>
41.4663

> <JCHEM_ROTATABLE_BOND_COUNT>
0

> <JCHEM_RULE_OF_FIVE>
1

> <ALOGPS_SOLUBILITY>
1.07e+01 g/l

> <JCHEM_TRADITIONAL_IUPAC>
tetrahydrofolic acid

> <JCHEM_VEBER_RULE>
1

> <DRUGBANK_ID>
DB03842

> <SECONDARY_ACCESSION_NUMBERS>
EXPT00109

> <DRUG_GROUPS>
experimental

> <GENERIC_NAME>
2-Chloro-6-Methyl-Aniline

$$$$
