
  Mrv0541 02231217462D          

 24 27  0  0  1  0            999 V2000
    7.5775    1.7429    0.0000 O   0  0  0  0  0  0  0  0  0  0  0  0
    8.6275    0.2949    0.0000 O   0  0  0  0  0  0  0  0  0  0  0  0
    2.0917   -1.8105    0.0000 O   0  0  0  0  0  0  0  0  0  0  0  0
    6.5406    0.7074    0.0000 C   0  0  1  0  0  0  0  0  0  0  0  0
    6.5406   -0.1176    0.0000 C   0  0  2  0  0  0  0  0  0  0  0  0
    5.8262   -0.5300    0.0000 C   0  0  1  0  0  0  0  0  0  0  0  0
    5.1119   -0.1176    0.0000 C   0  0  2  0  0  0  0  0  0  0  0  0
    7.3211    0.9588    0.0000 C   0  0  2  0  0  0  0  0  0  0  0  0
    5.8262    1.1199    0.0000 C   0  0  0  0  0  0  0  0  0  0  0  0
    7.3211   -0.3689    0.0000 C   0  0  0  0  0  0  0  0  0  0  0  0
    7.8026    0.2949    0.0000 C   0  0  1  0  0  0  0  0  0  0  0  0
    5.1119    0.7074    0.0000 C   0  0  0  0  0  0  0  0  0  0  0  0
    5.8395   -1.3891    0.0000 C   0  0  0  0  0  0  0  0  0  0  0  0
    6.5406    1.5323    0.0000 C   0  0  0  0  0  0  0  0  0  0  0  0
    4.3612   -0.5356    0.0000 C   0  0  0  0  0  0  0  0  0  0  0  0
    5.0987   -1.8245    0.0000 C   0  0  0  0  0  0  0  0  0  0  0  0
    4.3545   -1.3948    0.0000 C   0  0  0  0  0  0  0  0  0  0  0  0
    3.5966   -0.0703    0.0000 C   0  0  0  0  0  0  0  0  0  0  0  0
    3.5829   -1.8483    0.0000 C   0  0  0  0  0  0  0  0  0  0  0  0
    2.8147   -0.5058    0.0000 C   0  0  0  0  0  0  0  0  0  0  0  0
    2.8078   -1.4008    0.0000 C   0  0  0  0  0  0  0  0  0  0  0  0
    6.6105   -0.7738    0.0000 H   0  0  0  0  0  0  0  0  0  0  0  0
    6.4003   -0.8555    0.0000 H   0  0  0  0  0  0  0  0  0  0  0  0
    5.6833    0.2124    0.0000 H   0  0  0  0  0  0  0  0  0  0  0  0
  8  1  1  1  0  0  0
 11  2  1  6  0  0  0
  3 21  1  0  0  0  0
  4  5  1  0  0  0  0
  4  8  1  0  0  0  0
  4  9  1  0  0  0  0
  4 14  1  1  0  0  0
  5  6  1  0  0  0  0
  5 10  1  0  0  0  0
  5 22  1  6  0  0  0
  6  7  1  0  0  0  0
  6 13  1  0  0  0  0
  6 23  1  1  0  0  0
  7 12  1  0  0  0  0
  7 15  1  0  0  0  0
  7 24  1  6  0  0  0
  8 11  1  0  0  0  0
  9 12  1  0  0  0  0
 10 11  1  0  0  0  0
 13 16  1  0  0  0  0
 15 17  2  0  0  0  0
 15 18  1  0  0  0  0
 16 17  1  0  0  0  0
 17 19  1  0  0  0  0
 18 20  2  0  0  0  0
 19 21  2  0  0  0  0
 20 21  1  0  0  0  0
M  END
> <DATABASE_ID>
DB04573

> <DATABASE_NAME>
drugbank

> <SMILES>
[H][C@@]12C[C@@H](O)[C@H](O)[C@@]1(C)CC[C@]1([H])C3=C(CC[C@@]21[H])C=C(O)C=C3

> <INCHI_IDENTIFIER>
InChI=1S/C18H24O3/c1-18-7-6-13-12-5-3-11(19)8-10(12)2-4-14(13)15(18)9-16(20)17(18)21/h3,5,8,13-17,19-21H,2,4,6-7,9H2,1H3/t13-,14-,15+,16-,17+,18+/m1/s1

> <INCHI_KEY>
PROQIPRRNZUXQM-ZXXIGWHRSA-N

> <FORMULA>
C18H24O3

> <MOLECULAR_WEIGHT>
288.3814

> <EXACT_MASS>
288.172544634

> <JCHEM_ACCEPTOR_COUNT>
3

> <JCHEM_ATOM_COUNT>
45

> <JCHEM_AVERAGE_NEUTRAL_MICROSPECIES_CHARGE>
-0.00047117972310013517

> <JCHEM_AVERAGE_POLARIZABILITY>
33.08429086433415

> <JCHEM_BIOAVAILABILITY>
1

> <JCHEM_DONOR_COUNT>
3

> <JCHEM_FORMAL_CHARGE>
0

> <JCHEM_GHOSE_FILTER>
1

> <JCHEM_IUPAC>
(1R,2R,3aS,3bR,9bS,11aS)-11a-methyl-1H,2H,3H,3aH,3bH,4H,5H,9bH,10H,11H,11aH-cyclopenta[a]phenanthrene-1,2,7-triol

> <ALOGPS_LOGP>
2.54

> <JCHEM_LOGP>
2.6705977213333343

> <ALOGPS_LOGS>
-3.38

> <JCHEM_MDDR_LIKE_RULE>
0

> <JCHEM_NEUTRAL_CHARGE>
0

> <JCHEM_NUMBER_OF_RINGS>
4

> <JCHEM_PHYSIOLOGICAL_CHARGE>
0

> <JCHEM_PKA>
13.624095464604599

> <JCHEM_PKA_STRONGEST_ACIDIC>
10.326834303487214

> <JCHEM_PKA_STRONGEST_BASIC>
-3.1565353881592606

> <JCHEM_POLAR_SURFACE_AREA>
60.69

> <JCHEM_REFRACTIVITY>
81.2662

> <JCHEM_ROTATABLE_BOND_COUNT>
0

> <JCHEM_RULE_OF_FIVE>
1

> <ALOGPS_SOLUBILITY>
1.19e-01 g/l

> <JCHEM_TRADITIONAL_IUPAC>
biotin

> <JCHEM_VEBER_RULE>
0

> <DRUGBANK_ID>
DB04573

> <SECONDARY_ACCESSION_NUMBERS>
EXPT01361; DB05375

> <DRUG_GROUPS>
approved; investigational; vet_approved

> <GENERIC_NAME>
Estriol

> <SYNONYMS>
(16α,17β)-estra-1,3,5(10)-triene-3,16,17-triol; 1,3,5(10)-Estratriene-3,16-alpha,17beta-triol; 16-alpha-Hydroxyestradiol; 16alpha-hydroxyestradiol; 16α-hydroxyestradiol; 16α,17β-estriol; 3,16alpha,17beta-Trihydroxy-delta(1,3,5)-estratriene; Estriol; Oestriol; Östriol; Trihydroxyestrin

> <PRODUCTS>
Advanced Formula Estro-Life; BiEST 2.5 Estrogen Cream; BiEST 2.5 Estrogen Cream (Lavender scented); BiEST 5.0 Estrogen Cream; Estriol 5.0 Cream; Estro-Life

> <INTERNATIONAL_BRANDS>
Aacifemine; Colpoestriol; Estriel; Ovestin; Synapause E

$$$$
