
  Mrv0541 05281415212D          

 14 13  0  0  0  0            999 V2000
    5.3625   -2.1434    0.0000 C   0  0  0  0  0  0  0  0  0  0  0  0
    4.5375   -1.3184    0.0000 C   0  0  0  0  0  0  0  0  0  0  0  0
    4.5375   -2.9684    0.0000 C   0  0  0  0  0  0  0  0  0  0  0  0
   -0.8250    0.0000    0.0000 C   0  0  0  0  0  0  0  0  0  0  0  0
    0.0000    0.8250    0.0000 C   0  0  0  0  0  0  0  0  0  0  0  0
    0.0000   -0.8250    0.0000 C   0  0  0  0  0  0  0  0  0  0  0  0
    2.4750   -1.4289    0.0000 C   0  0  0  0  0  0  0  0  0  0  0  0
    2.0625   -0.7144    0.0000 C   0  0  0  0  0  0  0  0  0  0  0  0
    3.3000   -1.4289    0.0000 C   0  0  0  0  0  0  0  0  0  0  0  0
    1.2375   -0.7144    0.0000 C   0  0  0  0  0  0  0  0  0  0  0  0
    3.7125   -2.1434    0.0000 C   0  0  0  0  0  0  0  0  0  0  0  0
    0.8250    0.0000    0.0000 C   0  0  0  0  0  0  0  0  0  0  0  0
    4.5375   -2.1434    0.0000 N   0  3  0  0  0  0  0  0  0  0  0  0
    0.0000    0.0000    0.0000 N   0  3  0  0  0  0  0  0  0  0  0  0
  8  7  1  0  0  0  0
  9  7  1  0  0  0  0
 10  8  1  0  0  0  0
 11  9  1  0  0  0  0
 12 10  1  0  0  0  0
 13  1  1  0  0  0  0
 13  2  1  0  0  0  0
 13  3  1  0  0  0  0
 13 11  1  0  0  0  0
 14  4  1  0  0  0  0
 14  5  1  0  0  0  0
 14  6  1  0  0  0  0
 14 12  1  0  0  0  0
M  CHG  2  13   1  14   1
M  END
> <DATABASE_ID>
DB08960

> <DATABASE_NAME>
drugbank

> <SMILES>
C[N+](C)(C)CCCCCC[N+](C)(C)C

> <INCHI_IDENTIFIER>
InChI=1S/C12H30N2/c1-13(2,3)11-9-7-8-10-12-14(4,5)6/h7-12H2,1-6H3/q+2

> <INCHI_KEY>
VZJFGSRCJCXDSG-UHFFFAOYSA-N

> <FORMULA>
C12H30N2

> <MOLECULAR_WEIGHT>
202.38

> <EXACT_MASS>
202.24089897

> <JCHEM_ACCEPTOR_COUNT>
0

> <JCHEM_ATOM_COUNT>
44

> <JCHEM_AVERAGE_NEUTRAL_MICROSPECIES_CHARGE>
2.0

> <JCHEM_AVERAGE_POLARIZABILITY>
27.43300966842374

> <JCHEM_BIOAVAILABILITY>
1

> <JCHEM_DONOR_COUNT>
0

> <JCHEM_FORMAL_CHARGE>
2

> <JCHEM_GHOSE_FILTER>
0

> <JCHEM_IUPAC>
trimethyl[6-(trimethylazaniumyl)hexyl]azanium

> <ALOGPS_LOGP>
-3.64

> <JCHEM_LOGP>
-6.64939950494349

> <ALOGPS_LOGS>
-7.09

> <JCHEM_MDDR_LIKE_RULE>
0

> <JCHEM_NEUTRAL_CHARGE>
2

> <JCHEM_NUMBER_OF_RINGS>
0

> <JCHEM_PHYSIOLOGICAL_CHARGE>
2

> <JCHEM_POLAR_SURFACE_AREA>
0.0

> <JCHEM_REFRACTIVITY>
88.54640000000002

> <JCHEM_ROTATABLE_BOND_COUNT>
7

> <JCHEM_RULE_OF_FIVE>
1

> <ALOGPS_SOLUBILITY>
2.24e-05 g/l

> <JCHEM_TRADITIONAL_IUPAC>
tetrahydrofolic acid

> <JCHEM_VEBER_RULE>
1

> <DRUGBANK_ID>
DB08960

> <DRUG_GROUPS>
experimental

> <GENERIC_NAME>
Hexamethonium

> <SYNONYMS>
N,N,N,N',N',N'-hexamethylhexane-1,6-diaminium

> <INTERNATIONAL_BRANDS>
Bistrium

> <SALTS>
Hexamethonium Bromide

$$$$
