
  Mrv0541 02231217532D          

 33 34  0  0  1  0            999 V2000
    1.2564    2.2948    0.0000 C   0  0  0  0  0  0  0  0  0  0  0  0
    1.2564    1.4698    0.0000 O   0  0  0  0  0  0  0  0  0  0  0  0
    1.9709    1.0573    0.0000 C   0  0  1  0  0  0  0  0  0  0  0  0
    1.9709    0.2323    0.0000 C   0  0  0  0  0  0  0  0  0  0  0  0
    1.2564   -0.1802    0.0000 C   0  0  0  0  0  0  0  0  0  0  0  0
    1.2564   -1.0052    0.0000 C   0  0  0  0  0  0  0  0  0  0  0  0
    1.9239   -1.4901    0.0000 C   0  0  0  0  0  0  0  0  0  0  0  0
    1.6689   -2.2748    0.0000 S   0  0  0  0  0  0  0  0  0  0  0  0
    0.8439   -2.2748    0.0000 C   0  0  0  0  0  0  0  0  0  0  0  0
    0.5890   -1.4901    0.0000 N   0  0  0  0  0  0  0  0  0  0  0  0
    0.3590   -2.9422    0.0000 C   0  0  0  0  0  0  0  0  0  0  0  0
    0.6139   -3.7268    0.0000 C   0  0  0  0  0  0  0  0  0  0  0  0
   -0.0535   -4.2117    0.0000 S   0  0  0  0  0  0  0  0  0  0  0  0
   -0.7209   -3.7268    0.0000 C   0  0  0  0  0  0  0  0  0  0  0  0
   -0.4660   -2.9422    0.0000 N   0  0  0  0  0  0  0  0  0  0  0  0
   -1.5056   -3.9818    0.0000 C   0  0  1  0  0  0  0  0  0  0  0  0
   -2.1187   -3.4297    0.0000 C   0  0  0  0  0  0  0  0  0  0  0  0
   -1.6771   -4.7887    0.0000 C   0  0  0  0  0  0  0  0  0  0  0  0
   -2.4617   -5.0437    0.0000 C   0  0  0  0  0  0  0  0  0  0  0  0
   -2.6332   -5.8506    0.0000 C   0  0  0  0  0  0  0  0  0  0  0  0
   -3.4179   -6.1056    0.0000 C   0  0  0  0  0  0  0  0  0  0  0  0
   -3.5894   -6.9126    0.0000 C   0  0  0  0  0  0  0  0  0  0  0  0
   -4.3740   -7.1675    0.0000 C   0  0  0  0  0  0  0  0  0  0  0  0
   -2.9763   -7.4646    0.0000 C   0  0  0  0  0  0  0  0  0  0  0  0
    2.6854    1.4698    0.0000 C   0  0  1  0  0  0  0  0  0  0  0  0
    2.6854    2.2948    0.0000 C   0  0  0  0  0  0  0  0  0  0  0  0
    3.3998    1.0573    0.0000 C   0  0  0  0  0  0  0  0  0  0  0  0
    3.3998    0.2323    0.0000 O   0  0  0  0  0  0  0  0  0  0  0  0
    4.1143   -0.1802    0.0000 C   0  0  0  0  0  0  0  0  0  0  0  0
    4.1143    1.4698    0.0000 C   0  0  0  0  0  0  0  0  0  0  0  0
    4.1143    2.2948    0.0000 C   0  0  0  0  0  0  0  0  0  0  0  0
    4.8288    2.7073    0.0000 N   0  0  0  0  0  0  0  0  0  0  0  0
    3.3998    2.7073    0.0000 O   0  0  0  0  0  0  0  0  0  0  0  0
  1  2  1  0  0  0  0
  3  2  1  6  0  0  0
  3  4  1  0  0  0  0
  4  5  2  0  0  0  0
  5  6  1  0  0  0  0
  6  7  2  0  0  0  0
  7  8  1  0  0  0  0
  8  9  1  0  0  0  0
  9 10  2  0  0  0  0
  6 10  1  0  0  0  0
  9 11  1  0  0  0  0
 11 12  2  0  0  0  0
 12 13  1  0  0  0  0
 13 14  1  0  0  0  0
 14 15  2  0  0  0  0
 11 15  1  0  0  0  0
 14 16  1  0  0  0  0
 16 17  1  6  0  0  0
 16 18  1  0  0  0  0
 18 19  2  0  0  0  0
 19 20  1  0  0  0  0
 20 21  2  0  0  0  0
 21 22  1  0  0  0  0
 22 23  1  0  0  0  0
 22 24  1  0  0  0  0
  3 25  1  0  0  0  0
 25 26  1  1  0  0  0
 25 27  1  0  0  0  0
 27 28  1  0  0  0  0
 28 29  1  0  0  0  0
 27 30  2  0  0  0  0
 30 31  1  0  0  0  0
 31 32  1  0  0  0  0
 31 33  2  0  0  0  0
M  END
> <DATABASE_ID>
DB04741

> <DATABASE_NAME>
drugbank

> <SMILES>
CO[C@@H](\C=C\C1=CSC(=N1)C1=CSC(=N1)[C@@H](C)\C=C\C=C\C(C)C)[C@@H](C)C(\OC)=C/C(N)=O

> <INCHI_IDENTIFIER>
InChI=1S/C25H33N3O3S2/c1-16(2)9-7-8-10-17(3)24-28-20(15-33-24)25-27-19(14-32-25)11-12-21(30-5)18(4)22(31-6)13-23(26)29/h7-18,21H,1-6H3,(H2,26,29)/b9-7+,10-8+,12-11+,22-13+/t17-,18+,21-/m0/s1

> <INCHI_KEY>
XKTFQMCPGMTBMD-FYHMSGCOSA-N

> <FORMULA>
C25H33N3O3S2

> <MOLECULAR_WEIGHT>
487.678

> <EXACT_MASS>
487.196333317

> <JCHEM_ACCEPTOR_COUNT>
5

> <JCHEM_ATOM_COUNT>
66

> <JCHEM_AVERAGE_NEUTRAL_MICROSPECIES_CHARGE>
9.071720169283465e-07

> <JCHEM_AVERAGE_POLARIZABILITY>
55.00961711500612

> <JCHEM_BIOAVAILABILITY>
1

> <JCHEM_DONOR_COUNT>
1

> <JCHEM_FORMAL_CHARGE>
0

> <JCHEM_GHOSE_FILTER>
0

> <JCHEM_IUPAC>
(2E,4R,5S,6E)-3,5-dimethoxy-4-methyl-7-(2-{2-[(2S,3E,5E)-7-methylocta-3,5-dien-2-yl]-1,3-thiazol-4-yl}-1,3-thiazol-4-yl)hepta-2,6-dienamide

> <ALOGPS_LOGP>
5.38

> <JCHEM_LOGP>
4.964887877666666

> <ALOGPS_LOGS>
-5.51

> <JCHEM_MDDR_LIKE_RULE>
0

> <JCHEM_NEUTRAL_CHARGE>
0

> <JCHEM_NUMBER_OF_RINGS>
2

> <JCHEM_PHYSIOLOGICAL_CHARGE>
0

> <JCHEM_PKA_STRONGEST_ACIDIC>
15.91321438478969

> <JCHEM_PKA_STRONGEST_BASIC>
0.9689436655188115

> <JCHEM_POLAR_SURFACE_AREA>
87.33000000000001

> <JCHEM_REFRACTIVITY>
149.96790000000001

> <JCHEM_ROTATABLE_BOND_COUNT>
12

> <JCHEM_RULE_OF_FIVE>
1

> <ALOGPS_SOLUBILITY>
1.49e-03 g/l

> <JCHEM_TRADITIONAL_IUPAC>
tetrahydrofolic acid

> <JCHEM_VEBER_RULE>
0

> <DRUGBANK_ID>
DB04741

> <DRUG_GROUPS>
experimental

> <GENERIC_NAME>
Myxothiazol

> <SYNONYMS>
(+)-myxothiazol; Myxothiazol A

$$$$
