
  Mrv0541 02231218092D          

 20 20  0  0  0  0            999 V2000
    4.5080   -0.2063    0.0000 O   0  0  0  0  0  0  0  0  0  0  0  0
    2.3645   -3.0938    0.0000 O   0  0  0  0  0  0  0  0  0  0  0  0
    3.0791   -0.2063    0.0000 O   0  0  0  0  0  0  0  0  0  0  0  0
    5.9370    3.0938    0.0000 O   0  0  0  0  0  0  0  0  0  0  0  0
    1.6500   -4.3313    0.0000 O   0  5  0  0  0  0  0  0  0  0  0  0
    3.0791   -4.3313    0.0000 O   0  0  0  0  0  0  0  0  0  0  0  0
    4.5080    3.0938    0.0000 N   0  0  0  0  0  0  0  0  0  0  0  0
    2.3645   -3.9188    0.0000 N   0  3  0  0  0  0  0  0  0  0  0  0
    3.0791   -1.8563    0.0000 C   0  0  0  0  0  0  0  0  0  0  0  0
    3.7935   -1.4438    0.0000 C   0  0  0  0  0  0  0  0  0  0  0  0
    3.0791   -2.6813    0.0000 C   0  0  0  0  0  0  0  0  0  0  0  0
    3.7935   -0.6188    0.0000 C   0  0  0  0  0  0  0  0  0  0  0  0
    4.5080    0.6188    0.0000 C   0  0  0  0  0  0  0  0  0  0  0  0
    4.5080    2.2688    0.0000 C   0  0  0  0  0  0  0  0  0  0  0  0
    5.2224    1.0313    0.0000 C   0  0  0  0  0  0  0  0  0  0  0  0
    3.7935    1.0313    0.0000 C   0  0  0  0  0  0  0  0  0  0  0  0
    5.2224    1.8563    0.0000 C   0  0  0  0  0  0  0  0  0  0  0  0
    3.7935    1.8563    0.0000 C   0  0  0  0  0  0  0  0  0  0  0  0
    5.2224    3.5063    0.0000 C   0  0  0  0  0  0  0  0  0  0  0  0
    5.2224    4.3313    0.0000 C   0  0  0  0  0  0  0  0  0  0  0  0
  1 12  1  0  0  0  0
  1 13  1  0  0  0  0
  2  8  1  0  0  0  0
  2 11  1  0  0  0  0
  3 12  2  0  0  0  0
  4 19  2  0  0  0  0
  5  8  1  0  0  0  0
  6  8  2  0  0  0  0
  7 14  1  0  0  0  0
  7 19  1  0  0  0  0
  9 10  1  0  0  0  0
  9 11  1  0  0  0  0
 10 12  1  0  0  0  0
 13 15  2  0  0  0  0
 13 16  1  0  0  0  0
 14 17  2  0  0  0  0
 14 18  1  0  0  0  0
 15 17  1  0  0  0  0
 16 18  2  0  0  0  0
 19 20  1  0  0  0  0
M  CHG  2   5  -1   8   1
M  END
> <DATABASE_ID>
DB05409

> <DATABASE_NAME>
drugbank

> <SMILES>
CC(=O)NC1=CC=C(OC(=O)CCCO[N+]([O-])=O)C=C1

> <INCHI_IDENTIFIER>
InChI=1S/C12H14N2O6/c1-9(15)13-10-4-6-11(7-5-10)20-12(16)3-2-8-19-14(17)18/h4-7H,2-3,8H2,1H3,(H,13,15)

> <INCHI_KEY>
XTMOQAKCOFLCRZ-UHFFFAOYSA-N

> <FORMULA>
C12H14N2O6

> <MOLECULAR_WEIGHT>
282.2494

> <EXACT_MASS>
282.08518619

> <JCHEM_ACCEPTOR_COUNT>
5

> <JCHEM_ATOM_COUNT>
34

> <JCHEM_AVERAGE_NEUTRAL_MICROSPECIES_CHARGE>
-2.107424895322213e-08

> <JCHEM_AVERAGE_POLARIZABILITY>
27.526308194605125

> <JCHEM_BIOAVAILABILITY>
1

> <JCHEM_DONOR_COUNT>
1

> <JCHEM_FORMAL_CHARGE>
0

> <JCHEM_GHOSE_FILTER>
1

> <JCHEM_IUPAC>
4-acetamidophenyl 4-(nitrooxy)butanoate

> <ALOGPS_LOGP>
1.24

> <JCHEM_LOGP>
1.225157694333333

> <ALOGPS_LOGS>
-3.78

> <JCHEM_MDDR_LIKE_RULE>
0

> <JCHEM_NEUTRAL_CHARGE>
0

> <JCHEM_NUMBER_OF_RINGS>
1

> <JCHEM_PHYSIOLOGICAL_CHARGE>
0

> <JCHEM_PKA_STRONGEST_ACIDIC>
14.676160719983208

> <JCHEM_PKA_STRONGEST_BASIC>
-4.364261521566384

> <JCHEM_POLAR_SURFACE_AREA>
107.77

> <JCHEM_REFRACTIVITY>
68.89980000000001

> <JCHEM_ROTATABLE_BOND_COUNT>
8

> <JCHEM_RULE_OF_FIVE>
1

> <ALOGPS_SOLUBILITY>
4.68e-02 g/l

> <JCHEM_TRADITIONAL_IUPAC>
biotin

> <JCHEM_VEBER_RULE>
0

> <DRUGBANK_ID>
DB05409

> <DRUG_GROUPS>
investigational

> <GENERIC_NAME>
NCX 701

$$$$
