
  Mrv0541 05041408242D          

 22 23  0  0  1  0            999 V2000
   -2.8579    6.6000    0.0000 C   0  0  0  0  0  0  0  0  0  0  0  0
    0.7145   -0.4125    0.0000 C   0  0  0  0  0  0  0  0  0  0  0  0
   -2.8579    5.7750    0.0000 C   0  0  0  0  0  0  0  0  0  0  0  0
   -2.1434    7.0125    0.0000 C   0  0  0  0  0  0  0  0  0  0  0  0
    1.4289    0.0000    0.0000 C   0  0  0  0  0  0  0  0  0  0  0  0
   -0.0000    0.0000    0.0000 C   0  0  0  0  0  0  0  0  0  0  0  0
   -2.1434    5.3625    0.0000 C   0  0  0  0  0  0  0  0  0  0  0  0
   -1.4289    6.6000    0.0000 C   0  0  0  0  0  0  0  0  0  0  0  0
    1.4289    0.8250    0.0000 C   0  0  0  0  0  0  0  0  0  0  0  0
    0.0000    0.8250    0.0000 C   0  0  0  0  0  0  0  0  0  0  0  0
   -0.7145    5.3625    0.0000 C   0  0  0  0  0  0  0  0  0  0  0  0
   -0.7145    4.5375    0.0000 C   0  0  0  0  0  0  0  0  0  0  0  0
    0.0000    3.3000    0.0000 C   0  0  0  0  0  0  0  0  0  0  0  0
    0.7145    2.8875    0.0000 C   0  0  0  0  0  0  0  0  0  0  0  0
   -1.4289    5.7750    0.0000 C   0  0  0  0  0  0  0  0  0  0  0  0
    0.0000    4.1250    0.0000 C   0  0  1  0  0  0  0  0  0  0  0  0
    0.7145    1.2375    0.0000 C   0  0  0  0  0  0  0  0  0  0  0  0
    0.7145    4.5375    0.0000 N   0  0  0  0  0  0  0  0  0  0  0  0
   -0.1105    2.0625    0.0000 O   0  0  0  0  0  0  0  0  0  0  0  0
    1.5395    2.0625    0.0000 O   0  0  0  0  0  0  0  0  0  0  0  0
    0.7145    2.0625    0.0000 S   0  0  0  0  0  0  0  0  0  0  0  0
   -0.7145    3.7125    0.0000 H   0  0  0  0  0  0  0  0  0  0  0  0
  3  1  2  0  0  0  0
  4  1  1  0  0  0  0
  5  2  2  0  0  0  0
  6  2  1  0  0  0  0
  7  3  1  0  0  0  0
  8  4  2  0  0  0  0
  9  5  1  0  0  0  0
 10  6  2  0  0  0  0
 12 11  1  0  0  0  0
 14 13  2  0  0  0  0
 15  7  2  0  0  0  0
 15  8  1  0  0  0  0
 15 11  1  0  0  0  0
 16 12  1  0  0  0  0
 16 13  1  0  0  0  0
 17  9  2  0  0  0  0
 17 10  1  0  0  0  0
 16 18  1  1  0  0  0
 14 21  1  4  0  0  0
 21 17  1  0  0  0  0
 21 19  2  0  0  0  0
 21 20  2  0  0  0  0
 16 22  1  1  0  0  0
M  END
> <DATABASE_ID>
DB02869

> <DATABASE_NAME>
drugbank

> <SMILES>
[H][C@](N)(CCC1=CC=CC=C1)C=CS(=O)(=O)C1=CC=CC=C1

> <INCHI_IDENTIFIER>
InChI=1S/C17H19NO2S/c18-16(12-11-15-7-3-1-4-8-15)13-14-21(19,20)17-9-5-2-6-10-17/h1-10,13-14,16H,11-12,18H2/t16-/m0/s1

> <INCHI_KEY>
ZPXIQFOUPUVVPU-INIZCTEOSA-N

> <FORMULA>
C17H19NO2S

> <MOLECULAR_WEIGHT>
301.403

> <EXACT_MASS>
301.113649547

> <JCHEM_ACCEPTOR_COUNT>
3

> <JCHEM_ATOM_COUNT>
40

> <JCHEM_AVERAGE_NEUTRAL_MICROSPECIES_CHARGE>
0.9872863636607535

> <JCHEM_AVERAGE_POLARIZABILITY>
33.34054154093528

> <JCHEM_BIOAVAILABILITY>
1

> <JCHEM_DONOR_COUNT>
1

> <JCHEM_FORMAL_CHARGE>
0

> <JCHEM_GHOSE_FILTER>
1

> <JCHEM_IUPAC>
(3S)-1-(benzenesulfonyl)-5-phenylpent-1-en-3-amine

> <ALOGPS_LOGP>
2.26

> <JCHEM_LOGP>
3.062354329333333

> <ALOGPS_LOGS>
-5.08

> <JCHEM_MDDR_LIKE_RULE>
0

> <JCHEM_NEUTRAL_CHARGE>
1

> <JCHEM_NUMBER_OF_RINGS>
2

> <JCHEM_PHYSIOLOGICAL_CHARGE>
1

> <JCHEM_PKA_STRONGEST_BASIC>
8.890173353890304

> <JCHEM_POLAR_SURFACE_AREA>
60.160000000000004

> <JCHEM_REFRACTIVITY>
86.3427

> <JCHEM_ROTATABLE_BOND_COUNT>
6

> <JCHEM_RULE_OF_FIVE>
1

> <ALOGPS_SOLUBILITY>
2.52e-03 g/l

> <JCHEM_TRADITIONAL_IUPAC>
biotin

> <JCHEM_VEBER_RULE>
0

> <DRUGBANK_ID>
DB02869

> <SECONDARY_ACCESSION_NUMBERS>
EXPT02332

> <DRUG_GROUPS>
experimental

> <GENERIC_NAME>
3-amino-5-phenylpentane

$$$$
