
  Mrv0541 10291317312D          

 20 21  0  0  0  0            999 V2000
   -0.4017   -0.6035    0.0000 C   0  0  0  0  0  0  0  0  0  0  0  0
   -1.1162   -1.0160    0.0000 C   0  0  0  0  0  0  0  0  0  0  0  0
   -1.1162   -1.8410    0.0000 C   0  0  0  0  0  0  0  0  0  0  0  0
   -0.4017   -2.2535    0.0000 C   0  0  0  0  0  0  0  0  0  0  0  0
    0.3126   -1.8410    0.0000 C   0  0  0  0  0  0  0  0  0  0  0  0
    0.3126   -1.0160    0.0000 C   0  0  0  0  0  0  0  0  0  0  0  0
   -0.4017    0.2214    0.0000 N   0  0  0  0  0  0  0  0  0  0  0  0
    1.0271   -0.6035    0.0000 Cl  0  0  0  0  0  0  0  0  0  0  0  0
   -1.8307   -0.6035    0.0000 F   0  0  0  0  0  0  0  0  0  0  0  0
   -1.1162    0.6339    0.0000 C   0  0  0  0  0  0  0  0  0  0  0  0
   -1.8307    0.2214    0.0000 C   0  0  0  0  0  0  0  0  0  0  0  0
   -1.1162    1.4589    0.0000 C   0  0  0  0  0  0  0  0  0  0  0  0
   -1.8307    1.8714    0.0000 C   0  0  0  0  0  0  0  0  0  0  0  0
   -2.5452    1.4589    0.0000 C   0  0  0  0  0  0  0  0  0  0  0  0
   -2.5452    0.6339    0.0000 C   0  0  0  0  0  0  0  0  0  0  0  0
   -3.2597    1.8714    0.0000 C   0  0  0  0  0  0  0  0  0  0  0  0
   -0.4018    1.8714    0.0000 C   0  0  0  0  0  0  0  0  0  0  0  0
   -0.4018    2.6964    0.0000 C   0  0  0  0  0  0  0  0  0  0  0  0
   -1.1163    3.1089    0.0000 O   0  0  0  0  0  0  0  0  0  0  0  0
    0.3126    3.1089    0.0000 O   0  0  0  0  0  0  0  0  0  0  0  0
  1  2  1  0  0  0  0
  1  6  2  0  0  0  0
  2  3  2  0  0  0  0
  3  4  1  0  0  0  0
  4  5  2  0  0  0  0
  5  6  1  0  0  0  0
  1  7  1  0  0  0  0
  6  8  1  0  0  0  0
  2  9  1  0  0  0  0
  7 10  1  0  0  0  0
 10 11  2  0  0  0  0
 12 13  2  0  0  0  0
 13 14  1  0  0  0  0
 14 15  2  0  0  0  0
 10 12  1  0  0  0  0
 15 11  1  0  0  0  0
 14 16  1  0  0  0  0
 12 17  1  0  0  0  0
 17 18  1  0  0  0  0
 18 19  2  0  0  0  0
 18 20  1  0  0  0  0
M  END
> <DATABASE_ID>
DB01283

> <DATABASE_NAME>
drugbank

> <SMILES>
CC1=CC=C(NC2=C(Cl)C=CC=C2F)C(CC(O)=O)=C1

> <INCHI_IDENTIFIER>
InChI=1S/C15H13ClFNO2/c1-9-5-6-13(10(7-9)8-14(19)20)18-15-11(16)3-2-4-12(15)17/h2-7,18H,8H2,1H3,(H,19,20)

> <INCHI_KEY>
KHPKQFYUPIUARC-UHFFFAOYSA-N

> <FORMULA>
C15H13ClFNO2

> <MOLECULAR_WEIGHT>
293.721

> <EXACT_MASS>
293.061884577

> <JCHEM_ACCEPTOR_COUNT>
3

> <JCHEM_ATOM_COUNT>
33

> <JCHEM_AVERAGE_NEUTRAL_MICROSPECIES_CHARGE>
-0.9986988278171517

> <JCHEM_AVERAGE_POLARIZABILITY>
28.53892115741475

> <JCHEM_BIOAVAILABILITY>
1

> <JCHEM_DONOR_COUNT>
2

> <JCHEM_FORMAL_CHARGE>
0

> <JCHEM_GHOSE_FILTER>
1

> <JCHEM_IUPAC>
2-{2-[(2-chloro-6-fluorophenyl)amino]-5-methylphenyl}acetic acid

> <ALOGPS_LOGP>
4.56

> <JCHEM_LOGP>
4.311087882666666

> <ALOGPS_LOGS>
-4.73

> <JCHEM_MDDR_LIKE_RULE>
0

> <JCHEM_NEUTRAL_CHARGE>
-1

> <JCHEM_NUMBER_OF_RINGS>
2

> <JCHEM_PHYSIOLOGICAL_CHARGE>
-1

> <JCHEM_PKA>
16.42317816721037

> <JCHEM_PKA_STRONGEST_ACIDIC>
4.114907569792048

> <JCHEM_PKA_STRONGEST_BASIC>
-1.3411931418530956

> <JCHEM_POLAR_SURFACE_AREA>
49.33

> <JCHEM_REFRACTIVITY>
75.91419999999998

> <JCHEM_ROTATABLE_BOND_COUNT>
4

> <JCHEM_RULE_OF_FIVE>
1

> <ALOGPS_SOLUBILITY>
5.49e-03 g/l

> <JCHEM_TRADITIONAL_IUPAC>
tetrahydrofolic acid

> <JCHEM_VEBER_RULE>
0

> <DRUGBANK_ID>
DB01283

> <DRUG_GROUPS>
approved; investigational

> <GENERIC_NAME>
Lumiracoxib

> <SYNONYMS>
2-((2-chloro-6-fluorophenyl)amino)-5-methylbenzeneacetic acid; Lumiracoxib; Lumiracoxibum

> <INTERNATIONAL_BRANDS>
Prexige

$$$$
