
  Mrv0541 02231217322D          

 33 32  0  0  0  0            999 V2000
   14.1868    4.8908    0.0000 O   0  0  0  0  0  0  0  0  0  0  0  0
   14.9013    4.4783    0.0000 C   0  0  0  0  0  0  0  0  0  0  0  0
   14.9013    3.6533    0.0000 O   0  0  0  0  0  0  0  0  0  0  0  0
   15.6158    4.8908    0.0000 C   0  0  0  0  0  0  0  0  0  0  0  0
   15.6158    5.7158    0.0000 N   0  0  0  0  0  0  0  0  0  0  0  0
   14.9013    6.1283    0.0000 C   0  0  0  0  0  0  0  0  0  0  0  0
   14.1868    5.7158    0.0000 C   0  0  0  0  0  0  0  0  0  0  0  0
   13.4724    6.1283    0.0000 N   0  0  0  0  0  0  0  0  0  0  0  0
   13.4724    6.9533    0.0000 C   0  0  0  0  0  0  0  0  0  0  0  0
   14.1868    7.3658    0.0000 C   0  0  0  0  0  0  0  0  0  0  0  0
   14.1868    8.1908    0.0000 O   0  0  0  0  0  0  0  0  0  0  0  0
   14.9013    6.9533    0.0000 O   0  0  0  0  0  0  0  0  0  0  0  0
   12.7579    5.7158    0.0000 C   0  0  0  0  0  0  0  0  0  0  0  0
   12.0434    6.1283    0.0000 C   0  0  0  0  0  0  0  0  0  0  0  0
   12.0434    6.9533    0.0000 O   0  0  0  0  0  0  0  0  0  0  0  0
   11.3289    5.7158    0.0000 N   0  0  0  0  0  0  0  0  0  0  0  0
   10.6145    6.1283    0.0000 C   0  0  0  0  0  0  0  0  0  0  0  0
    9.9000    5.7158    0.0000 C   0  0  0  0  0  0  0  0  0  0  0  0
    9.1855    6.1283    0.0000 S   0  0  0  0  0  0  0  0  0  0  0  0
   16.3302    6.1283    0.0000 C   0  0  0  0  0  0  0  0  0  0  0  0
   17.0447    5.7158    0.0000 C   0  0  0  0  0  0  0  0  0  0  0  0
   17.7592    6.1283    0.0000 N   0  0  0  0  0  0  0  0  0  0  0  0
   17.7592    6.9533    0.0000 C   0  0  0  0  0  0  0  0  0  0  0  0
   17.0447    7.3658    0.0000 C   0  0  0  0  0  0  0  0  0  0  0  0
   16.3302    6.9533    0.0000 O   0  0  0  0  0  0  0  0  0  0  0  0
   17.0447    8.1908    0.0000 O   0  0  0  0  0  0  0  0  0  0  0  0
   18.4737    5.7158    0.0000 C   0  0  0  0  0  0  0  0  0  0  0  0
   19.1881    6.1283    0.0000 C   0  0  0  0  0  0  0  0  0  0  0  0
   19.1881    6.9533    0.0000 O   0  0  0  0  0  0  0  0  0  0  0  0
   19.9026    5.7158    0.0000 N   0  0  0  0  0  0  0  0  0  0  0  0
   20.6171    6.1283    0.0000 C   0  0  0  0  0  0  0  0  0  0  0  0
   21.3315    5.7158    0.0000 C   0  0  0  0  0  0  0  0  0  0  0  0
   22.0460    6.1283    0.0000 S   0  0  0  0  0  0  0  0  0  0  0  0
  1  2  1  0  0  0  0
  2  3  2  0  0  0  0
  2  4  1  0  0  0  0
  4  5  1  0  0  0  0
  5  6  1  0  0  0  0
  6  7  1  0  0  0  0
  7  8  1  0  0  0  0
  8  9  1  0  0  0  0
  9 10  1  0  0  0  0
 10 11  1  0  0  0  0
 10 12  2  0  0  0  0
  8 13  1  0  0  0  0
 13 14  1  0  0  0  0
 14 15  2  0  0  0  0
 14 16  1  0  0  0  0
 16 17  1  0  0  0  0
 17 18  1  0  0  0  0
 18 19  1  0  0  0  0
  5 20  1  0  0  0  0
 20 21  1  0  0  0  0
 21 22  1  0  0  0  0
 22 23  1  0  0  0  0
 23 24  1  0  0  0  0
 24 25  1  0  0  0  0
 24 26  2  0  0  0  0
 22 27  1  0  0  0  0
 27 28  1  0  0  0  0
 28 29  2  0  0  0  0
 28 30  1  0  0  0  0
 30 31  1  0  0  0  0
 31 32  1  0  0  0  0
 32 33  1  0  0  0  0
M  END
> <DATABASE_ID>
DB04229

> <DATABASE_NAME>
drugbank

> <SMILES>
OC(=O)CN(CCN(CC(O)=O)CC(=O)NCCS)CCN(CC(O)=O)CC(=O)NCCS

> <INCHI_IDENTIFIER>
InChI=1S/C18H33N5O8S2/c24-14(19-1-7-32)9-22(12-17(28)29)5-3-21(11-16(26)27)4-6-23(13-18(30)31)10-15(25)20-2-8-33/h32-33H,1-13H2,(H,19,24)(H,20,25)(H,26,27)(H,28,29)(H,30,31)

> <INCHI_KEY>
MRDWXQKAAKNXSP-UHFFFAOYSA-N

> <FORMULA>
C18H33N5O8S2

> <MOLECULAR_WEIGHT>
511.613

> <EXACT_MASS>
511.177054437

> <JCHEM_ACCEPTOR_COUNT>
11

> <JCHEM_ATOM_COUNT>
66

> <JCHEM_AVERAGE_NEUTRAL_MICROSPECIES_CHARGE>
-0.718825129333094

> <JCHEM_AVERAGE_POLARIZABILITY>
51.790447749684716

> <JCHEM_BIOAVAILABILITY>
0

> <JCHEM_DONOR_COUNT>
7

> <JCHEM_FORMAL_CHARGE>
0

> <JCHEM_GHOSE_FILTER>
0

> <JCHEM_IUPAC>
2-[bis({2-[(carboxymethyl)({[(2-sulfanylethyl)carbamoyl]methyl})amino]ethyl})amino]acetic acid

> <ALOGPS_LOGP>
-1.34

> <JCHEM_LOGP>
-7.896902350704842

> <ALOGPS_LOGS>
-3.12

> <JCHEM_MDDR_LIKE_RULE>
0

> <JCHEM_NEUTRAL_CHARGE>
0

> <JCHEM_NUMBER_OF_RINGS>
0

> <JCHEM_PHYSIOLOGICAL_CHARGE>
-1

> <JCHEM_PKA>
1.6554230008453583

> <JCHEM_PKA_STRONGEST_ACIDIC>
1.0551242733700064

> <JCHEM_PKA_STRONGEST_BASIC>
8.32867916000748

> <JCHEM_POLAR_SURFACE_AREA>
179.82

> <JCHEM_REFRACTIVITY>
124.83689999999996

> <JCHEM_ROTATABLE_BOND_COUNT>
20

> <JCHEM_RULE_OF_FIVE>
0

> <ALOGPS_SOLUBILITY>
3.91e-01 g/l

> <JCHEM_TRADITIONAL_IUPAC>
tetrahydrofolic acid

> <JCHEM_VEBER_RULE>
0

> <DRUGBANK_ID>
DB04229

> <SECONDARY_ACCESSION_NUMBERS>
EXPT03274

> <DRUG_GROUPS>
experimental

> <GENERIC_NAME>
7,10,13-Tri(Carboxymethyl)-5,15-Dioxo-4,7,10,13,16-Pentaaza-1,19-Dithianonadecane

$$$$
