
  Mrv0541 05041412212D          

 17 16  0  0  1  0            999 V2000
   -0.1914    0.7145    0.0000 C   0  0  0  0  0  0  0  0  0  0  0  0
    0.5230    1.1270    0.0000 C   0  0  1  0  0  0  0  0  0  0  0  0
    1.2375    0.7145    0.0000 C   0  0  2  0  0  0  0  0  0  0  0  0
    1.9520    1.1270    0.0000 C   0  0  1  0  0  0  0  0  0  0  0  0
    2.6664    0.7145    0.0000 N   0  0  0  0  0  0  0  0  0  0  0  0
    0.5230    1.9520    0.0000 O   0  0  0  0  0  0  0  0  0  0  0  0
    1.2375   -0.1105    0.0000 O   0  0  0  0  0  0  0  0  0  0  0  0
    1.9520    1.9520    0.0000 O   0  0  0  0  0  0  0  0  0  0  0  0
    3.3809    1.1270    0.0000 O   0  0  0  0  0  0  0  0  0  0  0  0
   -2.3349    0.3020    0.0000 O   0  0  0  0  0  0  0  0  0  0  0  0
   -2.0329    1.4289    0.0000 O   0  0  0  0  0  0  0  0  0  0  0  0
   -1.2079    0.0000    0.0000 O   0  0  0  0  0  0  0  0  0  0  0  0
   -0.9059    1.1270    0.0000 O   0  0  0  0  0  0  0  0  0  0  0  0
   -1.6204    0.7145    0.0000 P   0  0  0  0  0  0  0  0  0  0  0  0
    0.5230    0.3020    0.0000 H   0  0  0  0  0  0  0  0  0  0  0  0
    1.2375    1.5395    0.0000 H   0  0  0  0  0  0  0  0  0  0  0  0
    1.9520    0.3020    0.0000 H   0  0  0  0  0  0  0  0  0  0  0  0
  2  1  1  0  0  0  0
  3  2  1  0  0  0  0
  4  3  1  0  0  0  0
  5  4  1  0  0  0  0
  2  6  1  1  0  0  0
  3  7  1  1  0  0  0
  4  8  1  1  0  0  0
  9  5  1  0  0  0  0
 13  1  1  0  0  0  0
 14 10  1  0  0  0  0
 14 11  1  0  0  0  0
 14 12  2  0  0  0  0
 14 13  1  0  0  0  0
  2 15  1  1  0  0  0
  3 16  1  1  0  0  0
  4 17  1  1  0  0  0
M  END
> <DATABASE_ID>
DB03855

> <DATABASE_NAME>
drugbank

> <SMILES>
[H][C@](O)(COP(O)(O)=O)[C@@]([H])(O)[C@]([H])(O)NO

> <INCHI_IDENTIFIER>
InChI=1S/C4H12NO8P/c6-2(1-13-14(10,11)12)3(7)4(8)5-9/h2-9H,1H2,(H2,10,11,12)/t2-,3+,4-/m0/s1

> <INCHI_KEY>
CSVKNYIFCYRDJM-NUNKFHFFSA-N

> <FORMULA>
C4H12NO8P

> <MOLECULAR_WEIGHT>
233.1137

> <EXACT_MASS>
233.030052877

> <JCHEM_ACCEPTOR_COUNT>
8

> <JCHEM_ATOM_COUNT>
26

> <JCHEM_AVERAGE_NEUTRAL_MICROSPECIES_CHARGE>
-1.8593540098395887

> <JCHEM_AVERAGE_POLARIZABILITY>
18.105510020010065

> <JCHEM_BIOAVAILABILITY>
1

> <JCHEM_DONOR_COUNT>
7

> <JCHEM_FORMAL_CHARGE>
0

> <JCHEM_GHOSE_FILTER>
0

> <JCHEM_IUPAC>
[(2S,3R,4S)-2,3,4-trihydroxy-4-(hydroxyamino)butoxy]phosphonic acid

> <ALOGPS_LOGP>
-2.29

> <JCHEM_LOGP>
-4.13917422450118

> <ALOGPS_LOGS>
-1.18

> <JCHEM_MDDR_LIKE_RULE>
0

> <JCHEM_NEUTRAL_CHARGE>
-2

> <JCHEM_NUMBER_OF_RINGS>
0

> <JCHEM_PHYSIOLOGICAL_CHARGE>
-2

> <JCHEM_PKA>
6.514488581817583

> <JCHEM_PKA_STRONGEST_ACIDIC>
3.3995465665979996

> <JCHEM_PKA_STRONGEST_BASIC>
1.46774812954983

> <JCHEM_POLAR_SURFACE_AREA>
159.70999999999998

> <JCHEM_REFRACTIVITY>
52.296299999999995

> <JCHEM_ROTATABLE_BOND_COUNT>
6

> <JCHEM_RULE_OF_FIVE>
0

> <ALOGPS_SOLUBILITY>
1.56e+01 g/l

> <JCHEM_TRADITIONAL_IUPAC>
biotin

> <JCHEM_VEBER_RULE>
0

> <DRUGBANK_ID>
DB03855

> <SECONDARY_ACCESSION_NUMBERS>
EXPT03133

> <DRUG_GROUPS>
experimental

> <GENERIC_NAME>
L-Threonohydroxamate 4-Phosphate

$$$$
