
  Mrv0541 05031423422D          

 96102  0  0  1  0            999 V2000
   11.8104    5.1216    0.0000 C   0  0  0  0  0  0  0  0  0  0  0  0
   12.0595    1.3535    0.0000 C   0  0  0  0  0  0  0  0  0  0  0  0
    8.9230    1.8232    0.0000 C   0  0  0  0  0  0  0  0  0  0  0  0
   11.7883   -0.4573    0.0000 C   0  0  0  0  0  0  0  0  0  0  0  0
    5.7843   -0.2764    0.0000 C   0  0  0  0  0  0  0  0  0  0  0  0
    8.9008   -3.7556    0.0000 C   0  0  0  0  0  0  0  0  0  0  0  0
   11.8886    4.3003    0.0000 C   0  0  2  0  0  0  0  0  0  0  0  0
   12.8161    1.0247    0.0000 C   0  0  2  0  0  0  0  0  0  0  0  0
    8.8294    2.6429    0.0000 C   0  0  2  0  0  0  0  0  0  0  0  0
   11.8819   -1.2770    0.0000 C   0  0  2  0  0  0  0  0  0  0  0  0
    6.4565    0.2019    0.0000 C   0  0  2  0  0  0  0  0  0  0  0  0
    8.8227   -2.9344    0.0000 C   0  0  2  0  0  0  0  0  0  0  0  0
   11.2899    2.9847    0.0000 C   0  0  2  0  0  0  0  0  0  0  0  0
    7.9894    3.8192    0.0000 C   0  0  2  0  0  0  0  0  0  0  0  0
   14.2548    1.1641    0.0000 C   0  0  2  0  0  0  0  0  0  0  0  0
    7.8952    0.3412    0.0000 C   0  0  2  0  0  0  0  0  0  0  0  0
   12.7219   -2.4532    0.0000 C   0  0  2  0  0  0  0  0  0  0  0  0
    9.4214   -1.6187    0.0000 C   0  0  2  0  0  0  0  0  0  0  0  0
   12.0496    2.6418    0.0000 C   0  0  2  0  0  0  0  0  0  0  0  0
    8.6515    4.3147    0.0000 C   0  0  2  0  0  0  0  0  0  0  0  0
   14.3529    0.3429    0.0000 C   0  0  2  0  0  0  0  0  0  0  0  0
    7.8123    1.1706    0.0000 C   0  0  2  0  0  0  0  0  0  0  0  0
   12.0598   -2.9488    0.0000 C   0  0  2  0  0  0  0  0  0  0  0  0
    8.6617   -1.2759    0.0000 C   0  0  2  0  0  0  0  0  0  0  0  0
   11.1823    3.8229    0.0000 C   0  0  2  0  0  0  0  0  0  0  0  0
   13.4882    1.5370    0.0000 C   0  0  2  0  0  0  0  0  0  0  0  0
    8.0497    2.9688    0.0000 C   0  0  2  0  0  0  0  0  0  0  0  0
   12.6616   -1.6029    0.0000 C   0  0  2  0  0  0  0  0  0  0  0  0
    7.2231   -0.1711    0.0000 C   0  0  2  0  0  0  0  0  0  0  0  0
    9.5290   -2.4570    0.0000 C   0  0  2  0  0  0  0  0  0  0  0  0
   12.7383    3.1112    0.0000 C   0  0  2  0  0  0  0  0  0  0  0  0
    9.4440    3.9605    0.0000 C   0  0  2  0  0  0  0  0  0  0  0  0
   13.6499   -0.1663    0.0000 C   0  0  2  0  0  0  0  0  0  0  0  0
    7.0614    1.5322    0.0000 C   0  0  2  0  0  0  0  0  0  0  0  0
   11.2673   -2.5946    0.0000 C   0  0  2  0  0  0  0  0  0  0  0  0
    7.9730   -1.7453    0.0000 C   0  0  2  0  0  0  0  0  0  0  0  0
   12.4826    5.5999    0.0000 O   0  0  0  0  0  0  0  0  0  0  0  0
   11.3964    0.8627    0.0000 O   0  0  0  0  0  0  0  0  0  0  0  0
    9.6797    1.4944    0.0000 O   0  0  0  0  0  0  0  0  0  0  0  0
   11.0316   -0.1285    0.0000 O   0  0  0  0  0  0  0  0  0  0  0  0
    5.0340    0.0665    0.0000 O   0  0  0  0  0  0  0  0  0  0  0  0
    9.6512   -4.0986    0.0000 O   0  0  0  0  0  0  0  0  0  0  0  0
   10.6268    2.4938    0.0000 O   0  0  0  0  0  0  0  0  0  0  0  0
    7.2391    4.1622    0.0000 O   0  0  0  0  0  0  0  0  0  0  0  0
   14.9270    1.6424    0.0000 O   0  0  0  0  0  0  0  0  0  0  0  0
    8.6518    0.0124    0.0000 O   0  0  0  0  0  0  0  0  0  0  0  0
   13.4722   -2.7962    0.0000 O   0  0  0  0  0  0  0  0  0  0  0  0
   10.0845   -1.1279    0.0000 O   0  0  0  0  0  0  0  0  0  0  0  0
   12.1214    1.8199    0.0000 O   0  0  0  0  0  0  0  0  0  0  0  0
    8.5601    5.1346    0.0000 O   0  0  0  0  0  0  0  0  0  0  0  0
   15.1087    0.0121    0.0000 O   0  0  0  0  0  0  0  0  0  0  0  0
    8.4881    1.6437    0.0000 O   0  0  0  0  0  0  0  0  0  0  0  0
   12.1512   -3.7687    0.0000 O   0  0  0  0  0  0  0  0  0  0  0  0
    8.5899   -0.4540    0.0000 O   0  0  0  0  0  0  0  0  0  0  0  0
   12.6488    3.9746    0.0000 O   0  0  0  0  0  0  0  0  0  0  0  0
    9.5062    3.1294    0.0000 O   0  0  0  0  0  0  0  0  0  0  0  0
   12.8990    0.1954    0.0000 O   0  0  0  0  0  0  0  0  0  0  0  0
    6.3584    1.0230    0.0000 O   0  0  0  0  0  0  0  0  0  0  0  0
   11.2051   -1.7635    0.0000 O   0  0  0  0  0  0  0  0  0  0  0  0
    8.0625   -2.6087    0.0000 O   0  0  0  0  0  0  0  0  0  0  0  0
   10.3131    3.9702    0.0000 O   0  0  0  0  0  0  0  0  0  0  0  0
   13.1812    2.3634    0.0000 O   0  0  0  0  0  0  0  0  0  0  0  0
    7.4875    2.2897    0.0000 O   0  0  0  0  0  0  0  0  0  0  0  0
   13.2238   -0.9238    0.0000 O   0  0  0  0  0  0  0  0  0  0  0  0
    7.5301   -0.9975    0.0000 O   0  0  0  0  0  0  0  0  0  0  0  0
   10.3982   -2.6043    0.0000 O   0  0  0  0  0  0  0  0  0  0  0  0
   11.1424    4.6523    0.0000 H   0  0  0  0  0  0  0  0  0  0  0  0
   12.7168    1.8437    0.0000 H   0  0  0  0  0  0  0  0  0  0  0  0
    8.1698    2.1474    0.0000 H   0  0  0  0  0  0  0  0  0  0  0  0
   12.5415   -0.7815    0.0000 H   0  0  0  0  0  0  0  0  0  0  0  0
    6.8018   -0.5474    0.0000 H   0  0  0  0  0  0  0  0  0  0  0  0
    9.6443   -3.0099    0.0000 H   0  0  0  0  0  0  0  0  0  0  0  0
   11.6530    2.2439    0.0000 H   0  0  0  0  0  0  0  0  0  0  0  0
    7.3115    3.3490    0.0000 H   0  0  0  0  0  0  0  0  0  0  0  0
   15.0779    1.1083    0.0000 H   0  0  0  0  0  0  0  0  0  0  0  0
    7.9945   -0.4778    0.0000 H   0  0  0  0  0  0  0  0  0  0  0  0
   13.0851   -3.1940    0.0000 H   0  0  0  0  0  0  0  0  0  0  0  0
   10.1803   -1.9422    0.0000 H   0  0  0  0  0  0  0  0  0  0  0  0
   11.5806    1.9631    0.0000 H   0  0  0  0  0  0  0  0  0  0  0  0
    9.3178    4.8013    0.0000 H   0  0  0  0  0  0  0  0  0  0  0  0
   15.1436    0.5784    0.0000 H   0  0  0  0  0  0  0  0  0  0  0  0
    7.7456    1.9928    0.0000 H   0  0  0  0  0  0  0  0  0  0  0  0
   12.6591   -3.5158    0.0000 H   0  0  0  0  0  0  0  0  0  0  0  0
    7.9162   -0.9225    0.0000 H   0  0  0  0  0  0  0  0  0  0  0  0
   11.5459    4.5634    0.0000 H   0  0  0  0  0  0  0  0  0  0  0  0
   14.0992    2.0914    0.0000 H   0  0  0  0  0  0  0  0  0  0  0  0
    7.5902    3.6540    0.0000 H   0  0  0  0  0  0  0  0  0  0  0  0
   13.4472   -1.8548    0.0000 H   0  0  0  0  0  0  0  0  0  0  0  0
    6.8385   -0.9010    0.0000 H   0  0  0  0  0  0  0  0  0  0  0  0
    9.9689   -3.1549    0.0000 H   0  0  0  0  0  0  0  0  0  0  0  0
   13.1820    3.8067    0.0000 H   0  0  0  0  0  0  0  0  0  0  0  0
    9.0636    4.6926    0.0000 H   0  0  0  0  0  0  0  0  0  0  0  0
   14.2657   -0.7154    0.0000 H   0  0  0  0  0  0  0  0  0  0  0  0
    6.4456    2.0813    0.0000 H   0  0  0  0  0  0  0  0  0  0  0  0
   11.0997   -3.4024    0.0000 H   0  0  0  0  0  0  0  0  0  0  0  0
    7.1896   -2.0041    0.0000 H   0  0  0  0  0  0  0  0  0  0  0  0
  7  1  1  1  0  0  0
  8  2  1  6  0  0  0
  9  3  1  6  0  0  0
 10  4  1  6  0  0  0
 11  5  1  1  0  0  0
 12  6  1  1  0  0  0
 19 13  1  0  0  0  0
 20 14  1  0  0  0  0
 21 15  1  0  0  0  0
 22 16  1  0  0  0  0
 23 17  1  0  0  0  0
 24 18  1  0  0  0  0
 25  7  1  0  0  0  0
 25 13  1  0  0  0  0
 26  8  1  0  0  0  0
 26 15  1  0  0  0  0
 27  9  1  0  0  0  0
 27 14  1  0  0  0  0
 28 10  1  0  0  0  0
 28 17  1  0  0  0  0
 29 11  1  0  0  0  0
 29 16  1  0  0  0  0
 30 12  1  0  0  0  0
 30 18  1  0  0  0  0
 31 19  1  0  0  0  0
 32 20  1  0  0  0  0
 33 21  1  0  0  0  0
 34 22  1  0  0  0  0
 35 23  1  0  0  0  0
 36 24  1  0  0  0  0
 37  1  1  0  0  0  0
 38  2  1  0  0  0  0
 39  3  1  0  0  0  0
 40  4  1  0  0  0  0
 41  5  1  0  0  0  0
 42  6  1  0  0  0  0
 13 43  1  1  0  0  0
 14 44  1  6  0  0  0
 15 45  1  6  0  0  0
 16 46  1  1  0  0  0
 17 47  1  6  0  0  0
 18 48  1  1  0  0  0
 19 49  1  6  0  0  0
 20 50  1  1  0  0  0
 21 51  1  1  0  0  0
 22 52  1  6  0  0  0
 23 53  1  1  0  0  0
 24 54  1  6  0  0  0
 55  7  1  0  0  0  0
 55 31  1  0  0  0  0
 56  9  1  0  0  0  0
 56 32  1  0  0  0  0
 57  8  1  0  0  0  0
 57 33  1  0  0  0  0
 58 11  1  0  0  0  0
 58 34  1  0  0  0  0
 59 10  1  0  0  0  0
 59 35  1  0  0  0  0
 60 12  1  0  0  0  0
 60 36  1  0  0  0  0
 61 25  1  0  0  0  0
 61 32  1  0  0  0  0
 62 26  1  0  0  0  0
 62 31  1  0  0  0  0
 63 27  1  0  0  0  0
 63 34  1  0  0  0  0
 64 28  1  0  0  0  0
 64 33  1  0  0  0  0
 65 29  1  0  0  0  0
 65 36  1  0  0  0  0
 66 30  1  0  0  0  0
 66 35  1  0  0  0  0
  7 67  1  6  0  0  0
  8 68  1  1  0  0  0
  9 69  1  1  0  0  0
 10 70  1  1  0  0  0
 11 71  1  6  0  0  0
 12 72  1  6  0  0  0
 13 73  1  6  0  0  0
 14 74  1  1  0  0  0
 15 75  1  1  0  0  0
 16 76  1  6  0  0  0
 17 77  1  1  0  0  0
 18 78  1  6  0  0  0
 19 79  1  1  0  0  0
 20 80  1  6  0  0  0
 21 81  1  6  0  0  0
 22 82  1  1  0  0  0
 23 83  1  6  0  0  0
 24 84  1  1  0  0  0
 25 85  1  1  0  0  0
 26 86  1  6  0  0  0
 27 87  1  6  0  0  0
 28 88  1  6  0  0  0
 29 89  1  1  0  0  0
 30 90  1  1  0  0  0
 31 91  1  1  0  0  0
 32 92  1  6  0  0  0
 33 93  1  6  0  0  0
 34 94  1  1  0  0  0
 35 95  1  6  0  0  0
 36 96  1  1  0  0  0
M  END
> <DATABASE_ID>
DB01909

> <DATABASE_NAME>
drugbank

> <SMILES>
[H][C@]1(CO)O[C@]2([H])O[C@]3([H])[C@@]([H])(CO)O[C@]([H])(O[C@]4([H])[C@@]([H])(CO)O[C@]([H])(O[C@]5([H])[C@@]([H])(CO)O[C@]([H])(O[C@]6([H])[C@@]([H])(CO)O[C@]([H])(O[C@]7([H])[C@@]([H])(CO)O[C@]([H])(O[C@@]1([H])[C@]([H])(O)[C@@]2([H])O)[C@]([H])(O)[C@@]7([H])O)[C@]([H])(O)[C@@]6([H])O)[C@]([H])(O)[C@@]5([H])O)[C@]([H])(O)[C@@]4([H])O)[C@]([H])(O)[C@@]3([H])O

> <INCHI_IDENTIFIER>
InChI=1S/C36H60O30/c37-1-7-25-13(43)19(49)31(55-7)62-26-8(2-38)57-33(21(51)15(26)45)64-28-10(4-40)59-35(23(53)17(28)47)66-30-12(6-42)60-36(24(54)18(30)48)65-29-11(5-41)58-34(22(52)16(29)46)63-27-9(3-39)56-32(61-25)20(50)14(27)44/h7-54H,1-6H2/t7-,8-,9-,10-,11-,12-,13-,14-,15-,16-,17-,18-,19-,20-,21-,22-,23-,24-,25-,26-,27-,28-,29-,30-,31-,32-,33-,34-,35-,36-/m1/s1

> <INCHI_KEY>
HFHDHCJBZVLPGP-RWMJIURBSA-N

> <FORMULA>
C36H60O30

> <MOLECULAR_WEIGHT>
972.8436

> <EXACT_MASS>
972.31694058

> <JCHEM_ACCEPTOR_COUNT>
30

> <JCHEM_ATOM_COUNT>
126

> <JCHEM_AVERAGE_NEUTRAL_MICROSPECIES_CHARGE>
-2.274335388449521e-05

> <JCHEM_AVERAGE_POLARIZABILITY>
89.62282502735076

> <JCHEM_BIOAVAILABILITY>
0

> <JCHEM_DONOR_COUNT>
18

> <JCHEM_FORMAL_CHARGE>
0

> <JCHEM_GHOSE_FILTER>
0

> <JCHEM_IUPAC>
(1S,3R,5R,6S,8R,10R,11S,13R,15R,16S,18R,20R,21S,23R,25R,26S,28R,30R,31R,32R,33R,34R,35R,36R,37R,38R,39R,40R,41R,42R)-5,10,15,20,25,30-hexakis(hydroxymethyl)-2,4,7,9,12,14,17,19,22,24,27,29-dodecaoxaheptacyclo[26.2.2.2^{3,6}.2^{8,11}.2^{13,16}.2^{18,21}.2^{23,26}]dotetracontane-31,32,33,34,35,36,37,38,39,40,41,42-dodecol

> <ALOGPS_LOGP>
-2.37

> <JCHEM_LOGP>
-10.625013874

> <ALOGPS_LOGS>
-0.09

> <JCHEM_MDDR_LIKE_RULE>
1

> <JCHEM_NEUTRAL_CHARGE>
0

> <JCHEM_NUMBER_OF_RINGS>
7

> <JCHEM_PHYSIOLOGICAL_CHARGE>
0

> <JCHEM_PKA>
11.939021319942066

> <JCHEM_PKA_STRONGEST_ACIDIC>
11.559622382619427

> <JCHEM_PKA_STRONGEST_BASIC>
-3.685487729231746

> <JCHEM_POLAR_SURFACE_AREA>
474.90000000000026

> <JCHEM_REFRACTIVITY>
194.47980000000015

> <JCHEM_ROTATABLE_BOND_COUNT>
6

> <JCHEM_RULE_OF_FIVE>
0

> <ALOGPS_SOLUBILITY>
7.92e+02 g/l

> <JCHEM_TRADITIONAL_IUPAC>
biotin

> <JCHEM_VEBER_RULE>
0

> <DRUGBANK_ID>
DB01909

> <SECONDARY_ACCESSION_NUMBERS>
EXPT00422

> <DRUG_GROUPS>
experimental

> <GENERIC_NAME>
Alpha-Cyclodextrin (Cyclohexa-Amylose)

$$$$
