
  Mrv0541 05041410392D          

 25 27  0  0  1  0            999 V2000
   -0.5683   -1.4940    0.0000 C   0  0  0  0  0  0  0  0  0  0  0  0
    3.3523    1.1104    0.0000 C   0  0  0  0  0  0  0  0  0  0  0  0
    0.0992   -1.0091    0.0000 C   0  0  2  0  0  0  0  0  0  0  0  0
    1.9233    1.9354    0.0000 C   0  0  0  0  0  0  0  0  0  0  0  0
    0.8838   -1.2640    0.0000 C   0  0  2  0  0  0  0  0  0  0  0  0
    1.3687   -0.5966    0.0000 C   0  0  2  0  0  0  0  0  0  0  0  0
    1.1387    2.1904    0.0000 C   0  0  1  0  0  0  0  0  0  0  0  0
    2.6378    2.3479    0.0000 C   0  0  0  0  0  0  0  0  0  0  0  0
    1.9233    1.1104    0.0000 C   0  0  0  0  0  0  0  0  0  0  0  0
    0.8838    0.0709    0.0000 C   0  0  2  0  0  0  0  0  0  0  0  0
    0.8838    2.9750    0.0000 I   0  0  0  0  0  0  0  0  0  0  0  0
    2.6378    3.1729    0.0000 N   0  0  0  0  0  0  0  0  0  0  0  0
    3.3523    1.9354    0.0000 N   0  0  0  0  0  0  0  0  0  0  0  0
    2.6378    0.6979    0.0000 N   0  0  0  0  0  0  0  0  0  0  0  0
    0.6538    1.5229    0.0000 N   0  0  0  0  0  0  0  0  0  0  0  0
    1.1387    0.8555    0.0000 N   0  0  0  0  0  0  0  0  0  0  0  0
   -0.4820   -2.3145    0.0000 O   0  0  0  0  0  0  0  0  0  0  0  0
    1.1387   -2.0486    0.0000 O   0  0  0  0  0  0  0  0  0  0  0  0
    2.1937   -0.5966    0.0000 O   0  0  0  0  0  0  0  0  0  0  0  0
    0.0992   -0.1841    0.0000 O   0  0  0  0  0  0  0  0  0  0  0  0
    0.4991   -1.7306    0.0000 H   0  0  0  0  0  0  0  0  0  0  0  0
    0.5351   -2.0117    0.0000 H   0  0  0  0  0  0  0  0  0  0  0  0
    1.7432   -1.3316    0.0000 H   0  0  0  0  0  0  0  0  0  0  0  0
    1.7221    2.7737    0.0000 H   0  0  0  0  0  0  0  0  0  0  0  0
    1.6986    0.1999    0.0000 H   0  0  0  0  0  0  0  0  0  0  0  0
  3  1  1  1  0  0  0
  5  3  1  0  0  0  0
  6  5  1  0  0  0  0
  7  4  1  0  0  0  0
  8  4  2  0  0  0  0
  9  4  1  0  0  0  0
 10  6  1  0  0  0  0
  7 11  1  6  0  0  0
 12  8  1  0  0  0  0
 13  2  2  0  0  0  0
 13  8  1  0  0  0  0
 14  2  1  0  0  0  0
 14  9  2  0  0  0  0
 15  7  1  0  0  0  0
 16  9  1  0  0  0  0
 10 16  1  1  0  0  0
 16 15  1  0  0  0  0
 17  1  1  0  0  0  0
  5 18  1  6  0  0  0
  6 19  1  6  0  0  0
 20  3  1  0  0  0  0
 20 10  1  0  0  0  0
  3 21  1  6  0  0  0
  5 22  1  1  0  0  0
  6 23  1  1  0  0  0
  7 24  1  1  0  0  0
 10 25  1  6  0  0  0
M  END
> <DATABASE_ID>
DB02416

> <DATABASE_NAME>
drugbank

> <SMILES>
[H][C@]1(I)NN(C2=NC=NC(N)=C12)[C@]1([H])O[C@]([H])(CO)[C@@]([H])(O)[C@@]1([H])O

> <INCHI_IDENTIFIER>
InChI=1S/C10H14IN5O4/c11-7-4-8(12)13-2-14-9(4)16(15-7)10-6(19)5(18)3(1-17)20-10/h2-3,5-7,10,15,17-19H,1H2,(H2,12,13,14)/t3-,5-,6-,7+,10-/m1/s1

> <INCHI_KEY>
IPMOTTQXPAXTMS-CKVFBBIQSA-N

> <FORMULA>
C10H14IN5O4

> <MOLECULAR_WEIGHT>
395.1537

> <EXACT_MASS>
395.009047381

> <JCHEM_ACCEPTOR_COUNT>
9

> <JCHEM_ATOM_COUNT>
34

> <JCHEM_AVERAGE_NEUTRAL_MICROSPECIES_CHARGE>
0.9854603207816484

> <JCHEM_AVERAGE_POLARIZABILITY>
30.166138961979392

> <JCHEM_BIOAVAILABILITY>
1

> <JCHEM_DONOR_COUNT>
5

> <JCHEM_FORMAL_CHARGE>
0

> <JCHEM_GHOSE_FILTER>
0

> <JCHEM_IUPAC>
(2R,3R,4S,5R)-2-[(3R)-4-amino-3-iodo-1H,2H,3H-pyrazolo[3,4-d]pyrimidin-1-yl]-5-(hydroxymethyl)oxolane-3,4-diol

> <ALOGPS_LOGP>
-1.45

> <JCHEM_LOGP>
-0.638560502

> <ALOGPS_LOGS>
-1.91

> <JCHEM_MDDR_LIKE_RULE>
0

> <JCHEM_NEUTRAL_CHARGE>
1

> <JCHEM_NUMBER_OF_RINGS>
3

> <JCHEM_PHYSIOLOGICAL_CHARGE>
1

> <JCHEM_PKA>
13.925787518644507

> <JCHEM_PKA_STRONGEST_ACIDIC>
12.53636631009583

> <JCHEM_PKA_STRONGEST_BASIC>
7.831775039649479

> <JCHEM_POLAR_SURFACE_AREA>
136.99

> <JCHEM_REFRACTIVITY>
98.6483

> <JCHEM_ROTATABLE_BOND_COUNT>
2

> <JCHEM_RULE_OF_FIVE>
1

> <ALOGPS_SOLUBILITY>
4.86e+00 g/l

> <JCHEM_TRADITIONAL_IUPAC>
tetrahydrofolic acid

> <JCHEM_VEBER_RULE>
0

> <DRUGBANK_ID>
DB02416

> <SECONDARY_ACCESSION_NUMBERS>
EXPT02813

> <DRUG_GROUPS>
experimental

> <GENERIC_NAME>
2-Ribofuranosyl-3-Iodo-2,3-Dihydro-1h-Pyrazolo[3,4-D]Pyrimidin-4-Ylamine

$$$$
