
  Mrv0541 02241215182D          

  7  4  0  0  0  0            999 V2000
    1.1139   -2.0218    0.0000 Na  0  3  0  0  0  0  0  0  0  0  0  0
   -1.0314    0.3718    0.0000 O   0  0  0  0  0  0  0  0  0  0  0  0
   -1.8567    1.1964    0.0000 O   0  5  0  0  0  0  0  0  0  0  0  0
   -1.0314    2.0218    0.0000 O   0  0  0  0  0  0  0  0  0  0  0  0
   -1.0314    1.1964    0.0000 S   0  0  0  0  0  0  0  0  0  0  0  0
   -0.2067    1.1964    0.0000 O   0  5  0  0  0  0  0  0  0  0  0  0
    1.8567   -0.5361    0.0000 Na  0  3  0  0  0  0  0  0  0  0  0  0
  2  5  2  0  0  0  0
  3  5  1  0  0  0  0
  4  5  2  0  0  0  0
  5  6  1  0  0  0  0
M  CHG  4   1   1   3  -1   6  -1   7   1
M  END
> <DATABASE_ID>
DB09472

> <DATABASE_NAME>
drugbank

> <SMILES>
[Na+].[Na+].[O-]S([O-])(=O)=O

> <INCHI_IDENTIFIER>
InChI=1S/2Na.H2O4S/c;;1-5(2,3)4/h;;(H2,1,2,3,4)/q2*+1;/p-2

> <INCHI_KEY>
PMZURENOXWZQFD-UHFFFAOYSA-L

> <FORMULA>
Na2O4S

> <MOLECULAR_WEIGHT>
142.042

> <EXACT_MASS>
141.931268528

> <JCHEM_ACCEPTOR_COUNT>
4

> <JCHEM_ATOM_COUNT>
7

> <JCHEM_AVERAGE_NEUTRAL_MICROSPECIES_CHARGE>
-1.9999960608374163

> <JCHEM_AVERAGE_POLARIZABILITY>
5.805278336830096

> <JCHEM_BIOAVAILABILITY>
1

> <JCHEM_DONOR_COUNT>
0

> <JCHEM_FORMAL_CHARGE>
0

> <JCHEM_GHOSE_FILTER>
0

> <JCHEM_IUPAC>
disodium sulfate

> <JCHEM_LOGP>
-0.8415520233333333

> <JCHEM_MDDR_LIKE_RULE>
0

> <JCHEM_NEUTRAL_CHARGE>
-2

> <JCHEM_NUMBER_OF_RINGS>
0

> <JCHEM_PHYSIOLOGICAL_CHARGE>
-2

> <JCHEM_PKA>
1.896425425713869

> <JCHEM_PKA_STRONGEST_ACIDIC>
-3.0343490541919906

> <JCHEM_POLAR_SURFACE_AREA>
80.25999999999999

> <JCHEM_REFRACTIVITY>
11.5274

> <JCHEM_ROTATABLE_BOND_COUNT>
0

> <JCHEM_RULE_OF_FIVE>
1

> <JCHEM_TRADITIONAL_IUPAC>
tetrahydrofolic acid

> <JCHEM_VEBER_RULE>
0

> <DRUGBANK_ID>
DB09472

> <SECONDARY_ACCESSION_NUMBERS>
DB09476

> <DRUG_GROUPS>
approved; vet_approved

> <GENERIC_NAME>
Sodium sulfate

> <SYNONYMS>
Anhydrous sodium sulfate; Sodium sulfate anhydrous; Sodium sulfate, anhydrous; Sodium sulphate anhydrous; Sodium sulphate, anhydrous; Sulfuric acid disodium salt, anhydrous

> <PRODUCTS>
Bi-peglyte; Bqcell Revirgin Gung; Clenz-Lyte; ColPrep Kit; Colyte; Colyte with flavor packs; Eau Purgative Riga; Electropeg Solution; GaviLyte - C TM; Gavilyte G Tm; GoLYTELY; Golytely Gi Lavage Solution; Jamp-electropeg; Jamp-electropeg With Flavour Packet; Jamplyte; Jamplyte 280; Klean-prep; Lyteprep; MoviPrep; Moviprep; Normo Gastryl; Ocl Solution; PEG-3350 and Electrolytes; PEG-3350, Electrolytes, and Ascorbate; PMS-peglyte; Peg-3350, Sodium Sulfate, Sodium Chloride, Potassium Chloride, Sodium Ascorbate and Ascorbic Acid; Peglyte Powder; Peglyte Solution; Plenvu; Polyethylene Glycol 3350 and Electrolytes; Polyethylene Glycol 3350 and electrolytes - Unflavored; Polyethylene Glycol 3350 and electrolytes with Lemon Flavor; Polyethylene Glycol 3350 and electrolyteswith Orange Flavor; Polyethylene Glycol-3350 and Electrolytes; Polyethylene Glycol-3350 and Electrolytes with Flavor Pack; Prolax - Pws; SUPREP Bowel Prep; Sodium Polysulthionate and Folic Acid; Sodium Polysulthionate, 5-methyltetrahydrofolate; Sodium Polysulthionate, 5-mthf; Sodium Sulfate, Potassium Sulfate and Magnesium Sulfate; Sodium Sulfate, Potassium Sulfate, Magnesium Sulfate; Sodium polysulthionate and folic acid; Sodium polysulthionate, 5-methyltetrahydrofolate; Suclear; Sulfzix; Sutab; Xizflus

> <SALTS>
Sodium sulfate decahydrate

$$$$
