
  Mrv0541 05031419302D          

 26 26  0  0  1  0            999 V2000
    8.5737    2.4750    0.0000 C   0  0  0  0  0  0  0  0  0  0  0  0
    8.5737    3.3000    0.0000 C   0  0  0  0  0  0  0  0  0  0  0  0
    7.8592    2.0625    0.0000 C   0  0  0  0  0  0  0  0  0  0  0  0
    7.8592    3.7125    0.0000 C   0  0  0  0  0  0  0  0  0  0  0  0
    5.7158    3.3000    0.0000 C   0  0  0  0  0  0  0  0  0  0  0  0
    2.8579    3.3000    0.0000 C   0  0  0  0  0  0  0  0  0  0  0  0
    7.1447    2.4750    0.0000 C   0  0  0  0  0  0  0  0  0  0  0  0
    7.1447    3.3000    0.0000 C   0  0  0  0  0  0  0  0  0  0  0  0
    5.0013    3.7125    0.0000 C   0  0  2  0  0  0  0  0  0  0  0  0
    3.5724    3.7125    0.0000 C   0  0  2  0  0  0  0  0  0  0  0  0
    4.2868    3.3000    0.0000 C   0  0  1  0  0  0  0  0  0  0  0  0
    6.4302    2.0625    0.0000 C   0  0  0  0  0  0  0  0  0  0  0  0
    6.4302    3.7125    0.0000 N   0  0  0  0  0  0  0  0  0  0  0  0
    5.0013    4.5375    0.0000 O   0  0  0  0  0  0  0  0  0  0  0  0
    3.5724    4.5375    0.0000 O   0  0  0  0  0  0  0  0  0  0  0  0
    4.2868    2.4750    0.0000 O   0  0  0  0  0  0  0  0  0  0  0  0
    5.7158    2.4750    0.0000 O   0  0  0  0  0  0  0  0  0  0  0  0
    6.4302    1.2375    0.0000 O   0  0  0  0  0  0  0  0  0  0  0  0
    0.7145    2.8875    0.0000 O   0  0  0  0  0  0  0  0  0  0  0  0
    1.0164    4.0145    0.0000 O   0  0  0  0  0  0  0  0  0  0  0  0
    1.8414    2.5855    0.0000 O   0  0  0  0  0  0  0  0  0  0  0  0
    2.1434    3.7125    0.0000 O   0  0  0  0  0  0  0  0  0  0  0  0
    1.4289    3.3000    0.0000 P   0  0  0  0  0  0  0  0  0  0  0  0
    5.0013    2.8875    0.0000 H   0  0  0  0  0  0  0  0  0  0  0  0
    3.5724    2.8875    0.0000 H   0  0  0  0  0  0  0  0  0  0  0  0
    4.2868    4.1250    0.0000 H   0  0  0  0  0  0  0  0  0  0  0  0
  2  1  2  0  0  0  0
  3  1  1  0  0  0  0
  4  2  1  0  0  0  0
  7  3  2  0  0  0  0
  8  4  2  0  0  0  0
  8  7  1  0  0  0  0
  9  5  1  0  0  0  0
 10  6  1  0  0  0  0
 11  9  1  0  0  0  0
 11 10  1  0  0  0  0
 12  7  1  0  0  0  0
 13  5  1  0  0  0  0
 13  8  1  0  0  0  0
  9 14  1  1  0  0  0
 10 15  1  6  0  0  0
 11 16  1  1  0  0  0
 17 12  2  0  0  0  0
 18 12  1  0  0  0  0
 22  6  1  0  0  0  0
 23 19  1  0  0  0  0
 23 20  1  0  0  0  0
 23 21  2  0  0  0  0
 23 22  1  0  0  0  0
  9 24  1  1  0  0  0
 10 25  1  6  0  0  0
 11 26  1  1  0  0  0
M  END
> <DATABASE_ID>
DB03543

> <DATABASE_NAME>
drugbank

> <SMILES>
[H][C@@](O)(CNC1=CC=CC=C1C(O)=O)[C@]([H])(O)[C@]([H])(O)COP(O)(O)=O

> <INCHI_IDENTIFIER>
InChI=1S/C12H18NO9P/c14-9(11(16)10(15)6-22-23(19,20)21)5-13-8-4-2-1-3-7(8)12(17)18/h1-4,9-11,13-16H,5-6H2,(H,17,18)(H2,19,20,21)/t9-,10-,11+/m1/s1

> <INCHI_KEY>
AULMJMUNCOBRHC-MXWKQRLJSA-N

> <FORMULA>
C12H18NO9P

> <MOLECULAR_WEIGHT>
351.2464

> <EXACT_MASS>
351.071917691

> <JCHEM_ACCEPTOR_COUNT>
9

> <JCHEM_ATOM_COUNT>
41

> <JCHEM_AVERAGE_NEUTRAL_MICROSPECIES_CHARGE>
-2.854367240784571

> <JCHEM_AVERAGE_POLARIZABILITY>
31.11790237948037

> <JCHEM_BIOAVAILABILITY>
1

> <JCHEM_DONOR_COUNT>
7

> <JCHEM_FORMAL_CHARGE>
0

> <JCHEM_GHOSE_FILTER>
0

> <JCHEM_IUPAC>
2-{[(2R,3S,4R)-2,3,4-trihydroxy-5-(phosphonooxy)pentyl]amino}benzoic acid

> <ALOGPS_LOGP>
-1.16

> <JCHEM_LOGP>
-1.5581507602338462

> <ALOGPS_LOGS>
-2.19

> <JCHEM_MDDR_LIKE_RULE>
0

> <JCHEM_NEUTRAL_CHARGE>
-3

> <JCHEM_NUMBER_OF_RINGS>
1

> <JCHEM_PHYSIOLOGICAL_CHARGE>
-3

> <JCHEM_PKA>
4.672907319471799

> <JCHEM_PKA_STRONGEST_ACIDIC>
1.74955460565001

> <JCHEM_PKA_STRONGEST_BASIC>
1.1424551903530482

> <JCHEM_POLAR_SURFACE_AREA>
176.77999999999997

> <JCHEM_REFRACTIVITY>
78.5607

> <JCHEM_ROTATABLE_BOND_COUNT>
9

> <JCHEM_RULE_OF_FIVE>
0

> <ALOGPS_SOLUBILITY>
2.29e+00 g/l

> <JCHEM_TRADITIONAL_IUPAC>
tetrahydrofolic acid

> <JCHEM_VEBER_RULE>
0

> <DRUGBANK_ID>
DB03543

> <SECONDARY_ACCESSION_NUMBERS>
EXPT00024

> <DRUG_GROUPS>
experimental

> <GENERIC_NAME>
1-(O-Carboxy-Phenylamino)-1-Deoxy-D-Ribulose-5-Phosphate

$$$$
