
  Mrv0541 02231215542D          

 10 10  0  0  0  0            999 V2000
    2.1434   -0.4125    0.0000 C   0  0  0  0  0  0  0  0  0  0  0  0
    1.4289    0.0000    0.0000 C   0  0  0  0  0  0  0  0  0  0  0  0
    0.7145   -0.4125    0.0000 N   0  0  0  0  0  0  0  0  0  0  0  0
    0.0000    0.0000    0.0000 C   0  0  0  0  0  0  0  0  0  0  0  0
    0.0000    0.8250    0.0000 C   0  0  0  0  0  0  0  0  0  0  0  0
   -0.7145    1.2375    0.0000 C   0  0  0  0  0  0  0  0  0  0  0  0
   -1.4289    0.8250    0.0000 O   0  0  0  0  0  0  0  0  0  0  0  0
    0.7145    1.2375    0.0000 C   0  0  0  0  0  0  0  0  0  0  0  0
    0.7145    2.0625    0.0000 N   0  0  0  0  0  0  0  0  0  0  0  0
    1.4289    0.8250    0.0000 N   0  0  0  0  0  0  0  0  0  0  0  0
  1  2  1  0  0  0  0
  2  3  2  0  0  0  0
  3  4  1  0  0  0  0
  4  5  2  0  0  0  0
  5  6  1  0  0  0  0
  6  7  1  0  0  0  0
  5  8  1  0  0  0  0
  8  9  1  0  0  0  0
  8 10  2  0  0  0  0
  2 10  1  0  0  0  0
M  END
> <DATABASE_ID>
DB02022

> <DATABASE_NAME>
drugbank

> <SMILES>
CC1=NC=C(CO)C(N)=N1

> <INCHI_IDENTIFIER>
InChI=1S/C6H9N3O/c1-4-8-2-5(3-10)6(7)9-4/h2,10H,3H2,1H3,(H2,7,8,9)

> <INCHI_KEY>
VUTBELPREDJDDH-UHFFFAOYSA-N

> <FORMULA>
C6H9N3O

> <MOLECULAR_WEIGHT>
139.1552

> <EXACT_MASS>
139.074561925

> <JCHEM_ACCEPTOR_COUNT>
4

> <JCHEM_ATOM_COUNT>
19

> <JCHEM_AVERAGE_NEUTRAL_MICROSPECIES_CHARGE>
0.5969376081191786

> <JCHEM_AVERAGE_POLARIZABILITY>
14.197332243457662

> <JCHEM_BIOAVAILABILITY>
1

> <JCHEM_DONOR_COUNT>
2

> <JCHEM_FORMAL_CHARGE>
0

> <JCHEM_GHOSE_FILTER>
0

> <JCHEM_IUPAC>
(4-amino-2-methylpyrimidin-5-yl)methanol

> <ALOGPS_LOGP>
-0.26

> <JCHEM_LOGP>
-0.36044671066666667

> <ALOGPS_LOGS>
-1.06

> <JCHEM_MDDR_LIKE_RULE>
0

> <JCHEM_NEUTRAL_CHARGE>
1

> <JCHEM_NUMBER_OF_RINGS>
1

> <JCHEM_PHYSIOLOGICAL_CHARGE>
1

> <JCHEM_PKA_STRONGEST_ACIDIC>
14.411032868169844

> <JCHEM_PKA_STRONGEST_BASIC>
6.171885446778052

> <JCHEM_POLAR_SURFACE_AREA>
72.03

> <JCHEM_REFRACTIVITY>
39.1765

> <JCHEM_ROTATABLE_BOND_COUNT>
1

> <JCHEM_RULE_OF_FIVE>
1

> <ALOGPS_SOLUBILITY>
1.20e+01 g/l

> <JCHEM_TRADITIONAL_IUPAC>
tetrahydrofolic acid

> <JCHEM_VEBER_RULE>
0

> <DRUGBANK_ID>
DB02022

> <SECONDARY_ACCESSION_NUMBERS>
EXPT01759

> <DRUG_GROUPS>
experimental

> <GENERIC_NAME>
4-Amino-5-Hydroxymethyl-2-Methylpyrimidine

$$$$
