
  Mrv0541 09041212462D          

 15 14  0  0  0  0            999 V2000
    2.3349   -1.1270    0.0000 C   0  0  0  0  0  0  0  0  0  0  0  0
   -1.2375   -0.7145    0.0000 C   0  0  0  0  0  0  0  0  0  0  0  0
    1.6204   -0.7145    0.0000 C   0  0  1  0  0  0  0  0  0  0  0  0
   -0.5230   -1.1270    0.0000 C   0  0  1  0  0  0  0  0  0  0  0  0
    0.9059   -1.1270    0.0000 C   0  0  1  0  0  0  0  0  0  0  0  0
    0.1914   -0.7145    0.0000 C   0  0  1  0  0  0  0  0  0  0  0  0
   -1.9520   -1.1270    0.0000 O   0  0  0  0  0  0  0  0  0  0  0  0
    1.6204    0.1105    0.0000 O   0  0  0  0  0  0  0  0  0  0  0  0
   -0.5230   -1.9520    0.0000 O   0  0  0  0  0  0  0  0  0  0  0  0
    0.9059   -1.9520    0.0000 O   0  0  0  0  0  0  0  0  0  0  0  0
    0.1914    0.1105    0.0000 O   0  0  0  0  0  0  0  0  0  0  0  0
    1.6204   -1.5395    0.0000 H   0  0  0  0  0  0  0  0  0  0  0  0
   -0.5230   -0.3020    0.0000 H   0  0  0  0  0  0  0  0  0  0  0  0
    0.9059   -0.3020    0.0000 H   0  0  0  0  0  0  0  0  0  0  0  0
    0.1914   -1.5395    0.0000 H   0  0  0  0  0  0  0  0  0  0  0  0
  3  1  1  0  0  0  0
  4  2  1  0  0  0  0
  5  3  1  0  0  0  0
  6  4  1  0  0  0  0
  6  5  1  0  0  0  0
  7  2  2  0  0  0  0
  3  8  1  6  0  0  0
  4  9  1  6  0  0  0
  5 10  1  1  0  0  0
  6 11  1  1  0  0  0
  3 12  1  6  0  0  0
  4 13  1  6  0  0  0
  5 14  1  1  0  0  0
  6 15  1  1  0  0  0
M  END
> <DATABASE_ID>
DB02961

> <DATABASE_NAME>
drugbank

> <SMILES>
[H][C@@](C)(O)[C@]([H])(O)[C@@]([H])(O)[C@@]([H])(O)C=O

> <INCHI_IDENTIFIER>
InChI=1S/C6H12O5/c1-3(8)5(10)6(11)4(9)2-7/h2-6,8-11H,1H3/t3-,4-,5-,6-/m0/s1

> <INCHI_KEY>
PNNNRSAQSRJVSB-BXKVDMCESA-N

> <FORMULA>
C6H12O5

> <MOLECULAR_WEIGHT>
164.1565

> <EXACT_MASS>
164.068473494

> <JCHEM_ACCEPTOR_COUNT>
5

> <JCHEM_ATOM_COUNT>
23

> <JCHEM_AVERAGE_NEUTRAL_MICROSPECIES_CHARGE>
-5.6755541236080935e-06

> <JCHEM_AVERAGE_POLARIZABILITY>
15.243832455630093

> <JCHEM_BIOAVAILABILITY>
1

> <JCHEM_DONOR_COUNT>
4

> <JCHEM_FORMAL_CHARGE>
0

> <JCHEM_GHOSE_FILTER>
0

> <JCHEM_IUPAC>
(2R,3R,4S,5S)-2,3,4,5-tetrahydroxyhexanal

> <ALOGPS_LOGP>
-2.02

> <JCHEM_LOGP>
-2.5214505963333327

> <ALOGPS_LOGS>
0.20

> <JCHEM_MDDR_LIKE_RULE>
0

> <JCHEM_NEUTRAL_CHARGE>
0

> <JCHEM_NUMBER_OF_RINGS>
0

> <JCHEM_PHYSIOLOGICAL_CHARGE>
0

> <JCHEM_PKA>
13.292382202108639

> <JCHEM_PKA_STRONGEST_ACIDIC>
12.310689296210077

> <JCHEM_PKA_STRONGEST_BASIC>
-3.0490444234470298

> <JCHEM_POLAR_SURFACE_AREA>
97.99000000000001

> <JCHEM_REFRACTIVITY>
35.801899999999996

> <JCHEM_ROTATABLE_BOND_COUNT>
4

> <JCHEM_RULE_OF_FIVE>
1

> <ALOGPS_SOLUBILITY>
2.58e+02 g/l

> <JCHEM_TRADITIONAL_IUPAC>
biotin

> <JCHEM_VEBER_RULE>
0

> <DRUGBANK_ID>
DB02961

> <SECONDARY_ACCESSION_NUMBERS>
EXPT02795; DB01869

> <DRUG_GROUPS>
experimental

> <GENERIC_NAME>
Rhamnose

> <SYNONYMS>
L-rhamnose

$$$$
