
  Mrv0541 05041409082D          

 54 53  0  0  1  0            999 V2000
   21.6848   -7.0934    0.0000 C   0  0  0  0  0  0  0  0  0  0  0  0
    0.2507    1.9816    0.0000 C   0  0  0  0  0  0  0  0  0  0  0  0
   20.9703   -6.6809    0.0000 C   0  0  0  0  0  0  0  0  0  0  0  0
    0.9651    1.5691    0.0000 C   0  0  0  0  0  0  0  0  0  0  0  0
   20.9703   -5.8559    0.0000 C   0  0  0  0  0  0  0  0  0  0  0  0
    0.9651    0.7441    0.0000 C   0  0  0  0  0  0  0  0  0  0  0  0
   20.2559   -5.4434    0.0000 C   0  0  0  0  0  0  0  0  0  0  0  0
    1.6796    0.3316    0.0000 C   0  0  0  0  0  0  0  0  0  0  0  0
   20.2559   -4.6184    0.0000 C   0  0  0  0  0  0  0  0  0  0  0  0
    1.6796   -0.4934    0.0000 C   0  0  0  0  0  0  0  0  0  0  0  0
   19.5414   -4.2059    0.0000 C   0  0  0  0  0  0  0  0  0  0  0  0
    2.3941   -0.9059    0.0000 C   0  0  0  0  0  0  0  0  0  0  0  0
   19.5414   -3.3809    0.0000 C   0  0  0  0  0  0  0  0  0  0  0  0
    2.3941   -1.7309    0.0000 C   0  0  0  0  0  0  0  0  0  0  0  0
   18.8269   -2.9684    0.0000 C   0  0  0  0  0  0  0  0  0  0  0  0
    3.1086   -2.1434    0.0000 C   0  0  0  0  0  0  0  0  0  0  0  0
   18.8269   -2.1434    0.0000 C   0  0  0  0  0  0  0  0  0  0  0  0
   18.1124   -1.7309    0.0000 C   0  0  0  0  0  0  0  0  0  0  0  0
    3.8230   -1.7309    0.0000 C   0  0  0  0  0  0  0  0  0  0  0  0
   17.3980   -2.1434    0.0000 C   0  0  0  0  0  0  0  0  0  0  0  0
   16.6835   -1.7309    0.0000 C   0  0  0  0  0  0  0  0  0  0  0  0
    4.5375   -2.1434    0.0000 C   0  0  0  0  0  0  0  0  0  0  0  0
   15.9690   -2.1434    0.0000 C   0  0  0  0  0  0  0  0  0  0  0  0
    5.2520   -1.7309    0.0000 C   0  0  0  0  0  0  0  0  0  0  0  0
   15.2546   -1.7309    0.0000 C   0  0  0  0  0  0  0  0  0  0  0  0
    5.9664   -2.1434    0.0000 C   0  0  0  0  0  0  0  0  0  0  0  0
   14.5401   -2.1434    0.0000 C   0  0  0  0  0  0  0  0  0  0  0  0
    6.6809   -1.7309    0.0000 C   0  0  0  0  0  0  0  0  0  0  0  0
   13.8256   -1.7309    0.0000 C   0  0  0  0  0  0  0  0  0  0  0  0
    7.3954   -2.1434    0.0000 C   0  0  0  0  0  0  0  0  0  0  0  0
   13.1112   -2.1434    0.0000 C   0  0  0  0  0  0  0  0  0  0  0  0
    8.1099   -1.7309    0.0000 C   0  0  0  0  0  0  0  0  0  0  0  0
   11.6013   -4.9204    0.0000 C   0  0  0  0  0  0  0  0  0  0  0  0
   10.7763   -4.9204    0.0000 C   0  0  0  0  0  0  0  0  0  0  0  0
   10.9677   -1.7309    0.0000 C   0  0  0  0  0  0  0  0  0  0  0  0
   10.2533   -2.9684    0.0000 C   0  0  0  0  0  0  0  0  0  0  0  0
   10.2533   -2.1434    0.0000 C   0  0  1  0  0  0  0  0  0  0  0  0
   12.3967   -1.7309    0.0000 C   0  0  0  0  0  0  0  0  0  0  0  0
    8.8243   -2.1434    0.0000 C   0  0  0  0  0  0  0  0  0  0  0  0
   12.0138   -5.6349    0.0000 O   0  0  0  0  0  0  0  0  0  0  0  0
   12.3967   -0.9059    0.0000 O   0  0  0  0  0  0  0  0  0  0  0  0
    8.8243   -2.9684    0.0000 O   0  0  0  0  0  0  0  0  0  0  0  0
    8.7138   -4.2059    0.0000 O   0  0  0  0  0  0  0  0  0  0  0  0
    9.5388   -5.0309    0.0000 O   0  0  0  0  0  0  0  0  0  0  0  0
   11.6822   -2.1434    0.0000 O   0  0  0  0  0  0  0  0  0  0  0  0
   10.3638   -4.2059    0.0000 O   0  0  0  0  0  0  0  0  0  0  0  0
    9.5388   -3.3809    0.0000 O   0  0  0  0  0  0  0  0  0  0  0  0
    9.5388   -1.7309    0.0000 O   0  0  0  0  0  0  0  0  0  0  0  0
    9.5388   -4.2059    0.0000 P   0  0  0  0  0  0  0  0  0  0  0  0
    1.6796   -2.1434    0.0000 H   0  0  0  0  0  0  0  0  0  0  0  0
    3.1086   -2.9684    0.0000 H   0  0  0  0  0  0  0  0  0  0  0  0
   19.5414   -1.7309    0.0000 H   0  0  0  0  0  0  0  0  0  0  0  0
   18.1124   -0.9059    0.0000 H   0  0  0  0  0  0  0  0  0  0  0  0
   10.9677   -2.5559    0.0000 H   0  0  0  0  0  0  0  0  0  0  0  0
  3  1  1  0  0  0  0
  4  2  1  0  0  0  0
  5  3  1  0  0  0  0
  6  4  1  0  0  0  0
  7  5  1  0  0  0  0
  8  6  1  0  0  0  0
  9  7  1  0  0  0  0
 10  8  1  0  0  0  0
 11  9  1  0  0  0  0
 12 10  1  0  0  0  0
 13 11  1  0  0  0  0
 14 12  1  0  0  0  0
 15 13  1  0  0  0  0
 16 14  2  0  0  0  0
 17 15  1  0  0  0  0
 18 17  2  0  0  0  0
 19 16  1  0  0  0  0
 20 18  1  0  0  0  0
 21 20  1  0  0  0  0
 22 19  1  0  0  0  0
 23 21  1  0  0  0  0
 24 22  1  0  0  0  0
 25 23  1  0  0  0  0
 26 24  1  0  0  0  0
 27 25  1  0  0  0  0
 28 26  1  0  0  0  0
 29 27  1  0  0  0  0
 30 28  1  0  0  0  0
 31 29  1  0  0  0  0
 32 30  1  0  0  0  0
 34 33  1  0  0  0  0
 37 35  1  0  0  0  0
 37 36  1  0  0  0  0
 38 31  1  0  0  0  0
 39 32  1  0  0  0  0
 40 33  1  0  0  0  0
 41 38  2  0  0  0  0
 42 39  2  0  0  0  0
 45 35  1  0  0  0  0
 45 38  1  0  0  0  0
 46 34  1  0  0  0  0
 47 36  1  0  0  0  0
 37 48  1  6  0  0  0
 48 39  1  0  0  0  0
 49 43  1  0  0  0  0
 49 44  2  0  0  0  0
 49 46  1  0  0  0  0
 49 47  1  0  0  0  0
 50 14  1  0  0  0  0
 51 16  1  0  0  0  0
 52 17  1  0  0  0  0
 53 18  1  0  0  0  0
 37 54  1  6  0  0  0
M  END
> <DATABASE_ID>
DB04752

> <DATABASE_NAME>
drugbank

> <SMILES>
[H]\C(CCCCCC)=C(/[H])CCCCCCCC(=O)O[C@@]([H])(COC(=O)CCCCCCC\C([H])=C(\[H])CCCCCCCC)COP(O)(=O)OCCO

> <INCHI_IDENTIFIER>
InChI=1S/C39H73O9P/c1-3-5-7-9-11-13-15-17-18-20-21-23-25-27-29-31-38(41)45-35-37(36-47-49(43,44)46-34-33-40)48-39(42)32-30-28-26-24-22-19-16-14-12-10-8-6-4-2/h14,16-18,37,40H,3-13,15,19-36H2,1-2H3,(H,43,44)/b16-14-,18-17-/t37-/m0/s1

> <INCHI_KEY>
PGYPLYNHOCZJEB-JSTCSLLMSA-N

> <FORMULA>
C39H73O9P

> <MOLECULAR_WEIGHT>
716.9653

> <EXACT_MASS>
716.499220446

> <JCHEM_ACCEPTOR_COUNT>
5

> <JCHEM_ATOM_COUNT>
122

> <JCHEM_AVERAGE_NEUTRAL_MICROSPECIES_CHARGE>
-0.9999921675313154

> <JCHEM_AVERAGE_POLARIZABILITY>
86.36250307997702

> <JCHEM_BIOAVAILABILITY>
0

> <JCHEM_DONOR_COUNT>
2

> <JCHEM_FORMAL_CHARGE>
0

> <JCHEM_GHOSE_FILTER>
0

> <JCHEM_IUPAC>
[(2S)-2-[(9Z)-hexadec-9-enoyloxy]-3-[(9Z)-octadec-9-enoyloxy]propoxy](2-hydroxyethoxy)phosphinic acid

> <ALOGPS_LOGP>
8.58

> <JCHEM_LOGP>
11.732680477999999

> <ALOGPS_LOGS>
-6.97

> <JCHEM_MDDR_LIKE_RULE>
0

> <JCHEM_NEUTRAL_CHARGE>
-1

> <JCHEM_NUMBER_OF_RINGS>
0

> <JCHEM_PHYSIOLOGICAL_CHARGE>
-1

> <JCHEM_PKA>
15.120974668760892

> <JCHEM_PKA_STRONGEST_ACIDIC>
1.8943119848530041

> <JCHEM_PKA_STRONGEST_BASIC>
-2.7630717884250826

> <JCHEM_POLAR_SURFACE_AREA>
128.59

> <JCHEM_REFRACTIVITY>
200.78160000000005

> <JCHEM_ROTATABLE_BOND_COUNT>
39

> <JCHEM_RULE_OF_FIVE>
0

> <ALOGPS_SOLUBILITY>
7.64e-05 g/l

> <JCHEM_TRADITIONAL_IUPAC>
tetrahydrofolic acid

> <JCHEM_VEBER_RULE>
0

> <DRUGBANK_ID>
DB04752

> <DRUG_GROUPS>
experimental

> <GENERIC_NAME>
Phosphatidyl ethanol

> <SYNONYMS>
PEth

$$$$
