
  Mrv0541 02231216022D          

  7  6  0  0  0  0            999 V2000
    1.2375    2.1434    0.0000 O   0  5  0  0  0  0  0  0  0  0  0  0
    0.8250    1.4289    0.0000 C   0  0  0  0  0  0  0  0  0  0  0  0
    0.0000    1.4289    0.0000 O   0  0  0  0  0  0  0  0  0  0  0  0
    1.2375    0.7145    0.0000 C   0  0  0  0  0  0  0  0  0  0  0  0
    0.8250    0.0000    0.0000 C   0  0  0  0  0  0  0  0  0  0  0  0
    1.2375   -0.7145    0.0000 O   0  5  0  0  0  0  0  0  0  0  0  0
    0.0000    0.0000    0.0000 O   0  0  0  0  0  0  0  0  0  0  0  0
  1  2  1  0  0  0  0
  2  3  2  0  0  0  0
  2  4  1  0  0  0  0
  4  5  1  0  0  0  0
  5  6  1  0  0  0  0
  5  7  2  0  0  0  0
M  CHG  2   1  -1   6  -1
M  END
> <DATABASE_ID>
DB02201

> <DATABASE_NAME>
drugbank

> <SMILES>
[O-]C(=O)CC([O-])=O

> <INCHI_IDENTIFIER>
InChI=1S/C3H4O4/c4-2(5)1-3(6)7/h1H2,(H,4,5)(H,6,7)/p-2

> <INCHI_KEY>
OFOBLEOULBTSOW-UHFFFAOYSA-L

> <FORMULA>
C3H2O4

> <MOLECULAR_WEIGHT>
102.0456

> <EXACT_MASS>
101.995308552

> <JCHEM_ACCEPTOR_COUNT>
4

> <JCHEM_ATOM_COUNT>
9

> <JCHEM_AVERAGE_NEUTRAL_MICROSPECIES_CHARGE>
-1.9600907657847364

> <JCHEM_AVERAGE_POLARIZABILITY>
7.337460601326397

> <JCHEM_BIOAVAILABILITY>
1

> <JCHEM_DONOR_COUNT>
0

> <JCHEM_FORMAL_CHARGE>
-2

> <JCHEM_GHOSE_FILTER>
0

> <JCHEM_IUPAC>
propanedioate

> <ALOGPS_LOGP>
-0.45

> <JCHEM_LOGP>
-0.3311172683333333

> <ALOGPS_LOGS>
0.53

> <JCHEM_MDDR_LIKE_RULE>
0

> <JCHEM_NEUTRAL_CHARGE>
-2

> <JCHEM_NUMBER_OF_RINGS>
0

> <JCHEM_PHYSIOLOGICAL_CHARGE>
-2

> <JCHEM_PKA>
5.919487044057661

> <JCHEM_PKA_STRONGEST_ACIDIC>
2.4284239631132736

> <JCHEM_POLAR_SURFACE_AREA>
80.25999999999999

> <JCHEM_REFRACTIVITY>
40.662000000000006

> <JCHEM_ROTATABLE_BOND_COUNT>
2

> <JCHEM_RULE_OF_FIVE>
1

> <ALOGPS_SOLUBILITY>
4.67e+02 g/l

> <JCHEM_TRADITIONAL_IUPAC>
tetrahydrofolic acid

> <JCHEM_VEBER_RULE>
0

> <DRUGBANK_ID>
DB02201

> <SECONDARY_ACCESSION_NUMBERS>
EXPT02183

> <DRUG_GROUPS>
experimental

> <GENERIC_NAME>
Malonate Ion

$$$$
