
  Mrv0541 02231216412D          

  9  8  0  0  1  0            999 V2000
    4.6184    2.6664    0.0000 N   0  0  0  0  0  0  0  0  0  0  0  0
    4.6184    1.8414    0.0000 C   0  0  1  0  0  0  0  0  0  0  0  0
    3.9039    1.4289    0.0000 C   0  0  0  0  0  0  0  0  0  0  0  0
    3.1895    1.8414    0.0000 C   0  0  0  0  0  0  0  0  0  0  0  0
    2.4750    1.4289    0.0000 C   0  0  0  0  0  0  0  0  0  0  0  0
    1.7605    1.8414    0.0000 O   0  0  0  0  0  0  0  0  0  0  0  0
    5.3329    1.4289    0.0000 C   0  0  0  0  0  0  0  0  0  0  0  0
    6.0474    1.8414    0.0000 O   0  0  0  0  0  0  0  0  0  0  0  0
    5.3329    0.6039    0.0000 O   0  0  0  0  0  0  0  0  0  0  0  0
  2  1  1  6  0  0  0
  2  3  1  0  0  0  0
  3  4  1  0  0  0  0
  4  5  1  0  0  0  0
  5  6  1  0  0  0  0
  2  7  1  0  0  0  0
  7  8  1  0  0  0  0
  7  9  2  0  0  0  0
M  END
> <DATABASE_ID>
DB03105

> <DATABASE_NAME>
drugbank

> <SMILES>
N[C@@H](CCCO)C(O)=O

> <INCHI_IDENTIFIER>
InChI=1S/C5H11NO3/c6-4(5(8)9)2-1-3-7/h4,7H,1-3,6H2,(H,8,9)/t4-/m0/s1

> <INCHI_KEY>
CZWARROQQFCFJB-BYPYZUCNSA-N

> <FORMULA>
C5H11NO3

> <MOLECULAR_WEIGHT>
133.1457

> <EXACT_MASS>
133.073893223

> <JCHEM_ACCEPTOR_COUNT>
4

> <JCHEM_ATOM_COUNT>
20

> <JCHEM_AVERAGE_NEUTRAL_MICROSPECIES_CHARGE>
-0.005911873750568935

> <JCHEM_AVERAGE_POLARIZABILITY>
13.48352561153786

> <JCHEM_BIOAVAILABILITY>
1

> <JCHEM_DONOR_COUNT>
3

> <JCHEM_FORMAL_CHARGE>
0

> <JCHEM_GHOSE_FILTER>
0

> <JCHEM_IUPAC>
(2S)-2-amino-5-hydroxypentanoic acid

> <ALOGPS_LOGP>
-3.15

> <JCHEM_LOGP>
-3.3102086998554663

> <ALOGPS_LOGS>
0.30

> <JCHEM_MDDR_LIKE_RULE>
0

> <JCHEM_NEUTRAL_CHARGE>
0

> <JCHEM_NUMBER_OF_RINGS>
0

> <JCHEM_PHYSIOLOGICAL_CHARGE>
0

> <JCHEM_PKA>
15.972779968871116

> <JCHEM_PKA_STRONGEST_ACIDIC>
2.355263439981361

> <JCHEM_PKA_STRONGEST_BASIC>
9.224033884543951

> <JCHEM_POLAR_SURFACE_AREA>
83.55000000000001

> <JCHEM_REFRACTIVITY>
31.551

> <JCHEM_ROTATABLE_BOND_COUNT>
4

> <JCHEM_RULE_OF_FIVE>
1

> <ALOGPS_SOLUBILITY>
2.68e+02 g/l

> <JCHEM_TRADITIONAL_IUPAC>
tetrahydrofolic acid

> <JCHEM_VEBER_RULE>
0

> <DRUGBANK_ID>
DB03105

> <SECONDARY_ACCESSION_NUMBERS>
EXPT01193

> <DRUG_GROUPS>
experimental

> <GENERIC_NAME>
L-Pentahomoserine

> <SYNONYMS>
(S)-5-Hydroxynorvaline; 5-Hydroxy-2-aminovaleric acid; L-5-Hydroxynorvaline; L-alpha-Amino-delta-hydroxyvaleric acid

$$$$
