
  Mrv0541 05041407242D          

 45 47  0  0  1  0            999 V2000
    3.5724    2.0625    0.0000 C   0  0  0  0  0  0  0  0  0  0  0  0
    2.8579    2.4750    0.0000 C   0  0  0  0  0  0  0  0  0  0  0  0
    7.1447    3.3000    0.0000 C   0  0  0  0  0  0  0  0  0  0  0  0
    4.2868    2.4750    0.0000 C   0  0  0  0  0  0  0  0  0  0  0  0
    6.4302    3.7125    0.0000 C   0  0  0  0  0  0  0  0  0  0  0  0
    7.1447    2.4750    0.0000 C   0  0  0  0  0  0  0  0  0  0  0  0
    2.1434    2.0625    0.0000 C   0  0  0  0  0  0  0  0  0  0  0  0
    5.0013    2.0625    0.0000 C   0  0  0  0  0  0  0  0  0  0  0  0
    5.7158    3.3000    0.0000 C   0  0  0  0  0  0  0  0  0  0  0  0
    6.4302    2.0625    0.0000 C   0  0  0  0  0  0  0  0  0  0  0  0
    1.4289    2.4750    0.0000 C   0  0  0  0  0  0  0  0  0  0  0  0
   -3.5724    1.2375    0.0000 C   0  0  0  0  0  0  0  0  0  0  0  0
   -0.7145    4.5375    0.0000 C   0  0  0  0  0  0  0  0  0  0  0  0
    5.7158    2.4750    0.0000 C   0  0  0  0  0  0  0  0  0  0  0  0
   -3.5724    2.0625    0.0000 C   0  0  2  0  0  0  0  0  0  0  0  0
   -0.7145    3.7125    0.0000 C   0  0  2  0  0  0  0  0  0  0  0  0
   -4.2868    2.4750    0.0000 C   0  0  2  0  0  0  0  0  0  0  0  0
   -4.2868    3.3000    0.0000 C   0  0  1  0  0  0  0  0  0  0  0  0
   -1.4289    2.4750    0.0000 C   0  0  2  0  0  0  0  0  0  0  0  0
   -3.5724    3.7125    0.0000 C   0  0  2  0  0  0  0  0  0  0  0  0
   -0.7145    2.0625    0.0000 C   0  0  2  0  0  0  0  0  0  0  0  0
   -1.4289    3.3000    0.0000 C   0  0  2  0  0  0  0  0  0  0  0  0
   -0.0000    2.4750    0.0000 C   0  0  2  0  0  0  0  0  0  0  0  0
   -2.8579    3.3000    0.0000 C   0  0  2  0  0  0  0  0  0  0  0  0
   -4.2868    0.8250    0.0000 O   0  0  0  0  0  0  0  0  0  0  0  0
    0.0000    4.9500    0.0000 O   0  0  0  0  0  0  0  0  0  0  0  0
   -5.0013    2.0625    0.0000 O   0  0  0  0  0  0  0  0  0  0  0  0
   -5.0013    3.7125    0.0000 O   0  0  0  0  0  0  0  0  0  0  0  0
   -2.1434    2.0625    0.0000 O   0  0  0  0  0  0  0  0  0  0  0  0
   -3.5724    4.5375    0.0000 O   0  0  0  0  0  0  0  0  0  0  0  0
   -0.7145    1.2375    0.0000 O   0  0  0  0  0  0  0  0  0  0  0  0
    0.7145    2.0625    0.0000 O   0  0  0  0  0  0  0  0  0  0  0  0
   -2.8579    2.4750    0.0000 O   0  0  0  0  0  0  0  0  0  0  0  0
    0.0000    3.3000    0.0000 O   0  0  0  0  0  0  0  0  0  0  0  0
   -2.1434    3.7125    0.0000 O   0  0  0  0  0  0  0  0  0  0  0  0
   -4.1027    1.4305    0.0000 H   0  0  0  0  0  0  0  0  0  0  0  0
   -1.5269    3.8558    0.0000 H   0  0  0  0  0  0  0  0  0  0  0  0
   -4.5690    1.6998    0.0000 H   0  0  0  0  0  0  0  0  0  0  0  0
   -5.0013    2.8875    0.0000 H   0  0  0  0  0  0  0  0  0  0  0  0
   -1.1468    1.6998    0.0000 H   0  0  0  0  0  0  0  0  0  0  0  0
   -4.2868    4.1250    0.0000 H   0  0  0  0  0  0  0  0  0  0  0  0
   -1.2448    1.4305    0.0000 H   0  0  0  0  0  0  0  0  0  0  0  0
   -1.7111    4.0752    0.0000 H   0  0  0  0  0  0  0  0  0  0  0  0
   -0.0000    1.6500    0.0000 H   0  0  0  0  0  0  0  0  0  0  0  0
   -2.8579    4.1250    0.0000 H   0  0  0  0  0  0  0  0  0  0  0  0
  2  1  1  0  0  0  0
  4  1  1  0  0  0  0
  5  3  1  0  0  0  0
  6  3  1  0  0  0  0
  7  2  1  0  0  0  0
  8  4  1  0  0  0  0
  9  5  1  0  0  0  0
 10  6  1  0  0  0  0
 11  7  1  0  0  0  0
 14  8  1  0  0  0  0
 14  9  1  0  0  0  0
 14 10  1  0  0  0  0
 15 12  1  6  0  0  0
 16 13  1  1  0  0  0
 17 15  1  0  0  0  0
 18 17  1  0  0  0  0
 20 18  1  0  0  0  0
 21 19  1  0  0  0  0
 22 16  1  0  0  0  0
 22 19  1  0  0  0  0
 23 21  1  0  0  0  0
 24 20  1  0  0  0  0
 25 12  1  0  0  0  0
 26 13  1  0  0  0  0
 17 27  1  1  0  0  0
 18 28  1  6  0  0  0
 19 29  1  1  0  0  0
 20 30  1  1  0  0  0
 21 31  1  6  0  0  0
 32 11  1  0  0  0  0
 23 32  1  1  0  0  0
 33 15  1  0  0  0  0
 33 24  1  0  0  0  0
 34 16  1  0  0  0  0
 34 23  1  0  0  0  0
 22 35  1  6  0  0  0
 24 35  1  1  0  0  0
 15 36  1  1  0  0  0
 16 37  1  6  0  0  0
 17 38  1  6  0  0  0
 18 39  1  1  0  0  0
 19 40  1  6  0  0  0
 20 41  1  6  0  0  0
 21 42  1  1  0  0  0
 22 43  1  1  0  0  0
 23 44  1  6  0  0  0
 24 45  1  6  0  0  0
M  END
> <DATABASE_ID>
DB03472

> <DATABASE_NAME>
drugbank

> <SMILES>
[H][C@]1(CO)O[C@]([H])(O[C@]2([H])[C@@]([H])(CO)O[C@@]([H])(OCCCCCCC3CCCCC3)[C@]([H])(O)[C@@]2([H])O)[C@]([H])(O)[C@@]([H])(O)[C@]1([H])O

> <INCHI_IDENTIFIER>
InChI=1S/C24H44O11/c25-12-15-17(27)18(28)20(30)24(33-15)35-22-16(13-26)34-23(21(31)19(22)29)32-11-7-2-1-4-8-14-9-5-3-6-10-14/h14-31H,1-13H2/t15-,16-,17-,18+,19-,20-,21-,22-,23-,24-/m1/s1

> <INCHI_KEY>
WUCWJXGMSXTDAV-QKMCSOCLSA-N

> <FORMULA>
C24H44O11

> <MOLECULAR_WEIGHT>
508.5996

> <EXACT_MASS>
508.28836225

> <JCHEM_ACCEPTOR_COUNT>
11

> <JCHEM_ATOM_COUNT>
79

> <JCHEM_AVERAGE_NEUTRAL_MICROSPECIES_CHARGE>
-1.900699229922346e-05

> <JCHEM_AVERAGE_POLARIZABILITY>
55.29359509107934

> <JCHEM_BIOAVAILABILITY>
0

> <JCHEM_DONOR_COUNT>
7

> <JCHEM_FORMAL_CHARGE>
0

> <JCHEM_GHOSE_FILTER>
0

> <JCHEM_IUPAC>
(2R,3R,4S,5S,6R)-2-{[(2R,3S,4R,5R,6R)-6-[(6-cyclohexylhexyl)oxy]-4,5-dihydroxy-2-(hydroxymethyl)oxan-3-yl]oxy}-6-(hydroxymethyl)oxane-3,4,5-triol

> <ALOGPS_LOGP>
0.66

> <JCHEM_LOGP>
0.19892450333333292

> <ALOGPS_LOGS>
-2.25

> <JCHEM_MDDR_LIKE_RULE>
1

> <JCHEM_NEUTRAL_CHARGE>
0

> <JCHEM_NUMBER_OF_RINGS>
3

> <JCHEM_PHYSIOLOGICAL_CHARGE>
0

> <JCHEM_PKA>
12.486202997409407

> <JCHEM_PKA_STRONGEST_ACIDIC>
11.939975979773823

> <JCHEM_PKA_STRONGEST_BASIC>
-2.9810835652988272

> <JCHEM_POLAR_SURFACE_AREA>
178.52999999999997

> <JCHEM_REFRACTIVITY>
121.91489999999995

> <JCHEM_ROTATABLE_BOND_COUNT>
12

> <JCHEM_RULE_OF_FIVE>
0

> <ALOGPS_SOLUBILITY>
2.89e+00 g/l

> <JCHEM_TRADITIONAL_IUPAC>
biotin

> <JCHEM_VEBER_RULE>
0

> <DRUGBANK_ID>
DB03472

> <SECONDARY_ACCESSION_NUMBERS>
EXPT02102

> <DRUG_GROUPS>
experimental

> <GENERIC_NAME>
Cyclohexyl-Hexyl-Beta-D-Maltoside

$$$$
