
  Mrv0541 10291314342D          

 25 28  0  0  0  0            999 V2000
    7.7254    1.5548    0.0000 O   0  0  0  0  0  0  0  0  0  0  0  0
    2.3626   -1.9994    0.0000 O   0  0  0  0  0  0  0  0  0  0  0  0
    6.8116    0.5185    0.0000 C   0  0  1  0  0  0  0  0  0  0  0  0
    6.8116   -0.3064    0.0000 C   0  0  2  0  0  0  0  0  0  0  0  0
    6.0971   -0.7188    0.0000 C   0  0  2  0  0  0  0  0  0  0  0  0
    7.5921    0.7699    0.0000 C   0  0  2  0  0  0  0  0  0  0  0  0
    6.0971    0.9310    0.0000 C   0  0  0  0  0  0  0  0  0  0  0  0
    7.5921   -0.5577    0.0000 C   0  0  0  0  0  0  0  0  0  0  0  0
    5.3827    0.5185    0.0000 C   0  0  0  0  0  0  0  0  0  0  0  0
    8.0734    0.1061    0.0000 C   0  0  0  0  0  0  0  0  0  0  0  0
    6.1102   -1.5781    0.0000 C   0  0  0  0  0  0  0  0  0  0  0  0
    6.8116    1.3434    0.0000 C   0  0  0  0  0  0  0  0  0  0  0  0
    4.6321   -0.7245    0.0000 C   0  0  0  0  0  0  0  0  0  0  0  0
    5.3696   -2.0134    0.0000 C   0  0  0  0  0  0  0  0  0  0  0  0
    4.6255   -1.5838    0.0000 C   0  0  0  0  0  0  0  0  0  0  0  0
    8.2602    0.9263    0.0000 C   0  0  0  0  0  0  0  0  0  0  0  0
    3.8674   -0.2592    0.0000 C   0  0  0  0  0  0  0  0  0  0  0  0
    3.8538   -2.0372    0.0000 C   0  0  0  0  0  0  0  0  0  0  0  0
    3.0855   -0.6947    0.0000 C   0  0  0  0  0  0  0  0  0  0  0  0
    3.0785   -1.5898    0.0000 C   0  0  0  0  0  0  0  0  0  0  0  0
    9.0774    1.0528    0.0000 C   0  0  0  0  0  0  0  0  0  0  0  0
    6.0759    0.0864    0.0000 H   0  0  0  0  0  0  0  0  0  0  0  0
    5.3827   -0.3064    0.0000 C   0  0  2  0  0  0  0  0  0  0  0  0
    5.3762   -1.1312    0.0000 H   0  0  0  0  0  0  0  0  0  0  0  0
    6.8988   -1.1266    0.0000 H   0  0  0  0  0  0  0  0  0  0  0  0
  6  1  1  0  0  0  0
  2 20  1  0  0  0  0
  3  4  1  0  0  0  0
  3  6  1  0  0  0  0
  3  7  1  0  0  0  0
  3 12  1  1  0  0  0
  4  5  1  0  0  0  0
  4  8  1  0  0  0  0
  5 11  1  0  0  0  0
  5 22  1  1  0  0  0
  6 10  1  0  0  0  0
  6 16  1  6  0  0  0
  7  9  1  0  0  0  0
  8 10  1  0  0  0  0
 11 14  1  0  0  0  0
 13 15  2  0  0  0  0
 13 17  1  0  0  0  0
 14 15  1  0  0  0  0
 15 18  1  0  0  0  0
 16 21  3  0  0  0  0
 17 19  2  0  0  0  0
 18 20  2  0  0  0  0
 19 20  1  0  0  0  0
  5 23  1  0  0  0  0
 23  9  1  0  0  0  0
 23 13  1  0  0  0  0
 23 24  1  6  0  0  0
  4 25  1  6  0  0  0
M  END
> <DATABASE_ID>
DB00977

> <DATABASE_NAME>
drugbank

> <SMILES>
[H][C@@]12CC[C@@](O)(C#C)[C@@]1(C)CC[C@]1([H])C3=C(CC[C@@]21[H])C=C(O)C=C3

> <INCHI_IDENTIFIER>
InChI=1S/C20H24O2/c1-3-20(22)11-9-18-17-6-4-13-12-14(21)5-7-15(13)16(17)8-10-19(18,20)2/h1,5,7,12,16-18,21-22H,4,6,8-11H2,2H3/t16-,17-,18+,19+,20+/m1/s1

> <INCHI_KEY>
BFPYWIDHMRZLRN-SLHNCBLASA-N

> <FORMULA>
C20H24O2

> <MOLECULAR_WEIGHT>
296.4034

> <EXACT_MASS>
296.177630012

> <JCHEM_ACCEPTOR_COUNT>
2

> <JCHEM_ATOM_COUNT>
46

> <JCHEM_AVERAGE_NEUTRAL_MICROSPECIES_CHARGE>
-0.0004706952471569205

> <JCHEM_AVERAGE_POLARIZABILITY>
34.53354161278887

> <JCHEM_BIOAVAILABILITY>
1

> <JCHEM_DONOR_COUNT>
2

> <JCHEM_FORMAL_CHARGE>
0

> <JCHEM_GHOSE_FILTER>
1

> <JCHEM_IUPAC>
(1R,3aS,3bR,9bS,11aS)-1-ethynyl-11a-methyl-1H,2H,3H,3aH,3bH,4H,5H,9bH,10H,11H,11aH-cyclopenta[a]phenanthrene-1,7-diol

> <ALOGPS_LOGP>
3.63

> <JCHEM_LOGP>
3.897353088000001

> <ALOGPS_LOGS>
-4.64

> <JCHEM_MDDR_LIKE_RULE>
0

> <JCHEM_NEUTRAL_CHARGE>
0

> <JCHEM_NUMBER_OF_RINGS>
4

> <JCHEM_PHYSIOLOGICAL_CHARGE>
0

> <JCHEM_PKA>
17.594918895355708

> <JCHEM_PKA_STRONGEST_ACIDIC>
10.327053739938252

> <JCHEM_PKA_STRONGEST_BASIC>
-1.6637824751718562

> <JCHEM_POLAR_SURFACE_AREA>
40.46

> <JCHEM_REFRACTIVITY>
87.3745

> <JCHEM_ROTATABLE_BOND_COUNT>
0

> <JCHEM_RULE_OF_FIVE>
1

> <ALOGPS_SOLUBILITY>
6.77e-03 g/l

> <JCHEM_TRADITIONAL_IUPAC>
biotin

> <JCHEM_VEBER_RULE>
0

> <DRUGBANK_ID>
DB00977

> <SECONDARY_ACCESSION_NUMBERS>
APRD00691

> <DRUG_GROUPS>
approved

> <GENERIC_NAME>
Ethinylestradiol

> <SYNONYMS>
17-ethinyl-3,17-estradiol; 17-ethinyl-3,17-oestradiol; 17-ethinylestradiol; 17alpha-Ethinyl estradiol; 17α-ethynylestradiol; Ethinyl estradiol; Ethinylestradiol; Ethinylestradiolum; Ethinyloestradiol; Ethynyl estradiol; Etinilestradiol

> <PRODUCTS>
AUROVELA Fe; Afirmelle; Alesse 21; Alesse 28; Altavera; Alyacen 1/35; Alyacen 7/7/7; Alysena 21; Alysena 28; Amethia; Amethia Lo; Amethyst; Annovera; Apri; Apri 21; Apri 28; Apri 28 Day; Aranelle; Ashlyna; Aubra; Aubra EQ; Audrina 21; Audrina 28; Aurovela 1.5/30; Aurovela 1/20; Aurovela 24 Fe; Aurovela Fe 1/20; Aviane; Aviane 21; Aviane 28; Aviane 28 Day; Ayuna; Azurette; Balcoltra; Balziva; Bekyree; Beyaz; Blisovi 24 Fe; Blisovi Fe 1.5/30; Blisovi Fe 1/20; Brevicon; Brevicon 0.5/35 21 Tab; Brevicon 0.5/35 28 Tab; Brevicon 0.5/35 Tablets (21-day Pack); Brevicon 0.5/35 Tablets (28-day Pack); Brevicon 1/35 21 Tab; Brevicon 1/35 28 Tab; Brevicon 1/35 Tablets (21-day Pack); Brevicon 1/35 Tablets (28-day Pack); Briellyn; Camrese; Caziant; Caziant Triphasic Regimen; Centrisa 21; Centrisa 28; Centrisa Lo 21; Centrisa Lo 28; Cesia; Charlotte 24Fe; Chateal; Chateal EQ; Cléo -35; Cryselle; Cyclafem 1/35; Cyclafem 7/7/7; Cyclen Tablets (21 Day); Cyclen Tablets (28 Day); Cyclessa; Cyestra-35; Cyonanz; Cyred; Cyred EQ; Dasetta 1/35; Dasetta 7/7/7; Daysee; Delyla; Demulen 30 (21 Day Pack); Demulen 30 (28 Day Pack); Demulen 50 (21 Day Pack); Demulen 50 (28 Day Pack); Desogen; Desogestrel and Ethinyl Estradiol; Desogestrel and Ethinyl Estradiol and Ethinyl Estradiol; Desogestrel/Ethinyl Estradiol and Ethinyl Estradiol; Diane-35; Dolishale; Drospirenone and Ethinyl Estradiol; Drospirenone and Ethinyl Estradiol Tablets; Drospirenone and Ethinyl Estradiol Tablets 21; Drospirenone and Ethinyl Estradiol Tablets 28; Drospirenone and Ethinyl Estradiol Tablets USP; Drospirenone and Ethinyl Estradiol Tablets USP 21; Drospirenone and Ethinyl Estradiol Tablets USP 28; Drospirenone and Ethinyl estradiol; Drospirenone and ethinyl estradiol; Drospirenone, Ethinyl Estradiol and Levomefolate Calcium and Levomefolate Calcium; Drospirenone/Ethinyl Estradiol/Levomefolate Calcium and Levomefolate Calcium; Drospirenone/ethinyl estradiol/levomefolate calcium and levomefolate calcium; ESTROSTEP Fe; Elinest; EluRyng; Emoquette; Enpresse; Enskyce; Esme 21; Esme 28; Estarylla; Estinyl Tab 0.05mg; Estinyl Tab 0.5mg; Estinyl Tablets 0.02 Mg.; Ethynodiol Diacetate and Ethinyl Estradiol; Etonogestrel and Ethinyl Estradiol; Etonogestrel/Ethinyl Estradiol; Evra; Evra -(6/0.75); FEMCON Fe; Falessa; Falmina; Fayosim; Femhrt; Femynor; Finzala; Freya 21; Freya 28; Fyavolv; GENERESS Fe; Gemmily; Generess; Gianvi; Gildagia; Gildess 1.5/30; Gildess 1/20; Gildess 24 Fe; Gildess Fe 1.5/30; Gildess Fe 1/20; HAILEY Fe 1/20; Hailey 1.5/30; Hailey 24 Fe; Hailey Fe 1.5/30; Haloette; Iclevia; Indayo; Introvale; Isibloom; Jaimiess; Jasmiel; Jevantique; Jevantique Lo; Jinteli; Jolessa; Juleber; Junel 1.5/30; Junel 21 Day; Junel FE; Junel Fe 1.5/30; Junel Fe 1/20; Junel Fe 24; Junel Fe 28 Day; Kaitlib Fe; Kalliga; Kariva; Kelnor 1/35; Kelnor 1/50; Kimidess; Kurvelo; LOESTRIN 1.5/30 21 Day; LOESTRIN 1/20 21 Day; LOESTRIN Fe 1.5/30; LOESTRIN Fe 1.5/30 28 Day; LOESTRIN Fe 1/20; LOESTRIN Fe 1/20 28 Day; Larin 1.5/30; Larin 1/20; Larin 24 Fe; Larin Fe 1.5/30; Larin Fe 1/20; Larissia; Layolis Fe; Leena; Lessina; Levlite; Levonest; Levonorgestrel and Ethinyl Estradiol; Levonorgestrel and Ethinyl Estradiol Tablets, 0.1 Mg/0.02 mg; Levonorgestrel and Ethinyl Estradiol and Ethinyl Estradiol; Levonorgestrel and Ethinyl Estradoil; Levora; Lillow; Linessa 21; Linessa 28; Lo Loestrin Fe; Lo Minastrin Fe; Lo Simpesse; Lo-Zumandimine; Lo-femenal 21 Tablets; Lo-ovral-28; Lo/Ovral; Lo/Ovral-28; Lo/ovral-28; LoJaimiess; LoSeasonique; Loestrin 1.5/30; Loestrin 21 1.5/30; Loestrin 21 1/20; Loestrin 21 Day; Loestrin 24 Fe; Loestrin Fe 28 Day; Lolo; Lomedia 24 Fe; Loryna; Low-Ogestrel; Lutera; Lutera 21; Lutera 28; Lybrel; MICROGESTIN Fe 1.5/30; MICROGESTIN Fe 1/20; Marfem 21; Marfem 28; Marlissa; Marvelon 21; Marvelon 28; Melodetta 24 Fe; Mercilon; Merzee; Mibelas 24 Fe; Microgestin; Microgestin 1.5/30; Microgestin 1/20; Microgestin 24 Fe; Microgestin Fe; Microgestin Fe 1.5/30; Microgestin Fe 1/20; Mili; Min-ovral 21; Min-ovral 21 Tab; Min-ovral 28; Min-ovral 28 Tab; Minastrin 24 Fe; Minestrin 1/20; Minivlar 30; Mircette; Mirvala 21; Mirvala 28; Modicon; Mono-Linyah; MonoNessa; Mya; Mylan-cyproterone / Ethinylestradiol; Myvlar; Myzilra; Necon; Necon (28 Day Regimen); Necon 0.5/35; Necon 1/35; Necon 1/35 (28 Day Regimen); Necon 10/11; Necon 777; Necon 777 777; Nexesta Fe; Nikki; Nordette; Norelgestromin and Ethinly Estradiol; Norethindrone Acetate and Ethinyl Estradiol; Norethindrone Acetate and Ethinyl Estradiol and Ferrous Fumarate; Norethindrone Acetate and Ethinyl Estradiol, and Ferrous Fumarate; Norethindrone and Ethinyl Estradiol and Ferrous Fumarate; Norethindrone and Ethinyl Estradiol, and Ferrous Fumarate; Norethindrone and ethinyl estradiol; Norgestimate and Ethinyl Estradiol; Norgestimate and ethinyl estradiol; Norgestrel/Ethinyl Estradiol; Norinyl; Nortrel (21 Day Regimen); Nortrel 21 Day; Nortrel 28 Day; Nortrel 7/7/7 (28 Day Regimen); NuvaRing; Nuvaring; Nylia 1/35; Nylia 7/7/7; Nymyo; ORTHO TRI CYCLEN Lo; Ocella; Ogestrel; Orsythia; Ortho 0.5/35 Tablets (21 Day); Ortho 0.5/35 Tablets (28 Day); Ortho 1/35 Tablets (21 Day); Ortho 1/35 Tablets (28 Day); Ortho 10/11 Tablets (21 Day); Ortho 10/11 Tablets (28 Day); Ortho 7/7/7 Tablets (21 Day); Ortho 7/7/7 Tablets (28 Day); Ortho Cept; Ortho Cyclen; Ortho Evra; Ortho Novum 1/35; Ortho Novum 135; Ortho Tri Cyclen; Ortho Tri-Cyclen; Ortho-Novum 777; Ortho-cept Tablets (21 Day); Ortho-cept Tablets (28 Day); Ortho-novum 10/11; Ovcon 35; Ovcon 50; Ovima 21; Ovima 28; Ovral 21; Ovral 21 Tab; Ovral 28 Tablets; Ovral 28tab; Philith; Pimtrea; Pirmella 1/35; Pirmella 7/7/7; Portia; Portia 21; Portia 28; Preven Emergency Contraceptive; Preven Tablets; Previfem; Previfem (21day); Previfem (28day); Qismette 21; Qismette 28; Quartette; Quasense; Rajani; Reclipsen; Reclipsen 21; Reclipsen 28; Reclipsen 28 Day; Rhuzdah; Rivelsa; Safyral; Sarensis 21; Sarensis 28; Seasonale; Seasonique; Select 1/35 (21-day); Select 1/35 (28-day); Setlakin; Simliya; Simpesse; Solia; Sprintec; Sronyx; Syeda; Synphasic 21 Tablets; Synphasic 28 Tablets; Synphasic-28 Tablets; TARINA Fe 1/20; Tarina 24 Fe; Tarina Fe 1/20 EQ; Taro-cyproterone/ethinyl Estradiol; Taysofy; Taytulla; Teva-cyproterone / Ethinyl Estradiol; Tilia Fe; Tri Femynor; Tri-Estarylla; Tri-LO-marzia; Tri-Legest Fe 28 Day; Tri-Linyah; Tri-Lo- Estarylla; Tri-Lo-Mili; Tri-Lo-Sprintec; Tri-Mili; Tri-Norinyl; Tri-Nymyo; Tri-Previfem; Tri-Sprintec; Tri-VyLibra; Tri-VyLibra Lo; Tri-cira 21; Tri-cira 28; Tri-cira Lo 21; Tri-cira Lo 28; Tri-cyclen Lo (21 Day); Tri-cyclen Lo (28 Day); Tri-cyclen Tablets - 21-day; Tri-cyclen Tablets - 28-day; Tri-jordyna 21; Tri-jordyna 28; Tri-lena 21; Tri-lena 28; Tri-lena Lo 21; Tri-lena Lo 28; Tri-previfem (21 Day); Tri-previfem (28 Day); TriNessa; TriNessa Lo; Triphasil 21; Triphasil 21 Tab; Triphasil 28; Triphasil 28 Tab; Triphasil-21; Triquilar 21; Triquilar 28; Trivora; Twirla; Tyblume; Tydemy; Velivet Triphasic Regimen; Vestura; Vienva TM; Viorele; Volnea; VyLibra; Vyfemla; WYMZYA Fe; Wera; Wymzya Fe; Xulane; Yasmin; Yasmin 21; Yasmin 28; Yasmin Plus; Yaz; Yaz Plus; Zafemy; Zamine 21; Zamine 28; Zarah; Zarah 21; Zarah 28; Zenchent; Zenchent 0.4/35; Zenchent FE; Zeosa; Zovia 1/35; Zovia 1/35E-28; Zovia 1/50E-28; Zumandimine; camrese Lo

> <INTERNATIONAL_BRANDS>
Estinyl

$$$$
