
  Mrv0541 02241222232D          

 63 65  0  0  1  0            999 V2000
   35.2615   -1.5925    0.0000 C   0  0  2  0  0  0  0  0  0  0  0  0
   34.5941   -1.1076    0.0000 O   0  0  0  0  0  0  0  0  0  0  0  0
   35.0066   -2.3771    0.0000 C   0  0  1  0  0  0  0  0  0  0  0  0
   33.9266   -1.5925    0.0000 C   0  0  1  0  0  0  0  0  0  0  0  0
   34.1816   -2.3771    0.0000 C   0  0  1  0  0  0  0  0  0  0  0  0
   35.4915   -3.0446    0.0000 O   0  0  0  0  0  0  0  0  0  0  0  0
   28.5158   -5.6335    0.0000 C   0  0  0  0  0  0  0  0  0  0  0  0
   29.2586   -6.0460    0.0000 C   0  0  0  0  0  0  0  0  0  0  0  0
   27.8013   -6.0460    0.0000 N   0  0  0  0  0  0  0  0  0  0  0  0
   27.0869   -5.6335    0.0000 C   0  0  0  0  0  0  0  0  0  0  0  0
   26.3724   -6.0460    0.0000 O   0  0  0  0  0  0  0  0  0  0  0  0
   27.8297   -4.3960    0.0000 C   0  0  0  0  0  0  0  0  0  0  0  0
   27.0869   -4.8085    0.0000 C   0  0  0  0  0  0  0  0  0  0  0  0
   27.8297   -3.5710    0.0000 N   0  0  0  0  0  0  0  0  0  0  0  0
   26.4008   -3.5710    0.0000 O   0  0  0  0  0  0  0  0  0  0  0  0
   27.1152   -3.1584    0.0000 C   0  0  0  0  0  0  0  0  0  0  0  0
   28.5442   -2.3334    0.0000 C   0  0  0  0  0  0  0  0  0  0  0  0
   27.4172   -1.2065    0.0000 C   0  0  0  0  0  0  0  0  0  0  0  0
   27.8297   -1.9209    0.0000 C   0  0  0  0  0  0  0  0  0  0  0  0
   28.2422   -1.2065    0.0000 C   0  0  0  0  0  0  0  0  0  0  0  0
   27.1152   -2.3334    0.0000 C   0  0  1  0  0  0  0  0  0  0  0  0
   26.4007   -1.9209    0.0000 O   0  0  0  0  0  0  0  0  0  0  0  0
   29.2586   -1.9209    0.0000 O   0  0  0  0  0  0  0  0  0  0  0  0
   30.9086   -1.9209    0.0000 O   0  0  0  0  0  0  0  0  0  0  0  0
   32.5586   -1.9209    0.0000 O   0  0  0  0  0  0  0  0  0  0  0  0
   30.0836   -1.0959    0.0000 O   0  0  0  0  0  0  0  0  0  0  0  0
   30.0836   -2.7459    0.0000 O   0  0  0  0  0  0  0  0  0  0  0  0
   31.7336   -1.0959    0.0000 O   0  0  0  0  0  0  0  0  0  0  0  0
   31.7336   -2.7459    0.0000 O   0  0  0  0  0  0  0  0  0  0  0  0
   30.0836   -1.9209    0.0000 P   0  0  0  0  0  0  0  0  0  0  0  0
   31.7336   -1.9209    0.0000 P   0  0  0  0  0  0  0  0  0  0  0  0
   33.1420   -1.3376    0.0000 C   0  0  0  0  0  0  0  0  0  0  0  0
   33.6966   -3.0446    0.0000 O   0  0  0  0  0  0  0  0  0  0  0  0
   32.8716   -3.8696    0.0000 O   0  0  0  0  0  0  0  0  0  0  0  0
   34.5216   -3.8696    0.0000 O   0  0  0  0  0  0  0  0  0  0  0  0
   33.6966   -3.8696    0.0000 P   0  0  0  0  0  0  0  0  0  0  0  0
   33.6966   -4.6946    0.0000 O   0  0  0  0  0  0  0  0  0  0  0  0
   36.0461   -1.3376    0.0000 N   0  0  0  0  0  0  0  0  0  0  0  0
   36.6593   -1.8896    0.0000 C   0  0  0  0  0  0  0  0  0  0  0  0
   36.3817   -0.5839    0.0000 C   0  0  0  0  0  0  0  0  0  0  0  0
   37.3737   -1.4771    0.0000 C   0  0  0  0  0  0  0  0  0  0  0  0
   36.6593   -2.7146    0.0000 N   0  0  0  0  0  0  0  0  0  0  0  0
   37.2022   -0.6701    0.0000 N   0  0  0  0  0  0  0  0  0  0  0  0
   38.0882   -1.8895    0.0000 C   0  0  0  0  0  0  0  0  0  0  0  0
   37.3738   -3.1270    0.0000 C   0  0  0  0  0  0  0  0  0  0  0  0
   38.0882   -2.7145    0.0000 N   0  0  0  0  0  0  0  0  0  0  0  0
   38.8026   -1.4770    0.0000 N   0  0  0  0  0  0  0  0  0  0  0  0
   29.9731   -5.6335    0.0000 S   0  0  0  0  0  0  0  0  0  0  0  0
   30.6876   -6.8710    0.0000 O   0  0  0  0  0  0  0  0  0  0  0  0
   30.6876   -6.0460    0.0000 C   0  0  0  0  0  0  0  0  0  0  0  0
   31.4021   -5.6335    0.0000 C   0  0  0  0  0  0  0  0  0  0  0  0
   32.1166   -6.0460    0.0000 C   0  0  0  0  0  0  0  0  0  0  0  0
   32.8310   -5.6335    0.0000 C   0  0  0  0  0  0  0  0  0  0  0  0
   33.5455   -6.0460    0.0000 C   0  0  0  0  0  0  0  0  0  0  0  0
   34.2600   -5.6335    0.0000 C   0  0  0  0  0  0  0  0  0  0  0  0
   34.9744   -6.0460    0.0000 C   0  0  0  0  0  0  0  0  0  0  0  0
   35.6889   -5.6335    0.0000 C   0  0  0  0  0  0  0  0  0  0  0  0
   36.4034   -6.0460    0.0000 C   0  0  0  0  0  0  0  0  0  0  0  0
   37.1178   -5.6335    0.0000 C   0  0  0  0  0  0  0  0  0  0  0  0
   37.8323   -6.0460    0.0000 C   0  0  0  0  0  0  0  0  0  0  0  0
   38.5468   -5.6335    0.0000 C   0  0  0  0  0  0  0  0  0  0  0  0
   39.2613   -6.0460    0.0000 C   0  0  0  0  0  0  0  0  0  0  0  0
   39.9757   -5.6335    0.0000 C   0  0  0  0  0  0  0  0  0  0  0  0
  1 38  1  1  0  0  0
  2  1  1  0  0  0  0
  3  1  1  0  0  0  0
  4  2  1  0  0  0  0
  5  3  1  0  0  0  0
  3  6  1  6  0  0  0
  4 32  1  1  0  0  0
  5  4  1  0  0  0  0
  5 33  1  6  0  0  0
  9  7  1  0  0  0  0
  7  8  1  0  0  0  0
  8 48  1  0  0  0  0
 10  9  1  0  0  0  0
 13 10  1  0  0  0  0
 10 11  2  0  0  0  0
 12 14  1  0  0  0  0
 13 12  1  0  0  0  0
 16 14  1  0  0  0  0
 16 15  2  0  0  0  0
 16 21  1  0  0  0  0
 19 17  1  0  0  0  0
 17 23  1  0  0  0  0
 19 18  1  0  0  0  0
 21 19  1  0  0  0  0
 19 20  1  0  0  0  0
 21 22  1  6  0  0  0
 23 30  1  0  0  0  0
 30 24  1  0  0  0  0
 24 31  1  0  0  0  0
 31 25  1  0  0  0  0
 32 25  1  0  0  0  0
 30 26  2  0  0  0  0
 30 27  1  0  0  0  0
 31 28  2  0  0  0  0
 31 29  1  0  0  0  0
 33 36  1  0  0  0  0
 36 34  1  0  0  0  0
 36 35  1  0  0  0  0
 36 37  2  0  0  0  0
 39 38  1  0  0  0  0
 40 38  1  0  0  0  0
 41 39  2  0  0  0  0
 42 39  1  0  0  0  0
 43 40  2  0  0  0  0
 44 41  1  0  0  0  0
 43 41  1  0  0  0  0
 45 42  2  0  0  0  0
 46 44  2  0  0  0  0
 47 44  1  0  0  0  0
 46 45  1  0  0  0  0
 48 50  1  0  0  0  0
 50 49  2  0  0  0  0
 50 51  1  0  0  0  0
 51 52  1  0  0  0  0
 52 53  1  0  0  0  0
 53 54  1  0  0  0  0
 54 55  1  0  0  0  0
 55 56  1  0  0  0  0
 56 57  1  0  0  0  0
 57 58  1  0  0  0  0
 58 59  1  0  0  0  0
 59 60  1  0  0  0  0
 60 61  1  0  0  0  0
 61 62  1  0  0  0  0
 62 63  1  0  0  0  0
M  END
> <DATABASE_ID>
DB02180

> <DATABASE_NAME>
drugbank

> <SMILES>
CCCCCCCCCCCCCC(=O)SCCNC(=O)CCNC(=O)[C@H](O)C(C)(C)COP(O)(=O)OP(O)(=O)OC[C@H]1O[C@H]([C@H](O)[C@@H]1OP(O)(O)=O)N1C=NC2=C1N=CN=C2N

> <INCHI_IDENTIFIER>
InChI=1S/C35H62N7O17P3S/c1-4-5-6-7-8-9-10-11-12-13-14-15-26(44)63-19-18-37-25(43)16-17-38-33(47)30(46)35(2,3)21-56-62(53,54)59-61(51,52)55-20-24-29(58-60(48,49)50)28(45)34(57-24)42-23-41-27-31(36)39-22-40-32(27)42/h22-24,28-30,34,45-46H,4-21H2,1-3H3,(H,37,43)(H,38,47)(H,51,52)(H,53,54)(H2,36,39,40)(H2,48,49,50)/t24-,28-,29-,30+,34-/m1/s1

> <INCHI_KEY>
DUAFKXOFBZQTQE-QSGBVPJFSA-N

> <FORMULA>
C35H62N7O17P3S

> <MOLECULAR_WEIGHT>
977.89

> <EXACT_MASS>
977.313573819

> <JCHEM_ACCEPTOR_COUNT>
17

> <JCHEM_ATOM_COUNT>
125

> <JCHEM_AVERAGE_NEUTRAL_MICROSPECIES_CHARGE>
-3.9551811461944544

> <JCHEM_AVERAGE_POLARIZABILITY>
97.96843974914619

> <JCHEM_BIOAVAILABILITY>
0

> <JCHEM_DONOR_COUNT>
9

> <JCHEM_FORMAL_CHARGE>
0

> <JCHEM_GHOSE_FILTER>
0

> <JCHEM_IUPAC>
{[(2R,3S,4R,5R)-5-(6-amino-9H-purin-9-yl)-4-hydroxy-2-({[hydroxy({hydroxy[(3R)-3-hydroxy-2,2-dimethyl-3-[(2-{[2-(tetradecanoylsulfanyl)ethyl]carbamoyl}ethyl)carbamoyl]propoxy]phosphoryl}oxy)phosphoryl]oxy}methyl)oxolan-3-yl]oxy}phosphonic acid

> <ALOGPS_LOGP>
1.84

> <JCHEM_LOGP>
-0.47494630476507155

> <ALOGPS_LOGS>
-2.65

> <JCHEM_MDDR_LIKE_RULE>
1

> <JCHEM_NEUTRAL_CHARGE>
-4

> <JCHEM_NUMBER_OF_RINGS>
3

> <JCHEM_PHYSIOLOGICAL_CHARGE>
-4

> <JCHEM_PKA>
0.921927296988387

> <JCHEM_PKA_STRONGEST_ACIDIC>
0.8257565645629557

> <JCHEM_PKA_STRONGEST_BASIC>
4.887053440723845

> <JCHEM_POLAR_SURFACE_AREA>
363.6299999999999

> <JCHEM_REFRACTIVITY>
227.4459

> <JCHEM_ROTATABLE_BOND_COUNT>
32

> <JCHEM_RULE_OF_FIVE>
0

> <ALOGPS_SOLUBILITY>
2.21e+00 g/l

> <JCHEM_TRADITIONAL_IUPAC>
tetrahydrofolic acid

> <JCHEM_VEBER_RULE>
0

> <DRUGBANK_ID>
DB02180

> <SECONDARY_ACCESSION_NUMBERS>
EXPT02264

> <DRUG_GROUPS>
experimental

> <GENERIC_NAME>
Myristoyl-Coa

$$$$
