
  Mrv0541 02231217392D          

 14 14  0  0  0  0            999 V2000
    2.8579    0.8250    0.0000 O   0  0  0  0  0  0  0  0  0  0  0  0
    2.1434    1.2375    0.0000 C   0  0  0  0  0  0  0  0  0  0  0  0
    2.1434    2.0625    0.0000 O   0  0  0  0  0  0  0  0  0  0  0  0
    1.4289    0.8250    0.0000 C   0  0  0  0  0  0  0  0  0  0  0  0
    1.4289    0.0000    0.0000 N   0  0  0  0  0  0  0  0  0  0  0  0
    0.7145   -0.4125    0.0000 C   0  0  0  0  0  0  0  0  0  0  0  0
    0.0000    0.0000    0.0000 C   0  0  0  0  0  0  0  0  0  0  0  0
    0.0000    0.8250    0.0000 C   0  0  0  0  0  0  0  0  0  0  0  0
    0.7145    1.2375    0.0000 C   0  0  0  0  0  0  0  0  0  0  0  0
    0.7145    2.0625    0.0000 C   0  0  0  0  0  0  0  0  0  0  0  0
    0.0000    2.4750    0.0000 P   0  0  0  0  0  0  0  0  0  0  0  0
   -0.7145    2.8875    0.0000 O   0  0  0  0  0  0  0  0  0  0  0  0
    0.4125    3.1895    0.0000 O   0  0  0  0  0  0  0  0  0  0  0  0
   -0.4125    1.7605    0.0000 O   0  0  0  0  0  0  0  0  0  0  0  0
  1  2  1  0  0  0  0
  2  3  2  0  0  0  0
  2  4  1  0  0  0  0
  4  5  2  0  0  0  0
  5  6  1  0  0  0  0
  6  7  2  0  0  0  0
  7  8  1  0  0  0  0
  8  9  2  0  0  0  0
  4  9  1  0  0  0  0
  9 10  1  0  0  0  0
 10 11  1  0  0  0  0
 11 12  1  0  0  0  0
 11 13  1  0  0  0  0
 11 14  2  0  0  0  0
M  END
> <DATABASE_ID>
DB04406

> <DATABASE_NAME>
drugbank

> <SMILES>
OC(=O)C1=NC=CC=C1CP(O)(O)=O

> <INCHI_IDENTIFIER>
InChI=1S/C7H8NO5P/c9-7(10)6-5(2-1-3-8-6)4-14(11,12)13/h1-3H,4H2,(H,9,10)(H2,11,12,13)

> <INCHI_KEY>
ROSWJUKEABEPFJ-UHFFFAOYSA-N

> <FORMULA>
C7H8NO5P

> <MOLECULAR_WEIGHT>
217.1159

> <EXACT_MASS>
217.014008883

> <JCHEM_ACCEPTOR_COUNT>
6

> <JCHEM_ATOM_COUNT>
22

> <JCHEM_AVERAGE_NEUTRAL_MICROSPECIES_CHARGE>
-2.0954547669098367

> <JCHEM_AVERAGE_POLARIZABILITY>
17.69493027491833

> <JCHEM_BIOAVAILABILITY>
1

> <JCHEM_DONOR_COUNT>
3

> <JCHEM_FORMAL_CHARGE>
0

> <JCHEM_GHOSE_FILTER>
0

> <JCHEM_IUPAC>
3-(phosphonomethyl)pyridine-2-carboxylic acid

> <ALOGPS_LOGP>
-1.70

> <JCHEM_LOGP>
-2.335166296025058

> <ALOGPS_LOGS>
-1.26

> <JCHEM_MDDR_LIKE_RULE>
0

> <JCHEM_NEUTRAL_CHARGE>
-2

> <JCHEM_NUMBER_OF_RINGS>
1

> <JCHEM_PHYSIOLOGICAL_CHARGE>
-2

> <JCHEM_PKA>
1.8187807857231966

> <JCHEM_PKA_STRONGEST_ACIDIC>
0.7997994689731246

> <JCHEM_PKA_STRONGEST_BASIC>
5.43307792256285

> <JCHEM_POLAR_SURFACE_AREA>
107.72

> <JCHEM_REFRACTIVITY>
46.6417

> <JCHEM_ROTATABLE_BOND_COUNT>
3

> <JCHEM_RULE_OF_FIVE>
1

> <ALOGPS_SOLUBILITY>
1.19e+01 g/l

> <JCHEM_TRADITIONAL_IUPAC>
biotin

> <JCHEM_VEBER_RULE>
0

> <DRUGBANK_ID>
DB04406

> <SECONDARY_ACCESSION_NUMBERS>
EXPT02615

> <DRUG_GROUPS>
experimental

> <GENERIC_NAME>
3-(Phosphonomethyl)Pyridine-2-Carboxylic Acid

$$$$
