
  Mrv0541 02231215462D          

 15 14  0  0  1  0            999 V2000
    1.7605    1.8414    0.0000 O   0  0  0  0  0  0  0  0  0  0  0  0
    2.4750    1.4289    0.0000 C   0  0  0  0  0  0  0  0  0  0  0  0
    3.1895    1.8414    0.0000 C   0  0  0  0  0  0  0  0  0  0  0  0
    3.9039    1.4289    0.0000 C   0  0  1  0  0  0  0  0  0  0  0  0
    3.9039    0.6039    0.0000 O   0  0  0  0  0  0  0  0  0  0  0  0
    4.6184    1.8414    0.0000 C   0  0  2  0  0  0  0  0  0  0  0  0
    4.6184    2.6664    0.0000 O   0  0  0  0  0  0  0  0  0  0  0  0
    5.3329    1.4289    0.0000 C   0  0  2  0  0  0  0  0  0  0  0  0
    5.3329    0.6039    0.0000 O   0  0  0  0  0  0  0  0  0  0  0  0
    6.0474    1.8414    0.0000 C   0  0  0  0  0  0  0  0  0  0  0  0
    6.7618    1.4289    0.0000 C   0  0  0  0  0  0  0  0  0  0  0  0
    7.4763    1.8414    0.0000 P   0  0  0  0  0  0  0  0  0  0  0  0
    8.1908    2.2539    0.0000 O   0  0  0  0  0  0  0  0  0  0  0  0
    7.8888    1.1270    0.0000 O   0  0  0  0  0  0  0  0  0  0  0  0
    7.0638    2.5559    0.0000 O   0  0  0  0  0  0  0  0  0  0  0  0
  1  2  1  0  0  0  0
  2  3  1  0  0  0  0
  3  4  1  0  0  0  0
  4  5  1  6  0  0  0
  4  6  1  0  0  0  0
  6  7  1  6  0  0  0
  6  8  1  0  0  0  0
  8  9  1  1  0  0  0
  8 10  1  0  0  0  0
 10 11  2  0  0  0  0
 11 12  1  0  0  0  0
 12 13  1  0  0  0  0
 12 14  1  0  0  0  0
 12 15  2  0  0  0  0
M  END
> <DATABASE_ID>
DB01840

> <DATABASE_NAME>
drugbank

> <SMILES>
OCC[C@@H](O)[C@H](O)[C@H](O)\C=C\P(O)(O)=O

> <INCHI_IDENTIFIER>
InChI=1S/C7H15O7P/c8-3-1-5(9)7(11)6(10)2-4-15(12,13)14/h2,4-11H,1,3H2,(H2,12,13,14)/b4-2+/t5-,6-,7+/m1/s1

> <INCHI_KEY>
CZQSGBWQBMZTMQ-AEVYZNAZSA-N

> <FORMULA>
C7H15O7P

> <MOLECULAR_WEIGHT>
242.1636

> <EXACT_MASS>
242.055539346

> <JCHEM_ACCEPTOR_COUNT>
7

> <JCHEM_ATOM_COUNT>
30

> <JCHEM_AVERAGE_NEUTRAL_MICROSPECIES_CHARGE>
-1.05092491620183

> <JCHEM_AVERAGE_POLARIZABILITY>
21.09733111225151

> <JCHEM_BIOAVAILABILITY>
1

> <JCHEM_DONOR_COUNT>
6

> <JCHEM_FORMAL_CHARGE>
0

> <JCHEM_GHOSE_FILTER>
0

> <JCHEM_IUPAC>
[(1E,3R,4S,5R)-3,4,5,7-tetrahydroxyhept-1-en-1-yl]phosphonic acid

> <ALOGPS_LOGP>
-1.92

> <JCHEM_LOGP>
-3.3590882866666667

> <ALOGPS_LOGS>
-1.06

> <JCHEM_MDDR_LIKE_RULE>
0

> <JCHEM_NEUTRAL_CHARGE>
-1

> <JCHEM_NUMBER_OF_RINGS>
0

> <JCHEM_PHYSIOLOGICAL_CHARGE>
-1

> <JCHEM_PKA>
8.568316598910423

> <JCHEM_PKA_STRONGEST_ACIDIC>
3.5372029916368546

> <JCHEM_PKA_STRONGEST_BASIC>
-2.411339123645516

> <JCHEM_POLAR_SURFACE_AREA>
138.45000000000002

> <JCHEM_REFRACTIVITY>
51.53609999999999

> <JCHEM_ROTATABLE_BOND_COUNT>
6

> <JCHEM_RULE_OF_FIVE>
0

> <ALOGPS_SOLUBILITY>
2.10e+01 g/l

> <JCHEM_TRADITIONAL_IUPAC>
biotin

> <JCHEM_VEBER_RULE>
0

> <DRUGBANK_ID>
DB01840

> <SECONDARY_ACCESSION_NUMBERS>
EXPT01100

> <DRUG_GROUPS>
experimental

> <GENERIC_NAME>
2-Deoxy-D-Glucitol 6-(E)-Vinylhomophosphonate

$$$$
