
  Mrv0541 02231216082D          

  6  6  0  0  0  0            999 V2000
    0.5678    1.9393    0.0000 N   0  0  0  0  0  0  0  0  0  0  0  0
    0.5678    1.1143    0.0000 C   0  0  0  0  0  0  0  0  0  0  0  0
    1.2352    0.6294    0.0000 N   0  0  0  0  0  0  0  0  0  0  0  0
    0.9803   -0.1553    0.0000 C   0  0  0  0  0  0  0  0  0  0  0  0
    0.1553   -0.1553    0.0000 C   0  0  0  0  0  0  0  0  0  0  0  0
   -0.0997    0.6294    0.0000 S   0  0  0  0  0  0  0  0  0  0  0  0
  1  2  1  0  0  0  0
  2  3  2  0  0  0  0
  3  4  1  0  0  0  0
  4  5  1  0  0  0  0
  5  6  1  0  0  0  0
  2  6  1  0  0  0  0
M  END
> <DATABASE_ID>
DB02335

> <DATABASE_NAME>
drugbank

> <SMILES>
NC1=NCCS1

> <INCHI_IDENTIFIER>
InChI=1S/C3H6N2S/c4-3-5-1-2-6-3/h1-2H2,(H2,4,5)

> <INCHI_KEY>
REGFWZVTTFGQOJ-UHFFFAOYSA-N

> <FORMULA>
C3H6N2S

> <MOLECULAR_WEIGHT>
102.158

> <EXACT_MASS>
102.025168892

> <JCHEM_ACCEPTOR_COUNT>
2

> <JCHEM_ATOM_COUNT>
12

> <JCHEM_AVERAGE_NEUTRAL_MICROSPECIES_CHARGE>
0.9949614415775881

> <JCHEM_AVERAGE_POLARIZABILITY>
10.07634480507732

> <JCHEM_BIOAVAILABILITY>
1

> <JCHEM_DONOR_COUNT>
1

> <JCHEM_FORMAL_CHARGE>
0

> <JCHEM_GHOSE_FILTER>
0

> <JCHEM_IUPAC>
4,5-dihydro-1,3-thiazol-2-amine

> <ALOGPS_LOGP>
-0.24

> <JCHEM_LOGP>
0.20592619300000006

> <ALOGPS_LOGS>
-0.92

> <JCHEM_MDDR_LIKE_RULE>
0

> <JCHEM_NEUTRAL_CHARGE>
1

> <JCHEM_NUMBER_OF_RINGS>
1

> <JCHEM_PHYSIOLOGICAL_CHARGE>
1

> <JCHEM_PKA_STRONGEST_BASIC>
9.295499951965768

> <JCHEM_POLAR_SURFACE_AREA>
38.379999999999995

> <JCHEM_REFRACTIVITY>
27.695300000000003

> <JCHEM_ROTATABLE_BOND_COUNT>
0

> <JCHEM_RULE_OF_FIVE>
1

> <ALOGPS_SOLUBILITY>
1.22e+01 g/l

> <JCHEM_TRADITIONAL_IUPAC>
tetrahydrofolic acid

> <JCHEM_VEBER_RULE>
1

> <DRUGBANK_ID>
DB02335

> <SECONDARY_ACCESSION_NUMBERS>
EXPT00587

> <DRUG_GROUPS>
experimental

> <GENERIC_NAME>
2-Aminothiazoline

$$$$
