
  Mrv0541 05031419352D          

 38 42  0  0  1  0            999 V2000
   -6.2853    3.6889    0.0000 C   0  0  0  0  0  0  0  0  0  0  0  0
   -6.3715    2.8685    0.0000 C   0  0  0  0  0  0  0  0  0  0  0  0
   -5.5316    4.0245    0.0000 C   0  0  0  0  0  0  0  0  0  0  0  0
    3.3523    1.1104    0.0000 C   0  0  0  0  0  0  0  0  0  0  0  0
    3.3523    1.9354    0.0000 C   0  0  0  0  0  0  0  0  0  0  0  0
   -5.7041    2.3835    0.0000 C   0  0  0  0  0  0  0  0  0  0  0  0
   -4.8642    3.5396    0.0000 C   0  0  0  0  0  0  0  0  0  0  0  0
    2.6378    0.6979    0.0000 C   0  0  0  0  0  0  0  0  0  0  0  0
    2.6378    2.3479    0.0000 C   0  0  0  0  0  0  0  0  0  0  0  0
   -5.1229    1.0781    0.0000 C   0  0  0  0  0  0  0  0  0  0  0  0
   -1.4407    1.1104    0.0000 C   0  0  0  0  0  0  0  0  0  0  0  0
   -4.3692    1.4137    0.0000 C   0  0  0  0  0  0  0  0  0  0  0  0
   -0.6561    0.8555    0.0000 C   0  0  0  0  0  0  0  0  0  0  0  0
   -4.2830    2.2342    0.0000 C   0  0  0  0  0  0  0  0  0  0  0  0
    1.1387    0.8555    0.0000 C   0  0  0  0  0  0  0  0  0  0  0  0
   -4.5417   -0.2273    0.0000 C   0  0  0  0  0  0  0  0  0  0  0  0
   -2.1082    2.4204    0.0000 C   0  0  0  0  0  0  0  0  0  0  0  0
   -4.9504    2.7191    0.0000 C   0  0  0  0  0  0  0  0  0  0  0  0
    1.9233    1.1104    0.0000 C   0  0  0  0  0  0  0  0  0  0  0  0
   -5.2091    0.2577    0.0000 C   0  0  0  0  0  0  0  0  0  0  0  0
   -1.4407    1.9354    0.0000 C   0  0  0  0  0  0  0  0  0  0  0  0
   -3.7018    0.9288    0.0000 C   0  0  0  0  0  0  0  0  0  0  0  0
   -3.7880    0.1083    0.0000 C   0  0  0  0  0  0  0  0  0  0  0  0
   -3.5293    2.5697    0.0000 C   0  0  1  0  0  0  0  0  0  0  0  0
    1.9233    1.9354    0.0000 C   0  0  0  0  0  0  0  0  0  0  0  0
    0.6538    1.5229    0.0000 C   0  0  0  0  0  0  0  0  0  0  0  0
   -0.1712    1.5229    0.0000 C   0  0  0  0  0  0  0  0  0  0  0  0
   -2.9481    1.2643    0.0000 C   0  0  0  0  0  0  0  0  0  0  0  0
   -3.4431    3.3902    0.0000 C   0  0  0  0  0  0  0  0  0  0  0  0
   -5.9628   -0.0779    0.0000 Cl  0  0  0  0  0  0  0  0  0  0  0  0
   -3.1206   -0.3766    0.0000 Cl  0  0  0  0  0  0  0  0  0  0  0  0
   -2.8619    2.0848    0.0000 N   0  0  0  0  0  0  0  0  0  0  0  0
   -2.2807    0.7794    0.0000 O   0  0  0  0  0  0  0  0  0  0  0  0
   -4.1105    3.8751    0.0000 O   0  0  0  0  0  0  0  0  0  0  0  0
   -2.6894    3.7258    0.0000 O   0  0  0  0  0  0  0  0  0  0  0  0
    1.1387    2.1904    0.0000 O   0  0  0  0  0  0  0  0  0  0  0  0
   -0.6561    2.1904    0.0000 S   0  0  0  0  0  0  0  0  0  0  0  0
   -4.1967    3.0547    0.0000 H   0  0  0  0  0  0  0  0  0  0  0  0
  2  1  2  0  0  0  0
  3  1  1  0  0  0  0
  5  4  2  0  0  0  0
  6  2  1  0  0  0  0
  7  3  2  0  0  0  0
  8  4  1  0  0  0  0
  9  5  1  0  0  0  0
 12 10  2  0  0  0  0
 13 11  1  0  0  0  0
 18  6  2  0  0  0  0
 18  7  1  0  0  0  0
 18 14  1  0  0  0  0
 19  8  2  0  0  0  0
 19 15  1  0  0  0  0
 20 10  1  0  0  0  0
 20 16  2  0  0  0  0
 21 11  2  0  0  0  0
 21 17  1  0  0  0  0
 22 12  1  0  0  0  0
 23 16  1  0  0  0  0
 23 22  2  0  0  0  0
 24 14  1  0  0  0  0
 25  9  2  0  0  0  0
 25 19  1  0  0  0  0
 26 15  2  0  0  0  0
 27 13  2  0  0  0  0
 27 26  1  0  0  0  0
 28 22  1  0  0  0  0
 29 24  1  0  0  0  0
 30 20  1  0  0  0  0
 31 23  1  0  0  0  0
 32 17  1  0  0  0  0
 24 32  1  6  0  0  0
 32 28  1  0  0  0  0
 33 28  2  0  0  0  0
 34 29  2  0  0  0  0
 35 29  1  0  0  0  0
 36 25  1  0  0  0  0
 36 26  1  0  0  0  0
 37 21  1  0  0  0  0
 37 27  1  0  0  0  0
 24 38  1  6  0  0  0
M  END
> <DATABASE_ID>
DB02331

> <DATABASE_NAME>
drugbank

> <SMILES>
[H][C@@](CC1=CC=CC=C1)(N(CC1=CC=C(S1)C1=CC2=CC=CC=C2O1)C(=O)C1=C(Cl)C=C(Cl)C=C1)C(O)=O

> <INCHI_IDENTIFIER>
InChI=1S/C29H21Cl2NO4S/c30-20-10-12-22(23(31)16-20)28(33)32(24(29(34)35)14-18-6-2-1-3-7-18)17-21-11-13-27(37-21)26-15-19-8-4-5-9-25(19)36-26/h1-13,15-16,24H,14,17H2,(H,34,35)/t24-/m0/s1

> <INCHI_KEY>
YBULOUKTPCHXAL-DEOSSOPVSA-N

> <FORMULA>
C29H21Cl2NO4S

> <MOLECULAR_WEIGHT>
550.452

> <EXACT_MASS>
549.056834269

> <JCHEM_ACCEPTOR_COUNT>
3

> <JCHEM_ATOM_COUNT>
58

> <JCHEM_AVERAGE_NEUTRAL_MICROSPECIES_CHARGE>
-0.9974042483906497

> <JCHEM_AVERAGE_POLARIZABILITY>
56.033465541494806

> <JCHEM_BIOAVAILABILITY>
0

> <JCHEM_DONOR_COUNT>
1

> <JCHEM_FORMAL_CHARGE>
0

> <JCHEM_GHOSE_FILTER>
0

> <JCHEM_IUPAC>
(2S)-2-(N-{[5-(1-benzofuran-2-yl)thiophen-2-yl]methyl}-1-(2,4-dichlorophenyl)formamido)-3-phenylpropanoic acid

> <ALOGPS_LOGP>
6.50

> <JCHEM_LOGP>
7.542811976000001

> <ALOGPS_LOGS>
-5.33

> <JCHEM_MDDR_LIKE_RULE>
1

> <JCHEM_NEUTRAL_CHARGE>
-1

> <JCHEM_NUMBER_OF_RINGS>
5

> <JCHEM_PHYSIOLOGICAL_CHARGE>
-1

> <JCHEM_PKA_STRONGEST_ACIDIC>
4.41539204654917

> <JCHEM_PKA_STRONGEST_BASIC>
-2.0232988439527833

> <JCHEM_POLAR_SURFACE_AREA>
70.75

> <JCHEM_REFRACTIVITY>
144.87830000000002

> <JCHEM_ROTATABLE_BOND_COUNT>
8

> <JCHEM_RULE_OF_FIVE>
0

> <ALOGPS_SOLUBILITY>
2.55e-03 g/l

> <JCHEM_TRADITIONAL_IUPAC>
biotin

> <JCHEM_VEBER_RULE>
0

> <DRUGBANK_ID>
DB02331

> <SECONDARY_ACCESSION_NUMBERS>
EXPT00040

> <DRUG_GROUPS>
experimental

> <GENERIC_NAME>
(2s)-2-[(5-Benzofuran-2-Yl-Thiophen-2-Ylmethyl)-(2,4-Dichloro-Benzoyl)-Amino]-3-Phenyl-Propionic Acid

$$$$
