
  Mrv0541 02231217092D          

 12 12  0  0  1  0            999 V2000
    2.1434    1.2375    0.0000 N   0  0  0  0  0  0  0  0  0  0  0  0
    1.4289    0.8250    0.0000 C   0  0  1  0  0  0  0  0  0  0  0  0
    1.4289    0.0000    0.0000 C   0  0  0  0  0  0  0  0  0  0  0  0
    0.7145   -0.4125    0.0000 C   0  0  0  0  0  0  0  0  0  0  0  0
    0.0000    0.0000    0.0000 C   0  0  0  0  0  0  0  0  0  0  0  0
    0.0000    0.8250    0.0000 C   0  0  1  0  0  0  0  0  0  0  0  0
   -0.7145    1.2375    0.0000 O   0  0  0  0  0  0  0  0  0  0  0  0
    0.7145    1.2375    0.0000 C   0  0  2  0  0  0  0  0  0  0  0  0
    0.7145    2.0625    0.0000 O   0  0  0  0  0  0  0  0  0  0  0  0
    0.7145   -1.2375    0.0000 C   0  0  0  0  0  0  0  0  0  0  0  0
    1.4289   -1.6500    0.0000 O   0  5  0  0  0  0  0  0  0  0  0  0
    0.0000   -1.6500    0.0000 O   0  0  0  0  0  0  0  0  0  0  0  0
  2  1  1  1  0  0  0
  2  3  1  0  0  0  0
  3  4  2  0  0  0  0
  4  5  1  0  0  0  0
  5  6  1  0  0  0  0
  6  7  1  1  0  0  0
  6  8  1  0  0  0  0
  2  8  1  0  0  0  0
  8  9  1  6  0  0  0
  4 10  1  0  0  0  0
 10 11  1  0  0  0  0
 10 12  2  0  0  0  0
M  CHG  1  11  -1
M  END
> <DATABASE_ID>
DB03746

> <DATABASE_NAME>
drugbank

> <SMILES>
N[C@H]1C=C(C[C@@H](O)[C@@H]1O)C([O-])=O

> <INCHI_IDENTIFIER>
InChI=1S/C7H11NO4/c8-4-1-3(7(11)12)2-5(9)6(4)10/h1,4-6,9-10H,2,8H2,(H,11,12)/p-1/t4-,5+,6+/m0/s1

> <INCHI_KEY>
WPZSUTUAATWRPU-KVQBGUIXSA-M

> <FORMULA>
C7H10NO4

> <MOLECULAR_WEIGHT>
172.1586

> <EXACT_MASS>
172.060982813

> <JCHEM_ACCEPTOR_COUNT>
5

> <JCHEM_ATOM_COUNT>
22

> <JCHEM_AVERAGE_NEUTRAL_MICROSPECIES_CHARGE>
-0.010522479152144083

> <JCHEM_AVERAGE_POLARIZABILITY>
15.905305444205823

> <JCHEM_BIOAVAILABILITY>
1

> <JCHEM_DONOR_COUNT>
3

> <JCHEM_FORMAL_CHARGE>
-1

> <JCHEM_GHOSE_FILTER>
0

> <JCHEM_IUPAC>
(3S,4R,5R)-3-amino-4,5-dihydroxycyclohex-1-ene-1-carboxylate

> <ALOGPS_LOGP>
-1.88

> <JCHEM_LOGP>
-4.011692590067242

> <ALOGPS_LOGS>
0.30

> <JCHEM_MDDR_LIKE_RULE>
0

> <JCHEM_NEUTRAL_CHARGE>
0

> <JCHEM_NUMBER_OF_RINGS>
1

> <JCHEM_PHYSIOLOGICAL_CHARGE>
0

> <JCHEM_PKA>
13.446118789677591

> <JCHEM_PKA_STRONGEST_ACIDIC>
3.807620575227046

> <JCHEM_PKA_STRONGEST_BASIC>
8.922899890271772

> <JCHEM_POLAR_SURFACE_AREA>
106.61000000000001

> <JCHEM_REFRACTIVITY>
51.4549

> <JCHEM_ROTATABLE_BOND_COUNT>
1

> <JCHEM_RULE_OF_FIVE>
1

> <ALOGPS_SOLUBILITY>
3.81e+02 g/l

> <JCHEM_TRADITIONAL_IUPAC>
tetrahydrofolic acid

> <JCHEM_VEBER_RULE>
0

> <DRUGBANK_ID>
DB03746

> <SECONDARY_ACCESSION_NUMBERS>
EXPT01198

> <DRUG_GROUPS>
experimental

> <GENERIC_NAME>
3-Amino-4,5-Dihydroxy-Cyclohex-1-Enecarboxylate

$$$$
