
  Mrv0541 02231217162D          

  6  5  0  0  0  0            999 V2000
    0.8250    1.4289    0.0000 O   0  0  0  0  0  0  0  0  0  0  0  0
    1.2375    0.7145    0.0000 C   0  0  0  0  0  0  0  0  0  0  0  0
    2.0625    0.7145    0.0000 O   0  0  0  0  0  0  0  0  0  0  0  0
    0.8250    0.0000    0.0000 C   0  0  0  0  0  0  0  0  0  0  0  0
    1.2375   -0.7145    0.0000 O   0  0  0  0  0  0  0  0  0  0  0  0
    0.0000    0.0000    0.0000 O   0  0  0  0  0  0  0  0  0  0  0  0
  1  2  1  0  0  0  0
  2  3  2  0  0  0  0
  2  4  1  0  0  0  0
  4  5  1  0  0  0  0
  4  6  2  0  0  0  0
M  END
> <DATABASE_ID>
DB03902

> <DATABASE_NAME>
drugbank

> <SMILES>
OC(=O)C(O)=O

> <INCHI_IDENTIFIER>
InChI=1S/C2H2O4/c3-1(4)2(5)6/h(H,3,4)(H,5,6)

> <INCHI_KEY>
MUBZPKHOEPUJKR-UHFFFAOYSA-N

> <FORMULA>
C2H2O4

> <MOLECULAR_WEIGHT>
90.0349

> <EXACT_MASS>
89.995308552

> <JCHEM_ACCEPTOR_COUNT>
4

> <JCHEM_ATOM_COUNT>
8

> <JCHEM_AVERAGE_NEUTRAL_MICROSPECIES_CHARGE>
-1.9993536474726274

> <JCHEM_AVERAGE_POLARIZABILITY>
6.229225106793849

> <JCHEM_BIOAVAILABILITY>
1

> <JCHEM_DONOR_COUNT>
2

> <JCHEM_FORMAL_CHARGE>
0

> <JCHEM_GHOSE_FILTER>
0

> <JCHEM_IUPAC>
oxalic acid

> <ALOGPS_LOGP>
-0.51

> <JCHEM_LOGP>
-0.2637515693333333

> <ALOGPS_LOGS>
-0.14

> <JCHEM_MDDR_LIKE_RULE>
0

> <JCHEM_NEUTRAL_CHARGE>
-2

> <JCHEM_NUMBER_OF_RINGS>
0

> <JCHEM_PHYSIOLOGICAL_CHARGE>
-2

> <JCHEM_PKA>
4.110222978861222

> <JCHEM_PKA_STRONGEST_ACIDIC>
1.3639908147001307

> <JCHEM_POLAR_SURFACE_AREA>
74.6

> <JCHEM_REFRACTIVITY>
14.4386

> <JCHEM_ROTATABLE_BOND_COUNT>
1

> <JCHEM_RULE_OF_FIVE>
1

> <ALOGPS_SOLUBILITY>
6.57e+01 g/l

> <JCHEM_TRADITIONAL_IUPAC>
biotin

> <JCHEM_VEBER_RULE>
0

> <DRUGBANK_ID>
DB03902

> <SECONDARY_ACCESSION_NUMBERS>
EXPT02457; DB02737

> <DRUG_GROUPS>
experimental

> <GENERIC_NAME>
Oxalic Acid

$$$$
