
  Mrv0541 05041400502D          

 14 14  0  0  1  0            999 V2000
    0.5678    1.9393    0.0000 C   0  0  0  0  0  0  0  0  0  0  0  0
    1.2352    0.6294    0.0000 C   0  0  0  0  0  0  0  0  0  0  0  0
    0.5678    1.1143    0.0000 C   0  0  2  0  0  0  0  0  0  0  0  0
    0.9803   -0.1553    0.0000 C   0  0  2  0  0  0  0  0  0  0  0  0
   -0.0997    0.6294    0.0000 C   0  0  2  0  0  0  0  0  0  0  0  0
   -0.8843    0.8843    0.0000 C   0  0  0  0  0  0  0  0  0  0  0  0
    0.1553   -0.1553    0.0000 N   0  0  0  0  0  0  0  0  0  0  0  0
    1.4652   -0.8227    0.0000 N   0  0  0  0  0  0  0  0  0  0  0  0
   -1.0558    1.6913    0.0000 O   0  0  0  0  0  0  0  0  0  0  0  0
   -1.4974    0.3323    0.0000 O   0  0  0  0  0  0  0  0  0  0  0  0
    2.2857   -0.7365    0.0000 O   0  0  0  0  0  0  0  0  0  0  0  0
    1.3028    1.4888    0.0000 H   0  0  0  0  0  0  0  0  0  0  0  0
    1.7951   -0.0262    0.0000 H   0  0  0  0  0  0  0  0  0  0  0  0
   -0.2287    1.4442    0.0000 H   0  0  0  0  0  0  0  0  0  0  0  0
  3  1  1  6  0  0  0
  3  2  1  0  0  0  0
  4  2  1  0  0  0  0
  5  3  1  0  0  0  0
  5  6  1  1  0  0  0
  7  4  1  0  0  0  0
  7  5  1  0  0  0  0
  4  8  1  1  0  0  0
  9  6  2  0  0  0  0
 10  6  1  0  0  0  0
 11  8  1  0  0  0  0
  3 12  1  1  0  0  0
  4 13  1  6  0  0  0
  5 14  1  6  0  0  0
M  END
> <DATABASE_ID>
DB02298

> <DATABASE_NAME>
drugbank

> <SMILES>
[H][C@@]1(C)C[C@@]([H])(NO)N[C@@]1([H])C(O)=O

> <INCHI_IDENTIFIER>
InChI=1S/C6H12N2O3/c1-3-2-4(8-11)7-5(3)6(9)10/h3-5,7-8,11H,2H2,1H3,(H,9,10)/t3-,4-,5-/m1/s1

> <INCHI_KEY>
PEFGUPQPFCDBPY-UOWFLXDJSA-N

> <FORMULA>
C6H12N2O3

> <MOLECULAR_WEIGHT>
160.1711

> <EXACT_MASS>
160.08479226

> <JCHEM_ACCEPTOR_COUNT>
5

> <JCHEM_ATOM_COUNT>
23

> <JCHEM_AVERAGE_NEUTRAL_MICROSPECIES_CHARGE>
-0.030829762951302516

> <JCHEM_AVERAGE_POLARIZABILITY>
15.534565118242394

> <JCHEM_BIOAVAILABILITY>
1

> <JCHEM_DONOR_COUNT>
4

> <JCHEM_FORMAL_CHARGE>
0

> <JCHEM_GHOSE_FILTER>
0

> <JCHEM_IUPAC>
(2R,3R,5R)-5-(hydroxyamino)-3-methylpyrrolidine-2-carboxylic acid

> <ALOGPS_LOGP>
-3.06

> <JCHEM_LOGP>
-2.7159042675959046

> <ALOGPS_LOGS>
-0.72

> <JCHEM_MDDR_LIKE_RULE>
0

> <JCHEM_NEUTRAL_CHARGE>
0

> <JCHEM_NUMBER_OF_RINGS>
1

> <JCHEM_PHYSIOLOGICAL_CHARGE>
0

> <JCHEM_PKA>
15.544358966515219

> <JCHEM_PKA_STRONGEST_ACIDIC>
3.0969719528570994

> <JCHEM_PKA_STRONGEST_BASIC>
7.324065320754432

> <JCHEM_POLAR_SURFACE_AREA>
81.59

> <JCHEM_REFRACTIVITY>
47.5911

> <JCHEM_ROTATABLE_BOND_COUNT>
2

> <JCHEM_RULE_OF_FIVE>
1

> <ALOGPS_SOLUBILITY>
3.04e+01 g/l

> <JCHEM_TRADITIONAL_IUPAC>
biotin

> <JCHEM_VEBER_RULE>
0

> <DRUGBANK_ID>
DB02298

> <SECONDARY_ACCESSION_NUMBERS>
EXPT00683

> <DRUG_GROUPS>
experimental

> <GENERIC_NAME>
5-Hydroxyamino-3-Methyl-Pyrrolidine-2-Carboxylic Acid

$$$$
