
  Mrv0541 02231216542D          

  9  8  0  0  0  0            999 V2000
   -0.1914   -0.7145    0.0000 O   0  0  0  0  0  0  0  0  0  0  0  0
    0.5230   -1.1270    0.0000 C   0  0  0  0  0  0  0  0  0  0  0  0
    0.5230   -1.9520    0.0000 O   0  0  0  0  0  0  0  0  0  0  0  0
    1.2375   -0.7145    0.0000 C   0  0  0  0  0  0  0  0  0  0  0  0
    1.9520   -1.1270    0.0000 C   0  0  0  0  0  0  0  0  0  0  0  0
    2.6664   -0.7145    0.0000 P   0  0  0  0  0  0  0  0  0  0  0  0
    3.3809   -0.3020    0.0000 O   0  0  0  0  0  0  0  0  0  0  0  0
    3.0789   -1.4289    0.0000 O   0  0  0  0  0  0  0  0  0  0  0  0
    2.2539    0.0000    0.0000 O   0  0  0  0  0  0  0  0  0  0  0  0
  1  2  1  0  0  0  0
  2  3  2  0  0  0  0
  2  4  1  0  0  0  0
  4  5  1  0  0  0  0
  5  6  1  0  0  0  0
  6  7  1  0  0  0  0
  6  8  1  0  0  0  0
  6  9  2  0  0  0  0
M  END
> <DATABASE_ID>
DB03379

> <DATABASE_NAME>
drugbank

> <SMILES>
OC(=O)CCP(O)(O)=O

> <INCHI_IDENTIFIER>
InChI=1S/C3H7O5P/c4-3(5)1-2-9(6,7)8/h1-2H2,(H,4,5)(H2,6,7,8)

> <INCHI_KEY>
NLBSQHGCGGFVJW-UHFFFAOYSA-N

> <FORMULA>
C3H7O5P

> <MOLECULAR_WEIGHT>
154.0584

> <EXACT_MASS>
154.003109846

> <JCHEM_ACCEPTOR_COUNT>
5

> <JCHEM_ATOM_COUNT>
16

> <JCHEM_AVERAGE_NEUTRAL_MICROSPECIES_CHARGE>
-2.08920775937594

> <JCHEM_AVERAGE_POLARIZABILITY>
11.811930141474031

> <JCHEM_BIOAVAILABILITY>
1

> <JCHEM_DONOR_COUNT>
3

> <JCHEM_FORMAL_CHARGE>
0

> <JCHEM_GHOSE_FILTER>
0

> <JCHEM_IUPAC>
3-phosphonopropanoic acid

> <ALOGPS_LOGP>
-2.46

> <JCHEM_LOGP>
-1.4632385129999999

> <ALOGPS_LOGS>
-0.75

> <JCHEM_MDDR_LIKE_RULE>
0

> <JCHEM_NEUTRAL_CHARGE>
-2

> <JCHEM_NUMBER_OF_RINGS>
0

> <JCHEM_PHYSIOLOGICAL_CHARGE>
-2

> <JCHEM_PKA>
4.390324231050637

> <JCHEM_PKA_STRONGEST_ACIDIC>
1.799974897993135

> <JCHEM_POLAR_SURFACE_AREA>
94.83000000000001

> <JCHEM_REFRACTIVITY>
28.0858

> <JCHEM_ROTATABLE_BOND_COUNT>
3

> <JCHEM_RULE_OF_FIVE>
1

> <ALOGPS_SOLUBILITY>
2.74e+01 g/l

> <JCHEM_TRADITIONAL_IUPAC>
tetrahydrofolic acid

> <JCHEM_VEBER_RULE>
0

> <DRUGBANK_ID>
DB03379

> <SECONDARY_ACCESSION_NUMBERS>
EXPT00189

> <DRUG_GROUPS>
experimental

> <GENERIC_NAME>
2-Carboxyethylphosphonic Acid

$$$$
