
  Mrv0541 02231218002D          

 18 19  0  0  0  0            999 V2000
    3.7935    0.9644    0.0000 O   0  0  0  0  0  0  0  0  0  0  0  0
    9.2617   -0.5750    0.0000 O   0  0  0  0  0  0  0  0  0  0  0  0
    8.0241   -1.2896    0.0000 O   0  0  0  0  0  0  0  0  0  0  0  0
    6.7176    0.8033    0.0000 N   0  0  0  0  0  0  0  0  0  0  0  0
    6.7176   -0.5245    0.0000 N   0  0  0  0  0  0  0  0  0  0  0  0
    8.0241    0.1394    0.0000 N   0  0  0  0  0  0  0  0  0  0  0  0
    5.9370    0.5519    0.0000 C   0  0  0  0  0  0  0  0  0  0  0  0
    5.9370   -0.2731    0.0000 C   0  0  0  0  0  0  0  0  0  0  0  0
    4.5080    0.5519    0.0000 C   0  0  0  0  0  0  0  0  0  0  0  0
    5.2224    0.9644    0.0000 C   0  0  0  0  0  0  0  0  0  0  0  0
    5.2224   -0.6856    0.0000 C   0  0  0  0  0  0  0  0  0  0  0  0
    7.1991    0.1394    0.0000 C   0  0  0  0  0  0  0  0  0  0  0  0
    3.0791    0.5519    0.0000 C   0  0  0  0  0  0  0  0  0  0  0  0
    4.5080   -0.2731    0.0000 C   0  0  0  0  0  0  0  0  0  0  0  0
    2.3645    0.9644    0.0000 C   0  0  0  0  0  0  0  0  0  0  0  0
    1.6500    0.5519    0.0000 C   0  0  0  0  0  0  0  0  0  0  0  0
    8.4366   -0.5750    0.0000 C   0  0  0  0  0  0  0  0  0  0  0  0
    9.6742   -1.2896    0.0000 C   0  0  0  0  0  0  0  0  0  0  0  0
  1  9  1  0  0  0  0
  1 13  1  0  0  0  0
  2 17  1  0  0  0  0
  2 18  1  0  0  0  0
  3 17  2  0  0  0  0
  4  7  1  0  0  0  0
  4 12  1  0  0  0  0
  5  8  1  0  0  0  0
  5 12  2  0  0  0  0
  6 12  1  0  0  0  0
  6 17  1  0  0  0  0
  7  8  2  0  0  0  0
  7 10  1  0  0  0  0
  8 11  1  0  0  0  0
  9 10  2  0  0  0  0
  9 14  1  0  0  0  0
 11 14  2  0  0  0  0
 13 15  1  0  0  0  0
 15 16  1  0  0  0  0
M  END
> <DATABASE_ID>
DB04910

> <DATABASE_NAME>
drugbank

> <SMILES>
CCCOC1=CC2=C(C=C1)N=C(NC(=O)OC)N2

> <INCHI_IDENTIFIER>
InChI=1S/C12H15N3O3/c1-3-6-18-8-4-5-9-10(7-8)14-11(13-9)15-12(16)17-2/h4-5,7H,3,6H2,1-2H3,(H2,13,14,15,16)

> <INCHI_KEY>
RAOCRURYZCVHMG-UHFFFAOYSA-N

> <FORMULA>
C12H15N3O3

> <MOLECULAR_WEIGHT>
249.2658

> <EXACT_MASS>
249.111341361

> <JCHEM_ACCEPTOR_COUNT>
4

> <JCHEM_ATOM_COUNT>
33

> <JCHEM_AVERAGE_NEUTRAL_MICROSPECIES_CHARGE>
0.0013365325859504757

> <JCHEM_AVERAGE_POLARIZABILITY>
26.976159801145588

> <JCHEM_BIOAVAILABILITY>
1

> <JCHEM_DONOR_COUNT>
2

> <JCHEM_FORMAL_CHARGE>
0

> <JCHEM_GHOSE_FILTER>
1

> <JCHEM_IUPAC>
methyl N-(6-propoxy-1H-1,3-benzodiazol-2-yl)carbamate

> <ALOGPS_LOGP>
2.07

> <JCHEM_LOGP>
2.522414591333333

> <ALOGPS_LOGS>
-2.86

> <JCHEM_MDDR_LIKE_RULE>
0

> <JCHEM_NEUTRAL_CHARGE>
0

> <JCHEM_NUMBER_OF_RINGS>
2

> <JCHEM_PHYSIOLOGICAL_CHARGE>
0

> <JCHEM_PKA>
13.946391006014558

> <JCHEM_PKA_STRONGEST_ACIDIC>
9.644972089169237

> <JCHEM_PKA_STRONGEST_BASIC>
4.5574244372555786

> <JCHEM_POLAR_SURFACE_AREA>
76.24000000000001

> <JCHEM_REFRACTIVITY>
66.6642

> <JCHEM_ROTATABLE_BOND_COUNT>
5

> <JCHEM_RULE_OF_FIVE>
1

> <ALOGPS_SOLUBILITY>
3.47e-01 g/l

> <JCHEM_TRADITIONAL_IUPAC>
tetrahydrofolic acid

> <JCHEM_VEBER_RULE>
0

> <DRUGBANK_ID>
DB04910

> <DRUG_GROUPS>
investigational; vet_approved

> <GENERIC_NAME>
Oxibendazole

> <SYNONYMS>
5-Propoxy-2-benzimidazolecarbamic acid methyl ester; Methyl 5-n-propoxy-2-benzimidazole carbamate; Methyl 5-propoxy-2-benzimidazolecarbamate; Oxibendazole; Oxibendazolo; Oxibendazolum

$$$$
