
  Mrv0541 02241212492D          

  2  0  0  0  0  0            999 V2000
    0.0000    0.0000    0.0000 K   0  3  0  0  0  0  0  0  0  0  0  0
    0.8839    0.0000    0.0000 I   0  5  0  0  0  0  0  0  0  0  0  0
M  CHG  2   1   1   2  -1
M  END
> <DATABASE_ID>
DB06715

> <DATABASE_NAME>
drugbank

> <SMILES>
[K+].[I-]

> <INCHI_IDENTIFIER>
InChI=1S/HI.K/h1H;/q;+1/p-1

> <INCHI_KEY>
NLKNQRATVPKPDG-UHFFFAOYSA-M

> <FORMULA>
IK

> <MOLECULAR_WEIGHT>
166.0028

> <EXACT_MASS>
165.868175281

> <JCHEM_ACCEPTOR_COUNT>
0

> <JCHEM_ATOM_COUNT>
2

> <JCHEM_AVERAGE_NEUTRAL_MICROSPECIES_CHARGE>
1.0

> <JCHEM_AVERAGE_POLARIZABILITY>
1.7784

> <JCHEM_BIOAVAILABILITY>
1

> <JCHEM_DONOR_COUNT>
0

> <JCHEM_FORMAL_CHARGE>
0

> <JCHEM_GHOSE_FILTER>
0

> <JCHEM_IUPAC>
potassium iodide

> <JCHEM_LOGP>
0.2

> <JCHEM_MDDR_LIKE_RULE>
0

> <JCHEM_NEUTRAL_CHARGE>
1

> <JCHEM_NUMBER_OF_RINGS>
0

> <JCHEM_PHYSIOLOGICAL_CHARGE>
1

> <JCHEM_PKA>
3.55

> <JCHEM_PKA_STRONGEST_ACIDIC>
3.09

> <JCHEM_POLAR_SURFACE_AREA>
0.0

> <JCHEM_REFRACTIVITY>
0.0

> <JCHEM_ROTATABLE_BOND_COUNT>
0

> <JCHEM_RULE_OF_FIVE>
1

> <JCHEM_TRADITIONAL_IUPAC>
tetrahydrofolic acid

> <JCHEM_VEBER_RULE>
1

> <DRUGBANK_ID>
DB06715

> <DRUG_GROUPS>
approved

> <GENERIC_NAME>
Potassium Iodide

> <SYNONYMS>
Kaliumiodid; KI; Potasio ioduro; Potassium Iodide

> <PRODUCTS>
24 Multivitamins + Minerals; 50 Plus Multiple Vitamins & Minerals; Abavite; Addamel N; Addnutriv; Amerix Multivitamin; Avon Vitadvance Multi-kids Complete; AzesChew; Azesco; Bear Essentials; Body Rox; BumP DHA; C. Vit-min Formula; Card-floe II Tab; Cavan Heme OB; Cavan Prenatal; Central-vite 18 Essential; Century Complete; Chela Potassium Plus; Chewable Adult Multivitamins With Minerals; Chewable Children's Complete Multivitamins With Essential Minerals; Children's Chewable Multivitamin Complete With Minerals; Children's Chewable Multivitamin and Multimineral; Children's Chewable Tab; CitraNatal 90 DHA; CitraNatal DHA; CitraNatal Rx; Complete Multivitamins and Minerals Tablets Timed Release; Daily Energy Brand Vitamin & Mineral Drink Mix; Dayavite; Dexivite; Diodine; Earthpals Children's Chewables Multi-vitamin & Mineral Tablets; Enrich Core Pack - Children Vitamin and Mineral Supplement; Extra Once A Day; FolaGent DHA; FolaMax; FolaMed DHA; Foliflex; Folika-MG; Folitin-Z; Foltabs Prenatal; Foltabs Prenatal Plus DHA; Formula Fe-vitamin and Mineral Tab; Formula Hh; Fusion Activator Formula Tab; Gesticare DHA; Gynedyn Tab; Hemarexin Tab; HemeNatal OB; HemeNatal OB plus DHA; Herba Tone; High Potency Multivitamins & Minerals Caplets; Humco Strong Iodine; Humco Strong Iodine Tincture; Hypo Vites Tab; I D M Expectorant Tab; I.D.M. Solution; INATAL Ultra; Idm Tab; Innersource Tab; Iode-potassium; Iodine; Iodine Ctr Srt 300mg; Iodine Tab 0.5mg; Iodine Tct 2.5% BP; Iodine Tct 5% CF; Iodine Tincture 21/2%; Iodine-potassium Tablets; Iosat; Iron Polysaccharides Folic Acid DHA; Isotonix Multitech Vitamin Mineral Supplemen; Jenliva; K.L. Vitamin-mineral; Kanga-V Multivitamins & Minerals; L-Methyl PNV DHA; Leep RediKit; Lugols Strong Iodine; Luna Vitamin and Mineral Bar for Women; M.T.E.-6 Concentrated; Materna; Materna - Tab; Materna-tab; Mathieu Cough Syrup; Maximum Once A Day; Maxum Multi-vite; Mega Min Capsules; Mega Vitaminerals; Men's Biomultiple Vitamin and Mineral Supplement; Metrate; Mgk; Milltrium Senior Vitamin and Mineral Supplement; Mor-vites Tab; Multi #2; Multi Mins Liquid; Multi Spectrum - Tablet; Multi Tabs; Multi Vitamin - Mineral; Multi Vitamin-mineral Formula; Multi-force for Women Tab; Multi-mins Minerals; Multi-phyto Capsules; Multicaps; Multimineral Tablets; Multiple Vitamin Plus Minerals Tab; Multiple Vitamins With Minerals Tablets; Multiple Vitamins and Minerals; Multiple Vitamins and Minerals Capsules; Multiple Vitamins and Minerals Tab; Multitabs; Multivitamines Et Mineraux; Multivitamines Et Mineraux Reguliers / Regular Multivitamins and Minerals; Multivitamins W Minerals Extra Strength; Multivitamins and Minerals - Complete; Multivitamins and Minerals Tablets; Multivitamins and Minerals With Betacarotene Tablets; Multivitamins and Minerals for Men; Multivitamins and Minerals for Women; Multivitamins and Minerals for Young Men; Multivitamins and Minerals for Young Women; Multivitamins and Multiminerals Formula Regular Tablet; NEONATAL Complete; NESTABS ABC Prenatal Multi-vitamin/Mineral Supplement with DHA/EPA; NESTABS DHA Prenatal Multi-vitamin/Mineral Supplement with DHA/EPA; NESTABS Prenatal Multi-vitamin/Mineral Supplement; Natal-V RX Multi-vitamin/Multi-mineral; Natalvirt 90dha; Natalvirt Ca; Natural Source Spectrum With Beta Carotene; Neonatal DHA; Nrg Plus Liq; Nutra-clear; Nutri-Tab OB; Nutri-Tab OB plus DHA; Nutrilite Double X; OB Complete Gold; Onccor; One A Day Advance Adults; One A Day Advance Adults 50+; One A Day Multiple Vit W Minerals; One Daily Vitamin and Mineral Dietary Supplement; One Per Day Vitamin and Mineral Dietary Supplement; One Tablet Daily Mens Formula; One-A-day Advance Men's; Only One - Tablet; Organic Minerals Tablet; PNV Tabs 20-1; PNV Tabs 29-1; PNV-First; PNV-Omega; PNV-Select; PRENATE Enhance; PSP Iodine tincture BP 2.5 first aid antiseptic; Paire OB Plus DHA; Palm Springs Multvit and Min Tab; Peditrace; Phytopure; Pnv Ob DHA; Potassium Iodide; Potassium Plus Vit B Complex; Pre-Tabs DHA Prenatal Multi-vitamin/Mineral Supplement with DHA/EPA; PreGen DHA; PreGenna; PreTAB; Prefera OB plus DHA; PreferaOB; PreferaOB ONE; PreferaOB One; PreferaOB plus DHA; Pregvit; Pregvit Folic 4; Pregvit Folic 5; Premium Prenatal; Premium Prenatal - Tablets; Prena1 Plus; Prenatabs FA; Prenatal Chelated Mineral; Prenatal Formula Tab; Prenatal Supplement - Tab; Prenatal Vitamin and Mineral Supplement; Prenatal Vitamin and Mineral Supplement -tab; Prenatal Vitamin and Mineral Supplement Tab; Prenatal Vitamins and Minerals Tablets; Prenatal and Post Partum Supplement; Prenatal, DHA; Prenate Elite; Prenate Essential; Prenate Mini; Prenate Pixie; Prenate Star; Prenatrix; Prenatryl; Pretrate; PrimaCare; ProFola; Prometa; Q.T. #4 Vitamin and Mineral Dietary Supplement; Q.T. Vitamin and Mineral Drink Mix; QKit Procedure Tray; RE Nata; RE Nata OB; Radiban; Ratio-theo-bronc; RayaVit; Re Ob 90 DHA; Revival 1 Tab; Ribotin-E; Se-Natal; Sels Mexicain; Senior Multi One; Spectrum 2 Cap; Spectrum Performa Multivitamins and Minerals Tablets; Sski; Strong Iodine Solution; Super Daily No 2; Super Kids Chewable Multivitamin Multimineral (chewable Tablets); TL-Folate; Tendera-OB; Theraplex F Tab 0.12mg; Thrivite Rx; ThyroSafe; ThyroShield; Thyroblock Tab 130mg; Tincture Of Iodine; Tincture Of Iodine 2.5%; Tincture Of Iodine 5%; Total Living Concepts Formula One - Tab; Totalvit Plus; Trace Minerals Et/and B12 Tab; TriStart DHA; TriStart ONE; Tricare Prenatal DHA One Rx Multivitamin; Tricare Prenatal DHA One With Folate; Trinatal Ultra; Trinaz; Ultimate OB DHA; Usana Multimineral Tablets; Usana Multimineral Tablets - Tab; V-Natal; VP-HEME One; Vc II; Vena-Bal DHA; Vinacal; Virt-PN; Virt-PN Plus; Virt-Pn; Virt-Tabs; Vita Plex Tab; Vitafol Fe Plus; Vitafol Ultra; Vitalife - Capsule; Vitamines Et Mineraux; Vitamines Et Mineraux Comprimes; Vitaplex; Vito Bronches Sirop; Vol-Tab Rx; Vp-heme Ob; Vp-heme Ob DHA; Vyo Cylate - Pwr; WestGel DHA; Women's Biomultiple Vitamin and Mineral Supplement; Women's Formula; Zalvit; Zatean-Pn; Zatean-Pn Plus; Zintrexyl-C; Ziphex; vitaMedMD Rx Plus

$$$$
