
  Mrv0541 05041401392D          

 12 12  0  0  1  0            999 V2000
   -0.7145   -0.4125    0.0000 C   0  0  0  0  0  0  0  0  0  0  0  0
    1.4289   -0.0000    0.0000 C   0  0  0  0  0  0  0  0  0  0  0  0
    1.4289    0.8250    0.0000 C   0  0  0  0  0  0  0  0  0  0  0  0
    0.0000   -0.0000    0.0000 C   0  0  2  0  0  0  0  0  0  0  0  0
    0.7145   -0.4125    0.0000 C   0  0  1  0  0  0  0  0  0  0  0  0
    0.7145    1.2375    0.0000 C   0  0  2  0  0  0  0  0  0  0  0  0
    0.7145   -1.2375    0.0000 O   0  0  0  0  0  0  0  0  0  0  0  0
    0.7145    2.0625    0.0000 O   0  0  0  0  0  0  0  0  0  0  0  0
    0.0000    0.8250    0.0000 O   0  0  0  0  0  0  0  0  0  0  0  0
    0.0000   -0.8250    0.0000 H   0  0  0  0  0  0  0  0  0  0  0  0
    1.4289   -0.8250    0.0000 H   0  0  0  0  0  0  0  0  0  0  0  0
    1.4289    1.6500    0.0000 H   0  0  0  0  0  0  0  0  0  0  0  0
  3  2  1  0  0  0  0
  4  1  1  1  0  0  0
  5  2  1  0  0  0  0
  5  4  1  0  0  0  0
  6  3  1  0  0  0  0
  5  7  1  6  0  0  0
  6  8  1  1  0  0  0
  9  4  1  0  0  0  0
  9  6  1  0  0  0  0
  4 10  1  6  0  0  0
  5 11  1  1  0  0  0
  6 12  1  6  0  0  0
M  END
> <DATABASE_ID>
DB03872

> <DATABASE_NAME>
drugbank

> <SMILES>
[H][C@]1(O)CC[C@]([H])(O)[C@@]([H])(C)O1

> <INCHI_IDENTIFIER>
InChI=1S/C6H12O3/c1-4-5(7)2-3-6(8)9-4/h4-8H,2-3H2,1H3/t4-,5+,6-/m1/s1

> <INCHI_KEY>
ZCYMCBOUZXAAJG-NGJCXOISSA-N

> <FORMULA>
C6H12O3

> <MOLECULAR_WEIGHT>
132.1577

> <EXACT_MASS>
132.07864425

> <JCHEM_ACCEPTOR_COUNT>
3

> <JCHEM_ATOM_COUNT>
21

> <JCHEM_AVERAGE_NEUTRAL_MICROSPECIES_CHARGE>
-3.5787956815883913e-06

> <JCHEM_AVERAGE_POLARIZABILITY>
13.702520694756718

> <JCHEM_BIOAVAILABILITY>
1

> <JCHEM_DONOR_COUNT>
2

> <JCHEM_FORMAL_CHARGE>
0

> <JCHEM_GHOSE_FILTER>
0

> <JCHEM_IUPAC>
(2R,5S,6R)-6-methyloxane-2,5-diol

> <ALOGPS_LOGP>
-0.58

> <JCHEM_LOGP>
-0.27633842333333325

> <ALOGPS_LOGS>
0.73

> <JCHEM_MDDR_LIKE_RULE>
0

> <JCHEM_NEUTRAL_CHARGE>
0

> <JCHEM_NUMBER_OF_RINGS>
1

> <JCHEM_PHYSIOLOGICAL_CHARGE>
0

> <JCHEM_PKA>
14.217756207302763

> <JCHEM_PKA_STRONGEST_ACIDIC>
12.453801140718507

> <JCHEM_PKA_STRONGEST_BASIC>
-3.1508365292833314

> <JCHEM_POLAR_SURFACE_AREA>
49.69

> <JCHEM_REFRACTIVITY>
32.0751

> <JCHEM_ROTATABLE_BOND_COUNT>
0

> <JCHEM_RULE_OF_FIVE>
1

> <ALOGPS_SOLUBILITY>
7.07e+02 g/l

> <JCHEM_TRADITIONAL_IUPAC>
tetrahydrofolic acid

> <JCHEM_VEBER_RULE>
0

> <DRUGBANK_ID>
DB03872

> <SECONDARY_ACCESSION_NUMBERS>
EXPT00876

> <DRUG_GROUPS>
experimental

> <GENERIC_NAME>
2,3-Dideoxyfucose

$$$$
