
  Mrv0541 02231217392D          

 20 20  0  0  1  0            999 V2000
    2.1434    1.2375    0.0000 O   0  0  0  0  0  0  0  0  0  0  0  0
    1.4289    0.8250    0.0000 C   0  0  2  0  0  0  0  0  0  0  0  0
    1.4289    0.0000    0.0000 C   0  0  1  0  0  0  0  0  0  0  0  0
    2.1434   -0.4125    0.0000 O   0  0  0  0  0  0  0  0  0  0  0  0
    0.7145   -0.4125    0.0000 C   0  0  2  0  0  0  0  0  0  0  0  0
    0.7145   -1.2375    0.0000 C   0  0  0  0  0  0  0  0  0  0  0  0
    1.4289   -1.6500    0.0000 O   0  0  0  0  0  0  0  0  0  0  0  0
    1.4289   -2.4750    0.0000 V   0  0  0  0  0  0  0  0  0  0  0  0
    1.4289   -3.3000    0.0000 O   0  0  0  0  0  0  0  0  0  0  0  0
    2.2539   -2.4750    0.0000 O   0  0  0  0  0  0  0  0  0  0  0  0
    0.6039   -2.4750    0.0000 O   0  0  0  0  0  0  0  0  0  0  0  0
    0.0000    0.0000    0.0000 O   0  0  0  0  0  0  0  0  0  0  0  0
    0.0000    0.8250    0.0000 C   0  0  2  0  0  0  0  0  0  0  0  0
   -0.7145    1.2375    0.0000 O   0  0  0  0  0  0  0  0  0  0  0  0
   -1.4289    0.8250    0.0000 P   0  0  0  0  0  0  0  0  0  0  0  0
   -2.1434    0.4125    0.0000 O   0  0  0  0  0  0  0  0  0  0  0  0
   -1.8414    1.5395    0.0000 O   0  0  0  0  0  0  0  0  0  0  0  0
   -1.0164    0.1105    0.0000 O   0  0  0  0  0  0  0  0  0  0  0  0
    0.7145    1.2375    0.0000 C   0  0  1  0  0  0  0  0  0  0  0  0
    0.7145    2.0625    0.0000 O   0  0  0  0  0  0  0  0  0  0  0  0
  2  1  1  6  0  0  0
  2  3  1  0  0  0  0
  3  4  1  1  0  0  0
  3  5  1  0  0  0  0
  5  6  1  6  0  0  0
  6  7  1  0  0  0  0
  7  8  1  0  0  0  0
  8  9  1  0  0  0  0
  8 10  2  0  0  0  0
  8 11  2  0  0  0  0
  5 12  1  0  0  0  0
 12 13  1  0  0  0  0
 13 14  1  6  0  0  0
 14 15  1  0  0  0  0
 15 16  1  0  0  0  0
 15 17  1  0  0  0  0
 15 18  2  0  0  0  0
 13 19  1  0  0  0  0
  2 19  1  0  0  0  0
 19 20  1  1  0  0  0
M  END
> <DATABASE_ID>
DB04397

> <DATABASE_NAME>
drugbank

> <SMILES>
O[C@@H]1[C@@H](O)[C@H](CO[V](O)(=O)=O)O[C@H](OP(O)(O)=O)[C@H]1O

> <INCHI_IDENTIFIER>
InChI=1S/C6H12O9P.H2O.2O.V/c7-1-2-3(8)4(9)5(10)6(14-2)15-16(11,12)13;;;;/h2-6,8-10H,1H2,(H2,11,12,13);1H2;;;/q-1;;;;+2/p-1/t2-,3-,4+,5-,6+;;;;/m0..../s1

> <INCHI_KEY>
SYRDAPWACIANBN-DPXSRCRQSA-M

> <FORMULA>
C6H13O12PV

> <MOLECULAR_WEIGHT>
359.0755

> <EXACT_MASS>
358.958426067

> <JCHEM_ACCEPTOR_COUNT>
10

> <JCHEM_ATOM_COUNT>
33

> <JCHEM_AVERAGE_NEUTRAL_MICROSPECIES_CHARGE>
-2.923563190311781

> <JCHEM_AVERAGE_POLARIZABILITY>
26.235751006986575

> <JCHEM_BIOAVAILABILITY>
0

> <JCHEM_DONOR_COUNT>
6

> <JCHEM_FORMAL_CHARGE>
0

> <JCHEM_GHOSE_FILTER>
0

> <JCHEM_IUPAC>
{[(2S,3R,4R,5S,6R)-3,4,5-trihydroxy-6-(phosphonooxy)oxan-2-yl]methoxy}vanadiumoylol

> <ALOGPS_LOGP>
-2.06

> <JCHEM_LOGP>
-5.922969287723073

> <ALOGPS_LOGS>
-1.59

> <JCHEM_MDDR_LIKE_RULE>
0

> <JCHEM_NEUTRAL_CHARGE>
-3

> <JCHEM_NUMBER_OF_RINGS>
1

> <JCHEM_PHYSIOLOGICAL_CHARGE>
-3

> <JCHEM_PKA>
1.155680807884428

> <JCHEM_PKA_STRONGEST_ACIDIC>
-1.99857009544453

> <JCHEM_PKA_STRONGEST_BASIC>
-3.6470427250217505

> <JCHEM_POLAR_SURFACE_AREA>
200.27999999999997

> <JCHEM_REFRACTIVITY>
51.0323

> <JCHEM_ROTATABLE_BOND_COUNT>
5

> <JCHEM_RULE_OF_FIVE>
0

> <ALOGPS_SOLUBILITY>
9.16e+00 g/l

> <JCHEM_TRADITIONAL_IUPAC>
tetrahydrofolic acid

> <JCHEM_VEBER_RULE>
0

> <DRUGBANK_ID>
DB04397

> <SECONDARY_ACCESSION_NUMBERS>
EXPT03221

> <DRUG_GROUPS>
experimental

> <GENERIC_NAME>
Alpha-D-Glucose-1-Phosphate-6-Vanadate

$$$$
