
  Mrv0541 02231218532D          

  2  1  0  0  0  0            999 V2000
    5.8452   -6.8116    0.0000 Cl  0  0  0  0  0  0  0  0  0  0  0  0
    6.6702   -6.8116    0.0000 O   0  5  0  0  0  0  0  0  0  0  0  0
  2  1  1  0  0  0  0
M  CHG  1   2  -1
M  END
> <DATABASE_ID>
DB11123

> <DATABASE_NAME>
drugbank

> <SMILES>
[O-]Cl

> <INCHI_IDENTIFIER>
InChI=1S/ClO/c1-2/q-1

> <INCHI_KEY>
WQYVRQLZKVEZGA-UHFFFAOYSA-N

> <FORMULA>
ClO

> <MOLECULAR_WEIGHT>
51.452

> <EXACT_MASS>
50.963767329

> <JCHEM_ACCEPTOR_COUNT>
1

> <JCHEM_ATOM_COUNT>
2

> <JCHEM_AVERAGE_NEUTRAL_MICROSPECIES_CHARGE>
-0.10576778692591783

> <JCHEM_AVERAGE_POLARIZABILITY>
3.1460209162753303

> <JCHEM_BIOAVAILABILITY>
1

> <JCHEM_DONOR_COUNT>
0

> <JCHEM_FORMAL_CHARGE>
-1

> <JCHEM_GHOSE_FILTER>
0

> <JCHEM_IUPAC>
hypochlorite

> <ALOGPS_LOGP>
0.02

> <JCHEM_LOGP>
0.31819389766666667

> <ALOGPS_LOGS>
0.74

> <JCHEM_MDDR_LIKE_RULE>
0

> <JCHEM_NEUTRAL_CHARGE>
0

> <JCHEM_NUMBER_OF_RINGS>
0

> <JCHEM_PHYSIOLOGICAL_CHARGE>
0

> <JCHEM_PKA_STRONGEST_ACIDIC>
7.9270968931592

> <JCHEM_PKA_STRONGEST_BASIC>
-5.892487818932166

> <JCHEM_POLAR_SURFACE_AREA>
23.06

> <JCHEM_REFRACTIVITY>
7.5792

> <JCHEM_ROTATABLE_BOND_COUNT>
0

> <JCHEM_RULE_OF_FIVE>
1

> <ALOGPS_SOLUBILITY>
3.78e+02 g/l

> <JCHEM_TRADITIONAL_IUPAC>
tetrahydrofolic acid

> <JCHEM_VEBER_RULE>
1

> <DRUGBANK_ID>
DB11123

> <DRUG_GROUPS>
approved

> <GENERIC_NAME>
Hypochlorite

> <SYNONYMS>
Hypochlorit

> <PRODUCTS>
(Qiqing) Sodium Hypochlorite Disinfectant; 84 Disinfectant; Airocare; Daily Doctor Sterilization Plus; Dakin's Solution 0.5% Modified; Dakins Full; Dakins Half; Dakins Quarter; Di-Dak-Sol; Diabek-100; Disinfectant; Disinfection Wash Free Hand Sanitizer; Exsept; Exsept (0.114%); HANNA DISINFECTANTspray; K-100; NaOClean E-Water; Orak-100; QIAN BAO Disinfectant; SUPERCLEAN Micro Acid Hypochlorite Disinfectant; Sodium hypochlorite disinfectant; TongYi CleanGuard 84 Disinfectant; Wash free disinfectant

> <SALTS>
Sodium hypochlorite

$$$$
