
  Mrv0541 05031423262D          

 19 19  0  0  0  0            999 V2000
    0.7145    4.5375    0.0000 C   0  0  0  0  0  0  0  0  0  0  0  0
    1.4289   -0.0000    0.0000 C   0  0  0  0  0  0  0  0  0  0  0  0
    0.0000   -0.0000    0.0000 C   0  0  0  0  0  0  0  0  0  0  0  0
    1.4289    0.8250    0.0000 C   0  0  0  0  0  0  0  0  0  0  0  0
    0.0000    0.8250    0.0000 C   0  0  0  0  0  0  0  0  0  0  0  0
   -0.7145    3.7125    0.0000 C   0  0  0  0  0  0  0  0  0  0  0  0
    0.7145    3.7125    0.0000 C   0  0  0  0  0  0  0  0  0  0  0  0
    0.7145   -0.4125    0.0000 C   0  0  0  0  0  0  0  0  0  0  0  0
    0.7145    1.2375    0.0000 C   0  0  0  0  0  0  0  0  0  0  0  0
   -0.0000    3.3000    0.0000 C   0  0  0  0  0  0  0  0  0  0  0  0
   -0.0000    2.4750    0.0000 C   0  0  0  0  0  0  0  0  0  0  0  0
    0.7145   -1.2375    0.0000 C   0  0  0  0  0  0  0  0  0  0  0  0
    0.7145   -2.0625    0.0000 F   0  0  0  0  0  0  0  0  0  0  0  0
   -0.1105   -1.2375    0.0000 F   0  0  0  0  0  0  0  0  0  0  0  0
    1.5395   -1.2375    0.0000 F   0  0  0  0  0  0  0  0  0  0  0  0
   -1.4289    4.1250    0.0000 N   0  0  0  0  0  0  0  0  0  0  0  0
    0.7145    2.0625    0.0000 N   0  0  0  0  0  0  0  0  0  0  0  0
    1.4289    3.3000    0.0000 O   0  0  0  0  0  0  0  0  0  0  0  0
   -0.7145    2.0625    0.0000 O   0  0  0  0  0  0  0  0  0  0  0  0
  4  2  1  0  0  0  0
  5  3  2  0  0  0  0
  7  1  1  0  0  0  0
  8  2  2  0  0  0  0
  8  3  1  0  0  0  0
  9  4  2  0  0  0  0
  9  5  1  0  0  0  0
 10  6  1  0  0  0  0
 10  7  2  0  0  0  0
 11 10  1  0  0  0  0
 12  8  1  0  0  0  0
 13 12  1  0  0  0  0
 14 12  1  0  0  0  0
 15 12  1  0  0  0  0
 16  6  3  0  0  0  0
 17  9  1  0  0  0  0
 17 11  1  0  0  0  0
 18  7  1  0  0  0  0
 19 11  2  0  0  0  0
M  END
> <DATABASE_ID>
DB08880

> <DATABASE_NAME>
drugbank

> <SMILES>
C\C(O)=C(/C#N)C(=O)NC1=CC=C(C=C1)C(F)(F)F

> <INCHI_IDENTIFIER>
InChI=1S/C12H9F3N2O2/c1-7(18)10(6-16)11(19)17-9-4-2-8(3-5-9)12(13,14)15/h2-5,18H,1H3,(H,17,19)/b10-7-

> <INCHI_KEY>
UTNUDOFZCWSZMS-YFHOEESVSA-N

> <FORMULA>
C12H9F3N2O2

> <MOLECULAR_WEIGHT>
270.2073

> <EXACT_MASS>
270.061612157

> <JCHEM_ACCEPTOR_COUNT>
3

> <JCHEM_ATOM_COUNT>
28

> <JCHEM_AVERAGE_NEUTRAL_MICROSPECIES_CHARGE>
-0.9704844866451806

> <JCHEM_AVERAGE_POLARIZABILITY>
23.152880031825852

> <JCHEM_BIOAVAILABILITY>
1

> <JCHEM_DONOR_COUNT>
2

> <JCHEM_FORMAL_CHARGE>
0

> <JCHEM_GHOSE_FILTER>
1

> <JCHEM_IUPAC>
(2Z)-2-cyano-3-hydroxy-N-[4-(trifluoromethyl)phenyl]but-2-enamide

> <ALOGPS_LOGP>
2.30

> <JCHEM_LOGP>
2.138883199333333

> <ALOGPS_LOGS>
-4.34

> <JCHEM_MDDR_LIKE_RULE>
0

> <JCHEM_NEUTRAL_CHARGE>
-1

> <JCHEM_NUMBER_OF_RINGS>
1

> <JCHEM_PHYSIOLOGICAL_CHARGE>
-1

> <JCHEM_PKA>
13.077413112411984

> <JCHEM_PKA_STRONGEST_ACIDIC>
5.483074968734172

> <JCHEM_PKA_STRONGEST_BASIC>
-3.214976920842886

> <JCHEM_POLAR_SURFACE_AREA>
73.12

> <JCHEM_REFRACTIVITY>
64.3928

> <JCHEM_ROTATABLE_BOND_COUNT>
3

> <JCHEM_RULE_OF_FIVE>
1

> <ALOGPS_SOLUBILITY>
1.24e-02 g/l

> <JCHEM_TRADITIONAL_IUPAC>
tetrahydrofolic acid

> <JCHEM_VEBER_RULE>
0

> <DRUGBANK_ID>
DB08880

> <SECONDARY_ACCESSION_NUMBERS>
EXPT00364; DB03805

> <DRUG_GROUPS>
approved

> <GENERIC_NAME>
Teriflunomide

> <SYNONYMS>
(Z)-2-cyano-alpha,alpha,alpha-trifluoro-3-hydroxy-p-crotonotoluidide; Teriflunomida; Teriflunomide; TÃ©riflunomide; Teriflunomidum

> <PRODUCTS>
Ach-teriflunomide; Apo-teriflunomide; Aubagio; Auro-teriflunomide; Jamp Teriflunomide; M-teriflunomide; Mar-teriflunomide; Nat-teriflunomide; PMS-teriflunomide; Sandoz Teriflunomide; Teriflunomide; Teriflunomide Accord; Teriflunomide Mylan; Teva-teriflunomide

$$$$
