
  Mrv0541 02231216412D          

  9  9  0  0  1  0            999 V2000
   -0.1467    3.1768    0.0000 C   0  0  0  0  0  0  0  0  0  0  0  0
   -0.1467    2.3518    0.0000 C   0  0  0  0  0  0  0  0  0  0  0  0
    0.5678    1.9393    0.0000 C   0  0  1  0  0  0  0  0  0  0  0  0
    1.2822    2.3518    0.0000 C   0  0  0  0  0  0  0  0  0  0  0  0
    0.5678    1.1143    0.0000 C   0  0  0  0  0  0  0  0  0  0  0  0
    1.2352    0.6294    0.0000 N   0  0  0  0  0  0  0  0  0  0  0  0
    0.9803   -0.1553    0.0000 C   0  0  0  0  0  0  0  0  0  0  0  0
    0.1553   -0.1553    0.0000 C   0  0  0  0  0  0  0  0  0  0  0  0
   -0.0997    0.6294    0.0000 S   0  0  0  0  0  0  0  0  0  0  0  0
  1  2  1  0  0  0  0
  2  3  1  0  0  0  0
  3  4  1  1  0  0  0
  3  5  1  0  0  0  0
  5  6  2  0  0  0  0
  6  7  1  0  0  0  0
  7  8  2  0  0  0  0
  8  9  1  0  0  0  0
  5  9  1  0  0  0  0
M  END
> <DATABASE_ID>
DB03087

> <DATABASE_NAME>
drugbank

> <SMILES>
CC[C@@H](C)C1=NC=CS1

> <INCHI_IDENTIFIER>
InChI=1S/C7H11NS/c1-3-6(2)7-8-4-5-9-7/h4-6H,3H2,1-2H3/t6-/m1/s1

> <INCHI_KEY>
MHJSWOZJMPIGJQ-ZCFIWIBFSA-N

> <FORMULA>
C7H11NS

> <MOLECULAR_WEIGHT>
141.234

> <EXACT_MASS>
141.061220047

> <JCHEM_ACCEPTOR_COUNT>
1

> <JCHEM_ATOM_COUNT>
20

> <JCHEM_AVERAGE_NEUTRAL_MICROSPECIES_CHARGE>
0.00021938279895455343

> <JCHEM_AVERAGE_POLARIZABILITY>
15.764185082856054

> <JCHEM_BIOAVAILABILITY>
1

> <JCHEM_DONOR_COUNT>
0

> <JCHEM_FORMAL_CHARGE>
0

> <JCHEM_GHOSE_FILTER>
0

> <JCHEM_IUPAC>
2-[(2R)-butan-2-yl]-1,3-thiazole

> <ALOGPS_LOGP>
3.06

> <JCHEM_LOGP>
2.443194117333333

> <ALOGPS_LOGS>
-2.33

> <JCHEM_MDDR_LIKE_RULE>
0

> <JCHEM_NEUTRAL_CHARGE>
0

> <JCHEM_NUMBER_OF_RINGS>
1

> <JCHEM_PHYSIOLOGICAL_CHARGE>
0

> <JCHEM_PKA_STRONGEST_BASIC>
3.341297860238959

> <JCHEM_POLAR_SURFACE_AREA>
12.89

> <JCHEM_REFRACTIVITY>
39.5095

> <JCHEM_ROTATABLE_BOND_COUNT>
2

> <JCHEM_RULE_OF_FIVE>
1

> <ALOGPS_SOLUBILITY>
6.67e-01 g/l

> <JCHEM_TRADITIONAL_IUPAC>
biotin

> <JCHEM_VEBER_RULE>
1

> <DRUGBANK_ID>
DB03087

> <SECONDARY_ACCESSION_NUMBERS>
EXPT03152

> <DRUG_GROUPS>
experimental

> <GENERIC_NAME>
2-(Sec-Butyl)Thiazole

$$$$
