
  Mrv0541 02231218382D          

 51 54  0  0  1  0            999 V2000
   14.4190   -7.4605    0.0000 C   0  0  0  0  0  0  0  0  0  0  0  0
   14.4190   -8.2855    0.0000 C   0  0  1  0  0  0  0  0  0  0  0  0
   15.1334   -8.6981    0.0000 C   0  0  0  0  0  0  0  0  0  0  0  0
   15.8479   -8.2855    0.0000 C   0  0  0  0  0  0  0  0  0  0  0  0
   15.8479   -7.4605    0.0000 C   0  0  2  0  0  0  0  0  0  0  0  0
   15.1334   -7.0480    0.0000 C   0  0  0  0  0  0  0  0  0  0  0  0
   16.5623   -8.6981    0.0000 C   0  0  0  0  0  0  0  0  0  0  0  0
   17.2768   -8.2855    0.0000 C   0  0  0  0  0  0  0  0  0  0  0  0
   17.2768   -7.4605    0.0000 C   0  0  2  0  0  0  0  0  0  0  0  0
   16.5623   -7.0480    0.0000 C   0  0  2  0  0  0  0  0  0  0  0  0
   17.9913   -7.0480    0.0000 C   0  0  1  0  0  0  0  0  0  0  0  0
   17.9913   -6.2230    0.0000 C   0  0  2  0  0  0  0  0  0  0  0  0
   17.2768   -5.8105    0.0000 C   0  0  0  0  0  0  0  0  0  0  0  0
   16.5623   -6.2230    0.0000 C   0  0  0  0  0  0  0  0  0  0  0  0
   18.7759   -7.3030    0.0000 C   0  0  0  0  0  0  0  0  0  0  0  0
   19.2608   -6.6355    0.0000 C   0  0  0  0  0  0  0  0  0  0  0  0
   18.7759   -5.9681    0.0000 C   0  0  2  0  0  0  0  0  0  0  0  0
   13.7044   -8.6981    0.0000 O   0  0  0  0  0  0  0  0  0  0  0  0
   18.0775   -5.4026    0.0000 C   0  0  0  0  0  0  0  0  0  0  0  0
   19.0308   -5.1835    0.0000 C   0  0  2  0  0  0  0  0  0  0  0  0
   18.4788   -4.5704    0.0000 C   0  0  0  0  0  0  0  0  0  0  0  0
   19.8378   -5.0120    0.0000 C   0  0  0  0  0  0  0  0  0  0  0  0
   20.0927   -4.2273    0.0000 C   0  0  0  0  0  0  0  0  0  0  0  0
   20.8997   -4.0558    0.0000 C   0  0  0  0  0  0  0  0  0  0  0  0
   21.1547   -3.2712    0.0000 C   0  0  0  0  0  0  0  0  0  0  0  0
   21.9617   -3.0996    0.0000 C   0  0  0  0  0  0  0  0  0  0  0  0
   20.6026   -2.6581    0.0000 C   0  0  0  0  0  0  0  0  0  0  0  0
   16.5623   -7.8730    0.0000 H   0  0  0  0  0  0  0  0  0  0  0  0
   15.8479   -6.6355    0.0000 C   0  0  0  0  0  0  0  0  0  0  0  0
   17.2768   -6.6355    0.0000 H   0  0  0  0  0  0  0  0  0  0  0  0
   18.0775   -7.8685    0.0000 H   0  0  0  0  0  0  0  0  0  0  0  0
   12.9899   -8.2855    0.0000 C   0  0  0  0  0  0  0  0  0  0  0  0
   12.2754   -8.6980    0.0000 C   0  0  0  0  0  0  0  0  0  0  0  0
   12.9900   -7.4605    0.0000 O   0  0  0  0  0  0  0  0  0  0  0  0
   11.5610   -8.2855    0.0000 C   0  0  0  0  0  0  0  0  0  0  0  0
   10.8465   -8.6980    0.0000 C   0  0  0  0  0  0  0  0  0  0  0  0
   10.1321   -8.2854    0.0000 C   0  0  0  0  0  0  0  0  0  0  0  0
    9.4175   -8.6979    0.0000 C   0  0  0  0  0  0  0  0  0  0  0  0
    8.7031   -8.2854    0.0000 C   0  0  0  0  0  0  0  0  0  0  0  0
    7.9886   -8.6978    0.0000 C   0  0  0  0  0  0  0  0  0  0  0  0
    7.2741   -8.2853    0.0000 C   0  0  0  0  0  0  0  0  0  0  0  0
    6.5597   -8.6977    0.0000 C   0  0  0  0  0  0  0  0  0  0  0  0
    6.5596   -9.5227    0.0000 C   0  0  0  0  0  0  0  0  0  0  0  0
    5.8451   -9.9352    0.0000 C   0  0  0  0  0  0  0  0  0  0  0  0
    5.8450  -10.7602    0.0000 C   0  0  0  0  0  0  0  0  0  0  0  0
    6.5595  -11.1727    0.0000 C   0  0  0  0  0  0  0  0  0  0  0  0
    6.5594  -11.9977    0.0000 C   0  0  0  0  0  0  0  0  0  0  0  0
    7.2739  -12.4103    0.0000 C   0  0  0  0  0  0  0  0  0  0  0  0
    7.2738  -13.2353    0.0000 C   0  0  0  0  0  0  0  0  0  0  0  0
   19.5938   -5.7612    0.0000 H   0  0  0  0  0  0  0  0  0  0  0  0
    6.5593  -13.6477    0.0000 C   0  0  0  0  0  0  0  0  0  0  0  0
  1  2  1  0  0  0  0
  2  3  1  0  0  0  0
  3  4  1  0  0  0  0
  4  5  1  0  0  0  0
  5  6  1  0  0  0  0
  6  1  1  0  0  0  0
  4  7  2  0  0  0  0
  7  8  1  0  0  0  0
  8  9  1  0  0  0  0
  9 10  1  0  0  0  0
 10  5  1  0  0  0  0
  9 11  1  0  0  0  0
 11 12  1  0  0  0  0
 12 13  1  0  0  0  0
 13 14  1  0  0  0  0
 14 10  1  0  0  0  0
 11 15  1  0  0  0  0
 15 16  1  0  0  0  0
 16 17  1  0  0  0  0
 17 12  1  0  0  0  0
  2 18  1  1  0  0  0
 12 19  1  1  0  0  0
 17 20  1  0  0  0  0
 20 21  1  6  0  0  0
 20 22  1  0  0  0  0
 22 23  1  0  0  0  0
 23 24  1  0  0  0  0
 24 25  1  0  0  0  0
 25 26  1  0  0  0  0
 25 27  1  0  0  0  0
 10 28  1  6  0  0  0
  5 29  1  1  0  0  0
  9 30  1  1  0  0  0
 11 31  1  6  0  0  0
 32 18  1  0  0  0  0
 33 32  1  0  0  0  0
 34 32  2  0  0  0  0
 35 33  1  0  0  0  0
 36 35  1  0  0  0  0
 37 36  1  0  0  0  0
 38 37  1  0  0  0  0
 39 38  1  0  0  0  0
 40 39  1  0  0  0  0
 41 40  1  0  0  0  0
 42 41  2  0  0  0  0
 43 42  1  0  0  0  0
 44 43  1  0  0  0  0
 45 44  2  0  0  0  0
 46 45  1  0  0  0  0
 47 46  1  0  0  0  0
 48 47  1  0  0  0  0
 49 48  1  0  0  0  0
 17 50  1  6  0  0  0
 51 49  1  0  0  0  0
M  END
> <DATABASE_ID>
DB02092

> <DATABASE_NAME>
drugbank

> <SMILES>
CCCCC\C=C/C\C=C/CCCCCCCC(=O)O[C@H]1CC[C@@]2(C)C(=CC[C@@]3([H])[C@]4([H])CC[C@]([H])([C@H](C)CCCC(C)C)[C@@]4(C)CC[C@]23[H])C1

> <INCHI_IDENTIFIER>
InChI=1S/C45H76O2/c1-7-8-9-10-11-12-13-14-15-16-17-18-19-20-21-25-43(46)47-38-30-32-44(5)37(34-38)26-27-39-41-29-28-40(36(4)24-22-23-35(2)3)45(41,6)33-31-42(39)44/h11-12,14-15,26,35-36,38-42H,7-10,13,16-25,27-34H2,1-6H3/b12-11-,15-14-/t36-,38+,39+,40-,41+,42+,44+,45-/m1/s1

> <INCHI_KEY>
NAACPBBQTFFYQB-LJAITQKLSA-N

> <FORMULA>
C45H76O2

> <MOLECULAR_WEIGHT>
649.0837

> <EXACT_MASS>
648.584531676

> <JCHEM_ACCEPTOR_COUNT>
1

> <JCHEM_ATOM_COUNT>
123

> <JCHEM_AVERAGE_NEUTRAL_MICROSPECIES_CHARGE>
0.0

> <JCHEM_AVERAGE_POLARIZABILITY>
85.39377949609587

> <JCHEM_BIOAVAILABILITY>
0

> <JCHEM_DONOR_COUNT>
0

> <JCHEM_FORMAL_CHARGE>
0

> <JCHEM_GHOSE_FILTER>
0

> <JCHEM_IUPAC>
(1R,3aS,3bS,7S,9aR,9bS,11aR)-9a,11a-dimethyl-1-[(2R)-6-methylheptan-2-yl]-1H,2H,3H,3aH,3bH,4H,6H,7H,8H,9H,9aH,9bH,10H,11H,11aH-cyclopenta[a]phenanthren-7-yl (9Z,12Z)-octadeca-9,12-dienoate

> <ALOGPS_LOGP>
10.50

> <JCHEM_LOGP>
14.19923694966667

> <ALOGPS_LOGS>
-8.05

> <JCHEM_MDDR_LIKE_RULE>
1

> <JCHEM_NEUTRAL_CHARGE>
0

> <JCHEM_NUMBER_OF_RINGS>
4

> <JCHEM_PHYSIOLOGICAL_CHARGE>
0

> <JCHEM_PKA_STRONGEST_BASIC>
-7.042198548687182

> <JCHEM_POLAR_SURFACE_AREA>
26.3

> <JCHEM_REFRACTIVITY>
205.64309999999998

> <JCHEM_ROTATABLE_BOND_COUNT>
21

> <JCHEM_RULE_OF_FIVE>
0

> <ALOGPS_SOLUBILITY>
5.79e-06 g/l

> <JCHEM_TRADITIONAL_IUPAC>
tetrahydrofolic acid

> <JCHEM_VEBER_RULE>
0

> <DRUGBANK_ID>
DB02092

> <SECONDARY_ACCESSION_NUMBERS>
EXPT00941

> <DRUG_GROUPS>
experimental

> <GENERIC_NAME>
Cholesteryl Linoleate

> <SYNONYMS>
(3β)-cholest-5-en-3-ol, (9Z,12Z)-9,12-octadecadienoate; (3β)-cholest-5-en-3-ol, (Z,Z)-9,12-octadecadienoate; (Z,Z)-(3beta)-Cholest-5-en-3-ol 9,12-octadecadienoate; 18:2 Cholesteryl ester; CE(18:2(9Z,12Z)); CE(18:2); cholest-5-en-3β-yl (Z,Z)-octadeca-9,12-dienoate; cholesteryl (9Z,12Z-octadecadienoate)

$$$$
