
  Mrv0541 05031422362D          

  6  6  0  0  0  0            999 V2000
    0.5678    1.9393    0.0000 C   0  0  0  0  0  0  0  0  0  0  0  0
   -0.0997    0.6294    0.0000 C   0  0  0  0  0  0  0  0  0  0  0  0
    0.1553   -0.1553    0.0000 C   0  0  0  0  0  0  0  0  0  0  0  0
    1.2352    0.6294    0.0000 C   0  0  0  0  0  0  0  0  0  0  0  0
    0.5678    1.1143    0.0000 C   0  0  0  0  0  0  0  0  0  0  0  0
    0.9803   -0.1553    0.0000 N   0  0  0  0  0  0  0  0  0  0  0  0
  3  2  2  0  0  0  0
  5  1  1  0  0  0  0
  5  2  1  0  0  0  0
  5  4  2  0  0  0  0
  6  3  1  0  0  0  0
  6  4  1  0  0  0  0
M  END
> <DATABASE_ID>
DB01932

> <DATABASE_NAME>
drugbank

> <SMILES>
CC1=CNC=C1

> <INCHI_IDENTIFIER>
InChI=1S/C5H7N/c1-5-2-3-6-4-5/h2-4,6H,1H3

> <INCHI_KEY>
FEKWWZCCJDUWLY-UHFFFAOYSA-N

> <FORMULA>
C5H7N

> <MOLECULAR_WEIGHT>
81.1158

> <EXACT_MASS>
81.057849229

> <JCHEM_ACCEPTOR_COUNT>
0

> <JCHEM_ATOM_COUNT>
13

> <JCHEM_AVERAGE_NEUTRAL_MICROSPECIES_CHARGE>
-8.24701690906673e-12

> <JCHEM_AVERAGE_POLARIZABILITY>
9.266695567781145

> <JCHEM_BIOAVAILABILITY>
1

> <JCHEM_DONOR_COUNT>
1

> <JCHEM_FORMAL_CHARGE>
0

> <JCHEM_GHOSE_FILTER>
0

> <JCHEM_IUPAC>
3-methyl-1H-pyrrole

> <ALOGPS_LOGP>
1.11

> <JCHEM_LOGP>
1.566551318

> <ALOGPS_LOGS>
0.53

> <JCHEM_MDDR_LIKE_RULE>
0

> <JCHEM_NEUTRAL_CHARGE>
0

> <JCHEM_NUMBER_OF_RINGS>
1

> <JCHEM_PHYSIOLOGICAL_CHARGE>
0

> <JCHEM_PKA_STRONGEST_ACIDIC>
18.083703114987447

> <JCHEM_POLAR_SURFACE_AREA>
15.79

> <JCHEM_REFRACTIVITY>
25.858

> <JCHEM_ROTATABLE_BOND_COUNT>
0

> <JCHEM_RULE_OF_FIVE>
1

> <ALOGPS_SOLUBILITY>
2.76e+02 g/l

> <JCHEM_TRADITIONAL_IUPAC>
tetrahydrofolic acid

> <JCHEM_VEBER_RULE>
1

> <DRUGBANK_ID>
DB01932

> <SECONDARY_ACCESSION_NUMBERS>
EXPT00253

> <DRUG_GROUPS>
experimental

> <GENERIC_NAME>
5-Methylpyrrole

$$$$
