 
  Mrv0541 05281322232D          
 
 27 29  0  0  0  0            999 V2000
    7.6725  -10.6425    0.0000 C   0  0  0  0  0  0  0  0  0  0  0  0
    7.6725  -11.4675    0.0000 C   0  0  0  0  0  0  0  0  0  0  0  0
    8.3870  -11.8800    0.0000 C   0  0  0  0  0  0  0  0  0  0  0  0
    9.1015  -11.4675    0.0000 C   0  0  0  0  0  0  0  0  0  0  0  0
    9.1015  -10.6425    0.0000 C   0  0  0  0  0  0  0  0  0  0  0  0
    8.3870  -10.2300    0.0000 N   0  0  0  0  0  0  0  0  0  0  0  0
    9.8269  -10.2235    0.0000 C   0  0  0  0  0  0  0  0  0  0  0  0
   10.5371  -10.6335    0.0000 C   0  0  0  0  0  0  0  0  0  0  0  0
   11.2515  -10.2209    0.0000 C   0  0  0  0  0  0  0  0  0  0  0  0
   11.2515   -9.3959    0.0000 C   0  0  0  0  0  0  0  0  0  0  0  0
   10.5413   -8.9860    0.0000 C   0  0  0  0  0  0  0  0  0  0  0  0
    9.8269   -9.3985    0.0000 C   0  0  0  0  0  0  0  0  0  0  0  0
    9.1082   -8.9836    0.0000 Cl  0  0  0  0  0  0  0  0  0  0  0  0
   11.9773  -10.6398    0.0000 N   0  0  0  0  0  0  0  0  0  0  0  0
   12.6794  -10.2342    0.0000 C   0  0  0  0  0  0  0  0  0  0  0  0
   13.3803  -10.6388    0.0000 C   0  0  0  0  0  0  0  0  0  0  0  0
   12.6793   -9.4051    0.0000 O   0  0  0  0  0  0  0  0  0  0  0  0
   13.3805  -11.4674    0.0000 C   0  0  0  0  0  0  0  0  0  0  0  0
   14.0951  -11.8797    0.0000 C   0  0  0  0  0  0  0  0  0  0  0  0
   14.8095  -11.4670    0.0000 C   0  0  0  0  0  0  0  0  0  0  0  0
   14.8093  -10.6385    0.0000 C   0  0  0  0  0  0  0  0  0  0  0  0
   14.0947  -10.2262    0.0000 C   0  0  0  0  0  0  0  0  0  0  0  0
   14.0946   -9.4051    0.0000 Cl  0  0  0  0  0  0  0  0  0  0  0  0
   15.5237  -11.8792    0.0000 S   0  0  0  0  0  0  0  0  0  0  0  0
   16.2381  -12.2917    0.0000 C   0  0  0  0  0  0  0  0  0  0  0  0
   15.9362  -11.1647    0.0000 O   0  0  0  0  0  0  0  0  0  0  0  0
   15.1112  -12.5937    0.0000 O   0  0  0  0  0  0  0  0  0  0  0  0
  1  2  1  0  0  0  0
  2  3  2  0  0  0  0
  3  4  1  0  0  0  0
  4  5  2  0  0  0  0
  5  6  1  0  0  0  0
  1  6  2  0  0  0  0
  5  7  1  0  0  0  0
  7  8  2  0  0  0  0
  8  9  1  0  0  0  0
  9 10  2  0  0  0  0
 10 11  1  0  0  0  0
 11 12  2  0  0  0  0
  7 12  1  0  0  0  0
 12 13  1  0  0  0  0
  9 14  1  0  0  0  0
 14 15  1  0  0  0  0
 15 16  1  0  0  0  0
 15 17  2  0  0  0  0
 16 18  1  0  0  0  0
 18 19  2  0  0  0  0
 19 20  1  0  0  0  0
 20 21  2  0  0  0  0
 21 22  1  0  0  0  0
 16 22  2  0  0  0  0
 22 23  1  0  0  0  0
 20 24  1  0  0  0  0
 24 25  1  0  0  0  0
 24 26  2  0  0  0  0
 24 27  2  0  0  0  0
M  END
> <DATABASE_ID>
DB08828

> <DATABASE_NAME>
drugbank

> <SMILES>
CS(=O)(=O)C1=CC(Cl)=C(C=C1)C(=O)NC1=CC=C(Cl)C(=C1)C1=CC=CC=N1

> <INCHI_IDENTIFIER>
InChI=1S/C19H14Cl2N2O3S/c1-27(25,26)13-6-7-14(17(21)11-13)19(24)23-12-5-8-16(20)15(10-12)18-4-2-3-9-22-18/h2-11H,1H3,(H,23,24)

> <INCHI_KEY>
BPQMGSKTAYIVFO-UHFFFAOYSA-N

> <FORMULA>
C19H14Cl2N2O3S

> <MOLECULAR_WEIGHT>
421.297

> <EXACT_MASS>
420.010218428

> <JCHEM_ACCEPTOR_COUNT>
4

> <JCHEM_ATOM_COUNT>
41

> <JCHEM_AVERAGE_NEUTRAL_MICROSPECIES_CHARGE>
0.0005047010333246884

> <JCHEM_AVERAGE_POLARIZABILITY>
39.49297704834268

> <JCHEM_BIOAVAILABILITY>
1

> <JCHEM_DONOR_COUNT>
1

> <JCHEM_FORMAL_CHARGE>
0

> <JCHEM_GHOSE_FILTER>
1

> <JCHEM_IUPAC>
2-chloro-N-[4-chloro-3-(pyridin-2-yl)phenyl]-4-methanesulfonylbenzamide

> <ALOGPS_LOGP>
4.22

> <JCHEM_LOGP>
3.9289317773333328

> <ALOGPS_LOGS>
-5.39

> <JCHEM_MDDR_LIKE_RULE>
0

> <JCHEM_NEUTRAL_CHARGE>
0

> <JCHEM_NUMBER_OF_RINGS>
3

> <JCHEM_PHYSIOLOGICAL_CHARGE>
0

> <JCHEM_PKA>
16.198429520269464

> <JCHEM_PKA_STRONGEST_ACIDIC>
13.495406595055885

> <JCHEM_PKA_STRONGEST_BASIC>
3.70352904198454

> <JCHEM_POLAR_SURFACE_AREA>
76.13

> <JCHEM_REFRACTIVITY>
107.81199999999998

> <JCHEM_ROTATABLE_BOND_COUNT>
4

> <JCHEM_RULE_OF_FIVE>
1

> <ALOGPS_SOLUBILITY>
1.73e-03 g/l

> <JCHEM_TRADITIONAL_IUPAC>
biotin

> <JCHEM_VEBER_RULE>
0

> <DRUGBANK_ID>
DB08828

> <DRUG_GROUPS>
approved; investigational

> <GENERIC_NAME>
Vismodegib

> <SYNONYMS>
Vismodegib; VismodÃ©gib; Vismodegibum

> <PRODUCTS>
Erivedge

$$$$
