
  Mrv0541 05041403582D          

 10  9  0  0  1  0            999 V2000
    1.2375    0.7145    0.0000 C   0  0  1  0  0  0  0  0  0  0  0  0
    0.8250    0.0000    0.0000 C   0  0  0  0  0  0  0  0  0  0  0  0
    0.8250    1.4289    0.0000 C   0  0  0  0  0  0  0  0  0  0  0  0
    0.4125    2.1434    0.0000 F   0  0  0  0  0  0  0  0  0  0  0  0
    0.1105    1.0164    0.0000 F   0  0  0  0  0  0  0  0  0  0  0  0
    1.5395    1.8414    0.0000 F   0  0  0  0  0  0  0  0  0  0  0  0
    2.0625    0.7145    0.0000 N   0  0  0  0  0  0  0  0  0  0  0  0
    1.2375   -0.7145    0.0000 O   0  0  0  0  0  0  0  0  0  0  0  0
    0.0000    0.0000    0.0000 O   0  0  0  0  0  0  0  0  0  0  0  0
    0.4125    0.7145    0.0000 H   0  0  0  0  0  0  0  0  0  0  0  0
  2  1  1  0  0  0  0
  3  1  1  0  0  0  0
  4  3  1  0  0  0  0
  5  3  1  0  0  0  0
  6  3  1  0  0  0  0
  1  7  1  6  0  0  0
  8  2  2  0  0  0  0
  9  2  1  0  0  0  0
  1 10  1  6  0  0  0
M  END
> <DATABASE_ID>
DB03794

> <DATABASE_NAME>
drugbank

> <SMILES>
[H][C@](N)(C(O)=O)C(F)(F)F

> <INCHI_IDENTIFIER>
InChI=1S/C3H4F3NO2/c4-3(5,6)1(7)2(8)9/h1H,7H2,(H,8,9)/t1-/m0/s1

> <INCHI_KEY>
HMJQKIDUCWWIBW-SFOWXEAESA-N

> <FORMULA>
C3H4F3NO2

> <MOLECULAR_WEIGHT>
143.0646

> <EXACT_MASS>
143.019412992

> <JCHEM_ACCEPTOR_COUNT>
3

> <JCHEM_ATOM_COUNT>
13

> <JCHEM_AVERAGE_NEUTRAL_MICROSPECIES_CHARGE>
-0.9947950210281085

> <JCHEM_AVERAGE_POLARIZABILITY>
8.769578151001122

> <JCHEM_BIOAVAILABILITY>
1

> <JCHEM_DONOR_COUNT>
2

> <JCHEM_FORMAL_CHARGE>
0

> <JCHEM_GHOSE_FILTER>
0

> <JCHEM_IUPAC>
(2S)-2-amino-3,3,3-trifluoropropanoic acid

> <ALOGPS_LOGP>
-1.00

> <JCHEM_LOGP>
-1.668207423784289

> <ALOGPS_LOGS>
-0.91

> <JCHEM_MDDR_LIKE_RULE>
0

> <JCHEM_NEUTRAL_CHARGE>
-1

> <JCHEM_NUMBER_OF_RINGS>
0

> <JCHEM_PHYSIOLOGICAL_CHARGE>
-1

> <JCHEM_PKA>
11.404104368382676

> <JCHEM_PKA_STRONGEST_ACIDIC>
1.0226964418701228

> <JCHEM_PKA_STRONGEST_BASIC>
4.728384461775935

> <JCHEM_POLAR_SURFACE_AREA>
63.32000000000001

> <JCHEM_REFRACTIVITY>
21.1988

> <JCHEM_ROTATABLE_BOND_COUNT>
2

> <JCHEM_RULE_OF_FIVE>
1

> <ALOGPS_SOLUBILITY>
1.76e+01 g/l

> <JCHEM_TRADITIONAL_IUPAC>
biotin

> <JCHEM_VEBER_RULE>
0

> <DRUGBANK_ID>
DB03794

> <SECONDARY_ACCESSION_NUMBERS>
EXPT01440

> <DRUG_GROUPS>
experimental

> <GENERIC_NAME>
Trifluoroalanine

$$$$
