
  Mrv0541 04191212152D          

 24 26  0  0  0  0            999 V2000
   -0.6312    0.1434    0.0000 C   0  0  0  0  0  0  0  0  0  0  0  0
    0.1937    0.1434    0.0000 C   0  0  0  0  0  0  0  0  0  0  0  0
    0.5245    1.5927    0.0000 C   0  0  0  0  0  0  0  0  0  0  0  0
   -0.2250    0.5897    0.0000 N   0  0  0  0  0  0  0  0  0  0  0  0
   -0.2250    1.4147    0.0000 C   0  0  0  0  0  0  0  0  0  0  0  0
   -0.2187    1.9507    0.0000 C   0  0  1  0  0  0  0  0  0  0  0  0
   -0.9620    1.5927    0.0000 C   0  0  2  0  0  0  0  0  0  0  0  0
   -1.6765    2.8302    0.0000 O   0  0  0  0  0  0  0  0  0  0  0  0
   -1.6765    2.0052    0.0000 C   0  0  0  0  0  0  0  0  0  0  0  0
   -2.3910    1.5927    0.0000 O   0  0  0  0  0  0  0  0  0  0  0  0
   -3.1055    2.0052    0.0000 C   0  0  0  0  0  0  0  0  0  0  0  0
   -0.2187    2.7757    0.0000 O   0  0  0  0  0  0  0  0  0  0  0  0
    0.4957    4.0132    0.0000 O   0  0  0  0  0  0  0  0  0  0  0  0
    0.4957    3.1882    0.0000 C   0  0  0  0  0  0  0  0  0  0  0  0
    1.2102    2.7757    0.0000 C   0  0  0  0  0  0  0  0  0  0  0  0
    1.9247    1.5382    0.0000 C   0  0  0  0  0  0  0  0  0  0  0  0
    2.6391    1.9507    0.0000 C   0  0  0  0  0  0  0  0  0  0  0  0
    2.6391    2.7757    0.0000 C   0  0  0  0  0  0  0  0  0  0  0  0
    1.9247    3.1882    0.0000 C   0  0  0  0  0  0  0  0  0  0  0  0
    1.2102    1.9507    0.0000 C   0  0  0  0  0  0  0  0  0  0  0  0
   -1.1456    0.7885    0.0000 C   0  0  1  0  0  0  0  0  0  0  0  0
   -1.9425    0.5750    0.0000 H   0  0  0  0  0  0  0  0  0  0  0  0
    0.7081    0.7885    0.0000 C   0  0  1  0  0  0  0  0  0  0  0  0
    1.5050    0.5750    0.0000 H   0  0  0  0  0  0  0  0  0  0  0  0
  6  7  1  0  0  0  0
  3  6  1  0  0  0  0
  7 21  1  0  0  0  0
 21  1  1  0  0  0  0
  1  2  1  0  0  0  0
  2 23  1  0  0  0  0
 23  3  1  0  0  0  0
 21  4  1  1  0  0  0
 23  4  1  1  0  0  0
  4  5  1  0  0  0  0
  6 12  1  1  0  0  0
  7  9  1  1  0  0  0
  9  8  2  0  0  0  0
  9 10  1  0  0  0  0
 10 11  1  0  0  0  0
 12 14  1  0  0  0  0
 14 13  2  0  0  0  0
 14 15  1  0  0  0  0
 19 15  2  0  0  0  0
 15 20  1  0  0  0  0
 16 17  1  0  0  0  0
 20 16  2  0  0  0  0
 17 18  2  0  0  0  0
 18 19  1  0  0  0  0
 21 22  1  1  0  0  0
 23 24  1  1  0  0  0
M  END
> <DATABASE_ID>
DB00907

> <DATABASE_NAME>
drugbank

> <SMILES>
[H][C@]12CC[C@]([H])([C@H]([C@H](C1)OC(=O)C1=CC=CC=C1)C(=O)OC)N2C

> <INCHI_IDENTIFIER>
InChI=1S/C17H21NO4/c1-18-12-8-9-13(18)15(17(20)21-2)14(10-12)22-16(19)11-6-4-3-5-7-11/h3-7,12-15H,8-10H2,1-2H3/t12-,13+,14-,15+/m0/s1

> <INCHI_KEY>
ZPUCINDJVBIVPJ-LJISPDSOSA-N

> <FORMULA>
C17H21NO4

> <MOLECULAR_WEIGHT>
303.3529

> <EXACT_MASS>
303.147058165

> <JCHEM_ACCEPTOR_COUNT>
3

> <JCHEM_ATOM_COUNT>
43

> <JCHEM_AVERAGE_NEUTRAL_MICROSPECIES_CHARGE>
0.9859370958617828

> <JCHEM_AVERAGE_POLARIZABILITY>
32.021384957687346

> <JCHEM_BIOAVAILABILITY>
1

> <JCHEM_DONOR_COUNT>
0

> <JCHEM_FORMAL_CHARGE>
0

> <JCHEM_GHOSE_FILTER>
1

> <JCHEM_IUPAC>
methyl (1R,2R,3S,5S)-3-(benzoyloxy)-8-methyl-8-azabicyclo[3.2.1]octane-2-carboxylate

> <ALOGPS_LOGP>
1.97

> <JCHEM_LOGP>
2.2821080089999994

> <ALOGPS_LOGS>
-1.78

> <JCHEM_MDDR_LIKE_RULE>
0

> <JCHEM_NEUTRAL_CHARGE>
1

> <JCHEM_NUMBER_OF_RINGS>
3

> <JCHEM_PHYSIOLOGICAL_CHARGE>
1

> <JCHEM_PKA_STRONGEST_BASIC>
8.845774190899235

> <JCHEM_POLAR_SURFACE_AREA>
55.84

> <JCHEM_REFRACTIVITY>
81.16040000000001

> <JCHEM_ROTATABLE_BOND_COUNT>
5

> <JCHEM_RULE_OF_FIVE>
1

> <ALOGPS_SOLUBILITY>
5.03e+00 g/l

> <JCHEM_TRADITIONAL_IUPAC>
tetrahydrofolic acid

> <JCHEM_VEBER_RULE>
0

> <DRUGBANK_ID>
DB00907

> <SECONDARY_ACCESSION_NUMBERS>
APRD00080

> <DRUG_GROUPS>
approved; illicit

> <GENERIC_NAME>
Cocaine

> <SYNONYMS>
(-)-Cocaine; (−)-cocaine; [1R-(exo,exo)]-3-(benzoyloxy)-8-methyl-8-azabicyclo[3.2.1]octane-2-carboxylic acid, methyl ester; 2-methyl-3β-hydroxy-1αH,5αH-tropane-2β-carboxylate benzoate (ester); Benzoylmethylecgonine; beta-Cocain; Cocain; Cocaina; Cocaine; Cocainum; Kokain; L-Cocain; L-Cocaine; methyl [1R-(exo,exo)]-3-(benzoyloxy)-8-methyl-8-azabicyclo[3.2.1]octane-2-carboxylate; Methyl benzoylecgonine; Neurocaine

> <PRODUCTS>
Cocaine Hydrochloride; Cocaine Hydrochloride Nasal; Cocaine Hydrochloride Top Sol 40mg/ml; Cocaine Hydrochloride Topical Sol 10%; Goprelto; Numbrino; PMS-cocaine Hydrochloride Topical Sol 10%; PMS-cocaine Hydrochloride Topical Sol 4%

> <SALTS>
Cocaine hydrochloride

$$$$
