
  Mrv0541 02231218162D          

 24 26  0  0  0  0            999 V2000
    8.1314   -3.0423    0.0000 Cl  0  0  0  0  0  0  0  0  0  0  0  0
    5.6655    0.4683    0.0000 S   0  0  0  0  0  0  0  0  0  0  0  0
    2.8075    2.1183    0.0000 S   0  0  0  0  0  0  0  0  0  0  0  0
    5.2530   -0.2462    0.0000 O   0  0  0  0  0  0  0  0  0  0  0  0
    6.0780    1.1828    0.0000 O   0  0  0  0  0  0  0  0  0  0  0  0
    3.2200    2.8329    0.0000 O   0  0  0  0  0  0  0  0  0  0  0  0
    2.3950    1.4039    0.0000 O   0  0  0  0  0  0  0  0  0  0  0  0
    6.3799    0.0558    0.0000 N   0  0  0  0  0  0  0  0  0  0  0  0
    7.8750   -0.9303    0.0000 N   0  0  0  0  0  0  0  0  0  0  0  0
    2.0930    2.5308    0.0000 N   0  0  0  0  0  0  0  0  0  0  0  0
    7.0944   -1.1818    0.0000 C   0  0  0  0  0  0  0  0  0  0  0  0
    6.3799   -0.7692    0.0000 C   0  0  0  0  0  0  0  0  0  0  0  0
    7.0944   -2.0068    0.0000 C   0  0  0  0  0  0  0  0  0  0  0  0
    4.9509    0.8808    0.0000 C   0  0  0  0  0  0  0  0  0  0  0  0
    5.6655   -1.1818    0.0000 C   0  0  0  0  0  0  0  0  0  0  0  0
    7.8750   -2.2582    0.0000 C   0  0  0  0  0  0  0  0  0  0  0  0
    6.3799   -2.4193    0.0000 C   0  0  0  0  0  0  0  0  0  0  0  0
    3.5220    1.7058    0.0000 C   0  0  0  0  0  0  0  0  0  0  0  0
    4.9509    1.7058    0.0000 C   0  0  0  0  0  0  0  0  0  0  0  0
    4.2365    0.4683    0.0000 C   0  0  0  0  0  0  0  0  0  0  0  0
    8.3565   -1.5943    0.0000 C   0  0  0  0  0  0  0  0  0  0  0  0
    5.6655   -2.0068    0.0000 C   0  0  0  0  0  0  0  0  0  0  0  0
    4.2365    2.1183    0.0000 C   0  0  0  0  0  0  0  0  0  0  0  0
    3.5220    0.8808    0.0000 C   0  0  0  0  0  0  0  0  0  0  0  0
  1 16  1  0  0  0  0
  2  4  2  0  0  0  0
  2  5  2  0  0  0  0
  2  8  1  0  0  0  0
  2 14  1  0  0  0  0
  3  6  2  0  0  0  0
  3  7  2  0  0  0  0
  3 10  1  0  0  0  0
  3 18  1  0  0  0  0
  8 12  1  0  0  0  0
  9 11  1  0  0  0  0
  9 21  1  0  0  0  0
 11 12  1  0  0  0  0
 11 13  2  0  0  0  0
 12 15  2  0  0  0  0
 13 16  1  0  0  0  0
 13 17  1  0  0  0  0
 14 19  2  0  0  0  0
 14 20  1  0  0  0  0
 15 22  1  0  0  0  0
 16 21  2  0  0  0  0
 17 22  2  0  0  0  0
 18 23  2  0  0  0  0
 18 24  1  0  0  0  0
 19 23  1  0  0  0  0
 20 24  2  0  0  0  0
M  END
> <DATABASE_ID>
DB06370

> <DATABASE_NAME>
drugbank

> <SMILES>
NS(=O)(=O)C1=CC=C(C=C1)S(=O)(=O)NC1=CC=CC2=C1NC=C2Cl

> <INCHI_IDENTIFIER>
InChI=1S/C14H12ClN3O4S2/c15-12-8-17-14-11(12)2-1-3-13(14)18-24(21,22)10-6-4-9(5-7-10)23(16,19)20/h1-8,17-18H,(H2,16,19,20)

> <INCHI_KEY>
SETFNECMODOHTO-UHFFFAOYSA-N

> <FORMULA>
C14H12ClN3O4S2

> <MOLECULAR_WEIGHT>
385.846

> <EXACT_MASS>
384.995774974

> <JCHEM_ACCEPTOR_COUNT>
4

> <JCHEM_ATOM_COUNT>
36

> <JCHEM_AVERAGE_NEUTRAL_MICROSPECIES_CHARGE>
-0.5841983675194221

> <JCHEM_AVERAGE_POLARIZABILITY>
36.83958745415768

> <JCHEM_BIOAVAILABILITY>
1

> <JCHEM_DONOR_COUNT>
3

> <JCHEM_FORMAL_CHARGE>
0

> <JCHEM_GHOSE_FILTER>
1

> <JCHEM_IUPAC>
N1-(3-chloro-1H-indol-7-yl)benzene-1,4-disulfonamide

> <ALOGPS_LOGP>
2.21

> <JCHEM_LOGP>
1.769748539

> <ALOGPS_LOGS>
-4.26

> <JCHEM_MDDR_LIKE_RULE>
0

> <JCHEM_NEUTRAL_CHARGE>
-1

> <JCHEM_NUMBER_OF_RINGS>
3

> <JCHEM_PHYSIOLOGICAL_CHARGE>
-1

> <JCHEM_PKA>
9.987223273890526

> <JCHEM_PKA_STRONGEST_ACIDIC>
6.854167517780267

> <JCHEM_POLAR_SURFACE_AREA>
122.11999999999999

> <JCHEM_REFRACTIVITY>
90.93940000000002

> <JCHEM_ROTATABLE_BOND_COUNT>
3

> <JCHEM_RULE_OF_FIVE>
1

> <ALOGPS_SOLUBILITY>
2.13e-02 g/l

> <JCHEM_TRADITIONAL_IUPAC>
biotin

> <JCHEM_VEBER_RULE>
0

> <DRUGBANK_ID>
DB06370

> <DRUG_GROUPS>
investigational

> <GENERIC_NAME>
Indisulam

> <SYNONYMS>
Indisulam

$$$$
