
  Mrv0541 09131211452D          

 14 15  0  0  0  0            999 V2000
    0.8212    6.8277    0.0000 C   0  0  0  0  0  0  0  0  0  0  0  0
   -0.6078    6.0027    0.0000 C   0  0  0  0  0  0  0  0  0  0  0  0
    1.5356    4.7652    0.0000 C   0  0  0  0  0  0  0  0  0  0  0  0
    1.5356    5.5902    0.0000 C   0  0  0  0  0  0  0  0  0  0  0  0
    0.8212    4.3527    0.0000 C   0  0  0  0  0  0  0  0  0  0  0  0
   -0.6078    4.3527    0.0000 C   0  0  0  0  0  0  0  0  0  0  0  0
    0.0597    3.0428    0.0000 C   0  0  0  0  0  0  0  0  0  0  0  0
   -1.0203    2.2581    0.0000 C   0  0  0  0  0  0  0  0  0  0  0  0
    0.8212    6.0027    0.0000 C   0  0  0  0  0  0  0  0  0  0  0  0
    0.1067    5.5902    0.0000 C   0  0  0  0  0  0  0  0  0  0  0  0
    0.1067    4.7652    0.0000 C   0  0  0  0  0  0  0  0  0  0  0  0
   -0.6078    3.5277    0.0000 C   0  0  0  0  0  0  0  0  0  0  0  0
   -0.1953    2.2581    0.0000 N   0  0  0  0  0  0  0  0  0  0  0  0
   -1.2752    3.0428    0.0000 N   0  0  0  0  0  0  0  0  0  0  0  0
  4  3  2  0  0  0  0
  5  3  1  0  0  0  0
  9  1  1  0  0  0  0
  9  4  1  0  0  0  0
 10  2  1  0  0  0  0
 10  9  2  0  0  0  0
 11  5  2  0  0  0  0
 11  6  1  0  0  0  0
 11 10  1  0  0  0  0
 12  6  1  0  0  0  0
 12  7  2  0  0  0  0
 13  7  1  0  0  0  0
 13  8  2  0  0  0  0
 14  8  1  0  0  0  0
 14 12  1  0  0  0  0
M  END
> <DATABASE_ID>
DB11556

> <DATABASE_NAME>
drugbank

> <SMILES>
CC1=C(C)C(CC2=CN=CN2)=CC=C1

> <INCHI_IDENTIFIER>
InChI=1S/C12H14N2/c1-9-4-3-5-11(10(9)2)6-12-7-13-8-14-12/h3-5,7-8H,6H2,1-2H3,(H,13,14)

> <INCHI_KEY>
RHDJRPPFURBGLQ-UHFFFAOYSA-N

> <FORMULA>
C12H14N2

> <MOLECULAR_WEIGHT>
186.253

> <EXACT_MASS>
186.115698458

> <JCHEM_ACCEPTOR_COUNT>
1

> <JCHEM_ATOM_COUNT>
28

> <JCHEM_AVERAGE_NEUTRAL_MICROSPECIES_CHARGE>
0.5830659141969119

> <JCHEM_AVERAGE_POLARIZABILITY>
21.1670116442259

> <JCHEM_BIOAVAILABILITY>
1

> <JCHEM_DONOR_COUNT>
1

> <JCHEM_FORMAL_CHARGE>
0

> <JCHEM_GHOSE_FILTER>
1

> <JCHEM_IUPAC>
5-[(2,3-dimethylphenyl)methyl]-1H-imidazole

> <ALOGPS_LOGP>
2.52

> <JCHEM_LOGP>
2.7375062623333335

> <ALOGPS_LOGS>
-2.45

> <JCHEM_MDDR_LIKE_RULE>
0

> <JCHEM_NEUTRAL_CHARGE>
1

> <JCHEM_NUMBER_OF_RINGS>
2

> <JCHEM_PHYSIOLOGICAL_CHARGE>
1

> <JCHEM_PKA_STRONGEST_ACIDIC>
13.261831991098738

> <JCHEM_PKA_STRONGEST_BASIC>
7.14565089708393

> <JCHEM_POLAR_SURFACE_AREA>
28.68

> <JCHEM_REFRACTIVITY>
58.863899999999994

> <JCHEM_ROTATABLE_BOND_COUNT>
2

> <JCHEM_RULE_OF_FIVE>
1

> <ALOGPS_SOLUBILITY>
6.55e-01 g/l

> <JCHEM_TRADITIONAL_IUPAC>
biotin

> <JCHEM_VEBER_RULE>
1

> <DRUGBANK_ID>
DB11556

> <DRUG_GROUPS>
vet_approved

> <GENERIC_NAME>
Detomidine

> <SYNONYMS>
4-(2,3-dimethylbenzyl)imidazole; Detomidine

> <SALTS>
Detomidine hydrochloride

$$$$
