
  Mrv0541 02231216232D          

 22 22  0  0  0  0            999 V2000
    5.7158    3.3000    0.0000 C   0  0  0  0  0  0  0  0  0  0  0  0
    5.7158    2.4750    0.0000 C   0  0  0  0  0  0  0  0  0  0  0  0
    5.0013    2.0625    0.0000 C   0  0  0  0  0  0  0  0  0  0  0  0
    4.2868    2.4750    0.0000 C   0  0  0  0  0  0  0  0  0  0  0  0
    3.5724    2.0625    0.0000 C   0  0  0  0  0  0  0  0  0  0  0  0
    2.8579    2.4750    0.0000 C   0  0  0  0  0  0  0  0  0  0  0  0
    2.8579    3.3000    0.0000 C   0  0  0  0  0  0  0  0  0  0  0  0
    2.1434    2.0625    0.0000 C   0  0  0  0  0  0  0  0  0  0  0  0
    2.1434    1.2375    0.0000 C   0  0  0  0  0  0  0  0  0  0  0  0
    1.4289    0.8250    0.0000 C   0  0  0  0  0  0  0  0  0  0  0  0
    1.4289    0.0000    0.0000 C   0  0  0  0  0  0  0  0  0  0  0  0
    2.1434   -0.4125    0.0000 C   0  0  0  0  0  0  0  0  0  0  0  0
    0.7145   -0.4125    0.0000 C   0  0  0  0  0  0  0  0  0  0  0  0
    0.7145   -1.2375    0.0000 O   0  0  0  0  0  0  0  0  0  0  0  0
    0.0000    0.0000    0.0000 C   0  0  0  0  0  0  0  0  0  0  0  0
    0.0000    0.8250    0.0000 C   0  0  0  0  0  0  0  0  0  0  0  0
    0.7145    1.2375    0.0000 C   0  0  0  0  0  0  0  0  0  0  0  0
    0.3272    1.9659    0.0000 C   0  0  0  0  0  0  0  0  0  0  0  0
    1.1018    1.9659    0.0000 C   0  0  0  0  0  0  0  0  0  0  0  0
    6.4302    2.0625    0.0000 C   0  0  0  0  0  0  0  0  0  0  0  0
    7.1447    2.4750    0.0000 C   0  0  0  0  0  0  0  0  0  0  0  0
    7.1447    3.3000    0.0000 O   0  0  0  0  0  0  0  0  0  0  0  0
  1  2  1  0  0  0  0
  2  3  1  0  0  0  0
  3  4  2  0  0  0  0
  4  5  1  0  0  0  0
  5  6  2  0  0  0  0
  6  7  1  0  0  0  0
  6  8  1  0  0  0  0
  8  9  2  0  0  0  0
  9 10  1  0  0  0  0
 10 11  2  0  0  0  0
 11 12  1  0  0  0  0
 11 13  1  0  0  0  0
 13 14  2  0  0  0  0
 13 15  1  0  0  0  0
 15 16  1  0  0  0  0
 16 17  1  0  0  0  0
 10 17  1  0  0  0  0
 17 18  1  0  0  0  0
 17 19  1  0  0  0  0
  2 20  2  0  0  0  0
 20 21  1  0  0  0  0
 21 22  1  0  0  0  0
M  END
> <DATABASE_ID>
DB02699

> <DATABASE_NAME>
drugbank

> <SMILES>
C\C(=C/CO)\C=C\C=C(/C)\C=C\C1=C(C)C(=O)CCC1(C)C

> <INCHI_IDENTIFIER>
InChI=1S/C20H28O2/c1-15(7-6-8-16(2)12-14-21)9-10-18-17(3)19(22)11-13-20(18,4)5/h6-10,12,21H,11,13-14H2,1-5H3/b8-6+,10-9+,15-7+,16-12+

> <INCHI_KEY>
PLIUCYCUYQIBDZ-RMWYGNQTSA-N

> <FORMULA>
C20H28O2

> <MOLECULAR_WEIGHT>
300.4351

> <EXACT_MASS>
300.20893014

> <JCHEM_ACCEPTOR_COUNT>
2

> <JCHEM_ATOM_COUNT>
50

> <JCHEM_AVERAGE_NEUTRAL_MICROSPECIES_CHARGE>
3.0998360668193144e-10

> <JCHEM_AVERAGE_POLARIZABILITY>
36.68244955733997

> <JCHEM_BIOAVAILABILITY>
1

> <JCHEM_DONOR_COUNT>
1

> <JCHEM_FORMAL_CHARGE>
0

> <JCHEM_GHOSE_FILTER>
1

> <JCHEM_IUPAC>
3-[(1E,3E,5E,7E)-9-hydroxy-3,7-dimethylnona-1,3,5,7-tetraen-1-yl]-2,4,4-trimethylcyclohex-2-en-1-one

> <ALOGPS_LOGP>
5.31

> <JCHEM_LOGP>
4.026809811666666

> <ALOGPS_LOGS>
-4.39

> <JCHEM_MDDR_LIKE_RULE>
0

> <JCHEM_NEUTRAL_CHARGE>
0

> <JCHEM_NUMBER_OF_RINGS>
1

> <JCHEM_PHYSIOLOGICAL_CHARGE>
0

> <JCHEM_PKA_STRONGEST_ACIDIC>
16.435769749539965

> <JCHEM_PKA_STRONGEST_BASIC>
-2.1707943115512176

> <JCHEM_POLAR_SURFACE_AREA>
37.3

> <JCHEM_REFRACTIVITY>
98.61659999999999

> <JCHEM_ROTATABLE_BOND_COUNT>
5

> <JCHEM_RULE_OF_FIVE>
1

> <ALOGPS_SOLUBILITY>
1.21e-02 g/l

> <JCHEM_TRADITIONAL_IUPAC>
biotin

> <JCHEM_VEBER_RULE>
1

> <DRUGBANK_ID>
DB02699

> <SECONDARY_ACCESSION_NUMBERS>
EXPT02464

> <DRUG_GROUPS>
experimental

> <GENERIC_NAME>
4-Oxoretinol

$$$$
