
  Mrv0541 10101211172D          

 17 17  0  0  0  0            999 V2000
    0.1260    1.9926    0.0000 C   0  0  0  0  0  0  0  0  0  0  0  0
    1.7581    1.1747    0.0000 C   0  0  0  0  0  0  0  0  0  0  0  0
   -0.5843    1.2824    0.0000 C   0  0  0  0  0  0  0  0  0  0  0  0
    0.9959    1.4904    0.0000 C   0  0  2  0  0  0  0  0  0  0  0  0
    0.2337    1.1747    0.0000 C   0  0  2  0  0  0  0  0  0  0  0  0
   -0.9000    2.0446    0.0000 O   0  0  0  0  0  0  0  0  0  0  0  0
    0.9959    2.3154    0.0000 O   0  0  0  0  0  0  0  0  0  0  0  0
    2.5760   -0.4574    0.0000 O   0  0  0  0  0  0  0  0  0  0  0  0
    1.8657   -1.1676    0.0000 O   0  0  0  0  0  0  0  0  0  0  0  0
   -0.5843   -0.4574    0.0000 O   0  0  0  0  0  0  0  0  0  0  0  0
    0.1260   -1.1676    0.0000 O   0  0  0  0  0  0  0  0  0  0  0  0
    2.0738    0.4125    0.0000 O   0  0  0  0  0  0  0  0  0  0  0  0
   -0.0821    0.4125    0.0000 O   0  0  0  0  0  0  0  0  0  0  0  0
    0.9959   -0.6654    0.0000 O   0  0  0  0  0  0  0  0  0  0  0  0
    1.7581   -0.3497    0.0000 P   0  0  0  0  0  0  0  0  0  0  0  0
    0.2337   -0.3497    0.0000 P   0  0  0  0  0  0  0  0  0  0  0  0
    1.6818    1.9488    0.0000 H   0  0  0  0  0  0  0  0  0  0  0  0
  4  2  1  0  0  0  0
  5  1  1  6  0  0  0
  5  3  1  1  0  0  0
  5  4  1  0  0  0  0
  6  3  1  0  0  0  0
  4  7  1  6  0  0  0
 12  2  1  0  0  0  0
 13  5  1  0  0  0  0
 15  8  1  0  0  0  0
 15  9  2  0  0  0  0
 15 12  1  0  0  0  0
 15 14  1  0  0  0  0
 16 10  1  0  0  0  0
 16 11  2  0  0  0  0
 16 13  1  0  0  0  0
 16 14  1  0  0  0  0
  4 17  1  1  0  0  0
M  END
> <DATABASE_ID>
DB03961

> <DATABASE_NAME>
drugbank

> <SMILES>
[H][C@@]1(O)COP(O)(=O)OP(O)(=O)O[C@@]1(C)CO

> <INCHI_IDENTIFIER>
InChI=1S/C5H12O9P2/c1-5(3-6)4(7)2-12-15(8,9)14-16(10,11)13-5/h4,6-7H,2-3H2,1H3,(H,8,9)(H,10,11)/t4-,5+/m1/s1

> <INCHI_KEY>
SFRQRNJMIIUYDI-UHNVWZDZSA-N

> <FORMULA>
C5H12O9P2

> <MOLECULAR_WEIGHT>
278.0909

> <EXACT_MASS>
277.995655006

> <JCHEM_ACCEPTOR_COUNT>
6

> <JCHEM_ATOM_COUNT>
28

> <JCHEM_AVERAGE_NEUTRAL_MICROSPECIES_CHARGE>
-1.9999009223566275

> <JCHEM_AVERAGE_POLARIZABILITY>
20.400423688996938

> <JCHEM_BIOAVAILABILITY>
1

> <JCHEM_DONOR_COUNT>
4

> <JCHEM_FORMAL_CHARGE>
0

> <JCHEM_GHOSE_FILTER>
0

> <JCHEM_IUPAC>
(6S,7R)-2,4,7-trihydroxy-6-(hydroxymethyl)-6-methyl-1,3,5,2lambda5,4lambda5-trioxadiphosphocane-2,4-dione

> <ALOGPS_LOGP>
-0.81

> <JCHEM_LOGP>
-1.8375990153333333

> <ALOGPS_LOGS>
-1.11

> <JCHEM_MDDR_LIKE_RULE>
0

> <JCHEM_NEUTRAL_CHARGE>
-2

> <JCHEM_NUMBER_OF_RINGS>
1

> <JCHEM_PHYSIOLOGICAL_CHARGE>
-2

> <JCHEM_PKA>
3.2425208105265866

> <JCHEM_PKA_STRONGEST_ACIDIC>
1.8252549025773768

> <JCHEM_PKA_STRONGEST_BASIC>
-3.125272674319158

> <JCHEM_POLAR_SURFACE_AREA>
142.75

> <JCHEM_REFRACTIVITY>
49.083600000000004

> <JCHEM_ROTATABLE_BOND_COUNT>
1

> <JCHEM_RULE_OF_FIVE>
1

> <ALOGPS_SOLUBILITY>
2.14e+01 g/l

> <JCHEM_TRADITIONAL_IUPAC>
tetrahydrofolic acid

> <JCHEM_VEBER_RULE>
0

> <DRUGBANK_ID>
DB03961

> <SECONDARY_ACCESSION_NUMBERS>
EXPT00871

> <DRUG_GROUPS>
experimental

> <GENERIC_NAME>
2c-Methyl-D-Erythritol 2,4-Cyclodiphosphate

$$$$
