
  Mrv0541 02231216392D          

  8  8  0  0  1  0            999 V2000
   -0.1467    2.3518    0.0000 O   0  0  0  0  0  0  0  0  0  0  0  0
    0.5678    1.9393    0.0000 C   0  0  0  0  0  0  0  0  0  0  0  0
    1.2822    2.3518    0.0000 O   0  0  0  0  0  0  0  0  0  0  0  0
    0.5678    1.1143    0.0000 C   0  0  1  0  0  0  0  0  0  0  0  0
    1.2352    0.6294    0.0000 C   0  0  0  0  0  0  0  0  0  0  0  0
    0.9803   -0.1553    0.0000 C   0  0  0  0  0  0  0  0  0  0  0  0
    0.1553   -0.1553    0.0000 C   0  0  0  0  0  0  0  0  0  0  0  0
   -0.0997    0.6294    0.0000 O   0  0  0  0  0  0  0  0  0  0  0  0
  1  2  1  0  0  0  0
  2  3  2  0  0  0  0
  4  2  1  1  0  0  0
  4  5  1  0  0  0  0
  5  6  1  0  0  0  0
  6  7  1  0  0  0  0
  7  8  1  0  0  0  0
  4  8  1  0  0  0  0
M  END
> <DATABASE_ID>
DB03051

> <DATABASE_NAME>
drugbank

> <SMILES>
OC(=O)[C@H]1CCCO1

> <INCHI_IDENTIFIER>
InChI=1S/C5H8O3/c6-5(7)4-2-1-3-8-4/h4H,1-3H2,(H,6,7)/t4-/m1/s1

> <INCHI_KEY>
UJJLJRQIPMGXEZ-SCSAIBSYSA-N

> <FORMULA>
C5H8O3

> <MOLECULAR_WEIGHT>
116.1152

> <EXACT_MASS>
116.047344122

> <JCHEM_ACCEPTOR_COUNT>
3

> <JCHEM_ATOM_COUNT>
16

> <JCHEM_AVERAGE_NEUTRAL_MICROSPECIES_CHARGE>
-0.9993302409774893

> <JCHEM_AVERAGE_POLARIZABILITY>
11.040782628445337

> <JCHEM_BIOAVAILABILITY>
1

> <JCHEM_DONOR_COUNT>
1

> <JCHEM_FORMAL_CHARGE>
0

> <JCHEM_GHOSE_FILTER>
0

> <JCHEM_IUPAC>
(2R)-oxolane-2-carboxylic acid

> <ALOGPS_LOGP>
-0.03

> <JCHEM_LOGP>
0.22028649766666664

> <ALOGPS_LOGS>
0.50

> <JCHEM_MDDR_LIKE_RULE>
0

> <JCHEM_NEUTRAL_CHARGE>
-1

> <JCHEM_NUMBER_OF_RINGS>
1

> <JCHEM_PHYSIOLOGICAL_CHARGE>
-1

> <JCHEM_PKA_STRONGEST_ACIDIC>
3.8262095725008973

> <JCHEM_PKA_STRONGEST_BASIC>
-4.214793801287089

> <JCHEM_POLAR_SURFACE_AREA>
46.53

> <JCHEM_REFRACTIVITY>
26.383399999999998

> <JCHEM_ROTATABLE_BOND_COUNT>
1

> <JCHEM_RULE_OF_FIVE>
1

> <ALOGPS_SOLUBILITY>
3.64e+02 g/l

> <JCHEM_TRADITIONAL_IUPAC>
tetrahydrofolic acid

> <JCHEM_VEBER_RULE>
0

> <DRUGBANK_ID>
DB03051

> <SECONDARY_ACCESSION_NUMBERS>
EXPT03042

> <DRUG_GROUPS>
experimental

> <GENERIC_NAME>
(S)-2-Tetrahydrofuroic acid

> <SYNONYMS>
(2R)-Tetrahydro-2-furancarboxylic acid; (R)-(+)-Tetrahydro-2-furoic acid; (R)-Tetrahydrofuran-2-carboxylic acid; (S)-(-)-2-Tetrahydrofuroic acid

$$$$
