
  Mrv0541 05041406332D          

 20 19  0  0  1  0            999 V2000
    6.7618    1.4289    0.0000 C   0  0  0  0  0  0  0  0  0  0  0  0
    6.0474    1.8414    0.0000 C   0  0  0  0  0  0  0  0  0  0  0  0
    1.7605    1.8414    0.0000 C   0  0  0  0  0  0  0  0  0  0  0  0
    4.6184    1.8414    0.0000 C   0  0  0  0  0  0  0  0  0  0  0  0
    7.4763    1.8414    0.0000 C   0  0  1  0  0  0  0  0  0  0  0  0
    2.4750    1.4289    0.0000 C   0  0  0  0  0  0  0  0  0  0  0  0
    3.9039    1.4289    0.0000 C   0  0  2  0  0  0  0  0  0  0  0  0
    3.1895    1.8414    0.0000 C   0  0  1  0  0  0  0  0  0  0  0  0
    8.1908    1.4289    0.0000 C   0  0  0  0  0  0  0  0  0  0  0  0
    7.4763    2.6664    0.0000 N   0  0  0  0  0  0  0  0  0  0  0  0
    1.0461    1.4289    0.0000 O   0  0  0  0  0  0  0  0  0  0  0  0
    2.4750    0.6039    0.0000 O   0  0  0  0  0  0  0  0  0  0  0  0
    3.9039    0.6039    0.0000 O   0  0  0  0  0  0  0  0  0  0  0  0
    3.1895    2.6664    0.0000 O   0  0  0  0  0  0  0  0  0  0  0  0
    8.9052    1.8414    0.0000 O   0  0  0  0  0  0  0  0  0  0  0  0
    8.1908    0.6039    0.0000 O   0  0  0  0  0  0  0  0  0  0  0  0
    5.3329    1.4289    0.0000 S   0  0  0  0  0  0  0  0  0  0  0  0
    7.4763    1.0164    0.0000 H   0  0  0  0  0  0  0  0  0  0  0  0
    3.9039    2.2539    0.0000 H   0  0  0  0  0  0  0  0  0  0  0  0
    3.1895    1.0164    0.0000 H   0  0  0  0  0  0  0  0  0  0  0  0
  2  1  1  0  0  0  0
  5  1  1  0  0  0  0
  6  3  1  0  0  0  0
  7  4  1  0  0  0  0
  8  6  1  0  0  0  0
  8  7  1  0  0  0  0
  9  5  1  0  0  0  0
  5 10  1  1  0  0  0
 11  3  1  0  0  0  0
 12  6  2  0  0  0  0
  7 13  1  6  0  0  0
  8 14  1  1  0  0  0
 15  9  2  0  0  0  0
 16  9  1  0  0  0  0
 17  2  1  0  0  0  0
 17  4  1  0  0  0  0
  5 18  1  1  0  0  0
  7 19  1  6  0  0  0
  8 20  1  1  0  0  0
M  END
> <DATABASE_ID>
DB04182

> <DATABASE_NAME>
drugbank

> <SMILES>
[H][C@](N)(CCSC[C@@]([H])(O)[C@@]([H])(O)C(=O)CO)C(O)=O

> <INCHI_IDENTIFIER>
InChI=1S/C9H17NO6S/c10-5(9(15)16)1-2-17-4-7(13)8(14)6(12)3-11/h5,7-8,11,13-14H,1-4,10H2,(H,15,16)/t5-,7+,8-/m0/s1

> <INCHI_KEY>
QFXXRJSDEMCBPH-ARDNSNSESA-N

> <FORMULA>
C9H17NO6S

> <MOLECULAR_WEIGHT>
267.299

> <EXACT_MASS>
267.077657971

> <JCHEM_ACCEPTOR_COUNT>
7

> <JCHEM_ATOM_COUNT>
34

> <JCHEM_AVERAGE_NEUTRAL_MICROSPECIES_CHARGE>
-0.003323332842758925

> <JCHEM_AVERAGE_POLARIZABILITY>
26.07746313100123

> <JCHEM_BIOAVAILABILITY>
1

> <JCHEM_DONOR_COUNT>
5

> <JCHEM_FORMAL_CHARGE>
0

> <JCHEM_GHOSE_FILTER>
0

> <JCHEM_IUPAC>
(2S)-2-amino-4-{[(2S,3R)-2,3,5-trihydroxy-4-oxopentyl]sulfanyl}butanoic acid

> <ALOGPS_LOGP>
-2.57

> <JCHEM_LOGP>
-4.567654067341467

> <ALOGPS_LOGS>
-1.10

> <JCHEM_MDDR_LIKE_RULE>
0

> <JCHEM_NEUTRAL_CHARGE>
0

> <JCHEM_NUMBER_OF_RINGS>
0

> <JCHEM_PHYSIOLOGICAL_CHARGE>
0

> <JCHEM_PKA>
12.31108997428991

> <JCHEM_PKA_STRONGEST_ACIDIC>
1.869036533780791

> <JCHEM_PKA_STRONGEST_BASIC>
9.476677210165741

> <JCHEM_POLAR_SURFACE_AREA>
141.07999999999998

> <JCHEM_REFRACTIVITY>
61.127199999999995

> <JCHEM_ROTATABLE_BOND_COUNT>
9

> <JCHEM_RULE_OF_FIVE>
1

> <ALOGPS_SOLUBILITY>
2.13e+01 g/l

> <JCHEM_TRADITIONAL_IUPAC>
biotin

> <JCHEM_VEBER_RULE>
0

> <DRUGBANK_ID>
DB04182

> <SECONDARY_ACCESSION_NUMBERS>
EXPT01982

> <DRUG_GROUPS>
experimental

> <GENERIC_NAME>
(S)-2-Amino-4-[(2s,3r)-2,3,5-Trihydroxy-4-Oxo-Pentyl]Mercapto-Butyric Acid

$$$$
