
  Mrv0541 05061306082D          

 13 15  0  0  0  0            999 V2000
    4.2139    3.5638    0.0000 C   0  0  0  0  0  0  0  0  0  0  0  0
    5.4962    1.7974    0.0000 C   0  0  0  0  0  0  0  0  0  0  0  0
    5.2568    2.5869    0.0000 C   0  0  0  0  0  0  0  0  0  0  0  0
    4.9322    1.1953    0.0000 C   0  0  0  0  0  0  0  0  0  0  0  0
    2.4068    2.6864    0.0000 C   0  0  0  0  0  0  0  0  0  0  0  0
    4.4534    2.7743    0.0000 C   0  0  0  0  0  0  0  0  0  0  0  0
    4.1288    1.3827    0.0000 C   0  0  0  0  0  0  0  0  0  0  0  0
    3.8894    2.1722    0.0000 C   0  0  0  0  0  0  0  0  0  0  0  0
    2.7942    1.4090    0.0000 C   0  0  0  0  0  0  0  0  0  0  0  0
    1.7299    2.2148    0.0000 N   0  0  0  0  0  0  0  0  0  0  0  0
    1.9693    1.4253    0.0000 N   0  0  0  0  0  0  0  0  0  0  0  0
    3.0645    2.1885    0.0000 N   0  0  0  0  0  0  0  0  0  0  0  0
    3.4519    0.9110    0.0000 S   0  0  0  0  0  0  0  0  0  0  0  0
  3  2  2  0  0  0  0
  4  2  1  0  0  0  0
  6  1  1  0  0  0  0
  6  3  1  0  0  0  0
  7  4  2  0  0  0  0
  8  6  2  0  0  0  0
  8  7  1  0  0  0  0
 10  5  2  0  0  0  0
 11  9  2  0  0  0  0
 11 10  1  0  0  0  0
 12  5  1  0  0  0  0
 12  8  1  0  0  0  0
 12  9  1  0  0  0  0
 13  7  1  0  0  0  0
 13  9  1  0  0  0  0
M  END
> <DATABASE_ID>
DB02891

> <DATABASE_NAME>
drugbank

> <SMILES>
CC1=C2N3C=NN=C3SC2=CC=C1

> <INCHI_IDENTIFIER>
InChI=1S/C9H7N3S/c1-6-3-2-4-7-8(6)12-5-10-11-9(12)13-7/h2-5H,1H3

> <INCHI_KEY>
DQJCHOQLCLEDLL-UHFFFAOYSA-N

> <FORMULA>
C9H7N3S

> <MOLECULAR_WEIGHT>
189.237

> <EXACT_MASS>
189.036067929

> <JCHEM_ACCEPTOR_COUNT>
2

> <JCHEM_ATOM_COUNT>
20

> <JCHEM_AVERAGE_NEUTRAL_MICROSPECIES_CHARGE>
6.82439379599876e-07

> <JCHEM_AVERAGE_POLARIZABILITY>
18.842567067938948

> <JCHEM_BIOAVAILABILITY>
1

> <JCHEM_DONOR_COUNT>
0

> <JCHEM_FORMAL_CHARGE>
0

> <JCHEM_GHOSE_FILTER>
1

> <JCHEM_IUPAC>
12-methyl-7-thia-2,4,5-triazatricyclo[6.4.0.0^{2,6}]dodeca-1(12),3,5,8,10-pentaene

> <ALOGPS_LOGP>
1.35

> <JCHEM_LOGP>
1.4712044383333334

> <ALOGPS_LOGS>
-2.07

> <JCHEM_MDDR_LIKE_RULE>
0

> <JCHEM_NEUTRAL_CHARGE>
0

> <JCHEM_NUMBER_OF_RINGS>
3

> <JCHEM_PHYSIOLOGICAL_CHARGE>
0

> <JCHEM_PKA_STRONGEST_BASIC>
0.8424088289777159

> <JCHEM_POLAR_SURFACE_AREA>
30.19

> <JCHEM_REFRACTIVITY>
64.88159999999999

> <JCHEM_ROTATABLE_BOND_COUNT>
0

> <JCHEM_RULE_OF_FIVE>
1

> <ALOGPS_SOLUBILITY>
1.60e+00 g/l

> <JCHEM_TRADITIONAL_IUPAC>
biotin

> <JCHEM_VEBER_RULE>
1

> <DRUGBANK_ID>
DB02891

> <SECONDARY_ACCESSION_NUMBERS>
EXPT00658

> <DRUG_GROUPS>
experimental; investigational

> <GENERIC_NAME>
Tricyclazole

> <SYNONYMS>
2,7,8,9-tricyclazole; 5-methyl-1,2,4-triazolo(3,4-b)(1,3)benzothiazole; 5-methyl-1,2,4-triazolo(3,4-b)benzothiazole; Beam; Tricyclazone

$$$$
