
  Mrv0541 05041405102D          

 45 52  0  0  0  0            999 V2000
    3.7112   -0.5013    0.0000 C   0  0  0  0  0  0  0  0  0  0  0  0
    8.5822   -1.0004    0.0000 C   0  0  0  0  0  0  0  0  0  0  0  0
    5.3797   -0.5182    0.0000 C   0  0  0  0  0  0  0  0  0  0  0  0
    7.9894    1.6329    0.0000 C   0  0  0  0  0  0  0  0  0  0  0  0
    0.9851    0.9272    0.0000 C   0  0  0  0  0  0  0  0  0  0  0  0
    5.2063   -3.5663    0.0000 C   0  0  0  0  0  0  0  0  0  0  0  0
    3.6678    0.3079    0.0000 C   0  0  0  0  0  0  0  0  0  0  0  0
    7.7359   -1.0858    0.0000 C   0  0  0  0  0  0  0  0  0  0  0  0
    5.0006    0.2426    0.0000 C   0  0  0  0  0  0  0  0  0  0  0  0
    7.8094    0.8031    0.0000 C   0  0  0  0  0  0  0  0  0  0  0  0
    0.8333   -0.9178    0.0000 C   0  0  0  0  0  0  0  0  0  0  0  0
    3.3460   -3.4791    0.0000 C   0  0  0  0  0  0  0  0  0  0  0  0
    0.0387   -0.6141    0.0000 C   0  0  0  0  0  0  0  0  0  0  0  0
    3.5468   -4.3064    0.0000 C   0  0  0  0  0  0  0  0  0  0  0  0
    2.9495    1.4992    0.0000 C   0  0  0  0  0  0  0  0  0  0  0  0
    5.7385   -1.6795    0.0000 C   0  0  0  0  0  0  0  0  0  0  0  0
    5.9333    1.3044    0.0000 C   0  0  0  0  0  0  0  0  0  0  0  0
    2.7546   -1.4847    0.0000 C   0  0  0  0  0  0  0  0  0  0  0  0
    1.6294    0.3584    0.0000 C   0  0  0  0  0  0  0  0  0  0  0  0
    4.7186   -2.8585    0.0000 C   0  0  0  0  0  0  0  0  0  0  0  0
    3.8671    1.1123    0.0000 C   0  0  0  0  0  0  0  0  0  0  0  0
    7.0586   -0.5388    0.0000 C   0  0  0  0  0  0  0  0  0  0  0  0
    4.6904    1.0585    0.0000 C   0  0  0  0  0  0  0  0  0  0  0  0
    7.1124    0.2845    0.0000 C   0  0  0  0  0  0  0  0  0  0  0  0
    1.5756   -0.4648    0.0000 C   0  0  0  0  0  0  0  0  0  0  0  0
    3.8954   -2.8048    0.0000 C   0  0  0  0  0  0  0  0  0  0  0  0
    2.4289    0.5617    0.0000 C   0  0  0  0  0  0  0  0  0  0  0  0
    5.0241   -2.0922    0.0000 C   0  0  0  0  0  0  0  0  0  0  0  0
    3.6638    1.9119    0.0000 C   0  0  0  0  0  0  0  0  0  0  0  0
    6.2590   -0.7421    0.0000 C   0  0  0  0  0  0  0  0  0  0  0  0
    4.9959    1.8249    0.0000 C   0  0  0  0  0  0  0  0  0  0  0  0
    6.3460    0.5900    0.0000 C   0  0  0  0  0  0  0  0  0  0  0  0
    2.3420   -0.7703    0.0000 C   0  0  0  0  0  0  0  0  0  0  0  0
    3.6921   -2.0052    0.0000 C   0  0  0  0  0  0  0  0  0  0  0  0
   -0.6017   -1.1342    0.0000 C   0  0  0  0  0  0  0  0  0  0  0  0
    2.9497   -4.8757    0.0000 C   0  0  0  0  0  0  0  0  0  0  0  0
    4.3598    0.1518    0.0000 Fe  0  0  0  0  0  0  0  0  0  0  0  0
    2.8693   -0.1359    0.0000 N   0  0  0  0  0  0  0  0  0  0  0  0
    4.3897   -1.5648    0.0000 N   0  0  0  0  0  0  0  0  0  0  0  0
    4.3615    2.3523    0.0000 N   0  0  0  0  0  0  0  0  0  0  0  0
    5.8186   -0.0444    0.0000 N   0  0  0  0  0  0  0  0  0  0  0  0
   -0.4715   -1.9489    0.0000 O   0  0  0  0  0  0  0  0  0  0  0  0
   -1.3723   -0.8397    0.0000 O   0  0  0  0  0  0  0  0  0  0  0  0
    3.1443   -5.6775    0.0000 O   0  0  0  0  0  0  0  0  0  0  0  0
    2.1581   -4.6433    0.0000 O   0  0  0  0  0  0  0  0  0  0  0  0
  7  1  2  0  0  0  0
  8  2  2  0  0  0  0
  9  3  2  0  0  0  0
 10  4  2  0  0  0  0
 13 11  1  0  0  0  0
 14 12  1  0  0  0  0
 19  5  1  0  0  0  0
 20  6  1  0  0  0  0
 21  7  1  0  0  0  0
 22  8  1  0  0  0  0
 23  9  1  0  0  0  0
 23 21  2  0  0  0  0
 24 10  1  0  0  0  0
 24 22  1  0  0  0  0
 25 11  1  0  0  0  0
 25 19  1  0  0  0  0
 26 12  1  0  0  0  0
 26 20  2  0  0  0  0
 27 15  1  0  0  0  0
 27 19  2  0  0  0  0
 28 16  2  0  0  0  0
 28 20  1  0  0  0  0
 29 15  2  0  0  0  0
 29 21  1  0  0  0  0
 30 16  1  0  0  0  0
 30 22  2  0  0  0  0
 31 17  2  0  0  0  0
 31 23  1  0  0  0  0
 32 17  1  0  0  0  0
 32 24  2  0  0  0  0
 33 18  1  0  0  0  0
 33 25  2  0  0  0  0
 34 18  2  0  0  0  0
 34 26  1  0  0  0  0
 35 13  1  0  0  0  0
 36 14  1  0  0  0  0
 38 27  1  0  0  0  0
 38 33  1  0  0  0  0
 38 37  1  0  0  0  0
 39 28  1  0  0  0  0
 39 34  1  0  0  0  0
 39 37  1  0  0  0  0
 40 29  1  0  0  0  0
 40 31  1  0  0  0  0
 40 37  1  0  0  0  0
 41 30  1  0  0  0  0
 41 32  1  0  0  0  0
 41 37  1  0  0  0  0
 42 35  1  0  0  0  0
 43 35  2  0  0  0  0
 44 36  1  0  0  0  0
 45 36  2  0  0  0  0
M  END
> <DATABASE_ID>
DB02199

> <DATABASE_NAME>
drugbank

> <SMILES>
CC1=C(CCC(O)=O)C2=CC3=C(CCC(O)=O)C(C)=C4C=C5N6C(=CC7=C(C=C)C(C=C)=C8C=C1N2[Fe]6(N34)N78)C(C=C)=C5C=C

> <INCHI_IDENTIFIER>
InChI=1S/C36H32N4O4.Fe/c1-7-21-23(9-3)31-17-32-24(10-4)22(8-2)30(40-32)16-28-20(6)26(12-14-36(43)44)34(38-28)18-33-25(11-13-35(41)42)19(5)27(37-33)15-29(21)39-31;/h7-10,15-18H,1-4,11-14H2,5-6H3,(H,41,42)(H,43,44);/q-4;+4/b27-15-,28-16-,29-15-,30-16-,31-17-,32-17-,33-18-,34-18-;

> <INCHI_KEY>
QAAYYMOFLAXZMF-ZSQORRHCSA-N

> <FORMULA>
C36H32FeN4O4

> <MOLECULAR_WEIGHT>
640.509

> <EXACT_MASS>
640.177297665

> <JCHEM_ACCEPTOR_COUNT>
4

> <JCHEM_ATOM_COUNT>
77

> <JCHEM_AVERAGE_NEUTRAL_MICROSPECIES_CHARGE>
-1.9985771969977655

> <JCHEM_AVERAGE_POLARIZABILITY>
72.04459066981687

> <JCHEM_BIOAVAILABILITY>
0

> <JCHEM_DONOR_COUNT>
2

> <JCHEM_FORMAL_CHARGE>
0

> <JCHEM_GHOSE_FILTER>
0

> <JCHEM_IUPAC>
3-[20-(2-carboxyethyl)-9,10,14,15-tetraethenyl-5,19-dimethyl-2,22,23,25-tetraaza-1-ferraoctacyclo[11.9.1.1^{1,8}.1^{3,21}.0^{2,6}.0^{16,23}.0^{18,22}.0^{11,25}]pentacosa-3,5,7,9,11,13,15,17,19,21(24)-decaen-4-yl]propanoic acid

> <ALOGPS_LOGP>
4.31

> <JCHEM_LOGP>
9.025599999999999

> <ALOGPS_LOGS>
-3.67

> <JCHEM_MDDR_LIKE_RULE>
1

> <JCHEM_NEUTRAL_CHARGE>
-2

> <JCHEM_NUMBER_OF_RINGS>
8

> <JCHEM_PHYSIOLOGICAL_CHARGE>
-2

> <JCHEM_PKA>
4.278563787726539

> <JCHEM_PKA_STRONGEST_ACIDIC>
3.67609329343359

> <JCHEM_POLAR_SURFACE_AREA>
94.32

> <JCHEM_REFRACTIVITY>
179.05960000000005

> <JCHEM_ROTATABLE_BOND_COUNT>
10

> <JCHEM_RULE_OF_FIVE>
0

> <ALOGPS_SOLUBILITY>
1.36e-01 g/l

> <JCHEM_TRADITIONAL_IUPAC>
biotin

> <JCHEM_VEBER_RULE>
0

> <DRUGBANK_ID>
DB02199

> <SECONDARY_ACCESSION_NUMBERS>
EXPT01729

> <DRUG_GROUPS>
experimental

> <GENERIC_NAME>
1,3-Dedimethyl-1,3-Divinyl Heme

$$$$
