
  Mrv0541 05281413042D          

 30 31  0  0  0  0            999 V2000
    2.8578    2.4750    0.0000 C   0  0  0  0  0  0  0  0  0  0  0  0
    2.1434    2.0625    0.0000 C   0  0  0  0  0  0  0  0  0  0  0  0
    3.5723    2.0625    0.0000 C   0  0  0  0  0  0  0  0  0  0  0  0
    1.4289    2.4750    0.0000 C   0  0  0  0  0  0  0  0  0  0  0  0
    7.8591    2.0625    0.0000 C   0  0  0  0  0  0  0  0  0  0  0  0
   -2.8578    2.4750    0.0000 C   0  0  0  0  0  0  0  0  0  0  0  0
    8.5736    2.4750    0.0000 C   0  0  0  0  0  0  0  0  0  0  0  0
   -3.5723    2.0625    0.0000 C   0  0  0  0  0  0  0  0  0  0  0  0
    4.2868    2.4750    0.0000 C   0  0  0  0  0  0  0  0  0  0  0  0
    0.7144    2.0625    0.0000 C   0  0  0  0  0  0  0  0  0  0  0  0
    7.1447    3.3000    0.0000 C   0  0  0  0  0  0  0  0  0  0  0  0
   -2.1434    1.2375    0.0000 C   0  0  0  0  0  0  0  0  0  0  0  0
    5.7157    2.4750    0.0000 C   0  0  0  0  0  0  0  0  0  0  0  0
   -0.7144    2.0625    0.0000 C   0  0  0  0  0  0  0  0  0  0  0  0
    7.1447    2.4750    0.0000 C   0  0  0  0  0  0  0  0  0  0  0  0
   -2.1434    2.0625    0.0000 C   0  0  0  0  0  0  0  0  0  0  0  0
    8.5736    3.3000    0.0000 C   0  0  0  0  0  0  0  0  0  0  0  0
   -3.5723    1.2375    0.0000 C   0  0  0  0  0  0  0  0  0  0  0  0
    7.8591    3.7125    0.0000 C   0  0  0  0  0  0  0  0  0  0  0  0
   -2.8578    0.8250    0.0000 C   0  0  0  0  0  0  0  0  0  0  0  0
    6.4302    2.0625    0.0000 C   0  0  0  0  0  0  0  0  0  0  0  0
   -1.4289    2.4750    0.0000 C   0  0  0  0  0  0  0  0  0  0  0  0
    5.0012    2.0625    0.0000 N   0  0  0  0  0  0  0  0  0  0  0  0
    0.0000    2.4750    0.0000 N   0  0  0  0  0  0  0  0  0  0  0  0
    9.2881    3.7125    0.0000 O   0  0  0  0  0  0  0  0  0  0  0  0
   -4.2868    0.8250    0.0000 O   0  0  0  0  0  0  0  0  0  0  0  0
    7.8591    4.5375    0.0000 O   0  0  0  0  0  0  0  0  0  0  0  0
   -2.8578    0.0000    0.0000 O   0  0  0  0  0  0  0  0  0  0  0  0
    6.4302    1.2375    0.0000 O   0  0  0  0  0  0  0  0  0  0  0  0
   -1.4289    3.3000    0.0000 O   0  0  0  0  0  0  0  0  0  0  0  0
  2  1  1  0  0  0  0
  3  1  1  0  0  0  0
  4  2  1  0  0  0  0
  7  5  2  0  0  0  0
  8  6  2  0  0  0  0
  9  3  1  0  0  0  0
 10  4  1  0  0  0  0
 15  5  1  0  0  0  0
 15 11  2  0  0  0  0
 16  6  1  0  0  0  0
 16 12  2  0  0  0  0
 17  7  1  0  0  0  0
 18  8  1  0  0  0  0
 19 11  1  0  0  0  0
 19 17  2  0  0  0  0
 20 12  1  0  0  0  0
 20 18  2  0  0  0  0
 21 13  1  0  0  0  0
 21 15  1  0  0  0  0
 22 14  1  0  0  0  0
 22 16  1  0  0  0  0
 23  9  1  0  0  0  0
 23 13  1  0  0  0  0
 24 10  1  0  0  0  0
 24 14  1  0  0  0  0
 25 17  1  0  0  0  0
 26 18  1  0  0  0  0
 27 19  1  0  0  0  0
 28 20  1  0  0  0  0
 29 21  1  0  0  0  0
 30 22  1  0  0  0  0
M  END
> <DATABASE_ID>
DB08957

> <DATABASE_NAME>
drugbank

> <SMILES>
OC(CNCCCCCCNCC(O)C1=CC(O)=C(O)C=C1)C1=CC(O)=C(O)C=C1

> <INCHI_IDENTIFIER>
InChI=1S/C22H32N2O6/c25-17-7-5-15(11-19(17)27)21(29)13-23-9-3-1-2-4-10-24-14-22(30)16-6-8-18(26)20(28)12-16/h5-8,11-12,21-30H,1-4,9-10,13-14H2

> <INCHI_KEY>
OXLZNBCNGJWPRV-UHFFFAOYSA-N

> <FORMULA>
C22H32N2O6

> <MOLECULAR_WEIGHT>
420.4993

> <EXACT_MASS>
420.226036766

> <JCHEM_ACCEPTOR_COUNT>
8

> <JCHEM_ATOM_COUNT>
62

> <JCHEM_AVERAGE_NEUTRAL_MICROSPECIES_CHARGE>
1.9665975549736072

> <JCHEM_AVERAGE_POLARIZABILITY>
45.95956498304318

> <JCHEM_BIOAVAILABILITY>
0

> <JCHEM_DONOR_COUNT>
8

> <JCHEM_FORMAL_CHARGE>
0

> <JCHEM_GHOSE_FILTER>
1

> <JCHEM_IUPAC>
4-{2-[(6-{[2-(3,4-dihydroxyphenyl)-2-hydroxyethyl]amino}hexyl)amino]-1-hydroxyethyl}benzene-1,2-diol

> <ALOGPS_LOGP>
1.14

> <JCHEM_LOGP>
0.21793020466054183

> <ALOGPS_LOGS>
-3.33

> <JCHEM_MDDR_LIKE_RULE>
0

> <JCHEM_NEUTRAL_CHARGE>
2

> <JCHEM_NUMBER_OF_RINGS>
2

> <JCHEM_PHYSIOLOGICAL_CHARGE>
2

> <JCHEM_PKA>
9.188558389974705

> <JCHEM_PKA_STRONGEST_ACIDIC>
8.685962897108913

> <JCHEM_PKA_STRONGEST_BASIC>
10.177128940899111

> <JCHEM_POLAR_SURFACE_AREA>
145.44

> <JCHEM_REFRACTIVITY>
115.20359999999997

> <JCHEM_ROTATABLE_BOND_COUNT>
13

> <JCHEM_RULE_OF_FIVE>
0

> <ALOGPS_SOLUBILITY>
1.99e-01 g/l

> <JCHEM_TRADITIONAL_IUPAC>
biotin

> <JCHEM_VEBER_RULE>
0

> <DRUGBANK_ID>
DB08957

> <DRUG_GROUPS>
experimental; withdrawn

> <GENERIC_NAME>
Hexoprenaline

> <SYNONYMS>
Hexoprenaline

> <INTERNATIONAL_BRANDS>
Argocian; Etoscol; Gynipral; Hexoline; Ipradol; Taicopin

> <SALTS>
Hexoprenaline sulfate

$$$$
