
  Mrv0541 05061309162D          

 15 16  0  0  0  0            999 V2000
    3.4036    3.9574    0.0000 C   0  0  0  0  0  0  0  0  0  0  0  0
    4.5208    3.0665    0.0000 C   0  0  0  0  0  0  0  0  0  0  0  0
    2.2027    0.0699    0.0000 C   0  0  0  0  0  0  0  0  0  0  0  0
    0.7017    3.2532    0.0000 C   0  0  0  0  0  0  0  0  0  0  0  0
    3.1906    1.0578    0.0000 C   0  0  0  0  0  0  0  0  0  0  0  0
    0.4717    1.8011    0.0000 C   0  0  0  0  0  0  0  0  0  0  0  0
    3.5485    1.8011    0.0000 C   0  0  0  0  0  0  0  0  0  0  0  0
    0.9566    1.1337    0.0000 C   0  0  0  0  0  0  0  0  0  0  0  0
    2.3863    2.7280    0.0000 C   0  0  0  0  0  0  0  0  0  0  0  0
    3.7050    3.1894    0.0000 C   0  0  0  0  0  0  0  0  0  0  0  0
    2.3863    0.8742    0.0000 C   0  0  0  0  0  0  0  0  0  0  0  0
    0.9566    2.4686    0.0000 C   0  0  0  0  0  0  0  0  0  0  0  0
    3.1906    2.5444    0.0000 C   0  0  0  0  0  0  0  0  0  0  0  0
    1.7413    1.3886    0.0000 C   0  0  0  0  0  0  0  0  0  0  0  0
    1.7413    2.2136    0.0000 C   0  0  0  0  0  0  0  0  0  0  0  0
  7  5  2  0  0  0  0
  8  6  2  0  0  0  0
 10  1  1  0  0  0  0
 10  2  1  0  0  0  0
 11  3  1  0  0  0  0
 11  5  1  0  0  0  0
 12  4  1  0  0  0  0
 12  6  1  0  0  0  0
 13  7  1  0  0  0  0
 13  9  2  0  0  0  0
 13 10  1  0  0  0  0
 14  8  1  0  0  0  0
 14 11  2  0  0  0  0
 15  9  1  0  0  0  0
 15 12  2  0  0  0  0
 15 14  1  0  0  0  0
M  END
> <DATABASE_ID>
DB13329

> <DATABASE_NAME>
drugbank

> <SMILES>
CC(C)C1=CC2=C(C)C=CC2=C(C)C=C1

> <INCHI_IDENTIFIER>
InChI=1S/C15H18/c1-10(2)13-7-5-11(3)14-8-6-12(4)15(14)9-13/h5-10H,1-4H3

> <INCHI_KEY>
FWKQNCXZGNBPFD-UHFFFAOYSA-N

> <FORMULA>
C15H18

> <MOLECULAR_WEIGHT>
198.3034

> <EXACT_MASS>
198.140850576

> <JCHEM_ACCEPTOR_COUNT>
0

> <JCHEM_ATOM_COUNT>
33

> <JCHEM_AVERAGE_NEUTRAL_MICROSPECIES_CHARGE>
0.0

> <JCHEM_AVERAGE_POLARIZABILITY>
25.033583274767317

> <JCHEM_BIOAVAILABILITY>
1

> <JCHEM_DONOR_COUNT>
0

> <JCHEM_FORMAL_CHARGE>
0

> <JCHEM_GHOSE_FILTER>
1

> <JCHEM_IUPAC>
1,4-dimethyl-7-(propan-2-yl)azulene

> <ALOGPS_LOGP>
4.99

> <JCHEM_LOGP>
5.234574501999999

> <ALOGPS_LOGS>
-3.15

> <JCHEM_MDDR_LIKE_RULE>
0

> <JCHEM_NEUTRAL_CHARGE>
0

> <JCHEM_NUMBER_OF_RINGS>
2

> <JCHEM_PHYSIOLOGICAL_CHARGE>
0

> <JCHEM_POLAR_SURFACE_AREA>
0.0

> <JCHEM_REFRACTIVITY>
66.78140000000002

> <JCHEM_ROTATABLE_BOND_COUNT>
1

> <JCHEM_RULE_OF_FIVE>
0

> <ALOGPS_SOLUBILITY>
1.40e-01 g/l

> <JCHEM_TRADITIONAL_IUPAC>
biotin

> <JCHEM_VEBER_RULE>
1

> <DRUGBANK_ID>
DB13329

> <DRUG_GROUPS>
experimental

> <GENERIC_NAME>
Guaiazulen

> <SYNONYMS>
Guaiazulene

$$$$
