
  Mrv0541 02231215442D          

 11 10  0  0  1  0            999 V2000
    1.7605   -1.0164    0.0000 C   0  0  0  0  0  0  0  0  0  0  0  0
    2.4750   -1.4289    0.0000 C   0  0  0  0  0  0  0  0  0  0  0  0
    3.1895   -1.0164    0.0000 O   0  0  0  0  0  0  0  0  0  0  0  0
    3.9039   -1.4289    0.0000 P   0  0  2  0  0  0  0  0  0  0  0  0
    3.4914   -2.1434    0.0000 O   0  0  0  0  0  0  0  0  0  0  0  0
    4.3164   -0.7145    0.0000 O   0  0  0  0  0  0  0  0  0  0  0  0
    4.6184   -1.8414    0.0000 O   0  0  0  0  0  0  0  0  0  0  0  0
    5.3329   -1.4289    0.0000 P   0  0  0  0  0  0  0  0  0  0  0  0
    6.0474   -1.0164    0.0000 O   0  0  0  0  0  0  0  0  0  0  0  0
    5.7454   -2.1434    0.0000 O   0  0  0  0  0  0  0  0  0  0  0  0
    4.9204   -0.7145    0.0000 O   0  0  0  0  0  0  0  0  0  0  0  0
  1  2  1  0  0  0  0
  2  3  1  0  0  0  0
  4  3  1  6  0  0  0
  4  5  1  1  0  0  0
  4  6  2  0  0  0  0
  4  7  1  0  0  0  0
  7  8  1  0  0  0  0
  8  9  1  0  0  0  0
  8 10  1  0  0  0  0
  8 11  2  0  0  0  0
M  END
> <DATABASE_ID>
DB01798

> <DATABASE_NAME>
drugbank

> <SMILES>
CCO[P@](O)(=O)OP(O)(O)=O

> <INCHI_IDENTIFIER>
InChI=1S/C2H8O7P2/c1-2-8-11(6,7)9-10(3,4)5/h2H2,1H3,(H,6,7)(H2,3,4,5)

> <INCHI_KEY>
OJDJHGIXNZPZFD-UHFFFAOYSA-N

> <FORMULA>
C2H8O7P2

> <MOLECULAR_WEIGHT>
206.0282

> <EXACT_MASS>
205.974525634

> <JCHEM_ACCEPTOR_COUNT>
5

> <JCHEM_ATOM_COUNT>
19

> <JCHEM_AVERAGE_NEUTRAL_MICROSPECIES_CHARGE>
-2.429924154946529

> <JCHEM_AVERAGE_POLARIZABILITY>
14.346454790294278

> <JCHEM_BIOAVAILABILITY>
1

> <JCHEM_DONOR_COUNT>
3

> <JCHEM_FORMAL_CHARGE>
0

> <JCHEM_GHOSE_FILTER>
0

> <JCHEM_IUPAC>
{[ethoxy(hydroxy)phosphoryl]oxy}phosphonic acid

> <ALOGPS_LOGP>
-0.30

> <JCHEM_LOGP>
-0.7071336243333333

> <ALOGPS_LOGS>
-1.20

> <JCHEM_MDDR_LIKE_RULE>
0

> <JCHEM_NEUTRAL_CHARGE>
-2

> <JCHEM_NUMBER_OF_RINGS>
0

> <JCHEM_PHYSIOLOGICAL_CHARGE>
-3

> <JCHEM_PKA>
3.222357322439834

> <JCHEM_PKA_STRONGEST_ACIDIC>
1.7801089769518073

> <JCHEM_POLAR_SURFACE_AREA>
113.29000000000002

> <JCHEM_REFRACTIVITY>
34.755700000000004

> <JCHEM_ROTATABLE_BOND_COUNT>
4

> <JCHEM_RULE_OF_FIVE>
1

> <ALOGPS_SOLUBILITY>
1.30e+01 g/l

> <JCHEM_TRADITIONAL_IUPAC>
biotin

> <JCHEM_VEBER_RULE>
0

> <DRUGBANK_ID>
DB01798

> <SECONDARY_ACCESSION_NUMBERS>
EXPT02470

> <DRUG_GROUPS>
experimental

> <GENERIC_NAME>
Ethyl Dihydrogen Diphosphate

$$$$
