
  Mrv0541 05041404182D          

 17 17  0  0  1  0            999 V2000
    2.1434    1.2375    0.0000 C   0  0  0  0  0  0  0  0  0  0  0  0
    1.4289    0.8250    0.0000 C   0  0  2  0  0  0  0  0  0  0  0  0
    0.0000    0.0000    0.0000 C   0  0  2  0  0  0  0  0  0  0  0  0
    0.7145    1.2375    0.0000 C   0  0  2  0  0  0  0  0  0  0  0  0
    0.0000    0.8250    0.0000 C   0  0  2  0  0  0  0  0  0  0  0  0
    0.7145   -0.4125    0.0000 C   0  0  1  0  0  0  0  0  0  0  0  0
   -0.7145   -0.4125    0.0000 F   0  0  0  0  0  0  0  0  0  0  0  0
    2.1434    2.0625    0.0000 O   0  0  0  0  0  0  0  0  0  0  0  0
    0.7145    2.0625    0.0000 O   0  0  0  0  0  0  0  0  0  0  0  0
   -0.7145    1.2375    0.0000 O   0  0  0  0  0  0  0  0  0  0  0  0
    0.7145   -1.2375    0.0000 O   0  0  0  0  0  0  0  0  0  0  0  0
    1.4289   -0.0000    0.0000 O   0  0  0  0  0  0  0  0  0  0  0  0
    1.1468    1.6002    0.0000 H   0  0  0  0  0  0  0  0  0  0  0  0
   -0.8125    0.1433    0.0000 H   0  0  0  0  0  0  0  0  0  0  0  0
    1.2448    1.8695    0.0000 H   0  0  0  0  0  0  0  0  0  0  0  0
   -0.8125    0.6817    0.0000 H   0  0  0  0  0  0  0  0  0  0  0  0
   -0.0000   -0.8250    0.0000 H   0  0  0  0  0  0  0  0  0  0  0  0
  2  1  1  1  0  0  0
  4  2  1  0  0  0  0
  5  3  1  0  0  0  0
  5  4  1  0  0  0  0
  6  3  1  0  0  0  0
  3  7  1  6  0  0  0
  8  1  1  0  0  0  0
  4  9  1  6  0  0  0
  5 10  1  1  0  0  0
  6 11  1  6  0  0  0
 12  2  1  0  0  0  0
 12  6  1  0  0  0  0
  2 13  1  6  0  0  0
  3 14  1  1  0  0  0
  4 15  1  1  0  0  0
  5 16  1  6  0  0  0
  6 17  1  1  0  0  0
M  END
> <DATABASE_ID>
DB04282

> <DATABASE_NAME>
drugbank

> <SMILES>
[H][C@]1(O)O[C@]([H])(CO)[C@@]([H])(O)[C@]([H])(O)[C@@]1([H])F

> <INCHI_IDENTIFIER>
InChI=1S/C6H11FO5/c7-3-5(10)4(9)2(1-8)12-6(3)11/h2-6,8-11H,1H2/t2-,3-,4-,5-,6+/m1/s1

> <INCHI_KEY>
ZCXUVYAZINUVJD-UKFBFLRUSA-N

> <FORMULA>
C6H11FO5

> <MOLECULAR_WEIGHT>
182.1469

> <EXACT_MASS>
182.059051667

> <JCHEM_ACCEPTOR_COUNT>
5

> <JCHEM_ATOM_COUNT>
23

> <JCHEM_AVERAGE_NEUTRAL_MICROSPECIES_CHARGE>
-9.770311311087173e-05

> <JCHEM_AVERAGE_POLARIZABILITY>
15.442077840461417

> <JCHEM_BIOAVAILABILITY>
1

> <JCHEM_DONOR_COUNT>
4

> <JCHEM_FORMAL_CHARGE>
0

> <JCHEM_GHOSE_FILTER>
0

> <JCHEM_IUPAC>
(2S,3R,4S,5S,6R)-3-fluoro-6-(hydroxymethyl)oxane-2,4,5-triol

> <ALOGPS_LOGP>
-1.86

> <JCHEM_LOGP>
-2.041447444

> <ALOGPS_LOGS>
0.15

> <JCHEM_MDDR_LIKE_RULE>
0

> <JCHEM_NEUTRAL_CHARGE>
0

> <JCHEM_NUMBER_OF_RINGS>
1

> <JCHEM_PHYSIOLOGICAL_CHARGE>
0

> <JCHEM_PKA>
12.619299486046012

> <JCHEM_PKA_STRONGEST_ACIDIC>
11.02198869960997

> <JCHEM_PKA_STRONGEST_BASIC>
-2.9810913523790887

> <JCHEM_POLAR_SURFACE_AREA>
90.15

> <JCHEM_REFRACTIVITY>
34.2313

> <JCHEM_ROTATABLE_BOND_COUNT>
1

> <JCHEM_RULE_OF_FIVE>
1

> <ALOGPS_SOLUBILITY>
2.57e+02 g/l

> <JCHEM_TRADITIONAL_IUPAC>
tetrahydrofolic acid

> <JCHEM_VEBER_RULE>
0

> <DRUGBANK_ID>
DB04282

> <SECONDARY_ACCESSION_NUMBERS>
EXPT01525

> <DRUG_GROUPS>
experimental

> <GENERIC_NAME>
2-deoxy-2-fluoro-Î±-D-glucose

> <SYNONYMS>
2-deoxy-2-fluoro-alpha-D-glucose; 2-DEOXY-2-FLUORO-GLUCOSE

$$$$
