
  Mrv0541 05041405432D          

 16 16  0  0  1  0            999 V2000
   -0.0000    0.0000    0.0000 C   0  0  1  0  0  0  0  0  0  0  0  0
    0.7145   -0.4125    0.0000 C   0  0  0  0  0  0  0  0  0  0  0  0
    0.0000    0.8250    0.0000 C   0  0  2  0  0  0  0  0  0  0  0  0
    1.4289   -0.0000    0.0000 C   0  0  0  0  0  0  0  0  0  0  0  0
    2.1434   -0.4125    0.0000 C   0  0  0  0  0  0  0  0  0  0  0  0
    0.7145    1.2375    0.0000 C   0  0  2  0  0  0  0  0  0  0  0  0
   -0.7145   -0.4125    0.0000 O   0  0  0  0  0  0  0  0  0  0  0  0
    0.7145   -1.2375    0.0000 O   0  0  0  0  0  0  0  0  0  0  0  0
   -0.7145    1.2375    0.0000 O   0  0  0  0  0  0  0  0  0  0  0  0
    2.8579    0.0000    0.0000 O   0  0  0  0  0  0  0  0  0  0  0  0
    2.1434   -1.2375    0.0000 O   0  0  0  0  0  0  0  0  0  0  0  0
    0.7145    2.0625    0.0000 O   0  0  0  0  0  0  0  0  0  0  0  0
    1.4289    0.8250    0.0000 O   0  0  0  0  0  0  0  0  0  0  0  0
   -0.0000   -0.8250    0.0000 H   0  0  0  0  0  0  0  0  0  0  0  0
   -0.7145    0.4125    0.0000 H   0  0  0  0  0  0  0  0  0  0  0  0
    0.0000    1.6500    0.0000 H   0  0  0  0  0  0  0  0  0  0  0  0
  2  1  1  0  0  0  0
  3  1  1  0  0  0  0
  4  2  2  0  0  0  0
  5  4  1  0  0  0  0
  6  3  1  0  0  0  0
  1  7  1  6  0  0  0
  8  2  1  0  0  0  0
  3  9  1  1  0  0  0
 10  5  1  0  0  0  0
 11  5  2  0  0  0  0
  6 12  1  6  0  0  0
 13  4  1  0  0  0  0
 13  6  1  0  0  0  0
  1 14  1  1  0  0  0
  3 15  1  6  0  0  0
  6 16  1  1  0  0  0
M  END
> <DATABASE_ID>
DB03569

> <DATABASE_NAME>
drugbank

> <SMILES>
[H][C@@]1(O)OC(C(O)=O)=C(O)[C@]([H])(O)[C@@]1([H])O

> <INCHI_IDENTIFIER>
InChI=1S/C6H8O7/c7-1-2(8)4(5(10)11)13-6(12)3(1)9/h1,3,6-9,12H,(H,10,11)/t1-,3+,6+/m0/s1

> <INCHI_KEY>
BPCLKHIDDIVGBM-QEMYTOFESA-N

> <FORMULA>
C6H8O7

> <MOLECULAR_WEIGHT>
192.1235

> <EXACT_MASS>
192.02700261

> <JCHEM_ACCEPTOR_COUNT>
7

> <JCHEM_ATOM_COUNT>
21

> <JCHEM_AVERAGE_NEUTRAL_MICROSPECIES_CHARGE>
-1.9148218860070376

> <JCHEM_AVERAGE_POLARIZABILITY>
15.662365111557449

> <JCHEM_BIOAVAILABILITY>
1

> <JCHEM_DONOR_COUNT>
5

> <JCHEM_FORMAL_CHARGE>
0

> <JCHEM_GHOSE_FILTER>
0

> <JCHEM_IUPAC>
(2R,3R,4R)-2,3,4,5-tetrahydroxy-3,4-dihydro-2H-pyran-6-carboxylic acid

> <ALOGPS_LOGP>
-1.77

> <JCHEM_LOGP>
-2.5441828173333336

> <ALOGPS_LOGS>
-0.12

> <JCHEM_MDDR_LIKE_RULE>
0

> <JCHEM_NEUTRAL_CHARGE>
-2

> <JCHEM_NUMBER_OF_RINGS>
1

> <JCHEM_PHYSIOLOGICAL_CHARGE>
-2

> <JCHEM_PKA>
6.041001252912592

> <JCHEM_PKA_STRONGEST_ACIDIC>
2.737361836157265

> <JCHEM_PKA_STRONGEST_BASIC>
-3.827284263387337

> <JCHEM_POLAR_SURFACE_AREA>
127.45000000000002

> <JCHEM_REFRACTIVITY>
38.0441

> <JCHEM_ROTATABLE_BOND_COUNT>
1

> <JCHEM_RULE_OF_FIVE>
1

> <ALOGPS_SOLUBILITY>
1.45e+02 g/l

> <JCHEM_TRADITIONAL_IUPAC>
tetrahydrofolic acid

> <JCHEM_VEBER_RULE>
0

> <DRUGBANK_ID>
DB03569

> <SECONDARY_ACCESSION_NUMBERS>
EXPT01844

> <DRUG_GROUPS>
experimental

> <GENERIC_NAME>
4,5-Dehydro-L-Iduronic Acid

$$$$
