
  Mrv0541 05041411472D          

 47 51  0  0  1  0            999 V2000
    1.4289    4.1250    0.0000 C   0  0  0  0  0  0  0  0  0  0  0  0
    3.0493   10.1724    0.0000 C   0  0  0  0  0  0  0  0  0  0  0  0
   -0.7145    1.2375    0.0000 C   0  0  0  0  0  0  0  0  0  0  0  0
    3.8743   10.1724    0.0000 C   0  0  0  0  0  0  0  0  0  0  0  0
   -0.7145    2.0625    0.0000 C   0  0  0  0  0  0  0  0  0  0  0  0
    2.6368    9.4579    0.0000 C   0  0  0  0  0  0  0  0  0  0  0  0
   -0.0000    0.8250    0.0000 C   0  0  0  0  0  0  0  0  0  0  0  0
    4.2868    9.4579    0.0000 C   0  0  0  0  0  0  0  0  0  0  0  0
    0.0000    2.4750    0.0000 C   0  0  0  0  0  0  0  0  0  0  0  0
    2.6368    8.0289    0.0000 C   0  0  0  0  0  0  0  0  0  0  0  0
    1.4289    0.8250    0.0000 C   0  0  0  0  0  0  0  0  0  0  0  0
    4.2868    4.1250    0.0000 C   0  0  0  0  0  0  0  0  0  0  0  0
    3.0493    7.3145    0.0000 C   0  0  0  0  0  0  0  0  0  0  0  0
    2.1434    1.2375    0.0000 C   0  0  0  0  0  0  0  0  0  0  0  0
    4.2868    4.9500    0.0000 C   0  0  0  0  0  0  0  0  0  0  0  0
    4.2868    8.0289    0.0000 C   0  0  0  0  0  0  0  0  0  0  0  0
    1.4289    2.4750    0.0000 C   0  0  0  0  0  0  0  0  0  0  0  0
    2.8579    4.1250    0.0000 C   0  0  0  0  0  0  0  0  0  0  0  0
   -0.0000    4.9500    0.0000 C   0  0  0  0  0  0  0  0  0  0  0  0
    3.0493    8.7434    0.0000 C   0  0  0  0  0  0  0  0  0  0  0  0
    0.7145    1.2375    0.0000 C   0  0  0  0  0  0  0  0  0  0  0  0
    3.8743    8.7434    0.0000 C   0  0  0  0  0  0  0  0  0  0  0  0
    0.7145    2.0625    0.0000 C   0  0  0  0  0  0  0  0  0  0  0  0
    3.5724    3.7125    0.0000 C   0  0  0  0  0  0  0  0  0  0  0  0
    3.8743    7.3145    0.0000 C   0  0  0  0  0  0  0  0  0  0  0  0
    2.1434    2.0625    0.0000 C   0  0  0  0  0  0  0  0  0  0  0  0
    2.8579    4.9500    0.0000 C   0  0  0  0  0  0  0  0  0  0  0  0
    3.5724    5.3625    0.0000 C   0  0  0  0  0  0  0  0  0  0  0  0
    0.7145    5.3625    0.0000 C   0  0  1  0  0  0  0  0  0  0  0  0
   -0.7145    5.3625    0.0000 C   0  0  0  0  0  0  0  0  0  0  0  0
    2.1434    5.3625    0.0000 C   0  0  0  0  0  0  0  0  0  0  0  0
    0.7145    6.1875    0.0000 C   0  0  0  0  0  0  0  0  0  0  0  0
    3.5724    6.1875    0.0000 N   0  0  0  0  0  0  0  0  0  0  0  0
    1.4289    4.9500    0.0000 N   0  0  0  0  0  0  0  0  0  0  0  0
   -1.4289    4.9500    0.0000 O   0  0  0  0  0  0  0  0  0  0  0  0
   -0.7145    6.1875    0.0000 O   0  0  0  0  0  0  0  0  0  0  0  0
    2.1434    6.1875    0.0000 O   0  0  0  0  0  0  0  0  0  0  0  0
    1.4289    6.6000    0.0000 O   0  0  0  0  0  0  0  0  0  0  0  0
   -0.0000    6.6000    0.0000 O   0  0  0  0  0  0  0  0  0  0  0  0
    4.6993    5.8855    0.0000 O   0  0  0  0  0  0  0  0  0  0  0  0
    5.0013    7.0125    0.0000 O   0  0  0  0  0  0  0  0  0  0  0  0
    2.4454    3.1895    0.0000 O   0  0  0  0  0  0  0  0  0  0  0  0
    3.2704    1.7605    0.0000 O   0  0  0  0  0  0  0  0  0  0  0  0
    3.5724    2.8875    0.0000 O   0  0  0  0  0  0  0  0  0  0  0  0
    4.2868    6.6000    0.0000 S   0  0  0  0  0  0  0  0  0  0  0  0
    2.8579    2.4750    0.0000 S   0  0  0  0  0  0  0  0  0  0  0  0
   -0.0000    5.7750    0.0000 H   0  0  0  0  0  0  0  0  0  0  0  0
  4  2  2  0  0  0  0
  5  3  2  0  0  0  0
  6  2  1  0  0  0  0
  7  3  1  0  0  0  0
  8  4  1  0  0  0  0
  9  5  1  0  0  0  0
 13 10  2  0  0  0  0
 14 11  2  0  0  0  0
 15 12  2  0  0  0  0
 20  6  2  0  0  0  0
 20 10  1  0  0  0  0
 21  7  2  0  0  0  0
 21 11  1  0  0  0  0
 22  8  2  0  0  0  0
 22 16  1  0  0  0  0
 22 20  1  0  0  0  0
 23  9  2  0  0  0  0
 23 17  1  0  0  0  0
 23 21  1  0  0  0  0
 24 12  1  0  0  0  0
 24 18  2  0  0  0  0
 25 13  1  0  0  0  0
 25 16  2  0  0  0  0
 26 14  1  0  0  0  0
 26 17  2  0  0  0  0
 27 18  1  0  0  0  0
 28 15  1  0  0  0  0
 28 27  2  0  0  0  0
 29 19  1  0  0  0  0
 30 19  1  0  0  0  0
 31 27  1  0  0  0  0
 32 29  1  0  0  0  0
 33 28  1  0  0  0  0
 34  1  1  0  0  0  0
 29 34  1  6  0  0  0
 34 31  1  0  0  0  0
 35 30  2  0  0  0  0
 36 30  1  0  0  0  0
 37 31  2  0  0  0  0
 38 32  2  0  0  0  0
 39 32  1  0  0  0  0
 44 24  1  0  0  0  0
 45 25  1  0  0  0  0
 45 33  1  0  0  0  0
 45 40  2  0  0  0  0
 45 41  2  0  0  0  0
 46 26  1  0  0  0  0
 46 42  2  0  0  0  0
 46 43  2  0  0  0  0
 46 44  1  0  0  0  0
 29 47  1  6  0  0  0
M  END
> <DATABASE_ID>
DB01879

> <DATABASE_NAME>
drugbank

> <SMILES>
[H][C@@](CC(O)=O)(N(C)C(=O)C1=C(NS(=O)(=O)C2=CC3=CC=CC=C3C=C2)C=CC(OS(=O)(=O)C2=CC3=CC=CC=C3C=C2)=C1)C(O)=O

> <INCHI_IDENTIFIER>
InChI=1S/C32H26N2O10S2/c1-34(29(32(38)39)19-30(35)36)31(37)27-18-24(44-46(42,43)26-14-11-21-7-3-5-9-23(21)17-26)12-15-28(27)33-45(40,41)25-13-10-20-6-2-4-8-22(20)16-25/h2-18,29,33H,19H2,1H3,(H,35,36)(H,38,39)/t29-/m0/s1

> <INCHI_KEY>
JOAALZBSMWLOPQ-LJAQVGFWSA-N

> <FORMULA>
C32H26N2O10S2

> <MOLECULAR_WEIGHT>
662.686

> <EXACT_MASS>
662.102886442

> <JCHEM_ACCEPTOR_COUNT>
9

> <JCHEM_ATOM_COUNT>
72

> <JCHEM_AVERAGE_NEUTRAL_MICROSPECIES_CHARGE>
-2.9894186228418644

> <JCHEM_AVERAGE_POLARIZABILITY>
66.20592786191716

> <JCHEM_BIOAVAILABILITY>
1

> <JCHEM_DONOR_COUNT>
3

> <JCHEM_FORMAL_CHARGE>
0

> <JCHEM_GHOSE_FILTER>
0

> <JCHEM_IUPAC>
(2S)-2-{N-methyl-1-[2-(naphthalene-2-sulfonamido)-5-[(naphthalene-2-sulfonyl)oxy]phenyl]formamido}butanedioic acid

> <ALOGPS_LOGP>
3.60

> <JCHEM_LOGP>
4.359618567666667

> <ALOGPS_LOGS>
-6.17

> <JCHEM_MDDR_LIKE_RULE>
1

> <JCHEM_NEUTRAL_CHARGE>
-3

> <JCHEM_NUMBER_OF_RINGS>
5

> <JCHEM_PHYSIOLOGICAL_CHARGE>
-3

> <JCHEM_PKA>
4.2341323845941945

> <JCHEM_PKA_STRONGEST_ACIDIC>
2.375668594173485

> <JCHEM_PKA_STRONGEST_BASIC>
-1.8612929444552797

> <JCHEM_POLAR_SURFACE_AREA>
184.45

> <JCHEM_REFRACTIVITY>
166.1587000000001

> <JCHEM_ROTATABLE_BOND_COUNT>
10

> <JCHEM_RULE_OF_FIVE>
0

> <ALOGPS_SOLUBILITY>
4.44e-04 g/l

> <JCHEM_TRADITIONAL_IUPAC>
tetrahydrofolic acid

> <JCHEM_VEBER_RULE>
0

> <DRUGBANK_ID>
DB01879

> <SECONDARY_ACCESSION_NUMBERS>
EXPT03011

> <DRUG_GROUPS>
experimental

> <GENERIC_NAME>
(S)-2-{Methyl-[2-(Naphthalene-2-Sulfonylamino)-5-(Naphthalene-2-Sulfonyloxy)-Benzoyl]-Amino}-Succinicacid

$$$$
