
  Mrv0541 02231217082D          

 12 13  0  0  0  0            999 V2000
   -0.3984    0.7541    0.0000 C   0  0  0  0  0  0  0  0  0  0  0  0
   -0.1435   -0.0305    0.0000 N   0  0  0  0  0  0  0  0  0  0  0  0
   -0.6284   -0.6979    0.0000 C   0  0  0  0  0  0  0  0  0  0  0  0
   -0.1435   -1.3654    0.0000 N   0  0  0  0  0  0  0  0  0  0  0  0
    0.6411   -1.1104    0.0000 C   0  0  0  0  0  0  0  0  0  0  0  0
    0.6411   -0.2854    0.0000 C   0  0  0  0  0  0  0  0  0  0  0  0
    1.3556    0.1271    0.0000 N   0  3  0  0  0  0  0  0  0  0  0  0
    1.3556    0.9521    0.0000 C   0  0  0  0  0  0  0  0  0  0  0  0
    2.0701   -0.2854    0.0000 C   0  0  0  0  0  0  0  0  0  0  0  0
    2.0701   -1.1104    0.0000 N   0  0  0  0  0  0  0  0  0  0  0  0
    1.3556   -1.5229    0.0000 C   0  0  0  0  0  0  0  0  0  0  0  0
    1.3556   -2.3479    0.0000 N   0  0  0  0  0  0  0  0  0  0  0  0
  1  2  1  0  0  0  0
  2  3  1  0  0  0  0
  3  4  2  0  0  0  0
  4  5  1  0  0  0  0
  5  6  2  0  0  0  0
  2  6  1  0  0  0  0
  6  7  1  0  0  0  0
  7  8  1  0  0  0  0
  7  9  2  0  0  0  0
  9 10  1  0  0  0  0
 10 11  2  0  0  0  0
  5 11  1  0  0  0  0
 11 12  1  0  0  0  0
M  CHG  1   7   1
M  END
> <DATABASE_ID>
DB03730

> <DATABASE_NAME>
drugbank

> <SMILES>
CN1C=NC2=C1[N+](C)=CN=C2N

> <INCHI_IDENTIFIER>
InChI=1S/C7H9N5/c1-11-3-9-5-6(8)10-4-12(2)7(5)11/h3-4,8H,1-2H3/p+1

> <INCHI_KEY>
YXTNRNJPEDJTNF-UHFFFAOYSA-O

> <FORMULA>
C7H10N5

> <MOLECULAR_WEIGHT>
164.1878

> <EXACT_MASS>
164.093620345

> <JCHEM_ACCEPTOR_COUNT>
3

> <JCHEM_ATOM_COUNT>
22

> <JCHEM_AVERAGE_NEUTRAL_MICROSPECIES_CHARGE>
1.000000004136498

> <JCHEM_AVERAGE_POLARIZABILITY>
16.82198746056672

> <JCHEM_BIOAVAILABILITY>
1

> <JCHEM_DONOR_COUNT>
1

> <JCHEM_FORMAL_CHARGE>
1

> <JCHEM_GHOSE_FILTER>
0

> <JCHEM_IUPAC>
6-amino-3,9-dimethyl-9H-purin-3-ium

> <ALOGPS_LOGP>
-3.09

> <JCHEM_LOGP>
-4.832084729138412

> <ALOGPS_LOGS>
-2.17

> <JCHEM_MDDR_LIKE_RULE>
0

> <JCHEM_NEUTRAL_CHARGE>
1

> <JCHEM_NUMBER_OF_RINGS>
2

> <JCHEM_PHYSIOLOGICAL_CHARGE>
1

> <JCHEM_PKA_STRONGEST_ACIDIC>
18.457465198463126

> <JCHEM_PKA_STRONGEST_BASIC>
-1.3255636821907024

> <JCHEM_POLAR_SURFACE_AREA>
60.61

> <JCHEM_REFRACTIVITY>
46.0915

> <JCHEM_ROTATABLE_BOND_COUNT>
0

> <JCHEM_RULE_OF_FIVE>
1

> <ALOGPS_SOLUBILITY>
1.35e+00 g/l

> <JCHEM_TRADITIONAL_IUPAC>
tetrahydrofolic acid

> <JCHEM_VEBER_RULE>
0

> <DRUGBANK_ID>
DB03730

> <SECONDARY_ACCESSION_NUMBERS>
EXPT00159

> <DRUG_GROUPS>
experimental

> <GENERIC_NAME>
3,9-Dimethyladenine

$$$$
