
  Mrv0541 09041312512D          

 38 41  0  0  0  0            999 V2000
    4.0955    1.0018    0.0000 C   0  0  0  0  0  0  0  0  0  0  0  0
    3.3811    0.5893    0.0000 C   0  0  0  0  0  0  0  0  0  0  0  0
    3.3811   -0.2357    0.0000 C   0  0  0  0  0  0  0  0  0  0  0  0
    4.0955   -0.6482    0.0000 C   0  0  0  0  0  0  0  0  0  0  0  0
    4.8100   -0.2357    0.0000 N   0  0  0  0  0  0  0  0  0  0  0  0
    4.8100    0.5893    0.0000 C   0  0  0  0  0  0  0  0  0  0  0  0
    5.5245   -0.6482    0.0000 C   0  0  0  0  0  0  0  0  0  0  0  0
    5.5245   -1.4732    0.0000 C   0  0  0  0  0  0  0  0  0  0  0  0
    4.8100   -1.8857    0.0000 C   0  0  0  0  0  0  0  0  0  0  0  0
    4.8100   -2.7108    0.0000 N   0  0  0  0  0  0  0  0  0  0  0  0
    5.5245   -3.1233    0.0000 C   0  0  0  0  0  0  0  0  0  0  0  0
    6.2389   -2.7108    0.0000 N   0  0  0  0  0  0  0  0  0  0  0  0
    6.2389   -1.8857    0.0000 C   0  0  0  0  0  0  0  0  0  0  0  0
    2.1436    1.3038    0.0000 C   0  0  0  0  0  0  0  0  0  0  0  0
    1.3186    1.3038    0.0000 C   0  0  1  0  0  0  0  0  0  0  0  0
    0.9061    0.5893    0.0000 N   0  0  0  0  0  0  0  0  0  0  0  0
    1.3186   -0.1252    0.0000 C   0  0  0  0  0  0  0  0  0  0  0  0
    2.1436   -0.1252    0.0000 C   0  0  0  0  0  0  0  0  0  0  0  0
    2.5561    0.5893    0.0000 N   0  0  0  0  0  0  0  0  0  0  0  0
   -0.3314   -1.5542    0.0000 C   0  0  0  0  0  0  0  0  0  0  0  0
   -1.1564   -1.5541    0.0000 C   0  0  0  0  0  0  0  0  0  0  0  0
   -1.5689   -0.8397    0.0000 C   0  0  0  0  0  0  0  0  0  0  0  0
   -1.1564   -0.1252    0.0000 C   0  0  0  0  0  0  0  0  0  0  0  0
   -0.3314   -0.1252    0.0000 C   0  0  0  0  0  0  0  0  0  0  0  0
    0.0811   -0.8397    0.0000 C   0  0  0  0  0  0  0  0  0  0  0  0
    0.0811    0.5893    0.0000 C   0  0  2  0  0  0  0  0  0  0  0  0
   -1.5689   -2.2686    0.0000 C   0  0  0  0  0  0  0  0  0  0  0  0
   -0.8544   -2.6811    0.0000 F   0  0  0  0  0  0  0  0  0  0  0  0
   -2.2834   -1.8561    0.0000 F   0  0  0  0  0  0  0  0  0  0  0  0
   -1.9814   -2.9831    0.0000 F   0  0  0  0  0  0  0  0  0  0  0  0
    4.0955   -1.4732    0.0000 C   0  0  0  0  0  0  0  0  0  0  0  0
    6.9534   -1.4732    0.0000 C   0  0  0  0  0  0  0  0  0  0  0  0
    3.1675    1.3862    0.0000 C   0  0  0  0  0  0  0  0  0  0  0  0
    0.9061    2.0182    0.0000 C   0  0  0  0  0  0  0  0  0  0  0  0
   -0.3314    1.3037    0.0000 C   0  0  0  0  0  0  0  0  0  0  0  0
   -1.1564    1.3037    0.0000 O   0  0  0  0  0  0  0  0  0  0  0  0
   -1.5689    2.0182    0.0000 C   0  0  0  0  0  0  0  0  0  0  0  0
    6.2389   -0.2357    0.0000 O   0  0  0  0  0  0  0  0  0  0  0  0
  1  2  1  0  0  0  0
  1  6  1  0  0  0  0
  2  3  1  0  0  0  0
  3  4  1  0  0  0  0
  4  5  1  0  0  0  0
  5  6  1  0  0  0  0
  5  7  1  0  0  0  0
  7  8  1  0  0  0  0
  8  9  1  0  0  0  0
  8 13  2  0  0  0  0
  9 10  2  0  0  0  0
 10 11  1  0  0  0  0
 11 12  2  0  0  0  0
 12 13  1  0  0  0  0
  2 19  1  0  0  0  0
 14 15  1  0  0  0  0
 14 19  1  0  0  0  0
 15 16  1  0  0  0  0
 16 17  1  0  0  0  0
 17 18  1  0  0  0  0
 18 19  1  0  0  0  0
 20 21  1  0  0  0  0
 20 25  2  0  0  0  0
 21 22  2  0  0  0  0
 22 23  1  0  0  0  0
 23 24  2  0  0  0  0
 24 25  1  0  0  0  0
 16 26  1  0  0  0  0
 26 24  1  0  0  0  0
 21 27  1  0  0  0  0
 27 28  1  0  0  0  0
 27 29  1  0  0  0  0
 27 30  1  0  0  0  0
  9 31  1  0  0  0  0
 13 32  1  0  0  0  0
  2 33  1  0  0  0  0
 15 34  1  1  0  0  0
 26 35  1  6  0  0  0
 35 36  1  0  0  0  0
 36 37  1  0  0  0  0
  7 38  2  0  0  0  0
M  END
> <DATABASE_ID>
DB06652

> <DATABASE_NAME>
drugbank

> <SMILES>
COC[C@H](N1CCN(C[C@@H]1C)C1(C)CCN(CC1)C(=O)C1=C(C)N=CN=C1C)C1=CC=C(C=C1)C(F)(F)F

> <INCHI_IDENTIFIER>
InChI=1S/C28H38F3N5O2/c1-19-16-35(14-15-36(19)24(17-38-5)22-6-8-23(9-7-22)28(29,30)31)27(4)10-12-34(13-11-27)26(37)25-20(2)32-18-33-21(25)3/h6-9,18-19,24H,10-17H2,1-5H3/t19-,24-/m0/s1

> <INCHI_KEY>
CNPVJJQCETWNEU-CYFREDJKSA-N

> <FORMULA>
C28H38F3N5O2

> <MOLECULAR_WEIGHT>
533.6288

> <EXACT_MASS>
533.2977601

> <JCHEM_ACCEPTOR_COUNT>
6

> <JCHEM_ATOM_COUNT>
76

> <JCHEM_AVERAGE_NEUTRAL_MICROSPECIES_CHARGE>
0.9603363225574435

> <JCHEM_AVERAGE_POLARIZABILITY>
56.301287330857605

> <JCHEM_BIOAVAILABILITY>
1

> <JCHEM_DONOR_COUNT>
0

> <JCHEM_FORMAL_CHARGE>
0

> <JCHEM_GHOSE_FILTER>
0

> <JCHEM_IUPAC>
5-{4-[(3S)-4-[(1R)-2-methoxy-1-[4-(trifluoromethyl)phenyl]ethyl]-3-methylpiperazin-1-yl]-4-methylpiperidine-1-carbonyl}-4,6-dimethylpyrimidine

> <ALOGPS_LOGP>
3.29

> <JCHEM_LOGP>
2.796658779333332

> <ALOGPS_LOGS>
-4.17

> <JCHEM_MDDR_LIKE_RULE>
1

> <JCHEM_NEUTRAL_CHARGE>
1

> <JCHEM_NUMBER_OF_RINGS>
4

> <JCHEM_PHYSIOLOGICAL_CHARGE>
1

> <JCHEM_PKA_STRONGEST_BASIC>
8.440637429540175

> <JCHEM_POLAR_SURFACE_AREA>
61.800000000000004

> <JCHEM_REFRACTIVITY>
142.63530000000003

> <JCHEM_ROTATABLE_BOND_COUNT>
7

> <JCHEM_RULE_OF_FIVE>
0

> <ALOGPS_SOLUBILITY>
3.62e-02 g/l

> <JCHEM_TRADITIONAL_IUPAC>
tetrahydrofolic acid

> <JCHEM_VEBER_RULE>
0

> <DRUGBANK_ID>
DB06652

> <DRUG_GROUPS>
investigational

> <GENERIC_NAME>
Vicriviroc

> <SYNONYMS>
Vicriviroc

> <SALTS>
Vicriviroc Hydrochloride; Vicriviroc Maleate

$$$$
