
  Mrv0541 05031420062D          

 37 41  0  0  0  0            999 V2000
    0.7145   -5.3625    0.0000 C   0  0  0  0  0  0  0  0  0  0  0  0
   -0.0231    1.0550    0.0000 C   0  0  0  0  0  0  0  0  0  0  0  0
   -0.7145   -0.4125    0.0000 C   0  0  0  0  0  0  0  0  0  0  0  0
   -0.7145   -1.2375    0.0000 C   0  0  0  0  0  0  0  0  0  0  0  0
    0.0000    0.0000    0.0000 C   0  0  0  0  0  0  0  0  0  0  0  0
    0.0000   -1.6500    0.0000 C   0  0  0  0  0  0  0  0  0  0  0  0
    1.4289   -7.4250    0.0000 C   0  0  0  0  0  0  0  0  0  0  0  0
    1.4289   -6.6000    0.0000 C   0  0  0  0  0  0  0  0  0  0  0  0
    2.0964    1.3099    0.0000 C   0  0  0  0  0  0  0  0  0  0  0  0
    2.1434   -3.7125    0.0000 C   0  0  0  0  0  0  0  0  0  0  0  0
    0.7145   -3.7125    0.0000 C   0  0  0  0  0  0  0  0  0  0  0  0
    1.8414    2.0945    0.0000 C   0  0  0  0  0  0  0  0  0  0  0  0
    2.1434   -2.8875    0.0000 C   0  0  0  0  0  0  0  0  0  0  0  0
    0.7145   -2.8875    0.0000 C   0  0  0  0  0  0  0  0  0  0  0  0
    2.8579   -7.4250    0.0000 C   0  0  0  0  0  0  0  0  0  0  0  0
    2.1434   -7.8375    0.0000 C   0  0  0  0  0  0  0  0  0  0  0  0
    1.4289   -4.1250    0.0000 C   0  0  0  0  0  0  0  0  0  0  0  0
    0.7145   -0.4125    0.0000 C   0  0  0  0  0  0  0  0  0  0  0  0
    0.7145   -1.2375    0.0000 C   0  0  0  0  0  0  0  0  0  0  0  0
    2.1434   -6.1875    0.0000 C   0  0  0  0  0  0  0  0  0  0  0  0
    2.8579   -6.6000    0.0000 C   0  0  0  0  0  0  0  0  0  0  0  0
    1.4289    0.8250    0.0000 C   0  0  0  0  0  0  0  0  0  0  0  0
    1.4289   -0.0000    0.0000 C   0  0  0  0  0  0  0  0  0  0  0  0
    1.4289   -1.6500    0.0000 C   0  0  0  0  0  0  0  0  0  0  0  0
    2.1434   -5.3625    0.0000 C   0  0  0  0  0  0  0  0  0  0  0  0
    3.5724   -6.1875    0.0000 C   0  0  0  0  0  0  0  0  0  0  0  0
    2.1434   -8.6625    0.0000 F   0  0  0  0  0  0  0  0  0  0  0  0
    4.2868   -5.7750    0.0000 F   0  0  0  0  0  0  0  0  0  0  0  0
    3.1599   -5.4730    0.0000 F   0  0  0  0  0  0  0  0  0  0  0  0
    3.9849   -6.9020    0.0000 F   0  0  0  0  0  0  0  0  0  0  0  0
    1.0164    2.0945    0.0000 N   0  0  0  0  0  0  0  0  0  0  0  0
    2.1434   -0.4125    0.0000 N   0  0  0  0  0  0  0  0  0  0  0  0
    2.1434   -1.2375    0.0000 N   0  0  0  0  0  0  0  0  0  0  0  0
    1.4289   -4.9500    0.0000 N   0  0  0  0  0  0  0  0  0  0  0  0
    0.7615    1.3099    0.0000 N   0  0  0  0  0  0  0  0  0  0  0  0
    1.4289   -2.4750    0.0000 N   0  0  0  0  0  0  0  0  0  0  0  0
    2.8579   -4.9500    0.0000 O   0  0  0  0  0  0  0  0  0  0  0  0
  4  3  2  0  0  0  0
  5  3  1  0  0  0  0
  6  4  1  0  0  0  0
  8  7  2  0  0  0  0
 12  9  1  0  0  0  0
 13 10  1  0  0  0  0
 14 11  1  0  0  0  0
 16  7  1  0  0  0  0
 16 15  2  0  0  0  0
 17 10  1  0  0  0  0
 17 11  1  0  0  0  0
 18  5  2  0  0  0  0
 19  6  2  0  0  0  0
 19 18  1  0  0  0  0
 20  8  1  0  0  0  0
 21 15  1  0  0  0  0
 21 20  2  0  0  0  0
 22  9  2  0  0  0  0
 23 18  1  0  0  0  0
 23 22  1  0  0  0  0
 24 19  1  0  0  0  0
 25 20  1  0  0  0  0
 26 21  1  0  0  0  0
 27 16  1  0  0  0  0
 28 26  1  0  0  0  0
 29 26  1  0  0  0  0
 30 26  1  0  0  0  0
 31 12  2  0  0  0  0
 32 23  2  0  0  0  0
 33 24  2  0  0  0  0
 33 32  1  0  0  0  0
 34  1  1  0  0  0  0
 34 17  1  0  0  0  0
 34 25  1  0  0  0  0
 35  2  1  0  0  0  0
 35 22  1  0  0  0  0
 35 31  1  0  0  0  0
 36 13  1  0  0  0  0
 36 14  1  0  0  0  0
 36 24  1  0  0  0  0
 37 25  2  0  0  0  0
M  END
> <DATABASE_ID>
DB12550

> <DATABASE_NAME>
drugbank

> <SMILES>
CN(C1CCN(CC1)C1=NN=C(C2=CC=NN2C)C2=CC=CC=C12)C(=O)C1=C(C=C(F)C=C1)C(F)(F)F

> <INCHI_IDENTIFIER>
InChI=1S/C26H24F4N6O/c1-34(25(37)20-8-7-16(27)15-21(20)26(28,29)30)17-10-13-36(14-11-17)24-19-6-4-3-5-18(19)23(32-33-24)22-9-12-31-35(22)2/h3-9,12,15,17H,10-11,13-14H2,1-2H3

> <INCHI_KEY>
SZBGQDXLNMELTB-UHFFFAOYSA-N

> <FORMULA>
C26H24F4N6O

> <MOLECULAR_WEIGHT>
512.502

> <EXACT_MASS>
512.19477224

> <JCHEM_ACCEPTOR_COUNT>
5

> <JCHEM_ATOM_COUNT>
61

> <JCHEM_AVERAGE_NEUTRAL_MICROSPECIES_CHARGE>
0.0045644220010861635

> <JCHEM_AVERAGE_POLARIZABILITY>
49.202083895144725

> <JCHEM_BIOAVAILABILITY>
1

> <JCHEM_DONOR_COUNT>
0

> <JCHEM_FORMAL_CHARGE>
0

> <JCHEM_GHOSE_FILTER>
0

> <JCHEM_IUPAC>
4-fluoro-N-methyl-N-{1-[4-(1-methyl-1H-pyrazol-5-yl)phthalazin-1-yl]piperidin-4-yl}-2-(trifluoromethyl)benzamide

> <ALOGPS_LOGP>
4.55

> <JCHEM_LOGP>
3.9771437726666696

> <ALOGPS_LOGS>
-5.19

> <JCHEM_MDDR_LIKE_RULE>
0

> <JCHEM_NEUTRAL_CHARGE>
0

> <JCHEM_NUMBER_OF_RINGS>
5

> <JCHEM_PHYSIOLOGICAL_CHARGE>
0

> <JCHEM_PKA_STRONGEST_BASIC>
3.6788121505165225

> <JCHEM_POLAR_SURFACE_AREA>
67.15

> <JCHEM_REFRACTIVITY>
145.0847

> <JCHEM_ROTATABLE_BOND_COUNT>
5

> <JCHEM_RULE_OF_FIVE>
0

> <ALOGPS_SOLUBILITY>
3.30e-03 g/l

> <JCHEM_TRADITIONAL_IUPAC>
tetrahydrofolic acid

> <JCHEM_VEBER_RULE>
0

> <DRUGBANK_ID>
DB12550

> <DRUG_GROUPS>
investigational

> <GENERIC_NAME>
Taladegib

> <SYNONYMS>
Taladegib

$$$$
