
  Mrv0541 08291315112D          

 77 84  0  0  1  0            999 V2000
   15.4754   -6.2574    0.0000 C   0  0  2  0  0  0  0  0  0  0  0  0
   16.1865   -5.8391    0.0000 C   0  0  0  0  0  0  0  0  0  0  0  0
   14.7643   -5.8391    0.0000 N   0  0  0  0  0  0  0  0  0  0  0  0
   15.4754   -7.0939    0.0000 C   0  0  0  0  0  0  0  0  0  0  0  0
   16.8976   -6.2574    0.0000 C   0  0  0  0  0  0  0  0  0  0  0  0
   17.6086   -5.8391    0.0000 C   0  0  0  0  0  0  0  0  0  0  0  0
   18.3197   -6.2574    0.0000 C   0  0  0  0  0  0  0  0  0  0  0  0
   19.0308   -5.8391    0.0000 N   0  0  0  0  0  0  0  0  0  0  0  0
   16.1865   -7.5122    0.0000 N   0  0  0  0  0  0  0  0  0  0  0  0
   14.7643   -7.5122    0.0000 O   0  0  0  0  0  0  0  0  0  0  0  0
   14.0533   -6.2574    0.0000 C   0  0  0  0  0  0  0  0  0  0  0  0
   13.3422   -5.8391    0.0000 C   0  0  2  0  0  0  0  0  0  0  0  0
   14.0533   -7.0939    0.0000 O   0  0  0  0  0  0  0  0  0  0  0  0
   12.6311   -6.2574    0.0000 N   0  0  0  0  0  0  0  0  0  0  0  0
   13.3422   -5.0025    0.0000 C   0  0  0  0  0  0  0  0  0  0  0  0
   16.1865   -8.3488    0.0000 C   0  0  1  0  0  0  0  0  0  0  0  0
   16.8976   -8.7670    0.0000 C   0  0  0  0  0  0  0  0  0  0  0  0
   15.4754   -8.7670    0.0000 C   0  0  0  0  0  0  0  0  0  0  0  0
   14.7643   -8.3488    0.0000 O   0  0  0  0  0  0  0  0  0  0  0  0
   15.4754   -9.6036    0.0000 N   0  0  0  0  0  0  0  0  0  0  0  0
   17.6086   -8.3488    0.0000 C   0  0  0  0  0  0  0  0  0  0  0  0
   17.6086   -7.5122    0.0000 C   0  0  0  0  0  0  0  0  0  0  0  0
   18.3615   -7.0939    0.0000 C   0  0  0  0  0  0  0  0  0  0  0  0
   19.0726   -7.5122    0.0000 C   0  0  0  0  0  0  0  0  0  0  0  0
   19.0726   -8.3488    0.0000 C   0  0  0  0  0  0  0  0  0  0  0  0
   18.3615   -8.7670    0.0000 C   0  0  0  0  0  0  0  0  0  0  0  0
   19.7837   -7.0939    0.0000 O   0  0  0  0  0  0  0  0  0  0  0  0
   20.4948   -7.5122    0.0000 C   0  0  0  0  0  0  0  0  0  0  0  0
   21.2059   -7.0939    0.0000 C   0  0  0  0  0  0  0  0  0  0  0  0
   21.2059   -6.2574    0.0000 C   0  0  0  0  0  0  0  0  0  0  0  0
   21.9588   -5.8391    0.0000 C   0  0  0  0  0  0  0  0  0  0  0  0
   22.6699   -6.2574    0.0000 C   0  0  0  0  0  0  0  0  0  0  0  0
   22.6699   -7.0939    0.0000 C   0  0  0  0  0  0  0  0  0  0  0  0
   21.9588   -7.5122    0.0000 C   0  0  0  0  0  0  0  0  0  0  0  0
   14.7643  -10.0219    0.0000 C   0  0  2  0  0  0  0  0  0  0  0  0
   14.0533   -9.6036    0.0000 C   0  0  0  0  0  0  0  0  0  0  0  0
   14.7643  -10.8585    0.0000 C   0  0  0  0  0  0  0  0  0  0  0  0
   15.4754  -11.2767    0.0000 C   0  0  0  0  0  0  0  0  0  0  0  0
   16.1865  -10.8585    0.0000 C   0  0  0  0  0  0  0  0  0  0  0  0
   16.9394  -11.2768    0.0000 C   0  0  0  0  0  0  0  0  0  0  0  0
   16.9394  -12.1133    0.0000 C   0  0  0  0  0  0  0  0  0  0  0  0
   16.2283  -12.5316    0.0000 C   0  0  0  0  0  0  0  0  0  0  0  0
   15.4754  -12.1133    0.0000 C   0  0  0  0  0  0  0  0  0  0  0  0
   13.3422  -10.0219    0.0000 N   0  0  0  0  0  0  0  0  0  0  0  0
   14.0533   -8.7670    0.0000 O   0  0  0  0  0  0  0  0  0  0  0  0
   12.6311   -7.0939    0.0000 C   0  0  0  0  0  0  0  0  0  0  0  0
   13.3422   -7.5122    0.0000 O   0  0  0  0  0  0  0  0  0  0  0  0
   11.9200   -7.5122    0.0000 C   0  0  2  0  0  0  0  0  0  0  0  0
   11.2090   -7.0939    0.0000 C   0  0  0  0  0  0  0  0  0  0  0  0
   11.9200   -8.3488    0.0000 N   0  0  0  0  0  0  0  0  0  0  0  0
   10.4979   -7.5122    0.0000 C   0  0  0  0  0  0  0  0  0  0  0  0
    9.7450   -7.0939    0.0000 C   0  0  0  0  0  0  0  0  0  0  0  0
    9.7450   -6.2574    0.0000 C   0  0  0  0  0  0  0  0  0  0  0  0
   10.4561   -5.8391    0.0000 C   0  0  0  0  0  0  0  0  0  0  0  0
   11.2090   -6.2574    0.0000 C   0  0  0  0  0  0  0  0  0  0  0  0
   12.6311   -8.7670    0.0000 C   0  0  0  0  0  0  0  0  0  0  0  0
   13.3422   -8.3488    0.0000 O   0  0  0  0  0  0  0  0  0  0  0  0
   12.6311   -9.6036    0.0000 C   0  0  2  0  0  0  0  0  0  0  0  0
   13.2585  -10.7748    0.0000 C   0  0  0  0  0  0  0  0  0  0  0  0
   12.0396  -10.1951    0.0000 C   0  0  0  0  0  0  0  0  0  0  0  0
   12.4234  -10.9614    0.0000 C   0  0  1  0  0  0  0  0  0  0  0  0
   12.0716  -11.7018    0.0000 O   0  0  0  0  0  0  0  0  0  0  0  0
   11.2539  -11.6837    0.0000 C   0  0  0  0  0  0  0  0  0  0  0  0
   10.8137  -12.4084    0.0000 O   0  0  0  0  0  0  0  0  0  0  0  0
   10.8559  -10.9575    0.0000 N   0  0  0  0  0  0  0  0  0  0  0  0
   10.0378  -10.9392    0.0000 C   0  0  0  0  0  0  0  0  0  0  0  0
    9.6372  -10.2077    0.0000 C   0  0  0  0  0  0  0  0  0  0  0  0
    8.7829  -10.1889    0.0000 N   0  0  0  0  0  0  0  0  0  0  0  0
   14.0566   -4.5900    0.0000 C   0  0  0  0  0  0  0  0  0  0  0  0
   14.1429   -3.7696    0.0000 C   0  0  0  0  0  0  0  0  0  0  0  0
   14.8104   -4.9256    0.0000 C   0  0  0  0  0  0  0  0  0  0  0  0
   14.9499   -3.5981    0.0000 C   0  0  0  0  0  0  0  0  0  0  0  0
   15.3624   -4.3124    0.0000 N   0  0  0  0  0  0  0  0  0  0  0  0
   15.1845   -2.8072    0.0000 C   0  0  0  0  0  0  0  0  0  0  0  0
   14.6168   -2.2085    0.0000 C   0  0  0  0  0  0  0  0  0  0  0  0
   13.8145   -2.4007    0.0000 C   0  0  0  0  0  0  0  0  0  0  0  0
   13.5799   -3.1916    0.0000 C   0  0  0  0  0  0  0  0  0  0  0  0
  1  2  1  1  0  0  0
  1  3  1  0  0  0  0
  1  4  1  0  0  0  0
  2  5  1  0  0  0  0
  5  6  1  0  0  0  0
  6  7  1  0  0  0  0
  7  8  1  0  0  0  0
  4  9  1  0  0  0  0
  4 10  2  0  0  0  0
  3 11  1  0  0  0  0
 11 12  1  0  0  0  0
 11 13  2  0  0  0  0
 12 14  1  0  0  0  0
 12 15  1  6  0  0  0
  9 16  1  0  0  0  0
 16 17  1  1  0  0  0
 16 18  1  0  0  0  0
 18 19  2  0  0  0  0
 18 20  1  0  0  0  0
 17 21  1  0  0  0  0
 21 22  2  0  0  0  0
 22 23  1  0  0  0  0
 23 24  2  0  0  0  0
 24 25  1  0  0  0  0
 25 26  2  0  0  0  0
 21 26  1  0  0  0  0
 24 27  1  0  0  0  0
 27 28  1  0  0  0  0
 28 29  1  0  0  0  0
 29 30  2  0  0  0  0
 30 31  1  0  0  0  0
 31 32  2  0  0  0  0
 32 33  1  0  0  0  0
 33 34  2  0  0  0  0
 29 34  1  0  0  0  0
 20 35  1  0  0  0  0
 35 36  1  0  0  0  0
 35 37  1  1  0  0  0
 37 38  1  0  0  0  0
 38 39  2  0  0  0  0
 39 40  1  0  0  0  0
 40 41  2  0  0  0  0
 41 42  1  0  0  0  0
 42 43  2  0  0  0  0
 38 43  1  0  0  0  0
 36 44  1  0  0  0  0
 36 45  2  0  0  0  0
 14 46  1  0  0  0  0
 46 47  2  0  0  0  0
 46 48  1  0  0  0  0
 48 49  1  1  0  0  0
 48 50  1  0  0  0  0
 49 51  2  0  0  0  0
 51 52  1  0  0  0  0
 52 53  2  0  0  0  0
 53 54  1  0  0  0  0
 54 55  2  0  0  0  0
 49 55  1  0  0  0  0
 50 56  1  0  0  0  0
 56 57  2  0  0  0  0
 56 58  1  0  0  0  0
 44 58  1  0  0  0  0
 44 59  1  0  0  0  0
 58 60  1  1  0  0  0
 60 61  1  0  0  0  0
 59 61  1  0  0  0  0
 61 62  1  6  0  0  0
 62 63  1  0  0  0  0
 63 64  2  0  0  0  0
 63 65  1  0  0  0  0
 65 66  1  0  0  0  0
 66 67  1  0  0  0  0
 67 68  1  0  0  0  0
 70 69  1  0  0  0  0
 71 69  2  0  0  0  0
 73 71  1  0  0  0  0
 73 72  1  0  0  0  0
 15 69  1  0  0  0  0
 72 74  1  0  0  0  0
 75 74  2  0  0  0  0
 70 72  2  0  0  0  0
 76 75  1  0  0  0  0
 77 70  1  0  0  0  0
 77 76  2  0  0  0  0
M  END
> <DATABASE_ID>
DB06663

> <DATABASE_NAME>
drugbank

> <SMILES>
NCCCC[C@@H]1NC(=O)[C@@H](CC2=CNC3=C2C=CC=C3)NC(=O)[C@@H](NC(=O)[C@@H]2C[C@H](CN2C(=O)[C@H](CC2=CC=CC=C2)NC(=O)[C@H](CC2=CC=C(OCC3=CC=CC=C3)C=C2)NC1=O)OC(=O)NCCN)C1=CC=CC=C1

> <INCHI_IDENTIFIER>
InChI=1S/C58H66N10O9/c59-27-13-12-22-46-52(69)64-47(30-38-23-25-42(26-24-38)76-36-39-16-6-2-7-17-39)53(70)66-49(31-37-14-4-1-5-15-37)57(74)68-35-43(77-58(75)61-29-28-60)33-50(68)55(72)67-51(40-18-8-3-9-19-40)56(73)65-48(54(71)63-46)32-41-34-62-45-21-11-10-20-44(41)45/h1-11,14-21,23-26,34,43,46-51,62H,12-13,22,27-33,35-36,59-60H2,(H,61,75)(H,63,71)(H,64,69)(H,65,73)(H,66,70)(H,67,72)/t43-,46+,47+,48-,49+,50+,51+/m1/s1

> <INCHI_KEY>
VMZMNAABQBOLAK-DBILLSOUSA-N

> <FORMULA>
C58H66N10O9

> <MOLECULAR_WEIGHT>
1047.2062

> <EXACT_MASS>
1046.50142376

> <JCHEM_ACCEPTOR_COUNT>
10

> <JCHEM_ATOM_COUNT>
143

> <JCHEM_AVERAGE_NEUTRAL_MICROSPECIES_CHARGE>
1.989455508489031

> <JCHEM_AVERAGE_POLARIZABILITY>
111.07836568276095

> <JCHEM_BIOAVAILABILITY>
0

> <JCHEM_DONOR_COUNT>
9

> <JCHEM_FORMAL_CHARGE>
0

> <JCHEM_GHOSE_FILTER>
0

> <JCHEM_IUPAC>
(3S,6R,9S,12S,15S,19R,20aS)-9-(4-aminobutyl)-15-benzyl-12-{[4-(benzyloxy)phenyl]methyl}-6-[(1H-indol-3-yl)methyl]-1,4,7,10,13,16-hexaoxo-3-phenyl-icosahydropyrrolo[1,2-a]1,4,7,10,13,16-hexaazacyclooctadecan-19-yl N-(2-aminoethyl)carbamate

> <ALOGPS_LOGP>
3.03

> <JCHEM_LOGP>
2.6701332927140173

> <ALOGPS_LOGS>
-5.71

> <JCHEM_MDDR_LIKE_RULE>
1

> <JCHEM_NEUTRAL_CHARGE>
2

> <JCHEM_NUMBER_OF_RINGS>
8

> <JCHEM_PHYSIOLOGICAL_CHARGE>
2

> <JCHEM_PKA>
10.759700678530251

> <JCHEM_PKA_STRONGEST_ACIDIC>
9.083835903713277

> <JCHEM_PKA_STRONGEST_BASIC>
10.411714769123924

> <JCHEM_POLAR_SURFACE_AREA>
281.2

> <JCHEM_REFRACTIVITY>
286.6616

> <JCHEM_ROTATABLE_BOND_COUNT>
18

> <JCHEM_RULE_OF_FIVE>
0

> <ALOGPS_SOLUBILITY>
2.03e-03 g/l

> <JCHEM_TRADITIONAL_IUPAC>
tetrahydrofolic acid

> <JCHEM_VEBER_RULE>
0

> <DRUGBANK_ID>
DB06663

> <DRUG_GROUPS>
approved

> <GENERIC_NAME>
Pasireotide

> <SYNONYMS>
cyclo((4R)-4-(2-aminoethylcarbamoyloxy)-L-prolyl-L-phenylglycyl-D-tryptophyl-L-lysyl-4-O-benzyl-L-tyrosyl-L- phenylalanyl-); Pasireotida; PasirÃ©otide; Pasireotide; Pasireotidum

> <PRODUCTS>
Signifor; Signifor LAR

> <INTERNATIONAL_BRANDS>
Signifor; Signifor LAR

> <SALTS>
Pasireotide acetate; Pasireotide diaspartate; Pasireotide pamoate

$$$$
