
  Mrv0541 02231215462D          

 10 10  0  0  0  0            999 V2000
    2.8579    0.0000    0.0000 N   0  0  0  0  0  0  0  0  0  0  0  0
    2.1434   -0.4125    0.0000 C   0  0  0  0  0  0  0  0  0  0  0  0
    2.1434   -1.2375    0.0000 O   0  0  0  0  0  0  0  0  0  0  0  0
    1.4289    0.0000    0.0000 C   0  0  0  0  0  0  0  0  0  0  0  0
    0.7145   -0.4125    0.0000 C   0  0  0  0  0  0  0  0  0  0  0  0
    0.0000    0.0000    0.0000 N   0  0  0  0  0  0  0  0  0  0  0  0
    0.0000    0.8250    0.0000 C   0  0  0  0  0  0  0  0  0  0  0  0
    0.7145    1.2375    0.0000 C   0  0  0  0  0  0  0  0  0  0  0  0
    0.7145    2.0625    0.0000 Br  0  0  0  0  0  0  0  0  0  0  0  0
    1.4289    0.8250    0.0000 C   0  0  0  0  0  0  0  0  0  0  0  0
  1  2  1  0  0  0  0
  2  3  2  0  0  0  0
  2  4  1  0  0  0  0
  4  5  2  0  0  0  0
  5  6  1  0  0  0  0
  6  7  2  0  0  0  0
  7  8  1  0  0  0  0
  8  9  1  0  0  0  0
  8 10  2  0  0  0  0
  4 10  1  0  0  0  0
M  END
> <DATABASE_ID>
DB01854

> <DATABASE_NAME>
drugbank

> <SMILES>
NC(=O)C1=CN=CC(Br)=C1

> <INCHI_IDENTIFIER>
InChI=1S/C6H5BrN2O/c7-5-1-4(6(8)10)2-9-3-5/h1-3H,(H2,8,10)

> <INCHI_KEY>
YOQRXZIMSKLRCY-UHFFFAOYSA-N

> <FORMULA>
C6H5BrN2O

> <MOLECULAR_WEIGHT>
201.021

> <EXACT_MASS>
199.958525439

> <JCHEM_ACCEPTOR_COUNT>
2

> <JCHEM_ATOM_COUNT>
15

> <JCHEM_AVERAGE_NEUTRAL_MICROSPECIES_CHARGE>
8.3999375541819e-06

> <JCHEM_AVERAGE_POLARIZABILITY>
15.105737157756446

> <JCHEM_BIOAVAILABILITY>
1

> <JCHEM_DONOR_COUNT>
1

> <JCHEM_FORMAL_CHARGE>
0

> <JCHEM_GHOSE_FILTER>
0

> <JCHEM_IUPAC>
5-bromopyridine-3-carboxamide

> <ALOGPS_LOGP>
0.08

> <JCHEM_LOGP>
0.3749663086666667

> <ALOGPS_LOGS>
-1.08

> <JCHEM_MDDR_LIKE_RULE>
0

> <JCHEM_NEUTRAL_CHARGE>
0

> <JCHEM_NUMBER_OF_RINGS>
1

> <JCHEM_PHYSIOLOGICAL_CHARGE>
0

> <JCHEM_PKA_STRONGEST_ACIDIC>
13.069143674768661

> <JCHEM_PKA_STRONGEST_BASIC>
1.9666806054312438

> <JCHEM_POLAR_SURFACE_AREA>
55.980000000000004

> <JCHEM_REFRACTIVITY>
40.6023

> <JCHEM_ROTATABLE_BOND_COUNT>
1

> <JCHEM_RULE_OF_FIVE>
1

> <ALOGPS_SOLUBILITY>
1.67e+01 g/l

> <JCHEM_TRADITIONAL_IUPAC>
biotin

> <JCHEM_VEBER_RULE>
0

> <DRUGBANK_ID>
DB01854

> <SECONDARY_ACCESSION_NUMBERS>
EXPT00757

> <DRUG_GROUPS>
experimental

> <GENERIC_NAME>
5-Bromonicotinamide

$$$$
