
  Mrv0541 02231218082D          

  2  1  0  0  0  0            999 V2000
    1.6500    0.0000    0.0000 I   0  0  0  0  0  0  0  0  0  0  0  0
    2.4750    0.0000    0.0000 I   0  0  0  0  0  0  0  0  0  0  0  0
  1  2  1  0  0  0  0
M  END
> <DATABASE_ID>
DB05382

> <DATABASE_NAME>
drugbank

> <SMILES>
II

> <INCHI_IDENTIFIER>
InChI=1S/I2/c1-2

> <INCHI_KEY>
PNDPGZBMCMUPRI-UHFFFAOYSA-N

> <FORMULA>
I2

> <MOLECULAR_WEIGHT>
253.8089

> <EXACT_MASS>
253.80893684

> <JCHEM_ACCEPTOR_COUNT>
0

> <JCHEM_ATOM_COUNT>
2

> <JCHEM_AVERAGE_NEUTRAL_MICROSPECIES_CHARGE>
0.0

> <JCHEM_AVERAGE_POLARIZABILITY>
10.176346482806096

> <JCHEM_BIOAVAILABILITY>
1

> <JCHEM_DONOR_COUNT>
0

> <JCHEM_FORMAL_CHARGE>
0

> <JCHEM_GHOSE_FILTER>
0

> <JCHEM_IUPAC>
diiodine

> <JCHEM_LOGP>
1.358210709333333

> <JCHEM_MDDR_LIKE_RULE>
0

> <JCHEM_NEUTRAL_CHARGE>
0

> <JCHEM_NUMBER_OF_RINGS>
0

> <JCHEM_PHYSIOLOGICAL_CHARGE>
0

> <JCHEM_POLAR_SURFACE_AREA>
0.0

> <JCHEM_REFRACTIVITY>
26.6816

> <JCHEM_ROTATABLE_BOND_COUNT>
0

> <JCHEM_RULE_OF_FIVE>
1

> <JCHEM_TRADITIONAL_IUPAC>
tetrahydrofolic acid

> <JCHEM_VEBER_RULE>
1

> <DRUGBANK_ID>
DB05382

> <SECONDARY_ACCESSION_NUMBERS>
DB05247

> <DRUG_GROUPS>
approved; investigational

> <GENERIC_NAME>
Iodine

> <SYNONYMS>
diiodine; I2; Iodine; iodo; Jod; molecular iodine

> <PRODUCTS>
Adult Formula 50+; Alkadrenergy Tablets; Alphadine Scrub; Anaplex Tab; B.E.T. Complex; Bal-Care DHA; Bal-Care DHA Essential; Blood Culture Prep Kit; CVS Iodine; Cavan Alpha; Chela Iron Plus C,b Complex; Chelamins Plus Tab; Children's Chew Multi & Min Tab; Childrens Chewab Vitamin W Chel Minerals; CitraNatal Assure; CitraNatal Essence; Classic Swiss One 10 Multivitamin and Mineral Tab; Colloidal Iodine; Colloidal Iodine Ophthalmic; Colloidal Iodineinjection; Complete One A Day Tab; Complete One-A-day - Tab; DDM Iodine Tincture Mild; De La Cruz Tincture of Iodine; Diodine; Doctor's Choice Brand for Men; Donor Prep Kit; Duet DHA; Duet DHA 400; Duet DHA 400 ec; Duet DHA Balanced; DuetDHA Balanced; DuetDHA Complete; Envirocomplex; Essential Vitamins and Minerals; Fem Time Tab; Foam Care Pvp Iodophor Surg Hand Scrub 0.75%; Focalgin 90 DHA; Focalgin CA; Folcaps Care One; For-2; Formula Gm; GNP Idoinde Tincture 2% Mild; Grand Master Formula Tab; Great Day/am Formula Tab; Harris Teeter Iodine Tincture Mild; Health Mart Iodine Tincture Mild; Hi Potency Multi Tab; Hsn Formula; Humco Strong Iodine; Humco Strong Iodine Tincture; Incarvexx Essential; Incarvexx Essential Seawater; Iodin Ration Tab 0.15mg; Iodine; Iodine 0.150 mg; Iodine 0.5% Alcoholic Soln; Iodine Gauze Packing; Iodine Sepp; Iodine Tab 3mg; Iodine Tct 2.5% BP; Iodine Tct 5% CF; Iodine Tincture; Iodine Tincture (IODO) First Aid Antiseptic; Iodine Tincture 21/2%; Iodine Tincture Mild; Iodine Tincture Rojo; Iodine Tincture White; Iodo Blanco (Iodine Tincture Decolorized) First Aid Antiseptic; JCI MN Colloidal Iodine Eye Wash Cleansing Water (Quasi Drug); JCI MN Colloidal Iodine Immune-improving Water; Kelp Tablets; Kelp Tablets 150mcg; L Fac Tab; LEADER 2% Mild Iodine Tincture; LEADER Mild Iodine; Leep RediKit; Lipall Plus Tab; Liquid Iodine; Liquid Opti-minplex +d; Lugols Solution; Lugols Strong Iodine; Magnum-75 Vitamin and Mineral Supplement; Maintain Multiple Vitamin & Minerals; Master Key Multi Vitamin Multi Mineral Formula 2; Maxine Vitamin and Mineral Supplement; Mega Balance; Mega Multiple Minerals; Mega Plex III - Pck; Mega Plex IV - Pck; Mega-vim 75 With Beta-carotene - Tablets; Men's; Men's 50+; Men's Multi Master Formula; Mineral Support; Moms Choice Rx; Multi Cal Mag Liquid; Multi II IV Vi Tab; Multi Mega Minerals With Vitamin D; Multi Plex I - Tab; Multi Plex II - Tab; Multi-actin; Multiminerals; Multipack II; Multiple Minerals; Multivitamin & Minerals (iron Free); Multivitamin & Multimineral; Multra Plex; New Chapter's D'adamo 4 Your Type Multiple for Type O; Ni-C-E-LE Plus; Nitro Vites - Tab; Nutra Boost; O-Cal FA multivitamin; O-Cal Prenatal Vitamin; Olympian Multi Vit Plus Minerals Tab; One A Day Tab; PSP Iodine tincture BP 2.5 first aid antiseptic; Phyderm Liq; Phytovim Cap; Potassium and Iodine Tab; Povidone-iodine; Premier Value Iodine Tincture Mild; Prenara; Prenatal Vi-min; Prenate Elite; Prenatvite Complete; Prim - Royal P.M.T.; Pro Hers Vanilla; Pro His Mint; QC Iodine Tincture Mild; QKit Procedure Tray; Quality Choice Iodine Tincture Mild; Reaphirm Plant Source DHA; Revit Multi-vitamins and Minerals; Revitalize Multi-vitamin and Mineral Complex; Right Choice P.M. Multi Formula - Caplet; Rocky Mountain Multiple Vit and Min Mega Tab; Rolderme No1; Salicylic Iodine (Iodo Salicilico) First Aid Antiseptic; Sclerodine 6 Injection; Shen Min Vitamin and Mineral Supplement; Sky-Living Water MT Activition Liquid; Strong Iodine Solution; Sunmark Iodine; Super Multi; Super Vita Vim Multivitamins and Minerals; Super Vita-vim With Beta-carotene - Tab; Sweet Sixteen - Tab; Swiss One; Swiss One Multi Vit & Chel Min Tab; Swiss One Multivitamin and Mineral Caplet; Swiss One Timed Release Tab; Swiss Total One; Timed Release Vita-vim Srt; Tincture Of Iodine; Tincture Of Iodine 2.5%; Tincture Of Iodine 5%; Twin G.F. Powder; Twin G.F. Powder Vanilla Flavor; Twin Opti Pwr; Ultimate Tab; UltimateCare ONE NF; V & M Vitamin and Mineral Supplement; VIL-Rx; VITAFOL Gummies; Varol 1% Liquid; Vege Swiss One Multivitamin W Chel Mins Tab; Virt-Bal DHA Plus; Vita Vim Multivitamins and Minerals Tab; Vita Vim With Beta Carotene-caplet; Vita-vim - Tab; Vita-vim With Beta-carotene - Tab; Vitafol Fe Plus; Vitafol Nano; Vitafol One; Vitafol Plus; Vitamin & Mineral Formula 1 Dietary Supplement; Vitamines Et Mineraux Enfants 970; Wellness Formula

$$$$
