
  Mrv0541 05041406562D          

 33 32  0  0  1  0            999 V2000
   -8.1395    4.6993    0.0000 C   0  0  0  0  0  0  0  0  0  0  0  0
   10.4368    4.6993    0.0000 C   0  0  0  0  0  0  0  0  0  0  0  0
   -7.4250    4.2868    0.0000 C   0  0  0  0  0  0  0  0  0  0  0  0
    9.7223    4.2868    0.0000 C   0  0  0  0  0  0  0  0  0  0  0  0
   -6.7105    4.6993    0.0000 C   0  0  0  0  0  0  0  0  0  0  0  0
    9.0078    4.6993    0.0000 C   0  0  0  0  0  0  0  0  0  0  0  0
   -5.9961    4.2868    0.0000 C   0  0  0  0  0  0  0  0  0  0  0  0
    8.2934    4.2868    0.0000 C   0  0  0  0  0  0  0  0  0  0  0  0
   -5.2816    4.6993    0.0000 C   0  0  0  0  0  0  0  0  0  0  0  0
    7.5789    4.6993    0.0000 C   0  0  0  0  0  0  0  0  0  0  0  0
   -4.5671    4.2868    0.0000 C   0  0  0  0  0  0  0  0  0  0  0  0
    6.8644    4.2868    0.0000 C   0  0  0  0  0  0  0  0  0  0  0  0
   -3.8526    4.6993    0.0000 C   0  0  0  0  0  0  0  0  0  0  0  0
    6.1499    4.6993    0.0000 C   0  0  0  0  0  0  0  0  0  0  0  0
   -3.1382    4.2868    0.0000 C   0  0  0  0  0  0  0  0  0  0  0  0
    5.4355    4.2868    0.0000 C   0  0  0  0  0  0  0  0  0  0  0  0
   -2.4237    4.6993    0.0000 C   0  0  0  0  0  0  0  0  0  0  0  0
    4.7210    4.6993    0.0000 C   0  0  0  0  0  0  0  0  0  0  0  0
   -1.7092    4.2868    0.0000 C   0  0  0  0  0  0  0  0  0  0  0  0
    4.0065    4.2868    0.0000 C   0  0  0  0  0  0  0  0  0  0  0  0
   -0.9948    4.6993    0.0000 C   0  0  0  0  0  0  0  0  0  0  0  0
    3.2921    4.6993    0.0000 C   0  0  0  0  0  0  0  0  0  0  0  0
   -0.2803    4.2868    0.0000 C   0  0  0  0  0  0  0  0  0  0  0  0
    2.5776    4.2868    0.0000 C   0  0  0  0  0  0  0  0  0  0  0  0
    0.4342    5.5243    0.0000 C   0  0  0  0  0  0  0  0  0  0  0  0
    0.4342    4.6993    0.0000 C   0  0  1  0  0  0  0  0  0  0  0  0
   -0.2803    5.9368    0.0000 C   0  0  0  0  0  0  0  0  0  0  0  0
    1.8631    4.6993    0.0000 C   0  0  0  0  0  0  0  0  0  0  0  0
   -0.9948    5.5243    0.0000 O   0  0  0  0  0  0  0  0  0  0  0  0
   -0.2803    6.7618    0.0000 O   0  0  0  0  0  0  0  0  0  0  0  0
    1.8631    5.5243    0.0000 O   0  0  0  0  0  0  0  0  0  0  0  0
    1.1487    4.2868    0.0000 O   0  0  0  0  0  0  0  0  0  0  0  0
   -0.2803    5.1118    0.0000 H   0  0  0  0  0  0  0  0  0  0  0  0
  3  1  1  0  0  0  0
  4  2  1  0  0  0  0
  5  3  1  0  0  0  0
  6  4  1  0  0  0  0
  7  5  1  0  0  0  0
  8  6  1  0  0  0  0
  9  7  1  0  0  0  0
 10  8  1  0  0  0  0
 11  9  1  0  0  0  0
 12 10  1  0  0  0  0
 13 11  1  0  0  0  0
 14 12  1  0  0  0  0
 15 13  1  0  0  0  0
 16 14  1  0  0  0  0
 17 15  1  0  0  0  0
 18 16  1  0  0  0  0
 19 17  1  0  0  0  0
 20 18  1  0  0  0  0
 21 19  1  0  0  0  0
 22 20  1  0  0  0  0
 23 21  1  0  0  0  0
 24 22  1  0  0  0  0
 26 23  1  0  0  0  0
 26 25  1  0  0  0  0
 27 25  1  0  0  0  0
 28 24  1  0  0  0  0
 29 27  2  0  0  0  0
 30 27  1  0  0  0  0
 31 28  2  0  0  0  0
 26 32  1  6  0  0  0
 32 28  1  0  0  0  0
 26 33  1  6  0  0  0
M  END
> <DATABASE_ID>
DB01814

> <DATABASE_NAME>
drugbank

> <SMILES>
[H][C@](CCCCCCCCCCCC)(CC(O)=O)OC(=O)CCCCCCCCCCCC

> <INCHI_IDENTIFIER>
InChI=1S/C28H54O4/c1-3-5-7-9-11-13-15-17-19-21-23-26(25-27(29)30)32-28(31)24-22-20-18-16-14-12-10-8-6-4-2/h26H,3-25H2,1-2H3,(H,29,30)/t26-/m0/s1

> <INCHI_KEY>
WLKQLKMXKFGMQI-SANMLTNESA-N

> <FORMULA>
C28H54O4

> <MOLECULAR_WEIGHT>
454.726

> <EXACT_MASS>
454.402210216

> <JCHEM_ACCEPTOR_COUNT>
3

> <JCHEM_ATOM_COUNT>
86

> <JCHEM_AVERAGE_NEUTRAL_MICROSPECIES_CHARGE>
-0.9967033616464291

> <JCHEM_AVERAGE_POLARIZABILITY>
60.05931264498402

> <JCHEM_BIOAVAILABILITY>
0

> <JCHEM_DONOR_COUNT>
1

> <JCHEM_FORMAL_CHARGE>
0

> <JCHEM_GHOSE_FILTER>
0

> <JCHEM_IUPAC>
(3S)-3-(tridecanoyloxy)pentadecanoic acid

> <ALOGPS_LOGP>
9.13

> <JCHEM_LOGP>
10.168550953

> <ALOGPS_LOGS>
-7.19

> <JCHEM_MDDR_LIKE_RULE>
0

> <JCHEM_NEUTRAL_CHARGE>
-1

> <JCHEM_NUMBER_OF_RINGS>
0

> <JCHEM_PHYSIOLOGICAL_CHARGE>
-1

> <JCHEM_PKA_STRONGEST_ACIDIC>
4.51950538393054

> <JCHEM_PKA_STRONGEST_BASIC>
-7.042619693904684

> <JCHEM_POLAR_SURFACE_AREA>
63.599999999999994

> <JCHEM_REFRACTIVITY>
133.78650000000002

> <JCHEM_ROTATABLE_BOND_COUNT>
26

> <JCHEM_RULE_OF_FIVE>
0

> <ALOGPS_SOLUBILITY>
2.97e-05 g/l

> <JCHEM_TRADITIONAL_IUPAC>
biotin

> <JCHEM_VEBER_RULE>
0

> <DRUGBANK_ID>
DB01814

> <SECONDARY_ACCESSION_NUMBERS>
EXPT02033

> <DRUG_GROUPS>
experimental

> <GENERIC_NAME>
2-Tridecanoyloxy-Pentadecanoic Acid

$$$$
