
  Mrv0541 02231216012D          

  5  4  0  0  0  0            999 V2000
    2.0625   -0.7145    0.0000 C   0  0  0  0  0  0  0  0  0  0  0  0
    1.2375   -0.7145    0.0000 C   0  0  0  0  0  0  0  0  0  0  0  0
    0.8250   -1.4289    0.0000 O   0  0  0  0  0  0  0  0  0  0  0  0
    0.8250    0.0000    0.0000 O   0  0  0  0  0  0  0  0  0  0  0  0
    0.0000    0.0000    0.0000 Hg  0  3  0  0  0  0  0  0  0  0  0  0
  1  2  1  0  0  0  0
  2  3  2  0  0  0  0
  2  4  1  0  0  0  0
  4  5  1  0  0  0  0
M  CHG  1   5   1
M  END
> <DATABASE_ID>
DB02176

> <DATABASE_NAME>
drugbank

> <SMILES>
CC(=O)O[Hg+]

> <INCHI_IDENTIFIER>
InChI=1S/C2H4O2.Hg/c1-2(3)4;/h1H3,(H,3,4);/q;+2/p-1

> <INCHI_KEY>
QWSOAYZXYZDDPB-UHFFFAOYSA-M

> <FORMULA>
C2H3HgO2

> <MOLECULAR_WEIGHT>
259.63

> <EXACT_MASS>
260.983929944

> <JCHEM_ACCEPTOR_COUNT>
1

> <JCHEM_ATOM_COUNT>
8

> <JCHEM_AVERAGE_NEUTRAL_MICROSPECIES_CHARGE>
1.0

> <JCHEM_AVERAGE_POLARIZABILITY>
6.856650157984466

> <JCHEM_BIOAVAILABILITY>
1

> <JCHEM_DONOR_COUNT>
0

> <JCHEM_FORMAL_CHARGE>
1

> <JCHEM_GHOSE_FILTER>
0

> <JCHEM_IUPAC>
(acetyloxy)mercurylium

> <ALOGPS_LOGP>
0.16

> <JCHEM_LOGP>
-0.7566999999999999

> <ALOGPS_LOGS>
-0.56

> <JCHEM_MDDR_LIKE_RULE>
0

> <JCHEM_NEUTRAL_CHARGE>
1

> <JCHEM_NUMBER_OF_RINGS>
0

> <JCHEM_PHYSIOLOGICAL_CHARGE>
1

> <JCHEM_PKA_STRONGEST_BASIC>
-7.151126017990001

> <JCHEM_POLAR_SURFACE_AREA>
26.3

> <JCHEM_REFRACTIVITY>
11.7161

> <JCHEM_ROTATABLE_BOND_COUNT>
1

> <JCHEM_RULE_OF_FIVE>
1

> <ALOGPS_SOLUBILITY>
8.15e+01 g/l

> <JCHEM_TRADITIONAL_IUPAC>
biotin

> <JCHEM_VEBER_RULE>
1

> <DRUGBANK_ID>
DB02176

> <SECONDARY_ACCESSION_NUMBERS>
EXPT02104

> <DRUG_GROUPS>
experimental

> <GENERIC_NAME>
Mercury Acetate Ion

$$$$
