
  Mrv0541 05041412302D          

 19 19  0  0  1  0            999 V2000
    1.4289    0.8250    0.0000 C   0  0  0  0  0  0  0  0  0  0  0  0
    0.7145    1.2375    0.0000 C   0  0  1  0  0  0  0  0  0  0  0  0
    1.4289   -0.0000    0.0000 C   0  0  0  0  0  0  0  0  0  0  0  0
    0.0000    0.8250    0.0000 C   0  0  2  0  0  0  0  0  0  0  0  0
    2.1434   -0.4125    0.0000 C   0  0  0  0  0  0  0  0  0  0  0  0
    0.0000    0.0000    0.0000 C   0  0  2  0  0  0  0  0  0  0  0  0
    0.7145    2.0625    0.0000 O   0  0  0  0  0  0  0  0  0  0  0  0
    2.1434   -1.2375    0.0000 O   0  0  0  0  0  0  0  0  0  0  0  0
    2.8579   -0.0000    0.0000 O   0  0  0  0  0  0  0  0  0  0  0  0
   -0.7145   -0.4125    0.0000 O   0  0  0  0  0  0  0  0  0  0  0  0
   -2.1434    0.4125    0.0000 O   0  0  0  0  0  0  0  0  0  0  0  0
   -1.8414    1.5395    0.0000 O   0  0  0  0  0  0  0  0  0  0  0  0
   -1.0164    0.1105    0.0000 O   0  0  0  0  0  0  0  0  0  0  0  0
    0.7145   -0.4125    0.0000 O   0  0  0  0  0  0  0  0  0  0  0  0
   -0.7145    1.2375    0.0000 O   0  0  0  0  0  0  0  0  0  0  0  0
   -1.4289    0.8250    0.0000 S   0  0  0  0  0  0  0  0  0  0  0  0
    1.4289    1.6500    0.0000 H   0  0  0  0  0  0  0  0  0  0  0  0
    0.0000    1.6500    0.0000 H   0  0  0  0  0  0  0  0  0  0  0  0
   -0.7145    0.4125    0.0000 H   0  0  0  0  0  0  0  0  0  0  0  0
  2  1  1  0  0  0  0
  3  1  2  0  0  0  0
  4  2  1  0  0  0  0
  5  3  1  0  0  0  0
  6  4  1  0  0  0  0
  2  7  1  1  0  0  0
  8  5  2  0  0  0  0
  9  5  1  0  0  0  0
  6 10  1  1  0  0  0
 14  3  1  0  0  0  0
 14  6  1  0  0  0  0
  4 15  1  6  0  0  0
 16 11  1  0  0  0  0
 16 12  2  0  0  0  0
 16 13  2  0  0  0  0
 16 15  1  0  0  0  0
  2 17  1  6  0  0  0
  4 18  1  1  0  0  0
  6 19  1  6  0  0  0
M  END
> <DATABASE_ID>
DB03981

> <DATABASE_NAME>
drugbank

> <SMILES>
[H][C@@]1(O)OC(=C[C@]([H])(O)[C@@]1([H])OS(O)(=O)=O)C(O)=O

> <INCHI_IDENTIFIER>
InChI=1S/C6H8O9S/c7-2-1-3(5(8)9)14-6(10)4(2)15-16(11,12)13/h1-2,4,6-7,10H,(H,8,9)(H,11,12,13)/t2-,4+,6+/m0/s1

> <INCHI_KEY>
VJIMUKBSNUBECH-YKKSOZKNSA-N

> <FORMULA>
C6H8O9S

> <MOLECULAR_WEIGHT>
256.187

> <EXACT_MASS>
255.988902544

> <JCHEM_ACCEPTOR_COUNT>
8

> <JCHEM_ATOM_COUNT>
24

> <JCHEM_AVERAGE_NEUTRAL_MICROSPECIES_CHARGE>
-2.0000209751498885

> <JCHEM_AVERAGE_POLARIZABILITY>
20.218693446189224

> <JCHEM_BIOAVAILABILITY>
1

> <JCHEM_DONOR_COUNT>
4

> <JCHEM_FORMAL_CHARGE>
0

> <JCHEM_GHOSE_FILTER>
0

> <JCHEM_IUPAC>
(2R,3R,4S)-2,4-dihydroxy-3-(sulfooxy)-3,4-dihydro-2H-pyran-6-carboxylic acid

> <ALOGPS_LOGP>
-1.68

> <JCHEM_LOGP>
-3.9530353073173425

> <ALOGPS_LOGS>
-0.86

> <JCHEM_MDDR_LIKE_RULE>
0

> <JCHEM_NEUTRAL_CHARGE>
-2

> <JCHEM_NUMBER_OF_RINGS>
1

> <JCHEM_PHYSIOLOGICAL_CHARGE>
-2

> <JCHEM_PKA>
2.735697214346342

> <JCHEM_PKA_STRONGEST_ACIDIC>
-2.121049831535597

> <JCHEM_PKA_STRONGEST_BASIC>
-3.488820567662367

> <JCHEM_POLAR_SURFACE_AREA>
150.58999999999997

> <JCHEM_REFRACTIVITY>
46.143600000000006

> <JCHEM_ROTATABLE_BOND_COUNT>
3

> <JCHEM_RULE_OF_FIVE>
1

> <ALOGPS_SOLUBILITY>
3.52e+01 g/l

> <JCHEM_TRADITIONAL_IUPAC>
biotin

> <JCHEM_VEBER_RULE>
0

> <DRUGBANK_ID>
DB03981

> <SECONDARY_ACCESSION_NUMBERS>
EXPT03166

> <DRUG_GROUPS>
experimental

> <GENERIC_NAME>
1,4-Dideoxy-5-Dehydro-O2-Sulfo-Glucuronic Acid

$$$$
