
  Mrv0541 02231217142D          

  7  6  0  0  0  0            999 V2000
    1.7605    1.8414    0.0000 N   0  0  0  0  0  0  0  0  0  0  0  0
    2.4750    1.4289    0.0000 C   0  0  0  0  0  0  0  0  0  0  0  0
    3.1895    1.8414    0.0000 C   0  0  0  0  0  0  0  0  0  0  0  0
    3.9039    1.4289    0.0000 C   0  0  0  0  0  0  0  0  0  0  0  0
    4.6184    1.8414    0.0000 C   0  0  0  0  0  0  0  0  0  0  0  0
    5.3329    1.4289    0.0000 C   0  0  0  0  0  0  0  0  0  0  0  0
    6.0474    1.8414    0.0000 N   0  0  0  0  0  0  0  0  0  0  0  0
  1  2  1  0  0  0  0
  2  3  1  0  0  0  0
  3  4  1  0  0  0  0
  4  5  1  0  0  0  0
  5  6  1  0  0  0  0
  6  7  1  0  0  0  0
M  END
> <DATABASE_ID>
DB03854

> <DATABASE_NAME>
drugbank

> <SMILES>
NCCCCCN

> <INCHI_IDENTIFIER>
InChI=1S/C5H14N2/c6-4-2-1-3-5-7/h1-7H2

> <INCHI_KEY>
VHRGRCVQAFMJIZ-UHFFFAOYSA-N

> <FORMULA>
C5H14N2

> <MOLECULAR_WEIGHT>
102.1781

> <EXACT_MASS>
102.115698458

> <JCHEM_ACCEPTOR_COUNT>
2

> <JCHEM_ATOM_COUNT>
21

> <JCHEM_AVERAGE_NEUTRAL_MICROSPECIES_CHARGE>
1.9984436917010733

> <JCHEM_AVERAGE_POLARIZABILITY>
13.112767429733221

> <JCHEM_BIOAVAILABILITY>
1

> <JCHEM_DONOR_COUNT>
2

> <JCHEM_FORMAL_CHARGE>
0

> <JCHEM_GHOSE_FILTER>
0

> <JCHEM_IUPAC>
pentane-1,5-diamine

> <ALOGPS_LOGP>
-0.27

> <JCHEM_LOGP>
-0.4005515990000003

> <ALOGPS_LOGS>
-0.06

> <JCHEM_MDDR_LIKE_RULE>
0

> <JCHEM_NEUTRAL_CHARGE>
2

> <JCHEM_NUMBER_OF_RINGS>
0

> <JCHEM_PHYSIOLOGICAL_CHARGE>
2

> <JCHEM_PKA_STRONGEST_BASIC>
10.506503804690274

> <JCHEM_POLAR_SURFACE_AREA>
52.04

> <JCHEM_REFRACTIVITY>
31.979599999999998

> <JCHEM_ROTATABLE_BOND_COUNT>
4

> <JCHEM_RULE_OF_FIVE>
1

> <ALOGPS_SOLUBILITY>
8.91e+01 g/l

> <JCHEM_TRADITIONAL_IUPAC>
tetrahydrofolic acid

> <JCHEM_VEBER_RULE>
0

> <DRUGBANK_ID>
DB03854

> <SECONDARY_ACCESSION_NUMBERS>
EXPT02275

> <DRUG_GROUPS>
experimental

> <GENERIC_NAME>
Cadaverine

> <SYNONYMS>
1,5-Diaminopentane; 1,5-pentamethylenediamine; 1,5-Pentanediamine; DAPE; Pentamethylenediamine

$$$$
