
  Mrv0541 05031423412D          

 78 82  0  0  1  0            999 V2000
   -2.1434   -2.8875    0.0000 C   0  0  0  0  0  0  0  0  0  0  0  0
   -6.4302   -0.4125    0.0000 C   0  0  0  0  0  0  0  0  0  0  0  0
   -2.8579   -2.4750    0.0000 C   0  0  0  0  0  0  0  0  0  0  0  0
   -2.1434   -1.2375    0.0000 C   0  0  0  0  0  0  0  0  0  0  0  0
    0.7145   -2.8875    0.0000 C   0  0  0  0  0  0  0  0  0  0  0  0
   -0.7145   -3.7125    0.0000 C   0  0  0  0  0  0  0  0  0  0  0  0
   -2.1434   -3.7125    0.0000 C   0  0  2  0  0  0  0  0  0  0  0  0
   -5.7158   -0.0000    0.0000 C   0  0  2  0  0  0  0  0  0  0  0  0
   -2.8579   -1.6500    0.0000 C   0  0  0  0  0  0  0  0  0  0  0  0
   -3.5724   -2.8875    0.0000 C   0  0  1  0  0  0  0  0  0  0  0  0
    1.4289   -2.4750    0.0000 C   0  0  2  0  0  0  0  0  0  0  0  0
    0.0000   -4.1250    0.0000 C   0  0  2  0  0  0  0  0  0  0  0  0
   -2.8579   -4.1250    0.0000 C   0  0  2  0  0  0  0  0  0  0  0  0
   -5.7158    0.8250    0.0000 C   0  0  2  0  0  0  0  0  0  0  0  0
   -4.2868   -2.4750    0.0000 C   0  0  1  0  0  0  0  0  0  0  0  0
   -2.8579   -4.9500    0.0000 C   0  0  1  0  0  0  0  0  0  0  0  0
   -5.0013    1.2375    0.0000 C   0  0  1  0  0  0  0  0  0  0  0  0
   -4.2868   -1.6500    0.0000 C   0  0  2  0  0  0  0  0  0  0  0  0
    2.8579   -2.4750    0.0000 C   0  0  2  0  0  0  0  0  0  0  0  0
    0.7145   -5.3625    0.0000 C   0  0  2  0  0  0  0  0  0  0  0  0
    2.8579   -1.6500    0.0000 C   0  0  2  0  0  0  0  0  0  0  0  0
   -2.1434   -5.3625    0.0000 C   0  0  2  0  0  0  0  0  0  0  0  0
   -4.2868    0.8250    0.0000 C   0  0  2  0  0  0  0  0  0  0  0  0
    1.4289   -4.9500    0.0000 C   0  0  2  0  0  0  0  0  0  0  0  0
   -3.5724   -1.2375    0.0000 C   0  0  2  0  0  0  0  0  0  0  0  0
    2.1434   -2.8875    0.0000 C   0  0  2  0  0  0  0  0  0  0  0  0
    0.0000   -4.9500    0.0000 C   0  0  2  0  0  0  0  0  0  0  0  0
    2.1434   -1.2375    0.0000 C   0  0  1  0  0  0  0  0  0  0  0  0
   -1.4289   -4.9500    0.0000 C   0  0  2  0  0  0  0  0  0  0  0  0
   -4.2868   -0.0000    0.0000 C   0  0  2  0  0  0  0  0  0  0  0  0
    1.4289   -4.1250    0.0000 C   0  0  2  0  0  0  0  0  0  0  0  0
   -3.5724   -3.7125    0.0000 N   0  0  0  0  0  0  0  0  0  0  0  0
   -2.1434   -0.4125    0.0000 O   0  0  0  0  0  0  0  0  0  0  0  0
   -0.0000   -2.4750    0.0000 O   0  0  0  0  0  0  0  0  0  0  0  0
   -0.7145   -2.8875    0.0000 O   0  0  0  0  0  0  0  0  0  0  0  0
   -6.4302    1.2375    0.0000 O   0  0  0  0  0  0  0  0  0  0  0  0
   -5.0013   -2.8875    0.0000 O   0  0  0  0  0  0  0  0  0  0  0  0
   -3.5724   -5.3625    0.0000 O   0  0  0  0  0  0  0  0  0  0  0  0
   -5.0013    2.0625    0.0000 O   0  0  0  0  0  0  0  0  0  0  0  0
   -5.0013   -1.2375    0.0000 O   0  0  0  0  0  0  0  0  0  0  0  0
    3.5724   -2.8875    0.0000 O   0  0  0  0  0  0  0  0  0  0  0  0
    0.7145   -6.1875    0.0000 O   0  0  0  0  0  0  0  0  0  0  0  0
    3.5724   -1.2375    0.0000 O   0  0  0  0  0  0  0  0  0  0  0  0
   -2.1434   -6.1875    0.0000 O   0  0  0  0  0  0  0  0  0  0  0  0
   -3.5724    1.2375    0.0000 O   0  0  0  0  0  0  0  0  0  0  0  0
    2.1434   -5.3625    0.0000 O   0  0  0  0  0  0  0  0  0  0  0  0
    2.1434   -0.4125    0.0000 O   0  0  0  0  0  0  0  0  0  0  0  0
   -1.4289   -4.1250    0.0000 O   0  0  0  0  0  0  0  0  0  0  0  0
   -5.0013   -0.4125    0.0000 O   0  0  0  0  0  0  0  0  0  0  0  0
    1.4289   -1.6500    0.0000 O   0  0  0  0  0  0  0  0  0  0  0  0
    0.7145   -3.7125    0.0000 O   0  0  0  0  0  0  0  0  0  0  0  0
   -3.5724   -0.4125    0.0000 O   0  0  0  0  0  0  0  0  0  0  0  0
   -0.7145   -5.3625    0.0000 O   0  0  0  0  0  0  0  0  0  0  0  0
    2.1434   -3.7125    0.0000 O   0  0  0  0  0  0  0  0  0  0  0  0
   -2.8579   -3.3000    0.0000 H   0  0  0  0  0  0  0  0  0  0  0  0
   -6.5282    0.1433    0.0000 H   0  0  0  0  0  0  0  0  0  0  0  0
   -2.7599   -3.0308    0.0000 H   0  0  0  0  0  0  0  0  0  0  0  0
    1.7111   -3.2502    0.0000 H   0  0  0  0  0  0  0  0  0  0  0  0
   -0.5303   -4.7570    0.0000 H   0  0  0  0  0  0  0  0  0  0  0  0
   -2.5757   -3.3498    0.0000 H   0  0  0  0  0  0  0  0  0  0  0  0
   -6.5282    0.6817    0.0000 H   0  0  0  0  0  0  0  0  0  0  0  0
   -4.2868   -3.3000    0.0000 H   0  0  0  0  0  0  0  0  0  0  0  0
   -3.5724   -4.5375    0.0000 H   0  0  0  0  0  0  0  0  0  0  0  0
   -5.7158    1.6500    0.0000 H   0  0  0  0  0  0  0  0  0  0  0  0
   -5.0013   -2.0625    0.0000 H   0  0  0  0  0  0  0  0  0  0  0  0
    3.3882   -1.8430    0.0000 H   0  0  0  0  0  0  0  0  0  0  0  0
    1.5269   -5.5058    0.0000 H   0  0  0  0  0  0  0  0  0  0  0  0
    3.6704   -1.7933    0.0000 H   0  0  0  0  0  0  0  0  0  0  0  0
   -2.8579   -5.7750    0.0000 H   0  0  0  0  0  0  0  0  0  0  0  0
   -4.2868    1.6500    0.0000 H   0  0  0  0  0  0  0  0  0  0  0  0
    1.7111   -5.7252    0.0000 H   0  0  0  0  0  0  0  0  0  0  0  0
   -2.8579   -0.8250    0.0000 H   0  0  0  0  0  0  0  0  0  0  0  0
    1.6131   -3.5195    0.0000 H   0  0  0  0  0  0  0  0  0  0  0  0
   -0.8125   -4.8067    0.0000 H   0  0  0  0  0  0  0  0  0  0  0  0
    2.8579   -0.8250    0.0000 H   0  0  0  0  0  0  0  0  0  0  0  0
   -1.4289   -5.7750    0.0000 H   0  0  0  0  0  0  0  0  0  0  0  0
   -3.5724    0.4125    0.0000 H   0  0  0  0  0  0  0  0  0  0  0  0
    2.1434   -4.5375    0.0000 H   0  0  0  0  0  0  0  0  0  0  0  0
  7  1  1  1  0  0  0
  8  2  1  6  0  0  0
  9  3  2  0  0  0  0
  9  4  1  0  0  0  0
 10  3  1  0  0  0  0
 11  5  1  1  0  0  0
 12  6  1  1  0  0  0
 13  7  1  0  0  0  0
 14  8  1  0  0  0  0
 15 10  1  0  0  0  0
 16 13  1  0  0  0  0
 17 14  1  0  0  0  0
 18 15  1  0  0  0  0
 21 19  1  0  0  0  0
 22 16  1  0  0  0  0
 23 17  1  0  0  0  0
 24 20  1  0  0  0  0
 25  9  1  0  0  0  0
 25 18  1  0  0  0  0
 26 11  1  0  0  0  0
 26 19  1  0  0  0  0
 27 12  1  0  0  0  0
 27 20  1  0  0  0  0
 28 21  1  0  0  0  0
 29 22  1  0  0  0  0
 30 23  1  0  0  0  0
 31 24  1  0  0  0  0
 10 32  1  6  0  0  0
 13 32  1  6  0  0  0
 33  4  1  0  0  0  0
 34  5  1  0  0  0  0
 35  6  1  0  0  0  0
 14 36  1  1  0  0  0
 15 37  1  6  0  0  0
 16 38  1  1  0  0  0
 17 39  1  6  0  0  0
 18 40  1  1  0  0  0
 19 41  1  1  0  0  0
 20 42  1  1  0  0  0
 21 43  1  6  0  0  0
 22 44  1  6  0  0  0
 23 45  1  1  0  0  0
 24 46  1  6  0  0  0
 28 47  1  6  0  0  0
 48  7  1  0  0  0  0
 48 29  1  0  0  0  0
 49  8  1  0  0  0  0
 49 30  1  0  0  0  0
 50 11  1  0  0  0  0
 50 28  1  0  0  0  0
 51 12  1  0  0  0  0
 51 31  1  0  0  0  0
 25 52  1  6  0  0  0
 30 52  1  1  0  0  0
 27 53  1  6  0  0  0
 29 53  1  6  0  0  0
 26 54  1  6  0  0  0
 31 54  1  6  0  0  0
  7 55  1  6  0  0  0
  8 56  1  1  0  0  0
 10 57  1  1  0  0  0
 11 58  1  6  0  0  0
 12 59  1  6  0  0  0
 13 60  1  1  0  0  0
 14 61  1  6  0  0  0
 15 62  1  1  0  0  0
 16 63  1  6  0  0  0
 17 64  1  1  0  0  0
 18 65  1  6  0  0  0
 19 66  1  6  0  0  0
 20 67  1  6  0  0  0
 21 68  1  1  0  0  0
 22 69  1  1  0  0  0
 23 70  1  6  0  0  0
 24 71  1  1  0  0  0
 25 72  1  1  0  0  0
 26 73  1  1  0  0  0
 27 74  1  1  0  0  0
 28 75  1  1  0  0  0
 29 76  1  1  0  0  0
 30 77  1  6  0  0  0
 31 78  1  1  0  0  0
M  END
> <DATABASE_ID>
DB04439

> <DATABASE_NAME>
drugbank

> <SMILES>
[H][C@]1(C)O[C@]([H])(O[C@]2([H])C(CO)=C[C@]([H])(N[C@]3([H])[C@@]([H])(C)O[C@]([H])(O[C@]4([H])[C@@]([H])(CO)O[C@]([H])(O[C@]5([H])[C@@]([H])(CO)O[C@]([H])(O)[C@]([H])(O)[C@@]5([H])O)[C@]([H])(O)[C@@]4([H])O)[C@]([H])(O)[C@@]3([H])O)[C@]([H])(O)[C@@]2([H])O)[C@]([H])(O)[C@@]([H])(O)[C@]1([H])O

> <INCHI_IDENTIFIER>
InChI=1S/C31H53NO22/c1-7-13(32-10-3-9(4-33)25(18(40)15(10)37)52-30-23(45)17(39)14(36)8(2)49-30)16(38)22(44)29(48-7)53-27-12(6-35)51-31(24(46)20(27)42)54-26-11(5-34)50-28(47)21(43)19(26)41/h3,7-8,10-47H,4-6H2,1-2H3/t7-,8-,10+,11-,12-,13-,14-,15+,16+,17+,18-,19-,20-,21-,22-,23-,24-,25-,26-,27-,28+,29-,30-,31-/m1/s1

> <INCHI_KEY>
QWNATFSCUHKKDP-WYKVUHPSSA-N

> <FORMULA>
C31H53NO22

> <MOLECULAR_WEIGHT>
791.746

> <EXACT_MASS>
791.305922385

> <JCHEM_ACCEPTOR_COUNT>
23

> <JCHEM_ATOM_COUNT>
107

> <JCHEM_AVERAGE_NEUTRAL_MICROSPECIES_CHARGE>
0.6820292880785468

> <JCHEM_AVERAGE_POLARIZABILITY>
76.68818637460068

> <JCHEM_BIOAVAILABILITY>
0

> <JCHEM_DONOR_COUNT>
16

> <JCHEM_FORMAL_CHARGE>
0

> <JCHEM_GHOSE_FILTER>
0

> <JCHEM_IUPAC>
(2R,3R,4S,5S,6R)-2-{[(1R,4S,5S,6R)-4-{[(2R,3S,4S,5R,6R)-6-{[(2R,3S,4R,5R,6R)-4,5-dihydroxy-2-(hydroxymethyl)-6-{[(2R,3S,4R,5R,6S)-4,5,6-trihydroxy-2-(hydroxymethyl)oxan-3-yl]oxy}oxan-3-yl]oxy}-4,5-dihydroxy-2-methyloxan-3-yl]amino}-5,6-dihydroxy-2-(hydroxymethyl)cyclohex-2-en-1-yl]oxy}-6-methyloxane-3,4,5-triol

> <ALOGPS_LOGP>
-2.42

> <JCHEM_LOGP>
-8.338484535666664

> <ALOGPS_LOGS>
-0.94

> <JCHEM_MDDR_LIKE_RULE>
1

> <JCHEM_NEUTRAL_CHARGE>
1

> <JCHEM_NUMBER_OF_RINGS>
5

> <JCHEM_PHYSIOLOGICAL_CHARGE>
1

> <JCHEM_PKA>
11.90168278344192

> <JCHEM_PKA_STRONGEST_ACIDIC>
11.201131438095045

> <JCHEM_PKA_STRONGEST_BASIC>
7.331549133623653

> <JCHEM_POLAR_SURFACE_AREA>
380.0900000000001

> <JCHEM_REFRACTIVITY>
168.47200000000007

> <JCHEM_ROTATABLE_BOND_COUNT>
11

> <JCHEM_RULE_OF_FIVE>
0

> <ALOGPS_SOLUBILITY>
8.99e+01 g/l

> <JCHEM_TRADITIONAL_IUPAC>
tetrahydrofolic acid

> <JCHEM_VEBER_RULE>
0

> <DRUGBANK_ID>
DB04439

> <SECONDARY_ACCESSION_NUMBERS>
EXPT00411

> <DRUG_GROUPS>
experimental

> <GENERIC_NAME>
Modified Acarbose Pentasaccharide

$$$$
