
  Mrv0541 05041407062D          

 35 34  0  0  1  0            999 V2000
    7.9480    5.4138    0.0000 C   0  0  0  0  0  0  0  0  0  0  0  0
    8.6625    5.0013    0.0000 C   0  0  0  0  0  0  0  0  0  0  0  0
    9.3770    5.4138    0.0000 C   0  0  0  0  0  0  0  0  0  0  0  0
   10.0914    5.0013    0.0000 C   0  0  0  0  0  0  0  0  0  0  0  0
   10.8059    5.4138    0.0000 C   0  0  0  0  0  0  0  0  0  0  0  0
   11.5204    5.0013    0.0000 C   0  0  0  0  0  0  0  0  0  0  0  0
   12.2349    5.4138    0.0000 C   0  0  0  0  0  0  0  0  0  0  0  0
   12.9493    5.0013    0.0000 C   0  0  0  0  0  0  0  0  0  0  0  0
   13.6638    5.4138    0.0000 C   0  0  0  0  0  0  0  0  0  0  0  0
   14.3783    5.0013    0.0000 C   0  0  0  0  0  0  0  0  0  0  0  0
   15.0927    5.4138    0.0000 C   0  0  0  0  0  0  0  0  0  0  0  0
   15.8072    5.0013    0.0000 C   0  0  0  0  0  0  0  0  0  0  0  0
   16.5217    5.4138    0.0000 C   0  0  0  0  0  0  0  0  0  0  0  0
   17.2362    5.0013    0.0000 C   0  0  0  0  0  0  0  0  0  0  0  0
   19.3796    5.4138    0.0000 C   0  0  0  0  0  0  0  0  0  0  0  0
   20.8085    5.4138    0.0000 C   0  0  0  0  0  0  0  0  0  0  0  0
   23.6664    5.4138    0.0000 C   0  0  0  0  0  0  0  0  0  0  0  0
   20.0940    5.0013    0.0000 C   0  0  2  0  0  0  0  0  0  0  0  0
   24.3809    5.8263    0.0000 C   0  0  1  0  0  0  0  0  0  0  0  0
   17.9506    5.4138    0.0000 C   0  0  2  0  0  0  0  0  0  0  0  0
   25.0953    5.4138    0.0000 C   0  0  0  0  0  0  0  0  0  0  0  0
   24.3809    6.6513    0.0000 N   0  0  0  0  0  0  0  0  0  0  0  0
   20.0940    4.1763    0.0000 O   0  0  0  0  0  0  0  0  0  0  0  0
   17.9506    6.2388    0.0000 O   0  0  0  0  0  0  0  0  0  0  0  0
   25.8098    5.8263    0.0000 O   0  0  0  0  0  0  0  0  0  0  0  0
   25.0953    4.5888    0.0000 O   0  0  0  0  0  0  0  0  0  0  0  0
   22.6499    4.6993    0.0000 O   0  0  0  0  0  0  0  0  0  0  0  0
   21.8249    6.1283    0.0000 O   0  0  0  0  0  0  0  0  0  0  0  0
   18.6651    5.0013    0.0000 O   0  0  0  0  0  0  0  0  0  0  0  0
   21.5230    5.0013    0.0000 O   0  0  0  0  0  0  0  0  0  0  0  0
   22.9519    5.8263    0.0000 O   0  0  0  0  0  0  0  0  0  0  0  0
   22.2374    5.4138    0.0000 P   0  0  0  0  0  0  0  0  0  0  0  0
   20.0940    5.8263    0.0000 H   0  0  0  0  0  0  0  0  0  0  0  0
   24.3809    5.0013    0.0000 H   0  0  0  0  0  0  0  0  0  0  0  0
   17.2362    5.8263    0.0000 H   0  0  0  0  0  0  0  0  0  0  0  0
  2  1  1  0  0  0  0
  3  2  1  0  0  0  0
  4  3  1  0  0  0  0
  5  4  1  0  0  0  0
  6  5  1  0  0  0  0
  7  6  1  0  0  0  0
  8  7  1  0  0  0  0
  9  8  1  0  0  0  0
 10  9  1  0  0  0  0
 11 10  1  0  0  0  0
 12 11  1  0  0  0  0
 13 12  1  0  0  0  0
 14 13  1  0  0  0  0
 18 15  1  0  0  0  0
 18 16  1  0  0  0  0
 19 17  1  0  0  0  0
 20 14  1  0  0  0  0
 21 19  1  0  0  0  0
 19 22  1  1  0  0  0
 18 23  1  1  0  0  0
 20 24  1  6  0  0  0
 25 21  2  0  0  0  0
 26 21  1  0  0  0  0
 29 15  1  0  0  0  0
 29 20  1  0  0  0  0
 30 16  1  0  0  0  0
 31 17  1  0  0  0  0
 32 27  1  0  0  0  0
 32 28  2  0  0  0  0
 32 30  1  0  0  0  0
 32 31  1  0  0  0  0
 18 33  1  1  0  0  0
 19 34  1  1  0  0  0
 20 35  1  1  0  0  0
M  END
> <DATABASE_ID>
DB04136

> <DATABASE_NAME>
drugbank

> <SMILES>
[H][C@@](O)(CO[C@@]([H])(O)CCCCCCCCCCCCCC)COP(O)(=O)OC[C@]([H])(N)C(O)=O

> <INCHI_IDENTIFIER>
InChI=1S/C21H44NO9P/c1-2-3-4-5-6-7-8-9-10-11-12-13-14-20(24)29-15-18(23)16-30-32(27,28)31-17-19(22)21(25)26/h18-20,23-24H,2-17,22H2,1H3,(H,25,26)(H,27,28)/t18-,19+,20-/m1/s1

> <INCHI_KEY>
RPZLJDFLPRHXGM-HSALFYBXSA-N

> <FORMULA>
C21H44NO9P

> <MOLECULAR_WEIGHT>
485.5491

> <EXACT_MASS>
485.275368523

> <JCHEM_ACCEPTOR_COUNT>
8

> <JCHEM_ATOM_COUNT>
76

> <JCHEM_AVERAGE_NEUTRAL_MICROSPECIES_CHARGE>
-1.0041777509541765

> <JCHEM_AVERAGE_POLARIZABILITY>
53.68817613329623

> <JCHEM_BIOAVAILABILITY>
1

> <JCHEM_DONOR_COUNT>
5

> <JCHEM_FORMAL_CHARGE>
0

> <JCHEM_GHOSE_FILTER>
0

> <JCHEM_IUPAC>
(2S)-2-amino-3-({hydroxy[(2R)-2-hydroxy-3-{[(1R)-1-hydroxypentadecyl]oxy}propoxy]phosphoryl}oxy)propanoic acid

> <ALOGPS_LOGP>
0.47

> <JCHEM_LOGP>
1.9557366929374647

> <ALOGPS_LOGS>
-4.84

> <JCHEM_MDDR_LIKE_RULE>
0

> <JCHEM_NEUTRAL_CHARGE>
-1

> <JCHEM_NUMBER_OF_RINGS>
0

> <JCHEM_PHYSIOLOGICAL_CHARGE>
-1

> <JCHEM_PKA>
2.2134305091715785

> <JCHEM_PKA_STRONGEST_ACIDIC>
1.5080082533929888

> <JCHEM_PKA_STRONGEST_BASIC>
9.376236010700184

> <JCHEM_POLAR_SURFACE_AREA>
168.76999999999998

> <JCHEM_REFRACTIVITY>
120.02709999999996

> <JCHEM_ROTATABLE_BOND_COUNT>
23

> <JCHEM_RULE_OF_FIVE>
1

> <ALOGPS_SOLUBILITY>
7.07e-03 g/l

> <JCHEM_TRADITIONAL_IUPAC>
biotin

> <JCHEM_VEBER_RULE>
0

> <DRUGBANK_ID>
DB04136

> <SECONDARY_ACCESSION_NUMBERS>
EXPT02059

> <DRUG_GROUPS>
experimental

> <GENERIC_NAME>
Lysophosphotidylserine

$$$$
