
  Mrv0541 02231215442D          

  9  9  0  0  0  0            999 V2000
    0.0000    2.4750    0.0000 O   0  0  0  0  0  0  0  0  0  0  0  0
    0.7145    2.0625    0.0000 B   0  0  0  0  0  0  0  0  0  0  0  0
    1.4289    2.4750    0.0000 O   0  0  0  0  0  0  0  0  0  0  0  0
    0.7145    1.2375    0.0000 C   0  0  0  0  0  0  0  0  0  0  0  0
    1.4289    0.8250    0.0000 C   0  0  0  0  0  0  0  0  0  0  0  0
    1.4289    0.0000    0.0000 C   0  0  0  0  0  0  0  0  0  0  0  0
    0.7145   -0.4125    0.0000 C   0  0  0  0  0  0  0  0  0  0  0  0
    0.0000    0.0000    0.0000 C   0  0  0  0  0  0  0  0  0  0  0  0
    0.0000    0.8250    0.0000 C   0  0  0  0  0  0  0  0  0  0  0  0
  1  2  1  0  0  0  0
  2  3  1  0  0  0  0
  2  4  1  0  0  0  0
  4  5  2  0  0  0  0
  5  6  1  0  0  0  0
  6  7  2  0  0  0  0
  7  8  1  0  0  0  0
  8  9  2  0  0  0  0
  4  9  1  0  0  0  0
M  END
> <DATABASE_ID>
DB01795

> <DATABASE_NAME>
drugbank

> <SMILES>
OB(O)C1=CC=CC=C1

> <INCHI_IDENTIFIER>
InChI=1S/C6H7BO2/c8-7(9)6-4-2-1-3-5-6/h1-5,8-9H

> <INCHI_KEY>
HXITXNWTGFUOAU-UHFFFAOYSA-N

> <FORMULA>
C6H7BO2

> <MOLECULAR_WEIGHT>
121.93

> <EXACT_MASS>
122.053909934

> <JCHEM_ACCEPTOR_COUNT>
2

> <JCHEM_ATOM_COUNT>
16

> <JCHEM_AVERAGE_NEUTRAL_MICROSPECIES_CHARGE>
-0.017295488251038785

> <JCHEM_AVERAGE_POLARIZABILITY>
12.839320755579013

> <JCHEM_BIOAVAILABILITY>
1

> <JCHEM_DONOR_COUNT>
2

> <JCHEM_FORMAL_CHARGE>
0

> <JCHEM_GHOSE_FILTER>
0

> <JCHEM_IUPAC>
phenylboronic acid

> <ALOGPS_LOGP>
0.53

> <JCHEM_LOGP>
1.6398000000000006

> <ALOGPS_LOGS>
-1.08

> <JCHEM_MDDR_LIKE_RULE>
0

> <JCHEM_NEUTRAL_CHARGE>
0

> <JCHEM_NUMBER_OF_RINGS>
1

> <JCHEM_PHYSIOLOGICAL_CHARGE>
0

> <JCHEM_PKA>
11.052441470978316

> <JCHEM_PKA_STRONGEST_ACIDIC>
8.759041423051071

> <JCHEM_PKA_STRONGEST_BASIC>
-5.396924761454036

> <JCHEM_POLAR_SURFACE_AREA>
40.46

> <JCHEM_REFRACTIVITY>
30.6035

> <JCHEM_ROTATABLE_BOND_COUNT>
1

> <JCHEM_RULE_OF_FIVE>
1

> <ALOGPS_SOLUBILITY>
1.01e+01 g/l

> <JCHEM_TRADITIONAL_IUPAC>
tetrahydrofolic acid

> <JCHEM_VEBER_RULE>
0

> <DRUGBANK_ID>
DB01795

> <SECONDARY_ACCESSION_NUMBERS>
EXPT02505

> <DRUG_GROUPS>
experimental

> <GENERIC_NAME>
Phenylboronic acid

> <SYNONYMS>
Benzeneboronic acid; Borophenylic acid; dihydroxy(phenyl)borane; Phenyldihydroxyborane

$$$$
