
  Mrv0541 02231216332D          

 11 12  0  0  1  0            999 V2000
    3.5724    2.8875    0.0000 C   0  0  0  0  0  0  0  0  0  0  0  0
    3.5724    2.0625    0.0000 C   0  0  0  0  0  0  0  0  0  0  0  0
    4.2868    1.6500    0.0000 C   0  0  0  0  0  0  0  0  0  0  0  0
    2.8579    1.6500    0.0000 C   0  0  2  0  0  0  0  0  0  0  0  0
    2.8579    0.8250    0.0000 C   0  0  0  0  0  0  0  0  0  0  0  0
    2.1434    0.4125    0.0000 C   0  0  0  0  0  0  0  0  0  0  0  0
    1.4289    0.8250    0.0000 C   0  0  1  0  0  0  0  0  0  0  0  0
    1.0164    0.1105    0.0000 C   0  0  0  0  0  0  0  0  0  0  0  0
    0.7145    1.2375    0.0000 O   0  0  0  0  0  0  0  0  0  0  0  0
    1.4289    1.6500    0.0000 C   0  0  1  0  0  0  0  0  0  0  0  0
    2.1434    2.0625    0.0000 C   0  0  0  0  0  0  0  0  0  0  0  0
  1  2  1  0  0  0  0
  2  3  2  0  0  0  0
  4  2  1  6  0  0  0
  4  5  1  0  0  0  0
  5  6  1  0  0  0  0
  6  7  1  0  0  0  0
  7  8  1  6  0  0  0
  7  9  1  0  0  0  0
 10  9  1  1  0  0  0
  7 10  1  0  0  0  0
 10 11  1  0  0  0  0
  4 11  1  0  0  0  0
M  END
> <DATABASE_ID>
DB02924

> <DATABASE_NAME>
drugbank

> <SMILES>
CC(=C)[C@@H]1CC[C@@]2(C)O[C@H]2C1

> <INCHI_IDENTIFIER>
InChI=1S/C10H16O/c1-7(2)8-4-5-10(3)9(6-8)11-10/h8-9H,1,4-6H2,2-3H3/t8-,9+,10-/m1/s1

> <INCHI_KEY>
CCEFMUBVSUDRLG-KXUCPTDWSA-N

> <FORMULA>
C10H16O

> <MOLECULAR_WEIGHT>
152.2334

> <EXACT_MASS>
152.120115134

> <JCHEM_ACCEPTOR_COUNT>
1

> <JCHEM_ATOM_COUNT>
27

> <JCHEM_AVERAGE_NEUTRAL_MICROSPECIES_CHARGE>
5.963151471061378e-12

> <JCHEM_AVERAGE_POLARIZABILITY>
18.193568974207373

> <JCHEM_BIOAVAILABILITY>
1

> <JCHEM_DONOR_COUNT>
0

> <JCHEM_FORMAL_CHARGE>
0

> <JCHEM_GHOSE_FILTER>
0

> <JCHEM_IUPAC>
(1R,4R,6S)-1-methyl-4-(prop-1-en-2-yl)-7-oxabicyclo[4.1.0]heptane

> <ALOGPS_LOGP>
2.81

> <JCHEM_LOGP>
2.319031143333333

> <ALOGPS_LOGS>
-2.64

> <JCHEM_MDDR_LIKE_RULE>
0

> <JCHEM_NEUTRAL_CHARGE>
0

> <JCHEM_NUMBER_OF_RINGS>
2

> <JCHEM_PHYSIOLOGICAL_CHARGE>
0

> <JCHEM_PKA_STRONGEST_BASIC>
-4.224524158920892

> <JCHEM_POLAR_SURFACE_AREA>
12.53

> <JCHEM_REFRACTIVITY>
45.24080000000001

> <JCHEM_ROTATABLE_BOND_COUNT>
1

> <JCHEM_RULE_OF_FIVE>
1

> <ALOGPS_SOLUBILITY>
3.51e-01 g/l

> <JCHEM_TRADITIONAL_IUPAC>
tetrahydrofolic acid

> <JCHEM_VEBER_RULE>
1

> <DRUGBANK_ID>
DB02924

> <SECONDARY_ACCESSION_NUMBERS>
EXPT02019

> <DRUG_GROUPS>
experimental

> <GENERIC_NAME>
(4R)-limonene 1α,2α-epoxide

> <SYNONYMS>
(+)-trans-limonene oxide; (1S,4R,6R)-4-isopropenyl-1-methyl-7-oxabicyclo[4.1.0]heptane; (4R)-limonene 1alpha,2alpha-epoxide; 1α,2α-epoxy-4βH-p-menth-8-ene; D-limonene 1,2-epoxide

$$$$
