
  Mrv0541 02231215452D          

 11 10  0  0  1  0            999 V2000
    1.7605    1.0164    0.0000 C   0  0  0  0  0  0  0  0  0  0  0  0
    2.4750    1.4289    0.0000 P   0  0  1  0  0  0  0  0  0  0  0  0
    2.8875    0.7145    0.0000 O   0  0  0  0  0  0  0  0  0  0  0  0
    2.0625    2.1434    0.0000 O   0  0  0  0  0  0  0  0  0  0  0  0
    3.1895    1.8414    0.0000 C   0  0  0  0  0  0  0  0  0  0  0  0
    3.9039    1.4289    0.0000 C   0  0  0  0  0  0  0  0  0  0  0  0
    3.9039    0.6039    0.0000 O   0  0  0  0  0  0  0  0  0  0  0  0
    4.6184    1.8414    0.0000 C   0  0  0  0  0  0  0  0  0  0  0  0
    5.3329    1.4289    0.0000 C   0  0  0  0  0  0  0  0  0  0  0  0
    6.0474    1.8414    0.0000 O   0  0  0  0  0  0  0  0  0  0  0  0
    5.3329    0.6039    0.0000 O   0  0  0  0  0  0  0  0  0  0  0  0
  2  1  1  1  0  0  0
  2  3  1  6  0  0  0
  2  4  2  0  0  0  0
  2  5  1  0  0  0  0
  5  6  1  0  0  0  0
  6  7  2  0  0  0  0
  6  8  1  0  0  0  0
  8  9  1  0  0  0  0
  9 10  1  0  0  0  0
  9 11  2  0  0  0  0
M  END
> <DATABASE_ID>
DB01832

> <DATABASE_NAME>
drugbank

> <SMILES>
C[P@@](O)(=O)CC(=O)CC(O)=O

> <INCHI_IDENTIFIER>
InChI=1S/C5H9O5P/c1-11(9,10)3-4(6)2-5(7)8/h2-3H2,1H3,(H,7,8)(H,9,10)

> <INCHI_KEY>
MZTALSPOBPYJPG-UHFFFAOYSA-N

> <FORMULA>
C5H9O5P

> <MOLECULAR_WEIGHT>
180.0957

> <EXACT_MASS>
180.01875991

> <JCHEM_ACCEPTOR_COUNT>
5

> <JCHEM_ATOM_COUNT>
20

> <JCHEM_AVERAGE_NEUTRAL_MICROSPECIES_CHARGE>
-1.9979517506378794

> <JCHEM_AVERAGE_POLARIZABILITY>
14.702271801866576

> <JCHEM_BIOAVAILABILITY>
1

> <JCHEM_DONOR_COUNT>
2

> <JCHEM_FORMAL_CHARGE>
0

> <JCHEM_GHOSE_FILTER>
0

> <JCHEM_IUPAC>
4-[hydroxy(methyl)phosphoryl]-3-oxobutanoic acid

> <ALOGPS_LOGP>
-1.87

> <JCHEM_LOGP>
-1.1321304556666665

> <ALOGPS_LOGS>
-0.78

> <JCHEM_MDDR_LIKE_RULE>
0

> <JCHEM_NEUTRAL_CHARGE>
-2

> <JCHEM_NUMBER_OF_RINGS>
0

> <JCHEM_PHYSIOLOGICAL_CHARGE>
-2

> <JCHEM_PKA>
4.312905742871137

> <JCHEM_PKA_STRONGEST_ACIDIC>
1.8526966833857816

> <JCHEM_PKA_STRONGEST_BASIC>
-7.765746224004346

> <JCHEM_POLAR_SURFACE_AREA>
91.66999999999999

> <JCHEM_REFRACTIVITY>
36.8297

> <JCHEM_ROTATABLE_BOND_COUNT>
4

> <JCHEM_RULE_OF_FIVE>
1

> <ALOGPS_SOLUBILITY>
2.99e+01 g/l

> <JCHEM_TRADITIONAL_IUPAC>
biotin

> <JCHEM_VEBER_RULE>
0

> <DRUGBANK_ID>
DB01832

> <SECONDARY_ACCESSION_NUMBERS>
EXPT01703

> <DRUG_GROUPS>
experimental

> <GENERIC_NAME>
4-[Hydroxy-[Methyl-Phosphinoyl]]-3-Oxo-Butanoic Acid

$$$$
