
  Mrv0541 02231217562D          

 23 25  0  0  1  0            999 V2000
   -3.3292    2.8379    0.0000 O   0  0  0  0  0  0  0  0  0  0  0  0
   -2.5223    2.6664    0.0000 C   0  0  0  0  0  0  0  0  0  0  0  0
   -2.2673    1.8818    0.0000 C   0  0  1  0  0  0  0  0  0  0  0  0
   -1.4604    1.7103    0.0000 O   0  0  0  0  0  0  0  0  0  0  0  0
   -1.2054    0.9256    0.0000 C   0  0  2  0  0  0  0  0  0  0  0  0
   -0.3984    0.7541    0.0000 O   0  0  0  0  0  0  0  0  0  0  0  0
   -0.1435   -0.0305    0.0000 C   0  0  0  0  0  0  0  0  0  0  0  0
   -0.6284   -0.6979    0.0000 C   0  0  0  0  0  0  0  0  0  0  0  0
   -0.1435   -1.3654    0.0000 N   0  0  0  0  0  0  0  0  0  0  0  0
    0.6411   -1.1104    0.0000 C   0  0  0  0  0  0  0  0  0  0  0  0
    0.6411   -0.2854    0.0000 C   0  0  0  0  0  0  0  0  0  0  0  0
    1.3556    0.1271    0.0000 C   0  0  0  0  0  0  0  0  0  0  0  0
    1.3556    0.9521    0.0000 Cl  0  0  0  0  0  0  0  0  0  0  0  0
    2.0701   -0.2854    0.0000 C   0  0  0  0  0  0  0  0  0  0  0  0
    2.7845    0.1271    0.0000 Br  0  0  0  0  0  0  0  0  0  0  0  0
    2.0701   -1.1104    0.0000 C   0  0  0  0  0  0  0  0  0  0  0  0
    1.3556   -1.5229    0.0000 C   0  0  0  0  0  0  0  0  0  0  0  0
   -1.7575    0.3126    0.0000 C   0  0  1  0  0  0  0  0  0  0  0  0
   -1.5025   -0.4721    0.0000 O   0  0  0  0  0  0  0  0  0  0  0  0
   -2.5644    0.4841    0.0000 C   0  0  1  0  0  0  0  0  0  0  0  0
   -3.1165   -0.1290    0.0000 O   0  0  0  0  0  0  0  0  0  0  0  0
   -2.8194    1.2687    0.0000 C   0  0  2  0  0  0  0  0  0  0  0  0
   -3.6263    1.4402    0.0000 O   0  0  0  0  0  0  0  0  0  0  0  0
  1  2  1  0  0  0  0
  3  2  1  1  0  0  0
  3  4  1  0  0  0  0
  4  5  1  0  0  0  0
  5  6  1  6  0  0  0
  6  7  1  0  0  0  0
  7  8  2  0  0  0  0
  8  9  1  0  0  0  0
  9 10  1  0  0  0  0
 10 11  2  0  0  0  0
  7 11  1  0  0  0  0
 11 12  1  0  0  0  0
 12 13  1  0  0  0  0
 12 14  2  0  0  0  0
 14 15  1  0  0  0  0
 14 16  1  0  0  0  0
 16 17  2  0  0  0  0
 10 17  1  0  0  0  0
  5 18  1  0  0  0  0
 18 19  1  1  0  0  0
 18 20  1  0  0  0  0
 20 21  1  1  0  0  0
 20 22  1  0  0  0  0
  3 22  1  0  0  0  0
 22 23  1  6  0  0  0
M  END
> <DATABASE_ID>
DB04806

> <DATABASE_NAME>
drugbank

> <SMILES>
OC[C@H]1O[C@H](OC2=CNC3=C2C(Cl)=C(Br)C=C3)[C@@H](O)[C@@H](O)[C@@H]1O

> <INCHI_IDENTIFIER>
InChI=1S/C14H15BrClNO6/c15-5-1-2-6-9(10(5)16)7(3-17-6)22-14-13(21)12(20)11(19)8(4-18)23-14/h1-3,8,11-14,17-21H,4H2/t8-,11-,12+,13+,14+/m1/s1

> <INCHI_KEY>
OPIFSICVWOWJMJ-HAAGFXOZSA-N

> <FORMULA>
C14H15BrClNO6

> <MOLECULAR_WEIGHT>
408.629

> <EXACT_MASS>
406.977127571

> <JCHEM_ACCEPTOR_COUNT>
6

> <JCHEM_ATOM_COUNT>
38

> <JCHEM_AVERAGE_NEUTRAL_MICROSPECIES_CHARGE>
-7.250100384746883e-06

> <JCHEM_AVERAGE_POLARIZABILITY>
33.944136190514655

> <JCHEM_BIOAVAILABILITY>
1

> <JCHEM_DONOR_COUNT>
5

> <JCHEM_FORMAL_CHARGE>
0

> <JCHEM_GHOSE_FILTER>
1

> <JCHEM_IUPAC>
(2R,3S,4S,5S,6R)-2-[(5-bromo-4-chloro-1H-indol-3-yl)oxy]-6-(hydroxymethyl)oxane-3,4,5-triol

> <ALOGPS_LOGP>
1.18

> <JCHEM_LOGP>
0.8731716956666664

> <ALOGPS_LOGS>
-2.38

> <JCHEM_MDDR_LIKE_RULE>
0

> <JCHEM_NEUTRAL_CHARGE>
0

> <JCHEM_NUMBER_OF_RINGS>
3

> <JCHEM_PHYSIOLOGICAL_CHARGE>
0

> <JCHEM_PKA>
13.193828657485126

> <JCHEM_PKA_STRONGEST_ACIDIC>
12.199782396013

> <JCHEM_PKA_STRONGEST_BASIC>
-2.98109235180849

> <JCHEM_POLAR_SURFACE_AREA>
115.17

> <JCHEM_REFRACTIVITY>
83.69740000000003

> <JCHEM_ROTATABLE_BOND_COUNT>
3

> <JCHEM_RULE_OF_FIVE>
1

> <ALOGPS_SOLUBILITY>
1.72e+00 g/l

> <JCHEM_TRADITIONAL_IUPAC>
biotin

> <JCHEM_VEBER_RULE>
0

> <DRUGBANK_ID>
DB04806

> <DRUG_GROUPS>
experimental

> <GENERIC_NAME>
(5-BROMO-4-CHLORO-3-INDOLYL)-A-D-MANNOSE

$$$$
