
  Mrv0541 08291403442D          

 24 25  0  0  0  0            999 V2000
    8.5737   -0.8250    0.0000 C   0  0  0  0  0  0  0  0  0  0  0  0
   18.5762    1.6500    0.0000 C   0  0  0  0  0  0  0  0  0  0  0  0
    9.2881   -0.4125    0.0000 C   0  0  0  0  0  0  0  0  0  0  0  0
   18.5762    0.8250    0.0000 C   0  0  0  0  0  0  0  0  0  0  0  0
   10.0026   -0.8250    0.0000 C   0  0  0  0  0  0  0  0  0  0  0  0
   17.8618    0.4125    0.0000 C   0  0  0  0  0  0  0  0  0  0  0  0
   10.7171   -0.4125    0.0000 C   0  0  0  0  0  0  0  0  0  0  0  0
   12.1460   -0.4125    0.0000 C   0  0  0  0  0  0  0  0  0  0  0  0
   12.8605   -0.8250    0.0000 C   0  0  0  0  0  0  0  0  0  0  0  0
   14.2894   -0.8250    0.0000 C   0  0  0  0  0  0  0  0  0  0  0  0
   15.0039   -0.4125    0.0000 C   0  0  0  0  0  0  0  0  0  0  0  0
   18.5762   -0.8250    0.0000 C   0  0  0  0  0  0  0  0  0  0  0  0
   17.1473   -1.6500    0.0000 C   0  0  0  0  0  0  0  0  0  0  0  0
   16.4328   -0.4125    0.0000 C   0  0  0  0  0  0  0  0  0  0  0  0
   18.8538   -2.9557    0.0000 C   0  0  0  0  0  0  0  0  0  0  0  0
   17.8618   -0.4125    0.0000 C   0  0  0  0  0  0  0  0  0  0  0  0
   17.1473   -0.8250    0.0000 C   0  0  0  0  0  0  0  0  0  0  0  0
   18.5762   -1.6500    0.0000 C   0  0  0  0  0  0  0  0  0  0  0  0
   17.8618   -2.0625    0.0000 C   0  0  0  0  0  0  0  0  0  0  0  0
   11.4315   -0.8250    0.0000 O   0  0  0  0  0  0  0  0  0  0  0  0
   13.5749   -0.4125    0.0000 O   0  0  0  0  0  0  0  0  0  0  0  0
   15.7184   -0.8250    0.0000 O   0  0  0  0  0  0  0  0  0  0  0  0
   19.1893   -2.2020    0.0000 O   0  0  0  0  0  0  0  0  0  0  0  0
   18.0333   -2.8695    0.0000 O   0  0  0  0  0  0  0  0  0  0  0  0
  3  1  1  0  0  0  0
  4  2  1  0  0  0  0
  5  3  1  0  0  0  0
  6  4  1  0  0  0  0
  7  5  1  0  0  0  0
  9  8  1  0  0  0  0
 11 10  1  0  0  0  0
 16  6  1  0  0  0  0
 16 12  2  0  0  0  0
 17 13  2  0  0  0  0
 17 14  1  0  0  0  0
 17 16  1  0  0  0  0
 18 12  1  0  0  0  0
 19 13  1  0  0  0  0
 19 18  2  0  0  0  0
 20  7  1  0  0  0  0
 20  8  1  0  0  0  0
 21  9  1  0  0  0  0
 21 10  1  0  0  0  0
 22 11  1  0  0  0  0
 22 14  1  0  0  0  0
 23 15  1  0  0  0  0
 23 18  1  0  0  0  0
 24 15  1  0  0  0  0
 24 19  1  0  0  0  0
M  END
> <DATABASE_ID>
DB09350

> <DATABASE_NAME>
drugbank

> <SMILES>
CCCCOCCOCCOCC1=CC2=C(OCO2)C=C1CCC

> <INCHI_IDENTIFIER>
InChI=1S/C19H30O5/c1-3-5-7-20-8-9-21-10-11-22-14-17-13-19-18(23-15-24-19)12-16(17)6-4-2/h12-13H,3-11,14-15H2,1-2H3

> <INCHI_KEY>
FIPWRIJSWJWJAI-UHFFFAOYSA-N

> <FORMULA>
C19H30O5

> <MOLECULAR_WEIGHT>
338.4385

> <EXACT_MASS>
338.20932407

> <JCHEM_ACCEPTOR_COUNT>
5

> <JCHEM_ATOM_COUNT>
54

> <JCHEM_AVERAGE_NEUTRAL_MICROSPECIES_CHARGE>
2.964171725348427e-11

> <JCHEM_AVERAGE_POLARIZABILITY>
40.432151877671615

> <JCHEM_BIOAVAILABILITY>
1

> <JCHEM_DONOR_COUNT>
0

> <JCHEM_FORMAL_CHARGE>
0

> <JCHEM_GHOSE_FILTER>
1

> <JCHEM_IUPAC>
5-{[2-(2-butoxyethoxy)ethoxy]methyl}-6-propyl-2H-1,3-benzodioxole

> <ALOGPS_LOGP>
3.07

> <JCHEM_LOGP>
4.104762737333333

> <ALOGPS_LOGS>
-4.74

> <JCHEM_MDDR_LIKE_RULE>
0

> <JCHEM_NEUTRAL_CHARGE>
0

> <JCHEM_NUMBER_OF_RINGS>
2

> <JCHEM_PHYSIOLOGICAL_CHARGE>
0

> <JCHEM_PKA_STRONGEST_BASIC>
-3.6411242397254058

> <JCHEM_POLAR_SURFACE_AREA>
46.150000000000006

> <JCHEM_REFRACTIVITY>
93.59580000000001

> <JCHEM_ROTATABLE_BOND_COUNT>
13

> <JCHEM_RULE_OF_FIVE>
1

> <ALOGPS_SOLUBILITY>
6.11e-03 g/l

> <JCHEM_TRADITIONAL_IUPAC>
tetrahydrofolic acid

> <JCHEM_VEBER_RULE>
0

> <DRUGBANK_ID>
DB09350

> <DRUG_GROUPS>
approved; vet_approved

> <GENERIC_NAME>
Piperonyl butoxide

> <PRODUCTS>
Best Choice Lice Killing; Best Choice Lice treatment; CVS 3 Step Lice Solution; CVS Health Lice Killing; Care One Lice Killing; CareOne Lice Solution; Careone Complete Kit Lice; Careone Lice; Complete Lice Treatment; Dg Health Lice Killing Maximum Strength; Discount Drug Mart Lice Killing; Discount Lice Treatment; Eco.kid; El piojito Lice Killing; Equaline Lice Killing; Equaline Lice Solution; Equaline Lice Treatment; Equate Lice Killing; Equate Lice Treatment; Equate Lice Treatment Kit; Family Wellness Lice Killing; Family Wellness Lice Treatment; Family Wellness Lice Treatment Kit; Family wellness Lice Treatment; Freds Lice Killing; Good Neighbor Pharmacy Lice; Good Neighbor Pharmacy Lice Solution; Good Sense Complete Lice Treatment; Good Sense Lice Killing; Good Sense complete Lice Treatment; Good Sense complete lice treatment kit; HERKLIN Lice Treatment; Hairklyn Lice Killing; Health Mart Lice Killing; Healthy Accents Complete Lice Treatment; Herklin; Herklin Lice Treatment; Ki-tapiox Lice Treatment; Leader Lice Killing; Leader Lice Killing Maximum Strength; Leader Lice Solution; Leader Lice Treatment; Lice; Lice Complete; Lice Complete Kit; Lice Enz Aer Shp; Lice Killing; Lice Killing Shampoo; Lice Kit; Lice MD Complete; Lice Shampoo; Lice Solution Kit; Lice Treament; Lice Treatment; Lice Treatment Complete; Lice-Nil Lice and Eggs Killer; LiceMD Treatment; LiceOut; Liceall; Licel; Licetrol Lice Killing Shampoo; Liendrex; Mata Piojos A Pediculicide Low Foaming; Mata Piojos Lice; Medi and Lice Lice Killing; Para Special Shampoo for Lice & Nits; Preferred Plus Lice Killing; Premier Value Lice Treatment Kit; Pronto Lice Killing Shampoo; Pronto Lice Killing Shampoo Kit; Pronto Plus Lice Killing; Quality Choice Lice Killing; Quality Choice Lice Treatment; Quita Piojos Lice Killing; R & C Shampoo With Conditioner; RID Essential Lice Elimination; RID Lice Elimination Essentials; RID Lice Killing; RID Lice Treatment Complete Kit; Rexall Lice Killing; Scabene; Scabene Aerosol; Select Brand Lice Killing; Signature Care Lice Treatment; Smart Sense Lice Killing; Smart Sense lice control; Stop Lice Complete Lice Treatment; Sunmark Lice Killing Maximum Strength Lice Treatment; Sunmark Lice Solution; Sunmark Lice Solution Kit; TopCare Complete Lice Treatment; Topcare Complete Lice Treatment; Topcare Complete Lice Treatment Kit; Topcare Lice Killing; Up and up lice killing maximum strength; Vanalice; Vida Mia Lice Killing; Walgreens Lice Killing; Walgreens Lice elimination; Weeks and Leo Complete Lice Treatment; ZAP Lice Killing; good neighbor pharmacy Lice

$$$$
