
  Mrv0541 05031423522D          

 36 40  0  0  1  0            999 V2000
    6.4302    2.0625    0.0000 C   0  0  0  0  0  0  0  0  0  0  0  0
    6.1283    4.5695    0.0000 C   0  0  0  0  0  0  0  0  0  0  0  0
    5.3033    4.5695    0.0000 C   0  0  0  0  0  0  0  0  0  0  0  0
    2.8579   -2.4750    0.0000 C   0  0  0  0  0  0  0  0  0  0  0  0
    3.5724   -1.2375    0.0000 C   0  0  0  0  0  0  0  0  0  0  0  0
    3.5724   -0.4125    0.0000 C   0  0  0  0  0  0  0  0  0  0  0  0
    2.8579    0.8250    0.0000 C   0  0  0  0  0  0  0  0  0  0  0  0
    3.5724   -2.8875    0.0000 C   0  0  0  0  0  0  0  0  0  0  0  0
    4.2868   -1.6500    0.0000 C   0  0  0  0  0  0  0  0  0  0  0  0
   -0.7145   -0.4125    0.0000 C   0  0  0  0  0  0  0  0  0  0  0  0
    4.2868    0.0000    0.0000 C   0  0  0  0  0  0  0  0  0  0  0  0
    3.5724    1.2375    0.0000 C   0  0  0  0  0  0  0  0  0  0  0  0
    0.0000    0.0000    0.0000 C   0  0  0  0  0  0  0  0  0  0  0  0
    6.3832    3.7849    0.0000 C   0  0  0  0  0  0  0  0  0  0  0  0
    5.0483    3.7849    0.0000 C   0  0  0  0  0  0  0  0  0  0  0  0
    0.0000   -1.6500    0.0000 C   0  0  0  0  0  0  0  0  0  0  0  0
    5.0013    2.0625    0.0000 C   0  0  0  0  0  0  0  0  0  0  0  0
    5.7158    2.4750    0.0000 C   0  0  1  0  0  0  0  0  0  0  0  0
    2.8579    0.0000    0.0000 C   0  0  0  0  0  0  0  0  0  0  0  0
    2.8579   -1.6500    0.0000 C   0  0  0  0  0  0  0  0  0  0  0  0
    4.2868   -2.4750    0.0000 C   0  0  0  0  0  0  0  0  0  0  0  0
   -0.7145   -1.2375    0.0000 C   0  0  0  0  0  0  0  0  0  0  0  0
    4.2868    0.8250    0.0000 C   0  0  0  0  0  0  0  0  0  0  0  0
    0.7145   -0.4125    0.0000 C   0  0  0  0  0  0  0  0  0  0  0  0
    0.7145   -1.2375    0.0000 C   0  0  0  0  0  0  0  0  0  0  0  0
    2.1434   -0.4125    0.0000 C   0  0  1  0  0  0  0  0  0  0  0  0
    2.1434   -1.2375    0.0000 C   0  0  2  0  0  0  0  0  0  0  0  0
    5.7158    3.3000    0.0000 N   0  0  0  0  0  0  0  0  0  0  0  0
    5.0013   -2.8875    0.0000 O   0  0  0  0  0  0  0  0  0  0  0  0
   -1.4289   -1.6500    0.0000 O   0  0  0  0  0  0  0  0  0  0  0  0
    5.0013    1.2375    0.0000 O   0  0  0  0  0  0  0  0  0  0  0  0
    1.4289   -0.0000    0.0000 O   0  0  0  0  0  0  0  0  0  0  0  0
    1.4289   -1.6500    0.0000 S   0  0  0  0  0  0  0  0  0  0  0  0
    5.7158    1.6500    0.0000 H   0  0  0  0  0  0  0  0  0  0  0  0
    2.9559   -0.5558    0.0000 H   0  0  0  0  0  0  0  0  0  0  0  0
    2.9559   -1.0942    0.0000 H   0  0  0  0  0  0  0  0  0  0  0  0
  3  2  1  0  0  0  0
  8  4  1  0  0  0  0
  9  5  2  0  0  0  0
 11  6  1  0  0  0  0
 12  7  2  0  0  0  0
 13 10  2  0  0  0  0
 14  2  1  0  0  0  0
 15  3  1  0  0  0  0
 18  1  1  1  0  0  0
 18 17  1  0  0  0  0
 19  6  2  0  0  0  0
 19  7  1  0  0  0  0
 20  4  2  0  0  0  0
 20  5  1  0  0  0  0
 21  8  2  0  0  0  0
 21  9  1  0  0  0  0
 22 10  1  0  0  0  0
 22 16  2  0  0  0  0
 23 11  2  0  0  0  0
 23 12  1  0  0  0  0
 24 13  1  0  0  0  0
 25 16  1  0  0  0  0
 25 24  2  0  0  0  0
 26 19  1  1  0  0  0
 27 20  1  1  0  0  0
 27 26  1  0  0  0  0
 28 14  1  0  0  0  0
 28 15  1  0  0  0  0
 28 18  1  0  0  0  0
 29 21  1  0  0  0  0
 30 22  1  0  0  0  0
 31 17  1  0  0  0  0
 31 23  1  0  0  0  0
 32 24  1  0  0  0  0
 32 26  1  0  0  0  0
 33 25  1  0  0  0  0
 33 27  1  0  0  0  0
 18 34  1  6  0  0  0
 26 35  1  6  0  0  0
 27 36  1  6  0  0  0
M  END
> <DATABASE_ID>
DB02715

> <DATABASE_NAME>
drugbank

> <SMILES>
[H][C@](C)(COC1=CC=C(C=C1)[C@]1([H])OC2=C(S[C@]1([H])C1=CC=C(O)C=C1)C=C(O)C=C2)N1CCCC1

> <INCHI_IDENTIFIER>
InChI=1S/C27H29NO4S/c1-18(28-14-2-3-15-28)17-31-23-11-6-19(7-12-23)26-27(20-4-8-21(29)9-5-20)33-25-16-22(30)10-13-24(25)32-26/h4-13,16,18,26-27,29-30H,2-3,14-15,17H2,1H3/t18-,26-,27+/m0/s1

> <INCHI_KEY>
UZOOIPXOYYJULJ-RHLLTPQKSA-N

> <FORMULA>
C27H29NO4S

> <MOLECULAR_WEIGHT>
463.588

> <EXACT_MASS>
463.181729111

> <JCHEM_ACCEPTOR_COUNT>
5

> <JCHEM_ATOM_COUNT>
62

> <JCHEM_AVERAGE_NEUTRAL_MICROSPECIES_CHARGE>
0.9847711672888758

> <JCHEM_AVERAGE_POLARIZABILITY>
50.68798282407279

> <JCHEM_BIOAVAILABILITY>
1

> <JCHEM_DONOR_COUNT>
2

> <JCHEM_FORMAL_CHARGE>
0

> <JCHEM_GHOSE_FILTER>
0

> <JCHEM_IUPAC>
(2S,3R)-3-(4-hydroxyphenyl)-2-{4-[(2S)-2-(pyrrolidin-1-yl)propoxy]phenyl}-2,3-dihydro-1,4-benzoxathiin-6-ol

> <ALOGPS_LOGP>
5.69

> <JCHEM_LOGP>
5.034661100143959

> <ALOGPS_LOGS>
-5.42

> <JCHEM_MDDR_LIKE_RULE>
1

> <JCHEM_NEUTRAL_CHARGE>
1

> <JCHEM_NUMBER_OF_RINGS>
5

> <JCHEM_PHYSIOLOGICAL_CHARGE>
1

> <JCHEM_PKA>
10.15143326293955

> <JCHEM_PKA_STRONGEST_ACIDIC>
9.553565175894159

> <JCHEM_PKA_STRONGEST_BASIC>
9.002147111987181

> <JCHEM_POLAR_SURFACE_AREA>
62.16000000000001

> <JCHEM_REFRACTIVITY>
132.456

> <JCHEM_ROTATABLE_BOND_COUNT>
6

> <JCHEM_RULE_OF_FIVE>
0

> <ALOGPS_SOLUBILITY>
1.78e-03 g/l

> <JCHEM_TRADITIONAL_IUPAC>
tetrahydrofolic acid

> <JCHEM_VEBER_RULE>
0

> <DRUGBANK_ID>
DB02715

> <SECONDARY_ACCESSION_NUMBERS>
EXPT00473

> <DRUG_GROUPS>
experimental

> <GENERIC_NAME>
Compound 18

$$$$
