
  Mrv0541 02231217202D          

 10  9  0  0  1  0            999 V2000
    4.6184    2.6664    0.0000 N   0  0  0  0  0  0  0  0  0  0  0  0
    4.6184    1.8414    0.0000 C   0  0  1  0  0  0  0  0  0  0  0  0
    3.9039    1.4289    0.0000 C   0  0  0  0  0  0  0  0  0  0  0  0
    3.1895    1.8414    0.0000 C   0  0  0  0  0  0  0  0  0  0  0  0
    2.4750    1.4289    0.0000 C   0  0  0  0  0  0  0  0  0  0  0  0
    1.7605    1.8414    0.0000 C   0  0  0  0  0  0  0  0  0  0  0  0
    1.0461    1.4289    0.0000 N   0  3  0  0  0  0  0  0  0  0  0  0
    5.3329    1.4289    0.0000 C   0  0  0  0  0  0  0  0  0  0  0  0
    6.0474    1.8414    0.0000 N   0  0  0  0  0  0  0  0  0  0  0  0
    5.3329    0.6039    0.0000 O   0  0  0  0  0  0  0  0  0  0  0  0
  2  1  1  6  0  0  0
  2  3  1  0  0  0  0
  3  4  1  0  0  0  0
  4  5  1  0  0  0  0
  5  6  1  0  0  0  0
  6  7  1  0  0  0  0
  2  8  1  0  0  0  0
  8  9  1  0  0  0  0
  8 10  2  0  0  0  0
M  CHG  1   7   1
M  END
> <DATABASE_ID>
DB03988

> <DATABASE_NAME>
drugbank

> <SMILES>
N[C@@H](CCCC[NH3+])C(N)=O

> <INCHI_IDENTIFIER>
InChI=1S/C6H15N3O/c7-4-2-1-3-5(8)6(9)10/h5H,1-4,7-8H2,(H2,9,10)/p+1/t5-/m0/s1

> <INCHI_KEY>
HKXLAGBDJVHRQG-YFKPBYRVSA-O

> <FORMULA>
C6H16N3O

> <MOLECULAR_WEIGHT>
146.2107

> <EXACT_MASS>
146.129337149

> <JCHEM_ACCEPTOR_COUNT>
2

> <JCHEM_ATOM_COUNT>
26

> <JCHEM_AVERAGE_NEUTRAL_MICROSPECIES_CHARGE>
1.9643039789305121

> <JCHEM_AVERAGE_POLARIZABILITY>
16.719228818653953

> <JCHEM_BIOAVAILABILITY>
1

> <JCHEM_DONOR_COUNT>
3

> <JCHEM_FORMAL_CHARGE>
1

> <JCHEM_GHOSE_FILTER>
0

> <JCHEM_IUPAC>
(5S)-5-amino-5-carbamoylpentan-1-aminium

> <ALOGPS_LOGP>
-2.65

> <JCHEM_LOGP>
-1.5175546166666665

> <ALOGPS_LOGS>
-1.24

> <JCHEM_MDDR_LIKE_RULE>
0

> <JCHEM_NEUTRAL_CHARGE>
2

> <JCHEM_NUMBER_OF_RINGS>
0

> <JCHEM_PHYSIOLOGICAL_CHARGE>
2

> <JCHEM_PKA_STRONGEST_ACIDIC>
16.626640951836393

> <JCHEM_PKA_STRONGEST_BASIC>
10.212972820984655

> <JCHEM_POLAR_SURFACE_AREA>
96.75

> <JCHEM_REFRACTIVITY>
50.9245

> <JCHEM_ROTATABLE_BOND_COUNT>
5

> <JCHEM_RULE_OF_FIVE>
1

> <ALOGPS_SOLUBILITY>
1.04e+01 g/l

> <JCHEM_TRADITIONAL_IUPAC>
tetrahydrofolic acid

> <JCHEM_VEBER_RULE>
0

> <DRUGBANK_ID>
DB03988

> <SECONDARY_ACCESSION_NUMBERS>
EXPT02078

> <DRUG_GROUPS>
experimental

> <GENERIC_NAME>
2,6-Diamino-Hexanoic Acid Amide

$$$$
