
  Mrv0541 02241215312D          

  5  3  0  0  0  0            999 V2000
   -1.3621   -0.9905    0.0000 Ca  0  2  0  0  0  0  0  0  0  0  0  0
   -0.0409    0.9905    0.0000 O   0  5  0  0  0  0  0  0  0  0  0  0
    1.3621    0.9905    0.0000 O   0  5  0  0  0  0  0  0  0  0  0  0
    0.6189    0.5777    0.0000 C   0  0  0  0  0  0  0  0  0  0  0  0
    0.6189   -0.2473    0.0000 O   0  0  0  0  0  0  0  0  0  0  0  0
  2  4  1  0  0  0  0
  3  4  1  0  0  0  0
  4  5  2  0  0  0  0
M  CHG  3   1   2   2  -1   3  -1
M  END
> <DATABASE_ID>
DB06724

> <DATABASE_NAME>
drugbank

> <SMILES>
[Ca++].[O-]C([O-])=O

> <INCHI_IDENTIFIER>
InChI=1S/CH2O3.Ca/c2-1(3)4;/h(H2,2,3,4);/q;+2/p-2

> <INCHI_KEY>
VTYYLEPIZMXCLO-UHFFFAOYSA-L

> <FORMULA>
CCaO3

> <MOLECULAR_WEIGHT>
100.087

> <EXACT_MASS>
99.947335021

> <JCHEM_ACCEPTOR_COUNT>
3

> <JCHEM_ATOM_COUNT>
5

> <JCHEM_AVERAGE_NEUTRAL_MICROSPECIES_CHARGE>
-1.0006337308913795

> <JCHEM_AVERAGE_POLARIZABILITY>
3.515525686064489

> <JCHEM_BIOAVAILABILITY>
1

> <JCHEM_DONOR_COUNT>
0

> <JCHEM_FORMAL_CHARGE>
0

> <JCHEM_GHOSE_FILTER>
0

> <JCHEM_IUPAC>
calcium carbonate

> <ALOGPS_LOGP>
0.47

> <JCHEM_LOGP>
0.25005136566666664

> <ALOGPS_LOGS>
-0.08

> <JCHEM_MDDR_LIKE_RULE>
0

> <JCHEM_NEUTRAL_CHARGE>
-1

> <JCHEM_NUMBER_OF_RINGS>
0

> <JCHEM_PHYSIOLOGICAL_CHARGE>
-1

> <JCHEM_PKA>
10.32259950554

> <JCHEM_PKA_STRONGEST_ACIDIC>
3.501076428435099

> <JCHEM_POLAR_SURFACE_AREA>
63.19

> <JCHEM_REFRACTIVITY>
31.172400000000003

> <JCHEM_ROTATABLE_BOND_COUNT>
0

> <JCHEM_RULE_OF_FIVE>
1

> <ALOGPS_SOLUBILITY>
1.28e+02 g/l

> <JCHEM_TRADITIONAL_IUPAC>
biotin

> <JCHEM_VEBER_RULE>
0

> <DRUGBANK_ID>
DB06724

> <DRUG_GROUPS>
approved; investigational

> <GENERIC_NAME>
Calcium carbonate

> <SYNONYMS>
Calcio carbonato; Calcium carbonate; Calcium carbonate (1:1); Calciumcarbonat; Carbonate de calcium; Carbonato de calcio; Carbonic acid calcium salt (1:1); Chalk; Kalziumkarbonat; Kohlensaurer kalk; Precipitated calcium carbonate

> <PRODUCTS>
28tak Gum Care Tooth; 4240 First Aid Kit; 4248 First Aid Kit; 4327 First Aid Kit; 4329 First Aid Kit; 4338 First Aid Kit; 4339 First Aid Kit; 4346 First Aid Kit; 4356 First Aid Kit; 4390 First Aid Kit; 4392 First Aid Kit; 7 Select Antacid; AI kungang; ANTACID extra strength; Acid Controller Complete; Acid Controller Complete dual action; Acid Reducer Complete; Acid Reducer Plus Antacid; Act Etidrocal; Actonel Plus Calcium; Actonel Sachet Kit; Actonel With Calcium; Actonel with Calcium; Advanced AM PM; After Dinner Antacid; Alka Seltzer; Alka-Seltzer Cool Action Extra Strength ReliefChews Mint; Alka-Seltzer Cool Action Heartburn Relief Mint; Alka-Seltzer Extra Strength Heartburn ReliefChews; Alka-Seltzer Fruit Chews; Alka-Seltzer Heartburn Plus Gas ReliefChews Tropical Punch; Alka-Seltzer Heartburn Relief Peppermint; Alka-Seltzer Heartburn ReliefChews; Alka-Seltzer Heartburn ReliefChews Cool Mint; Alka-Seltzer Heartburn ReliefChews Strawberry; Alka-Seltzer Heartburn ReliefChews Strawberry and Orange; Alka-Seltzer Kids Tummy ReliefChews; Alka-Seltzer Ultra Strength Heartburn ReliefChews; Alka-Seltzer Ultra Strength Heartburn ReliefChews Strawberry and Orange; Alkums antacid; Antacid; Antacid - Anti-Gas Relief; Antacid - Tab; Antacid 2 Tablets; Antacid Anti-Gas Relief Chews; Antacid Assorted Berry Flavor Extra Strength; Antacid Berry Bites; Antacid Calcium Supplement Extra Strength; Antacid Calcium Supplement Regular Strength; Antacid Childrens; Antacid Extra Strength; Antacid Extra Strength Assorted Berries; Antacid Extra Strength Assorted Berry; Antacid Extra Strength Assorted Fruit; Antacid Extra Strength Wintergreen; Antacid Flavor Chew; Antacid Flavor Chews; Antacid Fruit Chew; Antacid Fruit Chews; Antacid Fruit Flavor; Antacid Fruit Flavor Chews; Antacid Maximum Strength Ultra; Antacid Peppermint Flavour Regular Strength; Antacid Regular Strength; Antacid Regular strength; Antacid Relief; Antacid Relief Extra Strength; Antacid Relief Extra Strength Assorted Fruit; Antacid Relief Extra Strength Tropical Fruit; Antacid Soft Chew; Antacid Strawberry Relief Chews; Antacid Supreme; Antacid Ultra Strength; Antacid Ultra Strength Assorted Berries; Antacid Ultra Strength Assorted Fruits; Antacid and Anti-Gas Chew; Antacidextra Strength Extra Strength; Apatite Professional; Apcal; Aramark Antacid Chewable; Aspirin Plus Stomach Guard Ext.stgth.caplet; Aspirin Plus Stomach Guard Extra Strength; Aspirin Plus Stomach Guard Tab; Aspirin With Stomach Guard; Aspirin With Stomach Guard Extra Strength - Tab; Assorted Fruit; Assorted Fruit Antacid Chews; Assorted Fruit Antacid Flavor Chews; Assorted Fruit Flavor Chews; Assorted Fruit Panned; Assorted Fruit Panned Chew; Avon Nutrivance Soft Calcium Chews With Vitamin D; Azesco; BI-MART Regular Strength Antacid; BI-MART Regular Strength Antacid Peppermint; BI-MART Ultra Strength Antacid Peppermint; Baisix; Bal-Care DHA; Bal-Care DHA Essential; Basic Care Antacid; Basic Care Antacid Fruit Chews; Basic Care Berry Antacid HBG; Basic Care Dual Action Complete; Bayer Womens; Being Well Antacid; Belmora Melox Agrura; Berkley and Jensen Acid Controller Complete; Berry Flavored Antacid Chews; Best Choice Assorted Fruit; Best Choice Extra Strength; Best Choice Extra Strength Assorted Berry; Best Choice Extra Strength Berry Flavor; Best Choice Extra Strength Tropical Fruit; Best Choice Regular Strength; Best Health Berry Antacid Chews; BestHealth Orange Antacid Soft Chews; Bi-Mart Extra Strength Antacid Assorted Berry; Bi-Mart Extra Strength Antacid Assorted Fruit; Bi-Mart Ultra Strength Antacid Assorted Fruit; Bicaruvas; Bio V Antacid Berry 96ct; Bio V Antacid Fruit 150ct; Bio V Antacid Fruit Flavors; Bio V Antacid Ultra Berry 72ct; Bio V Antacid Ultra Fruit 72ct; Bio V Antacid Wintergreen 96ct; Bismed Chewable Tablets; Bismuth + Antacid (chewable Tablets); Bismuth Chewable Tablets; Bismuth Tablets With Calcium Carbonate; Buffered Vitamin C Powder With Ca Mg and K; Buffered Vitamin C Pwr W Cal-mag-potassium; CAREONE Extra Strength Assorted Fruits; CVS Antacid Lime-Berry Chews; CVS Berry Antacid HBG Chews; CVS Berry Antacid Heartburn and Gas; CVS Extra Strength Smooth; CVS Health Extra Strength Sugar Free; CVS Health Extra Strength Sugar Free Antacid; CVS Health Maximum Strength; CVS Health Ultra Strength Natural Antacid Peppermint Flavor; CVS Mixed Berry Antacid HBG 28ct; CVS Mixed Berry Antacid HBG 54ct; CVS Naturals; CVS PHARMACY Assorted Berry Antacid; CVS PHARMACY Assorted Fruit Antacid; CVS PHARMACY,INC. Assorted Berry; CVS PHARMACY,INC. Assorted Fruit; CVS Strawberry-Lime Antacid Chews; CVS Tropical Fruit; CVS Ultra Strength; Ca Re T Heal; Cal 500 Tab 500mg; Cal Mag Tab; Cal Supp 500; Cal Supp 500 - Tab; Cal-mag Plus K, Mn and Zn Caplets; Cal-mag Vitamin C and Zinc Tab; Calburst Calcium 500mg With Vitamin D; Calc Carb 500 Plus Vitamin D Tab; Calcemin Advance; Calci-yum Plus Magnesium + D3; Calcid Antacid Calcium Supplement Regular Strength; Calcium; Calcium & Magnesium Tab; Calcium & Magnesium Tablets; Calcium & Vitamin D; Calcium - Magnesium - Zinc Tab; Calcium 250 Mg With Vitamin D; Calcium 250mg W Vit D; Calcium 350mg; Calcium 500 With Vitamin D Tab; Calcium 500 mg; Calcium 500mg With Vit D; Calcium 500mg With Vitamin D; Calcium 600; Calcium 600 + D; Calcium 600 + D Comprimes; Calcium 600 Tab 600mg; Calcium 600 W Vitamin D Tab; Calcium 600 With Vitamin D; Calcium 600 mg; Calcium 600mg + Vit D3 125unit Tab; Calcium 600mg Dietary Supplement; Calcium 650mg; Calcium 650mg With Vitamin D; Calcium Antacid; Calcium Antacid Extra Strength; Calcium Antacidextra Strength Extra Strength; Calcium Caps 400mg; Calcium Caps Plus Magnesium; Calcium Carbonate; Calcium Carbonate (Antacid); Calcium Carbonate + Vitamin D; Calcium Carbonate 10 gr (648 mg); Calcium Carbonate 10 gr (648 mg) (Antacid); Calcium Carbonate 1250 mg; Calcium Carbonate 1500mg; Calcium Carbonate 500 mg; Calcium Carbonate Assorted Flavors; Calcium Carbonate Chewable Antacid; Calcium Carbonate Extra Strength Antacid; Calcium Carbonate Oral Suspension; Calcium Carbonate Tab; Calcium Carbonate Tab 1500mg; Calcium Carbonate Tab 1500mg USP; Calcium Carbonate Tablets With Vitamin D; Calcium Carbonate, Magnesium Hydroxide; Calcium Et Magnesium Plus Vitamin D; Calcium Et Magnesium Tab; Calcium Folic Acid Plus D Chewable; Calcium Magnesium Avec Vitamine C; Calcium Magnesium Tab; Calcium Magnesium With Potassium Tab; Calcium Mg and Zn Capsules With Vitamin D; Calcium Plus; Calcium Supplement Tab; Calcium Tab 250mg; Calcium Tab 500mg; Calcium Tab 600mg; Calcium Tab W Vit D; Calcium Vitamin D Iron Mag; Calcium With Magnesium and Vitamin D; Calcium With Vitamin D2; Calcium With Vitamins C and D Tab; Calcium and Magnesium Tab; Calcium and Magnesium Tablets; Calcium and Magnesium W Zinc Tab; Calcium and Magnesium With Vitamin D; Calcium and Magnesium With Zinc; Calcium and Vitamin D - Soft Chew; Calcium antacid; Calcium carbonate; Calcium/magnesium Supplement Tablets; Calgest; Calma-D; Calmicid; Calsan Chewable Tab 500mg; Calsium Carbonate 10 gr; Caltrate 600 Plus D - Tablet; Cardinal Extra Strength Smooth Antacid Assorted Fruits; CardinalExtra Strength Antacid Wintergreen flavor; Care One Acid Reducer and Antacid Dual Action; Care One Acid Reducer plus Antacid Dual Action; Care One Calcium Antacid; CareOne Acid Reducer Complete; CareOne Calcium Antacid; Careone Calcium Antacid; Careone Regular Strength Calcium Antacid; Careone Regular Strength calcium Antacid; Cavan Alpha; Cavan Folate DHA; Cavan Folate OB; Cavan Prenatal; Cavan-EC SOD DHA; Cemics; Certi-antacid; Cherry Antacid; Cherry Antacid Relief Chew; Cherry Antacid Soft Chew; Cherry Antacid Soft Chews; Cherry Antacid Softchew; Cherry Flavour Pepto-bismol Tab; Cherry antacid soft chew; Cherry antacid soft chews; Chewable Bismuth Tablets With Calcium Carbonate; Chewable Calcium 500 Mg With Vitamin D 200 Iu; Children's Chew Multi & Min Tab; Children's Chewable Calcium (chewable Tablets); Childrens Antacid; Childrens Antacid Extra Strength; Childrens Chewable Antacid; Childrens Mylicon All in One Tummy Relief for Kids; Childrens Mylicon Tummy Relief for Kids; Childrens Pepto; Childrens Stomach Relief; Chooz; Chromium Gtf + Calcium; Clean Breath Tooth; Co De R T; Co Re D T; Complete; Complete Dual Action; Complete Natal DHA; Complete-RF Prenatal; ConRx Acid Reducer; Coral Calcium; Coral Calcium Plus Vitamin D; Coral Calcium Plus Vitamin D 210mg/100iu; Crane Safety Antacid; CyFolex; D B Tre; D N B Re; D-Cal Kids; D-Cal SoyCal; D-cal; D.S Crystal Tooth; DG Health Antacid; DG Health Antacid Berry Bites; DG Health Antacid Calcium Supplement; DG Health Dual Action Complete; DG Health Regular Strength Antacid; DG Health acid reducer complete; DG health Extra Strength Antacid; DG health Extra Strength Antacid Wintergreen flavor; DG health Extra Strength Assorted Fruits Antacid; DG health Ultra Strength Assorted Berry Antacid; DG health Ultra Strength Assorted Fruit Antacid; DG health calcium antacid extra strength; DGH Antacid Extra Strength 750 Berry, 96ct; DGH Antacid Extra Strength 750 Wintergreen, 96ct; DGH Antacid Regular Strength 500 (Fruit assorted), 150ct; DGH Antacid Ultra Strength 1000 Berry assorted 72ct; DGH Antacid Ultra Strength 1000 Fruit assorted 72ct; DRx CHOICE Antacid Calcium Regular Strength; DRx Choice Antacid Calcium Assorted Berry; DUO Fusion; Dexivite; Dg Health Antacid Calcium Supplement Regular Strength; Dg Health Calcium Antacid; Dia Cal Cap 500mg; Didrocal; Diovol Plus Aluminum Free; Diovol Plus Aluminum Free Suspension; Diphen; Doc in the Box All Day Supply; Dol Mite Tab; Dolomite 1280mg; Dr.EL GUM CARE TOOTH; Dr.NOAH MARUTOOTHPASTE; Dual Action; Dual Action Complete; Duet DHA; Duet DHA 400; Duet DHA 400 ec; Duet DHA Balanced; DuetDHA Balanced; DuetDHA Complete; EQUALINE extra strength antacid; EQUALINE regular strength antacid; Earthpals Children's Chewables Multi-vitamin & Mineral Tablets; Efferlife Calcium 500mg + Vitamin D3 440 Iu + Vitamin C 125mg; Effervescent Vitamin C Powder With Ca and mg; Equaline Antacid; Equaline Antacid Regular Strength; Equaline Complete Dual Action; Equaline antacid; Equate Acid Reducer Complete; Equate Antacid; Equate Berry Antacid HBG Chews; Equate Strawberry Lime Antacid Chews; Equate Ultra Stregth Antacid; Equate antacid regular strength; Estomarol; Etidrocal; Exchange Select Antacid; Exchange Select Antacid Tropical Fruit; Exchange Select Calcium Antacid; Exchange Select antacid; Extra Strength; Extra Strength Antacid; Extra Strength Antacid Assorted Berries; Extra Strength Antacid Calcium Supplement; Extra Strength Antacid Freshmint; Extra Strength Assorted Berry; Extra Strength Calcium Antacid Chewable; Extra Strength Calcium Carbonate 1000 mg; Extra Strength Natural Antacid; Extra Strength Smooth; Extra Strength Smooth Antacid; Extra Strength Smooth Antacid Assorted Fruit; Extra Strength Sugar Free Orange Cream Flavor; Extra Strength sugar free Antacid; Extra-Virt Plus DHA; Family Wellness Acid Controller Complete; Family Wellness acid reducer complete; Fast Acting Heartburn Relief Peppermint Flavor; Fb Formula; Feminex 300 Tab; Feminique W Iron and Calcium Tab; Femitab Tab; Finefra Aid Tooth; First Aid Only Antacid; First Aid Shot Therapy Heartburn Relief; First Aid Shot Therapy Upset Stomach Relief; Flavon Charcoal Mint Tooth; Flavon White Mint Tooth; Flavor Chews; FolaGent DHA; FolaMax; FolaMed DHA; Folcaps Care One; Foliflex; Folika-MG; Folitin-Z; Formu Care Calcium Antacid; Formula EC; GERICARE Regular strength; GOOD NEIGHBOR PHARMACY Antacid Regular Strength; GOODSENSE Ultra Strength Antacid Assorted Fruit; GOODSENSE Ultra Strength Antacid Peppermint; Gas-X Total Relief Maximum Strength; Gaviscon Acid Relief Fmla Plus Gas Rel. Tab; Gaviscon Acid Relief Fmla Plus Gas Rel.liq.; Gaviscon Acid Relief Formula Extra Strength; Gaviscon Acid Relief Formula Liquid; Gaviscon Acid Relief Formula Tablets; Genexa Antacid Maximum Strength; Geri-lanta Supreme Cherry; Gestamine Comprimes; Gesticare DHA; Good Neighbor Extra Strength Assorted Fruits; Good Neighbor Pharmacy Antacid; Good Neighbor Pharmacy Antacid Extra Strength; Good Neighbor Pharmacy Antacid Regular Strength; Good Neighbor Pharmacy Antacid and Anti Gas Maximum Strength; Good Neighbor Pharmacy Complete; Good Neighbor Pharmacy Dual Action Complete; Good Night/pm Formula Tab; Good Sense Antacid; Good Sense Antacid Soft Chew; Good Sense Complete; Good Sense Dual Action Complete; GoodSense Antacid Fruit Chews; GoodSense Extra Strength Antacid; Goodsense Extra Strength Antacid Assorted Fruit; Goodsense Regular Strength Antacid Peppermint; Goodsense Ultra Strength Antacid; Gray Salt; Gray Salt Tooth; Green Guard Maximum Strength Stomach Relief; Green Guard Stomach Relief; Guardian Extra Strength Antacid; Guardian Regular Strength Alkums; HEB Antacid Calcium Assorted Berry; HEB Antacid Extra Strength Assorted Berry; HEB Extra Stregth Antacid; HEB Extra Strength Antacid; HEB Extra Strength Antacid Assorted Fruit Flavors; HEB Extra Strength Antacid Berry Flavor; HEB Extra Strength Freshmint Flavor; HEB Extra Strength Smooth Antacid Assorted Fruits; HEB Extra Strength Smooth Antacid Peppermint; HEB Extra Strength Tropical Fruit; HEB Lime and Berry Antacid Chews; HEB Regular Strength Peppermint Flavor; HEB Regular strength Assorted Fruit; HEB Ultra Strength Assorted Fruits; HEB Wild Berry Antacid Chews; HEB Wild Berry Antacid Chews 60ct; Hae Yan Tooth; Harris Teeter Acid Reducer Complete; Health Mart Calcium Antacid; Health Mart Calcium antacid Assorted Fruit; Health Mart Complete; Health Mart Dual Action Complete; Health Mart Extra Strength Antacid; Health Mart Regular Strength Antacid; Health Mart calcium antacid; Healthmart Calcium Antacid; Healthmart Regular Strength Antacid; Healthy Accents Antacid; Healthy Accents Antacid Extra Strength; Healthy Accents Famotidine Calcium Carbonate Magnesium Hydroxide; Heartburn Fix; Heartburn Plus Gas Relief Chewable Multi Symptom; Heartburn Relief to Go; Heartburn and Gas Antacid Chews; Heartburn and gas fruit chews; Hi Potency Cal Tab 650mg; HiMangChanToothpaste; High Potency Calcium; His Ulc Mint Blue; Honest-Paste; Hormodausse Plus Calc Et D Tab; Inatal Advance; Injoy Heartburn Relief; Insan Bamboosalt toothpaste; Iprical; Irospan 24/6; Jenliva; Juni Essentials naturalToothpaste; Kids Antacid; Kids Tummy Relief; Kirkland Signature Antacid; Kroger Extra Strength Assorted Berry; Kroger Extra Strength Assorted Fruit; Kroger Extra Strength Smooth Antacid Assorted Berry; Kroger Extra Strength Sugar Free; Kroger Multi Symptom Antacid; Kroger Ultra Strength Assorted Berry; Kroger Ultra Strength Assorted Fruit; L B T A; L D T All; L-Methyl PNV DHA; LEADER Ultra Strength Peppermint Flavor; LYDIA PINKHAM Herbal Supplement; Leader Acid Reducer Complete; Leader Antacid; Leader Antacid Regular Strength; Leader Extra Strength Antacid; Leader Extra Strength Sugar Free Antacid; Leader Ultra Strength Antacid; Legend Premium Heartburn Chewable; Legend Premium Heartburn Chewable Relief; Legend Premium Heartburn Relief - Extra Strength Chewable; Leritone Antistress; Lidl Ultra Strength Antacid Calcium Carbonate Assorted Fruit; Liqui Cal-D; Liquical; Liquid Cal-mag; Liquid Cal/mag Plus D; Lysamine Diet Supp Amp-tab; MYLANTA Supreme Tasting; MYLANTA Ultra Tabs; Maalox Advanced Extra Strength Antacid & Antigas Chewable Tablets; Maalox Antacid Caplets; Maalox Hrf Suspension; Magnacal; MagneBind 300; MagneBind 400 Rx; Major Regular Strength Assorted Flavors; Major Regular StrengthAssorted Flavors Assorted Flavors; Marc Glassman Extra Strength; Marc Glassman Ultra Strength; Marnatal F; Materna; Materna - Tab; Materna-tab; Maximum Strength; McKesson Antacid Calcium Carbonate; Medi First Antacid; Medi First Plus Antacid; Medi-First Antacid; Medi-First Plus Antacid; Medique Alcalak; Medique Ban-acid Maximum Strength 750; Meds on the Go; Mega Min Capsules; Mega Vitaminerals; Meijer Berry Antacid HBG; Meijer Extra Strength Antacid; Meijer Extra Strength Assorted Fruit; Meijer Extra Strength Freshmint Flavor; Meijer Extra Strength Smooth Antacid Assorted Fruits; Meijer Extra Strength Tropical Fruit; Meijer Lime/Berry Antacid Chews; Meijer Regular Strength Peppermint Flavor; Meijer Regular strength Assorted Fruit; Meijer Softchews; Meijer Ultra Strength Antacid Assorted Fruit; Meijer Wild Berry Antacid Chews; Menocal Tab; Mi Acid; Mint Antacid; Mint Antacid 100; Mint Antacid 250; Mint Flavored Antacid; Miralac; Miralac Antacid; Mixed Berry Antacid and Anti-Gas Chews; Moms Choice Rx; Moore Medical Antacid; Mor-cal Tab 500mg; Multi Symptom Antacid; Multi Symptom Antacid Berry Flavor; Multi-Nate 30; Multi-force for Women Tab; Multi-min Electro C Pow Plus B2; Multinate DHA; Multinate DHA Extra; Multitam; Mylan-eti-cal Carepac; Mylanta; Mylanta Coat and Cool; Mylanta New Tonight Soothing Honey Chamomile; Mylanta One Antacid/Anti-Gas; Mylanta Ultimate Strength; Mylanta Ultra Tabs; N P G Tall; NAVI Black and C-Clinic; NEONATAL Complete; NESTABS ABC Prenatal Multi-vitamin/Mineral Supplement with DHA/EPA; NESTABS DHA Prenatal Multi-vitamin/Mineral Supplement with DHA/EPA; NESTABS Prenatal Multi-vitamin/Mineral Supplement; Natal-V RX Multi-vitamin/Multi-mineral; Natavite; Neonatal DHA; Ni-C-E-LE Plus; Novo-etidronatecal; Ntp-etidronate Calcium; Nutralox; Nutri-Tab OB; Nutri-Tab OB plus DHA; Nutrol-cal Tab 875mg; O Calcium 500mg Plus D Tab; O Re Ca P; O T Re P; O-Cal FA multivitamin; O-calcium 250mg Plus D; OB Complete Gold; Obeo The Mee Dental Care; Ohta's Isan Stomach Powder; Ohtas Isan Antacid; One A Day Advance Fem; One A Day Bone Builder; One-A-day Advance Fem - Tablets; Only For ANTACID; Orange Antacid Soft Chew; Orange Antacid Softchew; Orange Flavored Crystal Chews Tab; Organic Minerals Tablet; Orifer F; Os Cal D 500; Os Cal Tab 250mg; Os Cal Tab 500mg; Os-cal 250 mg; Os-cal 500; Os-cal 500 Chewable Tab 500mg; Os-cal-D 500; Osteo-Poretical; Osteomineral; Oyster Shell Calcium; PMS-oscalvit; PMS-risedronate Plus Calcium; PNV Ferrous Fumarate Docusate Folic Acid; PNV Prenatal Plus Multivitamin; PNV Tabs 20-1; PNV Tabs 29-1; PNV-Omega; PNV-Select; PR Natal 400; PR Natal 400 ec; PR Natal 430; PR Natal 430 ec; PRENATE Enhance; PRENATE Restore; PV Extra Strength Antacid; PV Extra Strength Smooth Antacid; PV Extra Strength Smooth Antacid Assorted Fruit; Palm Springs Multvit and Min Tab; Pepcid Complete; Pepto Kids; Pepto-Bismol; Pepto-bismol Chewables; Pepto-bismol Tab; Pepto-bismol Tablets; PharmaRight Extra Strength Antacid ASSORTED FRUIT; PharmaRight Extra Strength Antacid PEPPERMINT; Pharmacal 500 Tab 500mg; Phazyme; Physicians Care Antacid; PhysiciansCare Antacid; Pink Bismuth Plus Antacid Relief Tablets; Plus Pharma Calcium Antacid; Plus PharmaCalcium Antacid Calcium Antacid; Pnv-OB-dha; Polaris Mint Antacid; Pour Ma Santé; Pre-Tabs DHA Prenatal Multi-vitamin/Mineral Supplement with DHA/EPA; PreGen DHA; PreGenna; PreNatal 19; PrePLUS; PreTAB; Preferred Plus Complete; Pregvit; Pregvit Folic 4; Pregvit Folic 5; Premier Value Chewable Antacid Assorted Fruit; Premier Value Chewable Antacid Extra Strength Assorted Fruit; Premier Value Chewable Antacid Extra Strength Tropical Fruit; Premier Value Chewable Antacid Ultra Strength Assorted Fruit; Premier Value Extra Strength Chewable Antacid Assorted Berry; Premier Value Extra Strength Freshmint Flavor; Premier Value Maximum Strength Assorted Fruit; Premier Value Multi Symptom Antacid Berry Flavor; Premier Value Regular Strength Chewable Antacid Peppermint Assorted Fruit; Premier Value Smooth Antacid Extra Strength Assorted Fruit; Prena1 Plus; Prenatabs FA; Prenatal; Prenatal Chelated Mineral; Prenatal Plus; Prenatal Plus Iron; Prenatal Plus Multivitamin Plus DHA MiniCaps; Prenatal Plus Vitamins; Prenatal Supplement - Tab; Prenatal Vitamin and Mineral Supplement -tab; Prenatal Vitamin and Mineral Supplement Tab; Prenatal Vitamins Plus; Prenatal Vitamins Plus Low Iron; Prenatal Vitamins and Minerals Tablets; Prenatal and Post Partum Supplement; Prenatal, DHA; Prenate AM; Prenate Chewable; Prenate DHA; Prenate Elite; Prenate Essential; Prenate Mini; Prenatrix; Prenatryl; Prenavite Forte; Prenavite Forte Tablets; Prenavite Tablets; Pretrate; Prevencal + D A Croquer 600mg; Prevencal 500 +d; Prevencal 600 + D Et Fer; Prevencal 600 + D Et Magnesium; Prevencal Tab 500mg; PrimaCare; ProFola; Prometa; Publix Extra Strength Assorted Berry; Publix Extra Strength Assorted Fruit; Publix Extra Strength Tropical Fruit; Publix Regular Strength Assorted Fruit; Publix Regular Strength Peppermint Flavor; Publix Ultra Strength Assorted Fruit; Purigo; QC Antacid Calcium Assorted Berry; QC Regular Strength; Quality Choice Antacid Assorted Fruit; Quality Choice Assorted Berries Extra Strength; Quality Choice Chewable Antacid Assorted Fruit; Quality Choice Extra Strength Antacid Assorted Fruit Extra Strength Antacid Assorted Fruit; Quality Choice Extra Strength Assorted Berry Antacid Extra strength Assorted Berry Antacid; Quality Choice Extra Strength Assorted Fruit; Quality Choice Regular Strength Antacid Peppermint Regular strength Antacid Peppermint; Quality Choice Regular Strength Antacid Regular strength Antacid; Quality Choice Regular Strength Peppermint Flavor; Quality Choice Ultra Strength Antacid Assorted Fruit Ultra strength Assorted Fruit Antacid; Quality Choice Ultra Strength Antacid assorted Berry Ultra strength Antacid Assorted berry; Quality Choice Ultra Strength Assorted Fruit; R90 Anti-acide Tab; RE Nata; RE Nata OB; RITE AID Pharmacy Ultra Strength Assorted Fruits; RapidCare Flavored Antacid; Razzmatazz Antacid; Recal D; Redoxon-cal; Regular Strength; Regular Strength Antacid; Regular Strength Antacid Assorted Fruit; Regular Strength Antacid Calcium Supplement; Regular Strength Calcium Antacid Chew. Tabs; Regular Strength Tropical Fruit; Regular strength Assorted Fruit; Relief OTC antacid; Relief and Nature Toothpast E Jasmine Mint; Renate; Renate DHA; Rexall Antacid; Rexall Antacid Flavor Chews; Ribotin-E; Rite Aid Extra Strength Assorted Fruit; Rite Aid Extra Strength Assorted Fruits; Rite Aid Extra Strength Tropical Fruit; Rite Aid Pharmacy Extra Strength Assorted Berries; Rite Aid Ultra Strength Assorted Berries; Rite Aid Ultra Strength Peppermint Flavor; Rite Aid Wild Berry Antacid Chews; Rolaids; Rolaids Advanced Antacid Anti-gas Mixed Berry; Rolaids Advanced Softchews Mixed Berry; Rolaids Extra Strength; Rolaids Extra Strength Fruit; Rolaids Extra Strength Mint; Rolaids Extra Strength Multi-symptom Tablets; Rolaids Extra Strength Tab; Rolaids Heartburn Soothers; Rolaids Multi-Symptom; Rolaids Plus; Rolaids Regular Strength Mint; Rolaids Regular Strength- Cherry; Rolaids Regular Strength- Mint; Rolaids Ultra Strength Antacid Orange; Rolaids Ultra Strength Antacid Strawberry; Rolaids Ultra Strength Fruit; Rolaids Ultra Strength Mint; Rolaids Ultra Strength Plus Gas; Rolaids Ultra Strength- Cherry; Rolaids Ultra Strength- Mint; Rootsallo Toothpaste; Rugby; Rugby Cal-Gest Antacid Assorted Flavors; Rugby Calcium Carbonate 10 gr; Rugby Extra Strength Antacid; Rugby Extra Strength Assorted Berries; Rulavite DHA; Rx Act Antacid Extra Strength; SUNMARK Calcium Antacid; Salt Tooth; Saltrain Tooth; Se-Care Chewable; Se-Care Conceive; Se-Natal; Se-Natal 19; Se-Natal 19 Chewable; Se-Natal One; Select Brand Antacid Assorted Berries; Sels Mexicain; SetonET; SetonET-EC; Seyip; ShopRite Antacid; ShopRite Complete; ShopRite Dual Action Complete; Signature Care Acid Controller Complete; Signature Care Acid Reducer Complete; Signature Care Antacid; Signature care Extra Strength Smooth Antacid; Signature care Extra Strength Smooth Antacid Assorted Fruit; Silica-calcium With Biotin Capsules; Simply Right Famotidine Complete; Smart Sense Complete; Smart Sense Dual Action Complete; Smooth Antacid; Solmeet; Solmeet denti doctor; Soothe childrens; Sound Body Calcium Antacid; Sound Health Heartburn and Gas Chews; Sour Stomach Relief; Stomach Relief Chewable Flavoured Tablets; Stomach Relief Chewable Tablets; Stomach Relief Childrens; Sunmark Assorted Berries; Sunmark Assorted fruit; Sunmark Calcium Antacid; Sunmark Calcium Antacid Regular Strength; Sunmark Calcium antacid extra strength; Sunmark Dual Action Complete; Sunmark Extra Strength Antacid Assorted Fruit; Sunmark Regular Strength Antacid; Sunmark Regular Strength Antacid Peppermint; Sunmark Tropical fruit; Sunmark calcium antacid; Sunmark calcium antacid regular strength; Sunmark complete; Sunmark smooth antacid; Super C-M-K; Super Charged Energy; Super Daily No 2; Supplement De Vitamines Et Mineraux; Supreme Antacid; Swiss One Timed Release Tab; TC Max; TL-Folate; TUMS Extra Strength Sugar-Free; TUMS Smoothies; TUMS extra strength, smoothies; Target Antacid - Anti-Gas Relief Chews; Target Antacid Fruit Chews; Target StrawberryLime Antacid Chews; Target Wild Berry Antacid Chews 60ct; Taron BC; Teva-risedronate/calcium; Thompson Antacid; Thrivite 19; Thrivite Rx; Tianshi Calcium With Natural Source Vitamin E Softgel Capsules; Tianshi Calcium and Vitamin D Chewable Tablets (melon Flavour); Tianshi Calcium and Vitamin D Chewable Tablets (peach Flavour); Tianshi Calcium and Vitamin D Chewable Tablets (strawberry Flavour); Titralac; Titralac Plus; Titralac Tab 420mg; TopCare Antacid Calcium; TopCare Cherry Antacid Soft Chews; TopCare Complete acid reducer plus antacid; TopCare Extra Strength Antacid Extra Strength Antacid Assorted Berry; TopCare Lime and Berry Antacid Chews; TopCare Ultra Strength Antacid Assorted Berry; TopCare Ultra Strength Antacid Assorted Fruit; TopCare Wild Berry Antacid Chews; Topcare Antacid Calcium; Topcare Antacid Calcium Extra Strength; Topcare Antacid Calcium Regular Strength; Topcare Antacid Extra Strength Assorted Berry; Topcare Complete; Topcare Dual Action Complete; Topcare Extra Strength Antacid Assorted Fruit; Topcare Extra Strength Antacid Assorted Fruit Extra Strength Antacid Assorted Fruit; Topcare Ultra Strength Antacid Peppermint; Topcare antacid calcium; Totalvit Plus; Tri-buffered Asa Tab; TriAdvance; Trial Antacid; Tricare Prenatal; Tricare Prenatal Compleat; Trinatal GT; Trinatal Rx 1; Trinaz; Triveen-Duo DHA; Tropical Panned; Tummy Relief; Tums; Tums 500 Tab; Tums Anti-gas Assorted Flavours Tab; Tums Assorted Fruit; Tums Assorted Mint Tab; Tums Cherry Tab 500mg; Tums Chewy Bites; Tums Chewy Bites Berry Shake; Tums Chewy Bites Mixed Fruit; Tums Chewy Bites Orange and Cream ES; Tums Chewy Bites with Gas Relief; Tums Chewy Delights; Tums Dual Action; Tums EX; Tums Extra Strength Assorted Fruit; Tums Extra Strength Assorted Mint; Tums Extra Strength Assorted Tropical Fruit; Tums Extra Strength Cool Relief - Cool Mint and Rainbow Sherbert; Tums Extra Strength-wintergreen; Tums Naturals; Tums Regular Strength; Tums Ultra; Tums Ultra Strength Assorted Mint Flavours; Tums Ultra Strength Assorted Tropical Fruit; Tums Ultra Strength Liquid; Tums Ultra Strength Liquid Plus Anti-gas; Tums freshers; ULTRA STRENGTH Antacid; Uline Antacid; UltimateCare ONE; Ultra Strength; Ultra Strength Antacid; Ultra Strength Antacid Assorted Berries; Ultra Strength Antacid Assorted Fruit; Ultra Strength Antacid Relief Assorted Berry; Ultra Strength Antacid Relief Assorted fruit; Ultra Strength Antacid Tropical fruit; Ultra Strength Assorted Berries; Ultra Strength Natural Antacid; Ultra Xcid Antacid; Ultrastrength; Unishield Antacid; Up and Up Acid Controller Complete Dual Action; Up and Up Famotidine Complete; Up and Up dual action acid controller complete; Usana Active Calcium; V-Natal; Vasculine; Vena-Bal DHA; Venexa; Venexa FE; Ventrixyl; Ventrixyl Fe; Viamon Ampoules Et Comprimes; Vinate AZ; Vinate Care; Virt Nate; Virt Vite GT; Virt-Advance; Virt-Bal DHA Plus; Virt-Care One; Virt-Nate; Virt-PN; Virt-PN DHA; Virt-PN Plus; Virt-Pn; Virt-Pn DHA; Vit C W Calc-mag and Potass Powder; Vita - Gl Capsules; Vita Vim With Beta Carotene-caplet; Vita-Pac; Vita-vim With Beta-carotene - Tab; Vitamin D + Calcium Dietary Supplement; Vitamines A - D Calcium; Vitaphil 90 DHA; Vitaphil DHA; Vitramyn; Vitranol; Vitranol Fe; Vitrexate; Vitrexate FE; Vitrexyl; Vitrexyl plus Iron; Vol-Nate; Vol-Tab Rx; Vp-pnv-dha; WHOLE FOODS MARKET Health Ultra Strength Natural Antacid Peppermint Flavor; Walgreens Wild Berry Antacid Chews; Webber Calcium Tab 500mg; Welby Health Antacid; Wellness Formula; Welly Childrens Travel Medicine; WesCap-PN DHA; WesTab Plus; Whole Foods Market Regular Strength Peppermint Flavor; WinCo FOODS Antacid Extra Strength; WinCo FOODS Antacid Regular Strength; WinCo FOODS Antacid Regular strength; WinCo FOODS Antacid Ultra Strength; WinCo Foods Antacid Ultra Strength; Women's Formula; Women's Support Tablets; Wonderbelly Maximum Strength Antacid; Xpect Antacid; Zalvit; Zatean-Pn; Zatean-Pn DHA; Zatean-Pn Plus; Zintrexyl-C; Ziphex; equate Extra Strength Antacid; equate Extra Strength Antacid Calcium Carbonate Assorted Berries; equate Extra Strength Smooth Antacid Assorted Berries; equate Sugar Free Extra Strength Antacid Orange Cream Flavor; equate Ultra Strength Antacid Calcium Carbonate Tropical Fruit; equate Ultra Strength Antacid Peppermint Flavor; exchange select Extra Strength Antacid Assorted Berries; exchange select Ultra Strength Antacid Assorted Fruit; extra strength Tropical Fruit; healthy mama TAME THE FLAME; healthy mamaBE WELL ROUNDED BE WELL ROUNDED; meijer Extra Strength Antacid Assorted Berries; meijer extra strength Wintergreen Flavor; smart sense Complete; topcare Antacid Calcium Ultra Strength; ultra strength Assorted Fruit; ultra strength antacid Peppermint Flavored; up and up extra strength antacid 750 Assorted Berry; up and up extra strength smooth dissolving antacid Assorted Fruit; up and up extra strength smooth dissolving antacid Assorted berry; vitaMedMD Rx Plus

$$$$
