
  Mrv0541 02241211142D          

 28 29  0  0  0  0            999 V2000
   -5.7168    0.6198    0.0000 C   0  0  0  0  0  0  0  0  0  0  0  0
   -5.7168   -0.2065    0.0000 C   0  0  0  0  0  0  0  0  0  0  0  0
   -5.0021   -0.6196    0.0000 C   0  0  0  0  0  0  0  0  0  0  0  0
   -4.2887   -0.2065    0.0000 C   0  0  0  0  0  0  0  0  0  0  0  0
   -4.2887    0.6198    0.0000 C   0  0  0  0  0  0  0  0  0  0  0  0
   -5.0021    1.0315    0.0000 C   0  0  0  0  0  0  0  0  0  0  0  0
   -3.5739   -0.6196    0.0000 O   0  0  0  0  0  0  0  0  0  0  0  0
   -2.8604   -0.2065    0.0000 C   0  0  0  0  0  0  0  0  0  0  0  0
   -2.8604    0.6198    0.0000 C   0  0  0  0  0  0  0  0  0  0  0  0
   -3.5739    1.0315    0.0000 C   0  0  0  0  0  0  0  0  0  0  0  0
   -2.1457   -0.6184    0.0000 C   0  0  0  0  0  0  0  0  0  0  0  0
   -1.4309   -0.2065    0.0000 C   0  0  0  0  0  0  0  0  0  0  0  0
   -0.7161   -0.6184    0.0000 C   0  0  0  0  0  0  0  0  0  0  0  0
   -0.0012   -0.2065    0.0000 C   0  0  0  0  0  0  0  0  0  0  0  0
    0.7134   -0.6184    0.0000 C   0  0  0  0  0  0  0  0  0  0  0  0
    1.4282   -0.2065    0.0000 C   0  0  0  0  0  0  0  0  0  0  0  0
    2.1429   -0.6184    0.0000 C   0  0  0  0  0  0  0  0  0  0  0  0
    2.8578   -0.2065    0.0000 C   0  0  0  0  0  0  0  0  0  0  0  0
    3.5726   -0.6184    0.0000 C   0  0  0  0  0  0  0  0  0  0  0  0
    4.2874   -0.2065    0.0000 C   0  0  0  0  0  0  0  0  0  0  0  0
    5.0022   -0.6184    0.0000 C   0  0  0  0  0  0  0  0  0  0  0  0
    5.7169   -0.2065    0.0000 C   0  0  0  0  0  0  0  0  0  0  0  0
    6.4317   -0.6184    0.0000 C   0  0  0  0  0  0  0  0  0  0  0  0
   -0.0012    0.6198    0.0000 C   0  0  0  0  0  0  0  0  0  0  0  0
    2.8578    0.6198    0.0000 C   0  0  0  0  0  0  0  0  0  0  0  0
    5.7169    0.6198    0.0000 C   0  0  0  0  0  0  0  0  0  0  0  0
   -2.8604   -1.0329    0.0000 C   0  0  0  0  0  0  0  0  0  0  0  0
   -6.4317    1.0329    0.0000 O   0  0  0  0  0  0  0  0  0  0  0  0
  1  2  2  0  0  0  0
  1  6  1  0  0  0  0
  1 28  1  0  0  0  0
  2  3  1  0  0  0  0
  3  4  2  0  0  0  0
  4  5  1  0  0  0  0
  4  7  1  0  0  0  0
  5  6  2  0  0  0  0
  5 10  1  0  0  0  0
  7  8  1  0  0  0  0
  8  9  1  0  0  0  0
  8 11  1  0  0  0  0
  8 27  1  0  0  0  0
  9 10  1  0  0  0  0
 11 12  1  0  0  0  0
 12 13  1  0  0  0  0
 13 14  2  0  0  0  0
 14 15  1  0  0  0  0
 14 24  1  0  0  0  0
 15 16  1  0  0  0  0
 16 17  1  0  0  0  0
 17 18  2  0  0  0  0
 18 19  1  0  0  0  0
 18 25  1  0  0  0  0
 19 20  1  0  0  0  0
 20 21  1  0  0  0  0
 21 22  2  0  0  0  0
 22 23  1  0  0  0  0
 22 26  1  0  0  0  0
M  END
> <DATABASE_ID>
DB12647

> <DATABASE_NAME>
drugbank

> <SMILES>
CC(C)=CCC\C(C)=C\CC\C(C)=C\CCC1(C)CCC2=CC(O)=CC=C2O1

> <INCHI_IDENTIFIER>
InChI=1S/C26H38O2/c1-20(2)9-6-10-21(3)11-7-12-22(4)13-8-17-26(5)18-16-23-19-24(27)14-15-25(23)28-26/h9,11,13-15,19,27H,6-8,10,12,16-18H2,1-5H3/b21-11+,22-13+

> <INCHI_KEY>
GJJVAFUKOBZPCB-ZGRPYONQSA-N

> <FORMULA>
C26H38O2

> <MOLECULAR_WEIGHT>
382.5787

> <EXACT_MASS>
382.28718046

> <JCHEM_ACCEPTOR_COUNT>
2

> <JCHEM_ATOM_COUNT>
66

> <JCHEM_AVERAGE_NEUTRAL_MICROSPECIES_CHARGE>
-0.0009745183850734076

> <JCHEM_AVERAGE_POLARIZABILITY>
48.16900740502309

> <JCHEM_BIOAVAILABILITY>
1

> <JCHEM_DONOR_COUNT>
1

> <JCHEM_FORMAL_CHARGE>
0

> <JCHEM_GHOSE_FILTER>
0

> <JCHEM_IUPAC>
2-methyl-2-[(3E,7E)-4,8,12-trimethyltrideca-3,7,11-trien-1-yl]-3,4-dihydro-2H-1-benzopyran-6-ol

> <ALOGPS_LOGP>
7.68

> <JCHEM_LOGP>
7.750714648

> <ALOGPS_LOGS>
-5.68

> <JCHEM_MDDR_LIKE_RULE>
0

> <JCHEM_NEUTRAL_CHARGE>
0

> <JCHEM_NUMBER_OF_RINGS>
2

> <JCHEM_PHYSIOLOGICAL_CHARGE>
0

> <JCHEM_PKA_STRONGEST_ACIDIC>
10.010786528218764

> <JCHEM_PKA_STRONGEST_BASIC>
-4.855209812538777

> <JCHEM_POLAR_SURFACE_AREA>
29.46

> <JCHEM_REFRACTIVITY>
122.80050000000001

> <JCHEM_ROTATABLE_BOND_COUNT>
9

> <JCHEM_RULE_OF_FIVE>
0

> <ALOGPS_SOLUBILITY>
7.93e-04 g/l

> <JCHEM_TRADITIONAL_IUPAC>
tetrahydrofolic acid

> <JCHEM_VEBER_RULE>
1

> <DRUGBANK_ID>
DB12647

> <DRUG_GROUPS>
investigational

> <GENERIC_NAME>
Tocotrienol

> <PRODUCTS>
Protect Cardio AF

$$$$
