
  Mrv0541 05041411272D          

 11 11  0  0  1  0            999 V2000
   -0.8612    3.5893    0.0000 C   0  0  0  0  0  0  0  0  0  0  0  0
   -0.1467    3.1768    0.0000 C   0  0  0  0  0  0  0  0  0  0  0  0
   -0.1467    2.3518    0.0000 C   0  0  0  0  0  0  0  0  0  0  0  0
    0.5678    1.9393    0.0000 C   0  0  0  0  0  0  0  0  0  0  0  0
   -0.0997    0.6294    0.0000 C   0  0  0  0  0  0  0  0  0  0  0  0
    0.1553   -0.1553    0.0000 C   0  0  0  0  0  0  0  0  0  0  0  0
    1.2352    0.6294    0.0000 C   0  0  0  0  0  0  0  0  0  0  0  0
    0.5678    1.1143    0.0000 C   0  0  1  0  0  0  0  0  0  0  0  0
    1.4652   -0.8227    0.0000 O   0  0  0  0  0  0  0  0  0  0  0  0
    0.9803   -0.1553    0.0000 S   0  0  1  0  0  0  0  0  0  0  0  0
   -0.1673    1.4888    0.0000 H   0  0  0  0  0  0  0  0  0  0  0  0
  2  1  1  0  0  0  0
  3  2  1  0  0  0  0
  4  3  1  0  0  0  0
  6  5  1  0  0  0  0
  8  4  1  6  0  0  0
  8  5  1  0  0  0  0
  8  7  1  0  0  0  0
 10  6  1  0  0  0  0
 10  7  1  1  0  0  0
 10  9  2  0  0  0  0
  8 11  1  1  0  0  0
M  END
> <DATABASE_ID>
DB02871

> <DATABASE_NAME>
drugbank

> <SMILES>
[H][C@]1(CCCC)CC[S@](=O)C1

> <INCHI_IDENTIFIER>
InChI=1S/C8H16OS/c1-2-3-4-8-5-6-10(9)7-8/h8H,2-7H2,1H3/t8-,10-/m0/s1

> <INCHI_KEY>
QVVQIIIFHZDBDL-WPRPVWTQSA-N

> <FORMULA>
C8H16OS

> <MOLECULAR_WEIGHT>
160.277

> <EXACT_MASS>
160.092185824

> <JCHEM_ACCEPTOR_COUNT>
1

> <JCHEM_ATOM_COUNT>
26

> <JCHEM_AVERAGE_NEUTRAL_MICROSPECIES_CHARGE>
0.0

> <JCHEM_AVERAGE_POLARIZABILITY>
18.771348725621632

> <JCHEM_BIOAVAILABILITY>
1

> <JCHEM_DONOR_COUNT>
0

> <JCHEM_FORMAL_CHARGE>
0

> <JCHEM_GHOSE_FILTER>
1

> <JCHEM_IUPAC>
(1S,3S)-3-butyl-1lambda4-thiolan-1-one

> <ALOGPS_LOGP>
2.04

> <JCHEM_LOGP>
1.000989076

> <ALOGPS_LOGS>
-1.60

> <JCHEM_MDDR_LIKE_RULE>
0

> <JCHEM_NEUTRAL_CHARGE>
0

> <JCHEM_NUMBER_OF_RINGS>
1

> <JCHEM_PHYSIOLOGICAL_CHARGE>
0

> <JCHEM_PKA_STRONGEST_BASIC>
-8.039133871289444

> <JCHEM_POLAR_SURFACE_AREA>
17.07

> <JCHEM_REFRACTIVITY>
46.4854

> <JCHEM_ROTATABLE_BOND_COUNT>
3

> <JCHEM_RULE_OF_FIVE>
1

> <ALOGPS_SOLUBILITY>
4.03e+00 g/l

> <JCHEM_TRADITIONAL_IUPAC>
biotin

> <JCHEM_VEBER_RULE>
1

> <DRUGBANK_ID>
DB02871

> <SECONDARY_ACCESSION_NUMBERS>
EXPT02956

> <DRUG_GROUPS>
experimental

> <GENERIC_NAME>
3-Butylthiolane 1-Oxide

$$$$
