
  Mrv0541 02231217112D          

 28 30  0  0  0  0            999 V2000
   -2.1434   -2.8875    0.0000 C   0  0  0  0  0  0  0  0  0  0  0  0
   -2.1434   -3.7125    0.0000 C   0  0  0  0  0  0  0  0  0  0  0  0
   -1.4289   -4.1250    0.0000 C   0  0  0  0  0  0  0  0  0  0  0  0
   -1.4289   -4.9500    0.0000 C   0  0  0  0  0  0  0  0  0  0  0  0
   -0.7145   -5.3625    0.0000 O   0  0  0  0  0  0  0  0  0  0  0  0
   -0.7145   -6.1875    0.0000 C   0  0  0  0  0  0  0  0  0  0  0  0
    0.0000   -6.6000    0.0000 C   0  0  0  0  0  0  0  0  0  0  0  0
    0.0000   -7.4250    0.0000 O   0  0  0  0  0  0  0  0  0  0  0  0
    0.7145   -6.1875    0.0000 O   0  0  0  0  0  0  0  0  0  0  0  0
   -2.1434   -5.3625    0.0000 C   0  0  0  0  0  0  0  0  0  0  0  0
   -2.8579   -4.9500    0.0000 C   0  0  0  0  0  0  0  0  0  0  0  0
   -3.5724   -5.3625    0.0000 C   0  0  0  0  0  0  0  0  0  0  0  0
   -2.8579   -4.1250    0.0000 C   0  0  0  0  0  0  0  0  0  0  0  0
   -3.5724   -3.7125    0.0000 C   0  0  0  0  0  0  0  0  0  0  0  0
   -4.2868   -4.1250    0.0000 C   0  0  0  0  0  0  0  0  0  0  0  0
   -4.2868   -4.9500    0.0000 C   0  0  0  0  0  0  0  0  0  0  0  0
   -5.0013   -5.3625    0.0000 C   0  0  0  0  0  0  0  0  0  0  0  0
   -5.7158   -4.9500    0.0000 C   0  0  0  0  0  0  0  0  0  0  0  0
   -6.4302   -5.3625    0.0000 O   0  0  0  0  0  0  0  0  0  0  0  0
   -5.7158   -4.1250    0.0000 C   0  0  0  0  0  0  0  0  0  0  0  0
   -6.4302   -3.7125    0.0000 C   0  0  0  0  0  0  0  0  0  0  0  0
   -7.1447   -4.1250    0.0000 C   0  0  0  0  0  0  0  0  0  0  0  0
   -7.1447   -4.9500    0.0000 C   0  0  0  0  0  0  0  0  0  0  0  0
   -7.8592   -5.3625    0.0000 C   0  0  0  0  0  0  0  0  0  0  0  0
   -8.5737   -4.9500    0.0000 C   0  0  0  0  0  0  0  0  0  0  0  0
   -8.5737   -4.1250    0.0000 C   0  0  0  0  0  0  0  0  0  0  0  0
   -7.8592   -3.7125    0.0000 C   0  0  0  0  0  0  0  0  0  0  0  0
   -5.0013   -3.7125    0.0000 C   0  0  0  0  0  0  0  0  0  0  0  0
  1  2  1  0  0  0  0
  2  3  2  0  0  0  0
  3  4  1  0  0  0  0
  4  5  1  0  0  0  0
  5  6  1  0  0  0  0
  6  7  1  0  0  0  0
  7  8  1  0  0  0  0
  7  9  2  0  0  0  0
  4 10  2  0  0  0  0
 10 11  1  0  0  0  0
 11 12  1  0  0  0  0
 11 13  2  0  0  0  0
  2 13  1  0  0  0  0
 13 14  1  0  0  0  0
 14 15  1  0  0  0  0
 15 16  2  0  0  0  0
 16 17  1  0  0  0  0
 17 18  2  0  0  0  0
 18 19  1  0  0  0  0
 18 20  1  0  0  0  0
 20 21  1  0  0  0  0
 21 22  1  0  0  0  0
 22 23  2  0  0  0  0
 23 24  1  0  0  0  0
 24 25  2  0  0  0  0
 25 26  1  0  0  0  0
 26 27  2  0  0  0  0
 22 27  1  0  0  0  0
 20 28  2  0  0  0  0
 15 28  1  0  0  0  0
M  END
> <DATABASE_ID>
DB03788

> <DATABASE_NAME>
drugbank

> <SMILES>
CC1=CC(OCC(O)=O)=CC(C)=C1CC1=CC=C(O)C(CC2=CC=CC=C2)=C1

> <INCHI_IDENTIFIER>
InChI=1S/C24H24O4/c1-16-10-21(28-15-24(26)27)11-17(2)22(16)14-19-8-9-23(25)20(13-19)12-18-6-4-3-5-7-18/h3-11,13,25H,12,14-15H2,1-2H3,(H,26,27)

> <INCHI_KEY>
JYHIGYLGYNCMGI-UHFFFAOYSA-N

> <FORMULA>
C24H24O4

> <MOLECULAR_WEIGHT>
376.445

> <EXACT_MASS>
376.167459256

> <JCHEM_ACCEPTOR_COUNT>
4

> <JCHEM_ATOM_COUNT>
52

> <JCHEM_AVERAGE_NEUTRAL_MICROSPECIES_CHARGE>
-0.9997863886995106

> <JCHEM_AVERAGE_POLARIZABILITY>
41.06330429659706

> <JCHEM_BIOAVAILABILITY>
1

> <JCHEM_DONOR_COUNT>
2

> <JCHEM_FORMAL_CHARGE>
0

> <JCHEM_GHOSE_FILTER>
0

> <JCHEM_IUPAC>
2-{4-[(3-benzyl-4-hydroxyphenyl)methyl]-3,5-dimethylphenoxy}acetic acid

> <ALOGPS_LOGP>
5.21

> <JCHEM_LOGP>
6.200423369666667

> <ALOGPS_LOGS>
-5.97

> <JCHEM_MDDR_LIKE_RULE>
1

> <JCHEM_NEUTRAL_CHARGE>
-1

> <JCHEM_NUMBER_OF_RINGS>
3

> <JCHEM_PHYSIOLOGICAL_CHARGE>
-1

> <JCHEM_PKA>
10.215609603934618

> <JCHEM_PKA_STRONGEST_ACIDIC>
3.915188161053081

> <JCHEM_PKA_STRONGEST_BASIC>
-4.884769581890522

> <JCHEM_POLAR_SURFACE_AREA>
66.76

> <JCHEM_REFRACTIVITY>
110.1435

> <JCHEM_ROTATABLE_BOND_COUNT>
7

> <JCHEM_RULE_OF_FIVE>
0

> <ALOGPS_SOLUBILITY>
4.04e-04 g/l

> <JCHEM_TRADITIONAL_IUPAC>
biotin

> <JCHEM_VEBER_RULE>
0

> <DRUGBANK_ID>
DB03788

> <SECONDARY_ACCESSION_NUMBERS>
EXPT01522

> <DRUG_GROUPS>
experimental

> <GENERIC_NAME>
GC-24

$$$$
