
  Mrv0541 05041400172D          

 35 37  0  0  1  0            999 V2000
   -0.5683   -1.4940    0.0000 C   0  0  0  0  0  0  0  0  0  0  0  0
   -4.1642   -1.4572    0.0000 C   0  0  0  0  0  0  0  0  0  0  0  0
    3.3523    1.1104    0.0000 C   0  0  0  0  0  0  0  0  0  0  0  0
    0.6538    1.5229    0.0000 C   0  0  0  0  0  0  0  0  0  0  0  0
    0.0992   -1.0091    0.0000 C   0  0  2  0  0  0  0  0  0  0  0  0
    1.9233    1.9354    0.0000 C   0  0  0  0  0  0  0  0  0  0  0  0
    0.8838   -1.2640    0.0000 C   0  0  2  0  0  0  0  0  0  0  0  0
    1.3687   -0.5966    0.0000 C   0  0  2  0  0  0  0  0  0  0  0  0
    2.6378    2.3479    0.0000 C   0  0  0  0  0  0  0  0  0  0  0  0
    1.9233    1.1104    0.0000 C   0  0  0  0  0  0  0  0  0  0  0  0
    0.8838    0.0709    0.0000 C   0  0  2  0  0  0  0  0  0  0  0  0
   -4.8316   -1.9421    0.0000 As  0  0  0  0  0  0  0  0  0  0  0  0
    2.6378    3.1729    0.0000 N   0  0  0  0  0  0  0  0  0  0  0  0
    3.3523    1.9354    0.0000 N   0  0  0  0  0  0  0  0  0  0  0  0
    2.6378    0.6979    0.0000 N   0  0  0  0  0  0  0  0  0  0  0  0
    1.1387    2.1904    0.0000 N   0  0  0  0  0  0  0  0  0  0  0  0
    1.1387    0.8555    0.0000 N   0  0  0  0  0  0  0  0  0  0  0  0
    1.1387   -2.0486    0.0000 O   0  0  0  0  0  0  0  0  0  0  0  0
    2.1937   -0.5966    0.0000 O   0  0  0  0  0  0  0  0  0  0  0  0
   -5.4991   -2.4270    0.0000 O   0  0  0  0  0  0  0  0  0  0  0  0
   -5.3165   -1.2746    0.0000 O   0  0  0  0  0  0  0  0  0  0  0  0
   -4.3467   -2.6095    0.0000 O   0  0  0  0  0  0  0  0  0  0  0  0
   -3.0749   -1.0390    0.0000 O   0  0  0  0  0  0  0  0  0  0  0  0
   -3.7461   -2.5464    0.0000 O   0  0  0  0  0  0  0  0  0  0  0  0
   -2.4743   -0.9759    0.0000 O   0  0  0  0  0  0  0  0  0  0  0  0
   -1.5045   -2.3108    0.0000 O   0  0  0  0  0  0  0  0  0  0  0  0
   -1.3220   -1.1584    0.0000 O   0  0  0  0  0  0  0  0  0  0  0  0
    0.0992   -0.1841    0.0000 O   0  0  0  0  0  0  0  0  0  0  0  0
   -2.6568   -2.1283    0.0000 O   0  0  0  0  0  0  0  0  0  0  0  0
   -3.4105   -1.7927    0.0000 P   0  0  0  0  0  0  0  0  0  0  0  0
   -1.9894   -1.6433    0.0000 P   0  0  0  0  0  0  0  0  0  0  0  0
    0.4991   -1.7306    0.0000 H   0  0  0  0  0  0  0  0  0  0  0  0
    0.5351   -2.0117    0.0000 H   0  0  0  0  0  0  0  0  0  0  0  0
    1.7432   -1.3316    0.0000 H   0  0  0  0  0  0  0  0  0  0  0  0
    1.6986    0.1999    0.0000 H   0  0  0  0  0  0  0  0  0  0  0  0
  5  1  1  1  0  0  0
  7  5  1  0  0  0  0
  8  7  1  0  0  0  0
  9  6  2  0  0  0  0
 10  6  1  0  0  0  0
 11  8  1  0  0  0  0
 12  2  1  0  0  0  0
 13  9  1  0  0  0  0
 14  3  2  0  0  0  0
 14  9  1  0  0  0  0
 15  3  1  0  0  0  0
 15 10  2  0  0  0  0
 16  4  2  0  0  0  0
 16  6  1  0  0  0  0
 17  4  1  0  0  0  0
 17 10  1  0  0  0  0
 11 17  1  1  0  0  0
  7 18  1  6  0  0  0
  8 19  1  6  0  0  0
 20 12  1  0  0  0  0
 21 12  1  0  0  0  0
 22 12  2  0  0  0  0
 27  1  1  0  0  0  0
 28  5  1  0  0  0  0
 28 11  1  0  0  0  0
 30  2  1  0  0  0  0
 30 23  1  0  0  0  0
 30 24  2  0  0  0  0
 30 29  1  0  0  0  0
 31 25  1  0  0  0  0
 31 26  2  0  0  0  0
 31 27  1  0  0  0  0
 31 29  1  0  0  0  0
  5 32  1  6  0  0  0
  7 33  1  1  0  0  0
  8 34  1  1  0  0  0
 11 35  1  6  0  0  0
M  END
> <DATABASE_ID>
DB02937

> <DATABASE_NAME>
drugbank

> <SMILES>
[H][C@]1(COP(O)(=O)OP(O)(=O)C[As](O)(O)=O)O[C@@]([H])(N2C=NC3=C(N)N=CN=C23)[C@]([H])(O)[C@]1([H])O

> <INCHI_IDENTIFIER>
InChI=1S/C11H18AsN5O12P2/c13-9-6-10(15-3-14-9)17(4-16-6)11-8(19)7(18)5(28-11)1-27-31(25,26)29-30(23,24)2-12(20,21)22/h3-5,7-8,11,18-19H,1-2H2,(H,23,24)(H,25,26)(H2,13,14,15)(H2,20,21,22)/t5-,7-,8-,11-/m1/s1

> <INCHI_KEY>
KHQOAQLQNLUEQN-IOSLPCCCSA-N

> <FORMULA>
C11H18AsN5O12P2

> <MOLECULAR_WEIGHT>
549.156

> <EXACT_MASS>
548.964315506

> <JCHEM_ACCEPTOR_COUNT>
14

> <JCHEM_ATOM_COUNT>
49

> <JCHEM_AVERAGE_NEUTRAL_MICROSPECIES_CHARGE>
-3.0528107444608676

> <JCHEM_AVERAGE_POLARIZABILITY>
41.31251075303821

> <JCHEM_BIOAVAILABILITY>
0

> <JCHEM_DONOR_COUNT>
7

> <JCHEM_FORMAL_CHARGE>
0

> <JCHEM_GHOSE_FILTER>
0

> <JCHEM_IUPAC>
{[(2R,3S,4R,5R)-5-(6-amino-9H-purin-9-yl)-3,4-dihydroxyoxolan-2-yl]methoxy}({[(arsonomethyl)(hydroxy)phosphoryl]oxy})phosphinic acid

> <ALOGPS_LOGP>
-1.52

> <JCHEM_LOGP>
-5.765902413487353

> <ALOGPS_LOGS>
-2.18

> <JCHEM_MDDR_LIKE_RULE>
1

> <JCHEM_NEUTRAL_CHARGE>
-3

> <JCHEM_NUMBER_OF_RINGS>
3

> <JCHEM_PHYSIOLOGICAL_CHARGE>
-3

> <JCHEM_PKA>
2.2319182619007507

> <JCHEM_PKA_STRONGEST_ACIDIC>
1.8497169241686144

> <JCHEM_PKA_STRONGEST_BASIC>
4.98651394249318

> <JCHEM_POLAR_SURFACE_AREA>
269.9

> <JCHEM_REFRACTIVITY>
92.88739999999999

> <JCHEM_ROTATABLE_BOND_COUNT>
8

> <JCHEM_RULE_OF_FIVE>
0

> <ALOGPS_SOLUBILITY>
3.62e+00 g/l

> <JCHEM_TRADITIONAL_IUPAC>
tetrahydrofolic acid

> <JCHEM_VEBER_RULE>
0

> <DRUGBANK_ID>
DB02937

> <SECONDARY_ACCESSION_NUMBERS>
EXPT00589

> <DRUG_GROUPS>
experimental

> <GENERIC_NAME>
Gamma-Arsono-Beta, Gamma-Methyleneadenosine-5'-Diphosphate

$$$$
