
  Mrv0541 02231216402D          

 14 14  0  0  1  0            999 V2000
    2.1913    1.6913    0.0000 C   0  0  0  0  0  0  0  0  0  0  0  0
    2.0198    0.8843    0.0000 C   0  0  2  0  0  0  0  0  0  0  0  0
    2.6329    0.3323    0.0000 N   0  0  0  0  0  0  0  0  0  0  0  0
    1.2352    0.6294    0.0000 C   0  0  0  0  0  0  0  0  0  0  0  0
    0.9803   -0.1553    0.0000 N   0  0  0  0  0  0  0  0  0  0  0  0
    0.1553   -0.1553    0.0000 C   0  0  0  0  0  0  0  0  0  0  0  0
   -0.3297   -0.8227    0.0000 C   0  0  0  0  0  0  0  0  0  0  0  0
   -0.0997    0.6294    0.0000 C   0  0  0  0  0  0  0  0  0  0  0  0
   -0.8843    0.8843    0.0000 O   0  0  0  0  0  0  0  0  0  0  0  0
    0.5678    1.1143    0.0000 N   0  0  0  0  0  0  0  0  0  0  0  0
    0.5678    1.9393    0.0000 C   0  0  0  0  0  0  0  0  0  0  0  0
   -0.1467    2.3518    0.0000 C   0  0  0  0  0  0  0  0  0  0  0  0
   -0.8612    1.9393    0.0000 O   0  0  0  0  0  0  0  0  0  0  0  0
   -0.1467    3.1768    0.0000 O   0  0  0  0  0  0  0  0  0  0  0  0
  1  2  1  0  0  0  0
  2  3  1  6  0  0  0
  2  4  1  0  0  0  0
  4  5  2  0  0  0  0
  5  6  1  0  0  0  0
  6  7  1  0  0  0  0
  6  8  2  0  0  0  0
  8  9  1  0  0  0  0
  8 10  1  0  0  0  0
  4 10  1  0  0  0  0
 10 11  1  0  0  0  0
 11 12  1  0  0  0  0
 12 13  1  0  0  0  0
 12 14  2  0  0  0  0
M  END
> <DATABASE_ID>
DB03071

> <DATABASE_NAME>
drugbank

> <SMILES>
C[C@H](N)C1=NC(C)=C(O)N1CC(O)=O

> <INCHI_IDENTIFIER>
InChI=1S/C8H13N3O3/c1-4(9)7-10-5(2)8(14)11(7)3-6(12)13/h4,14H,3,9H2,1-2H3,(H,12,13)/t4-/m0/s1

> <INCHI_KEY>
GYCBVEGTLQBIBF-BYPYZUCNSA-N

> <FORMULA>
C8H13N3O3

> <MOLECULAR_WEIGHT>
199.2071

> <EXACT_MASS>
199.095691297

> <JCHEM_ACCEPTOR_COUNT>
5

> <JCHEM_ATOM_COUNT>
27

> <JCHEM_AVERAGE_NEUTRAL_MICROSPECIES_CHARGE>
-0.11717858952486344

> <JCHEM_AVERAGE_POLARIZABILITY>
19.850634919103364

> <JCHEM_BIOAVAILABILITY>
1

> <JCHEM_DONOR_COUNT>
3

> <JCHEM_FORMAL_CHARGE>
0

> <JCHEM_GHOSE_FILTER>
0

> <JCHEM_IUPAC>
2-{2-[(1S)-1-aminoethyl]-5-hydroxy-4-methyl-1H-imidazol-1-yl}acetic acid

> <ALOGPS_LOGP>
-2.67

> <JCHEM_LOGP>
-3.0248875250371148

> <ALOGPS_LOGS>
-1.28

> <JCHEM_MDDR_LIKE_RULE>
0

> <JCHEM_NEUTRAL_CHARGE>
0

> <JCHEM_NUMBER_OF_RINGS>
1

> <JCHEM_PHYSIOLOGICAL_CHARGE>
0

> <JCHEM_PKA>
11.349529775295542

> <JCHEM_PKA_STRONGEST_ACIDIC>
3.1433539764218184

> <JCHEM_PKA_STRONGEST_BASIC>
7.873006338245185

> <JCHEM_POLAR_SURFACE_AREA>
101.37

> <JCHEM_REFRACTIVITY>
48.11410000000001

> <JCHEM_ROTATABLE_BOND_COUNT>
3

> <JCHEM_RULE_OF_FIVE>
1

> <ALOGPS_SOLUBILITY>
1.04e+01 g/l

> <JCHEM_TRADITIONAL_IUPAC>
tetrahydrofolic acid

> <JCHEM_VEBER_RULE>
0

> <DRUGBANK_ID>
DB03071

> <SECONDARY_ACCESSION_NUMBERS>
EXPT02146

> <DRUG_GROUPS>
experimental

> <GENERIC_NAME>
4-Methylidene-5-One

$$$$
