
  Mrv0541 02231217342D          

 13 12  0  0  0  0            999 V2000
    0.0000    0.8250    0.0000 C   0  0  0  0  0  0  0  0  0  0  0  0
   -0.7145    1.2375    0.0000 O   0  0  0  0  0  0  0  0  0  0  0  0
    0.7145    1.2375    0.0000 O   0  0  0  0  0  0  0  0  0  0  0  0
    1.4289    0.0000    0.0000 C   0  0  0  0  0  0  0  0  0  0  0  0
    1.4289    0.8250    0.0000 O   0  0  0  0  0  0  0  0  0  0  0  0
    2.1434   -0.4125    0.0000 O   0  0  0  0  0  0  0  0  0  0  0  0
   -1.4290    0.8250    0.0000 O   0  0  0  0  0  0  0  0  0  0  0  0
   -1.4290    0.0000    0.0000 C   0  0  0  0  0  0  0  0  0  0  0  0
   -2.1434   -0.4125    0.0000 O   0  0  0  0  0  0  0  0  0  0  0  0
   -0.7145   -0.4125    0.0000 C   0  0  0  0  0  0  0  0  0  0  0  0
    0.7145   -0.4125    0.0000 C   0  0  0  0  0  0  0  0  0  0  0  0
    0.0000    0.0000    0.0000 C   0  0  0  0  0  0  0  0  0  0  0  0
    0.0000   -0.8250    0.0000 O   0  0  0  0  0  0  0  0  0  0  0  0
  4 11  1  0  0  0  0
  2  1  2  0  0  0  0
  3  1  1  0  0  0  0
  5  4  2  0  0  0  0
  6  4  1  0  0  0  0
  8  7  2  0  0  0  0
 10  8  1  0  0  0  0
  8  9  1  0  0  0  0
 12 10  1  0  0  0  0
 11 12  1  0  0  0  0
  1 12  1  0  0  0  0
 12 13  1  0  0  0  0
M  END
> <DATABASE_ID>
DB04272

> <DATABASE_NAME>
drugbank

> <SMILES>
OC(=O)CC(O)(CC(O)=O)C(O)=O

> <INCHI_IDENTIFIER>
InChI=1S/C6H8O7/c7-3(8)1-6(13,5(11)12)2-4(9)10/h13H,1-2H2,(H,7,8)(H,9,10)(H,11,12)

> <INCHI_KEY>
KRKNYBCHXYNGOX-UHFFFAOYSA-N

> <FORMULA>
C6H8O7

> <MOLECULAR_WEIGHT>
192.1235

> <EXACT_MASS>
192.02700261

> <JCHEM_ACCEPTOR_COUNT>
7

> <JCHEM_ATOM_COUNT>
21

> <JCHEM_AVERAGE_NEUTRAL_MICROSPECIES_CHARGE>
-2.983173693927355

> <JCHEM_AVERAGE_POLARIZABILITY>
15.53525731872116

> <JCHEM_BIOAVAILABILITY>
1

> <JCHEM_DONOR_COUNT>
4

> <JCHEM_FORMAL_CHARGE>
0

> <JCHEM_GHOSE_FILTER>
0

> <JCHEM_IUPAC>
2-hydroxypropane-1,2,3-tricarboxylic acid

> <ALOGPS_LOGP>
-1.33

> <JCHEM_LOGP>
-1.3226874519999998

> <ALOGPS_LOGS>
-0.26

> <JCHEM_MDDR_LIKE_RULE>
0

> <JCHEM_NEUTRAL_CHARGE>
-3

> <JCHEM_NUMBER_OF_RINGS>
0

> <JCHEM_PHYSIOLOGICAL_CHARGE>
-3

> <JCHEM_PKA>
4.674836176324

> <JCHEM_PKA_STRONGEST_ACIDIC>
3.0479515131680732

> <JCHEM_PKA_STRONGEST_BASIC>
-4.1856934502319305

> <JCHEM_POLAR_SURFACE_AREA>
132.13

> <JCHEM_REFRACTIVITY>
35.6239

> <JCHEM_ROTATABLE_BOND_COUNT>
5

> <JCHEM_RULE_OF_FIVE>
1

> <ALOGPS_SOLUBILITY>
1.06e+02 g/l

> <JCHEM_TRADITIONAL_IUPAC>
tetrahydrofolic acid

> <JCHEM_VEBER_RULE>
0

> <DRUGBANK_ID>
DB04272

> <SECONDARY_ACCESSION_NUMBERS>
EXPT00922

> <DRUG_GROUPS>
approved; nutraceutical; vet_approved

> <GENERIC_NAME>
Citric acid

> <SYNONYMS>
2-hydroxy-1,2,3-propanetricarboxyic acid; 2-Hydroxytricarballylic acid; 3-carboxy-3-hydroxypentane-1,5-dioic acid; ácido cítrico; Acidum citricum; Anhydrous citric acid; Citric acid monoglyceride; Citric acid, anhydrous; Citric acid,anhydrous; Citronensäure

> <PRODUCTS>
A-C-D Solution; ACD Blood-Pack Units (PL 146 Plastic); ACD Solution Modified; ADSOL Red Cell Preservation Solution System in Plastic Container (PL 146 Plastic); Acd A; Acd-A; Additive Formula 3; Additive Solution Formula 3 As-3; Adsol Red Cell Preservation; Alka Seltzer; Alka Seltzer Evt; Alka Seltzer Flavoured; Alka Seltzer Original; Alka Seltzer Originial 1s Blister Pack; Alka-Seltzer; Alka-Seltzer Extra Strength; Alka-Seltzer Gold; Alka-Seltzer HEARTBURN; Alka-Seltzer Heartburn; Alka-Seltzer Heartburn Relief Extra Strength; Alka-Seltzer Heartburn Relief Lemon Lime; Alka-Seltzer Lemon Lime; Alka-Seltzer Original; Alka-Seltzer XTRA STRENGTH; Alka-seltzer Flavoured; Alka-seltzer Flavoured - Evt; Alka-seltzer Original; All-Natural Pen Spray; Anticoagulant Cit Phos Dex Adenine Sol USP; Anticoagulant Citrate Dextr Sol Formula A USP; Anticoagulant Citrate Dextrose A; Anticoagulant Citrate Dextrose A ACD-A; Anticoagulant Citrate Dextrose Solution USP (acd) Formula A; Anticoagulant Citrate Dextrose Solution USP (acd) Formula B; Anticoagulant Citrate Dextrose Solution-A; Anticoagulant Citrate Phosphate Dextrose (CPD) Blood-Pack Units in PL 146 Plastic; Anticoagulant Solution Citrate Phosphate Dextrose (CPD); As 3; Av-1000; Av100; B100; Best Choice Effervescent Antacid Pain Relief; Bicaruvas; BioShield 99; Blood Pack Unit Cpd; Bromo Seltzer; Bt100s; CPD Solution; CPD/ADSOL Red Cell Preservation Solution System (PL 2209); CPDA-1 Blood Collection System; CVS Health Antacid and Pain Reliever; CVS Health Extra Strength Antacid and Pain Reliever; Care One Original Antacid and Pain Relief; Citracleen; Citrasate C0125; Citrasate C10125; Citrasate C1125; Citrasate C1150; Citrasate C2125; Citrasate C2150; Citrasate C3125; Citrasate C3150; Citrasate C4125; Citric Acid; Citric Acid Wipes; Citric Buffered Normal Saline; Citrocarbonate Eff Pws; Clayr; Clenpiq; Cloon Stick; Cpd; Cpd Adenine Cpda 1; Cpd/adsol; Cpda-1; Cygzyme; Cytra 3; Cytra-2; Cytra-K; Cytra-K Crystals; DG Health Effervescent Antacid and Pain Relief; Disinfect Wipes; Dr. Juans Santo Remedio PARA LA ACIDEZ; Drug Mart Effervescent Pain Relief; E-Z-gas II; Effervescent Antacid and Pain Relief; Effervescent Pain Relief; Effervescent Pain Relief Fast Relief; Effervescent Pain Relief Fast Relief Fast Relief; EnLyte; Enl; Equaline Effervescent Antacid and Pain Relief; Equate Effervescent Antacid and Pain Relief; Equate Extra Strength Effervescent Antacid and Pain Relief; Family Care Effervescent Antacid and Pain Relief; Family Wellness Effervescent Antacid and Pain Relief; Fluad Tetra; Freds Effervescent Antacid Pain Relief; Good Sense Effervescent Antacid and Pain Relief; Green Fresh; HEB Extra Strength Effervescent Antacid and Pain Relief; Haemonetics Additive Solution Formula 3 (AS-3); Haemonetics Anticoagulant Citrate Dextrose Solution; Haemonetics Anticoagulant Citrate Phosphate Double Dextrose Solution (CP2D); Hand Sanitizer; Hand Washing; Hemasate Ultra Hs0125; Hemasate Ultra Hs1125; Hemasate Ultra Hs1150; Hemasate Ultra Hs2125; Hemasate Ultra Hs2150; Hemasate Ultra Hs3125; Hemasate Ultra Hs3150; Hemasate Ultra Hs4125; Hemosate Ultra Hs0125; Hemosate Ultra Hs1125; Hemosate Ultra Hs1150; Hemosate Ultra Hs2125; Hemosate Ultra Hs2150; Hemosate Ultra Hs3125; Hemosate Ultra Hs3150; Hemosate Ultra Hs4125; Heparin Sodium In 0.9% Sodium Chloride Injection; Heparin Sodium In 5% Dextrose Injection, 25000unit/500ml; HyVee Health Effervescent Antacid and Pain Relief; IDkit HP ONE; IMUFLEX WB-RP Blood Bag System with Integral Whole Blood Leukocyte Reduction Filter (Removing Platelets) with Diversion Blood Sampling Arm Anticoagulant Citrate Phosphate Dextrose (CPD) AND OPTISOL (AS-5) Red Cell Preservative; IMUFLEX WB-SP Blood Bag System with Integral Whole Blood Leukocyte Reduction Filter (Saving Platelets) with Diversion Blood Sampling Arm Anticoagulant Citrate Phosphate Dextrose (CPD) and OPTISOL (AS-5) Red Cell Preservative; Imuflex Wb-SP Blood Bag System With Integral Whole Blood Leukocyte Reduction Filter (saving Platelets) With Diversion Blood Sampling Arm; Iypoly; KID-CLEAN Epiguard (Herbage Basis germ Growth InhibitsSolution); Kroger Effervescent Antacid and Pain Relief; Leader Effervescent Antacid and Pain Relief; Leader Extra Strength Effervescent Antacid and Pain Reliever; Leucoflex CGP; Leukotrap WB System; Lot; Lysol Simply Disinfectant All Purpose Cleaner; Lytren; Lytren Rhs Liq; MTL1 Leucoflex; Market Basket Effervescent Antacid and Pain Relief; Medique Medi Seltzer; Meijer Effervescent Antacid and Pain Relief; Nature Clean; Neutra-seltzer; Nutricel Additive System - CP2D; Oracit; Oral Purgative; Pain Relief Fast Relief; Pall Sterile Cord Blood Collection Unit; Phexxi; Pico-salax; Picodan; Picoflo; Picot Plus Effervescent; Potassium Citrate Citric Acid Crystals; Potassium Citrate and Citric Acid; Potassium Citrate, Sodium Citrate, and Citric Acid; Potassium Citrate-Citric Acid; Potassium Citrate-Sodium Citrate-Citric Acid; PramLyte; Premier Value Antacid and Pain Relief Medicine; Prepopik; Publix Fast Relief Effervescent; Puralor; Purg-odan; Purilab; Quality Choice Effervescent Antacid and Pain Relief; Quality Choice Extra Strength Effervescent Antacid and Pain Relief; Renacidin; Riga Purgative Lemon Flav Liq; Rite Aid Antacid and Pain Relief; Sal De Uvas Picot; Sal de Uvas Picot; Sanitize/Disinfect Wipes; Signature Care Effervescent Antacid and Pain Relief; Smart Sense Effervescent Antacid and Pain Relief; Sodium Citrate and Citric Acid; Sodium Citrate-Citric Acid; Sodium Picosulfate, Magnesium Oxide and Anhydrous Citric Acid; Sterile Cord Blood Collection Unit; Sterile Cord Blood Collection Unit (MSC127D); Sterile Cord Blood Collection Unit (MSC128D); Sterile Cord Blood Collection Unit (msc123d); Stop Hair; Surface Cleaner; Surface Wipes; TERUFLEX Blood Bag System Anticoagulant Citrate Phosphate Dextrose (CPD) AND OPTISOL Red Cell Preservative; TERUFLEX Blood Bag System Anticoagulant Citrate Phosphate Dextrose Adenine (CPDA-1); TERUFLEX Blood Bag System with Blood Sampling Arm Anticoagulant Citrate Phosphate Dextrose (CPD) AND OPTISOL (AS-5) Red Cell Preservative; TERUFLEX Blood Bag System with Diversion Blood Sampling Arm Anticoagulant Citrate Phosphate Dextrose (CPD) AND OPTISOL (AS-5) Red Cell Preservative; Top Value Effervescent Pain Relief; TopCare Effervescent Antacid and Pain Relief; Tricitrates; Up and Up Antacid and Pain Relief; Urologic G for Irrigation; Urologic Solution G; Vida Mia Pain Relief; Virtrate-2; Virtrate-3; Virtrate-K; W.skin Treemon Cleansing Water; Walgreens Antacid Pain Relief Extra Strength; Walgreens Effervescent Pain Relief; Whitening Lemon Peel; WinCo Foods Effervescent Antacid and Pain Relief; Zee-Seltzer Antacid and Pain Reliever; bdr Re-action natural low base skin refiner exfoliation essence

> <SALTS>
Citric acid monohydrate

$$$$
