
  Mrv0541 02231217242D          

 13 12  0  0  1  0            999 V2000
    1.0461    1.4289    0.0000 C   0  0  0  0  0  0  0  0  0  0  0  0
    1.7605    1.8414    0.0000 C   0  0  0  0  0  0  0  0  0  0  0  0
    1.7605    2.6664    0.0000 O   0  0  0  0  0  0  0  0  0  0  0  0
    2.4750    1.4289    0.0000 N   0  0  0  0  0  0  0  0  0  0  0  0
    3.1895    1.8414    0.0000 C   0  0  1  0  0  0  0  0  0  0  0  0
    3.9039    1.4289    0.0000 C   0  0  0  0  0  0  0  0  0  0  0  0
    4.6184    1.8414    0.0000 C   0  0  0  0  0  0  0  0  0  0  0  0
    5.3329    1.4289    0.0000 C   0  0  0  0  0  0  0  0  0  0  0  0
    6.0474    1.8414    0.0000 O   0  0  0  0  0  0  0  0  0  0  0  0
    5.3329    0.6039    0.0000 O   0  0  0  0  0  0  0  0  0  0  0  0
    3.1895    2.6664    0.0000 C   0  0  0  0  0  0  0  0  0  0  0  0
    3.9039    3.0789    0.0000 O   0  0  0  0  0  0  0  0  0  0  0  0
    2.4750    3.0789    0.0000 O   0  0  0  0  0  0  0  0  0  0  0  0
  1  2  1  0  0  0  0
  2  3  2  0  0  0  0
  2  4  1  0  0  0  0
  5  4  1  6  0  0  0
  5  6  1  0  0  0  0
  6  7  1  0  0  0  0
  7  8  1  0  0  0  0
  8  9  1  0  0  0  0
  8 10  2  0  0  0  0
  5 11  1  0  0  0  0
 11 12  1  0  0  0  0
 11 13  2  0  0  0  0
M  END
> <DATABASE_ID>
DB04075

> <DATABASE_NAME>
drugbank

> <SMILES>
CC(=O)N[C@@H](CCC(O)=O)C(O)=O

> <INCHI_IDENTIFIER>
InChI=1S/C7H11NO5/c1-4(9)8-5(7(12)13)2-3-6(10)11/h5H,2-3H2,1H3,(H,8,9)(H,10,11)(H,12,13)/t5-/m0/s1

> <INCHI_KEY>
RFMMMVDNIPUKGG-YFKPBYRVSA-N

> <FORMULA>
C7H11NO5

> <MOLECULAR_WEIGHT>
189.1659

> <EXACT_MASS>
189.063722467

> <JCHEM_ACCEPTOR_COUNT>
5

> <JCHEM_ATOM_COUNT>
24

> <JCHEM_AVERAGE_NEUTRAL_MICROSPECIES_CHARGE>
-1.9982770131373075

> <JCHEM_AVERAGE_POLARIZABILITY>
17.440299050547086

> <JCHEM_BIOAVAILABILITY>
1

> <JCHEM_DONOR_COUNT>
3

> <JCHEM_FORMAL_CHARGE>
0

> <JCHEM_GHOSE_FILTER>
0

> <JCHEM_IUPAC>
(2S)-2-acetamidopentanedioic acid

> <ALOGPS_LOGP>
-0.67

> <JCHEM_LOGP>
-1.1130154166666664

> <ALOGPS_LOGS>
-1.01

> <JCHEM_MDDR_LIKE_RULE>
0

> <JCHEM_NEUTRAL_CHARGE>
-2

> <JCHEM_NUMBER_OF_RINGS>
0

> <JCHEM_PHYSIOLOGICAL_CHARGE>
-2

> <JCHEM_PKA>
4.288470351468538

> <JCHEM_PKA_STRONGEST_ACIDIC>
3.432014588807448

> <JCHEM_PKA_STRONGEST_BASIC>
-1.800828671223234

> <JCHEM_POLAR_SURFACE_AREA>
103.70000000000002

> <JCHEM_REFRACTIVITY>
40.731500000000004

> <JCHEM_ROTATABLE_BOND_COUNT>
5

> <JCHEM_RULE_OF_FIVE>
1

> <ALOGPS_SOLUBILITY>
1.86e+01 g/l

> <JCHEM_TRADITIONAL_IUPAC>
biotin

> <JCHEM_VEBER_RULE>
0

> <DRUGBANK_ID>
DB04075

> <SECONDARY_ACCESSION_NUMBERS>
EXPT02356

> <DRUG_GROUPS>
experimental

> <GENERIC_NAME>
N-Acetyl-L-Glutamate

$$$$
