
  Mrv0541 05041412092D          

 17 17  0  0  0  0            999 V2000
    1.4289    2.4750    0.0000 C   0  0  0  0  0  0  0  0  0  0  0  0
    0.7145   -0.4125    0.0000 C   0  0  0  0  0  0  0  0  0  0  0  0
    1.4289    0.0000    0.0000 C   0  0  0  0  0  0  0  0  0  0  0  0
   -0.0000    0.0000    0.0000 C   0  0  0  0  0  0  0  0  0  0  0  0
    1.4289    0.8250    0.0000 C   0  0  0  0  0  0  0  0  0  0  0  0
   -0.7145    1.2375    0.0000 C   0  0  0  0  0  0  0  0  0  0  0  0
   -1.4289    0.8250    0.0000 C   0  0  0  0  0  0  0  0  0  0  0  0
    0.0000    0.8250    0.0000 C   0  0  0  0  0  0  0  0  0  0  0  0
   -1.4289    0.0000    0.0000 C   0  0  0  0  0  0  0  0  0  0  0  0
    0.7145    1.2375    0.0000 C   0  0  0  0  0  0  0  0  0  0  0  0
   -2.1434   -0.4125    0.0000 C   0  0  0  0  0  0  0  0  0  0  0  0
   -0.7145   -0.4125    0.0000 O   0  0  0  0  0  0  0  0  0  0  0  0
   -2.1434   -1.2375    0.0000 O   0  0  0  0  0  0  0  0  0  0  0  0
   -2.8579    0.0000    0.0000 O   0  0  0  0  0  0  0  0  0  0  0  0
    0.7145    2.0625    0.0000 O   0  0  0  0  0  0  0  0  0  0  0  0
   -0.7145    2.0625    0.0000 H   0  0  0  0  0  0  0  0  0  0  0  0
   -2.1434    1.2375    0.0000 H   0  0  0  0  0  0  0  0  0  0  0  0
  3  2  2  0  0  0  0
  4  2  1  0  0  0  0
  5  3  1  0  0  0  0
  7  6  2  0  0  0  0
  8  4  2  0  0  0  0
  8  6  1  0  0  0  0
  9  7  1  0  0  0  0
 10  5  2  0  0  0  0
 10  8  1  0  0  0  0
 11  9  1  0  0  0  0
 12  9  2  0  0  0  0
 13 11  1  0  0  0  0
 14 11  2  0  0  0  0
 15  1  1  0  0  0  0
 15 10  1  0  0  0  0
 16  6  1  0  0  0  0
 17  7  1  0  0  0  0
M  END
> <DATABASE_ID>
DB08637

> <DATABASE_NAME>
drugbank

> <SMILES>
[H]\C(=C(/[H])C1=CC=CC=C1OC)C(=O)C(O)=O

> <INCHI_IDENTIFIER>
InChI=1S/C11H10O4/c1-15-10-5-3-2-4-8(10)6-7-9(12)11(13)14/h2-7H,1H3,(H,13,14)/b7-6-

> <INCHI_KEY>
QGTBUESLYPYXRT-SREVYHEPSA-N

> <FORMULA>
C11H10O4

> <MOLECULAR_WEIGHT>
206.1947

> <EXACT_MASS>
206.057908808

> <JCHEM_ACCEPTOR_COUNT>
4

> <JCHEM_ATOM_COUNT>
25

> <JCHEM_AVERAGE_NEUTRAL_MICROSPECIES_CHARGE>
-0.9999121679956463

> <JCHEM_AVERAGE_POLARIZABILITY>
19.980679800327383

> <JCHEM_BIOAVAILABILITY>
1

> <JCHEM_DONOR_COUNT>
1

> <JCHEM_FORMAL_CHARGE>
0

> <JCHEM_GHOSE_FILTER>
1

> <JCHEM_IUPAC>
(3Z)-4-(2-methoxyphenyl)-2-oxobut-3-enoic acid

> <ALOGPS_LOGP>
1.88

> <JCHEM_LOGP>
2.267634662

> <ALOGPS_LOGS>
-2.86

> <JCHEM_MDDR_LIKE_RULE>
0

> <JCHEM_NEUTRAL_CHARGE>
-1

> <JCHEM_NUMBER_OF_RINGS>
1

> <JCHEM_PHYSIOLOGICAL_CHARGE>
-1

> <JCHEM_PKA_STRONGEST_ACIDIC>
2.943690950787159

> <JCHEM_PKA_STRONGEST_BASIC>
-4.8412271677369025

> <JCHEM_POLAR_SURFACE_AREA>
63.599999999999994

> <JCHEM_REFRACTIVITY>
54.86910000000002

> <JCHEM_ROTATABLE_BOND_COUNT>
4

> <JCHEM_RULE_OF_FIVE>
1

> <ALOGPS_SOLUBILITY>
2.84e-01 g/l

> <JCHEM_TRADITIONAL_IUPAC>
tetrahydrofolic acid

> <JCHEM_VEBER_RULE>
0

> <DRUGBANK_ID>
DB08637

> <DRUG_GROUPS>
experimental

> <GENERIC_NAME>
4-(2-METHOXYPHENYL)-2-OXOBUT-3-ENOIC ACID

$$$$
