
  Mrv0541 05041409072D          

 14 13  0  0  1  0            999 V2000
    2.1434   -0.4125    0.0000 C   0  0  0  0  0  0  0  0  0  0  0  0
    1.4289    0.0000    0.0000 C   0  0  1  0  0  0  0  0  0  0  0  0
    2.8579    0.0000    0.0000 C   0  0  0  0  0  0  0  0  0  0  0  0
    0.7145   -0.4125    0.0000 C   0  0  0  0  0  0  0  0  0  0  0  0
    1.4289    0.8250    0.0000 C   0  0  0  0  0  0  0  0  0  0  0  0
    0.0000    0.0000    0.0000 C   0  0  0  0  0  0  0  0  0  0  0  0
    3.5724   -0.4125    0.0000 O   0  0  0  0  0  0  0  0  0  0  0  0
    2.8579    0.8250    0.0000 O   0  0  0  0  0  0  0  0  0  0  0  0
    0.7145   -1.2375    0.0000 O   0  0  0  0  0  0  0  0  0  0  0  0
    0.7145    1.2375    0.0000 O   0  0  0  0  0  0  0  0  0  0  0  0
    2.1434    1.2375    0.0000 O   0  0  0  0  0  0  0  0  0  0  0  0
   -0.7145   -0.4125    0.0000 O   0  0  0  0  0  0  0  0  0  0  0  0
    0.0000    0.8250    0.0000 O   0  0  0  0  0  0  0  0  0  0  0  0
    1.4289   -0.8250    0.0000 H   0  0  0  0  0  0  0  0  0  0  0  0
  2  1  1  0  0  0  0
  3  1  1  0  0  0  0
  4  2  1  0  0  0  0
  2  5  1  6  0  0  0
  6  4  1  0  0  0  0
  7  3  2  0  0  0  0
  8  3  1  0  0  0  0
  9  4  2  0  0  0  0
 10  5  2  0  0  0  0
 11  5  1  0  0  0  0
 12  6  1  0  0  0  0
 13  6  2  0  0  0  0
  2 14  1  6  0  0  0
M  END
> <DATABASE_ID>
DB02190

> <DATABASE_NAME>
drugbank

> <SMILES>
[H][C@@](CC(O)=O)(C(O)=O)C(=O)C(O)=O

> <INCHI_IDENTIFIER>
InChI=1S/C6H6O7/c7-3(8)1-2(5(10)11)4(9)6(12)13/h2H,1H2,(H,7,8)(H,10,11)(H,12,13)/t2-/m0/s1

> <INCHI_KEY>
UFSCUAXLTRFIDC-REOHCLBHSA-N

> <FORMULA>
C6H6O7

> <MOLECULAR_WEIGHT>
190.1076

> <EXACT_MASS>
190.011352546

> <JCHEM_ACCEPTOR_COUNT>
7

> <JCHEM_ATOM_COUNT>
19

> <JCHEM_AVERAGE_NEUTRAL_MICROSPECIES_CHARGE>
-2.990544614217453

> <JCHEM_AVERAGE_POLARIZABILITY>
14.837600074327042

> <JCHEM_BIOAVAILABILITY>
1

> <JCHEM_DONOR_COUNT>
3

> <JCHEM_FORMAL_CHARGE>
0

> <JCHEM_GHOSE_FILTER>
0

> <JCHEM_IUPAC>
(2S)-1-oxopropane-1,2,3-tricarboxylic acid

> <ALOGPS_LOGP>
-0.55

> <JCHEM_LOGP>
-0.37458442233333333

> <ALOGPS_LOGS>
-1.41

> <JCHEM_MDDR_LIKE_RULE>
0

> <JCHEM_NEUTRAL_CHARGE>
-3

> <JCHEM_NUMBER_OF_RINGS>
0

> <JCHEM_PHYSIOLOGICAL_CHARGE>
-3

> <JCHEM_PKA>
3.4362963135900357

> <JCHEM_PKA_STRONGEST_ACIDIC>
2.3779370391562313

> <JCHEM_PKA_STRONGEST_BASIC>
-9.959494974326615

> <JCHEM_POLAR_SURFACE_AREA>
128.97

> <JCHEM_REFRACTIVITY>
35.17470000000001

> <JCHEM_ROTATABLE_BOND_COUNT>
5

> <JCHEM_RULE_OF_FIVE>
1

> <ALOGPS_SOLUBILITY>
7.47e+00 g/l

> <JCHEM_TRADITIONAL_IUPAC>
tetrahydrofolic acid

> <JCHEM_VEBER_RULE>
0

> <DRUGBANK_ID>
DB02190

> <SECONDARY_ACCESSION_NUMBERS>
EXPT02465

> <DRUG_GROUPS>
experimental

> <GENERIC_NAME>
(S)-oxalosuccinic acid

$$$$
