
  Mrv0541 05041406392D          

 41 46  0  0  0  0            999 V2000
    4.7812    7.1396    0.0000 C   0  0  0  0  0  0  0  0  0  0  0  0
    0.8838   -2.1500    0.0000 C   0  0  0  0  0  0  0  0  0  0  0  0
    4.0668    5.9021    0.0000 C   0  0  0  0  0  0  0  0  0  0  0  0
    6.9246    7.5521    0.0000 C   0  0  0  0  0  0  0  0  0  0  0  0
    7.6391    6.3146    0.0000 C   0  0  0  0  0  0  0  0  0  0  0  0
    3.3523    2.1896    0.0000 C   0  0  0  0  0  0  0  0  0  0  0  0
    6.2102    7.1396    0.0000 C   0  0  0  0  0  0  0  0  0  0  0  0
    6.9246    5.9021    0.0000 C   0  0  0  0  0  0  0  0  0  0  0  0
    4.0668    5.0771    0.0000 C   0  0  0  0  0  0  0  0  0  0  0  0
    3.3523    1.3646    0.0000 C   0  0  0  0  0  0  0  0  0  0  0  0
    2.6378    0.1271    0.0000 C   0  0  0  0  0  0  0  0  0  0  0  0
    4.7812    2.1896    0.0000 C   0  0  0  0  0  0  0  0  0  0  0  0
    2.6378   -1.5229    0.0000 C   0  0  0  0  0  0  0  0  0  0  0  0
    4.1530   -2.3434    0.0000 C   0  0  0  0  0  0  0  0  0  0  0  0
    4.8204   -1.1874    0.0000 C   0  0  0  0  0  0  0  0  0  0  0  0
    1.1387   -0.0305    0.0000 C   0  0  0  0  0  0  0  0  0  0  0  0
    4.7812    6.3146    0.0000 C   0  0  0  0  0  0  0  0  0  0  0  0
    1.9233   -0.2854    0.0000 C   0  0  0  0  0  0  0  0  0  0  0  0
    4.0668   -1.5229    0.0000 C   0  0  0  0  0  0  0  0  0  0  0  0
    7.6391    7.1396    0.0000 C   0  0  0  0  0  0  0  0  0  0  0  0
    4.0668    2.6021    0.0000 C   0  0  0  0  0  0  0  0  0  0  0  0
    6.2102    6.3146    0.0000 C   0  0  0  0  0  0  0  0  0  0  0  0
    4.7812    4.6646    0.0000 C   0  0  0  0  0  0  0  0  0  0  0  0
    3.3523   -1.1104    0.0000 C   0  0  0  0  0  0  0  0  0  0  0  0
    4.7812    1.3646    0.0000 C   0  0  0  0  0  0  0  0  0  0  0  0
    1.9233   -1.1104    0.0000 C   0  0  0  0  0  0  0  0  0  0  0  0
    4.0668    0.9521    0.0000 C   0  0  0  0  0  0  0  0  0  0  0  0
    3.3523   -0.2854    0.0000 C   0  0  0  0  0  0  0  0  0  0  0  0
    4.7812    3.8396    0.0000 C   0  0  0  0  0  0  0  0  0  0  0  0
    5.4957    5.0771    0.0000 C   0  0  0  0  0  0  0  0  0  0  0  0
    8.3536    7.5521    0.0000 F   0  0  0  0  0  0  0  0  0  0  0  0
    5.4957    0.9521    0.0000 F   0  0  0  0  0  0  0  0  0  0  0  0
    4.9600   -2.5150    0.0000 N   0  0  0  0  0  0  0  0  0  0  0  0
    5.3725   -1.8005    0.0000 N   0  0  0  0  0  0  0  0  0  0  0  0
    0.6538   -0.6979    0.0000 N   0  0  0  0  0  0  0  0  0  0  0  0
    4.0668    3.4271    0.0000 N   0  0  0  0  0  0  0  0  0  0  0  0
    1.1387   -1.3654    0.0000 N   0  0  0  0  0  0  0  0  0  0  0  0
    5.4957    5.9021    0.0000 N   0  0  0  0  0  0  0  0  0  0  0  0
    5.4957    3.4271    0.0000 O   0  0  0  0  0  0  0  0  0  0  0  0
    6.2102    4.6646    0.0000 O   0  0  0  0  0  0  0  0  0  0  0  0
    4.0668    0.1271    0.0000 O   0  0  0  0  0  0  0  0  0  0  0  0
  7  4  1  0  0  0  0
  8  5  2  0  0  0  0
  9  3  1  0  0  0  0
 10  6  2  0  0  0  0
 17  1  1  0  0  0  0
 17  3  2  0  0  0  0
 18 11  2  0  0  0  0
 18 16  1  0  0  0  0
 19 14  2  0  0  0  0
 19 15  1  0  0  0  0
 20  4  2  0  0  0  0
 20  5  1  0  0  0  0
 21  6  1  0  0  0  0
 21 12  2  0  0  0  0
 22  7  2  0  0  0  0
 22  8  1  0  0  0  0
 23  9  2  0  0  0  0
 24 13  1  0  0  0  0
 24 19  1  0  0  0  0
 25 12  1  0  0  0  0
 26 13  2  0  0  0  0
 26 18  1  0  0  0  0
 27 10  1  0  0  0  0
 27 25  2  0  0  0  0
 28 11  1  0  0  0  0
 28 24  2  0  0  0  0
 29 23  1  0  0  0  0
 30 23  1  0  0  0  0
 31 20  1  0  0  0  0
 32 25  1  0  0  0  0
 33 14  1  0  0  0  0
 34 15  2  0  0  0  0
 34 33  1  0  0  0  0
 35 16  2  0  0  0  0
 36 21  1  0  0  0  0
 36 29  1  0  0  0  0
 37  2  1  0  0  0  0
 37 26  1  0  0  0  0
 37 35  1  0  0  0  0
 38 17  1  0  0  0  0
 38 22  1  0  0  0  0
 38 30  1  0  0  0  0
 39 29  2  0  0  0  0
 40 30  2  0  0  0  0
 41 27  1  0  0  0  0
 41 28  1  0  0  0  0
M  END
> <DATABASE_ID>
DB12381

> <DATABASE_NAME>
drugbank

> <SMILES>
CN1N=CC2=CC(OC3=C(F)C=C(NC(=O)C4=CC=C(C)N(C4=O)C4=CC=C(F)C=C4)C=C3)=C(C=C12)C1=CNN=C1

> <INCHI_IDENTIFIER>
InChI=1S/C30H22F2N6O3/c1-17-3-9-23(30(40)38(17)22-7-4-20(31)5-8-22)29(39)36-21-6-10-27(25(32)12-21)41-28-11-18-16-35-37(2)26(18)13-24(28)19-14-33-34-15-19/h3-16H,1-2H3,(H,33,34)(H,36,39)

> <INCHI_KEY>
QHADVLVFMKEIIP-UHFFFAOYSA-N

> <FORMULA>
C30H22F2N6O3

> <MOLECULAR_WEIGHT>
552.5309

> <EXACT_MASS>
552.17214501

> <JCHEM_ACCEPTOR_COUNT>
4

> <JCHEM_ATOM_COUNT>
63

> <JCHEM_AVERAGE_NEUTRAL_MICROSPECIES_CHARGE>
1.8309655854498057e-05

> <JCHEM_AVERAGE_POLARIZABILITY>
55.08976458874893

> <JCHEM_BIOAVAILABILITY>
1

> <JCHEM_DONOR_COUNT>
2

> <JCHEM_FORMAL_CHARGE>
0

> <JCHEM_GHOSE_FILTER>
0

> <JCHEM_IUPAC>
N-(3-fluoro-4-{[1-methyl-6-(1H-pyrazol-4-yl)-1H-indazol-5-yl]oxy}phenyl)-1-(4-fluorophenyl)-6-methyl-2-oxo-1,2-dihydropyridine-3-carboxamide

> <ALOGPS_LOGP>
4.75

> <JCHEM_LOGP>
4.305952459333333

> <ALOGPS_LOGS>
-5.35

> <JCHEM_MDDR_LIKE_RULE>
1

> <JCHEM_NEUTRAL_CHARGE>
0

> <JCHEM_NUMBER_OF_RINGS>
6

> <JCHEM_PHYSIOLOGICAL_CHARGE>
0

> <JCHEM_PKA>
13.804658496816065

> <JCHEM_PKA_STRONGEST_ACIDIC>
13.033833200569482

> <JCHEM_PKA_STRONGEST_BASIC>
2.2945331117947014

> <JCHEM_POLAR_SURFACE_AREA>
105.14

> <JCHEM_REFRACTIVITY>
163.6186

> <JCHEM_ROTATABLE_BOND_COUNT>
6

> <JCHEM_RULE_OF_FIVE>
0

> <ALOGPS_SOLUBILITY>
2.46e-03 g/l

> <JCHEM_TRADITIONAL_IUPAC>
tetrahydrofolic acid

> <JCHEM_VEBER_RULE>
0

> <DRUGBANK_ID>
DB12381

> <DRUG_GROUPS>
investigational

> <GENERIC_NAME>
Merestinib

> <SYNONYMS>
Merestinib

$$$$
