
  Mrv0541 05041411012D          

 11 10  0  0  1  0            999 V2000
    1.9224    1.0164    0.0000 C   0  0  0  0  0  0  0  0  0  0  0  0
   -0.2211    1.4289    0.0000 C   0  0  0  0  0  0  0  0  0  0  0  0
    1.2079    1.4289    0.0000 C   0  0  0  0  0  0  0  0  0  0  0  0
   -0.9355    1.0164    0.0000 C   0  0  1  0  0  0  0  0  0  0  0  0
   -1.6500    1.4289    0.0000 C   0  0  0  0  0  0  0  0  0  0  0  0
   -0.9355    0.1914    0.0000 N   0  0  0  0  0  0  0  0  0  0  0  0
    1.2079    2.2539    0.0000 O   0  0  0  0  0  0  0  0  0  0  0  0
   -2.3645    1.0164    0.0000 O   0  0  0  0  0  0  0  0  0  0  0  0
   -1.6500    2.2539    0.0000 O   0  0  0  0  0  0  0  0  0  0  0  0
    0.4934    1.0164    0.0000 S   0  0  0  0  0  0  0  0  0  0  0  0
   -0.9355    1.8414    0.0000 H   0  0  0  0  0  0  0  0  0  0  0  0
  3  1  1  0  0  0  0
  4  2  1  0  0  0  0
  5  4  1  0  0  0  0
  4  6  1  1  0  0  0
  7  3  2  0  0  0  0
  8  5  2  0  0  0  0
  9  5  1  0  0  0  0
 10  2  1  0  0  0  0
 10  3  1  0  0  0  0
  4 11  1  1  0  0  0
M  END
> <DATABASE_ID>
DB02039

> <DATABASE_NAME>
drugbank

> <SMILES>
[H][C@](N)(CSC(C)=O)C(O)=O

> <INCHI_IDENTIFIER>
InChI=1S/C5H9NO3S/c1-3(7)10-2-4(6)5(8)9/h4H,2,6H2,1H3,(H,8,9)/t4-/m0/s1

> <INCHI_KEY>
XCIRMLHOFVDUDP-BYPYZUCNSA-N

> <FORMULA>
C5H9NO3S

> <MOLECULAR_WEIGHT>
163.195

> <EXACT_MASS>
163.030313849

> <JCHEM_ACCEPTOR_COUNT>
4

> <JCHEM_ATOM_COUNT>
19

> <JCHEM_AVERAGE_NEUTRAL_MICROSPECIES_CHARGE>
-0.04921371901007787

> <JCHEM_AVERAGE_POLARIZABILITY>
15.464824332786046

> <JCHEM_BIOAVAILABILITY>
1

> <JCHEM_DONOR_COUNT>
2

> <JCHEM_FORMAL_CHARGE>
0

> <JCHEM_GHOSE_FILTER>
0

> <JCHEM_IUPAC>
(2R)-3-(acetylsulfanyl)-2-aminopropanoic acid

> <ALOGPS_LOGP>
-2.34

> <JCHEM_LOGP>
-2.9498909988641153

> <ALOGPS_LOGS>
-0.85

> <JCHEM_MDDR_LIKE_RULE>
0

> <JCHEM_NEUTRAL_CHARGE>
0

> <JCHEM_NUMBER_OF_RINGS>
0

> <JCHEM_PHYSIOLOGICAL_CHARGE>
0

> <JCHEM_PKA_STRONGEST_ACIDIC>
1.8870236973926384

> <JCHEM_PKA_STRONGEST_BASIC>
8.285940250280538

> <JCHEM_POLAR_SURFACE_AREA>
80.39

> <JCHEM_REFRACTIVITY>
37.6914

> <JCHEM_ROTATABLE_BOND_COUNT>
4

> <JCHEM_RULE_OF_FIVE>
1

> <ALOGPS_SOLUBILITY>
2.32e+01 g/l

> <JCHEM_TRADITIONAL_IUPAC>
tetrahydrofolic acid

> <JCHEM_VEBER_RULE>
0

> <DRUGBANK_ID>
DB02039

> <SECONDARY_ACCESSION_NUMBERS>
EXPT02873

> <DRUG_GROUPS>
experimental

> <GENERIC_NAME>
S-Acetyl-Cysteine

$$$$
