
  Mrv0541 02231216362D          

 24 23  0  0  0  0            999 V2000
    9.7086    6.4302    0.0000 C   0  0  0  0  0  0  0  0  0  0  0  0
   10.4230    6.8427    0.0000 C   0  0  0  0  0  0  0  0  0  0  0  0
   11.1375    6.4302    0.0000 C   0  0  0  0  0  0  0  0  0  0  0  0
   11.8520    6.8427    0.0000 C   0  0  0  0  0  0  0  0  0  0  0  0
   12.5664    6.4302    0.0000 C   0  0  0  0  0  0  0  0  0  0  0  0
   13.2809    6.8427    0.0000 C   0  0  0  0  0  0  0  0  0  0  0  0
   13.9954    6.4302    0.0000 C   0  0  0  0  0  0  0  0  0  0  0  0
   14.7099    6.8427    0.0000 C   0  0  0  0  0  0  0  0  0  0  0  0
   15.4243    6.4302    0.0000 C   0  0  0  0  0  0  0  0  0  0  0  0
   16.1388    6.8427    0.0000 C   0  0  0  0  0  0  0  0  0  0  0  0
   16.8533    6.4302    0.0000 C   0  0  0  0  0  0  0  0  0  0  0  0
   17.5677    6.8427    0.0000 C   0  0  0  0  0  0  0  0  0  0  0  0
   18.2822    6.4302    0.0000 C   0  0  0  0  0  0  0  0  0  0  0  0
   18.9967    6.8427    0.0000 C   0  0  0  0  0  0  0  0  0  0  0  0
   19.7112    6.4302    0.0000 C   0  0  0  0  0  0  0  0  0  0  0  0
   20.4256    6.8427    0.0000 C   0  0  0  0  0  0  0  0  0  0  0  0
   20.4256    7.6677    0.0000 O   0  0  0  0  0  0  0  0  0  0  0  0
   21.1401    6.4302    0.0000 S   0  0  0  0  0  0  0  0  0  0  0  0
   21.8546    6.8427    0.0000 C   0  0  0  0  0  0  0  0  0  0  0  0
   22.5690    6.4302    0.0000 C   0  0  0  0  0  0  0  0  0  0  0  0
   23.2835    6.8427    0.0000 N   0  0  0  0  0  0  0  0  0  0  0  0
   23.9980    6.4302    0.0000 C   0  0  0  0  0  0  0  0  0  0  0  0
   24.7124    6.8427    0.0000 C   0  0  0  0  0  0  0  0  0  0  0  0
   23.9980    5.6052    0.0000 O   0  0  0  0  0  0  0  0  0  0  0  0
  1  2  1  0  0  0  0
  2  3  1  0  0  0  0
  3  4  1  0  0  0  0
  4  5  1  0  0  0  0
  5  6  1  0  0  0  0
  6  7  1  0  0  0  0
  7  8  1  0  0  0  0
  8  9  1  0  0  0  0
  9 10  1  0  0  0  0
 10 11  1  0  0  0  0
 11 12  1  0  0  0  0
 12 13  1  0  0  0  0
 13 14  1  0  0  0  0
 14 15  1  0  0  0  0
 15 16  1  0  0  0  0
 16 17  2  0  0  0  0
 16 18  1  0  0  0  0
 18 19  1  0  0  0  0
 19 20  1  0  0  0  0
 20 21  1  0  0  0  0
 21 22  1  0  0  0  0
 22 23  1  0  0  0  0
 22 24  2  0  0  0  0
M  END
> <DATABASE_ID>
DB02990

> <DATABASE_NAME>
drugbank

> <SMILES>
CCCCCCCCCCCCCCCC(=O)SCCNC(C)=O

> <INCHI_IDENTIFIER>
InChI=1S/C20H39NO2S/c1-3-4-5-6-7-8-9-10-11-12-13-14-15-16-20(23)24-18-17-21-19(2)22/h3-18H2,1-2H3,(H,21,22)

> <INCHI_KEY>
GDVZALUOXPTSHD-UHFFFAOYSA-N

> <FORMULA>
C20H39NO2S

> <MOLECULAR_WEIGHT>
357.594

> <EXACT_MASS>
357.270150187

> <JCHEM_ACCEPTOR_COUNT>
2

> <JCHEM_ATOM_COUNT>
63

> <JCHEM_AVERAGE_NEUTRAL_MICROSPECIES_CHARGE>
9.366572359509427e-10

> <JCHEM_AVERAGE_POLARIZABILITY>
46.409139298762426

> <JCHEM_BIOAVAILABILITY>
0

> <JCHEM_DONOR_COUNT>
1

> <JCHEM_FORMAL_CHARGE>
0

> <JCHEM_GHOSE_FILTER>
0

> <JCHEM_IUPAC>
N-[2-(hexadecanoylsulfanyl)ethyl]acetamide

> <ALOGPS_LOGP>
7.27

> <JCHEM_LOGP>
5.919283710666666

> <ALOGPS_LOGS>
-6.22

> <JCHEM_MDDR_LIKE_RULE>
0

> <JCHEM_NEUTRAL_CHARGE>
0

> <JCHEM_NUMBER_OF_RINGS>
0

> <JCHEM_PHYSIOLOGICAL_CHARGE>
0

> <JCHEM_PKA_STRONGEST_ACIDIC>
15.778883592986949

> <JCHEM_PKA_STRONGEST_BASIC>
-1.5849258516542704

> <JCHEM_POLAR_SURFACE_AREA>
46.17

> <JCHEM_REFRACTIVITY>
105.74519999999997

> <JCHEM_ROTATABLE_BOND_COUNT>
18

> <JCHEM_RULE_OF_FIVE>
0

> <ALOGPS_SOLUBILITY>
2.17e-04 g/l

> <JCHEM_TRADITIONAL_IUPAC>
biotin

> <JCHEM_VEBER_RULE>
0

> <DRUGBANK_ID>
DB02990

> <SECONDARY_ACCESSION_NUMBERS>
EXPT03058

> <DRUG_GROUPS>
experimental

> <GENERIC_NAME>
S-(2-Acetamidoethyl) hexadecanethioate

> <SYNONYMS>
C16-fatty-acyl-substrate-mimic; S-palmitoyl-N-acetylcysteamine

$$$$
