
  Mrv0541 06241410042D          

 27 29  0  0  0  0            999 V2000
   -6.4302    3.7125    0.0000 C   0  0  0  0  0  0  0  0  0  0  0  0
    2.1434    3.7125    0.0000 C   0  0  0  0  0  0  0  0  0  0  0  0
   -2.8578    0.0000    0.0000 C   0  0  0  0  0  0  0  0  0  0  0  0
   -2.1434   -0.4125    0.0000 C   0  0  0  0  0  0  0  0  0  0  0  0
   -2.8578    0.8250    0.0000 C   0  0  0  0  0  0  0  0  0  0  0  0
   -2.8578    3.3000    0.0000 C   0  0  0  0  0  0  0  0  0  0  0  0
   -3.5723    2.0625    0.0000 C   0  0  0  0  0  0  0  0  0  0  0  0
   -0.7144    2.0625    0.0000 C   0  0  0  0  0  0  0  0  0  0  0  0
   -1.4289    3.3000    0.0000 C   0  0  0  0  0  0  0  0  0  0  0  0
   -3.5723    3.7125    0.0000 C   0  0  0  0  0  0  0  0  0  0  0  0
   -4.2868    2.4750    0.0000 C   0  0  0  0  0  0  0  0  0  0  0  0
    0.0000    2.4750    0.0000 C   0  0  0  0  0  0  0  0  0  0  0  0
   -0.7144    3.7125    0.0000 C   0  0  0  0  0  0  0  0  0  0  0  0
   -1.4289    0.0000    0.0000 C   0  0  0  0  0  0  0  0  0  0  0  0
   -5.7157    3.3000    0.0000 C   0  0  0  0  0  0  0  0  0  0  0  0
    1.4289    3.3000    0.0000 C   0  0  0  0  0  0  0  0  0  0  0  0
   -2.8578    2.4750    0.0000 C   0  0  0  0  0  0  0  0  0  0  0  0
   -1.4289    2.4750    0.0000 C   0  0  0  0  0  0  0  0  0  0  0  0
   -4.2868    3.3000    0.0000 C   0  0  0  0  0  0  0  0  0  0  0  0
    0.0000    3.3000    0.0000 C   0  0  0  0  0  0  0  0  0  0  0  0
   -2.1434    1.2375    0.0000 C   0  0  0  0  0  0  0  0  0  0  0  0
   -2.1434    2.0625    0.0000 C   0  0  0  0  0  0  0  0  0  0  0  0
   -1.4289    0.8250    0.0000 N   0  0  0  0  0  0  0  0  0  0  0  0
   -5.7157    2.4750    0.0000 O   0  0  0  0  0  0  0  0  0  0  0  0
    1.4289    2.4750    0.0000 O   0  0  0  0  0  0  0  0  0  0  0  0
   -5.0012    3.7125    0.0000 O   0  0  0  0  0  0  0  0  0  0  0  0
    0.7144    3.7125    0.0000 O   0  0  0  0  0  0  0  0  0  0  0  0
  4  3  2  0  0  0  0
  5  3  1  0  0  0  0
 10  6  1  0  0  0  0
 11  7  2  0  0  0  0
 12  8  1  0  0  0  0
 13  9  2  0  0  0  0
 14  4  1  0  0  0  0
 15  1  1  0  0  0  0
 16  2  1  0  0  0  0
 17  6  2  0  0  0  0
 17  7  1  0  0  0  0
 18  8  2  0  0  0  0
 18  9  1  0  0  0  0
 19 10  2  0  0  0  0
 19 11  1  0  0  0  0
 20 12  2  0  0  0  0
 20 13  1  0  0  0  0
 21  5  2  0  0  0  0
 22 17  1  0  0  0  0
 22 18  1  0  0  0  0
 22 21  1  0  0  0  0
 23 14  2  0  0  0  0
 23 21  1  0  0  0  0
 24 15  2  0  0  0  0
 25 16  2  0  0  0  0
 26 15  1  0  0  0  0
 26 19  1  0  0  0  0
 27 16  1  0  0  0  0
 27 20  1  0  0  0  0
M  END
> <DATABASE_ID>
DB09020

> <DATABASE_NAME>
drugbank

> <SMILES>
CC(=O)OC1=CC=C(C=C1)C(C1=CC=C(OC(C)=O)C=C1)C1=CC=CC=N1

> <INCHI_IDENTIFIER>
InChI=1S/C22H19NO4/c1-15(24)26-19-10-6-17(7-11-19)22(21-5-3-4-14-23-21)18-8-12-20(13-9-18)27-16(2)25/h3-14,22H,1-2H3

> <INCHI_KEY>
KHOITXIGCFIULA-UHFFFAOYSA-N

> <FORMULA>
C22H19NO4

> <MOLECULAR_WEIGHT>
361.3906

> <EXACT_MASS>
361.131408101

> <JCHEM_ACCEPTOR_COUNT>
3

> <JCHEM_ATOM_COUNT>
46

> <JCHEM_AVERAGE_NEUTRAL_MICROSPECIES_CHARGE>
0.001204621383279969

> <JCHEM_AVERAGE_POLARIZABILITY>
38.48347346301067

> <JCHEM_BIOAVAILABILITY>
1

> <JCHEM_DONOR_COUNT>
0

> <JCHEM_FORMAL_CHARGE>
0

> <JCHEM_GHOSE_FILTER>
1

> <JCHEM_IUPAC>
4-{[4-(acetyloxy)phenyl](pyridin-2-yl)methyl}phenyl acetate

> <ALOGPS_LOGP>
4.71

> <JCHEM_LOGP>
3.612595577333333

> <ALOGPS_LOGS>
-5.46

> <JCHEM_MDDR_LIKE_RULE>
1

> <JCHEM_NEUTRAL_CHARGE>
0

> <JCHEM_NUMBER_OF_RINGS>
3

> <JCHEM_PHYSIOLOGICAL_CHARGE>
0

> <JCHEM_PKA_STRONGEST_BASIC>
4.0813740438639865

> <JCHEM_POLAR_SURFACE_AREA>
65.49000000000001

> <JCHEM_REFRACTIVITY>
100.1488

> <JCHEM_ROTATABLE_BOND_COUNT>
7

> <JCHEM_RULE_OF_FIVE>
1

> <ALOGPS_SOLUBILITY>
1.27e-03 g/l

> <JCHEM_TRADITIONAL_IUPAC>
biotin

> <JCHEM_VEBER_RULE>
0

> <DRUGBANK_ID>
DB09020

> <DRUG_GROUPS>
approved

> <GENERIC_NAME>
Bisacodyl

> <SYNONYMS>
Bisacodilo; Bisacodyl; Bisacodyle; Bisacodylum; Phenol, 4,4'-(2-pyridinylmethylene)bis-, diacetate (ester)

> <PRODUCTS>
Ag-bisacodyl EC; Alophen; Alophen Tablets; Amb-bisacodyl; Apo-bisacodyl; Apo-bisacodyl Sup 10mg; Avedana Gentle Laxative; BET-R-PREP Bisacodyl; BISAC-10 Bisacodyl Stimulant Laxative; Becolax Tablets; Bekunis Dragees; Best Choice Bisacodyl Laxative; Bi-peglyte; Bicholate Lilas; Bisac-Evac; Bisac-evac; Bisacody Enteric Coated; Bisacodyl; Bisacodyl 10 mg; Bisacodyl 5 mg; Bisacodyl 5mg; Bisacodyl Ect 5mg; Bisacodyl Enteric; Bisacodyl Enteric Coated; Bisacodyl Laxative; Bisacodyl Laxative Enteric Coated; Bisacodyl Stimulant Laxative; Bisacodyl Suppository; Bisacodyl Suppository 5 mg; Bisacodyl Tab 5mg; Bisacodyl Tablets; Bisacodyl Tablets 5mg; Bisacodyl Tablets USP 5 mg; Bisacodyl Tablets, USP 5mg; Bisacodyl-odan; Bisacodyl-odan Suppositories 10 mg; Bisacodyl-odan Suppositories 5 mg; Bisacolax; Biscolax; Biscolax Laxative; C Lax Laxative; C-Lax Laxative; CRH Medsense Bisacodyl Stimulant Laxative; CVS Gentle Laxative; Carter's Little Pills; Carters Little Pills Sodium-Free; Codulax Tablets; Conlax; Correctol; Correctol Laxative - Ect 5mg; Delayed Release Laxative Bisacodyl; Discount Drugmart Gentle Laxative; Dollar General Gentle Laxative; Dulcolax; Dulcolax Laxative; Dulcolax Micro Enema 10mg/5ml; Dulcolax Pink; Dulcolax Pink Stimulant Laxative; Dulcolax Simulant Laxative; Dulcolax Stimulant Laxative; Dulcolax for Women; Dyrax-Q Tab; EZ2go; EZ2go Stimu-Lax; Enteric Coated Stimulant Laxative; Equaline Laxative; Extra Gentle Laxative; Feen-A-mint - Ect 5mg; Fleet; GaviLyte-H and Bisacodyl; Gentlax; Gentlax S; Gentle Laxative; Gentle Laxative Enteric Coated; Gentle Laxative Stimulant Laxative; Gentle Laxative WOMENS; Gentle Laxative Womens; Gentle Laxative for Women Stimulant Laxative; Gentle Laxative womens; Gentle Overnight Laxative; Gentle and Effective Laxative Enteric Coated; Gentle laxative; Good Neighbor Pharmacy Gentle Laxative; HEB Gentle Laxative; HalfLytely and Bisacodyl; HalfLytely and Bisacodyl Bowel Prep with Flavor Packs; Health Sense Ducodyl; HealthMart Gentle Laxative; Jamp Bisacodyl E.c; Jamp-bisacodyl; Lax-A Go; Laxative; Laxative Enteric Coated; Laxative Gentle; Laxative Tabelts; Laxative Women; Laxative Womens; Laxative dye free; Laxative for Women; Laxcodyl; Leader Gentle Laxative; Leader Womens Laxative; Magic Bullet Laxative Suppository; Medexus Bullet; Medique Medi-lax; Medique Medi-lax Enteric Coated; Meijer Gentle Laxative; New Correct; OneLAX; P Lax Dr; PCP 100 Kit; PMS-bisacodyl; Poly-Prep; Premier Value Bisacodyl Laxative; Publix Stimulant Laxative; Publix Women Laxative; Quality Choice Gentle Laxative; Ratio-bisacodyl; Rite Aid fast relief laxative; Royvac Bowel Evacuant Kit; Rugby Gentle Laxative; SIMPEX Bisacodyl laxative; Silver Bullet Suppository; Soflax EX 10; Soflax EX 5; Soflax EX Micro-enema; Stimulant Laxative; Stimulant Laxative Enteric Coated; Stratuscare Bisacodyl; Sunmark womans laxative; The Magic Bullet; The Medicine Shoppe Gentle Laxative; TopCare Gentle Laxative; TopCare Laxative; Unit Dose Bisacodyl; Up and Up Gentle Laxative; Up and Up womens laxative; Walgreens Gentle Laxative; Woman's Laxative; Womans Laxative; Women's Laxative; Womens Gentle Laxative; Womens Laxative; Womens Laxative Enteric Coated; Womens gentle laxative; Womens laxative; Y Lax Dr

> <INTERNATIONAL_BRANDS>
Bisalax; Bolax; Boots Constipation Relief; Derderance; Dulco-Lax; Dulcolaxo; Fleet Laxative; Florisan; Laxitab; Reliable Gentle Laxative Tablets; Spirolax; Verecolene C.M.

$$$$
