
  Mrv0541 04191212172D          

 37 40  0  0  1  0            999 V2000
    9.5637   -6.0391    0.0000 C   0  0  0  0  0  0  0  0  0  0  0  0
    9.5637   -5.2141    0.0000 C   0  0  0  0  0  0  0  0  0  0  0  0
    8.8539   -4.8079    0.0000 S   0  0  0  0  0  0  0  0  0  0  0  0
    8.8539   -6.4516    0.0000 C   0  0  0  0  0  0  0  0  0  0  0  0
    8.1390   -6.0391    0.0000 N   0  0  0  0  0  0  0  0  0  0  0  0
    8.1390   -5.2141    0.0000 C   0  0  1  0  0  0  0  0  0  0  0  0
    7.3202   -5.2141    0.0000 C   0  0  1  0  0  0  0  0  0  0  0  0
    7.3202   -6.0391    0.0000 C   0  0  0  0  0  0  0  0  0  0  0  0
    8.8539   -7.2765    0.0000 C   0  0  0  0  0  0  0  0  0  0  0  0
    8.1390   -7.6894    0.0000 O   0  0  0  0  0  0  0  0  0  0  0  0
    9.5637   -7.6894    0.0000 O   0  0  0  0  0  0  0  0  0  0  0  0
    6.6052   -6.4516    0.0000 O   0  0  0  0  0  0  0  0  0  0  0  0
    6.6052   -4.8079    0.0000 N   0  0  0  0  0  0  0  0  0  0  0  0
    7.3202   -4.3953    0.0000 O   0  0  0  0  0  0  0  0  0  0  0  0
    6.6053   -3.9829    0.0000 C   0  0  0  0  0  0  0  0  0  0  0  0
    5.8899   -5.2141    0.0000 C   0  0  0  0  0  0  0  0  0  0  0  0
    5.1753   -4.8079    0.0000 C   0  0  0  0  0  0  0  0  0  0  0  0
    5.8899   -6.0391    0.0000 O   0  0  0  0  0  0  0  0  0  0  0  0
    4.9605   -4.0104    0.0000 S   0  0  0  0  0  0  0  0  0  0  0  0
    4.1634   -4.2249    0.0000 C   0  0  0  0  0  0  0  0  0  0  0  0
    4.3775   -5.0223    0.0000 S   0  0  0  0  0  0  0  0  0  0  0  0
    3.4484   -3.8124    0.0000 C   0  0  0  0  0  0  0  0  0  0  0  0
    3.4484   -2.9874    0.0000 C   0  0  0  0  0  0  0  0  0  0  0  0
    2.7334   -4.2249    0.0000 C   0  0  0  0  0  0  0  0  0  0  0  0
    2.7334   -5.0498    0.0000 N   0  0  0  0  0  0  0  0  0  0  0  0
    2.0181   -3.8124    0.0000 O   0  0  0  0  0  0  0  0  0  0  0  0
    4.1634   -2.5746    0.0000 O   0  0  0  0  0  0  0  0  0  0  0  0
    2.7334   -2.5746    0.0000 O   0  0  0  0  0  0  0  0  0  0  0  0
   10.2784   -6.4516    0.0000 C   0  0  0  0  0  0  0  0  0  0  0  0
   10.9934   -6.0391    0.0000 S   0  0  0  0  0  0  0  0  0  0  0  0
   10.9942   -5.2137    0.0000 C   0  0  0  0  0  0  0  0  0  0  0  0
   10.3288   -4.7273    0.0000 N   0  0  0  0  0  0  0  0  0  0  0  0
   10.5860   -3.9418    0.0000 N   0  0  0  0  0  0  0  0  0  0  0  0
   11.4115   -3.9426    0.0000 N   0  0  0  0  0  0  0  0  0  0  0  0
   11.6618   -4.7294    0.0000 N   0  0  0  0  0  0  0  0  0  0  0  0
   12.4472   -4.9862    0.0000 C   0  0  0  0  0  0  0  0  0  0  0  0
    8.1390   -4.3954    0.0000 H   0  0  0  0  0  0  0  0  0  0  0  0
  8  5  1  0  0  0  0
 16 18  2  0  0  0  0
 17 19  1  0  0  0  0
  3  6  1  0  0  0  0
  5  4  1  0  0  0  0
  5  6  1  0  0  0  0
 19 20  1  0  0  0  0
 20 21  1  0  0  0  0
 21 17  1  0  0  0  0
  9 10  1  0  0  0  0
 20 22  2  0  0  0  0
  9 11  2  0  0  0  0
 22 23  1  0  0  0  0
  4  9  1  0  0  0  0
 22 24  1  0  0  0  0
 24 25  1  0  0  0  0
  8 12  2  0  0  0  0
 24 26  2  0  0  0  0
  1  2  1  0  0  0  0
  7 13  1  1  0  0  0
 23 27  1  0  0  0  0
 23 28  2  0  0  0  0
  1  4  2  0  0  0  0
  1 29  1  0  0  0  0
  7 14  1  0  0  0  0
 29 30  1  0  0  0  0
  2  3  1  0  0  0  0
 30 31  1  0  0  0  0
 31 32  2  0  0  0  0
 14 15  1  0  0  0  0
  6  7  1  0  0  0  0
 13 16  1  0  0  0  0
  7  8  1  0  0  0  0
 32 33  1  0  0  0  0
 33 34  2  0  0  0  0
 34 35  1  0  0  0  0
 35 31  1  0  0  0  0
 16 17  1  0  0  0  0
 35 36  1  0  0  0  0
  6 37  1  6  0  0  0
M  END
> <DATABASE_ID>
DB01330

> <DATABASE_NAME>
drugbank

> <SMILES>
[H][C@]12SCC(CSC3=NN=NN3C)=C(N1C(=O)[C@]2(NC(=O)C1SC(S1)=C(C(N)=O)C(O)=O)OC)C(O)=O

> <INCHI_IDENTIFIER>
InChI=1S/C17H17N7O8S4/c1-23-16(20-21-22-23)34-4-5-3-33-15-17(32-2,14(31)24(15)7(5)11(29)30)19-9(26)13-35-12(36-13)6(8(18)25)10(27)28/h13,15H,3-4H2,1-2H3,(H2,18,25)(H,19,26)(H,27,28)(H,29,30)/b12-6-/t13?,15-,17+/m1/s1

> <INCHI_KEY>
SRZNHPXWXCNNDU-IXOPCIAXSA-N

> <FORMULA>
C17H17N7O8S4

> <MOLECULAR_WEIGHT>
575.619

> <EXACT_MASS>
575.002143315

> <JCHEM_ACCEPTOR_COUNT>
11

> <JCHEM_ATOM_COUNT>
53

> <JCHEM_AVERAGE_NEUTRAL_MICROSPECIES_CHARGE>
-1.9994421062811658

> <JCHEM_AVERAGE_POLARIZABILITY>
52.620876894784125

> <JCHEM_BIOAVAILABILITY>
0

> <JCHEM_DONOR_COUNT>
4

> <JCHEM_FORMAL_CHARGE>
0

> <JCHEM_GHOSE_FILTER>
0

> <JCHEM_IUPAC>
(6R,7S)-7-{4-[carbamoyl(carboxy)methylidene]-1,3-dithietane-2-amido}-7-methoxy-3-{[(1-methyl-1H-1,2,3,4-tetrazol-5-yl)sulfanyl]methyl}-8-oxo-5-thia-1-azabicyclo[4.2.0]oct-2-ene-2-carboxylic acid

> <ALOGPS_LOGP>
-0.65

> <JCHEM_LOGP>
-0.37600145566666593

> <ALOGPS_LOGS>
-3.04

> <JCHEM_MDDR_LIKE_RULE>
1

> <JCHEM_NEUTRAL_CHARGE>
-2

> <JCHEM_NUMBER_OF_RINGS>
4

> <JCHEM_PHYSIOLOGICAL_CHARGE>
-2

> <JCHEM_PKA>
3.8698869764555353

> <JCHEM_PKA_STRONGEST_ACIDIC>
3.0347234203514275

> <JCHEM_PKA_STRONGEST_BASIC>
-1.4965001847922743

> <JCHEM_POLAR_SURFACE_AREA>
219.92999999999995

> <JCHEM_REFRACTIVITY>
153.55229999999997

> <JCHEM_ROTATABLE_BOND_COUNT>
9

> <JCHEM_RULE_OF_FIVE>
0

> <ALOGPS_SOLUBILITY>
5.21e-01 g/l

> <JCHEM_TRADITIONAL_IUPAC>
tetrahydrofolic acid

> <JCHEM_VEBER_RULE>
0

> <DRUGBANK_ID>
DB01330

> <DRUG_GROUPS>
approved

> <GENERIC_NAME>
Cefotetan

> <SYNONYMS>
(6R,7S)-7-(4-(carbamoylcarboxymethylene)-1,3-dithiethane-2-carboxamido)-7-methoxy-3-(((1-methyl-1H-tetrazol-5- yl)thio)methyl)-8-oxo-5-thia-1-azabicyclo(4.2.0)oct-2-ene-2- carboxylic acid; Cefotetan; Cefotetanum

> <PRODUCTS>
Cefotan; Cefotan Inj 2gm/vial; Cefotan Injection - 1g; Cefotan Injection - 2 G; Cefotetan; Cefotetan and Dextrose

> <SALTS>
Cefotetan disodium

$$$$
