
  Mrv0541 02231216202D          

  9  8  0  0  0  0            999 V2000
   -0.1914    0.7145    0.0000 O   0  0  0  0  0  0  0  0  0  0  0  0
    0.5230    1.1270    0.0000 C   0  0  0  0  0  0  0  0  0  0  0  0
    0.5230    1.9520    0.0000 O   0  0  0  0  0  0  0  0  0  0  0  0
    1.2375    0.7145    0.0000 C   0  0  0  0  0  0  0  0  0  0  0  0
    1.2375   -0.1105    0.0000 O   0  0  0  0  0  0  0  0  0  0  0  0
    1.9520    1.1270    0.0000 C   0  0  0  0  0  0  0  0  0  0  0  0
    2.6664    0.7145    0.0000 C   0  0  0  0  0  0  0  0  0  0  0  0
    3.3809    1.1270    0.0000 O   0  5  0  0  0  0  0  0  0  0  0  0
    2.6664   -0.1105    0.0000 O   0  0  0  0  0  0  0  0  0  0  0  0
  1  2  1  0  0  0  0
  2  3  2  0  0  0  0
  2  4  1  0  0  0  0
  4  5  2  0  0  0  0
  4  6  1  0  0  0  0
  6  7  1  0  0  0  0
  7  8  1  0  0  0  0
  7  9  2  0  0  0  0
M  CHG  1   8  -1
M  END
> <DATABASE_ID>
DB02637

> <DATABASE_NAME>
drugbank

> <SMILES>
OC(=O)C(=O)CC([O-])=O

> <INCHI_IDENTIFIER>
InChI=1S/C4H4O5/c5-2(4(8)9)1-3(6)7/h1H2,(H,6,7)(H,8,9)/p-1

> <INCHI_KEY>
KHPXUQMNIQBQEV-UHFFFAOYSA-M

> <FORMULA>
C4H3O5

> <MOLECULAR_WEIGHT>
131.0636

> <EXACT_MASS>
130.998048206

> <JCHEM_ACCEPTOR_COUNT>
5

> <JCHEM_ATOM_COUNT>
12

> <JCHEM_AVERAGE_NEUTRAL_MICROSPECIES_CHARGE>
-1.999643387405733

> <JCHEM_AVERAGE_POLARIZABILITY>
9.675973349230333

> <JCHEM_BIOAVAILABILITY>
1

> <JCHEM_DONOR_COUNT>
1

> <JCHEM_FORMAL_CHARGE>
-1

> <JCHEM_GHOSE_FILTER>
0

> <JCHEM_IUPAC>
3-carboxy-3-oxopropanoate

> <ALOGPS_LOGP>
-0.53

> <JCHEM_LOGP>
-0.0418976006666667

> <ALOGPS_LOGS>
-0.44

> <JCHEM_MDDR_LIKE_RULE>
0

> <JCHEM_NEUTRAL_CHARGE>
-2

> <JCHEM_NUMBER_OF_RINGS>
0

> <JCHEM_PHYSIOLOGICAL_CHARGE>
-2

> <JCHEM_PKA>
3.5760342518737325

> <JCHEM_PKA_STRONGEST_ACIDIC>
2.4098314603350404

> <JCHEM_PKA_STRONGEST_BASIC>
-9.874004724451435

> <JCHEM_POLAR_SURFACE_AREA>
94.5

> <JCHEM_REFRACTIVITY>
35.1709

> <JCHEM_ROTATABLE_BOND_COUNT>
3

> <JCHEM_RULE_OF_FIVE>
1

> <ALOGPS_SOLUBILITY>
5.42e+01 g/l

> <JCHEM_TRADITIONAL_IUPAC>
tetrahydrofolic acid

> <JCHEM_VEBER_RULE>
0

> <DRUGBANK_ID>
DB02637

> <SECONDARY_ACCESSION_NUMBERS>
EXPT02406

> <DRUG_GROUPS>
experimental

> <GENERIC_NAME>
Oxaloacetate Ion

$$$$
