
  Mrv0541 02231216092D          

 10 10  0  0  0  0            999 V2000
    0.7145   -1.2375    0.0000 N   0  0  0  0  0  0  0  0  0  0  0  0
    0.7145   -0.4125    0.0000 C   0  0  0  0  0  0  0  0  0  0  0  0
    0.0000    0.0000    0.0000 C   0  0  0  0  0  0  0  0  0  0  0  0
    0.0000    0.8250    0.0000 C   0  0  0  0  0  0  0  0  0  0  0  0
    0.7145    1.2375    0.0000 C   0  0  0  0  0  0  0  0  0  0  0  0
    1.4289    0.8250    0.0000 C   0  0  0  0  0  0  0  0  0  0  0  0
    1.4289    0.0000    0.0000 C   0  0  0  0  0  0  0  0  0  0  0  0
    0.7145    2.0625    0.0000 C   0  0  0  0  0  0  0  0  0  0  0  0
    0.0000    2.4750    0.0000 O   0  0  0  0  0  0  0  0  0  0  0  0
    1.4289    2.4750    0.0000 O   0  0  0  0  0  0  0  0  0  0  0  0
  1  2  1  0  0  0  0
  2  3  2  0  0  0  0
  3  4  1  0  0  0  0
  4  5  2  0  0  0  0
  5  6  1  0  0  0  0
  6  7  2  0  0  0  0
  2  7  1  0  0  0  0
  5  8  1  0  0  0  0
  8  9  1  0  0  0  0
  8 10  2  0  0  0  0
M  END
> <DATABASE_ID>
DB02362

> <DATABASE_NAME>
drugbank

> <SMILES>
NC1=CC=C(C=C1)C(O)=O

> <INCHI_IDENTIFIER>
InChI=1S/C7H7NO2/c8-6-3-1-5(2-4-6)7(9)10/h1-4H,8H2,(H,9,10)

> <INCHI_KEY>
ALYNCZNDIQEVRV-UHFFFAOYSA-N

> <FORMULA>
C7H7NO2

> <MOLECULAR_WEIGHT>
137.136

> <EXACT_MASS>
137.047678473

> <JCHEM_ACCEPTOR_COUNT>
3

> <JCHEM_ATOM_COUNT>
17

> <JCHEM_AVERAGE_NEUTRAL_MICROSPECIES_CHARGE>
-0.9944344771946184

> <JCHEM_AVERAGE_POLARIZABILITY>
13.44348919384024

> <JCHEM_BIOAVAILABILITY>
1

> <JCHEM_DONOR_COUNT>
2

> <JCHEM_FORMAL_CHARGE>
0

> <JCHEM_GHOSE_FILTER>
0

> <JCHEM_IUPAC>
4-aminobenzoic acid

> <ALOGPS_LOGP>
0.78

> <JCHEM_LOGP>
0.8019027699999998

> <ALOGPS_LOGS>
-1.49

> <JCHEM_MDDR_LIKE_RULE>
0

> <JCHEM_NEUTRAL_CHARGE>
-1

> <JCHEM_NUMBER_OF_RINGS>
1

> <JCHEM_PHYSIOLOGICAL_CHARGE>
-1

> <JCHEM_PKA_STRONGEST_ACIDIC>
4.769893805764377

> <JCHEM_PKA_STRONGEST_BASIC>
2.6912772144052126

> <JCHEM_POLAR_SURFACE_AREA>
63.32

> <JCHEM_REFRACTIVITY>
38.0146

> <JCHEM_ROTATABLE_BOND_COUNT>
1

> <JCHEM_RULE_OF_FIVE>
1

> <ALOGPS_SOLUBILITY>
4.41e+00 g/l

> <JCHEM_TRADITIONAL_IUPAC>
biotin

> <JCHEM_VEBER_RULE>
0

> <DRUGBANK_ID>
DB02362

> <SECONDARY_ACCESSION_NUMBERS>
EXPT02486

> <DRUG_GROUPS>
approved; experimental

> <GENERIC_NAME>
Aminobenzoic acid

> <SYNONYMS>
1-Amino-4-carboxybenzene; 4-aminobenzoic acid; 4-Carboxyaniline; Aminobenzoic acid; p-Aminobenzoic acid; p-Carboxyaniline; p-Carboxyphenylamine; para-Aminobenzoic acid

> <PRODUCTS>
Neutral C + Coenzyme Q10 Plus Vitamins & Minerals; Potaba Cap 0.5gm; Potaba Pwr 2gm/pck; Potaba Tab 0.5gm; Presun 15 Lotion

> <INTERNATIONAL_BRANDS>
Pabagel; Pabalate; Pabanol

> <SALTS>
Aminobenzoate potassium; Aminobenzoate sodium

$$$$
