
  Mrv0541 05041413182D          

  1  0  0  0  0  0            999 V2000
    0.0000    0.0000    0.0000 Xe  0  0  0  0  0  0  0  0  0  0  0  0
M  END
> <DATABASE_ID>
DB13453

> <DATABASE_NAME>
drugbank

> <SMILES>
[Xe]

> <INCHI_IDENTIFIER>
InChI=1S/Xe

> <INCHI_KEY>
FHNFHKCVQCLJFQ-UHFFFAOYSA-N

> <FORMULA>
Xe

> <MOLECULAR_WEIGHT>
131.293

> <EXACT_MASS>
131.904154457

> <JCHEM_ACCEPTOR_COUNT>
0

> <JCHEM_ATOM_COUNT>
1

> <JCHEM_AVERAGE_NEUTRAL_MICROSPECIES_CHARGE>
0.0

> <JCHEM_AVERAGE_POLARIZABILITY>
1.7784

> <JCHEM_BIOAVAILABILITY>
1

> <JCHEM_DONOR_COUNT>
0

> <JCHEM_FORMAL_CHARGE>
0

> <JCHEM_GHOSE_FILTER>
0

> <JCHEM_IUPAC>
xenon

> <JCHEM_LOGP>
0.0

> <JCHEM_MDDR_LIKE_RULE>
0

> <JCHEM_NEUTRAL_CHARGE>
0

> <JCHEM_NUMBER_OF_RINGS>
0

> <JCHEM_PHYSIOLOGICAL_CHARGE>
0

> <JCHEM_POLAR_SURFACE_AREA>
0.0

> <JCHEM_REFRACTIVITY>
0.0

> <JCHEM_ROTATABLE_BOND_COUNT>
0

> <JCHEM_RULE_OF_FIVE>
1

> <JCHEM_TRADITIONAL_IUPAC>
biotin

> <JCHEM_VEBER_RULE>
1

> <DRUGBANK_ID>
DB13453

> <DRUG_GROUPS>
experimental

> <GENERIC_NAME>
Xenon

> <SYNONYMS>
Xenon

$$$$
