
  Mrv0541 03071314322D          

 12 13  0  0  0  0            999 V2000
    1.6436    0.3570    0.0000 C   0  0  0  0  0  0  0  0  0  0  0  0
    0.2526    0.2537    0.0000 C   0  0  0  0  0  0  0  0  0  0  0  0
    1.3626   -0.1549    0.0000 C   0  0  0  0  0  0  0  0  0  0  0  0
    0.1351   -2.0602    0.0000 C   0  0  0  0  0  0  0  0  0  0  0  0
    0.5004   -1.3997    0.0000 C   0  0  0  0  0  0  0  0  0  0  0  0
    1.6411   -2.0402    0.0000 C   0  0  0  0  0  0  0  0  0  0  0  0
    0.9106   -1.6699    0.0000 C   0  0  2  0  0  0  0  0  0  0  0  0
    1.9362   -1.4148    0.0000 C   0  0  0  0  0  0  0  0  0  0  0  0
    0.9807   -0.1341    0.0000 C   0  0  0  0  0  0  0  0  0  0  0  0
    1.1407   -0.9495    0.0000 C   0  0  2  0  0  0  0  0  0  0  0  0
    2.7243   -1.1707    0.0000 O   0  0  0  0  0  0  0  0  0  0  0  0
    0.9094   -2.4949    0.0000 H   0  0  0  0  0  0  0  0  0  0  0  0
  5  4  1  0  0  0  0
  7  4  1  0  0  0  0
  7  6  1  0  0  0  0
  8  6  1  0  0  0  0
  9  1  1  0  0  0  0
  9  2  1  0  0  0  0
  9  7  1  0  0  0  0
 10  3  1  1  0  0  0
 10  5  1  0  0  0  0
 10  8  1  0  0  0  0
 10  9  1  0  0  0  0
 11  8  2  0  0  0  0
  7 12  1  6  0  0  0
M  END
> <DATABASE_ID>
DB01744

> <DATABASE_NAME>
drugbank

> <SMILES>
[H][C@@]12CC[C@@](C)(C(=O)C1)C2(C)C

> <INCHI_IDENTIFIER>
InChI=1S/C10H16O/c1-9(2)7-4-5-10(9,3)8(11)6-7/h7H,4-6H2,1-3H3/t7-,10+/m1/s1

> <INCHI_KEY>
DSSYKIVIOFKYAU-XCBNKYQSSA-N

> <FORMULA>
C10H16O

> <MOLECULAR_WEIGHT>
152.2334

> <EXACT_MASS>
152.120115134

> <JCHEM_ACCEPTOR_COUNT>
1

> <JCHEM_ATOM_COUNT>
27

> <JCHEM_AVERAGE_NEUTRAL_MICROSPECIES_CHARGE>
0.0

> <JCHEM_AVERAGE_POLARIZABILITY>
17.73508541789034

> <JCHEM_BIOAVAILABILITY>
1

> <JCHEM_DONOR_COUNT>
0

> <JCHEM_FORMAL_CHARGE>
0

> <JCHEM_GHOSE_FILTER>
0

> <JCHEM_IUPAC>
(1R,4R)-1,7,7-trimethylbicyclo[2.2.1]heptan-2-one

> <ALOGPS_LOGP>
2.85

> <JCHEM_LOGP>
2.5529855899999996

> <ALOGPS_LOGS>
-2.24

> <JCHEM_MDDR_LIKE_RULE>
0

> <JCHEM_NEUTRAL_CHARGE>
0

> <JCHEM_NUMBER_OF_RINGS>
2

> <JCHEM_PHYSIOLOGICAL_CHARGE>
0

> <JCHEM_PKA_STRONGEST_BASIC>
-7.4857085586657375

> <JCHEM_POLAR_SURFACE_AREA>
17.07

> <JCHEM_REFRACTIVITY>
44.492000000000004

> <JCHEM_ROTATABLE_BOND_COUNT>
0

> <JCHEM_RULE_OF_FIVE>
1

> <ALOGPS_SOLUBILITY>
8.80e-01 g/l

> <JCHEM_TRADITIONAL_IUPAC>
biotin

> <JCHEM_VEBER_RULE>
1

> <DRUGBANK_ID>
DB01744

> <SECONDARY_ACCESSION_NUMBERS>
EXPT00827

> <DRUG_GROUPS>
approved; withdrawn

> <GENERIC_NAME>
Camphor

> <SYNONYMS>
(+)-bornan-2-one; (+)-Camphor; (1R,4R)-camphor; (1R)-(+)-camphor; (R)-(+)-camphor; (R)-camphor; Camphor (natural); Camphor D-form; Camphor oil; Camphor(D); Camphora; D-Camphor; Dextrocamphor; Natural camphor

> <PRODUCTS>
365 Medicated Lip Balm; AIM Muscle Pain Relief Cream; Aching Head Rub; After Bite Natural; Air Salonpas; Amoray Care Chest Rub; Amrut Balm; Anbesol Liquid; Anbesol Maximum Strength Liquid; Antibiotic Cold Sore Ointment; Antiphlogistine Rub A 535 Extra Strength; Antiphlogistine Rub A535; Arctic Blast Pain Drops; Arneu; Arnica Ice Cooling; Arthritis Pain Reliever Herbalife; Arthritis Pain Relieving Cream; Arthritis Plus Gel; Arthro Rheuma Cream; ArthroNEO; Arthrocare Lotion; Artrex; Asana Kisser; Ass Kisser; Athletic Liniment; Au Kah Chuen Skin Lotion; Aulief Topical Pain Reliever; Aurisan Dps; Avapta; Avon Healthy Remedies Menthol & Camphor Soothing Relief Gel; Ay Bendito - Pain Relief; Ay Bendito - Thermoactive; Back Pain Relieving Oil; Balminil Camphorub; Balminil Nasal Ointment; Banana Boat Medicated Lip Balm; Band-aid Brand Anti-itch Gel; Band-aid Brand Anti-itch Spray; Banish My Pain; Beyond Rapid Relief; Bioease Pain Relieving Cold Therapy; Biofreeze; Bite Relief; Blistex Dct; Blistex Lip; Blistex Med Lip Conditioner Spf15 Ont; Blue Ice Fermented Cod Liver Oil Calm Balm; Blue Star; Boil Ease Drawing Salve Ont; Bronchodex Vapo Ont; Bronchodex-rub; Bronchophan Onguent Vaporisant; Broncolin; CAMPHO-PHENIQUE ANTISEPTIC Gel; CARMEX original lip balm EXTERNAL ANALGESIC; CBD Clinic Deep-Rub Pain Relief - Level 1; CBD Clinic Deep-Rub Pain Relief - Level 5; CBD Clinic Pain Relief - Level 2; CBD Clinic Pain Relief - Level 4; CBD Clinic Pain Relief - Level 5; CBD Clinic Relax Massage; CBD Clinic Revive Massage; CBD Clinic Ultimate Massage; CBDMEDIC Active Sport Pain Relief; CBDMEDIC Arthritis Aches and Pain Relief; CBDMEDIC Back and Neck Pain Relief; CBDMEDIC Foot and Ankle Pain Relief; CBDMEDIC Massage Therapy Pain Relief; CBDMEDIC Muscle and Joint Pain Relief; CLM Patch; CVS Medicated Chest Rub Roll-On; Cajun Hot Ice Muscle and Joint Pain Rub; Cal Mo Dol Ont; Calmadol; Calmitol Itching Relief Ont; Cam Sun (huile Therapeutique); Camocare Pain Relieving Cream; Campho Rex; Campho-Phenique Pain Relieving Antiseptic Liquid; Camphomex; Camphor; Camphor Spirit; Camphor Spirit Liq; Camphor Spirit Liq 10%; Camphorated Oil 20%; Camphorated Oil Liniment; Camphorated Ointment Compound; Camphorated Opium Tincture; Camphorated Para Chlorophenol Liq; Canadian External Analgesic; Carmatis Ont; Carmex Lip Balm; Carmex Lip Ointment; Cbd Unlimited Mistx; Cbd Unlimited Mistx Topical Analgesic; Cbd Unlimited Topical Analgesic; Cbd-kings With Lidocaine 4%; Chapstick Medicated Lip Balm - Jar; Chapstick Medicated Lip Balm - Stk; Chapstick Medicated Lip Balm - Tube; Chase Coldsorex; CheeZheng Pain Relieveing Plaster; Cheezheng Pain Relieving; Chest Rub; Chest Rub Ont; Chest Rub and Cough Suppressant; Choice Personal Care Vapor Rub; Chun Gi So; Cm Systems 2 Gel; Cml; Cold Rub; Cold Sore Lotion; Cold Sore Therapy; Cold Sore Treatment; Coralite Muscle Joint; Crampy Belly Rub; Creo Grippe Enfants Sup; Creo Grippe Sup Adultes; Creo-rectal Adultes/adults; Creo-rectal Enfants/children; Creo-rectal Nourrisson; Cresophene Liq; DDM Camphor Spirit; DDM Instant Antiseptic Pain Relief; Ddsgen; Deep Muscle Rub; Delsym No Mess Vapor Roll On; Demo Cineol Inj; Demo-cineol Adultes/adults; Demo-cineol Enfants/children; Dentalgar Liq; Dermal Pain Relief Therapy; Dermasarra; Diclovix; Doctor Hoys Natural Pain Relief; Dr Bob Arnots Pain; Dr Bob Arnots Pain Pen; Dr Hos Pain Aid 5x Active Strength; Dr. J.I.s Arthritis Plus Gel; Dr. JIs Arthritis Plus; Dr. OH PATCH; Dr. Phillips Formulations Muscle Joint Relief; Dr.oh Patch; Dragon; Dream Cream; Dual Treatment - Cold Sore Therapy and Daily Lip Maintenance; Dynamiclear ORO; EZ-Relief; Earths Best Cold Relief Vapor; Earths Care Anti-Itch; Earths Care Anti-itch; Earths Care Arnica Compound; Earths Care Muscle and Joint Rub; Earths Care Pain Relieving; Easy Joint; Eau Resolutive Soker; Fast Freeze; Flex24 Pain; Flex24 Pain Pen; Flex24 Performance; Flex24 Performance Pen; Flex24 Tape; Flower O Life Pain Relieving Balm; Formula A; Freds Antiseptic Instant Pain Relief; Frozen Ice Fast Pain Relief; GADADERM Frozen Ice Advance Pain Relief; Glenalgesic Blue Gel; Gold Edition Ultra Zheng Gu Shui; Good Neighbor Pharmacy Anti-Itch Steroid Free; Gouttes Dentaires; Gouttes Pour Mal D'oreilles; Green Compass Reduce Topical Pain; HEB Camphor Phenol; HUMCO Camphor Spirit; Heat Rub; Heet Liniment Liq; Helix Tri-Active Therapy Cream; Herbal Heat; Herbal Pain Relieving; Ho Liang Kee; Ice Blue Pain Alleviating Rub; Ice Quake Roll On; Inflammation OTC Bruise Relief; Inflammation OTC Deep Pain Care Cold; Inflammation OTC Deep Pain Care Hot; Inno Rheuma Cream; Instant Antiseptic Pain Relief; Itch Nix; Jack and Jill Rub; Jamp-cough Suppositories Adult; Jamp-suppositories Children; Jivamukti; Joint Comfort; Joints and Muscles Pain Relieving; Jupiter Pain Patch; KT Recovery Plus Pain Relief Gel; KT Recovery Plus Timed Relief Pain Relief Gel; Kalaya Breathe Easy Vaporizing Rub; Kalaya Pain Relief 6X with Arnica; Kama Sutra Pleasure Balm; Kangaroo Cbd Pain Relief; Kapsin External Analgesic; Kaydia Patch; Kaz Inhalant; KeVUENO Pain Relieving; Kinkan; Kiss Therapy Medicated Lip Balm; LEADER Camphor Spirit; Lcm; LiMetCam; Liniment Soker; Lip Conditioner Lip Balm; Littles Vapor Rub; Lmc; Lotion Pour Feux Sauvages; Lucky SuperSoft Muscle and Joint; MHS Pain Relief Oil; MHS Tendon Liniment; MHS Wong Family Iron Palm Jow; MMA Elite Pain Relief; Magical Muscle Oil; Manteca Maslac; Marco Rub Camphorated Ont; Masterbalm; Mata Balm; Max Pain Relief; MaxRelief Arnica; Maximum Strength Pain Cream with Pure Hemp Extract; Maximum Strength Pain Relief Sports Cream; Mcl; Mecca Ointment; Medi-quik First Aid Spray; Medicated Analgesic Cream; Medicated Balm Arthritis Pain Relieving Cream; Medicated Blistex Dct Lip Balm; Medicated Chest Rub; Medicated Chest Rub - Ont; Medicated Chest Rub - Ont Top; Medicated Lip Balm; Medicated Lipbalm; Medicated Vapourizer Fluid; Medistik Cooling Roll-ON; Medistik Ice; Medistik Professional Ice Therapy; Menthol Camphor Cough Suppressant Rub; Menthol Camphor Knee; Menthol Camphor Micro; Menthol Camphor Vapor Rub; Menthol, Camphor; Mentholatum Cherry Vaporizing Rub; Mentholatum Childrens Nighttime Vaporizing Rub; Mentholatum Extra Strength Ont; Mentholatum Greaseless Vaporizing Cream; Mentholatum Lavender Vaporizing Rub; Mentholatum Nighttime Vaporizing Rub; Mentholatum No Mess Vaporizing Rub; Mentholatum Original; Meridian Balm; Mlc; Mobility; Monkey Holding Peach Brand External Analgesic Balm; Motion Medicine; Mountain Ice Sports Pain Relief; Mrx Liq; Muscle Rub Ultra; Muscle and Joint HRX Pain Relieving; Muscle rub; Nan San MUSFLEX External Analgesic; Natur 911; Natural Pain Relief Foot Cream; Naturland Inno Rheuma Cream; Naturland Sports Cream; Neptune Ice; Neptune Ice Patch; Neriumrx Cold Sore Therapy; Neriumrx Dermal Pain Therapy; Neutrogena Anti-itch Moisturizer; Novarnica; Novarnica Foot Pain Reliever; O24 Pain Neutralizer; OFF Bite and Itch Relief First Aid Antiseptic; ORO Dynamiclear; Offense Player Arthritis Pain; Offense Player Sports; Onguent Camphre Menthol Alsi; Opium Camphre Tanin Tab; Orajel Cold Sore Moisturelock; Orajel Multi-action Cold Sore Medicine; Orajel for Codl Sores Relief and Concealer; Orajel for Cold Sores Maximum Strength; Oralgar Dps; Oriental Magic Oil; Pain Ease; Pain Reileving Herbal Oil; Pain Relief Cream; Pain Relief Cream Extra Strength; Pain Relief Gel; Pain Relief Herbal; Pain Relief Herbal balm; Pain Relief Muscle; Pain Relief Muscle Relief; Pain Relief Roll-On Muscle; Pain Relief Rub; Pain Relief Rub Iampur; Pain Relieving; Pain Relieving Balm; Pain Relieving Chi Len Oil; Pain Relieving Iampur; Pain Relieving Liniment; Pain Relieving MUSFLEX; Pain Relieving Po Tong Oil; Pain-A-trate Cream; Pain-ease; Pain-oleum - Liniment; PainKillerNaturalOintment; PainONil; Paregorique; Perform; Pharmacys Prescription Vapor Rub; Phoenix Balm; PlusCBD Pain Cream (Arthritis) 2oz; PlusCBD Pain Cream (Muscle) 4oz; PlusCBD Pain Cream (Penetrating) 2oz; PlusCBD Sport Recovery Stick 1oz; Pommade Au The Des Bois; Premier Value Instant Antiseptic Pain Relief; Priyal Chestrub; Priyal Ice Gel; Pro-Flex; ProCBD Pain Cream (Arthritis) 2oz; ProCBD Pain Cream (Muscle) 4oz; ProCBD Pain Cream (Penetrating) 2oz; Proflexa; Profoot; Profoot Pain Relief Patches; Provault Cooling Roll on; Pure Nerium Cold Sore Therapy; Pure Nerium Dermal Pain Relief Therapy; Quality Choice Camphor Spirit; Quality Choice Ultra Strength Pain Relieving Cream Ultra Strength; Ramedica; Recovery Roll-On; Red Chilli Plaster; Red Flower Oil; Refined Gou Pi Pain Relieving Plaster; Rejuvaflex Natural Pain Relieving; Relexo Oil; Relief Assist; Relief Balm; Relief Recovery; Rhino-vaccin; Rps Care; Rubbex Creme; Rx Act; Salonpas - Pls Top; Salonpas DEEP RElieving TOPICAL ANALGESIC; Salonpas Gel-patch; Salonpas Medicated Plaster; Sanar - Pomada De Arnica White; Sarna; Sarna P; Savex 15 Ont SPF-15; Savex Ont; Savex With Paba; Savex With Sunscreen Ont; Sc Pain Relief Balm; Seldicine (Massage Cream); Shang Shi Zhi Tong Gao; Shang Shi Zhi Tong Pain Relieving Plaster; Shao Lin Gao Pain Relieving Plaster; SheXiang ZhuangGu Gao; Sheng Chun Pain Relief; SierraSil Pain Relief; Skin Soothing Aid; Sof Skin Vaporizing Chest Rub and Cough Suppressant; Spirit Of Camphor; Sport Rub - Cream; Sports Balm; Sting Kure - Liq; Sting-eze-liq; StingEze Insect Bite Relief; Strain Pain Relieving Cream; Sunmark Camphor Spirit; Super Forte Xl10; Suppress Ointment; SustaFix; THAYERS TOPICAL PAIN RELIEVER MEDICATED SUPERHAZEL with ALOE VERA FORMULA; THAYERS TOPICAL PAIN RELIEVER SUPERHAZEL with ALOE VERA FORMULA; Tempo cool; Tetramex; The Goo Medicated Pain Relief; Thera Derm Roll On; Thera Patch; Thera Wise Natural Vapor Rub; TheraDerm; Therapatch Vapor - Chest; Therapatch Vapour - Nose & Chin; Therapeutic Heat Lotion; Therapeutic Soothing Ice Gel; Thieves Essential Oil-Infused Chest Rub; Thunas Salve for Rheumatic Pains; Tianhe Gutong Tiegao; Tianhe Gutong Tiegao (in Polyisobutylene Carrier); Tianhe Zhuanggu Gao; Tianhe Zhuifeng Gao; Tibetree Pain Relieveing Medicated Plaster; Tibetree Pain Relieveing Plaster; Tiger Balm Red; Tokuhon Medicated Plaster; Tong Luo Qu Tong Gao; Top Medicated; Top Medicated Pain Relieving; TopiCool Pain Relief with Cats Claw; Topical Analgesic Gel; Total Muscle Relief; TotalArthritis; Triaminic Night Time Rub; Triaminic Vapour Patch; Turmeric Infused Hemp Pain Cream; Turmeric Pain Relieving Cream; Ultra Strength Pain Relief Balm; Ultra Vedic; VIVA Patch; Valtrum Aerobic Sports; Valtrum Topical Analgesic Roll On; Vapor Plus; Vaporisateur Medicamente; Vaporizing; Vaporizing Chest Rub; Vaporizing Chest Rub 4 oz.; Vaporizing Chest Rub 4 oz. 3 pk; Vaporizing Colds Rub - Ont; Vapourizing Chest Rub; Vaproizing; Vaseline Brand Lip Therapy Medicated Tube; Vida Mia Instant Antiseptic Pain Relief; Vital Vapor; Welders Eye Ease; White Cream; White Flower Ointment; Wish Care; Wok Lok Pain Relieving Oil; Womens Relief Balm; Womens Sports Balm; XtraCare Vaporizing Chest Rub; Yao Shen Gao Pain Relieving Plaster; Yiyongkesoutie; Yiyongxueweitie; Yu Long You Pain Relieving; ZYCAZIN Antiseptic Liquid; Zang Qi; Zen Hemp Balm; Zen Sports Balm; Zhenweilong Huoluo You External Analgesic; Zhuang Gu Feng Shi Pain Relieving Plaster; Zhuang Gu She Xiang Zhi Tong Gao; Zhuanggu Shexiang Zhitonggao Pain Relieving Plaster; amoray premium Vaporizing Inhaler; bB Medicated Pain Relieving Oil; eos THE FIXER HEAL REPAIR MEDICATED ANALGESIC LIP

$$$$
