
  Mrv0541 02231216082D          

 44 46  0  0  1  0            999 V2000
    0.7934   -7.6032    0.0000 C   0  0  0  0  0  0  0  0  0  0  0  0
    1.2293   -8.3036    0.0000 C   0  0  0  0  0  0  0  0  0  0  0  0
    0.8407   -9.0314    0.0000 C   0  0  0  0  0  0  0  0  0  0  0  0
    2.0538   -8.2763    0.0000 C   0  0  1  0  0  0  0  0  0  0  0  0
    2.4898   -8.9767    0.0000 N   0  0  0  0  0  0  0  0  0  0  0  0
    2.1012   -9.7044    0.0000 C   0  0  0  0  0  0  0  0  0  0  0  0
    1.2766   -9.7318    0.0000 O   0  0  0  0  0  0  0  0  0  0  0  0
    2.5371  -10.4049    0.0000 C   0  0  0  0  0  0  0  0  0  0  0  0
    3.3617  -10.3775    0.0000 C   0  0  0  0  0  0  0  0  0  0  0  0
    3.7976  -11.0780    0.0000 C   0  0  0  0  0  0  0  0  0  0  0  0
    3.4090  -11.8057    0.0000 C   0  0  0  0  0  0  0  0  0  0  0  0
    2.5844  -11.8330    0.0000 C   0  0  0  0  0  0  0  0  0  0  0  0
    2.1485  -11.1326    0.0000 C   0  0  0  0  0  0  0  0  0  0  0  0
    3.8449  -12.5061    0.0000 C   0  0  0  0  0  0  0  0  0  0  0  0
    4.6695  -12.4788    0.0000 O   0  0  0  0  0  0  0  0  0  0  0  0
    3.4563  -13.2339    0.0000 N   0  0  0  0  0  0  0  0  0  0  0  0
    3.8922  -13.9343    0.0000 C   0  0  0  0  0  0  0  0  0  0  0  0
    3.5036  -14.6620    0.0000 C   0  0  0  0  0  0  0  0  0  0  0  0
    2.6791  -14.6893    0.0000 O   0  0  0  0  0  0  0  0  0  0  0  0
    2.2431  -13.9889    0.0000 C   0  0  0  0  0  0  0  0  0  0  0  0
    2.6318  -13.2612    0.0000 C   0  0  0  0  0  0  0  0  0  0  0  0
    2.4425   -7.5485    0.0000 C   0  0  0  0  0  0  0  0  0  0  0  0
    3.2670   -7.5212    0.0000 O   0  0  0  0  0  0  0  0  0  0  0  0
    2.0065   -6.8481    0.0000 N   0  0  0  0  0  0  0  0  0  0  0  0
    1.1836   -6.7891    0.0000 C   0  0  0  0  0  0  0  0  0  0  0  0
    0.9855   -5.9883    0.0000 C   0  0  0  0  0  0  0  0  0  0  0  0
    1.6859   -5.5523    0.0000 C   0  0  0  0  0  0  0  0  0  0  0  0
    2.3169   -6.0838    0.0000 C   0  0  2  0  0  0  0  0  0  0  0  0
    3.1178   -5.8856    0.0000 C   0  0  0  0  0  0  0  0  0  0  0  0
    3.3466   -5.0930    0.0000 O   0  0  0  0  0  0  0  0  0  0  0  0
    3.6898   -6.4801    0.0000 N   0  0  0  0  0  0  0  0  0  0  0  0
    4.4907   -6.2819    0.0000 C   0  0  2  0  0  0  0  0  0  0  0  0
    4.7195   -5.4893    0.0000 C   0  0  0  0  0  0  0  0  0  0  0  0
    5.5203   -5.2911    0.0000 C   0  0  0  0  0  0  0  0  0  0  0  0
    4.1474   -4.8948    0.0000 C   0  0  0  0  0  0  0  0  0  0  0  0
    5.0627   -6.8764    0.0000 C   0  0  0  0  0  0  0  0  0  0  0  0
    4.8339   -7.6690    0.0000 O   0  0  0  0  0  0  0  0  0  0  0  0
    5.8635   -6.6782    0.0000 C   0  0  0  0  0  0  0  0  0  0  0  0
    5.6654   -5.8774    0.0000 F   0  0  0  0  0  0  0  0  0  0  0  0
    6.0617   -7.4791    0.0000 F   0  0  0  0  0  0  0  0  0  0  0  0
    6.6644   -6.4801    0.0000 C   0  0  0  0  0  0  0  0  0  0  0  0
    7.4652   -6.2819    0.0000 F   0  0  0  0  0  0  0  0  0  0  0  0
    6.8626   -7.2809    0.0000 F   0  0  0  0  0  0  0  0  0  0  0  0
    6.4662   -5.6792    0.0000 F   0  0  0  0  0  0  0  0  0  0  0  0
  1  2  1  0  0  0  0
  2  3  1  0  0  0  0
  2  4  1  0  0  0  0
  4  5  1  6  0  0  0
  5  6  1  0  0  0  0
  6  7  2  0  0  0  0
  6  8  1  0  0  0  0
  8  9  2  0  0  0  0
  9 10  1  0  0  0  0
 10 11  2  0  0  0  0
 11 12  1  0  0  0  0
 12 13  2  0  0  0  0
  8 13  1  0  0  0  0
 11 14  1  0  0  0  0
 14 15  2  0  0  0  0
 14 16  1  0  0  0  0
 16 17  1  0  0  0  0
 17 18  1  0  0  0  0
 18 19  1  0  0  0  0
 19 20  1  0  0  0  0
 20 21  1  0  0  0  0
 16 21  1  0  0  0  0
  4 22  1  0  0  0  0
 22 23  2  0  0  0  0
 22 24  1  0  0  0  0
 24 25  1  0  0  0  0
 25 26  1  0  0  0  0
 26 27  1  0  0  0  0
 27 28  1  0  0  0  0
 24 28  1  0  0  0  0
 28 29  1  6  0  0  0
 29 30  2  0  0  0  0
 29 31  1  0  0  0  0
 32 31  1  6  0  0  0
 32 33  1  0  0  0  0
 33 34  1  0  0  0  0
 33 35  1  0  0  0  0
 32 36  1  0  0  0  0
 36 37  2  0  0  0  0
 36 38  1  0  0  0  0
 38 39  1  0  0  0  0
 38 40  1  0  0  0  0
 38 41  1  0  0  0  0
 41 42  1  0  0  0  0
 41 43  1  0  0  0  0
 41 44  1  0  0  0  0
M  END
> <DATABASE_ID>
DB02341

> <DATABASE_NAME>
drugbank

> <SMILES>
CC(C)[C@@H](NC(=O)C1=CC=C(C=C1)C(=O)N1CCOCC1)C(=O)N1CCC[C@@H]1C(=O)N[C@H](C(C)C)C(=O)C(F)(F)C(F)(F)F

> <INCHI_IDENTIFIER>
InChI=1S/C29H37F5N4O6/c1-16(2)21(23(39)28(30,31)29(32,33)34)35-25(41)20-6-5-11-38(20)27(43)22(17(3)4)36-24(40)18-7-9-19(10-8-18)26(42)37-12-14-44-15-13-37/h7-10,16-17,20-22H,5-6,11-15H2,1-4H3,(H,35,41)(H,36,40)/t20-,21-,22-/m1/s1

> <INCHI_KEY>
XQAMVCHQGHAELT-YPAWHYETSA-N

> <FORMULA>
C29H37F5N4O6

> <MOLECULAR_WEIGHT>
632.6193

> <EXACT_MASS>
632.263325961

> <JCHEM_ACCEPTOR_COUNT>
6

> <JCHEM_ATOM_COUNT>
81

> <JCHEM_AVERAGE_NEUTRAL_MICROSPECIES_CHARGE>
-4.808335500169091e-05

> <JCHEM_AVERAGE_POLARIZABILITY>
59.49127167429974

> <JCHEM_BIOAVAILABILITY>
0

> <JCHEM_DONOR_COUNT>
2

> <JCHEM_FORMAL_CHARGE>
0

> <JCHEM_GHOSE_FILTER>
0

> <JCHEM_IUPAC>
(2R)-1-[(2R)-3-methyl-2-{[4-(morpholine-4-carbonyl)phenyl]formamido}butanoyl]-N-[(3R)-5,5,6,6,6-pentafluoro-2-methyl-4-oxohexan-3-yl]pyrrolidine-2-carboxamide

> <ALOGPS_LOGP>
3.03

> <JCHEM_LOGP>
3.3110166016666644

> <ALOGPS_LOGS>
-4.89

> <JCHEM_MDDR_LIKE_RULE>
1

> <JCHEM_NEUTRAL_CHARGE>
0

> <JCHEM_NUMBER_OF_RINGS>
3

> <JCHEM_PHYSIOLOGICAL_CHARGE>
0

> <JCHEM_PKA>
14.456963701089983

> <JCHEM_PKA_STRONGEST_ACIDIC>
11.318187711741572

> <JCHEM_PKA_STRONGEST_BASIC>
-0.9789505686974488

> <JCHEM_POLAR_SURFACE_AREA>
125.12

> <JCHEM_REFRACTIVITY>
148.06229999999994

> <JCHEM_ROTATABLE_BOND_COUNT>
11

> <JCHEM_RULE_OF_FIVE>
0

> <ALOGPS_SOLUBILITY>
8.09e-03 g/l

> <JCHEM_TRADITIONAL_IUPAC>
tetrahydrofolic acid

> <JCHEM_VEBER_RULE>
0

> <DRUGBANK_ID>
DB02341

> <SECONDARY_ACCESSION_NUMBERS>
EXPT02880

> <DRUG_GROUPS>
experimental

> <GENERIC_NAME>
Mdl 101,146

$$$$
