
  Mrv0541 05041410162D          

 29 29  0  0  0  0            999 V2000
   -2.8579    0.8250    0.0000 C   0  0  0  0  0  0  0  0  0  0  0  0
   -4.2868    3.3000    0.0000 C   0  0  0  0  0  0  0  0  0  0  0  0
    0.7145    2.0625    0.0000 C   0  0  0  0  0  0  0  0  0  0  0  0
   -0.7145   -0.4125    0.0000 C   0  0  0  0  0  0  0  0  0  0  0  0
    0.7145   -1.2375    0.0000 C   0  0  0  0  0  0  0  0  0  0  0  0
   -2.8579    2.4750    0.0000 C   0  0  0  0  0  0  0  0  0  0  0  0
   -2.1434    2.0625    0.0000 C   0  0  0  0  0  0  0  0  0  0  0  0
   -2.8579    3.3000    0.0000 C   0  0  0  0  0  0  0  0  0  0  0  0
   -1.4289    0.8250    0.0000 C   0  0  0  0  0  0  0  0  0  0  0  0
   -0.7145    1.2375    0.0000 C   0  0  0  0  0  0  0  0  0  0  0  0
   -3.5724    4.5375    0.0000 C   0  0  0  0  0  0  0  0  0  0  0  0
    1.4289    0.8250    0.0000 C   0  0  0  0  0  0  0  0  0  0  0  0
   -2.1434    1.2375    0.0000 C   0  0  0  0  0  0  0  0  0  0  0  0
   -3.5724    3.7125    0.0000 C   0  0  0  0  0  0  0  0  0  0  0  0
    0.7145    1.2375    0.0000 C   0  0  0  0  0  0  0  0  0  0  0  0
    0.0000    0.0000    0.0000 C   0  0  0  0  0  0  0  0  0  0  0  0
    0.7145   -0.4125    0.0000 C   0  0  0  0  0  0  0  0  0  0  0  0
    0.0000    0.8250    0.0000 C   0  0  0  0  0  0  0  0  0  0  0  0
    1.4289   -0.0000    0.0000 C   0  0  0  0  0  0  0  0  0  0  0  0
   -4.2868    4.9500    0.0000 C   0  0  0  0  0  0  0  0  0  0  0  0
    2.1434   -0.4125    0.0000 O   0  0  0  0  0  0  0  0  0  0  0  0
   -5.0013    4.5375    0.0000 O   0  0  0  0  0  0  0  0  0  0  0  0
   -4.2868    5.7750    0.0000 O   0  0  0  0  0  0  0  0  0  0  0  0
   -3.5724    2.0625    0.0000 H   0  0  0  0  0  0  0  0  0  0  0  0
   -1.4289    2.4750    0.0000 H   0  0  0  0  0  0  0  0  0  0  0  0
   -2.1434    3.7125    0.0000 H   0  0  0  0  0  0  0  0  0  0  0  0
   -1.4289    0.0000    0.0000 H   0  0  0  0  0  0  0  0  0  0  0  0
   -0.7145    2.0625    0.0000 H   0  0  0  0  0  0  0  0  0  0  0  0
   -2.8579    4.9500    0.0000 H   0  0  0  0  0  0  0  0  0  0  0  0
  7  6  1  0  0  0  0
  8  6  2  0  0  0  0
 10  9  2  0  0  0  0
 13  1  1  0  0  0  0
 13  7  2  0  0  0  0
 13  9  1  0  0  0  0
 14  2  1  0  0  0  0
 14  8  1  0  0  0  0
 14 11  2  0  0  0  0
 15  3  1  0  0  0  0
 15 12  1  0  0  0  0
 16  4  1  0  0  0  0
 17  5  1  0  0  0  0
 17 16  2  0  0  0  0
 18 10  1  0  0  0  0
 18 15  2  0  0  0  0
 18 16  1  0  0  0  0
 19 12  2  0  0  0  0
 19 17  1  0  0  0  0
 20 11  1  0  0  0  0
 21 19  1  0  0  0  0
 22 20  2  0  0  0  0
 23 20  1  0  0  0  0
 24  6  1  0  0  0  0
 25  7  1  0  0  0  0
 26  8  1  0  0  0  0
 27  9  1  0  0  0  0
 28 10  1  0  0  0  0
 29 11  1  0  0  0  0
M  END
> <DATABASE_ID>
DB08455

> <DATABASE_NAME>
drugbank

> <SMILES>
[H]/C(=C(/[H])\C(\C)=C(/[H])C(O)=O)/C(/[H])=C(\C)/C(/[H])=C(\[H])C1=C(C)C=C(O)C(C)=C1C

> <INCHI_IDENTIFIER>
InChI=1S/C20H24O3/c1-13(7-6-8-14(2)11-20(22)23)9-10-18-15(3)12-19(21)17(5)16(18)4/h6-12,21H,1-5H3,(H,22,23)/b8-6+,10-9+,13-7+,14-11+

> <INCHI_KEY>
CAAFTBWHFUPDGX-OFCLTBKTSA-N

> <FORMULA>
C20H24O3

> <MOLECULAR_WEIGHT>
312.4028

> <EXACT_MASS>
312.172544634

> <JCHEM_ACCEPTOR_COUNT>
3

> <JCHEM_ATOM_COUNT>
47

> <JCHEM_AVERAGE_NEUTRAL_MICROSPECIES_CHARGE>
-0.9949867301332583

> <JCHEM_AVERAGE_POLARIZABILITY>
36.517751842477296

> <JCHEM_BIOAVAILABILITY>
1

> <JCHEM_DONOR_COUNT>
2

> <JCHEM_FORMAL_CHARGE>
0

> <JCHEM_GHOSE_FILTER>
1

> <JCHEM_IUPAC>
(2E,4E,6E,8E)-9-(4-hydroxy-2,3,6-trimethylphenyl)-3,7-dimethylnona-2,4,6,8-tetraenoic acid

> <ALOGPS_LOGP>
5.60

> <JCHEM_LOGP>
5.441154669666666

> <ALOGPS_LOGS>
-5.42

> <JCHEM_MDDR_LIKE_RULE>
0

> <JCHEM_NEUTRAL_CHARGE>
-1

> <JCHEM_NUMBER_OF_RINGS>
1

> <JCHEM_PHYSIOLOGICAL_CHARGE>
-1

> <JCHEM_PKA>
10.053497574246965

> <JCHEM_PKA_STRONGEST_ACIDIC>
4.77316978711855

> <JCHEM_PKA_STRONGEST_BASIC>
-5.936110717812234

> <JCHEM_POLAR_SURFACE_AREA>
57.53

> <JCHEM_REFRACTIVITY>
99.68419999999998

> <JCHEM_ROTATABLE_BOND_COUNT>
5

> <JCHEM_RULE_OF_FIVE>
0

> <ALOGPS_SOLUBILITY>
1.19e-03 g/l

> <JCHEM_TRADITIONAL_IUPAC>
tetrahydrofolic acid

> <JCHEM_VEBER_RULE>
0

> <DRUGBANK_ID>
DB08455

> <DRUG_GROUPS>
experimental

> <GENERIC_NAME>
Ro 12-7310

> <SYNONYMS>
(2E,4E,6E,8E)-9-(4-Hydroxy-2,3,6-trimethylphenyl)-3,7-dimethyl-2,4,6,8-nonatetraenoic acid

$$$$
