
  Mrv0541 02231216142D          

  9  8  0  0  0  0            999 V2000
    1.9520    1.9520    0.0000 C   0  0  0  0  0  0  0  0  0  0  0  0
    1.9520    1.1270    0.0000 N   0  0  0  0  0  0  0  0  0  0  0  0
    1.2375    0.7145    0.0000 C   0  0  0  0  0  0  0  0  0  0  0  0
    0.5230    1.1270    0.0000 C   0  0  0  0  0  0  0  0  0  0  0  0
   -0.1914    0.7145    0.0000 O   0  0  0  0  0  0  0  0  0  0  0  0
    0.5230    1.9520    0.0000 O   0  0  0  0  0  0  0  0  0  0  0  0
    2.6664    0.7145    0.0000 C   0  0  0  0  0  0  0  0  0  0  0  0
    3.3809    1.1270    0.0000 N   0  0  0  0  0  0  0  0  0  0  0  0
    2.6664   -0.1105    0.0000 N   0  0  0  0  0  0  0  0  0  0  0  0
  1  2  1  0  0  0  0
  2  3  1  0  0  0  0
  3  4  1  0  0  0  0
  4  5  1  0  0  0  0
  4  6  2  0  0  0  0
  2  7  1  0  0  0  0
  7  8  1  0  0  0  0
  7  9  1  0  0  0  0
M  END
> <DATABASE_ID>
DB02490

> <DATABASE_NAME>
drugbank

> <SMILES>
CN(CC(O)=O)C(N)N

> <INCHI_IDENTIFIER>
InChI=1S/C4H11N3O2/c1-7(4(5)6)2-3(8)9/h4H,2,5-6H2,1H3,(H,8,9)

> <INCHI_KEY>
YNHURFGTTODJOO-UHFFFAOYSA-N

> <FORMULA>
C4H11N3O2

> <MOLECULAR_WEIGHT>
133.149

> <EXACT_MASS>
133.085126611

> <JCHEM_ACCEPTOR_COUNT>
5

> <JCHEM_ATOM_COUNT>
20

> <JCHEM_AVERAGE_NEUTRAL_MICROSPECIES_CHARGE>
-0.6260494808058151

> <JCHEM_AVERAGE_POLARIZABILITY>
12.933294475406083

> <JCHEM_BIOAVAILABILITY>
1

> <JCHEM_DONOR_COUNT>
3

> <JCHEM_FORMAL_CHARGE>
0

> <JCHEM_GHOSE_FILTER>
0

> <JCHEM_IUPAC>
2-[(diaminomethyl)(methyl)amino]acetic acid

> <ALOGPS_LOGP>
-3.77

> <JCHEM_LOGP>
-3.2302219123623352

> <ALOGPS_LOGS>
0.49

> <JCHEM_MDDR_LIKE_RULE>
0

> <JCHEM_NEUTRAL_CHARGE>
0

> <JCHEM_NUMBER_OF_RINGS>
0

> <JCHEM_PHYSIOLOGICAL_CHARGE>
-1

> <JCHEM_PKA_STRONGEST_ACIDIC>
4.741769710215713

> <JCHEM_PKA_STRONGEST_BASIC>
6.764963886372731

> <JCHEM_POLAR_SURFACE_AREA>
92.58

> <JCHEM_REFRACTIVITY>
32.211200000000005

> <JCHEM_ROTATABLE_BOND_COUNT>
3

> <JCHEM_RULE_OF_FIVE>
1

> <ALOGPS_SOLUBILITY>
4.12e+02 g/l

> <JCHEM_TRADITIONAL_IUPAC>
biotin

> <JCHEM_VEBER_RULE>
0

> <DRUGBANK_ID>
DB02490

> <SECONDARY_ACCESSION_NUMBERS>
EXPT01907

> <DRUG_GROUPS>
experimental

> <GENERIC_NAME>
(Diaminomethyl-Methyl-Amino)-Acetic Acid

$$$$
