
  Mrv0541 02231217182D          

 10  9  0  0  1  0            999 V2000
    1.7605    1.8414    0.0000 O   0  0  0  0  0  0  0  0  0  0  0  0
    2.4750    1.4289    0.0000 C   0  0  0  0  0  0  0  0  0  0  0  0
    3.1895    1.8414    0.0000 C   0  0  2  0  0  0  0  0  0  0  0  0
    3.1895    2.6664    0.0000 O   0  0  0  0  0  0  0  0  0  0  0  0
    3.9039    1.4289    0.0000 C   0  0  2  0  0  0  0  0  0  0  0  0
    3.9039    0.6039    0.0000 O   0  0  0  0  0  0  0  0  0  0  0  0
    4.6184    1.8414    0.0000 C   0  0  0  0  0  0  0  0  0  0  0  0
    4.6184    2.6664    0.0000 O   0  0  0  0  0  0  0  0  0  0  0  0
    5.3329    1.4289    0.0000 C   0  0  0  0  0  0  0  0  0  0  0  0
    6.0474    1.8414    0.0000 O   0  0  0  0  0  0  0  0  0  0  0  0
  1  2  1  0  0  0  0
  2  3  1  0  0  0  0
  3  4  1  6  0  0  0
  3  5  1  0  0  0  0
  5  6  1  1  0  0  0
  5  7  1  0  0  0  0
  7  8  2  0  0  0  0
  7  9  1  0  0  0  0
  9 10  1  0  0  0  0
M  END
> <DATABASE_ID>
DB03947

> <DATABASE_NAME>
drugbank

> <SMILES>
OC[C@H](O)[C@H](O)C(=O)CO

> <INCHI_IDENTIFIER>
InChI=1S/C5H10O5/c6-1-3(8)5(10)4(9)2-7/h3,5-8,10H,1-2H2/t3-,5-/m0/s1

> <INCHI_KEY>
ZAQJHHRNXZUBTE-UCORVYFPSA-N

> <FORMULA>
C5H10O5

> <MOLECULAR_WEIGHT>
150.1299

> <EXACT_MASS>
150.05282343

> <JCHEM_ACCEPTOR_COUNT>
5

> <JCHEM_ATOM_COUNT>
20

> <JCHEM_AVERAGE_NEUTRAL_MICROSPECIES_CHARGE>
-6.066263454623505e-06

> <JCHEM_AVERAGE_POLARIZABILITY>
13.580238360962252

> <JCHEM_BIOAVAILABILITY>
1

> <JCHEM_DONOR_COUNT>
4

> <JCHEM_FORMAL_CHARGE>
0

> <JCHEM_GHOSE_FILTER>
0

> <JCHEM_IUPAC>
(3S,4S)-1,3,4,5-tetrahydroxypentan-2-one

> <ALOGPS_LOGP>
-2.16

> <JCHEM_LOGP>
-2.63669695

> <ALOGPS_LOGS>
0.65

> <JCHEM_MDDR_LIKE_RULE>
0

> <JCHEM_NEUTRAL_CHARGE>
0

> <JCHEM_NUMBER_OF_RINGS>
0

> <JCHEM_PHYSIOLOGICAL_CHARGE>
0

> <JCHEM_PKA>
13.664335132176857

> <JCHEM_PKA_STRONGEST_ACIDIC>
12.238210756327804

> <JCHEM_PKA_STRONGEST_BASIC>
-2.9797457089641277

> <JCHEM_POLAR_SURFACE_AREA>
97.99

> <JCHEM_REFRACTIVITY>
31.5993

> <JCHEM_ROTATABLE_BOND_COUNT>
4

> <JCHEM_RULE_OF_FIVE>
1

> <ALOGPS_SOLUBILITY>
6.78e+02 g/l

> <JCHEM_TRADITIONAL_IUPAC>
tetrahydrofolic acid

> <JCHEM_VEBER_RULE>
0

> <DRUGBANK_ID>
DB03947

> <SECONDARY_ACCESSION_NUMBERS>
EXPT03263

> <DRUG_GROUPS>
experimental

> <GENERIC_NAME>
D-Xylulose

$$$$
