
  Mrv0541 04191212142D          
 
 58 60  0  0  1  0            999 V2000
    1.4289   -0.4125    0.0000 C   0  0  1  0  0  0  0  0  0  0  0  0
    0.7145   -0.8250    0.0000 C   0  0  2  0  0  0  0  0  0  0  0  0
    0.7145    0.8250    0.0000 C   0  0  0  0  0  0  0  0  0  0  0  0
    0.7145   -1.6500    0.0000 C   0  0  1  0  0  0  0  0  0  0  0  0
    0.7145    1.6500    0.0000 C   0  0  2  0  0  0  0  0  0  0  0  0
    0.0000   -2.0625    0.0000 C   0  0  2  0  0  0  0  0  0  0  0  0
    0.0000    2.0625    0.0000 C   0  0  0  0  0  0  0  0  0  0  0  0
   -0.7145   -1.6500    0.0000 C   0  0  0  0  0  0  0  0  0  0  0  0
   -0.7145    1.6500    0.0000 C   0  0  1  0  0  0  0  0  0  0  0  0
   -0.7145   -0.8250    0.0000 O   0  0  0  0  0  0  0  0  0  0  0  0
   -0.7145    0.8250    0.0000 C   0  0  1  0  0  0  0  0  0  0  0  0
   -1.4289   -0.4125    0.0000 C   0  0  2  0  0  0  0  0  0  0  0  0
    2.1434   -0.8250    0.0000 O   0  0  0  0  0  0  0  0  0  0  0  0
    0.0000   -0.4125    0.0000 C   0  0  0  0  0  0  0  0  0  0  0  0
    2.8578   -0.4125    0.0000 C   0  0  1  0  0  0  0  0  0  0  0  0
    1.4289   -2.0625    0.0000 O   0  0  0  0  0  0  0  0  0  0  0  0
    3.5723   -0.8250    0.0000 C   0  0  1  0  0  0  0  0  0  0  0  0
    2.8578    0.4125    0.0000 O   0  0  0  0  0  0  0  0  0  0  0  0
    1.4289    2.0625    0.0000 C   0  0  0  0  0  0  0  0  0  0  0  0
    1.4289   -2.8875    0.0000 C   0  0  1  0  0  0  0  0  0  0  0  0
    0.0000   -2.8875    0.0000 C   0  0  0  0  0  0  0  0  0  0  0  0
    4.2868   -0.4125    0.0000 C   0  0  2  0  0  0  0  0  0  0  0  0
    3.5723   -1.6500    0.0000 O   0  0  0  0  0  0  0  0  0  0  0  0
    3.5723    0.8250    0.0000 C   0  0  1  0  0  0  0  0  0  0  0  0
    0.0000    2.8875    0.0000 N   0  0  0  0  0  0  0  0  0  0  0  0
    0.7144   -3.3000    0.0000 C   0  0  0  0  0  0  0  0  0  0  0  0
    2.1434   -3.3000    0.0000 O   0  0  0  0  0  0  0  0  0  0  0  0
   -1.4290   -2.0625    0.0000 O   0  0  0  0  0  0  0  0  0  0  0  0
    4.2868    0.4125    0.0000 C   0  0  0  0  0  0  0  0  0  0  0  0
    5.0013   -0.8250    0.0000 N   0  0  0  0  0  0  0  0  0  0  0  0
    3.5723    1.6500    0.0000 C   0  0  0  0  0  0  0  0  0  0  0  0
   -1.4290    2.0625    0.0000 C   0  0  0  0  0  0  0  0  0  0  0  0
    2.1434   -4.1250    0.0000 C   0  0  2  0  0  0  0  0  0  0  0  0
    5.7157   -0.4125    0.0000 C   0  0  0  0  0  0  0  0  0  0  0  0
    5.0013   -1.6500    0.0000 C   0  0  0  0  0  0  0  0  0  0  0  0
    0.0000    0.4125    0.0000 O   0  0  0  0  0  0  0  0  0  0  0  0
    1.4289   -4.5375    0.0000 C   0  0  2  0  0  0  0  0  0  0  0  0
    2.8578   -4.5375    0.0000 C   0  0  0  0  0  0  0  0  0  0  0  0
    1.4289   -5.3625    0.0000 O   0  0  0  0  0  0  0  0  0  0  0  0
    0.7144   -4.1250    0.0000 C   0  0  2  0  0  0  0  0  0  0  0  0
    0.7144    3.3000    0.0000 O   0  0  0  0  0  0  0  0  0  0  0  0
    1.4289    2.8875    0.0000 C   0  0  0  0  0  0  0  0  0  0  0  0
    2.1434    3.3000    0.0000 O   0  0  0  0  0  0  0  0  0  0  0  0
    2.8578    2.8875    0.0000 C   0  0  0  0  0  0  0  0  0  0  0  0
    3.5723    3.3000    0.0000 C   0  0  0  0  0  0  0  0  0  0  0  0
    4.2868    2.8875    0.0000 O   0  0  0  0  0  0  0  0  0  0  0  0
    5.0013    3.3000    0.0000 C   0  0  0  0  0  0  0  0  0  0  0  0
   -2.1435   -0.8250    0.0000 C   0  0  0  0  0  0  0  0  0  0  0  0
   -2.8579   -0.4125    0.0000 C   0  0  0  0  0  0  0  0  0  0  0  0
    0.7144   -4.9500    0.0000 O   0  0  0  0  0  0  0  0  0  0  0  0
   -0.0001   -5.3625    0.0000 C   0  0  0  0  0  0  0  0  0  0  0  0
    0.0000   -4.5375    0.0000 C   0  0  0  0  0  0  0  0  0  0  0  0
   -1.4289    0.4125    0.0000 C   0  0  1  0  0  0  0  0  0  0  0  0
    1.4289    0.4125    0.0000 C   0  0  1  0  0  0  0  0  0  0  0  0
   -1.4289    1.2375    0.0000 O   0  0  0  0  0  0  0  0  0  0  0  0
    1.4289    1.2375    0.0000 O   0  0  0  0  0  0  0  0  0  0  0  0
   -2.1434    0.8249    0.0000 C   0  0  0  0  0  0  0  0  0  0  0  0
    2.1434    0.8250    0.0000 C   0  0  0  0  0  0  0  0  0  0  0  0
  1 13  1  6  0  0  0
  1 54  1  0  0  0  0
 54 58  1  6  0  0  0
  2  1  1  0  0  0  0
  2 14  1  6  0  0  0
 54  3  1  0  0  0  0
  2  4  1  0  0  0  0
  4 16  1  6  0  0  0
  3  5  1  0  0  0  0
  5 19  1  6  0  0  0
  4  6  1  0  0  0  0
  6 21  1  1  0  0  0
  5  7  1  0  0  0  0
  7 25  2  0  0  0  0
  6  8  1  0  0  0  0
  8 28  2  0  0  0  0
  9  7  1  0  0  0  0
  9 32  1  1  0  0  0
  8 10  1  0  0  0  0
 11  9  1  0  0  0  0
 11 36  1  1  0  0  0
 12 10  1  0  0  0  0
 12 48  1  6  0  0  0
 53 12  1  0  0  0  0
 11 53  1  0  0  0  0
 53 57  1  6  0  0  0
 15 13  1  6  0  0  0
 15 17  1  0  0  0  0
 15 18  1  0  0  0  0
 20 16  1  6  0  0  0
 17 22  1  0  0  0  0
 17 23  1  1  0  0  0
 18 24  1  0  0  0  0
 20 26  1  0  0  0  0
 20 27  1  0  0  0  0
 22 29  1  0  0  0  0
 22 30  1  6  0  0  0
 24 31  1  6  0  0  0
 24 29  1  0  0  0  0
 25 41  1  4  0  0  0
 26 40  1  0  0  0  0
 27 33  1  0  0  0  0
 30 34  1  0  0  0  0
 30 35  1  0  0  0  0
 33 38  1  1  0  0  0
 33 37  1  0  0  0  0
 40 37  1  0  0  0  0
 37 39  1  6  0  0  0
 40 50  1  6  0  0  0
 40 52  1  1  0  0  0
 41 42  1  0  0  0  0
 42 43  1  0  0  0  0
 43 44  1  0  0  0  0
 44 45  1  0  0  0  0
 45 46  1  0  0  0  0
 46 47  1  0  0  0  0
 48 49  1  0  0  0  0
 50 51  1  0  0  0  0
 53 55  1  1  0  0  0
 54 56  1  1  0  0  0
M  END
> <DATABASE_ID>
DB00778

> <DATABASE_NAME>
drugbank

> <SMILES>
CC[C@H]1OC(=O)[C@H](C)[C@@H](O[C@H]2C[C@@](C)(OC)[C@@H](O)[C@H](C)O2)[C@H](C)[C@@H](O[C@@H]2O[C@H](C)C[C@@H]([C@H]2O)N(C)C)[C@](C)(O)C[C@@H](C)C(=NOCOCCOC)[C@H](C)[C@@H](O)[C@]1(C)O

> <INCHI_IDENTIFIER>
InChI=1S/C41H76N2O15/c1-15-29-41(10,49)34(45)24(4)31(42-53-21-52-17-16-50-13)22(2)19-39(8,48)36(58-38-32(44)28(43(11)12)18-23(3)54-38)25(5)33(26(6)37(47)56-29)57-30-20-40(9,51-14)35(46)27(7)55-30/h22-30,32-36,38,44-46,48-49H,15-21H2,1-14H3/t22-,23-,24+,25+,26-,27+,28+,29-,30+,32-,33+,34-,35+,36-,38+,39-,40-,41-/m1/s1

> <INCHI_KEY>
RXZBMPWDPOLZGW-HITVVWEBSA-N

> <FORMULA>
C41H76N2O15

> <MOLECULAR_WEIGHT>
837.0465

> <EXACT_MASS>
836.524569772

> <JCHEM_ACCEPTOR_COUNT>
16

> <JCHEM_ATOM_COUNT>
134

> <JCHEM_AVERAGE_NEUTRAL_MICROSPECIES_CHARGE>
0.9917547526509517

> <JCHEM_AVERAGE_POLARIZABILITY>
91.83387752825622

> <JCHEM_BIOAVAILABILITY>
0

> <JCHEM_DONOR_COUNT>
5

> <JCHEM_FORMAL_CHARGE>
0

> <JCHEM_GHOSE_FILTER>
0

> <JCHEM_IUPAC>
(3R,4S,5S,6R,7R,9R,11S,12R,13S,14R)-6-{[(2S,3R,4S,6R)-4-(dimethylamino)-3-hydroxy-6-methyloxan-2-yl]oxy}-14-ethyl-7,12,13-trihydroxy-4-{[(2R,4R,5S,6S)-5-hydroxy-4-methoxy-4,6-dimethyloxan-2-yl]oxy}-3,5,7,9,11,13-hexamethyl-10-(2,4,7-trioxa-1-azaoctan-1-ylidene)-1-oxacyclotetradecan-2-one

> <ALOGPS_LOGP>
2.90

> <JCHEM_LOGP>
2.9999792816666657

> <ALOGPS_LOGS>
-3.65

> <JCHEM_MDDR_LIKE_RULE>
1

> <JCHEM_NEUTRAL_CHARGE>
1

> <JCHEM_NUMBER_OF_RINGS>
3

> <JCHEM_PHYSIOLOGICAL_CHARGE>
1

> <JCHEM_PKA>
12.926000808120358

> <JCHEM_PKA_STRONGEST_ACIDIC>
12.454023231880177

> <JCHEM_PKA_STRONGEST_BASIC>
9.07976724746385

> <JCHEM_POLAR_SURFACE_AREA>
216.88999999999993

> <JCHEM_REFRACTIVITY>
211.23760000000007

> <JCHEM_ROTATABLE_BOND_COUNT>
13

> <JCHEM_RULE_OF_FIVE>
0

> <ALOGPS_SOLUBILITY>
1.87e-01 g/l

> <JCHEM_TRADITIONAL_IUPAC>
tetrahydrofolic acid

> <JCHEM_VEBER_RULE>
0

> <DRUGBANK_ID>
DB00778

> <SECONDARY_ACCESSION_NUMBERS>
APRD01305

> <DRUG_GROUPS>
approved; investigational; withdrawn

> <GENERIC_NAME>
Roxithromycin

> <SYNONYMS>
(9E)-erythromycin 9-(O-((2-methoxyethoxy)methyl)oxime); Roxithromycin; Roxithromycine; Roxithromycinum; Roxitromicina

> <INTERNATIONAL_BRANDS>
Acevor; Actirox; Ai Luo Xin; Allolide; Ammirox; Anti-Bio; Ao Ge Shen; Aparox; Arbid; Aroxe; Asmetic; Assoral; Aswad; Azuril; Bazuctril; BD-Rox; Bei Ke; Bei Sha; Bi Ai Di; Biaxsig; Bicofen; Biostatik; Claramid; Coroxin; Delitroxin; Delos; Dorolid; Elrox; Erybros; Eslid; Guamil; Heng Te; Hycin; I-Throcin; Infectoroxit; Inrox; Ixor; Klomicina; Ladlid; Lang Su; Le Er Tai; Le Xi Qing; Li Fu; Lizhuxing; Ludin; Luo Jun Qing; Luo Shi Li; Luo Si Mei; Luprex; Macrol; Macrolid; Marulide; Neo-Suxigal; Nirox; Odirox; Overal; Pedilid; Pedrox; Pinsheng; Plethirox; Poliroxin; Pu Hong; Pymeroxitil; Qi Wei; Ramivan; Redotrin; Remora; Ren Su; Renicin; Ridinfect; Ritosin; Rocin; Rokithrid; Roksimin; Rolexit; Rolicyn; Romac; Romicin; Romycin; Romyk; Ropit; Rossitrol; Rothricin; Rotram; Rovenal; Roxamed; Roxar; Roxcin; Roxemicin; Roxeptin; Roxetomin; Roxi; Roxi-Fatol; Roxi-Puren; Roxi-Q; Roxi-saar; Roxibest; Roxibeta; Roxibron; Roxicin; Roxicur; Roxicure; Roxid; Roxide; Roxidura; Roxigamma; Roxigr√ºn; Roxihexal; Roxikid; Roxil; Roxilan; Roximac; Roximain; Roximax; Roximed; Roximerck; Roximic; Roximin; Roximisan; Roximol; Roximycin; Roxinga; Roxinox; Roxiratio; Roxirocin; Roxisara; Roxistad; Roxitas; Roxitazon; Roxithrin; Roxithro; Roxithrostad; Roxitil; Roxitin; Roxitis; Roxitop; Roxitran; Roxitrom; Roxitromycine; Roxitron; Roxivar; Roxivinol; Roxivista; Roxl-150; Roxo; Roxomycin; Roxy; Roxy-150; Rulid; Rulide; Rulide D; Surlid; Tirabicin; Xthrocin

$$$$
