
  Mrv0541 02231216002D          

  9  8  0  0  1  0            999 V2000
    1.9520    1.9520    0.0000 N   0  0  0  0  0  0  0  0  0  0  0  0
    1.9520    1.1270    0.0000 C   0  0  1  0  0  0  0  0  0  0  0  0
    1.2375    0.7145    0.0000 C   0  0  0  0  0  0  0  0  0  0  0  0
    0.5230    1.1270    0.0000 S   0  0  1  0  0  0  0  0  0  0  0  0
   -0.1914    0.7145    0.0000 O   0  0  0  0  0  0  0  0  0  0  0  0
    0.5230    1.9520    0.0000 O   0  0  0  0  0  0  0  0  0  0  0  0
    2.6664    0.7145    0.0000 C   0  0  0  0  0  0  0  0  0  0  0  0
    3.3809    1.1270    0.0000 O   0  0  0  0  0  0  0  0  0  0  0  0
    2.6664   -0.1105    0.0000 O   0  0  0  0  0  0  0  0  0  0  0  0
  2  1  1  6  0  0  0
  2  3  1  0  0  0  0
  3  4  1  0  0  0  0
  4  5  1  1  0  0  0
  4  6  2  0  0  0  0
  2  7  1  0  0  0  0
  7  8  1  0  0  0  0
  7  9  2  0  0  0  0
M  END
> <DATABASE_ID>
DB02153

> <DATABASE_NAME>
drugbank

> <SMILES>
N[C@@H](C[S@@](O)=O)C(O)=O

> <INCHI_IDENTIFIER>
InChI=1S/C3H7NO4S/c4-2(3(5)6)1-9(7)8/h2H,1,4H2,(H,5,6)(H,7,8)/t2-/m0/s1

> <INCHI_KEY>
ADVPTQAUNPRNPO-REOHCLBHSA-N

> <FORMULA>
C3H7NO4S

> <MOLECULAR_WEIGHT>
153.157

> <EXACT_MASS>
153.009578407

> <JCHEM_ACCEPTOR_COUNT>
5

> <JCHEM_ATOM_COUNT>
16

> <JCHEM_AVERAGE_NEUTRAL_MICROSPECIES_CHARGE>
-1.0081117328656037

> <JCHEM_AVERAGE_POLARIZABILITY>
12.949980949636586

> <JCHEM_BIOAVAILABILITY>
1

> <JCHEM_DONOR_COUNT>
3

> <JCHEM_FORMAL_CHARGE>
0

> <JCHEM_GHOSE_FILTER>
0

> <JCHEM_IUPAC>
(2R)-2-amino-3-[(R)-sulfino]propanoic acid

> <ALOGPS_LOGP>
-2.06

> <JCHEM_LOGP>
-3.82971344535222

> <ALOGPS_LOGS>
-0.70

> <JCHEM_MDDR_LIKE_RULE>
0

> <JCHEM_NEUTRAL_CHARGE>
-1

> <JCHEM_NUMBER_OF_RINGS>
0

> <JCHEM_PHYSIOLOGICAL_CHARGE>
-1

> <JCHEM_PKA>
1.9941886686000128

> <JCHEM_PKA_STRONGEST_ACIDIC>
1.1165371093144163

> <JCHEM_PKA_STRONGEST_BASIC>
9.086747204482425

> <JCHEM_POLAR_SURFACE_AREA>
100.62

> <JCHEM_REFRACTIVITY>
28.9921

> <JCHEM_ROTATABLE_BOND_COUNT>
3

> <JCHEM_RULE_OF_FIVE>
1

> <ALOGPS_SOLUBILITY>
3.02e+01 g/l

> <JCHEM_TRADITIONAL_IUPAC>
tetrahydrofolic acid

> <JCHEM_VEBER_RULE>
0

> <DRUGBANK_ID>
DB02153

> <SECONDARY_ACCESSION_NUMBERS>
EXPT01040; EXPT01032; DB01769

> <DRUG_GROUPS>
experimental

> <GENERIC_NAME>
3-sulfino-L-alanine

> <SYNONYMS>
(2R)-2-amino-3-sulfinopropanoic acid; 3-sulfinoalanine; 3-Sulphino-L-alanine; L-Cysteinesulfinic acid; S-Cysteinesulfinic acid; S-Sulfinocysteine

$$$$
