
  Mrv0541 02231216482D          

 13 12  0  0  1  0            999 V2000
    2.2836    2.1434    0.0000 N   0  0  0  0  0  0  0  0  0  0  0  0
    2.9980    2.5559    0.0000 C   0  0  0  0  0  0  0  0  0  0  0  0
    3.7125    2.1434    0.0000 C   0  0  0  0  0  0  0  0  0  0  0  0
    4.4270    2.5559    0.0000 C   0  0  0  0  0  0  0  0  0  0  0  0
    4.4270    3.3809    0.0000 O   0  0  0  0  0  0  0  0  0  0  0  0
    5.1414    2.1434    0.0000 N   0  0  0  0  0  0  0  0  0  0  0  0
    5.8559    2.5559    0.0000 C   0  0  0  0  0  0  0  0  0  0  0  0
    6.5704    2.1434    0.0000 C   0  0  0  0  0  0  0  0  0  0  0  0
    7.2849    2.5559    0.0000 C   0  0  2  0  0  0  0  0  0  0  0  0
    7.2849    3.3809    0.0000 N   0  0  0  0  0  0  0  0  0  0  0  0
    7.9993    2.1434    0.0000 C   0  0  0  0  0  0  0  0  0  0  0  0
    8.7138    2.5559    0.0000 O   0  0  0  0  0  0  0  0  0  0  0  0
    7.9993    1.3184    0.0000 O   0  0  0  0  0  0  0  0  0  0  0  0
  1  2  1  0  0  0  0
  2  3  1  0  0  0  0
  3  4  1  0  0  0  0
  4  5  2  0  0  0  0
  4  6  1  0  0  0  0
  6  7  1  0  0  0  0
  7  8  1  0  0  0  0
  8  9  1  0  0  0  0
  9 10  1  6  0  0  0
  9 11  1  0  0  0  0
 11 12  1  0  0  0  0
 11 13  2  0  0  0  0
M  END
> <DATABASE_ID>
DB03236

> <DATABASE_NAME>
drugbank

> <SMILES>
NCCC(=O)NCC[C@H](N)C(O)=O

> <INCHI_IDENTIFIER>
InChI=1S/C7H15N3O3/c8-3-1-6(11)10-4-2-5(9)7(12)13/h5H,1-4,8-9H2,(H,10,11)(H,12,13)/t5-/m0/s1

> <INCHI_KEY>
ZTTQHTAQUGLWNQ-YFKPBYRVSA-N

> <FORMULA>
C7H15N3O3

> <MOLECULAR_WEIGHT>
189.2123

> <EXACT_MASS>
189.111341361

> <JCHEM_ACCEPTOR_COUNT>
5

> <JCHEM_ATOM_COUNT>
28

> <JCHEM_AVERAGE_NEUTRAL_MICROSPECIES_CHARGE>
0.9806909961674171

> <JCHEM_AVERAGE_POLARIZABILITY>
19.522711405716038

> <JCHEM_BIOAVAILABILITY>
1

> <JCHEM_DONOR_COUNT>
4

> <JCHEM_FORMAL_CHARGE>
0

> <JCHEM_GHOSE_FILTER>
0

> <JCHEM_IUPAC>
(2S)-2-amino-4-(3-aminopropanamido)butanoic acid

> <ALOGPS_LOGP>
-3.62

> <JCHEM_LOGP>
-5.100777859265844

> <ALOGPS_LOGS>
-0.83

> <JCHEM_MDDR_LIKE_RULE>
0

> <JCHEM_NEUTRAL_CHARGE>
1

> <JCHEM_NUMBER_OF_RINGS>
0

> <JCHEM_PHYSIOLOGICAL_CHARGE>
1

> <JCHEM_PKA>
15.853675181654165

> <JCHEM_PKA_STRONGEST_ACIDIC>
2.3520746713440563

> <JCHEM_PKA_STRONGEST_BASIC>
9.40788060393236

> <JCHEM_POLAR_SURFACE_AREA>
118.44

> <JCHEM_REFRACTIVITY>
46.0668

> <JCHEM_ROTATABLE_BOND_COUNT>
6

> <JCHEM_RULE_OF_FIVE>
1

> <ALOGPS_SOLUBILITY>
2.83e+01 g/l

> <JCHEM_TRADITIONAL_IUPAC>
tetrahydrofolic acid

> <JCHEM_VEBER_RULE>
0

> <DRUGBANK_ID>
DB03236

> <SECONDARY_ACCESSION_NUMBERS>
EXPT00060

> <DRUG_GROUPS>
experimental

> <GENERIC_NAME>
(2s)-4-(Beta-Alanylamino)-2-Aminobutanoic Acid

$$$$
