
  Mrv0541 09131211522D          

 19 21  0  0  0  0            999 V2000
    5.7158    0.8250    0.0000 C   0  0  0  0  0  0  0  0  0  0  0  0
    0.7145   -0.4125    0.0000 C   0  0  0  0  0  0  0  0  0  0  0  0
    1.4289    0.0000    0.0000 C   0  0  0  0  0  0  0  0  0  0  0  0
    5.0013   -1.2375    0.0000 C   0  0  0  0  0  0  0  0  0  0  0  0
    4.2868   -1.6500    0.0000 C   0  0  0  0  0  0  0  0  0  0  0  0
    0.7145   -1.2375    0.0000 C   0  0  0  0  0  0  0  0  0  0  0  0
    4.2868    0.0000    0.0000 C   0  0  0  0  0  0  0  0  0  0  0  0
    2.8579    0.0000    0.0000 C   0  0  0  0  0  0  0  0  0  0  0  0
    5.7158    0.0000    0.0000 C   0  0  0  0  0  0  0  0  0  0  0  0
    5.0013   -0.4125    0.0000 C   0  0  0  0  0  0  0  0  0  0  0  0
    2.1434   -0.4125    0.0000 C   0  0  0  0  0  0  0  0  0  0  0  0
    3.5724   -0.4125    0.0000 C   0  0  0  0  0  0  0  0  0  0  0  0
    3.5724   -1.2375    0.0000 C   0  0  0  0  0  0  0  0  0  0  0  0
    2.1434   -1.2375    0.0000 C   0  0  0  0  0  0  0  0  0  0  0  0
    6.4302   -0.4125    0.0000 C   0  0  0  0  0  0  0  0  0  0  0  0
    1.4289   -1.6500    0.0000 N   0  0  0  0  0  0  0  0  0  0  0  0
    7.1447    0.0000    0.0000 O   0  0  0  0  0  0  0  0  0  0  0  0
    6.4302   -1.2375    0.0000 O   0  0  0  0  0  0  0  0  0  0  0  0
    2.8579   -1.6500    0.0000 O   0  0  0  0  0  0  0  0  0  0  0  0
  3  2  2  0  0  0  0
  5  4  2  0  0  0  0
  6  2  1  0  0  0  0
  9  1  1  0  0  0  0
 10  4  1  0  0  0  0
 10  7  2  0  0  0  0
 10  9  1  0  0  0  0
 11  3  1  0  0  0  0
 11  8  1  0  0  0  0
 12  7  1  0  0  0  0
 12  8  1  0  0  0  0
 13  5  1  0  0  0  0
 13 12  2  0  0  0  0
 14 11  2  0  0  0  0
 15  9  1  0  0  0  0
 16  6  2  0  0  0  0
 16 14  1  0  0  0  0
 17 15  2  0  0  0  0
 18 15  1  0  0  0  0
 19 13  1  0  0  0  0
 19 14  1  0  0  0  0
M  END
> <DATABASE_ID>
DB13514

> <DATABASE_NAME>
drugbank

> <SMILES>
CC(C(O)=O)C1=CC2=C(OC3=C(C2)C=CC=N3)C=C1

> <INCHI_IDENTIFIER>
InChI=1S/C15H13NO3/c1-9(15(17)18)10-4-5-13-12(7-10)8-11-3-2-6-16-14(11)19-13/h2-7,9H,8H2,1H3,(H,17,18)

> <INCHI_KEY>
TVQZAMVBTVNYLA-UHFFFAOYSA-N

> <FORMULA>
C15H13NO3

> <MOLECULAR_WEIGHT>
255.2686

> <EXACT_MASS>
255.089543287

> <JCHEM_ACCEPTOR_COUNT>
3

> <JCHEM_ATOM_COUNT>
32

> <JCHEM_AVERAGE_NEUTRAL_MICROSPECIES_CHARGE>
-0.9989917181141773

> <JCHEM_AVERAGE_POLARIZABILITY>
26.857292482306768

> <JCHEM_BIOAVAILABILITY>
1

> <JCHEM_DONOR_COUNT>
1

> <JCHEM_FORMAL_CHARGE>
0

> <JCHEM_GHOSE_FILTER>
1

> <JCHEM_IUPAC>
2-{5H-chromeno[2,3-b]pyridin-7-yl}propanoic acid

> <ALOGPS_LOGP>
2.54

> <JCHEM_LOGP>
2.9440625302755477

> <ALOGPS_LOGS>
-2.39

> <JCHEM_MDDR_LIKE_RULE>
0

> <JCHEM_NEUTRAL_CHARGE>
-1

> <JCHEM_NUMBER_OF_RINGS>
3

> <JCHEM_PHYSIOLOGICAL_CHARGE>
-1

> <JCHEM_PKA_STRONGEST_ACIDIC>
3.6293612841748346

> <JCHEM_PKA_STRONGEST_BASIC>
2.236534570729297

> <JCHEM_POLAR_SURFACE_AREA>
59.42

> <JCHEM_REFRACTIVITY>
70.01670000000001

> <JCHEM_ROTATABLE_BOND_COUNT>
2

> <JCHEM_RULE_OF_FIVE>
1

> <ALOGPS_SOLUBILITY>
1.03e+00 g/l

> <JCHEM_TRADITIONAL_IUPAC>
biotin

> <JCHEM_VEBER_RULE>
0

> <DRUGBANK_ID>
DB13514

> <DRUG_GROUPS>
experimental; investigational

> <GENERIC_NAME>
Pranoprofen

> <SYNONYMS>
Pranoprofen

$$$$
