
  Mrv0541 02231217362D          

 10  9  0  0  1  0            999 V2000
    1.9520    1.9520    0.0000 C   0  0  0  0  0  0  0  0  0  0  0  0
    1.9520    1.1270    0.0000 C   0  0  1  0  0  0  0  0  0  0  0  0
    1.2375    0.7145    0.0000 C   0  0  1  0  0  0  0  0  0  0  0  0
    1.2375   -0.1105    0.0000 N   0  0  0  0  0  0  0  0  0  0  0  0
    0.5230    1.1270    0.0000 C   0  0  0  0  0  0  0  0  0  0  0  0
   -0.1914    0.7145    0.0000 O   0  0  0  0  0  0  0  0  0  0  0  0
    0.5230    1.9520    0.0000 O   0  0  0  0  0  0  0  0  0  0  0  0
    2.6664    0.7145    0.0000 C   0  0  0  0  0  0  0  0  0  0  0  0
    3.3809    1.1270    0.0000 O   0  0  0  0  0  0  0  0  0  0  0  0
    2.6664   -0.1105    0.0000 O   0  0  0  0  0  0  0  0  0  0  0  0
  2  1  1  6  0  0  0
  2  3  1  0  0  0  0
  3  4  1  1  0  0  0
  3  5  1  0  0  0  0
  5  6  1  0  0  0  0
  5  7  2  0  0  0  0
  2  8  1  0  0  0  0
  8  9  1  0  0  0  0
  8 10  2  0  0  0  0
M  END
> <DATABASE_ID>
DB04313

> <DATABASE_NAME>
drugbank

> <SMILES>
C[C@@H]([C@@H](N)C(O)=O)C(O)=O

> <INCHI_IDENTIFIER>
InChI=1S/C5H9NO4/c1-2(4(7)8)3(6)5(9)10/h2-3H,6H2,1H3,(H,7,8)(H,9,10)/t2-,3+/m0/s1

> <INCHI_KEY>
LXRUAYBIUSUULX-STHAYSLISA-N

> <FORMULA>
C5H9NO4

> <MOLECULAR_WEIGHT>
147.1293

> <EXACT_MASS>
147.053157781

> <JCHEM_ACCEPTOR_COUNT>
5

> <JCHEM_ATOM_COUNT>
19

> <JCHEM_AVERAGE_NEUTRAL_MICROSPECIES_CHARGE>
-0.9858207532851112

> <JCHEM_AVERAGE_POLARIZABILITY>
13.144014738550755

> <JCHEM_BIOAVAILABILITY>
1

> <JCHEM_DONOR_COUNT>
3

> <JCHEM_FORMAL_CHARGE>
0

> <JCHEM_GHOSE_FILTER>
0

> <JCHEM_IUPAC>
(2R,3S)-2-amino-3-methylbutanedioic acid

> <ALOGPS_LOGP>
-3.30

> <JCHEM_LOGP>
-2.9678511295775207

> <ALOGPS_LOGS>
-0.18

> <JCHEM_MDDR_LIKE_RULE>
0

> <JCHEM_NEUTRAL_CHARGE>
-1

> <JCHEM_NUMBER_OF_RINGS>
0

> <JCHEM_PHYSIOLOGICAL_CHARGE>
-1

> <JCHEM_PKA>
5.218916889007896

> <JCHEM_PKA_STRONGEST_ACIDIC>
1.8740175638422685

> <JCHEM_PKA_STRONGEST_BASIC>
9.676481201050818

> <JCHEM_POLAR_SURFACE_AREA>
100.62

> <JCHEM_REFRACTIVITY>
31.107200000000002

> <JCHEM_ROTATABLE_BOND_COUNT>
3

> <JCHEM_RULE_OF_FIVE>
1

> <ALOGPS_SOLUBILITY>
9.74e+01 g/l

> <JCHEM_TRADITIONAL_IUPAC>
tetrahydrofolic acid

> <JCHEM_VEBER_RULE>
0

> <DRUGBANK_ID>
DB04313

> <SECONDARY_ACCESSION_NUMBERS>
EXPT00104

> <DRUG_GROUPS>
experimental; investigational

> <GENERIC_NAME>
(3S)-3-methyl-D-aspartic acid

> <SYNONYMS>
3-methyl-beta-D-aspartic acid; D-methyl aspartic acid

$$$$
