 
  Mrv0541 02231214392D          
 
 35 36  0  0  1  0            999 V2000
   10.8277   -9.6141    0.0000 C   0  0  2  0  0  0  0  0  0  0  0  0
   10.8277  -10.4413    0.0000 C   0  0  2  0  0  0  0  0  0  0  0  0
   11.5422  -10.8528    0.0000 C   0  0  0  0  0  0  0  0  0  0  0  0
   12.2568  -10.4413    0.0000 O   0  0  0  0  0  0  0  0  0  0  0  0
   12.2568   -9.6141    0.0000 C   0  0  2  0  0  0  0  0  0  0  0  0
   11.5422   -9.1984    0.0000 C   0  0  2  0  0  0  0  0  0  0  0  0
    9.4019  -10.4454    0.0000 C   0  0  1  0  0  0  0  0  0  0  0  0
   10.1170  -10.8612    0.0000 C   0  0  0  0  0  0  0  0  0  0  0  0
   10.1138   -9.2047    0.0000 O   0  0  0  0  0  0  0  0  0  0  0  0
   11.5343   -8.3711    0.0000 O   0  0  0  0  0  0  0  0  0  0  0  0
   12.9686   -9.1984    0.0000 C   0  0  0  0  0  0  0  0  0  0  0  0
   13.6835   -9.6058    0.0000 C   0  0  0  0  0  0  0  0  0  0  0  0
   14.3985   -9.1943    0.0000 C   0  0  0  0  0  0  0  0  0  0  0  0
   15.1135   -9.6016    0.0000 C   0  0  0  0  0  0  0  0  0  0  0  0
   15.8243   -9.1901    0.0000 O   0  0  0  0  0  0  0  0  0  0  0  0
   16.5392   -9.5975    0.0000 C   0  0  0  0  0  0  0  0  0  0  0  0
   17.2542   -9.1859    0.0000 C   0  0  0  0  0  0  0  0  0  0  0  0
   17.9692   -9.5933    0.0000 C   0  0  0  0  0  0  0  0  0  0  0  0
   18.6841   -9.1818    0.0000 C   0  0  0  0  0  0  0  0  0  0  0  0
   19.3991   -9.5892    0.0000 C   0  0  0  0  0  0  0  0  0  0  0  0
   20.1141   -9.1777    0.0000 C   0  0  0  0  0  0  0  0  0  0  0  0
   20.8291   -9.5850    0.0000 C   0  0  0  0  0  0  0  0  0  0  0  0
   21.5398   -9.1734    0.0000 C   0  0  0  0  0  0  0  0  0  0  0  0
   22.2549   -9.5809    0.0000 C   0  0  0  0  0  0  0  0  0  0  0  0
   22.9699   -9.1652    0.0000 O   0  0  0  0  0  0  0  0  0  0  0  0
   13.6853  -10.4330    0.0000 C   0  0  0  0  0  0  0  0  0  0  0  0
   15.1153  -10.4288    0.0000 O   0  0  0  0  0  0  0  0  0  0  0  0
   22.2585  -10.4080    0.0000 O   0  0  0  0  0  0  0  0  0  0  0  0
    8.6845  -10.8602    0.0000 C   0  0  2  0  0  0  0  0  0  0  0  0
    7.9680  -10.4437    0.0000 C   0  0  2  0  0  0  0  0  0  0  0  0
    7.2506  -10.8585    0.0000 C   0  0  2  0  0  0  0  0  0  0  0  0
    6.5341  -10.4420    0.0000 C   0  0  0  0  0  0  0  0  0  0  0  0
    9.4144  -11.2352    0.0000 O   0  0  0  0  0  0  0  0  0  0  0  0
    7.2496  -11.6858    0.0000 O   0  0  0  0  0  0  0  0  0  0  0  0
    7.9690   -9.6166    0.0000 C   0  0  0  0  0  0  0  0  0  0  0  0
 31 32  1  0  0  0  0
  3  4  1  0  0  0  0
  7 33  1  1  0  0  0
 29 33  1  1  0  0  0
  4  5  1  0  0  0  0
 31 34  1  1  0  0  0
  5  6  1  0  0  0  0
 30 35  1  6  0  0  0
  7  8  1  0  0  0  0
  2  8  1  6  0  0  0
  1  9  1  1  0  0  0
  6 10  1  1  0  0  0
  5 11  1  6  0  0  0
 11 12  1  0  0  0  0
 12 13  2  0  0  0  0
 13 14  1  0  0  0  0
 14 15  1  0  0  0  0
 15 16  1  0  0  0  0
 16 17  1  0  0  0  0
 17 18  1  0  0  0  0
 18 19  1  0  0  0  0
 19 20  1  0  0  0  0
 20 21  1  0  0  0  0
 21 22  1  0  0  0  0
 22 23  1  0  0  0  0
 23 24  1  0  0  0  0
 24 25  1  0  0  0  0
 12 26  1  0  0  0  0
 14 27  2  0  0  0  0
 24 28  2  0  0  0  0
  7 29  1  0  0  0  0
  1  2  1  0  0  0  0
 29 30  1  0  0  0  0
  1  6  1  0  0  0  0
 30 31  1  0  0  0  0
  2  3  1  0  0  0  0
M  END
> <DATABASE_ID>
DB00410

> <DATABASE_NAME>
drugbank

> <SMILES>
C[C@H](O)[C@H](C)[C@@H]1O[C@H]1C[C@H]1CO[C@@H](C\C(C)=C\C(=O)OCCCCCCCCC(O)=O)[C@H](O)[C@@H]1O

> <INCHI_IDENTIFIER>
InChI=1S/C26H44O9/c1-16(13-23(30)33-11-9-7-5-4-6-8-10-22(28)29)12-20-25(32)24(31)19(15-34-20)14-21-26(35-21)17(2)18(3)27/h13,17-21,24-27,31-32H,4-12,14-15H2,1-3H3,(H,28,29)/b16-13+/t17-,18-,19-,20-,21-,24+,25-,26-/m0/s1

> <INCHI_KEY>
MINDHVHHQZYEEK-HBBNESRFSA-N

> <FORMULA>
C26H44O9

> <MOLECULAR_WEIGHT>
500.6222

> <EXACT_MASS>
500.298533006

> <JCHEM_ACCEPTOR_COUNT>
8

> <JCHEM_ATOM_COUNT>
79

> <JCHEM_AVERAGE_NEUTRAL_MICROSPECIES_CHARGE>
-0.9932225599408484

> <JCHEM_AVERAGE_POLARIZABILITY>
55.816993865961905

> <JCHEM_BIOAVAILABILITY>
0

> <JCHEM_DONOR_COUNT>
4

> <JCHEM_FORMAL_CHARGE>
0

> <JCHEM_GHOSE_FILTER>
0

> <JCHEM_IUPAC>
9-{[(2E)-4-[(2S,3R,4R,5S)-3,4-dihydroxy-5-{[(2S,3S)-3-[(2S,3S)-3-hydroxybutan-2-yl]oxiran-2-yl]methyl}oxan-2-yl]-3-methylbut-2-enoyl]oxy}nonanoic acid

> <ALOGPS_LOGP>
2.25

> <JCHEM_LOGP>
2.4513256756666664

> <ALOGPS_LOGS>
-4.28

> <JCHEM_MDDR_LIKE_RULE>
0

> <JCHEM_NEUTRAL_CHARGE>
-1

> <JCHEM_NUMBER_OF_RINGS>
2

> <JCHEM_PHYSIOLOGICAL_CHARGE>
-1

> <JCHEM_PKA>
13.104769927976749

> <JCHEM_PKA_STRONGEST_ACIDIC>
4.834071699171744

> <JCHEM_PKA_STRONGEST_BASIC>
-2.71476683945935

> <JCHEM_POLAR_SURFACE_AREA>
146.04999999999998

> <JCHEM_REFRACTIVITY>
129.3941

> <JCHEM_ROTATABLE_BOND_COUNT>
17

> <JCHEM_RULE_OF_FIVE>
0

> <ALOGPS_SOLUBILITY>
2.65e-02 g/l

> <JCHEM_TRADITIONAL_IUPAC>
tetrahydrofolic acid

> <JCHEM_VEBER_RULE>
0

> <DRUGBANK_ID>
DB00410

> <SECONDARY_ACCESSION_NUMBERS>
APRD00162

> <DRUG_GROUPS>
approved; investigational; vet_approved

> <GENERIC_NAME>
Mupirocin

> <SYNONYMS>
9-[(E)-4-[(2S,3R,4R,5S)-3,4-dihydroxy-5-[[(2S,3S)-3- [(2S,3S)-3-hydroxybutan-2-yl]oxiran-2-yl]methyl] oxan-2-yl]-3-methylbut-2-enoyl]oxynonanoic acid; Mupirocin; Mupirocina; Mupirocine; Mupirocinum; Pseudomonic acid; Pseudomonic acid A

> <PRODUCTS>
Bactroban; Bactroban Cream; Bactroban Nasal Ointment; Centany; Centany AT; DermacinRx Clorhexacin; DermacinRx Surgical PharmaPak; Dermawerx Surgical Plus Pak; Levocetirizine Dihydrochloride 2% / Mupirocin 2% / Triamcinolone Acetonide 0.025%; Lidocaine 2% / Mupirocin 2%; Metronidazole 1% / Mupirocin 2%; Metronidazole 1% / Mupirocin 2% /; Mupirocin; Mupirocin 2%; Mupirocin Calcium; Mupirocin Powder; NuSurgePak Surgical Prep/CarePak; PS1 Aciurgy Pack; PS2 Aciurgy Pack; Pirnuo; Pre and Post Sx Pouch; Stramucin; Taro-mupirocin; WhyteDerm SurgiPak

> <INTERNATIONAL_BRANDS>
Bactroban Nasal; Plasimine; Spectroderm; T-Bact; Turixin

> <SALTS>
Mupirocin calcium

$$$$
