
  Mrv0541 02231216232D          

  9  8  0  0  1  0            999 V2000
   -0.1914    0.7145    0.0000 C   0  0  0  0  0  0  0  0  0  0  0  0
    0.5230    1.1270    0.0000 C   0  0  0  0  0  0  0  0  0  0  0  0
    0.5230    1.9520    0.0000 C   0  0  0  0  0  0  0  0  0  0  0  0
    1.2375    0.7145    0.0000 C   0  0  1  0  0  0  0  0  0  0  0  0
    1.2375   -0.1105    0.0000 N   0  0  0  0  0  0  0  0  0  0  0  0
    1.9520    1.1270    0.0000 C   0  0  0  0  0  0  0  0  0  0  0  0
    1.9520    1.9520    0.0000 O   0  0  0  0  0  0  0  0  0  0  0  0
    2.6664    0.7145    0.0000 N   0  0  0  0  0  0  0  0  0  0  0  0
    3.3809    1.1270    0.0000 O   0  0  0  0  0  0  0  0  0  0  0  0
  1  2  1  0  0  0  0
  2  3  1  0  0  0  0
  2  4  1  0  0  0  0
  4  5  1  6  0  0  0
  4  6  1  0  0  0  0
  6  7  2  0  0  0  0
  6  8  1  0  0  0  0
  8  9  1  0  0  0  0
M  END
> <DATABASE_ID>
DB02697

> <DATABASE_NAME>
drugbank

> <SMILES>
CC(C)[C@@H](N)C(=O)NO

> <INCHI_IDENTIFIER>
InChI=1S/C5H12N2O2/c1-3(2)4(6)5(8)7-9/h3-4,9H,6H2,1-2H3,(H,7,8)/t4-/m1/s1

> <INCHI_KEY>
USSBBYRBOWZYSB-SCSAIBSYSA-N

> <FORMULA>
C5H12N2O2

> <MOLECULAR_WEIGHT>
132.161

> <EXACT_MASS>
132.089877638

> <JCHEM_ACCEPTOR_COUNT>
3

> <JCHEM_ATOM_COUNT>
21

> <JCHEM_AVERAGE_NEUTRAL_MICROSPECIES_CHARGE>
0.8795063912993006

> <JCHEM_AVERAGE_POLARIZABILITY>
13.506503643071532

> <JCHEM_BIOAVAILABILITY>
1

> <JCHEM_DONOR_COUNT>
3

> <JCHEM_FORMAL_CHARGE>
0

> <JCHEM_GHOSE_FILTER>
0

> <JCHEM_IUPAC>
(2R)-2-amino-N-hydroxy-3-methylbutanamide

> <ALOGPS_LOGP>
-0.85

> <JCHEM_LOGP>
-0.9805380356986022

> <ALOGPS_LOGS>
0.13

> <JCHEM_MDDR_LIKE_RULE>
0

> <JCHEM_NEUTRAL_CHARGE>
1

> <JCHEM_NUMBER_OF_RINGS>
0

> <JCHEM_PHYSIOLOGICAL_CHARGE>
1

> <JCHEM_PKA>
16.80264751416566

> <JCHEM_PKA_STRONGEST_ACIDIC>
8.930800425322193

> <JCHEM_PKA_STRONGEST_BASIC>
7.944413695713127

> <JCHEM_POLAR_SURFACE_AREA>
75.35000000000001

> <JCHEM_REFRACTIVITY>
33.0797

> <JCHEM_ROTATABLE_BOND_COUNT>
2

> <JCHEM_RULE_OF_FIVE>
1

> <ALOGPS_SOLUBILITY>
1.79e+02 g/l

> <JCHEM_TRADITIONAL_IUPAC>
tetrahydrofolic acid

> <JCHEM_VEBER_RULE>
0

> <DRUGBANK_ID>
DB02697

> <SECONDARY_ACCESSION_NUMBERS>
EXPT01693

> <DRUG_GROUPS>
experimental

> <GENERIC_NAME>
Hydroxyaminovaline

$$$$
