
  Mrv0541 02231217482D          

  9  9  0  0  0  0            999 V2000
    0.0157    1.7274    0.0000 N   0  0  0  0  0  0  0  0  0  0  0  0
    0.5678    1.1143    0.0000 C   0  0  0  0  0  0  0  0  0  0  0  0
    1.2352    0.6294    0.0000 C   0  0  0  0  0  0  0  0  0  0  0  0
    0.9803   -0.1553    0.0000 C   0  0  0  0  0  0  0  0  0  0  0  0
    0.1553   -0.1553    0.0000 C   0  0  0  0  0  0  0  0  0  0  0  0
   -0.0997    0.6294    0.0000 C   0  0  0  0  0  0  0  0  0  0  0  0
    1.1198    1.7274    0.0000 C   0  0  0  0  0  0  0  0  0  0  0  0
    0.8649    2.5120    0.0000 O   0  0  0  0  0  0  0  0  0  0  0  0
    1.9268    1.5559    0.0000 O   0  0  0  0  0  0  0  0  0  0  0  0
  1  2  1  0  0  0  0
  2  3  1  0  0  0  0
  3  4  1  0  0  0  0
  4  5  1  0  0  0  0
  5  6  1  0  0  0  0
  2  6  1  0  0  0  0
  2  7  1  0  0  0  0
  7  8  1  0  0  0  0
  7  9  2  0  0  0  0
M  END
> <DATABASE_ID>
DB04620

> <DATABASE_NAME>
drugbank

> <SMILES>
NC1(CCCC1)C(O)=O

> <INCHI_IDENTIFIER>
InChI=1S/C6H11NO2/c7-6(5(8)9)3-1-2-4-6/h1-4,7H2,(H,8,9)

> <INCHI_KEY>
NILQLFBWTXNUOE-UHFFFAOYSA-N

> <FORMULA>
C6H11NO2

> <MOLECULAR_WEIGHT>
129.157

> <EXACT_MASS>
129.078978601

> <JCHEM_ACCEPTOR_COUNT>
3

> <JCHEM_ATOM_COUNT>
20

> <JCHEM_AVERAGE_NEUTRAL_MICROSPECIES_CHARGE>
-0.0014627968951340664

> <JCHEM_AVERAGE_POLARIZABILITY>
13.226667802988839

> <JCHEM_BIOAVAILABILITY>
1

> <JCHEM_DONOR_COUNT>
2

> <JCHEM_FORMAL_CHARGE>
0

> <JCHEM_GHOSE_FILTER>
0

> <JCHEM_IUPAC>
1-aminocyclopentane-1-carboxylic acid

> <ALOGPS_LOGP>
-2.30

> <JCHEM_LOGP>
-1.8270617506905722

> <ALOGPS_LOGS>
0.12

> <JCHEM_MDDR_LIKE_RULE>
0

> <JCHEM_NEUTRAL_CHARGE>
0

> <JCHEM_NUMBER_OF_RINGS>
1

> <JCHEM_PHYSIOLOGICAL_CHARGE>
0

> <JCHEM_PKA_STRONGEST_ACIDIC>
2.476824999493866

> <JCHEM_PKA_STRONGEST_BASIC>
9.82535845481508

> <JCHEM_POLAR_SURFACE_AREA>
63.32

> <JCHEM_REFRACTIVITY>
32.456399999999995

> <JCHEM_ROTATABLE_BOND_COUNT>
1

> <JCHEM_RULE_OF_FIVE>
1

> <ALOGPS_SOLUBILITY>
1.71e+02 g/l

> <JCHEM_TRADITIONAL_IUPAC>
biotin

> <JCHEM_VEBER_RULE>
0

> <DRUGBANK_ID>
DB04620

> <DRUG_GROUPS>
experimental

> <GENERIC_NAME>
Cycloleucine

> <SYNONYMS>
1-amino-1-cyclopentanecarboxylic acid; 1-aminocyclopentane-1-carboxylic acid; 1-aminocyclopentanecarboxylic acid; Cyclo-leucine; Cycloleucin

> <SALTS>
Cycloleucine hydrochloride

$$$$
