
  Mrv0541 02231216522D          

  9  9  0  0  0  0            999 V2000
    2.8579    0.0000    0.0000 O   0  0  0  0  0  0  0  0  0  0  0  0
    2.1434   -0.4125    0.0000 C   0  0  0  0  0  0  0  0  0  0  0  0
    1.4289    0.0000    0.0000 C   0  0  0  0  0  0  0  0  0  0  0  0
    0.7145   -0.4125    0.0000 C   0  0  0  0  0  0  0  0  0  0  0  0
    0.0000    0.0000    0.0000 C   0  0  0  0  0  0  0  0  0  0  0  0
    0.0000    0.8250    0.0000 C   0  0  0  0  0  0  0  0  0  0  0  0
    0.7145    1.2375    0.0000 C   0  0  0  0  0  0  0  0  0  0  0  0
    0.7145    2.0625    0.0000 I   0  0  0  0  0  0  0  0  0  0  0  0
    1.4289    0.8250    0.0000 C   0  0  0  0  0  0  0  0  0  0  0  0
  1  2  1  0  0  0  0
  2  3  1  0  0  0  0
  3  4  2  0  0  0  0
  4  5  1  0  0  0  0
  5  6  2  0  0  0  0
  6  7  1  0  0  0  0
  7  8  1  0  0  0  0
  7  9  2  0  0  0  0
  3  9  1  0  0  0  0
M  END
> <DATABASE_ID>
DB03339

> <DATABASE_NAME>
drugbank

> <SMILES>
OCC1=CC=CC(I)=C1

> <INCHI_IDENTIFIER>
InChI=1S/C7H7IO/c8-7-3-1-2-6(4-7)5-9/h1-4,9H,5H2

> <INCHI_KEY>
QGCCNWSXJHGUNL-UHFFFAOYSA-N

> <FORMULA>
C7H7IO

> <MOLECULAR_WEIGHT>
234.0344

> <EXACT_MASS>
233.954158266

> <JCHEM_ACCEPTOR_COUNT>
1

> <JCHEM_ATOM_COUNT>
16

> <JCHEM_AVERAGE_NEUTRAL_MICROSPECIES_CHARGE>
-1.1506258185598207e-08

> <JCHEM_AVERAGE_POLARIZABILITY>
17.328626435189054

> <JCHEM_BIOAVAILABILITY>
1

> <JCHEM_DONOR_COUNT>
1

> <JCHEM_FORMAL_CHARGE>
0

> <JCHEM_GHOSE_FILTER>
0

> <JCHEM_IUPAC>
(3-iodophenyl)methanol

> <ALOGPS_LOGP>
1.95

> <JCHEM_LOGP>
2.1348405269999997

> <ALOGPS_LOGS>
-2.85

> <JCHEM_MDDR_LIKE_RULE>
0

> <JCHEM_NEUTRAL_CHARGE>
0

> <JCHEM_NUMBER_OF_RINGS>
1

> <JCHEM_PHYSIOLOGICAL_CHARGE>
0

> <JCHEM_PKA_STRONGEST_ACIDIC>
14.93349184716362

> <JCHEM_PKA_STRONGEST_BASIC>
-2.8278906660506333

> <JCHEM_POLAR_SURFACE_AREA>
20.23

> <JCHEM_REFRACTIVITY>
46.2364

> <JCHEM_ROTATABLE_BOND_COUNT>
1

> <JCHEM_RULE_OF_FIVE>
1

> <ALOGPS_SOLUBILITY>
3.29e-01 g/l

> <JCHEM_TRADITIONAL_IUPAC>
tetrahydrofolic acid

> <JCHEM_VEBER_RULE>
1

> <DRUGBANK_ID>
DB03339

> <SECONDARY_ACCESSION_NUMBERS>
EXPT01901

> <DRUG_GROUPS>
experimental

> <GENERIC_NAME>
3-Iodo-Benzyl Alcohol

$$$$
