
  Mrv0541 10141414252D          

  2  1  0  0  0  0            999 V2000
    0.0000   -2.6202    0.0000 Zn  0  0  0  0  0  0  0  0  0  0  0  0
    0.8250   -2.6208    0.0000 O   0  0  0  0  0  0  0  0  0  0  0  0
  1  2  2  0  0  0  0
M  END
> <DATABASE_ID>
DB09321

> <DATABASE_NAME>
drugbank

> <SMILES>
O=[Zn]

> <INCHI_IDENTIFIER>
InChI=1S/O.Zn

> <INCHI_KEY>
XLOMVQKBTHCTTD-UHFFFAOYSA-N

> <FORMULA>
OZn

> <MOLECULAR_WEIGHT>
81.408

> <EXACT_MASS>
79.9240612

> <JCHEM_ACCEPTOR_COUNT>
1

> <JCHEM_ATOM_COUNT>
2

> <JCHEM_AVERAGE_NEUTRAL_MICROSPECIES_CHARGE>
0.0

> <JCHEM_AVERAGE_POLARIZABILITY>
2.9953209691603817

> <JCHEM_BIOAVAILABILITY>
1

> <JCHEM_DONOR_COUNT>
0

> <JCHEM_FORMAL_CHARGE>
0

> <JCHEM_GHOSE_FILTER>
0

> <JCHEM_IUPAC>
oxozinc

> <JCHEM_LOGP>
-0.19539999999999996

> <JCHEM_MDDR_LIKE_RULE>
0

> <JCHEM_NEUTRAL_CHARGE>
0

> <JCHEM_NUMBER_OF_RINGS>
0

> <JCHEM_PHYSIOLOGICAL_CHARGE>
0

> <JCHEM_PKA_STRONGEST_BASIC>
-5.735795358565773

> <JCHEM_POLAR_SURFACE_AREA>
17.07

> <JCHEM_REFRACTIVITY>
1.4429

> <JCHEM_ROTATABLE_BOND_COUNT>
0

> <JCHEM_RULE_OF_FIVE>
1

> <JCHEM_TRADITIONAL_IUPAC>
biotin

> <JCHEM_VEBER_RULE>
1

> <DRUGBANK_ID>
DB09321

> <DRUG_GROUPS>
approved

> <GENERIC_NAME>
Zinc oxide

> <SYNONYMS>
óxido de cinc; oxyde de zinc; Zinc (as oxide); Zinc (as zinc oxide); Zinc oxide; Zinc óxido; Zinc white; Zinci oxydum; Zincum oxydatum; Zinkoxid

> <PRODUCTS>
(Glow)Setting 100% Mineral Powder SPF 35; (RE) Setting 100% Mineral Powder Medium Broad Spectrum Sunscreen SPF 35; (RE) Setting 100% Mineral Powder Translucent Broad Spectrum Sunscreen SPF 35; (Re) Setting 100% mineral Powder Deep Broad Spectrum SPF 35; (Re) Setting 100% mineral Powder Light Broad Spectrum SPF 35; (s)undercover SPF 50; 01 Moisture Foundation SPF 15; 02 Cushion Spf45 Sunscreen; 02 Moisture Foundation SPF 15; 03 Moisture Foundation SPF 15; 04 Moisture Foundation SPF 15; 05 Moisture Foundation SPF 15; 06 Moisture Foundation SPF 15; 07 Moisture Foundation SPF 15; 08 Moisture Foundation SPF 15; 100 % Mineral SPF Mini Set; 100% Mineral Body Mist With Green Tea Extract Broad Spectrum SPF 50; 100% Mineral Broad Spectrum Sunscreen SPF 30; 100% Mineral Broad Spectrum Sunscreen SPF 50; 100% Pure Argan Oil Moisturizer SPF 30; 100% Pure Baby Sunscreen SPF 30; 100% Pure Everywhere Sunscreen SPF 30; 100% Pure Green Tea Oil Free Moisturizer SPF 30; 100% Pure Green Tea SPF 30 Sunscreen; 100% Pure Sweet Mint Lip Balm SPF 15; 100% Pure Yerba Mate MIst SPF 30; 1000 Roses CC Color Plus Correct Sheer Tan SPF 30; 1000 Roses CC Color plus Correct Sheer Nude SPF 30; 15HR COVER LASTING M201 Medium Beige SPF50; 15HR COVER LASTING V201 Apricot Beige SPF50; 15hr Cover Lasting Spf50; 21STAY A Thera Sun Block; 24K Bio-Brightening Dark Circle Eye SPF 30; 28 Remedy Juvenile Sun BB Light Beige; 28 Remedy Juvenile Sun BB Natural Beige; 365 Everyday Value; 3Function CC Cream; 3LAB PERFECT Lite Sunscreen SPF 30 Broad Spectrum; 5-IN-1 Tinted Face Sunscreen - Fair; 5-IN-1 Tinted Face Sunscreen - Golden Light; 5-IN-1 Tinted Face Sunscreen - Light; 5-IN-1 Tinted Face Sunscreen - Medium; 6000X Elemental Screen Broad Spectrum SPF30 Sunscreen; A + D Diaper Rash Cream; A AND A Diaper Rash cream; A Perfect World Age Defense Eye With White Tea Broad Spectrum SPF 20; A Retinol SPF 20; A and D; A+ Zinc Tab; A.H.C. COMPLETE CHOICE Color Change Cream; A.H.C. COMPLETE CHOICE liftox Cream; A24 Naturalism Sensitive Skin Sunscreen SPF 50; AAPE Continuous Renewal Sun; ABC Arbonne Baby Care Diaper Rash; ABC Arbonne Baby Care Kit; ABC Arbonne Baby Care Little Bundles Set; ABC Arbonne Baby Care Sample Set; ABC Arbonne Baby Care Sunscreen Broad Spectrum SPF 30; ACCOJE SUNSCREEN (SPF50 Broad Spectrum); ACTIBEAU Camellia Natural Mineral UV Defense Sunscreen; ACTIVE ARGAN 02.3(TM) PLASMA PRO 50 FEATHERWEIGHT DAY BROAD SPECTRUM SPF 20 WITH PROPRIETARY A.P.I. and ACTIVATED ARGAN COMPLEX(TM); ACWELL SOLAR DEFENSE LICORICE C BLEMISH Sunstick; ACWELL SOLAR DEFENSE LICORICE Suncream; ACWELL UV CUT Natural Sun Cushion; ACWELL UV CUT Waterproof Sun; AHC Premium Intense Contour Balm; AIR COTTON Make-up Base 02 SPF30; AL0038400 Alba Botanica Fast Fix Sun SPF30; AL0040400 Alba VE Mineral Sunscreen SPF35; AL0040500 Alba VE Mineral Sunscreen Herbal Fresh SPF35; AL0043700 Alba Botanica Baby Mineral Sunscreen SPF50; ARTISTRY IDEAL RADIANCE UV Protect SPF 50 PLUS Broad Spectrum Sunscreen; ARTISTRY Time Defiance UV Defense SPF 50 Ultra Facial Sunscreen; ASTONEA Medicated Body Powder Powder; ATOMY BB Broad Spectrum; ATOPALM Diaper Rash; ATTITUDE 100% Mineral sunscreen - Orange Blossom; ATTITUDE 100% Mineral sunscreen - Tropical; ATTITUDE Mineral Face SPF30 - Family; ATTITUDE Mineral Face SPF30 - Little Ones; ATTITUDE Mineral sunscreen Little ones - fragrance free; ATTITUDE Mineral sunscreen Sensitive Skin Care family; ATTITUDE Mineral sunscreen Sensitive Skin Care little ones; ATTITUDE Mineral sunscreen vanilla blossom; ATTITUDE Mineral sunscreen- family - fragrance free; AV453902 Avalon Organics Intense Defense Sheer Moisture SPF10; Aaekyungluna Long Lasting Conceal Fixing Cushion Medium Beige 23m; Abavite; Abc Arbonne Baby Care Diaper Rash Cream; Abella Color Shade SPF 35 Dark; Abella Color Shade SPF 35 Ebony; Abella Color Shade SPF 35 Light; Abella ColorShade SPF 35 Medium; Abella Sunscreen Tinted SPF35 Dark; Abella Sunscreen Tinted SPF35 Medium; Absolute Oil Control Foundation; Absolute Total BB SPF37 PA 3Plus; Absolutely Natural Broad Spectrum SPF 15 Sunscreen; Absolutely Natural Broad Spectrum SPF 30 Sunscreen; Absolutely Natural Broad Spectrum SPF 8 Sunscreen; Acne Control Essence; Active; Active Argan 365 SPF 30 Broad Spectrum Activated Argan Complex; Active Daily Defense; Active Day Cream With Uv-protection; Active FE; Active OB; Active SPF 30; Active SPF 45; Acure Mineral Protection Sunscreen Broad Spectrum SPF 30; Acwell Sensitive Solu Tion Sun Control; Advanced Anti-Aging Eye Broad Spectrum SPF 37 Supergoop; Advanced Cell Boosting EX Bb Spf30 Pa Plus Plus 01 Light Bb; Advanced Cell Boosting EX Bb Spf30 Pa Plus Plus 02 Natural; Advanced Protection SPF-15; Advanced Protection Sunscreen SPF-30; Aekyungluna Long Lasting Conceal Fixing Cushion 21c Cool Ivory; Aekyungluna Long Lasting Conceal Fixing Cushion 21w Warm Beige; Aekyungluna Long Lasting Conceal Fixing Cushion 23m Medium Beige; Aekyungluna Long Lasting Conceal Fixing Cushion Cool Ivory 21c; Aekyungluna Long Lasting Conceal Fixing Cushion Medium Beige 23m; Aekyungluna Long Lasting Conceal Fixing Cushion Warm Beige 21w; Aftate Zinc Oxide; AfterSun; Agatha Fitting Touch Make Up Set; Age Defense BB Cream SPF 30; Age Defense Bb Broad Spectrum SPF 30 All Skin Types; Age Defense Mineral Sunscreen Broad Spectrum SPF 25; Age Defense Snail BB Cream; Age Defense Tinted Mineral Sunscreen Broad Spectrum SPF 30; Age Defying Mineral Moisturizer; Age Renewal Firming; Age Renewal Firming and Hydrating Moisturizer; Age Renewal Firming and Hydrating Moisturizer SPF 30; Air Cotton Make Up Base 01 Mint SPF 30; Akin Diaper Rash; Alaffia Face; Alba Botanica Baby Mineral Sunscreen SPF45; Alba Botanica Facial Mineral Sunscreen FF SPF20; Alba Botanica Kids Mineral Sunscreen FF SPF30; Alba Botanica Mineral Sport FF Sunscreen SPF45; Alba Botanica Mineral Sunscreen FF SPF30; Alba Even Advanced Mineral CC Cream Fair to Light SPF15; Alba Even Advanced Mineral CC Cream Light to Medium SPF15; Alba Good and Healthy Moisturizer SPF15; Alba Kids Mineral Sunblock SPF 30; Alba Lip Care Sunblock SPF 25; Alba Mineral Sunscreen Sport SPF45 Broad Spectrum; Alba Mineral Terr Tint SPF15 Bloom; Alba Mineral Terra Tint SPF15 Blaze; Alba Mineral Terra Tint SPF15 Garnet; Alba Sunblock Facial SPF 20; Alba Sunblock Mineral Aloe Vanilla SPF 30; Alba Sunblock Mineral FF SPF 30; Alba TerraTint Blaze SPF 15 Lip Balm; Alba TerraTint Bloom SPF 15 Lip Balm; Alba TerraTint Garnet SPF 15 Lip Balm; Alba Very Emollient Sunscreen Lip Care SPF25; Aldana Skin Life - Sunscreen Broad Spectrum SPF 55 Water Resistant (80 Mins.); Alex MD PhD Antidotal Skincare Daily Defense Tinted Mineral Anti-Aging Sunscreen; Alexander's Rash Ease - Sport Cream; Alexander's Rash Ease - for Babies; Alexander's Rash Ease for Adults; Algenist; Alive Prebiotic Balancing Moisturizer SPF 15; All Aglow Perfect Cushion Foundation; All Calm Clinical Redness Corrector SPF 50; All Day Err Day; All Day Moisture; All Day Moisturizing; All Good; All Natural Daily Moisturizer SPF 20; All Natural Lip Balm SPF-30; All Natural Suncreen; All Natural Sunscreen SPF 40; All Physical Sunscreen Broad Spectrum SPF 50; All Season Face; All Weather SPF 15 Lip Balm; All-IN-one Lightweight Moisturizer Broad Spectrum Sunscreen SPF 30; Almay Age Essentials Concealer SPF 20; Almay Age Smart Shade CC Luminous Primer SPF 15; Almay Health Glow 3-In-1 Makeup SPF 20; Almay Healthy Biome Makeup; Almay Healthy Glow Makeup + Gradual Self Tan SPF 20; Almay Kinetin Skin-smoothing Foundation SPF 15; Almay Line Smoothing Liquid Make-Up for Dry Skin; Almay Nearly Naked Liquid Makeup SPF 15; Almay Smart Shade Anti-aging Skintone Matching Makeup SPF 20; Almay Smart Shade Skintone Anti- Aging Make-Up; Almay Smart Shade Skintone Matching Makeup; Almay Smart Shade Smart Balance Make-Up; Aloe Sun Bb Spf50 Plus Pa Plus Plus Plus; Aloevella; Alpha Hydrox Sheer Silk Moisturizer SPF 15; Alumier MD Clear Shield Broad Spectrum SPF 42 Sunscreen; Alumier MD Moisture Matte Broad Spectrum SPF 40 Sunscreen Amber; Alumier MD Moisture Matte Broad Spectrum SPF 40 Sunscreen Ivory; Alumier MD Moisture Matte Broad Spectrum SPF 40 Sunscreen Sand; Alumier MD Post Procedure Kit; Alumier MD Post Procedure Kit with Hydrocortisone; Alumier MD Post Procedure Prescription; Alumier MD Post Procedure Prescription Hydrocortisone Free; Alumier MD Sheer Hydration; Alumier MD Sheer Hydration Broad Spectrum SPF40 Untinted; Alumier MD Sheer Hydration Tinted Moisturizing Sunscreen; Always Foundation Makeup Broad Spectrum SPF 15 Bisque; Always Foundation Makeup Broad Spectrum SPF 15 Buff; Always Foundation Makeup Broad Spectrum SPF 15 Cocoa; Always Foundation Makeup Broad Spectrum SPF 15 Deluxe Sample Kit; Always Foundation Makeup Broad Spectrum SPF 15 Golden Tan; Always Foundation Makeup Broad Spectrum SPF 15 Honey; Always Foundation Makeup Broad Spectrum SPF 15 Ivory; Always Foundation Makeup Broad Spectrum SPF 15 Natural; Always Foundation Makeup Broad Spectrum SPF 15 Natural Tan; Always Foundation Makeup Broad Spectrum SPF 15 Shell; Always Foundation Makeup Broad Spectrum SPF 15 Soft Ivory; Always Golden Daily Moisturizer (Tinted); Always Nuddy CC; Always Perfect CC; Always Triple BB; Amanda Beard's Lip Balmer SPF 15; Amarte Ultra Veil Ultra Light Sunscreen Fluid; Amavara Transparent Mineral Sunscreen Spf30 Earthwell Zinc Technology, Reef Safe; Amavara Transparent Mineral Sunscreen Spf50 Earthwell Zinc Technology, Reef Safe; Amazonian Clay 12-Hour Full Coverage Foundation Broad Spectrum SPF 15 Sunscreen 12B Fair Beige; Amazonian Clay 12-Hour Full Coverage Foundation Broad Spectrum SPF 15 Sunscreen 12S Fair Sand; Amazonian Clay 12-Hour Full Coverage Foundation Broad Spectrum SPF 15 Sunscreen 13N Ivory; Amazonian Clay 12-Hour Full Coverage Foundation Broad Spectrum SPF 15 Sunscreen 16B Fair-light Beige; Amazonian Clay 12-Hour Full Coverage Foundation Broad Spectrum SPF 15 Sunscreen 16H Fair-light Honey; Amazonian Clay 12-Hour Full Coverage Foundation Broad Spectrum SPF 15 Sunscreen 16N Fair-light Neutral; Amazonian Clay 12-Hour Full Coverage Foundation Broad Spectrum SPF 15 Sunscreen 22B Light Beige; Amazonian Clay 12-Hour Full Coverage Foundation Broad Spectrum SPF 15 Sunscreen 22G Light Golden; Amazonian Clay 12-Hour Full Coverage Foundation Broad Spectrum SPF 15 Sunscreen 22N Light Neutral; Amazonian Clay 12-Hour Full Coverage Foundation Broad Spectrum SPF 15 Sunscreen 22S Light Sand; Amazonian Clay 12-Hour Full Coverage Foundation Broad Spectrum SPF 15 Sunscreen 27N Light-medium Neutral; Amazonian Clay 12-Hour Full Coverage Foundation Broad Spectrum SPF 15 Sunscreen 27S Light-Medium Sand; Amazonian Clay 12-Hour Full Coverage Foundation Broad Spectrum SPF 15 Sunscreen 29B Light-medium Beige; Amazonian Clay 12-Hour Full Coverage Foundation Broad Spectrum SPF 15 Sunscreen 29H Light-medium Honey; Amazonian Clay 12-Hour Full Coverage Foundation Broad Spectrum SPF 15 Sunscreen 35B Medium Beige; Amazonian Clay 12-Hour Full Coverage Foundation Broad Spectrum SPF 15 Sunscreen 35H Medium Honey; Amazonian Clay 12-Hour Full Coverage Foundation Broad Spectrum SPF 15 Sunscreen 35N Medium Neutral; Amazonian Clay 12-Hour Full Coverage Foundation Broad Spectrum SPF 15 Sunscreen 35S Medium Sand; Amazonian Clay 12-Hour Full Coverage Foundation Broad Spectrum SPF 15 Sunscreen 36H Medium-tan Honey; Amazonian Clay 12-Hour Full Coverage Foundation Broad Spectrum SPF 15 Sunscreen 37B Medium-Tan Beige; Amazonian Clay 12-Hour Full Coverage Foundation Broad Spectrum SPF 15 Sunscreen 37S Medium-Tan Sand; Amazonian Clay 12-Hour Full Coverage Foundation Broad Spectrum SPF 15 Sunscreen 39N Medium-Tan Neutral; Amazonian Clay 12-Hour Full Coverage Foundation Broad Spectrum SPF 15 Sunscreen 40H Tan Honey; Amazonian Clay 12-Hour Full Coverage Foundation Broad Spectrum SPF 15 Sunscreen 42G Tan Golden; Amazonian Clay 12-Hour Full Coverage Foundation Broad Spectrum SPF 15 Sunscreen 42N Tan Neutral; Amazonian Clay 12-Hour Full Coverage Foundation Broad Spectrum SPF 15 Sunscreen 44S Tan Sand; Amazonian Clay 12-Hour Full Coverage Foundation Broad Spectrum SPF 15 Sunscreen 46S Tan-deep Sand; Amazonian Clay 12-Hour Full Coverage Foundation Broad Spectrum SPF 15 Sunscreen 47G Tan-Deep Golden; Amazonian Clay 12-Hour Full Coverage Foundation Broad Spectrum SPF 15 Sunscreen 47H Tan-deep Honey; Amazonian Clay 12-Hour Full Coverage Foundation Broad Spectrum SPF 15 Sunscreen 48N Tan-Deep Neutral; Amazonian Clay 12-Hour Full Coverage Foundation Broad Spectrum SPF 15 Sunscreen 51G Deep Golden; Amazonian Clay 12-Hour Full Coverage Foundation Broad Spectrum SPF 15 Sunscreen 51N Deep Neutral; Amazonian Clay 12-Hour Full Coverage Foundation Broad Spectrum SPF 15 Sunscreen 51S Deep Sand; Amazonian Clay 12-Hour Full Coverage Foundation Broad Spectrum SPF 15 Sunscreen 53H Deep Honey; Amazonian Clay 12-Hour Full Coverage Foundation Broad Spectrum SPF 15 Sunscreen 56G Rich Golden; Amazonian Clay 12-Hour Full Coverage Foundation Broad Spectrum SPF 15 Sunscreen 57H Rich Honey; Amazonian Clay 12-Hour Full Coverage Foundation Broad Spectrum SPF 15 Sunscreen 57S Rich Sand; Amazonian Clay 12-Hour Full Coverage Foundation Broad Spectrum SPF 15 Sunscreen 58N Rich Neutral; Amazonian Clay 12-Hour Full Coverage Foundation Broad Spectrum SPF 15 Sunscreen 60H Mahogany; Amazonian Clay 12-Hour Full Coverage Foundation Broad Spectrum SPF 15 Sunscreen 8B Porcelain Beige; Amazonian Clay 12-Hour Full Coverage Foundation Broad Spectrum SPF 15 Sunscreen Deep Honey; Amazonian Clay 12-Hour Full Coverage Foundation Broad Spectrum SPF 15 Sunscreen Deep Sand; Amazonian Clay 12-Hour Full Coverage Foundation Broad Spectrum SPF 15 Sunscreen Fair Beige; Amazonian Clay 12-Hour Full Coverage Foundation Broad Spectrum SPF 15 Sunscreen Fair Sand; Amazonian Clay 12-Hour Full Coverage Foundation Broad Spectrum SPF 15 Sunscreen Fair- Light Honey; Amazonian Clay 12-Hour Full Coverage Foundation Broad Spectrum SPF 15 Sunscreen Fairly-Light Beige; Amazonian Clay 12-Hour Full Coverage Foundation Broad Spectrum SPF 15 Sunscreen Fairly-Light Neutral; Amazonian Clay 12-Hour Full Coverage Foundation Broad Spectrum SPF 15 Sunscreen Ivory; Amazonian Clay 12-Hour Full Coverage Foundation Broad Spectrum SPF 15 Sunscreen Light Beige; Amazonian Clay 12-Hour Full Coverage Foundation Broad Spectrum SPF 15 Sunscreen Light Medium Neutral; Amazonian Clay 12-Hour Full Coverage Foundation Broad Spectrum SPF 15 Sunscreen Light Neutral; Amazonian Clay 12-Hour Full Coverage Foundation Broad Spectrum SPF 15 Sunscreen Light Sand; Amazonian Clay 12-Hour Full Coverage Foundation Broad Spectrum SPF 15 Sunscreen Light-Medium Beige; Amazonian Clay 12-Hour Full Coverage Foundation Broad Spectrum SPF 15 Sunscreen Light-Medium Honey; Amazonian Clay 12-Hour Full Coverage Foundation Broad Spectrum SPF 15 Sunscreen Light-Medium Sand; Amazonian Clay 12-Hour Full Coverage Foundation Broad Spectrum SPF 15 Sunscreen Medium Beige; Amazonian Clay 12-Hour Full Coverage Foundation Broad Spectrum SPF 15 Sunscreen Medium Honey; Amazonian Clay 12-Hour Full Coverage Foundation Broad Spectrum SPF 15 Sunscreen Medium Neutral; Amazonian Clay 12-Hour Full Coverage Foundation Broad Spectrum SPF 15 Sunscreen Medium Sand; Amazonian Clay 12-Hour Full Coverage Foundation Broad Spectrum SPF 15 Sunscreen Medium-Tan Honey; Amazonian Clay 12-Hour Full Coverage Foundation Broad Spectrum SPF 15 Sunscreen Rich Honey; Amazonian Clay 12-Hour Full Coverage Foundation Broad Spectrum SPF 15 Sunscreen Tan Honey; Amazonian Clay 12-Hour Full Coverage Foundation Broad Spectrum SPF 15 Sunscreen Tan Sand; Amazonian Clay 12-Hour Full Coverage Foundation Broad Spectrum SPF 15 Sunscreen Tan-Deep Sand; Amazonian Clay BB Tinted Moisturizer Broad Spectrum SPF 20 Sunscreen Fair; Amazonian Clay BB Tinted Moisturizer Broad Spectrum SPF 20 Sunscreen Ivory; Amazonian Clay BB Tinted Moisturizer Broad Spectrum SPF 20 Sunscreen Light; Amazonian Clay BB Tinted Moisturizer Broad Spectrum SPF 20 Sunscreen Light-Medium; Amazonian Clay BB Tinted Moisturizer Broad Spectrum SPF 20 Sunscreen Medium; Amazonian Clay BB Tinted Moisturizer Broad Spectrum SPF 20 Sunscreen Medium-Tan; Amazonian Clay BB Tinted Moisturizer Broad Spectrum SPF 20 Sunscreen Tan; Amazonian Clay BB Tinted Moisturizer Broad Spectrum SPF 20 Sunscreen Tan-Deep; Amazonian Colored Clay Foundation Broad Spectrum SPF 15 Sunscreen Deep; Amazonian Colored Clay Foundation Broad Spectrum SPF 15 Sunscreen Fair; Amazonian Colored Clay Foundation Broad Spectrum SPF 15 Sunscreen Light; Amazonian Colored Clay Foundation Broad Spectrum SPF 15 Sunscreen Medium; Amazonian Colored Clay Foundation Broad Spectrum SPF 15 Sunscreen Tan; Amazonic Natural Sunscreen SPF 30 Broad Spectrum UVA/UVB; Amerfresh Medicated; AmeriDerm PeriShield; Ammens Medicated; Ammens Medicated Powder Original; Ammens Medicated Powder Shower Fresh; Ammens Medicated Powder Shower Fresh Formula; Amorepacific Color Control Cushion Compact; Amorepacific Color Control Cushion Compact No.102; Amorepacific Color Control Cushion Compact No.104; Amorepacific Color Control Cushion Compact No.106; Amorepacific Color Control Cushion Compact No.204; Amorepacific Color Control Cushion Compact No.208; Amorepacific Natural Protector; Amorepacific Resort Collection Sun Protection Cushion; Amorepacific Resort Collection Sun Protection Cushion Broad Spectrum SPF 30 Sunscreen; Amorepacific Time Response No. 102; Amorepacific Time Response No. 104; Amorepacific Time Response No. 106; Amorepacific Time Response No. 202; Amorepacific Time Response No. 204; Amorepacific Time Response No. 206; Amorepacific Time Response Skin Renewal No. 100; Amorepacific Time Response Skin Renewal No. 102; Amorepacific Time Response Skin Renewal No. 104; Amorepacific Time Response Skin Renewal No. 106; Amorepacific Time Response Skin Renewal No. 200; Amorepacific Time Response Skin Renewal No. 202; Amorepacific Time Response Skin Renewal No. 204; Amorepacific Time Response Skin Renewal No. 206; Ancalima Zinc Oxide; Andalou BB Untinted with SPF-30; Andalou BB sheer tint with SPF-30; Andalou Naturals Deep Hydration Daily Shade Blue Light Defense Facial SPF 30; Anesthetic Hemorrhoidal With Aloe; Anew Age-transforming Pressed Powder Poudre Pressee Transformation-age SPF.fps 15; Anew Solar Advance Eye and Lip Sunscreen; Angel of mine Diaper Rash; Anhydrous SPF 30; Anivy; Anna Lotan Lightly Tinted Mineral Day Cream Broad Spectrum SPF 30; Annmarie SPF 20 Sunscreen; Anorectal; Anti Monkey Butt Diaper Rash; Anti-Age Global Complete Anti-Aging SPF20; Anti-Aging Complex Eye Treatment Merle Norman; Anti-aging Armour Super Smart Skin-perfecting Beauty Fluid SPF 50; Anti-aging Complex Eye Treatment Broad Spectrum SPF 15; Anti-aging Oil Free Sunscreen SPF 30 Lotion; Anti-âge Global CRème Fondamentale Jour Fps 20; Antioxidant Primer; Antioxidant Sunscreen SPF 40; Apostrophe Screen SPF43; April Skin Magic Snow Cushion SPF50 PLUS (15g) (Natural Beige); April Skin Magic Snow Cushion SPF50 PLUS (15g) (Pink Beige); Aprilskin Magic Essence Shower Cushion 21 Light Beige; Aprilskin Magic Essence Shower Cushion 23 Natural Beige; Aqua Aura Moist Finish Pact; Aqua SPF 50; Aqua Soleil CRème Visage Et Corps Fps 35; Aqua Soleil CRème Visage Fps 30; Aqua Soleil Creme Visage Et Corps Fps 35; Aquaphor Healing Diaper Rash; Aquaphor Healing Fast Relief Diaper Rash; Aquasport; Aquation Anti-Chafe Cream; Aramore Multi-defense Sunscreen - Am Broad Spectrum SPF 30; Arbonne Abc Arbonne Baby Care Sunscreen SPF 30; Arbonne Abc Arbonne Baby Care Water-resistant Sunscreen SPF 30; Arbonne AgeWell Moisture Restoring Broad Spectrum SPF 15 Sunscreen; Arbonne Baby Care Sunscreen SPF 30; Arbonne FunSun Mineral Sunscreen Broad Spectrum SPF 30; Arbonne Got You Covered Mineral Foundation Broad Spectrum SPF 15 Sunscreen Almond; Arbonne Got You Covered Mineral Foundation Broad Spectrum SPF 15 Sunscreen Beige; Arbonne Got You Covered Mineral Foundation Broad Spectrum SPF 15 Sunscreen Bisque; Arbonne Got You Covered Mineral Foundation Broad Spectrum SPF 15 Sunscreen Bronze; Arbonne Got You Covered Mineral Foundation Broad Spectrum SPF 15 Sunscreen Cocoa; Arbonne Got You Covered Mineral Foundation Broad Spectrum SPF 15 Sunscreen Ivory; Arbonne Got You Covered Mineral Foundation Broad Spectrum SPF 15 Sunscreen Natural; Arbonne Got You Covered Mineral Foundation Broad Spectrum SPF 15 Sunscreen Nude; Arbonne Got You Covered Mineral Foundation Broad Spectrum SPF 15 Sunscreen Olive; Arbonne Got You Covered Mineral Foundation Broad Spectrum SPF 15 Sunscreen Radiant; Arbonne Got You Covered Mineral Foundation Broad Spectrum SPF 15 Sunscreen Rose; Arbonne Got You Covered Mineral Foundation Broad Spectrum SPF 15 Sunscreen Satin; Arbonne Intelligence Pollution Defense SPF30 CC Cream - Dark Shade; Arbonne Intelligence Pollution Defense SPF30 CC Cream - Fair Shade; Arbonne Intelligence Pollution Defense SPF30 CC Cream - Light Shade; Arbonne Intelligence Pollution Defense SPF30 CC Cream - Medium Shade; Arbonne International Abc Arbonne Children's Care Sunscreen SPF 30+; Arbonne International Liquid Sunshine Tan Enhancer Sunscreen SPF 15; Arbonne Liquid Sunshine SPF15; Arbonne Liquid Sunshine Tan Enhancer With SPF 15; Arbonne Nutrimen C RE9 Reality Moisturizing Sunscreen SPF 8; Arbonne RE9 Advanced for Men Facial Moisturizer SPF 20; Arbonne Setting Pretty Translucent Broad Spectrum SPF 15 Sunscreen; Arbonne Sheer Finish Tinted Moisturizer Dark SPF 15; Arbonne Sheer Finish Tinted Moisturizer Fair SPF 15; Arbonne Sheer Finish Tinted Moisturizer Light SPF 15; Arbonne Sheer Finish Tinted Moisturizer Medium SPF 15; Arbonne Sheer Finish Tinted Moisturizer Medium-Beige SPF 15; Arbonne Sheer Finish Tinted Moisturizer Warm Beige SPF 15; Area Foundy Cover; Area Foundy Natural; Arex Sinsin Pas; Argan Stem Cell BB Benefit Balm Un-Tinted SFP 30; Argan Wear Ultra Nourishing Argan Oil BB Cream; Argan Wear Ultra-Nourishing Argan Oil BB Concealer; Arllin Golden Combination Charisma CC; Arocell Tone Up Perfect Sun; Arsainte Eco Therapy Super Repair Sun Spf45; Artistry Balancing Foundation; Artistry Beauty Balm Perfecting Primer SPF 35 Broad Spectrum Sunscreen; Artistry Essentials Balancing; Artistry Essentials Balancing Lotion; Artistry Essentials Hydrating Lotion; Artistry Essentials Hydrating SPF 15; Artistry Exact Fit Beauty Balm Perfecting Primer; Artistry Flawless Coverage Powder Foundation; Artistry Hydra V Sheer Weightless Foundation Plush L3C1; Artistry Hydra V Sheer Weightless Foundation Sand L2W1; Artistry Hydra V Sheer Weightless Foundation Shade Buff L1W1; Artistry Hydra V Sheer Weightless Foundation Shade Caramel L5N1; Artistry Hydra V Sheer Weightless Foundation Shade Chablis L1C1; Artistry Hydra V Sheer Weightless Foundation Shade Chiffon L2C1; Artistry Hydra V Sheer Weightless Foundation Shade Golden L4N1; Artistry Hydra V Sheer Weightless Foundation Shade Ochre L2N1; Artistry Hydra V Sheer Weightless Foundation Shade Soleil L3W1; Artistry Hydra V Sheer Weightless Foundation Tawny L3N1; Artistry Hydra V Sheer Weightless Foundation Walnut L6N1; Artistry Hydra-V Sheer Weightless Foundation; Artistry Hydrating Foundation; Artistry Hydrating Foundation SPF 20 UBV/UVA; Artistry Hydro-V Sheer Weightless Foundation SPF 15 Broad Spectrum Sunscreen; Artistry Ideal Dual Foundation SPF 18; Artistry Ideal Dual Powder Foundation Refill; Artistry Ideal Radiance Illuminating CC SPF 50 Broad Spectrum Med/Deep; Artistry Ideal Radiance Illuminating CC SPF 50 Broad Spectrum Sunscreen Deep; Artistry Ideal Radiance Illuminating CC SPF 50 Broad Spectrum Sunscreen Light/Medium; Artistry Ideal Radiance Illuminating CC SPF 50 Broad Spectrum Sunscreen Medium; Artistry Ideal Radiance Illuminating CC SPF50 Broad Spectrum Sunscreen - Light; Artistry Ideal Radiance Illuminating Cc Cream; Artistry Light Reflective Lotion SPF 15; Artistry Vi Clarifying Balancing Moisturizer; Artists Touch BB 01 Light; Artists Touch BB 02 Medium; Aruba Aloe SPF 30 Mineral Sunscreen; Aruba Aloe SPF 50 Mineral Sunscreen; Aruba Aloe SPF 50 Mineral Sunscreen BABIES; Aruba Aloe SPF 50 Mineral Sunscreen FACES; Aruba Aloe Sport Line Broad Spectrum SPF 50 Anti Chafing; Aruba Aloe Sport Line Lip Balm Broad Spectrum SPF 30; Assured Calamine; Astonea; Astonea EN SHIELD ALOE SOFT VITAMIN ENRICHED; Astonea PeriShield; Astonea Skin Protectant; Astonea Xero; Ato Ai Sun; Atobos Baby Sun; Atobos Centella Baby Sun; Atomy Bb Broad Spectrum Spf30; Atomy Bb Cream SPF 30 Pa; Atomy Bb Spf30 Pa Plus Plus; Atomy Mineral Compact No.13; Atomy Mineral Compact No.21; Atomy Mineral Compact No.23; Atomy Mineral Compact No.25; Atomy Mineral Pact Spf35 Pa Plus Plus No.13; Atomy Mineral Pact Spf35 Pa Plus Plus No.21; Atomy Mineral Pact Spf35 Pa Plus Plus No.23; Atomy Mineral Pact Spf35 Pa Plus Plus No.25; Atomy Sun Beige Spf50 Plus Pa Plus Plus Plus; Atomy Sun Cream SPF 50 Pa; Atomy Sun Spf50 Plus Pa Plus Plus Plus; Atomy Sunscreen Beige Broad Spectrum SPF 50 PLUS; Atomy Sunscreen Beige Broad Spectrum Spf50 Plus; Atomy Sunscreen Beige SPF50 PLUS; Atomy Sunscreen White Broad Spectrum SPF 50 PLUS; Atomy Sunscreen White Broad Spectrum Spf50 Plus; Atomy Sunscreen White SPF50 PLUS; Attends Advanced Barrier; Attends Daily Barrier; Attitude; Attitude - Leaves Bar - Lip Balm - SPF 15 - Mango; Attitude - Lip Balm - SPF 15 - Coconut; Attitude Kids Oatmeal sensitive mineral sunscreen unscented SPF 30; Attitude Kids mineral sunscreen face unscented SPF 30; Attitude Kids mineral sunscreen tropical SPF 30; Attitude Kids mineral sunscreen unscented SPF 30; Attitude Oatmeal sensitive mineral sunscreen face unscented SPF 30; Attitude Oatmeal sensitive mineral sunscreen unscented SPF 30; Attitude mineral sunscreen face unscented SPF 30; Attitude mineral sunscreen orange blossom SPF 30; Attitude mineral sunscreen tropical SPF 30; Attitude mineral sunscreen unscented SPF 30; Attitude tinted mineral sunscreen face unscented SPF 30; Attitude tinted mineral sunscreen unscented SPF 30; Au Kah Chuen Fugical; Austalian Gold Broad Spectrum SPF 50 Sunscreen; Australian Gold BROAD SPECTRUM SPF 50; Australian Gold BROAD SPECTRUM SPF30; Australian Gold Botanical Mineral Sunscreen Broad Spectrum SPF 30; Australian Gold Botanical Mineral Sunscreen Broad Spectrum SPF 50; Australian Gold Botanical Sunscreen SPF 50 Kids Broad Spectrum; Australian Gold Botanical Sunscreen Tinted Face 50 for Fair to Light skin tones; Australian Gold Botanical Sunscreen Tinted Face 50 for Medium to Tan skin tones; Australian Gold Botanical Sunscreen Tinted Face 50 for Rich to Deep skin tones; Australian Gold Botanical Tinted Face Mineral Sunscreen Broad Spectrum SPF 50; Australian Gold Botanicals Sunscreen 70 Minerals; Australian Gold Broad Spectrum SPF 50 Sunscreen; Australian Gold Hello Kitty BROAD SPECTRUM SPF 45; Australian Gold Hello Kitty Mineral Faces Sunscreen; Ava Isa Aurora Rose SPF 45; Ava Isa Pure Untinted SPF 45; Ava Isa Sun Lip Sun Whip Clear Sunshine; Ava Isa Sun Lip Sun Whip Strawberry Zinnia; Ava Isa Sun Lip Sun Whip Watermelon Lily; Ava Isa Sun Serum; Avail Lip Balm with Sunscreen; Avalon Organics Baby Protective Zinc Diaper Balm; Avalon Organics COQ10 Repair Wrinkle Defense Broad Spectrum SPF15; Avalon Organics Essential Lift; Avalon Organics Essential Lift Firming Moisturizer SPF15; Avalon Organics Lavender Luminosity Moisture Plus SPF15; Avalon Organics Vitamin C Renewal Moisture Plus SPF15; Aveeno Active Naturals Natural Protection Broad Spectrum SPF30; Aveeno Active Naturals Natural Protection MineralBlock SPF 30; Aveeno Anti Itch Concentrated; Aveeno Anti-Itch Concentrated; Aveeno Anti-itch Lotion; Aveeno Baby Continuous Protection Sensitive Skin Sunscreen Broad Spectrum SPF 50; Aveeno Baby Mommy and Me Gift Set; Aveeno Baby Natural Protection Face Sunscreen Broad Spectrum SPF50; Aveeno Baby Natural Protection MineralBlock SPF 50plus Face; Aveeno Baby Natural Protection MineralBlock Sunblock SPF 30; Aveeno Baby Natural Protection Sunscreen Broad Spectrum SPF 50; Aveeno Baby Organic Harvest Diaper Rash; Aveeno Baby Soothing Relief Diaper Rash Fragrance Free; Aveeno Baby Sunblock Lotion SPF 45; Aveeno Baby continuous Protection sensitive skin Face Sunscreen Broad Spectrum SPF50; Aveeno Baby continuous Protection sensitive skin sunscreen Face Broad Spectrum SPF50; Aveeno Baby continuous protection sensitive skin Sunscreen Broad Spectrum SPF50; Aveeno Calamine and Pramoxine Hydrochloride Anti Itch; Aveeno Kids Continuous Protection Sensitive Skin Mineral Sunscreen Broad Spectrum SPF 50; Aveeno Kids Continuous Protection Sensitive Skin Sunscreen Broad Spectrum SPF 50; Aveeno Natural Protection Sunscreen Broad Spectrum SPF 50; Aveeno Positively Mineral Sensitive Skin Face Milk Sunscreen Broad Spectrum SPF 40 Plus; Aveeno Positively Mineral Sensitive Skin Sunscreen Broad Spectrum SPF 50; Aveeno Positively Mineral Sensitive Skin Sunscreen for Face Broad Spectrum SPF 50; Aveeno Protect Plus Soothe Face Mineral Sunscreen SPF 30; Aveeno Protect Plus Soothe Mineral Sunscreen Broad Spectrum SPF 30; Aveeno Protect Plus Soothe Mineral Sunscreen Broad Spectrum SPF 50; Aveeno Ultra-Calming Daily Moisturizer Sunscreen Broad Spectrum SPF 30; Aveeno ultra-calming daily moisturizer Broad Spectrum SPF 30; Averr Aglow Pure Protection Invisible Mineral Sunscreen Broad Spectrum SPF 30; Averteax; Avon Anew Line Eliminator Neo-retinol Line Plumper SPF 15; Avon Extralasting; Avon Sun Protection Natural Mineral Sunscreen for Body SPF 40; Avon Sun Protection Natural Mineral Sunscreen for Face SPF 25; Awaken by Quality Choice Absolute Daily Moisturizer Broad Spectrum SPF 15 Sunscreen; AyrZinc; B-AGELESS Broad Spectrum SPF55 Sunscreen; B-AGELESS Tinted Mineral Broad Spectrum SPF30 Sunscreen; BABY Diaper Rash; BABY Specialty Cream; BABYGANICS SPF 50 Plus SUNSCREEN; BANILA CO Prime Primer Fitting BB Light Beige; BANILA CO Prime Primer Fitting BB Natural Beige; BB Broad Spectrum SPF 15 Light; BB Broad Spectrum SPF 15 Light to Medium; BB Broad Spectrum SPF 15 Medium; BB Care Ultra Light Sunscreen Broad Spectrum SPF 50 Plus; BB Cream Broad Spectrum SPF 25 Light 01; BB Cream Broad Spectrum SPF 25 Medium 01; BB Cream Broad Spectrum SPF 25 Medium Light 01; BB Shade 10 Luminous SPF15; BB Shade 20 Aglow SPF15; BB Shade 30 Radiance SPF15; BB Tinted Treatment 12-Hour Primer Broad Spectrum SPF 30 Sunscreen deep; BB Tinted Treatment 12-Hour Primer Broad Spectrum SPF 30 Sunscreen fair; BB Tinted Treatment 12-Hour Primer Broad Spectrum SPF 30 Sunscreen light; BB Tinted Treatment 12-Hour Primer Broad Spectrum SPF 30 Sunscreen medium; BB Tinted Treatment 12-Hour Primer Broad Spectrum SPF 30 Sunscreen rich; BB Tinted Treatment 12-Hour Primer Broad Spectrum SPF 30 Sunscreen tan; BB Tinted Treatment 12-hour Primer Broad Spectrum SPF 30 Sunscreen Fair; BB Tinted Treatment 12-hour Primer Broad Spectrum SPF 30 Sunscreen Light; BB Tinted Treatment 12-hour Primer Broad Spectrum SPF 30 Sunscreen Medium; BB Tinted Treatment 12-hour Primer Broad Spectrum SPF 30 Sunscreen Medium-Tan; BB Tinted Treatment 12-hour Primer Broad Spectrum SPF 30 Sunscreen Tan; BB Tinted Treatment 12-hour Primer Broad Spectrum SPF 30 Sunscreen Tan Deep; BB fit Perfect 24 BB 01; BB fit Perfect 24 BB 02; BB fit Sheer BB; BB tinted treatment primer Broad Spectrum SPF 30 Sunscreen deep; BB tinted treatment primer Broad Spectrum SPF 30 Sunscreen deep-sand; BB tinted treatment primer Broad Spectrum SPF 30 Sunscreen espresso; BB tinted treatment primer Broad Spectrum SPF 30 Sunscreen fair; BB tinted treatment primer Broad Spectrum SPF 30 Sunscreen fair-light; BB tinted treatment primer Broad Spectrum SPF 30 Sunscreen light; BB tinted treatment primer Broad Spectrum SPF 30 Sunscreen light-medium; BB tinted treatment primer Broad Spectrum SPF 30 Sunscreen mahogany; BB tinted treatment primer Broad Spectrum SPF 30 Sunscreen mahogany honey; BB tinted treatment primer Broad Spectrum SPF 30 Sunscreen medium; BB tinted treatment primer Broad Spectrum SPF 30 Sunscreen medium-tan; BB tinted treatment primer Broad Spectrum SPF 30 Sunscreen rich; BB tinted treatment primer Broad Spectrum SPF 30 Sunscreen rich honey; BB tinted treatment primer Broad Spectrum SPF 30 Sunscreen tan; BB tinted treatment primer Broad Spectrum SPF 30 Sunscreen tan deep; BEAUTY SHIELD BROAD SPECTRUM SUNSCREEN (Napoleon Perdis); BIOJUVE Microbiome-Safe Sheer Finish SPF 50 Sunscreen; BIOSOLIS Extreme Fluid SPF 50; BIOSOLIS Extreme Fluid UVA Sunscreen Broad Spectrum Face and Neck SPF50; BIOSOLIS Face Anti Aging SPF30; BIOSOLIS Face Sunscreen Broadspectrum SPF50; BIOSOLIS Face Sunscreen broad spectrum SPF30; BIOSOLIS Face UVA Sunscreen Broad Spectrum SPF30; BIOSOLIS Sun Milk SPF 30; BIOSOLIS Sun Milk SPF 50 Kids; BIOSOLIS Sun Milk UVA Sunscreen Face and Body Broad Spectrum SPF15; BIOSOLIS Sun Milk UVA Sunscreen Face and Body Broad Spectrum SPF30; BIOSOLIS Sun Milk UVA Sunscreen Face and Body Broad Spectrum SPF50 KIDS; BIOSOLIS Sun SPF30; BIOSOLIS Sunscreen Broadspectrum SPF30; BIOSOLIS Sunscreen Broadspectrum SPF50 KIDS; BIOSOLIS Sunscreen broadspectrum SPF30; BIOSOLIS sunscreen broadspectrum SPF50; BLANC DIVA GLEAM COVERAGE CUSHION Natural Beige; BLANC DIVA GLEAM COVERAGE CUSHION Pink; BLANC DIVA GLEAM COVERAGE CUSHION White; BLANC DIVA GLEAM COVERAGE CUSHION Yellow; BM Maximum Diaper Rash; BOA VIDA Calvida; BRICKELL Daily Defense Face Moisturizer SPF-20; BRICKELL Element Defense Moisturizer SPF-45; BRING GREEN Tea Tree CICA Tone Up Sun Cushion; BRING GREEN Tea Tree Tone Up Sun Cushion; BRINGGREEN Tea Tree CICA Soothing Sun; BSKOS DOUBLE LASTING LI QUID FOUNDATION Buff 25; BSKOS DOUBLE LASTING LI QUID FOUNDATION Natural Beige 27; Babience KIDS Sunscreen pinkfong BABY SHARK SPF 50; Babies Sunblock Lotion SPF 45; Babo Baby Face Mineral Sunscreen; Babo Baby Skin Mineral Sunscreen FF; Babo Botanicals Daily Sheer Fluid Mineral Sunscreen SPF 50; Babo Botanicals Daily Sheer Fluid Tinted Mineral Sunscreen SPF 50; Babo Botanicals Daily Sheer Mineral Sunscreen for Face SPF 40; Babo Botanicals SPF 30 Daily Sheer Tinted Sunscreen - Natural Glow; Babo Botanicals Sensitive Baby Fragrance Free Diaper Cream; Babo Botanicals Sensitive Baby Fragrance Free Diaper Rash; Babo Botanicals Super Shield Sport Sunscreen SPF 50; Babo Fragrance Free Diaper Cream; Babo SPF 30 Clear Zinc Fragrance Free; Babo SPF 30 Clear Zinc Fragrance Free Sport; Babo SPF 30 Sheer Zinc Sunscreen; Babo SPF 50 Sheer Mineral Sensitive Gentle; Babo Soothing Diaper Cream; Baby Anti Monkey Butt Diaper Rash; Baby Bare Republic Mineral Sunscreen; Baby Bare Republic Mineral Sunscreen SoftStick SPF 50; Baby Blanket BROAD SPECTRUM SPF 50; Baby Blanket Sunscreen Stick for Babies; Baby Bum; Baby Bum Diaper Rash; Baby Bum Mineral SPF 50; Baby Bum Mineral SPF50 Sunscreen; Baby Bum SPF50 Mineral Sunscreen; Baby Butz; Baby Compliments Zinc Oxide Cream - 15%; Baby Daily Face and Body; Baby Diaper; Baby Diaper Rash; Baby Diaper Rash Cream; Baby Face Stick Mineral Sunscreen SPF 40; Baby LOVE Personal CARE Diaper Rash; Baby Lotion SPF 50; Baby Love Diaper Rash; Baby Love Personal Care Diaper Rash; Baby Magic Diaper Rx; Baby Magic Medicated Patty Cake; Baby Mineral SPF 50; Baby Mineral Sunscreen Lotion; Baby Mineral Sunscreen Roll-ON SPF-30; Baby Mineral Sunscreen Roll-ON SPF-50; Baby Mineral Sunscreen, SPF 30; Baby Natural Mineral Sunscreen Broad Spectrum SPF 30; Baby Nourishing Mineral; Baby Pure Gentle SunStick SPF 60 CVS; Baby Pure and Gentle SPF 60 Sunscreen; Baby SPF 60 Sunscreen; Baby Skin Mineral Sunscreen; Baby Specialty Cream; Baby Sunscreen SPF 30; Baby Sunscreen SPF 50; Baby blanket BROAD SPECTRUM SPF 50; Baby's Own Ointment 11.3%; BabyDiaperCream; BabyGanics Sunscreen 30 SPF; BabyGanics Sunscreen 30SPF; BabyGanics Sunscreen 50 SPF; BabyGanics Sunscreen 50SPF; BabySpa Shea Butter Diaper; Babyganics Diaper Rash; Babyganics SPF 50; Babys Butt Aid; Babys Butt Care Diaper Rash; Bacmin; Badger Active SPF 30 Clear Zinc Sunscreen; Badger Active SPF 30 Mineral Sunscreen; Badger Adventure Sport Clear Mineral Sunscreen SPF 50; Badger Aloe Vera Sunscreen Broad Spectrum SPF 27; Badger BROAD SPECTRUM SPF 15 Lip Balm; Badger Baby SPF 30 Sunscreen; Badger Baby Sunscreen Cream Broad Spectrum SPF 40; Badger Broad Spectrum SPF 35 Active Face Stick; Badger Clear Lavender SPF 30 Sunscreen; Badger Clear Sport SPF 35 Kids All Season Face Stick; Badger Clear Sport SPF 35 Natural Mineral All Season Face Stick; Badger Clear Zinc Sunscreen Cream Broad Spectrum SPF 40; Badger Damascus Rose Broad Spectrum SPF 20 Face Sunscreen; Badger Damascus Rose Broad Spectrum SPF 20 Face Sunscreen - Sheer Tint; Badger Damascus Rose Broad Spectrum SPF 25 Face Sunscreen; Badger Damascus Rose Broad Spectrum SPF 25 Face Sunscreen - Sheer Tint; Badger Diaper; Badger Essential Baby Set; Badger Kids Broad Spectrum SPF 40 Natural Mineral Sunscreen Cream; Badger Kids Mineral Sunscreen Cream Broad Spectrum SPF 40; Badger Kids SPF 30 Sunscreen; Badger Lavender SPF 28 Sunscreen; Badger Lavender SPF 30 Sunscreen; Badger SPF 15 Sunscreen Lip Balm; Badger SPF 30 Aloe Sunscreen; Badger SPF 30 Baby Sunscreen; Badger SPF 30 Kids Sunscreen; Badger SPF 34 Anti-Bug Sunscreen; Badger SPF 35 All Season Face; Badger SPF 35 Kids All Season; Badger SPF 35 Kids Clear Face Stick; Badger SPF 35 Sport Sunscreen; Badger SPF30 Unscented Sunscreen Unscented; Badger Sport Clear Mineral Sunscreen SPF 40; Badger Sport Mineral Sunscreen Cream Broad Spectrum SPF 40; Badger Sport SPF 35 Clear Zinc Sunscreen; Badger Sport SPF 35 Sunscreen; Badger SunScreen Broad Spectrum SPF 16; Badger Tinted Unscented SPF 30 Sunscreen; Badger Unscented Broad Spectrum SPF 25 Zinc Oxide Sunscreen; Badger Unscented Broad Spectrum SPF 30 Natural Mineral Sunscreen; Badger Unscented Broad Spectrum SPF 30 Sunscreen; Badger Unscented SPF 15 Sunscreen; Badger Unscented SPF 28 Sunscreen; Badger Unscented SPF 30 Sunscreen; Badger Zinc Oxide Diaper; Bain De Soleil Protection Creme SPF 25; Bain De Soleil Protection Kids Lotion SPF 25; Bal-Care DHA; Bal-Care DHA Essential; Balance Ace - Cap; Balancing Daily Defense SPF 15; Bali Bloc SPF 30 Cocoa Sunscreen; Bali Bloc SPF 30 Vanilla Sunscreen; Balmex Adult Care Rash; Balmex Diaper Rash; Banana Boat; Banana Boat Baby Mineral Enriched Sunscreen UVA/UVB Protection Broad Spectrum SPF 50PLUS; Banana Boat Baby SPF 50; Banana Boat KiDS mineral foam Sunscreen Broad Spectrum SPF 50 Plus Amazing Apple; Banana Boat KiDS mineral foam Sunscreen Broad Spectrum SPF 50 Plus Berry Blast; Banana Boat KiDS mineral foam Sunscreen Broad Spectrum SPF 50 Plus Citrus Squeeze; Banana Boat KiDS mineral foam Sunscreen Broad Spectrum SPF 50 Plus Tropical Twist; Banana Boat Kids Mineral 100% Mineral Based Sunscreen UVA/UVB Broad Spectrum SPF 50; Banana Boat Kids Mineral 100% Sunscreen UVA/UVB Broad Spectrum SPF 30; Banana Boat Kids Mineral Protection SPF50; Banana Boat Mineral Sensitive Face SPF50; Banana Boat Mineral Sensitive SPF 50; Banana Boat Natural Reflect Sunscreen BABY SPF 50; Banana Boat Natural Reflect Sunscreen KIDS SPF 50; Banana Boat Natural Reflect Sunscreen SPF 50 Plus; Banana Boat Simply Protect Baby Baby Sunscreen Spray SPF 50+; Banana Boat Simply Protect Kids Kids Sunscreen Spray SPF 50+; Banana Boat Simply Protect Sensitive Faces Visages Suncreen Lotion SPF 50 Plus; Banana Boat Simply Protect Sensitive Sunscreen Lotion SPF 50 Plus; Banana Boat Sport Mineral 100% Mineral Based Sunscreen UVA/UVB Broad Spectrum SPF 50; Banana Boat Sport Mineral 100% Sunscreen UVA/UVB Broad Spectrum SPF 30; Banana Boat Sport Mineral SPF 50; Banana Boat Vitaskin Sunscreen SPF 50 Lotion; Banana Boat kids mineral Vanishing Blue Foam SPF 50 Berry Blast; Banana Boat kids mineral Vanishing Green Foam SPF 50 Amazing Apple; Banana Boat simply protect KiDS Mineral Based Sunscreen Broad Spectrum SPF 50; Banana Boat simply protect Sport Mineral Enriched Sunscreen Broad Spectrum SPF 50; Banana Boat simply protect sensitive MINERAL ENRICHED SUNSCREEN UVA/UVB BROAD SPECTRUM SPF 50; Banana Boat simply protect sensitive Mineral Enriched Sunscreen Broad Spectrum SPF 50; Banana Boat simply protect sensitive faces Mineral Enriched Sunscreen Broad Spectrum SPF 50; Bare Republic Big Adventure Stick SPF 70; Bare Republic Mineral Matte Tinted Face SPF 30; Bare Republic Mineral Matte Untinted Face SPF 30; Bare Republic Mineral Shimmer SPF 30 Diamond Dust; Bare Republic Mineral Shimmer SPF 30 Golden Daze; Bare Republic Mineral Stick Sunscreen; Bare Republic SPF 30 Mineral Sunscreen Citrus Cooler; Bare Republic SPF 30 Mineral Sunscreen Coco Mango; Bare Republic SPF 50 Mineral Sunscreen Vanilla Coco; BareMinerals Bronzing Mineral Veil; BareMinerals Dark Matte Dark Matte; BareMinerals Medium Deep matte Medium Deep Matte; BareMinerals Mineral Veil; BareMinerals Multi-Tasking SPF 20 Concealer Dark Bisque; BareMinerals Tinted Mineral Veil; Barox Extraordinary Mild Sunblock; Barrier Balm; Barrier Cream; Barrier Protectant Cream; Basic Day Cream With Uv-protection; Basic Protection With Vitamin E; Bature Uv Protect Sunscreen; Baza Protect; Baza Protect II; Baza-pro Cream; Bb Cream Broad Spectrum Spf30; Be Beautiful Makeup Base; Be Beautiful Natural BB Cream; Be Beautiful Pure Make Up Base Purple; Be Natural Organics Broad Spectrum Nude Tint SPF 30; Be Natural Organics Broad Spectrum Tan Tint SPF 30 73369-1003; Be Natural Organics Broad Spectrum Tint Free SPF 30; Be The Skin Natural Base Sun; Beaute de Cell Homme Perfect Sun-Shield SPF 50 PA; Beaute de Cell Lifting-Up Multi Cream SPF 30 PA; Beautify Worlds Best Natural Sunscreen Broad Spectrum SPF 30; Beauty By Earth - SPF 20 - Cocoa; Beauty By Earth - SPF 20 - Light Beige; Beauty By Earth - SPF 20 - Medium Beige; Beauty By Earth - SPF 20 - Toffee; Beauty By Earth - SPF 20 - Untinted; Beauty By Earth - SPF 25; Beauty By Earth - SPF 30 - Peppermint and Geranium; Beauty By Earth - SPF 30 - Peppermint and Vanilla; Beauty By Earth - SPF 30 - Unscented; Beauty By Earth - SPF 30 - Vanilla and Coconut; Beauty Counter Dew Skin Moisturizer Dark SPF 20; Beauty Counter Dew Skin Moisturizer Deep SPF 20; Beauty Counter Dew Skin Moisturizer Fair SPF 20; Beauty Counter Dew Skin Moisturizer Light SPF 20; Beauty Counter Dew Skin Moisturizer Medium SPF 20; Beauty Counter Dew Skin Moisturizer Tan SPF 20; Beauty Counter Protect - Sweet Tooth SPF30; Beauty Counter Protect All over Sunscreen SPF30; Beauty Counter Protect Lip SPF15; Beauty Hydrating; Beauty Without Cruelty - Broad Spectrum SPF 17 Vitamin C with CoQ10; Beauty Without Cruelty - Broad Spectrum SPF 30; BeautyCounter Countersun Daily Sheer Defense for Face SPF25; BeautyCounter Countersun Mineral Sunscreen SPF30; Beautycounter Countersun Daily Sheer Defense for Face SPF 25; Becca Mineral SPF Primer; Beevenom Bb Spf50plus Pa Plus Plus Plus; Before Sun Liquid Sunshine Tan Enhancer SPF 15; Being Well Diaper Rash Creamy; Bella Pelle SPF 30; Bellagio Childrens Sunscreen SPF 45; Bellagio Sunscreen For Face SPF 30; Bellagio Sunscreen SPF 45; Belli Anti-Chloasma Facial Sunscreen Tinted Protection; Belli Pure Radiance Facial Sunscreen Tinted Protection SPF 25; Belucie Luxury Essential Twin Pact NO21 SPF25 PA PLUS PLUS; Belucie Luxury Essential Twin Pact NO23 SPF25 PA PLUS PLUS; Benson Bottom Paint; Best Choice Anti-Itch Clear; Best Choice Medicated Calamine; Beyond BB Perfecting Foundation Broad Spectrum SPF 15 Sunscreen Deep; Beyond BB Perfecting Foundation Broad Spectrum SPF 15 Sunscreen Fair; Beyond BB Perfecting Foundation Broad Spectrum SPF 15 Sunscreen Light; Beyond BB Perfecting Foundation Broad Spectrum SPF 15 Sunscreen Medium; Beyond BB Perfecting Foundation Broad Spectrum SPF 15 Sunscreen Tan; Beyond Protected Daily Beauty Fluid Broad Spectrum SPF 30; Beyond Protected Daily Beauty Fluid Oil Free Broad Spectrum SPF 30; Beyond Protected Daily Beauty Fluid Sheer Tint Broad Spectrum SPF 30; Beyond Sunscreen Broad Spectrum SPF 55; Beyond Young Bling Bling Spf35; Bien Vita Multi UV Primer Plus; Big Cloud Defend Hybrid Formula with Zinc; Big Mood SPF 30 Milky Lip Balm; Biggreen Everyday Sun; Bilboa Kids Sunscreen SPF 50 Plus; Bio Active Complex SPF 15; Bio Damascena Rose Otto Face Sunscreen; Bio Jouvance - Tinted Moisturizer SPF30; Bio Spectra Attitude; BioDCream; Bioelements Sun Diffusing Protector SPF 15; Biomi Action De Gala Mineral Sunscreen Spf30; Biore Skin Preservation Dual Fusion Moisturizer Plus SPF 30; Biorlx Lip Balm Collagen; Biorlx Lip Balm Ginseng; Biorlx Lip Balm Hemp; Biossance Squalane Moisturizer SPF30; Black Girl Sunscreen SPF 50 broad Spectrum; Black Stick; Blanc Diva Multi Protection Fitting Sunbase; Blemish Lab Bye Pore Bb Spf30 Pa Plus Plus; Bling Day Everyday Sunscreen Broad Spectrum SPF 50; Bliss Block Star - Invisible Daily Sunscreen SPF-30; Blistex Ivarest; Blue Lizard Active; Blue Lizard Active SPF 50; Blue Lizard Active SPF 50 Sunscreen; Blue Lizard Active Sunscreen; Blue Lizard Australian Sunscreen 50 SPF Active; Blue Lizard Australian Sunscreen 50 SPF Kids; Blue Lizard Australian Sunscreen 50 SPF Sport; Blue Lizard Baby; Blue Lizard Baby SPF 50; Blue Lizard Baby SPF 50 Sunscreen; Blue Lizard Face; Blue Lizard Kids; Blue Lizard Kids SPF 50; Blue Lizard Kids SPF 50 Sunscreen; Blue Lizard Kids Sunscreen; Blue Lizard Regular; Blue Lizard Sensitive Face Sunscreen; Blue Lizard Sensitive SPF 50; Blue Lizard Sensitive SPF 50 Sunscreen; Blue Lizard Sensitive Sunscreen; Blue Lizard Sheer Face SPF 50 Sunscreen; Blue Lizard Sheer SPF 50 Sunscreen; Blue Lizard Sport; Blue Lizard Sport Original Sunscreen; Blue Lizard Sport SPF 50; Blue Lizard Sport SPF 50 Sunscreen; Blue Lizard Sport Sunscreen; Blue Lizard Sunscreen Australian Formula; Blue Monarch SPF-30; Blue Stick; Bluevado Sunfix; Blurred Lines CC Creme Broad Spectrum SPF 20 Shade 01 Light; Blurred Lines CC Creme Broad Spectrum SPF 20 Shade 02 Medium; Blurred Lines CC Creme Broad Spectrum SPF 20 Shade 03 Medium/Dark; Bobbi Brown CC BROAD SPECTRUM SPF 25; Bobbi Brown Color Correct Cream SPF 35; Bobbi Brown Intensive Serum Foundation Broad Spectrum SPF 30; Bobbi Brown Intensive Serum Foundation Broad Spectrum SPF 40; Bobbi Brown Intensive Skin Serum Foundation Broad Spectrum SPF 35; Bobbi Brown Intensive Skin Serum Foundation SPF 40 Lychee, Bamboo Grass & Cordyceps Extracts; Bobbi Brown Primer Plus Radiance SPF 35; Body; Body Care Gift Set; Body Conditioner; Body Melt; Body Merry SPF 15 Sunscreen Cream; Body Repair Balm; Body Series Moisture Stick + SPF 30; Bodyglide Sun Formula SPF-25; Boil Ease Drawing Salve Ont; Bondi Sands Sunny Daze Hydrating Broad Spectrum Sunscreen SPF 50; Boo Boo Magic; Boogie Bottoms; Boogie Bottoms No-Rub Diaper Rash; Booty Goo; Borba PMS Skin Rescue A.M. SPF 40 plus Treatment; Boscia B.B. LIGHT Broad Spectrum SPF 27 PA Self-Adjusting Shade; Boscia BB BRONZE Broad Spectrum SPF 27 PA Self-Adjusting Shade; Boscia BB Broad Spectrum SPF 27 PA Self Adjusting Shade; Boscia Daily Defense Sunscreen Broad Spectrum SPF 50 PA; Boscia Skin Perfecting Bb Broad Spectrum SPF 30 LA Jolla; Boscia Skin Perfecting Bb Broad Spectrum SPF 30 Manhattan Beach; Boscia Skin Perfecting Bb Broad Spectrum SPF 30 Newport; Boscia Skin Perfecting Bb Broad Spectrum SPF 30 Venice; Botanic Heal Boh Probioderm Repair Ampoule Cushion 01 Natural Ivory; Botanic Heal Boh Probioderm Repair Ampoule Cushion 02 Natural Beige; Botanical Fresh Bb Set Spf30 Pa Plus Plus; Botanical Fresh Bb Spf30 Pa Plus Plus; Botanical Green Tea Pore Bb 01 Light Beige; Botanical Green Tea Pore Bb 02 Natural Beige; Botanical Moist Pact Spf30 Pa Plus Plus Plus 21; Botanical Moist Pact Spf30 Pa Plus Plus Plus 23; Botanical Pure Pact Spf25 Pa Plus Plus; Botanical Soothing SPF-30; Botanical Vanilla Pact Spf30 Pa Plus Plus Plus 21 Vanilla Nude; Botanical Vanilla Pact Spf30 Pa Plus Plus Plus Vanilla Natural; Botanical Vanilla Spf25 Pa Plus 01; Botanical Vanilla Spf25 Pa Plus 02 Vanilla Pink; Botao Baby Diaper Rash Cream; Botao Baby Mineral Foam; Botao Baby Mineral Sunscreen L; Botao Kids Mineral Foam; Boudreauxs; Boudreauxs Butt Diaper Rash Max Strength; Boudreauxs Butt Diaper Rash Original; Boudreauxs Rash Kicking; Boudreauxs Rash Kicking Kit; Brandless Coconut Lip Balm SPF 15; Brandless Lip Balm Coconut Broad Spectrum 15%; Breathable Camouflage Light ALMOND; Breathable Camouflage Light AMBER; Breathable Camouflage Light BEIGE; Breathable Camouflage Light CARAMEL; Breathable Camouflage Light COCOA; Breathable Camouflage Light CREME; Breathable Camouflage Light HONEY; Breathable Camouflage Light IVORY; Breathable Camouflage Light PEARL; Breathable Camouflage Light TAUPE; Breathable Camouflage Light Tawny; Breathable CamouflageLight SAND; Breathable Concealer Light; Breathable Concealer Medium; Breathable Concealer Tan; Breathable Tint 1; Breathable Tint 2; Breathable Tint 3; Breathable Tint 4; Bright Guard Natural SPF 30; Bright Guard Sport SPF; Bright Skin Moisturizer SPF 30; Bright-eyed 100% mineral Eye Cream Broad Spectrum Sunscreen SPF 40; Brighten SPF 30; BrightenUp Illuminating with Mineral Broad Spectrum SPF 15 Sunscreen; Brightening Dynamics Traveling Kit Jafra; Brightening Perfector SPF 20 Sunscreen; Brightening Powder Compact Foundation SPF 20; Brightening Primer SPF 20; Brightening TRIO; Brighter Day Broad Spectrum SPF 30 Sunscreen; British Army Foot Pwr; Broad Spectrum Face and Body Sunscreen Stick SPF 30; Broad Spectrum Moisturizing Sunscreen SPF 30; Broad Spectrum SPF 15 Coconut Lip Balm; Broad Spectrum SPF 15 Sunscreen CVS; Broad Spectrum SPF 30 Mineral Sun Stick; Broad Spectrum SPF 30 Mineral Sunscreen; Broad Spectrum SPF 30 Sunscreen; Broad Spectrum SPF 30 Tinted Mineral Defense Sunscreen; Broad Spectrum SPF 30 Tinted Physical Defense Sunscreen; Broad Spectrum SPF 30 Up The Anti; Broad Spectrum SPF 30 Water Resistant (80 Minutes); Broad Spectrum SPF 30 Water Resistant Mineral Sunscreen; Broad Spectrum SPF 30 for Face and Body; Broad Spectrum SPF 35 ECO; Broad Spectrum SPF 50 Babies Mineral Sunscreen; Broad Spectrum SPF 50 Faces Mineral Sunscreen; Broad Spectrum SPF 50 Mineral Sunscreen; Broad Spectrum SPF30 Mineral Sunscreen; Broad Spectrum SPF45; Broad Spectrum SPF50 Water Resistant (80 minutes) Mineral Sunscreen UVA UVB Protection Stick for Kids; Broad Spectrum Water Resistant SPF 30 Mineral Sunscreen; Broad Spectrum Water Resistant SPF 50 Mineral Sunscreen; Broad Spectrum Water Resistant SPF 50 Mineral Sunscreen Babies; Broad Spectrum Water Resistant SPF 50 Mineral Sunscreen Faces; Broccoli Sun Spf42 Pa Plus Plus Plus; Bronze Booster BB Cream SPF 20; Bronzing Mineral Beauty Balm SPF 15; Bronzing Perfector SPF 20 Sunscreen; Bronzing Primer SPF 20; Brush on Block Mineral Sunscreen Broad Spectrum SPF 30; Brush on Block Nude Tint Protective Lip Oil Broad Spectrum SPF 32; Brush on Block Sheer Genius Broad Spectrum SPF 50; Bskos Air Cushion Beige 23; Bskos Air Cushion Light Beige 21; Bskos Double Lasting Li Quid Foundation Beige 23; Bskos Double Lasting Li Quid Foundation Bronceado 26; Bskos Double Lasting Li Quid Foundation Canela 32; Bskos Double Lasting Li Quid Foundation Caramel 31; Bskos Double Lasting Li Quid Foundation Gitano 28; Bskos Double Lasting Li Quid Foundation Light Beige 21; Bskos Double Lasting Li Quid Foundation Natural 20; Bskos Double Lasting Li Quid Foundation Sun Beige 29; Budpak Diaper Rash; Buildable Blur CC Broad Spectrum SPF 40 Sunscreen; BullFrog Land Sport SPF 50 Quik; Bum Ease; Burn Out SPF-30 Sunscreen; Burts Bees Baby Bee Diaper Rash; Burts Bees Calming Day SPF30; Burts Bees Firming Day SPF30; But First Water; Butt Butter; Buttiezzz Daily; Buttiezzz Intense; By Pharmicell Lab Prestige BB SPF30 PA PLUS PLUS; Bye Bye Foundation Full Coverage Moisturizer SPF 50 Deep; Bye Bye Foundation Full Coverage Moisturizer SPF 50 Fair; Bye Bye Foundation Full Coverage Moisturizer SPF 50 Fair Light; Bye Bye Foundation Full Coverage Moisturizer SPF 50 Light; Bye Bye Foundation Full Coverage Moisturizer SPF 50 Light Medium; Bye Bye Foundation Full Coverage Moisturizer SPF 50 Medium; Bye Bye Foundation Full Coverage Moisturizer SPF 50 Medium Tan; Bye Bye Foundation Full Coverage Moisturizer SPF 50 Neutral Medium; Bye Bye Foundation Full Coverage Moisturizer SPF 50 Neutral Tan; Bye Bye Foundation Full Coverage Moisturizer SPF 50 Rich; Bye Bye Foundation Full Coverage Moisturizer SPF 50 Rich Honey; Bye Bye Foundation Full Coverage Moisturizer SPF 50 Tan; C Beyond Triple Serum (tone 1); C Beyond Triple Serum (tone 2); C Beyond Triple Serum (tone 3); C-Nate DHA; C.A.G. Tab; CAPTURE DREAMSKIN FRESH and PERFECT CUSHION WITH SUNSCREEN BROAD SPECTRUM SPF 50 000; CAPTURE DREAMSKIN FRESH and PERFECT CUSHION WITH SUNSCREEN BROAD SPECTRUM SPF 50 010; CAPTURE DREAMSKIN FRESH and PERFECT CUSHION WITH SUNSCREEN BROAD SPECTRUM SPF 50 020; CAPTURE DREAMSKIN FRESH and PERFECT CUSHION WITH SUNSCREEN BROAD SPECTRUM SPF 50 030; CAREALL Zinc Oxide; CARIBBEAN SOL - Kid Kare - SPF 30; CARIBBEAN SOL Natural Sunscreen SPF-30; CBD Blue Light Defense SPF 30; CC Cream Broad Spectrum Sunscreen SPF 35 Fair to Light; CC Cream Daily Correct Broad Spectrum SPF 40 Sunscreen Fair to Light Supergooop; CC Cream Deep220; CC Cream Deep230; CC Cream Deep240; CC Cream Deep250; CC Cream Fair30; CC Cream Light100; CC Cream Light80; CC Cream Light90; CC Cream Medium120; CC Cream Medium130; CC Cream Medium140; CC Cream Medium150; CC Cream SPF 30; CC Cream Tan160; CC Cream Tan170; CC Cream Tan190; CC Cream Tan200; CC Cushion Compact SunScreen - Fair / light; CC Cushion Compact SunScreen - Medium / Deep; CC Cushion Compact SunScreen - light / medium; CC Daily Correct Broad Spectrum SPF 35 Sunscreen Light to Medium Supergoop; CC Daily Correct Broad Spectrum SPF 35 Sunscreen Medium to Dark Supergoop; CC Screen 100% Mineral CC Cream Broad Spectrum SPF 50 100C; CC Screen 100% Mineral CC Cream Broad Spectrum SPF 50 105N; CC Screen 100% Mineral CC Cream Broad Spectrum SPF 50 110C; CC Screen 100% Mineral CC Cream Broad Spectrum SPF 50 206W; CC Screen 100% Mineral CC Cream Broad Spectrum SPF 50 215N; CC Screen 100% Mineral CC Cream Broad Spectrum SPF 50 226W; CC Screen 100% Mineral CC Cream Broad Spectrum SPF 50 230C; CC Screen 100% Mineral CC Cream Broad Spectrum SPF 50 306W; CC Screen 100% Mineral CC Cream Broad Spectrum SPF 50 315N; CC Screen 100% Mineral CC Cream Broad Spectrum SPF 50 326W; CC Screen 100% Mineral CC Cream Broad Spectrum SPF 50 336W; CC Screen 100% Mineral CC Cream Broad Spectrum SPF 50 346W; CC Screen 100% Mineral CC Cream Broad Spectrum SPF 50 400C; CC Screen 100% Mineral CC Cream Broad Spectrum SPF 50 416W; CC Screen 100% Mineral CC Cream Broad Spectrum SPF 50 426W; CCC Clean Corrective with Vitamin C Tinted Moisturizer Broad Spectrum SPF 30; CD DIORSKIN CITY DEFENSE Toxin Shield Pollution UV Advanced Protection with sunscreen Broad Spectrum SPF50; CD DIORSNOW Bloom Perfect Brightening Perfect Skin Creator With Sunscreen Broad Spectrum SPF35; CD DIORSNOW UV SHIELD Brightening Illuminating UV Protection With Sunscreen TRANSLUCENT BROAD SPECTRUM SPF 50; CD DiorSnow UV Shield Pearly White - SPF50; CD DiorSnow UV Shield Transluscent - SPF50; CELLTRION LXTR WATER CUSHION No 21 PINK BEIGE; CELLTRION LXTR WATER CUSHION No 23 NATURAL BEIGE; CG Smoothers Tinted Moisturizer and Sunscreen SPF 21; CHANTECAILLE PROTECTION NATURELLE BRONZE Refill SPF 46; CHANTECAILLE PROTECTION NATURELLE LIGHT Refill SPF 46; CITY BLOCK SHEER Oil FREE DAILY FACE PROTECTOR BROAD SPECTRUM SPF 25; CLEMATIS FLUFFY MATTE CUSHION 25 Soft Beige; CLEMATIS FLUFFY MATTE CUSHION 27 Beige; CLEMATIS Fluffy Matte Cushion 21 Light Beige; CLEMATIS Fluffy Matte Cushion 23 Natural Beige; CLEMATIS Morning dew BB 21 Light Beige; CLEMATIS Morning dew BB 23 Natural Beige; COOLA Mineral Body SPF 30 Tropical Coconut; COOLA Mineral Liplux Lip Balm SPF 30 Firecracker; COOLA Mineral Liplux Lip Balm SPF 30 Nude Beach; COOLA Mineral Liplux Lip Balm SPF 30 Skinny Dip; COOLA Mineral Liplux Lip Balm SPF 30 Summer Crush; COOLA Mineral Sun Silk Creme Sunscreen SPF 30; COVERQUEEN All in one sun roll; CRème De Soin Solaire Mer Et Tropiques Visage; CRème Solaire Régions Sensibles Fps 30; CURETECH SHIELD PeriShield; CVS Calamine Plus; CVS Clear Zinc SPF 50; CVS Health 30 Zinc Sheer; CVS Health 60 Plus Sensitive Skin Sun; CVS Health AM Moisturizing Facial; CVS Health Baby SPF 50 Mineral-Based Sun; CVS Health Baby SPF 50 Sun; CVS Health Diaper Rash; CVS Health SPF 50 Vanishing Zinc Sun; CVS Health SPF 50 Vanishing Zinc Sun Face; CVS Health SPF 50 Zinc Face Sheer; CVS Health SPF 50 Zinc Sheer Sunscreen; CVS Live Better Body Mineral Sunscreen Broad Spectrum SPF 50; CVS Pharmacy Quick Relief; CVS Pharmacy Rash Cream; CVS Pharmacy Sunscreen SPF 45; CVS Zinc Oxide; CY BB Facial Hidratante con Color FPS 25 Multibeneficios; CY BETTER LIPS BALM Humectante para Labios con color FPS 18 (BLUSH CURE) - PINK; CY BETTER LIPS BALM Humectante para Labios con color FPS 18 (CHOCO THERAPY) - BROWN; CY BETTER LIPS BALM Humectante para Labios con color FPS 18 (DR. ROSE) - PINK; CY BETTER LIPS BALM Humectante para Labios con color FPS 18 (FLASHY KARMIN) - RED; CY BETTER LIPS BALM Humectante para Labios con color FPS 18 (FUXIA DEFENSE) - MAGENTA; CY BETTER LIPS BALM Humectante para Labios con color FPS 18 (GET WELL PEACH) - PINK; CY BETTER LIPS BALM Humectante para Labios con color FPS 18 (GRAPE CARE) - RED; CY BETTER LIPS BALM Humectante para Labios con color FPS 18 (INTENSIVE RED) - RED; CY BETTER LIPS BALM Humectante para Labios con color FPS 18 (LILAC ZIMMER) - LILAC; CY BETTER LIPS BALM Humectante para Labios con color FPS 18 (PINK STAR) - PINK; CY BETTER LIPS BALM Humectante para Labios con color FPS 18 (PURE OXYGEN) - BEIGE; CY BETTER LIPS BALM Humectante para Labios con color FPS 18 (SAND LIFE) - YELLOW; CY BETTER LIPS BALM Humectante para Labios con color FPS 18 (SHINY BROWN) - BROWN; CY BETTER LIPS BALM Humectante para Labios con color FPS 18 (SUN LIGHT) - BEIGE; Cacitrix; Cal-mag Plus K, Mn and Zn Caplets; Caladrox; Caladryl; CalamiCare; Calamine; Calamine Lotion With Antihistamine; Calamine Phenolated Topical Suspension; Calamine Plus; Calamine Plus Pramoxine HCL; Calamine Plus Pramoxine HCl; Calcemin Advance; Calcemin Silver; Calcium Mg and Zn Capsules With Vitamin D; Calcium Plus; Calcium and Magnesium With Zinc; Caldesene; Caldesene Baby; Caldesene Medicated Ointment; Caldesene Medicated Protecting; Calendula Diaper Rash; Calendula Diaper Rash Cream; Calendula Non-nano UV Protection Unscented SPF30PA; Calendula Non-nano Uv Protection Unscented Spf30; Califonia Aloe Ice Puff Sun Clear; California Aloe Daily Sun Block; California Aloe Fresh Sun Milk; California Aloe Power Lasting Sun Block; California Aloe Sun; California Aloe Waterproof Sun Block; California Naturel All Natural Sunscreen SPF 30; California Naturel Lip Balm SPF 8; California Pure Naturals Natural Baby Sunscreen SPF 30; Calm It Down Kit; CalmaFX Moisture Barrier; Calming Diaper Rash; Calming Perfector SPF 20 Sunscreen; Calming Primer SPF 20; Calmitol Itching Relief Ont; Calmodrox; Calmol 4; Calmoseptine; Camera Ready Bb Eyes Bs SPF 15; Camera Ready Bb Water Broad Spectrum SPF 30; Camo CC Cream SPF30 Deep 500 W; Camo CC Cream SPF30 Deep 510 C; Camo CC Cream SPF30 Deep 540 N; Camo CC Cream SPF30 Deep 560 C; Camo CC Cream SPF30 Fair 120 N; Camo CC Cream SPF30 Fair 140 W; Camo CC Cream SPF30 Fair 150 C; Camo CC Cream SPF30 Light 210 N; Camo CC Cream SPF30 Light 240 W; Camo CC Cream SPF30 Light 280 N; Camo CC Cream SPF30 Medium 310 C; Camo CC Cream SPF30 Medium 330 W; Camo CC Cream SPF30 Medium 355 W; Camo CC Cream SPF30 Medium 375 N; Camo CC Cream SPF30 Rich 620 W; Camo CC Cream SPF30 Rich 640 W; Camo CC Cream SPF30 Rich 660 N; Camo CC Cream SPF30 Tan 415 C; Camo CC Cream SPF30 Tan 425 N; Camo CC Cream SPF30 Tan 450 N; Camo CC SPF 30 Deep 530 W; Camo CC SPF 30 Fair 100 W; Camo CC SPF 30 Fair 125 C; Camo CC SPF 30 Light 205 N; Camo CC SPF 30 Light 250 W; Camo CC SPF 30 Medium 370 N; Camo CC SPF 30 Rich 610 N; Camo CC SPF 30 Rich 650 C; Camo CC SPF 30 Tan 400 W; Camo CC SPF 30 Tan 460 W; Camo Cc Cream; Candy Doll Basic Bright Pure Base Mint Green; Candy Doll Bright Pure Base; Candy Doll White Pure Powder Normal; Candy Doll White Pure Powder Shiny; CannaCell Sun Buddy Facial SPF 30; Cape Cod Sunscreen Plus SPF 30; Capent Diaper Rash; Cappuccino Long Wear Makeup Broad Spectrum SPF 20; Cappuccino Radiance Foundation Broad Spectrum SPF 20 - Tawny JAFRA; Capture Dreamskin Fresh and Perfect Cushion With Sunscreen Broad Spectrum SPF 50 000; Capture Dreamskin Fresh and Perfect Cushion With Sunscreen Broad Spectrum SPF 50 010; Capture Dreamskin Fresh and Perfect Cushion With Sunscreen Broad Spectrum SPF 50 012; Capture Dreamskin Fresh and Perfect Cushion With Sunscreen Broad Spectrum SPF 50 020; Capture Dreamskin Fresh and Perfect Cushion With Sunscreen Broad Spectrum SPF 50 025; Capture Dreamskin Fresh and Perfect Cushion With Sunscreen Broad Spectrum SPF 50 030; Capture Dreamskin Fresh and Perfect Cushion With Sunscreen Broad Spectrum SPF 50 040; Capture Totale Dreamskin Perfect Skin Cushion Youth Skincare Perfect Complexion Creator With Sunscreen Broad Spectrum SPF 50 010; Capture Totale Dreamskin Perfect Skin Cushion Youth Skincare Perfect Complexion Creator With Sunscreen Broad Spectrum SPF 50 012; Capture Totale Dreamskin Perfect Skin Cushion Youth Skincare Perfect Complexion Creator With Sunscreen Broad Spectrum SPF 50 020; Capture Totale Dreamskin Perfect Skin Cushion Youth Skincare Perfect Complexion Creator With Sunscreen Broad Spectrum SPF 50 030; Capture Totale Dreamskin Perfect Skin Cushion Youth Skincare Perfect Complexion Creator With Sunscreen Broad Spectrum SPF 50 21; Capture Totale Dreamskin Perfect Skin Cushion Youth Skincare Perfect Complexion Creator With Sunscreen Broad Spectrum SPF 50 25; Capture Totale Dreamskin Perfect Skin Cushion Youth Skincare Perfect Complexion Creator With Sunscreen Broad Spectrum SPF 50 40; CaraGala - Botanical Defense Day Cream Broad Spectrum SPF 30 Sunscreen; Caramel Latte Tinted Moisturizer; Caramel Latte Tinted Moisturizer Broad Spectrum SPF 25 Sunscreen Light To Medium; Caramel Long Wear Makeup Broad Spectrum SPF 20; Caramel Radiance Foundation Broad Spectrum SPF 20 - Tawny JAFRA; Carboseptol; Care Day Cream With Uv-protection; CareCella Hydration BB Cream; CareCella Velvet Cover BB Cream; Carecella Velvet Cover BB Cream; Carecella Velvet Cover BB Cream No 25; Cargo Tinted Moisturizer SPF 20; Caribbean Sol - Faces Only - SPF 20; Caribbean Sol - Sport SPF 30; Caribbean Sol - Sunscreen SPF 15; Caribbean Sol - Sunscreen SPF 30; Caribbean Sol - Sunscreen SPF 8; Carlesta; Carlesta Adult Skin Protectant; Carrington Moisture Barrier; Cathycat Essence Sun Bb; Catrin Diamond Mineral Foundation; Cavan Alpha; Cavan Folate DHA; Cavan Folate OB; Cavan Heme OB; Cavan Prenatal; Cavan-EC SOD DHA; Cay Skin Universal Mineral Body SPF 55; Cay Skin Universal Mineral Face SPF 55; Cc Complete Correction Sunscreen Broad Spectrum SPF 50, 20 Beige; Cc Complete Correction Sunscreen Broad Spectrum SPF 50, 30 Beige; Cc Complete Correction Sunscreen Broad Spectrum SPF 50, 40 Beige; Cc Cream Correction Complete Complete Correction Fps 50 / SPF 50; Cc Cream Correction Complète Complete Correction SPF 50; Cc Creme Color Correction Creme; Cc Sunscreen; Cc Super Active Complete Correction Sunscreen Broad Spectrum SPF 50 10 Beige; Cc Super Active Complete Correction Sunscreen Broad Spectrum SPF 50 20 Beige; Cc Super Active Complete Correction Sunscreen Broad Spectrum SPF 50 30 Beige; Cc Super Active Complete Correction Sunscreen Broad Spectrum SPF 50 40 Beige; Cc Super Active Complete Correction Sunscreen Broad Spectrum SPF 50 50 Beige; Cc Super Active Complete Correction Sunscreen Broad Spectrum SPF 50 60 Beige; Cc Super Active Complete Correction Sunscreen Broad Spectrum SPF 50 70 Beige; Cc Veil Beauty Fluid Foundation Fair; Cc Veil Beauty Fluid Foundation Light; Cc Veil Beauty Fluid Foundation Medium; Cc Veil Beauty Fluid Foundation Rich; Cc Veil Beauty Fluid Foundation Tan; Celebration Foundation Deep; Celebration Foundation Fair; Celebration Foundation Light; Celebration Foundation Medium; Celebration Foundation Medium Tan; Celebration Foundation Rich; Celebration Foundation Tan; Celesty Ageless Series Age-Defying Sunscreen SPF 30; Celesty Antioxidant Series Rejuvenating Sunscreen SPF 30; Celesty Sensitive Skin Series Sunscreen SPF30; Celesty oil CONTROL Series MATTIFYING SUNSCREEN SPF 30; Cell Boosting Bb 01 Light Beige; Cell Boosting Bb 02 Natural Beige; Cell Boosting Bb 03 Sand Beige; Cell Boosting Bb Spf30 01 Light Beige; Cell Boosting Bb Spf30 02 Natural Beige; Cell Boosting Bb Spf30 07 Sand Beige; Cell Fusion C Laser Sunscreen; Cellex-C Sun Care; Cellex-C Sun Care SPF 50+; Cellex-C Sun Shade; Cellex-C Suncare SPF 15; Cellex-C Suncare SPF 30; Cellex-C Suncare SPF 32; Cellex-C Sunshade SPF 50+; Cellpium shield sun bb; Cellromax Sun Block; Cellular Day Defense Firming Complex SPF 15; Cellular Day Defense Firming SPF 25; Cellular Swiss Ice Crystal Transforming Cream SPF 30 - Beige; Cellular Swiss Ice Crystal Transforming Cream SPF 30 - Nude; Cellular Swiss Ice Crystal Transforming Cream SPF 30 - Rose; Cellular Swiss Ice Crystal Transforming Cream SPF 30 - Tan; Cellular Swiss Protection Veil Broad Spectrum SPF 50; Cellular Swiss Sunscreen Broad Spectrum SPF 30; Cellular Swiss UV Protection Veil Sunscreen Broad Spectrum SPF 50 La Prairie; CeraVe AM BROAD SPECTRUM SUNSCREEN SPF 30; CeraVe AM Facial Moisturizing Broad Spectrum SPF 30 Sunscreen; CeraVe AM Sunscreen Broad Spectrum 30 SPF; CeraVe Baby Diaper Rash Cream; CeraVe Baby Sunscreen Broad Spectrum SPF 45; CeraVe Developed with Dermatologists Baby Sunscreen Broad Spectrum SPF 45; CeraVe Developed with Dermatologists Hydrating Mineral Sunscreen Broad Spectrum SPF 30 Face Sheer Tint Sunscreen; CeraVe Developed with Dermatologists Hydrating Sheer Sunscreen Broad Spectrum SPF 30 Face and Body Water Resistant 80 Minutes Hybrid Formula; CeraVe Developed with Dermatologists Skin Renewing Broad Spectrum SPF 30 Day; CeraVe Developed with Dermatologists Sunscreen Body Broad Spectrum SPF 30; CeraVe Developed with Dermatologists Sunscreen Body Broad Spectrum SPF 50; CeraVe Developed with Dermatologists Sunscreen Broad Spectrum SPF 30 Face; CeraVe Developed with Dermatologists Sunscreen Broad Spectrum SPF 50; CeraVe Developed with Dermatologists Sunscreen Broad Spectrum SPF 50 Face; CeraVe Skin Renewing Day Cream with Broad Spectrum SPF 30 Sunscreen; CeraVe Sunscreen Broad Spectrum SPF 30 BODY; CeraVe Sunscreen Broad Spectrum SPF 30 FACE; CeraVe Sunscreen Broad Spectrum SPF 50; CeraVe Sunscreen Broad Spectrum SPF 50 Body; CeraVe Sunscreen Broad Spectrum SPF 50 Face; Cerave; Cerave Developed With Dermatologists Hydrating Sunscreen SPF 30 Face Lightweight, Non-greasy Feel 3 Essential Ceramides Niacinamide Mineral Sunscreen; Cerave Developed with Dermatologists Hydrating Sunscreen SPF 30 Body Lightweight, non-greasy feel 3 essential ceramides Mineral Sunscreen; Cerave Developed with Dermatologists Hydrating Sunscreen SPF 50 Body Lightweight, non-greasy feel 3 essential ceramides Mineral Sunscreen; Cerave Developed with Dermatologists Hydrating Sunscreen SPF 50 Face Lightweight, non-greasy feel 3 essential ceramides niacinamide Mineral; Cest Moi Sunshine Mineneral Sunscreen SPF45; Cetaphil Redness Relieving Daily Facial Moisturizer with sunscreen SPF 20; Cetaphil Sheer Mineral Face Liquid Sunscreen SPF 50; Cetaphil Sheer Mineral Sunscreen SPF 30; Cetaphil Sheer Mineral Sunscreen SPF 50; Cetaphil Sheer Mineral Sunscreen Stick SPF 50; Cg Smoothers SPF 15 Tinted Moisture; Chae ORGANICS SAFE4U Sunscreen Broad Spectrum SPF 30 Natural Mineral Sunscreen; Chamosyn; Chamosyn Paraben Free; Chantecaille Protection Naturelle Bronze SPF 46; Chantecaille Protection Naturelle Light SPF 46; Chantecaille SPF 30; Chapstick Total Hydration Moisture Tint Peachy Keen; Chapstick Total Hydration Moisture Tint Pretty in Pink; Chapstick Total Hydration Moisture Tint Very Berry; Charmzone ALBATROSS Powder Sun (SPF41 PA); Charmzone Natural Skinade BB Cream (SPF20 PA); Chem Free SPF 30; Chem-Free Active Defense SPF 30; Chemical Free Sunscreen; Chemical Free Sunscreen Broad Spectrum SPF 30; Chi Kung Huo Shiueh Kao; China Doll Foundation Broad Spectrum SPF 15; Cho-a PAP; Choice OB DHA; Christina Moss Naturals Natural Sunscreen SPF 30; CitraNatal 90 DHA; CitraNatal DHA; CitraNatal Rx; City Block Sheer SPF 25 Oil Free Daily Face Protector; City Skin Age Defense Broad Spectrum SPF 50; Ck One Airlight Pressed Powder SPF 15 Bisque 400; Ck One Airlight Pressed Powder SPF 15 Cappuccino 700; Ck One Airlight Pressed Powder SPF 15 Caramel 700; Ck One Airlight Pressed Powder SPF 15 Fair 200; Ck One Airlight Pressed Powder SPF 15 Honey 600; Ck One Airlight Pressed Powder SPF 15 Porcelain 100; Ck One Airlight Pressed Powder SPF 15 Sand 300; Ck One Airlight Pressed Powder SPF 15 Tan 500; Clamue Healthy Fresh BB Cream Light; Clamue Healthy Fresh BB Cream Light Medium; Clamue Healthy Fresh BB Cream Medium; Clamue Healthy Fresh BB Cream Medium Deep; Clapiel Defense Sunblock; Clapiel Mineral CC; Clarifying Complexion Protection; Clarins Broad Spectrum SPF 30 Sunscreen for Sun-Sensitive Areas; Clarins Broad Spectrum SPF 50 Sunscreen Care Milk for Children; Clarins High Protection Sunscreen Care Milk for Children SPF 50; Clarins High Protection Sunscreen for Sun-sensitive Areas SPF 30; Clarisonic Mia 2 Facial Sonic Cleansing Brush with Supergoop Sun Essentials; Clarite Makeup Foundation for a Clearer Appearance SPF 30 170-N; Clarite Makeup Foundation for a Clearer Appearance SPF 30 180-F; Clarite Makeup Foundation for a Clearer Appearance SPF 30 220-C; Clarite Makeup Foundation for a Clearer Appearance SPF 30 230-N; Clarite Makeup Foundation for a Clearer Appearance SPF 30 310-C; Clarite Makeup Foundation for a Clearer Appearance SPF 30 390-N; Clarite Makeup for a Cleaner appearance SPF 30 110-C; Clarite Makeup for a Cleaner appearance SPF 30 130-F; Clarite Makeup for a Cleaner appearance SPF 30 140-C; Clarite Makeup for a Cleaner appearance SPF 30 150-C; Clarite Makeup for a Cleaner appearance SPF 30 160-N; Clarite Makeup for a Cleaner appearance SPF 30 170-N; Clarite Makeup for a Cleaner appearance SPF 30 180-F; Clarite Makeup for a Cleaner appearance SPF 30 200-C; Clarite Makeup for a Cleaner appearance SPF 30 210-F; Clarite Makeup for a Cleaner appearance SPF 30 220-C; Clarite Makeup for a Cleaner appearance SPF 30 230-N; Clarite Makeup for a Cleaner appearance SPF 30 240-C; Clarite Makeup for a Cleaner appearance SPF 30 250-F; Clarite Makeup for a Cleaner appearance SPF 30 260-N; Clarite Makeup for a Cleaner appearance SPF 30 270-C; Clarite Makeup for a Cleaner appearance SPF 30 280-F; Clarite Makeup for a Cleaner appearance SPF 30 290-C; Clarite Makeup for a Cleaner appearance SPF 30 300-N; Clarite Makeup for a Cleaner appearance SPF 30 310-C; Clarite Makeup for a Cleaner appearance SPF 30 320-C; Clarite Makeup for a Cleaner appearance SPF 30 330-C; Clarite Makeup for a Cleaner appearance SPF 30 340-F; Clarite Makeup for a Cleaner appearance SPF 30 350-N; Clarite Makeup for a Cleaner appearance SPF 30 370-C; Clarite Makeup for a Cleaner appearance SPF 30 390-N; Clarite Makeup for a Cleaner appearance SPF 30 410-N; Clarite Makeup for a Cleaner appearance SPF 30 420-C; Clarite Makeup for a Cleaner appearance SPF 30 450-C; Clarite Makeup for a Cleaner appearance SPF 30 460-F; Clarite Makeup for a Cleaner appearance SPF 30 470-N; Clarity Rx - Skin Defense Environmental Protection; Cle De Peau Beaute Uv Protection; Cle De Peau Beaute Uv Protective; Cle De Peau Beaute Uv Protective Very High Protection for Body; Cle De Peau Beaute Uv Protective for Body; Clean; Clean Screen Mineral SPF30 Mattifying Face Sunscreen Broad Spectrum; Clean Tinted; Clear Clear Zinc Solar Protection SPF 30; Clear Daylight Radiance Moisturizer Broad Spectrum SPF 32; Clear Defense SPF 45; Clear Foundation Sunscreen Broad Spectrum SPF 45; Clear Skin Clarifying Cleanser; Clear Suncreen Face Stick Broad Spectrum SPF 45; Clear Sunscreen Face Stick Broad Spectrum SPF 45; Clear Sunscreen Face Stick Sensitive Broad Spectrum SPF 30; Clear Sunscreen Stick; Clematis Base Cushion; Cler Zinck 45 SPF Sunblock; Climatik SPF 30 Fps Lip Balm Baume A Levres; Clindavix; Clinique Advanced Stop Signs Eye Preventive Cream SPF 15; Clinique Advanced Stop Signs Eye Preventive Cream Spf15; Clinique Age Defense Bb Cream SPF 30; Clinique Broad Spectrum SPF 30 Mineral Sunscreen Fluid for Face; Clinique Broad Spectrum SPF 30 Mineral Sunscreen for Body; Clinique Broad Spectrum SPF 30 Oil Free Face With Solar Smart; Clinique City Block Sheer Oil-free Daily Face Protector 15 SPF; Clinique City Block Sheer Shimmer Oil-free Daily Face Protector SPF 15; Clinique City Block Sheer Tint Oil-free Daily Face Protector SPF 15; Clinique Cx Protective Base SPF 40; Clinique Even Better Clinical Serum Foundation Broad Spectrum SPF 25; Clinique Even Better Glow Light Reflecting Makeup SPF 15; Clinique Even Better Makeup SPF 15; Clinique Face Zone Sun Block 30 SPF; Clinique High Impact Lip Colour SPF 15; Clinique Moisture Surge Cc Cream Hydrating Colour Corrector SPF 30; Clinique Redness Solutions Daily Protective Base SPF 15; Clinique Redness Solutions Makeup SPF 15 With Probiotic Technology; Clinique Repairwear Day SPF 15 Intensive Cream; Clinique Repairwear Day SPF 15 Intensive Cream Very Dry Skin Formula; Clinique Repairwear Day SPF 15 Intensive Lotion; Clinique SPF 30 With Solarsmart+ Oil-free Face Cream; Clinique SPF 50 Broad Spectrum Mineral Sunscreen Fluid for Face; Clinique Sun-care Lip/eye 30 SPF Sun Block; Clinique Super City Block Oil-free Daily Face Protector SPF 40; Clinique Super Defense City Block Daily Energy Plus Face Protector Broad Spectrum SPF 50; Clinique Superbalanced Compact Makeup SPF 20; Clinique Superbalanced Silk Makeup Broad Spectrum SPF 15; Clinique Superbalanced Silk Makeup SPF 15; Clinique for Men Uv Defense Broad Spectrum Spf50; Cloak SPF 50; Clorox CareConcepts Rash Relief; Clorox Careconcepts Rash Relief Ointment; Cloud 9 100% Mineral Sun Balm Broad Spectrum Sunscreen SPF 40; Clove Hill acne safe mineral sunscreen SPF 40; Clé De Peau Beauté 30 Émulsion Protectrice Uv Pour Le Corps; Clé De Peau Beauté 50+ CRème Protectrice Uv; Clé De Peau Beauté 50+ Émulsion Très Haute Protection Uv Pour Le Corps; Cmc Shield Skin Protectant; Cmc Zinc Oxide; CoTZ Baby; CoTZ Face Moisture; CoTZ Face Prime and Protect SPF 40 (Non-Tinted); CoTZ Face Prime and Protect SPF 40 (Tinted); CoTZ Flawless Complexion; CoTZ Kids Pure Botanicals; CoTZ Lip Balm; CoTZ Mineral Suns Stick - Tinted SPF 45; CoTZ Pure Botanicals; CoTZ SPF 35 Sunscreen; CoTZ SPF 58 Sunscreen; CoTZ Sensitive; CoTZ Silky Foam - Tinted; CoTZ Silky Foam Non-Tinted; CoTZ Sport Non-Tinted; Coco Glow Sun Balm; Cocoa Latte Tinted Moisturizer; Cocoa Latte Tinted Moisturizer Broad Spectrum SPF 25 Sunscreen Medium To Dark; Coconut Mineral SPF 15 Broad Spectrum Lip Balm; Cold Sore Support; Coldsore Bomb; Collagen Glow Mineral Sunscreen SPF 50; Collagen Hd Cover Bb Spf27 Pa Plus Plus; Collagen Hd Foundation Spf30 Pa Plus Plus 21 Soft Beige; Collagen Hd Foundation Spf30 Pa Plus Plus 23 Medium Beige; Collagen Hd Make Up Base Spf30 Pa Plus Plus 02 Violet; Collagen Resurgence Stemcell Bb; Color Correcting Primer Green; Color Correcting Primer Purple; Color Me With KidsUV SPF30; Complete Beauty; Complete Natal DHA; Complete hemp; Complete-RF Prenatal; Complexion Brightener SPF20; Complexion Corrector SPF20; Complexion Enhancer SPF15; Complexion Perfector BB SPF20; Complexion Perfector BB SPF20 Medium; Complexion Protection Moisturizer SPF; Concealer Broad Spectrum Sunscreen SPF 30; Concentre Total Base Serum Base De Maquillaje Ultra-fluid Foundation SPF 25 Almendra 230-N; Concentre Total Base Serum Base De Maquillaje Ultra-fluid Foundation SPF 25 Beige 220-C; Concentre Total Base Serum Base De Maquillaje Ultra-fluid Foundation SPF 25 Capuccino 310-C; Concentre Total Base Serum Base De Maquillaje Ultra-fluid Foundation SPF 25 Champagne 170-N; Concentre Total Base Serum Base De Maquillaje Ultra-fluid Foundation SPF 25 Latte 180-F; Concentre Total Base Serum Base De Maquillaje Ultra-fluid Foundation SPF 25 Mokaccino 390-N; Condition and Enhance Healthy Skin Protection SPF 35; Condition and Enhance Physical Uv Block SPF 32; Condition and Enhance System Full-size Non-surgical; Condition and Enhance System Travel-size Non-surgical; Condition and Enhance System Travel-size Surgical; Confidence In A Compact Skin-Transforming Full Coverage Solid Super Serum SPF 50 Deep; Confidence In A Compact Skin-Transforming Full Coverage Solid Super Serum SPF 50 Fair; Confidence In A Compact Skin-Transforming Full Coverage Solid Super Serum SPF 50 Light; Confidence In A Compact Skin-Transforming Full Coverage Solid Super Serum SPF 50 Medium; Confidence In A Compact Skin-Transforming Full Coverage Solid Super Serum SPF 50 Medium-Tan; Confidence In A Compact Skin-Transforming Full Coverage Solid Super Serum SPF 50 Rich; Confidence In A Compact Skin-Transforming Full Coverage Solid Super Serum SPF 50 Tan; Conju Princess UV Sun Block; Conscious Sunscreen, Protect-respect SPF-50; Conscious Sunscreen, Protect-respect, Face SPF-40; Continuum Unifying Lotion I; Continuum Unifying Lotion II; Control Corrective Day SPF-30 Sunscreen; Control Corrective Intensive Skin Brightening SPF-30 Sunscreen; Control Corrective Sunscreen SPF-30; Control Corrective Tinted Moisturizer SPF-30 Sunscreen; Coola 70 Percent Plus Organic Mineral Body Sunscreen Spf50; Coola Bare Republic Mineral Body Gel-Lotion SPF 30; Coola Bare Republic Mineral Face Gel-Lotion SPF 30; Coola Bare Republic Mineral Face-Lotion SPF 70; Coola Bare Republic Mineral Sport Spf30; Coola Bare Republic Mineral Sport Spf50; Coola Bare Republic Mineral Sport Spf50 Non-nano; Coola SPF 30 Mineral Sunscreen Fragrance Free; Coppertone Defend and Care Face Clear Zinc SPF 50; Coppertone Defend and Care Face Sensitive Skin SPF 50; Coppertone Defend and Clear; Coppertone Kids SPF 50; Coppertone Kids Tear Free Mineral Sunscreen SPF 50; Coppertone Pure and Simple Baby SPF 50; Coppertone Pure and Simple Face SPF 50; Coppertone Pure and Simple Kids SPF 50; Coppertone Pure and Simple SPF 50; Coppertone Pure and Simple Sunscreen SPF 50; Coppertone Sensitive Skin SPF 50; Coppertone Spectra 3 Babies Lotion SPF 50; Coppertone Spectra 3 Kids Lotion SPF 50; Coppertone Spectra 3 Lotion SPF 30; Coppertone Spectra 3 Lotion SPF 50; Coppertone Sport Face Mineral SPF 50; Coppertone Sport Mineral Face Sunscreen SPF 50; Coppertone Sport Mineral Sunscreen SPF 50; Coppertone Sunscreen Lotion Defend & Care Clearzinc+ Other Sunscreen Ingredients; Coppertone Sunscreen Lotion Defend & Care Face Clearzinc + Other Sunscreen Ingredients; Coppertone Sunscreen Lotion SPF 50 Defend & Care Face Sensitive Skin; Coppertone Sunscreen Lotion SPF 50 Defend & Care Sensitive Skin; Coppertone Sunscreen SPF 50; Coppertone Sunscreen Stick SPF 50 Water Babies; Coppertone Tattoo Guard SPF 50; Coppertone Water Babies Stick SPF 50; Coppertone Waterbabies Pure and Simple Mineral SPF 50; Coppertone waterBABIES Pure and Simple SPF 50; Coral Safe Broad Spectrum SPF 30; Coral Safe SPF-30 Broad Spectrum Sunscreen; Coral Sure Sunscreen SPF 35; CoralSafe Broad Spectrum SPF30; Correct and Protect Serum Broad Spectrum SPF 45; Correcting Moisturizer SPF 15; Correway Sunscreen (Waterproof); Corvita; Corvite; Corvite Free; Cottontails Diaper Rash; Cotz Face (For Lighter Skin Tones) SPF 40 Sunscreen; Cotz Face (Natural Skin Tone) SPF 40 Sunscreen; Cotz Lip Balm Lip Balm/Sunscreen; Cotz Pediatric SPF 40 Sunscreen; Cotz Plus SPF 58 Sunscreen; Cotz Pure SPF 30 Sunscreen; Cotz Sensitive SPF 40 Sunscreen; Cover 10 Perfect BB Light; Cover 10 Perfect BB Natural; Cover 10 Perfect Foundation BE10; Cover 10 Perfect Foundation BE20; Cover 10 Perfect Foundation BP15; Cover Fx Cc; Cover Girl Advanced Radiance Age Defying Sheer Moisturizing Make-UP; Cover Girl Outlast All-day Liquid Makeup; Cover Girl Outlast Liquid Make-UP - Basecoat; Cover Perfection Concealer Foundation 01; Cover Perfection Concealer Foundation 02; Cover Perfection Concealer Foundation 1.5; Cover Recover SPF 30 Beige; Cover Recover SPF 30 Cocoa; Cover Recover SPF 30 Cream; Cover Recover SPF 30 Ivory; Cover Recover SPF 30 Sand; Cover Recover SPF 30 Taupe; Cover Recover SPF 30 Tawny; Cover Recover SPF 30 Warm Beige; Cover-Expert Sunscreen Broad Spectrum SPF 15 No.1 Fair Beige; Cover-Expert Sunscreen Broad Spectrum SPF 15 No.11 Amber Brown; Cover-Expert Sunscreen Broad Spectrum SPF 15 No.12 Warm Copper; Cover-Expert Sunscreen Broad Spectrum SPF 15 No.2 Neutral Beige; Cover-Expert Sunscreen Broad Spectrum SPF 15 No.3 Cream Beige; Cover-Expert Sunscreen Broad Spectrum SPF 15 No.4 Rosy Beige; Cover-Expert Sunscreen Broad Spectrum SPF 15 No.5 Peach Beige; Cover-Expert Sunscreen Broad Spectrum SPF 15 No.7 Vanilla Beige; Cover-Expert Sunscreen Broad Spectrum SPF 15 No.9 Honey Beige; Covergirl Smoothers Tinted Moisturizer BB Broad Spectrum SPF 21 (all shades); Covergirl Smoothers Tinted Moisturizer BB Cream Broad Spectrum SPF 15 (all shades); Covergirl cgsmoothers BB Tinted Moisturizer Broad Spectrum SPF 21 (all shades); Cozima; Creal Zink Sunscreen SPF 50 Well at Walgreens; Cream; Cream Oil Sunscreen; Creamy Diaper Rash; Crema Cero Zinc Oxide Skin Protectant Diaper Rash Baby Original Formula; Creme Aquamucine Cream Fps 15 SPF; Creme Douceur Protectrice; Creme Ecran Total Elusun SPF 25; Creme Hiver - Creme; Creme Protection Solaire Large Spectre Uva-uvb Fps 45; Creme Solaire Ecran Total SPF 30-klorane; Critic Aid Skin; Critic-aid Skin Paste; Curad Cream Skin Protectant; Curad Essentials Skin Paste; Curetech; Curetech Skin Protectant; Curetech enshield EN SHIELD ALOE SOFT VITAMIN ENRICHED; Curology The Lip Balm Broad Spectrum SPF 30 Sunscreen; Curology the sunscreen broad spectrum SPF 30; Cuticura Medicated Body Powder; Cvs Childrens Babys Spf50; Cvs Health Live Better Body Mineral Sunscreen SPF 30; Cy Go Nude Base Ligera Acabo Natural Cobertura Media FPS 20; Cyberderm Every Morning Sun Whip; Cyberderm Every Morning Sun Whip SPF 25; Cyberderm Simply Zinc Lite; Cyberderm Simply Zinc Ultra; Cyberwhite EX Extra Intensive Bb Creme Multi Action Formula Spf35; Cyzone Cy Play Creamy Lip Balm Hidratante En Barra Para Labios 24h Fps 12 Coral Creamy; Cyzone Cy Play Creamy Lip Balm Hidratante En Barra Para Labios 24h Fps 12 Fuchsia Creamy; Cyzone Cy Play Creamy Lip Balm Hidratante En Barra Para Labios 24h Fps 12 Nude Creamy; Cyzone Cy Play Creamy Lip Balm Hidratante En Barra Para Labios 24h Fps 12 Pink Creamy; Cyzone Studio Look Base De Alta Cobertura Para El Rostro Con Fps 20 (light 1) - Beige; Cyzone Studio Look Base De Alta Cobertura Para El Rostro Con Fps 20 (light 2) - Beige; Cyzone Studio Look Base De Alta Cobertura Para El Rostro Con Fps 20 (medium 1) - Beige; Cyzone Studio Look Base De Alta Cobertura Para El Rostro Con Fps 20 (medium 2) - Beige; Cyzone Studio Look Base De Alta Cobertura Para El Rostro Con Fps 20 (medium 3) - Beige; Cyzone Studio Look Base De Alta Cobertura Para El Rostro Con Fps 20 (medium 4) - Brown; Cyzone Studio Look Base De Alta Cobertura Para El Rostro Con Fps 20 (obscure 1) - Brown; Cyzone Studio Look Base De Alta Cobertura Y Larga Duracion Fps 20 Almendra 230-N; Cyzone Studio Look Base De Alta Cobertura Y Larga Duracion Fps 20 Avellana 270-C; Cyzone Studio Look Base De Alta Cobertura Y Larga Duracion Fps 20 Avena 170-N; Cyzone Studio Look Base De Alta Cobertura Y Larga Duracion Fps 20 Azucar Blanca 110-C; Cyzone Studio Look Base De Alta Cobertura Y Larga Duracion Fps 20 Azucar Moreno 300-N; Cyzone Studio Look Base De Alta Cobertura Y Larga Duracion Fps 20 Bombon 400-N; Cyzone Studio Look Base De Alta Cobertura Y Larga Duracion Fps 20 Brownie 380-F; Cyzone Studio Look Base De Alta Cobertura Y Larga Duracion Fps 20 Cacao 350-N; Cyzone Studio Look Base De Alta Cobertura Y Larga Duracion Fps 20 Canela 280-F; Cyzone Studio Look Base De Alta Cobertura Y Larga Duracion Fps 20 Caramelo 210-F; Cyzone Studio Look Base De Alta Cobertura Y Larga Duracion Fps 20 Chantilly 130-F; Cyzone Studio Look Base De Alta Cobertura Y Larga Duracion Fps 20 Chocochip 330-C; Cyzone Studio Look Base De Alta Cobertura Y Larga Duracion Fps 20 Chocotrufa 430-N; Cyzone Studio Look Base De Alta Cobertura Y Larga Duracion Fps 20 Dulce De Leche 260-N; Cyzone Studio Look Base De Alta Cobertura Y Larga Duracion Fps 20 Espresso 450-C; Cyzone Studio Look Base De Alta Cobertura Y Larga Duracion Fps 20 Miel 200-C; Cyzone Studio Look Base De Alta Cobertura Y Larga Duracion Fps 20 Nuez 180-F; Cyzone Studio Look Base De Alta Cobertura Y Larga Duracion Fps 20 Panela 320-C; Cyzone Studio Look Base De Alta Cobertura Y Larga Duracion Fps 20 Toffee 240-C; Cyzone Studio Look Base De Alta Cobertura Y Larga Duracion Fps 20 Vainilla 140-C; Cyzone better lips balm; D-one By Tamdoan Bb Light; D-one By Tamdoan Bb Medium; D-one By Tamdoan Sunscreen 50; DAILY FACE SUNSCREEN Broad Spectrum SPF 30; DAY Daily Anti-Aging Moisturizing Face Broad Spectrum SPF 20 Sunscreen; DD Cream Dermatologically Defining BB Cream Broad Spectrum SPF 30; DDM Calaclear; DDM Calagesic; DDM Calamine; DEAR KLAIRS Illuminating Supple Blemish Cream; DEARSIR UV Ultra Protection Sun; DERMAKA Broad Spectrum SPF-42 Sunscreen; DERMAdoctor DD Cream Dermatologically Defining BB Cream Broad Spectrum SPF 30; DHC BB Foundation Natural Ocher 01; DHC BB Foundation Natural Ocher 02; DHC Brightening Sunscreen; DHC White Sunscreen; DIMETHICONE and ZINC OXIDE; DIORSNOW UV Shield White Reveal Moisturizing UV Protection Pearly White SPF 50; DIORSNOW UV Shield White Reveal Moisturizing UV Protection Transluscent SPF 50; DIORSNOW White Reveal UVB Protection Sunscreen Pearly White SPF 50; DIORSNOW White Reveal UVB Protection Sunscreen Translucent SPF 50; DIY Booster SPF 30 Facial Serum Unscented; DNA Care Natural SPF 30; DNA Defense SPF 30; DNA Prime Natural SPF 45; DONGINBI Red Ginseng Perfect Sun; DR. MERCOLA Sunscreen Broad Spectrum SPF-15; DR. MERCOLA Sunscreen Broad Spectrum SPF-30; DR. MERCOLA Sunscreen SPF-50; DR.G Moist Ample CC Cushion SPF50 Plus PA Plus Plus Plus Light Beige; DRH Intensive Sun Block; DTRT Boys Be Bold BB SPF 25; DTRT Get Ready BB SPF 50; Daily Correct CC Cream Broad Spectrum SPF 35 Light; Daily Correct CC Cream Broad Spectrum SPF 35 Medium; Daily Correct CC Cream Broad Sunscreen SPF 35 Light/Medium; Daily Defense; Daily Defense Antioxidant Day Broad Spectrum SPF 30; Daily Defense Mineral Face Moisturizer SPF-30; Daily Defense SPF 15 Jafra; Daily Defense SPF 45; Daily Defense SPF 50; Daily Defense Sunblock; Daily Deflector Waterlight SPF 50; Daily Dose Bioretinol Mineral SPF 40; Daily Eclipse SPF 30 Tinted; Daily Eclipse SPF 30 Untinted; Daily Face Broad Spectrum; Daily Face Moisturizer; Daily Light Guard Defense Fluid Broad Spectrum SPF 30; Daily Mineral Sunscreen; Daily Offense SPF 30; Daily Protecting SPF15 Sunscreen; Daily Protection Moisturizing Face Lotion (SPF 30); Daily Protezione Broad Spectrum SPF30 Sunscreen; Daily Replenishing SPF 30; Daily SPF 20 Oleander Face Cream; Daily SPF Facial SunscreenLotion Broad Spectrum SPF 32; Daily UV Protector SPF 30 Sunscreen; Daily Uniform; Dal Inner Cushion; Dal Inner Fit Bb; Dark CC creme Broad Spectrum SPF 15 JAFRA; Dark Daylight Tinted Radiance Moisturizer Broad Spectrum SPF 32; Dark Foundation SPF 15; Dark Spot Sun Defense Broad Spectrum SPF 50; Day Renewal Moisturizing Complex With SPF 20; Daybird Tinted Skincare (SHADE 1); Daybird Tinted Skincare (SHADE 2); Daybird Tinted Skincare (SHADE 3); Daybird Tinted Skincare (SHADE 4); Daydream Mineral Makeup Primer SPF 30 Broad Spectrum; Daylight Tinted Radiance Moisturizer Broad Spectrum SPF 32 - Medium; Daylogic Tinted Daily Moisturizer SPF 30; Daylogic baby SPF 60; Daytime Defense SPF 30; Dd TZ Forte; De LA Cruz Diaper Rash; DeNino Diaper Rash; DeVita Natural Skincare Solar Body Moisturizer Broad Spectrum SPF30 Mineral Sunscreen; Dear Brightly Neverskip SPF 30; Dear Klairs Midday Blue Sunlotion; Dear Klairs Mochi BB Cushion Pact; Decorte AQ Uv Protection; Decorte Sheer Brilliance 10; Decorte Sheer Brilliance 20; Decorte Sheer Brilliance 30; Decorte Sheer Brilliance 40; Decree Daily Shield Broad Spectrum SPF 30 Sunscreen; Deep Bisque Foundation SPF 20; Deep Bisque Original; Deep Daylight Tinted Radiance Moisturizer Broad Spectrum SPF 32; Deepest Deep; Defend tattoo sunscreen SPF 30; Derm Dude Brightening Sunscreen SPF 50; Derm Institute Daily Defense Protection Sunscreen Broad Spectrum SPF50; Derma Blemish Balm; Derma Blemish Stick SPF50; Derma Dr. lab Hydromoist Cover BB; Derma Dr.lab Daily Mild Sun; Derma E Ultra Sheer Mineral Body Sunscreen Mist SPF 30; Derma Gran Bc - Perineal Protectant; Derma Gran Bc Perineal Protectant; Derma Soleil Mineral Age-Free Facial Broad Spectrum SPF 50 Sunscreen; Derma Soleil Mineral Broad Spectrum SPF 30 Sunscreen; Derma Soleil Mineral Broad Spectrum SPF 50 Sunscreen; Derma Soleil Tinted Mineral Age-Free Facial BB Broad Spectrum SPF 30 Sunscreen; Derma Swiss SPF 50 Mineral; DermaCen Protectant; DermaCen Skin Protectant; DermaDoctor DD Eye SPF30; DermaMade SPF 33 Sunscreen; DermaQuest TM Skin Therapy, Breathable Coverage TM Mineral Foundation SPF-30, DermaMinerals TM; DermaSav; DermaSwiss Broad Spectrum SPF 50 Mineral; Dermablend Active Cover Creme Foundation SPF 15; DermacinRx Therazole Pak; DermacinRx Zinc Oxide Skin Healing; Dermafirm Sunblock; Dermagesic; Dermapak Plus; Dermaquest Skin Therapy Daily Moisturizing SPF 15; Dermaquest Skin Therapy Solar Protection SPF 15; Dermaroller Anhydrous Sunscreen SPF 30; Dermaseptin; Dermaspf Sun Protect SPF 45; Dermatologic Relief; Dermatone SPF 30 Mineral Sunscreen; Dermawerx Zmt Pak; Dermesse Sunscreen SPF30 Medium Tint; Dermocrem; Dermoessential Revival Balm; Dermogen; Dermoscribe Diaper; Desert Bambu Facial Sunscreen SPF 30; Desert Essence Dont Be Rash Diaper Cream; Desert Essence Mineral Sunscreen SPF 35; Desert Spirit Sunscreen; Desert Sun Protection Broad Spectrum SPF 25; Desert Sun Protection Broad Spectrum SPF30; Deserving Health Baby Specialty Cream; Desitin Daily Defense Zinc Oxide Diaper Rash; Desitin Maximum Strength Diaper Rash; Desitin Maximum Strength Original; Desitin Maximum Strength Zinc Oxide Diaper Rash; Desitin Rapid Relief Creamy Diaper Rash; Desitin Rapid Relief Creamy Fragrance Free; Desitin Rapid Relief Diaper Rash; Deter Outdoor Skin Protection Natural Mineral Sunscreen SPF 30; Detox Healing BB; Devita Natural Skin Care Solar Protective Moisturizer Broad Spectrum SPF 30 Mineral Sunscreen; Dew Skin Tinted Moisturizer Broad Spectrum No2 SPF 20; Dew Skin Tinted Moisturizer Broad Spectrum No3 SPF 20; Dew Skin Tinted Moisturizer Broad Spectrum No4 SPF 20; Dew Skin Tinted Moisturizer Broad Spectrum No5 SPF 20; Dew Skin Tinted Moisturizer Broad Spectrum No6 SPF 20; Dew Skin Tinted Moisturizer Broad Spectrum No7 SPF 20; Dew Skin Tinted Moisturizer Broad Spectrum No8 SPF 20; Dew Skin Tinted Moisturizer Broad Spectrum SPF 20; Dg Baby Diaper Rash; Diamond Luminous UV Defense Light Tinted Fluid Sunscreen Broad Spectrum SPF 40; Diamond White Brightening Shield Treatment Cream; Diamond White Matte Finish Sun Protection; Diamond White Oil-Free Brilliant Sun Protection; Diaper; Diaper Cream; Diaper Guard Ont; Diaper Rash; Diaper Rash Balm; Diaper Rash Cream; Diaper Rash Ointment; Diaper Rash Ointment 15%; Diaper Rash Ointment Extra Strength; Diaper Rash Ointment Fragrance Free; Diaper Rash Ointment/onguent Pour Le Traitement De L'érythème Fessier; Diaper Rash Skin Protectant Crema Cero; Diaper Rash Skin Protectant Crema Cero With Aloe Vera; Diaper-care; DiaperDerm Diaper Rash; DiaperRashOintment; Diaperene Adult; Diaperene Children; Diaperene Children Maximum; Diaperene Maximum; Diaplex; Diaprex; Dior Snow Protection Uv White Reveal Makeup Uv Base SPF 35 Beige; Dior Snow Protection Uv White Reveal Makeup Uv Base SPF 35 Mauve; Dior Snow Protection Uv White Reveal Uv Shield Pearly White SPF 50; Dior Snow Protection Uv White Reveal Uv Shield Translucent SPF 50; DiorSkin forever Perfect Cushion Perfect Fresh Makeup Everlasting Luminous Matte Finish Pore-Refining Effect with Sunscreen Broad Spectrum SPF35 010; DiorSkin forever Perfect Cushion Perfect Fresh Makeup Everlasting Luminous Matte Finish Pore-Refining Effect with Sunscreen Broad Spectrum SPF35 011; DiorSkin forever Perfect Cushion Perfect Fresh Makeup Everlasting Luminous Matte Finish Pore-Refining Effect with Sunscreen Broad Spectrum SPF35 020; DiorSkin forever Perfect Cushion Perfect Fresh Makeup Everlasting Luminous Matte Finish Pore-Refining Effect with Sunscreen Broad Spectrum SPF35 021; DiorSkin forever Perfect Cushion Perfect Fresh Makeup Everlasting Luminous Matte Finish Pore-Refining Effect with Sunscreen Broad Spectrum SPF35 030; DiorSkin forever Perfect Cushion Perfect Fresh Makeup Everlasting Luminous Matte Finish Pore-Refining Effect with Sunscreen Broad Spectrum SPF35 040; Disney Baby Einstein SPF 45 Lotion; Disney Sun Pals SPF 45 Lotion Mermaid; Disney Sun Pals SPF 45 Lotion Nemo; Disney Sun Pals SPF 45 Lotion Pooh Bear; Divine Illumination Divine Flawless Foundation SPF 50; Docs SKINCARE NATURAL SUNSCREEN SPF30; Doctor Babor Protect Rx Mineral Sunscreen SPF 30; Doctor Butler Hemorrhoid and Fissure Advanced Formula; Doctor Os Diaper Balm; DoctorsLab Derma Cover Tattoo Foundation No.21; DoctorsLab Derma Cover Tattoo Foundation No.23; Dolce and Gabbana Daily Moisturizer Broad Spectrum SPF 15; Dolce and Gabbana The Foundation (all shades); Dolce and Gabbana The Primer Sheer Radiance Make Up Base with Sunscreen Broad Spectrum SPF 30; Dollar Shave Club Daily Face Moisturizer Broad Spectrum SPF 25; Donna Karan Soothing Lip Balm SPF 15; Double Duty Face Protector SPF 15 Jafra; Double Use Compact SPF 15 gold deluxe edition Claire 1-2-3; Double Use Compact SPF 15 gold deluxe edition Claire 4; Double Use Compact SPF 15 gold deluxe edition Medium 5; Double Use Compact SPF 15 gold deluxe edition Medium 6; Double Use Compact SPF 15 gold deluxe edition Medium 7; Double Wear All Day Glow Bb Moisture Makeup Broad Spectrum SPF 30; Double Wear Cushion Bb All Day Wear Compact Broad Spectrum SPF 50; Double Wear Nude Water Fresh Makeup Broad Spectrum SPF 30; Dove Fresh Radiance Brightening Eye Cream SPF 8; Dove Fresh Radiance Brightening Moisturizer SPF 15; Dove Pro Age Day Moisturizer; Dove Pro Age Eye Cream; Dr Andrew Weils for Origins Mega-defense Advanced Daily Uv Defender Broad Spectrum SPF 45; Dr Deep SUN; Dr Frog Intensive Calming Sun Block; Dr Frog Pp Sun Block; Dr LeE UV ICE SHIELD; Dr Mercola Broad Spectrum SPF15; Dr Smiths Diaper; Dr Smiths Diaper Rash; Dr Young Protect Prevent 2P Blemish Base; Dr Young Protect Prevent 2P Pearl Brightening Balm; Dr Young Protect Prevent UV Cut and Ultra Light Sun; Dr Zinx Anti-acne Mineral Sunscreen SPF-50; Dr Zinx Brightening Mineral Sunscreen SPF-50; Dr Zinx Mineral Facial Sunscreen - Acne Prone Skin SPF-50; Dr Zinx Mineral Facial Sunscreen - Normal Skin SPF-50; Dr Zinx Mineral Facial Sunscreen for Dry Skin SPF-50; Dr. Babor Purity Cellular Ultimate Blemish Reducing Duo; Dr. Dennis Gross Skincare - Lightweight Wrinkle Defense Broad Spectrum SPF 30; Dr. Eslee Physical Sunscreen; Dr. G A Clear Sensi Acne Sun SPF43 PA Plus Plus Plus; Dr. G Brightening Up Sun SPF 42 PA Plus Plus Plus; Dr. G Moist Ample CC Cushion SPF 50 Plus PA Plus Plus Plus Natural Beige; Dr. Iaso Power 23; Dr. Jart BB Boys Be Bold; Dr. Jart BB Get Ready; Dr. Jart Bounce Beauty Balm 01 Light-medium; Dr. Jart Bounce Beauty Balm 02 Medium-Deep; Dr. Jart DIS-A-PORE Beauty Balm; Dr. Jart Illuminating BB Brush; Dr. Jart Nourishing Beauty Balm; Dr. Jart Premium Beauty Balm; Dr. Jart RADIANCE Beauty Balm; Dr. Jart Shimmering Beauty Balm 01 Light - Medium; Dr. Jart Shimmering Beauty Balm 02 Medium - Deep; Dr. Lewinn by Kinerase Sunscreen Broad Spectrum SPF 15; Dr. Mercola Broad Spectrum; Dr. Oberon Diaper Rash Baby Cream; Dr. Perrys Day Thyme SPF 20 Broad Spectrum Sunscreen; Dr. Sayman Salve; Dr. Selby Curative Diaper Rash and Skin Protectant; Dr. Sheffield Barrier Cream; Dr. Sheffield Diaper Rash; Dr. Sheffield Hemorrhoid; Dr. Smarth ALOE SOFT VITAMIN ENRICHED; Dr. Smarth Shield; Dr. Smiths Rash and Skin; Dr. Waltons Baby Powder; Dr.Denese SPF 30 Defense Day; Dr.G Age Defense BB SPF50 Plus PA Plus Plus; Dr.G Brightening Balm SPF30 PA Plus Plus; Dr.G Brightening Up Sun; Dr.G Daily Safe BB SPF30 PA Plus Plus; Dr.G Green Mild Up Sun; Dr.G Medi UV Ultra Sun SPF 50 Plus PA Plus Plus Plus; Dr.G Perfect Pore Cover BB SPF30 PA Plus Plus; Dr.G Radiance Dual Essence BB SPF50 Plus PA Plus Plus Plus; Dr.G Super Light Brightening Balm SPF30 PA PLUS PLUS; Dr.Jart Air Mesh; Dr.Jart BB Mate Contouring 01; Dr.Jart BB Mate Contouring 02; Dr.Jart BB Mate Contouring 03; Dr.Jart Black Label Detox BB Beaty Balm; Dr.Jart Black Label Detox Beauty Balm; Dr.Jart Bounce Beauty Balm Moist 01 Light; Dr.Jart Bounce Beauty Balm Moist 02 Medium Deep; Dr.Jart CC Essence Balm 01 Light - Medium; Dr.Jart CC Essence Balm 02 Medium - Deep; Dr.Jart Cicapair Tiger Grass Camo Drops; Dr.Jart Cicapair Tiger Grass Color Correcting Treatment; Dr.Jart Dis-A-Pore Beauty Balm 02 MEDIUM-DEEP; Dr.Jart Every Sun Day Mineral Sun Screen; Dr.Jart Every Sun Day Sunscreen SPF 50; Dr.Jart For Men Active BB Block; Dr.Jart Premium Beauty Balm 01 Light medium; Dr.Jart Premium Beauty Balm 02; Dr.Jart Premium Beauty Balm 02 Medium deep; Dr.Jart Premium Beauty Balm 03 Deep; Dr.Jart Premium Beauty Balm Deep Tan-Deep; Dr.Jart Premium Beauty Balm Fair-Light; Dr.Jart Premium Beauty Balm Light Medium-Medium; Dr.Jart Premium Beauty Balm Medium-Tan; Dr.Jart Renewalist BB; Dr.Jart V7 Beauty Balm; Dr.Jucre Rebirth White BB; Dr.NUELL Multi Sun Block; Dr.althea Aurora Cover Cushion 21; Dr.eslee Intensive Recovery Blemish Balm; Dr.g Primer Bb Protector Spf38; Dr.jart Cicapair Tiger Grass Camo Drops; Dr.jart Every Sun Day Mineral Sun Screen; Druide Biolove Kids Mineral Sunscreen Spf30; Drunk Elephant Umbra Sheer Defense SPF-30; Drunk Elephant Umbre Sheer Defense SPF-30; Drunk Elephant Umbre Tinte Physical Daily Defense Protection SPF-30; Duane Reade Sunscreen SPF 45; Duet DHA; Duet DHA 400; Duet DHA 400 ec; Duet DHA Balanced; DuetDHA Balanced; DuetDHA Complete; Dyna1195; Dyna1199 with Dimethicone; Dynamic Broad Spectrum; Dynamic Broad Spectrum Sunscreen SPF 55; Dynamic Broad Spectrum Sunscreen SPF 55 A; Dynamic Defense Mineral Shield Broad Spectrum SPF30 Sunscreen; Dynamic Drying; Dynamic Sunscreen Broad Spectrum SPF 55; Dynamic Sunscreen Broad Spectrum SPF 55 Sun Protection; Dynarex Zinc Oxide; Dynashield; Dynashield with Dimethicone; E NATURE Plantlicious UV CC cushion 21; E NATURE Plantlicious UV CC cushion 23; E NATURE Plantlicious UV sunblock; EAI-JR286, Inc Vertra Sensitive SPF 30 Sunscreen Face Stick; EARLY MOMMY Baby Bum Butta; EAU THERMALE Avene High Protection Mineral BROAD SPECTRUM SPF 50; EAU THERMALE Avene Solaire UV Mineral Multi-Dense Tinted Sunscreen Fluid SPF 50 PLUS; EB5 Ultra Light Face SPF 15; ECO 10 Mineral Sun Pro Automatic Brush Type; ECO 10 Mineral Sun Pro Puff type; ECO SOUL Essence Cushion Matt Longwear 21; EIGHT SAINTS Chase The Sun SPF-30; ELEVEN BY VENUS WILLIAMS ACE THE DAY Face; ELF Beautifully Bare Foundation Serum Broad Spectrum SPF 25 Sunscreen Fair Light; ELF Beautifully Bare Foundation Serum Broad Spectrum SPF 25 Sunscreen Light Medium; ELF Beautifully Bare Foundation Serum Broad Spectrum SPF 25 Sunscreen Medium Dark; ELF Beauty Shield SPF 50 Skin Shielding Primer; ELF Mineral Concealers SPF 15; ELF Mineral Foundation SPF 15; ELF Personal Blend Foundation SPF 15; ELF SPF 45 Sunscreen UVA/UVB Protection; EMINENCE Bright Skin Moisturizer BROAD SPECTRUM SPF 30 SUNSCREEN; EMINENCE Red Currant Protective Moisturizer; EMINORE - Daily Mineral Sunscreen Moisturizer Broad Spectrum SPF 30; ERBORIAN DOUBLE SAMPLE CC CREME CLAIR and DORE SPF 25; ESIKA PRO HIDRACOLOR 3 IN 1 Moisturizing, color and perfecting effect SPF 25; ESIKA PRO HIDRACOLOR 3 IN 1 Moisturizing, color and perfecting effect SPF 25 (BORGONA SEXY) - PURPLE; ESIKA PRO HIDRACOLOR 3 IN 1 Moisturizing, color and perfecting effect SPF 25 (BRONCE METALLIC) - BROWN; ESIKA PRO HIDRACOLOR 3 IN 1 Moisturizing, color and perfecting effect SPF 25 (CORAL CHIC) - PINK; ESIKA PRO HIDRACOLOR 3 IN 1 Moisturizing, color and perfecting effect SPF 25 (FRESA HOT) - PINK; ESIKA PRO HIDRACOLOR 3 IN 1 Moisturizing, color and perfecting effect SPF 25 (FUCSIA CAUTIVANTE) - PINK; ESIKA PRO HIDRACOLOR 3 IN 1 Moisturizing, color and perfecting effect SPF 25 (FUCSIA INTENSE) - PINK; ESIKA PRO HIDRACOLOR 3 IN 1 Moisturizing, color and perfecting effect SPF 25 (GRANATE SEDUCTOR) - PURPLE; ESIKA PRO HIDRACOLOR 3 IN 1 Moisturizing, color and perfecting effect SPF 25 (MARRON TOPACIO) - BROWN; ESIKA PRO HIDRACOLOR 3 IN 1 Moisturizing, color and perfecting effect SPF 25 (MORA ATREVIDA) - PURPLE; ESIKA PRO HIDRACOLOR 3 IN 1 Moisturizing, color and perfecting effect SPF 25 (MORA GLAM) - PURPLE; ESIKA PRO HIDRACOLOR 3 IN 1 Moisturizing, color and perfecting effect SPF 25 (NARANJA CITRICO) - ORANGE; ESIKA PRO HIDRACOLOR 3 IN 1 Moisturizing, color and perfecting effect SPF 25 (NARANJA ESFERA) - ORANGE; ESIKA PRO HIDRACOLOR 3 IN 1 Moisturizing, color and perfecting effect SPF 25 (NUDE MOCCHA) - ORANGE; ESIKA PRO HIDRACOLOR 3 IN 1 Moisturizing, color and perfecting effect SPF 25 (NUDE PUNCH) - ORANGE; ESIKA PRO HIDRACOLOR 3 IN 1 Moisturizing, color and perfecting effect SPF 25 (NUDE SAVANNA) - ORANGE; ESIKA PRO HIDRACOLOR 3 IN 1 Moisturizing, color and perfecting effect SPF 25 (PEACH NUDE) - BROWN; ESIKA PRO HIDRACOLOR 3 IN 1 Moisturizing, color and perfecting effect SPF 25 (PIMIENTA CALIENTE) - BROWN; ESIKA PRO HIDRACOLOR 3 IN 1 Moisturizing, color and perfecting effect SPF 25 (ROJO DESEO) - RED; ESIKA PRO HIDRACOLOR 3 IN 1 Moisturizing, color and perfecting effect SPF 25 (ROJO ESIKA) - RED; ESIKA PRO HIDRACOLOR 3 IN 1 Moisturizing, color and perfecting effect SPF 25 (ROJO SENSUAL) - RED; ESIKA PRO HIDRACOLOR 3 IN 1 Moisturizing, color and perfecting effect SPF 25 (ROJO TROPICAL) - RED; ESIKA PRO HIDRACOLOR 3 IN 1 Moisturizing, color and perfecting effect SPF 25 (ROSA ENCANTO) - PINK; ESIKA PRO HIDRACOLOR 3 IN 1 Moisturizing, color and perfecting effect SPF 25 (ROSA GEOMETRIC) - PINK; ESIKA PRO HIDRACOLOR 3 IN 1 Moisturizing, color and perfecting effect SPF 25 (ROSA NUDE) - PINK; ESIKA PRO NATURAL MATTE MATTIFYING FOUNDATION ADAPTABLE TO YOUR SKIN TONE SPF 20 Claro 1/Beige; ESIKA PRO NATURAL MATTE MATTIFYING FOUNDATION ADAPTABLE TO YOUR SKIN TONE SPF 20 Claro 2/Beige; ESIKA PRO NATURAL MATTE MATTIFYING FOUNDATION ADAPTABLE TO YOUR SKIN TONE SPF 20 Medio1/Beige; ESIKA PRO NATURAL MATTE MATTIFYING FOUNDATION ADAPTABLE TO YOUR SKIN TONE SPF 20 Medio2/Beige; ESIKA PRO NATURAL MATTE MATTIFYING FOUNDATION ADAPTABLE TO YOUR SKIN TONE SPF 20 Medio3/Beige; ESIKA PRO NATURAL MATTE MATTIFYING FOUNDATION ADAPTABLE TO YOUR SKIN TONE SPF 20 Medio4/Beige; ESIKA PRO NATURAL MATTE MATTIFYING FOUNDATION ADAPTABLE TO YOUR SKIN TONE SPF 20 Medio5/Beige; ESIKA PRO NATURAL MATTIFYING FOUNDATION ADAPTABLE TO YOUR SKIN TONE SPF 20 Claro 1/Beige; ESIKA PRO NATURAL MATTIFYING FOUNDATION ADAPTABLE TO YOUR SKIN TONE SPF 20 Claro 2/Beige; ESIKA PRO NATURAL MATTIFYING FOUNDATION ADAPTABLE TO YOUR SKIN TONE SPF 20 Medio1/Beige; ESIKA PRO NATURAL MATTIFYING FOUNDATION ADAPTABLE TO YOUR SKIN TONE SPF 20 Medio2/Beige; ESIKA PRO NATURAL MATTIFYING FOUNDATION ADAPTABLE TO YOUR SKIN TONE SPF 20 Medio3/Beige; ESIKA PRO NATURAL MATTIFYING FOUNDATION ADAPTABLE TO YOUR SKIN TONE SPF 20 Medio4/Beige; ESIKA PRO NATURAL MATTIFYING FOUNDATION ADAPTABLE TO YOUR SKIN TONE SPF 20 Medio5/Beige; ESIKA TRIPLE ACCION MAX BB Dark Beige; ESIKA TRIPLE ACCION MAX BB Light Beige; ESMIA AIR CUSHION Buff 25; ESMIA AIR CUSHION Caramel 31; ESMIA AIR CUSHION Natural Beige 27; ESMIA AIR CUSHION Sun Beige 29; ETUDE HOUSE Precious Mineral BB Bright Fit Natural Beige W13; ETUDE HOUSE Precious Mineral BB Bright Fit SPF 30 Honey Beige W24; EVEN DEFENSE Mineral Sunscreen Broad Spectrum SPF 30; EX-glow-sion SPF-20; Earth Baby Broad Spectrum SPF 30; Earth Baby Diaper Rash Cream; Earth Best Diaper Relief; Earth Long Wear Makeup Broad Spectrum SPF 20; Earth Mama Baby Face Mineral Sunscreen SPF 40; Earth Mama Baby Mineral Sunscreen SPF 40; Earth Mama Kids Mineral Sunscreen SPF 30; Earth Mama Kids Uber-Sensitive Mineral Sunscreen SPF 40; Earth Mama Lady Face Mineral Sunscreen - Light/Medium Tint Broad Spectrum SPF 40; Earth Mama Lady Face Mineral Sunscreen - Medium/Dark Tint Broad Spectrum SPF 40; Earth Mama Mineral Sunscreen SPF 25; Earth Mama Mineral Sunscreen SPF 40; Earth Radiance Foundation Broad Spectrum SPF 20 - Tawny JAFRA; Earth Repair Sunscreen SPF 50 Suncream; Earths Best Diaper Relief; Earths Best Mineral Sunscreen Broad Spectrum SPF30; Easydew Daily Water Proof Sun; Easydew EX Mineral BB SPF45 PA PLUS PLUS; Eau Thermale Avene Complexion Correcting Shield Dark Mineral Sunscreen SPF 50 Plus; Eau Thermale Avene Complexion Correcting Shield Light Mineral Sunscreen SPF 50 Plus; Eau Thermale Avene Complexion Correcting Shield Medium Mineral Sunscreen SPF 50 Plus; Eau Thermale Avene Hydrating Sunscreen Balm SPF 50 Plus; Eau Thermale Avene Mineral Light Hydrating Sunscreen SPF 50; Eau Thermale Avene Mineral Light Mattifying Sunscreen SPF 50 Plus; Eau Thermale Avene Mineral Sunscreen Fluid SPF 50 Plus; Eau Thermale Avene Mineral Ultra-Light Hydrating Sunscreen SPF 50; Eau Thermale Avene Solaire UV Mineral Multi-Defense Sunscreen Fluid SPF 50 PLUS; Eau Thermale Avene Tinted Mineral Sunscreen Fluid SPF 50 Plus; Eclipse SPF 50 All Shades; Eclipse SPF 50 Perfectint Beige; Eclipse Sheer Mineral Sunscreen Broad Spectrum SPF 30; Eco Barrier Non Chemical Sun; Eco Earth Power Blue Defense Sun Milk; Eco Earth Power Face and Body Waterproof Sun Block; Eco Earth Power Green Sun; Eco Earth Power Mild Kids Sun; Eco Earth Power Mild Sun Cushion; Eco Earth Power No Sebum Sun; Eco Earth Power Perfection Waterproof Sun Block; Eco Earth Power Pink Sun; Eco Earth Power Tone Up Sun; Eco Lips Lip Balm SPF 30; Eco Lips Zinc Sunscreen Lip Balm Broad Spectrum SPF 15 Coconut Vanilla; Eco SPF 30; Eco Soul Bounce Crea m Foundation 01 Light Beige; Eco Soul Bounce Crea m Foundation 02 Natural Beige; Eco Soul Essence Cushion All Cover 13; Eco Soul Essence Cushion All Cover 17; Eco Soul Essence Cushion All Cover 21; Eco Soul Essence Cushion All Cover 23; Eco Soul Essence Cushion Moisture Lasting 13; Eco Soul Essence Cushion Moisture Lasting 17; Eco Soul Essence Cushion Moisture Lasting 21; Eco Soul Essence Cushion Moisture Lasting 23; Eco Soul Luminous Original BB 01 Light Beige; Eco Soul Luminous Original BB 02 Natural Beige; Eco Soul Luminous Photoshop Pact 21 Light Beige; Eco Soul Luminous Photoshop Pact 23 Natural Beige; Eco Soul Perfect Cover Pact 21 Light Beige; Eco Soul Perfect Cover Pact 23 Natural Beige; Eco Soul Porcelain Skin BB Cre am 01 Light Beige; Eco Soul Porcelain Skin BB Cre am 02 Natural Beige; Eco Soul Power Proof Cooling BB Cushion 01 Aqua Beige; Eco Soul Power Proof Cooling BB Cushion 02 Neutral Beige; Eco Soul Real Cover BB 21 Light Beige; Eco Soul Real Cover BB 23 Natural Beige; Eco Soul Real Fit Makeup Base 01 Green; Eco Soul Real Fit Makeup Base 02 Lavender; Eco Soul Skin Wear BB 13; Eco Soul Skin Wear BB 21; Eco Soul Skin Wear BB 23; Eco Soul Skin Wear Foundation 01; Eco Soul Skin Wear Foundation 03; Eco Soul Skin Wear Foundation C 02; Eco Soul Skin Wear Foundation C 1.5; Eco Soul Skin Wear Foundation N 02; Eco Soul Skin Wear Foundation N 1.5; Eco Soul Spau BB Cake 01 Light Beige; Eco Soul Spau BB Cake 02 Natural Beige; Eco Soul Spau BB Cushion 01 Light Beige; Eco Soul Spau BB Cushion 02 Natural Beige; Eco Soul Spau Serum Foundation 01 Light Beige; Eco Soul Spau Serum Foundation 02 Natural Beige; Eco Soul Tone Up CC 03 Clear Bright; Eco Soul UV Sun Pact 21 Light Beige; Eco Soul UV Sun Pact 23 Natural Beige; EcoStick Sunscreen SPF 35; Edge OB; Eezy Pro SPF 30; Eezy Pro SPF 50; Eezy Pro SPF30; Eezy Pro SPF50; Eezy Sun SPF 30; Eezy Sun SPF 50; Eezy pro; Eezysun SPF50 Babies and Kids; Eezysun Sunscreen SPF 50 with Aloe Vera, Marine Friendly; Egf Uv Shield; Eight Hour Cream Sun Defense for Face SPF 50 Sunscreen; Elemental Resestance Broad Spectrum SPF 50 Vertra; Elemental Resistance Broad Spectrum SPF 50 Vertra; Elevated Ultimate Sun Defense BroadSpectrum SPF 30 (UVA/UVB) Sunscreen; Elevated Ultimate Tinted Sun Defense Broad Spectrum SPF 30 (UVA/UVB) Sunscreen; Eleven By Venus Williams Game Set Match Body; Eleven On the Defense Sunscreen; Eleven Perfect Form Lip Balm 15 Love; Eleven Perfect Form Tinted Lip Balm Game Day; Eleven Perfect Form Tinted Lip Balm Power Player; Eleven Perfect Form Tinted Lip Balm Venus; Eleven Unrivaled Sun Serum; Elite Natural SPF 30; Elite OB Prenatal Multivitamin; Elizabeth Arden Prevage City Smart Broad Spectrum SPF 50 Hydrating Shield; Elizabeth Mott Face Primer Broad Spectrum SPF 30; Elta Block SPF 30 Waterproof; Elta Block SPF 32; Elta Dermavase; Elta MD Skincare UV Stick Broad Spectrum SPF50; Elta MD UV Aero SPF45; Elta MD UV Clear SPF46; Elta MD UV Pure SPF47; Elta MD UV SPF46 SPF46; Elta Seal; Elta Skincare Broad-Spectrum Sunscreen SPF36; Elta Skincare Broad-Spectrum Sunscreen Tinted SPF36; EltaMD UV Active; EltaMD UV Aero; EltaMD UV Clear SPF46; EltaMD UV Clear Tinted; EltaMD UV Clear Tinted SPF46; EltaMD UV Daily SPF 40; EltaMD UV Daily SPF40; EltaMD UV Daily Tinted; EltaMD UV Daily Tinted SPF40; EltaMD UV Elements; EltaMD UV Elements SPF44; EltaMD UV Facial SPF 30; EltaMD UV Facial SPF30 Plus; EltaMD UV Lip Balm; EltaMD UV Lip Balm SPF31; EltaMD UV LotionSPF 30 SPF 30; EltaMD UV Luminous; EltaMD UV Physical SPF41; EltaMD UV PhysicalSPF 41 SPF 41; EltaMD UV Pure SPF47; EltaMD UV Replenish Broad Spectrum SPF44; EltaMD UV Restore; EltaMD UV Restore Tinted; EltaMD UV SPF 30; EltaMD UV SPF 30 Plus; EltaMD UV SPF46; EltaMD UV Sheer; EltaMD UV Shield SPF 45; EltaMD UV Shield SPF45; EltaMD UV Sport SPF 50; EltaMD UV Sport SPF50; Eltamd Skincare Uv Clear; Eltamd Skincare Uv Clear Tinted; Eltamd Skincare Uv Daily SPF 40; Eltamd Skincare Uv Defense SPF 45; Eltamd Skincare Uv Facial SPF 30; Eltamd Skincare Uv Lotion SPF 30; Eltamd Skincare Uv Sport SPF 50; Embrace Anti-itch Skin Protectant With Calamine and Menthol; Eminence Bright Skin Moisturizer SPF 40 Sunscreen; Eminence Bright Skin Starter Set Kit; Eminence Lilikoi Daily Defense Moisturizer SPF 40 Sunscreen; Eminence Red Currant Protective Moisturizer SPF 40 Sunscreen; Eminence Tropical Vanilla Day Cream SPF 40 Sunscreen; Emmune Flobe Effect Cushion; Endit Zinc Oxide Skin Protectant; Endit zinc oxide skin protection; Enesti UV-Cut Sunblock; Enfanti Derma Series 100% Mineral Sun Shield; Enhanced Facial Moisturizer; Environmental Defense; Environmental Defense Sunscreen SPF 50; Epicuren Discovery SPF 30; Epionce Active Shield; Epionce Active Shield SPF 30; Epionce Daily Shield Tinted SPF 50; Epionce Skin Barrier Repair Kit; Epionce Ultra Shield; Epl Daily Sun Block; Equate Barrier Cream; Equate Creamy Diaper Rash Relief; Equate Maximum Strength Creamy Diaper Rash Relief; Equate Moisturizing Lotion SPF 15; Equate SPF 50 Ultra Zinc Sunscreen; Equate Sunscreen Mineral Based KIDS Broad Spectrum spf 50; Equate Sunscreen Mineral Broadspectrum SPF 50 BABY ZINC; Equate Sunscreen SPF 50 KIDS Broad Spectrum; Equate ZIinc Sunscreen ULTRA Broad Spectrum; Equate Zinc Oxide Sunscreen SPF 50; Equitance Sunscreen Broad Spectrum SPF 36; Era Organics Mineral Based SPF 15; Erase It Kit; Erbaviva Sunscreen SPF 30; Erborian - Bb Creme Au Ginseng Caramel Spf20; Erborian - Bb Creme Au Ginseng Clair SPF 20; Erborian - Bb Creme Au Ginseng Dore SPF 20; Erborian - Bb Creme Nude Spf20; Erborian - Cc Creme High Definition SPF 25; Erborian - Cc Creme High Definition Spf25 Clair; Erborian BB Creme Au Ginseng; Erborian BB Creme Au Ginseng Dore; Erborian BB creme au Ginseng chocolate SPF 20; Erborian CC Dull Correct SPF25; Erborian Cc Creme High Definition SPF 25 Caramel; Erborian Cc Red Correct SPF 25; Erins Faces Mineral SPF 32 Sunscreen; Eryfotona Actinica Ultralight Emulsion; Eryfotona Ageless; Escavite D; Esika Pro Compact High Definintion and Double Finish SPF 15 CLEAR 1 - BEIGE; Esika Pro Compact High Definintion and Double Finish SPF 15 CLEAR 2 - BEIGE; Esika Pro Compact High Definintion and Double Finish SPF 15 MEDIUM 1 - BEIGE; Esika Pro Compact High Definintion and Double Finish SPF 15 MEDIUM 2 - BEIGE; Esika Pro Compact High Definintion and Double Finish SPF 15 MEDIUM 3 - BEIGE; Esika Pro Compact High Definintion and Double Finish SPF 15 MEDIUM 4 - BEIGE; Esika Pro Compact High Definintion and Double Finish SPF 15 MEDIUM 5 - BEIGE; Esika Pro HIDRACOLOR 3 in 1 Moisturizing, Color and Perfecting Effect SPF 25; Esika Pro Hydra Smart Hydro-nutritive foundation SPF 15; Esika Pro Hydra Smart Hydro-nutritive foundation SPF 15 140-C; Esika Pro Hydra Smart Hydro-nutritive foundation SPF 15 160-N; Esika Pro Hydra Smart Hydro-nutritive foundation SPF 15 230-N; Esika Pro Hydra Smart Hydro-nutritive foundation SPF 15 320-C; Esika Pro Hydra Smart Hydro-nutritive foundation SPF 15 330-C; Esika Pro Hydra Smart Hydro-nutritive foundation SPF 15 390-N; Esika Pro Hydra Smart Hydro-nutritive foundation SPF 15 410-N; Esika Pro Hydra Smart Hydro-nutritive foundation SPF 15 430-N; Esika Pro Hydra Smart Hydro-nutritive foundation SPF 15 450-C; Esika Pro Hydra Smart Hydro-nutritive foundation SPF 15 Beige 1; Esika Pro Hydra Smart Hydro-nutritive foundation SPF 15 Beige 2; Esika Pro Hydra Smart Hydro-nutritive foundation SPF 15 Brown 1; Esika Pro Hydra Smart Hydro-nutritive foundation SPF 15 Brown 2; Esika Pro Hydra Smart Hydro-nutritive foundation SPF 15 Brown 3; Esika Pro Hydra Smart Hydro-nutritive foundation SPF 15 Brown 4; Esika Pro Hydra Smart Hydro-nutritive foundation SPF 15 Brown 5; Esika Pro Hydra Smart Hydro-nutritive foundation SPF 15 Yellow 1; Esika Pro Hydra Smart Hydro-nutritive foundation SPF 15 Yellow 2; Esika Pro Instant Perfection 3 En 1 Face Refining Foundation SPF 25 Claro 1 - Beige; Esika Pro Instant Perfection 3 En 1 Face Refining Foundation SPF 25 Claro 2 - Beige; Esika Pro Instant Perfection 3 En 1 Face Refining Foundation SPF 25 Medio 1 - Beige; Esika Pro Instant Perfection 3 En 1 Face Refining Foundation SPF 25 Medio 2 - Beige; Esika Pro Instant Perfection 3 En 1 Face Refining Foundation SPF 25 Medio 3 - Beige; Esika Pro Instant Perfection 3 En 1 Face Refining Foundation SPF 25 Medio 4 - Beige; Esika Pro Instant Perfection 3 En 1 Face Refining Foundation SPF 25 Medio 5 - Beige; Esika Triple Accion Max Bb Crema Facial Perfeccionadora Con Color Fps 30 6 Beneficios En 1 Claro (beige); Esika Triple Accion Max Bb Crema Facial Perfeccionadora Con Color Fps 30 6 Beneficios En 1 Medio (brown); Esmia Air Cushion Beige 23; Esmia Air Cushion Light Beige 21; Esopinio Sun Shield Plus SPF 35 Pa; Essential Daily Sunscreen; Essential Defense Active Broad Spectrum SPF 50 Sunscreen; Essential Defense Everyday Clear Broad Spectrum SPF 47 Sunscreen; Essential Defense Mineral Shield Broad Spectrum SPF 32 TINTED Sunscreen; Essential Defense Mineral Shield Broad Spectrum SPF 35 Sunscreen; Essential Defense Vital Hydration Broad Spectrum SPF 36 Sunscreen Tinted; Essentials By Artistry Multi-protect Lotion; Essopi SPF 33 Sunscreen; Estee Lauder Double Wear All-day Glow Bb Moisture Makeup SPF 30; Estee Lauder Double Wear Nude Water Fresh Makeup SPF 30; Estee Lauder Double Wear Soft Glow Matte Cushion Makeup Broad Spectrum SPF 36; Estee Lauder Sunblock for Body SPF 15; Estee Lauder Sunblock for Body SPF 25; Estée Lauder Sunblock for Face SPF 15; Eternal Spirit Beauty Broad Spectrum SPF 30; Ethical Zinc Daily Wear Light Sunscreen SPF-50; Ethical Zinc Natural Clear Zinc Sunscreen SPF-50; Etival Cc Cream; Eucerin; Eucerin Baby Sensitive Mineral SPF 50 Sunscreen; Eucerin Daily Protection Face; Eucerin Everyday Protection Face; Eucerin Sensitive Mineral SPF 50 Sunscreen; Even Better Glow Light Reflecting Makeup Broad Spectrum SPF 15; Even Better Makeup Broad Spectrum SPF 15; Even Better Makeup SPF 15 Evens and Corrects; Even Tone Mineral Sunscreen Broad Spectrum SPF 36 Medium - Dark; Even Tone Mineral Sunscreen Broad Spectrum SPF 40 Light - Medium; Even Up Sunscreen SPF 50; Evenly Radiant Brightening Day Creme SPF 15; EverGlam BB Natural Beige; Evereden Botanical Facial Sunscreen SPF 30; Evereden Premium Mineral Sunscreen SPF 30; Evereden SPF50 Premium Mineral Sunscreen; Every Day COCONUT Daily Face Broad Spectrum SPF 15; Every Day Mineral Sun Screen SPF 45; Everyday 50 SPF50; Everyday Coverage Tinted Sunscreen - Extra Light Tint; Everyday Coverage Tinted Sunscreen - Light Tint; Everyday Coverage Tinted Sunscreen - Medium Tint; Everyday Diaper Rash Cream; Everyday Facial Moisturizer And Sunscreen SPF 20; Everyday Mineral Moisturizer SPF 30; Everyday Natural Mineral Sunscreen Broad Spectrum SPF 30; Everyday Sheer Coverage Light Tint SPF 20; Everyday Sheer Coverage Medium Tint SPF 20; Everyday Sunscreen; Everyday Superstars SPF Discovery Kit; Everydayhumans Rose from above SPF 35 sunscreen base; Everything Tinted Moisturizer Broad Spectrum SPF 20; Everything Tinted Moisturizer Oil Free Broad Spectrum SPF 20; Evote White Carbon Complextm Day Anti Aging Protect and Illuminate Broad Spectrum SPF 25; Evote White Carbon Complextm Day Eye Anti-aging Protect,firm,brighten Broad Spectrum SPF 15 Serum; Evote White Carbon Complextm Day Eye Serum Anti-aging Protect,firm,brighten Broad Spectrum SPF 15; Extra Light Tinted Radiance Moisturizer Broad Spectrum SPF 32; Extra Rich Day Defense SPF 30; Extra Strength Diaper Rash Ointment; Extreme Protect SPF 30; Extreme Protect SPF 40 All Shades; Extreme Protect SPF-30; Exuviance CoverBlend Concealing Treatment Makeup SPF 30 Bisque; Exuviance CoverBlend Concealing Treatment Makeup SPF 30 Caramel; Exuviance CoverBlend Concealing Treatment Makeup SPF 30 Classic Beige; Exuviance CoverBlend Concealing Treatment Makeup SPF 30 Desert Sand; Exuviance CoverBlend Concealing Treatment Makeup SPF 30 Golden Beige; Exuviance CoverBlend Concealing Treatment Makeup SPF 30 Honey Sand; Exuviance CoverBlend Concealing Treatment Makeup SPF 30 Mocha; Exuviance CoverBlend Concealing Treatment Makeup SPF 30 Neutral Sand; Exuviance CoverBlend Concealing Treatment Makeup SPF 30 Terracotta Sand; Exuviance CoverBlend Concealing Treatment Makeup SPF 30 Toasted Almond; Exuviance CoverBlend Concealing Treatment Makeup SPF 30 True Beige; Exuviance CoverBlend Concealing Treatment Makeup SPF 30 Warm Beige; Exuviance Professional Sheer Daily Protector Sunscreen Broad Spectrum SPF 50; Exuviance Sheer Daily Protector SPF 50; Exuviance Skin Caring BB Fluid with Sunscreen Broad Spectrum SPF 50; FACE IT BB (Natural Beige) 32800379; FACE IT Radiance Two Way Cake NB21; FACE IT Radiance Two Way Cake NB23; FACE TONE Controller 01 SPF30; FACE TONE Controller SPF30; FACE it 32800378; FERMIERPAPA Pure Moringa Sunscreen; FHF Elevated Shade 100% Mineral Sunscreen; FITGLOW Vita Shield Hyaluronic Primer SPF-30; FRENCH SECRET SPF - 15 Day Broad-Spectrum; Face Balm SPF-15; Face Cream 50; Face Factor SPF 50; Face It 32800285; Face It 4d Perpect Two-way Cake Nb21; Face It 4d Perpect Two-way Cake Nb23; Face It Aqua Uv Color Control 32800772; Face It Aqua Uv Color Control 32800773; Face It Aqua Uv Color Control 32800789; Face It Aqua Uv Color Control 32800790; Face It Aura Color Control 32800657; Face It Aura Color Control 32800658; Face It Aura Color Control 32800660; Face It Aura Color Control 32800675; Face It Aura Color Control 32800676; Face It Aura Color Control Cream SPF 30/pa++; Face It Aura Color Control Spf30 (refill), 01 Radiant Beige 32800659; Face It Bb SPF 50+/pa+++; Face It Hd Perfect Bb 32800472; Face It Hd Perfect Bb 32800473; Face It Hd Perfect Bb Cream SPF 35/pa++; Face It Hd Perfect Bb Spf30 Pa 01; Face It Hd Perfect Bb Spf30 Pa 02; Face It Phytocollagen EX Two-way Cake SPF 30/pa+++; Face It Power Perfection 32800311; Face It Power Perfection 32800843; Face It Power Perfection Bb 00 32800842; Face It Power Perfection Bb Cream SPF 37/pa++; Face It Radiance Powder Pact SPF 50+/pa+++; Face It Radiance Powder Pact Spf25 Moisture Veil Nb17; Face It Radiance Powder Pact Spf25 Moisture Veil Nb21; Face It Radiance Powder Pact Spf25 Moisture Veil Nb23; Face It Radiance Two-way Cake SPF 25 Pa++; Face It Shimmering Bb Cream SPF 20/pa+; Face It Smart Capsule Color Control Cream SPF 40/pa++ Perfect Skin Tone; Face It Smart Color Control 32800661; Face It Smart Color Control 32800677; Face Mix Make up Base Green; Face Mix Skin Foundation; Face Protector Broad Spectrum SPF 40 Jafra; Face Stick Premium Endurance Sunscreen 30; Face Stockholm BB Natural Beauty Balm SPF 30 Shade NR 1; Face Stockholm BB Natural Beauty Balm SPF 30 Shade NR 2; Face Values - AM Facial Moisturizing Broad Spectrum SPF30 Sunscreen; Face Values Daily Facial Moisturizing SPF 30 Sunscreen; Face Zone Sun Block SPF 30; Face and Body Mineral SPF - Tinted; Face and Body Mineral SPF Non-Tinted; Face and Body SPF 30; FaceCoTZ (Sunscreen); Faceblock Spf30 Super Sensitive; Facet It Pure Color Control 32800851; Facial Natural Mineral Sunscreen Broad Spectrum SPF 30; Facial SPF SPF-30; Facial Sun Stick SPF 30; Facial Sunscreen Stick, SPF 30; Facial Sunscreen with Zinc SPF 50 Daylogic; Fair Foundation SPF 15; Fair Light Tinted Drops; Fairly Medium Foundation SPF 15; Family Care Thera Flex Pain; Family Sunscreen SPF 36; Fargelin Hemorrhoidal; Farmhouse Fresh Elevated Shade SPF 30; Featherlite Maximum Foundation SPF 15; Firming Day SPF 30; Firming Moisture; First Aid Beauty FAB Broad Spectrum Sunscreen SPF 30; First Aid Beauty FAB Mineral Sunscreen Broad Spectrum SPF 30; First Aid Research Chafe Away Medicated Healing; First Aid Research Zinc Oxyde Plus; Flanders Buttocks; Flawless Brightening Sunscreen; Flawless Brightening Sunscreen Non-Tinted; Flawless Finish Foundation SPF 25 Sunscreen; Flawless Glow Foundation SPF 30; Flawless Skin Makeup Broad Spectrum SPF 15; Flawless Skin Protecting Foundation SPF 25; Flebeaute Collagenic Make Up Base Spf20 Pa 01green; Flebeaute Collagenic Two Way Cake Spf17 Pa Nb21; Flebeaute Collagenic Two Way Cake Spf17 Pa Nb23; Flebeaute Collagenic Two Way Cake Spf17 Pa Nb25; Flumethovix; Focalgin 90 DHA; Focalgin CA; FolaGent DHA; FolaMed DHA; Foliflex; Folitin-Z; Foltabs Prenatal; Foltabs Prenatal Plus DHA; Foot Detox; Force Shield Superbeam Sunscreen Broad Spectrum SPF 30 Apricot; Formula 21 Diaper Rash; Foundation Caramel; Foundation Nude; Foundation Primer SPF 15; Foundation Soft Cocoa; Foundation Sweet Almond; Freds Calamine; Fresh Scent Protective Powder; Fresh Skin Effortless Beauty Balm Broad Spectrum SPF 35; Fresh Skin Organics; Frida Kahlo Edition Tension Pact Intense Moisture SPF37 No21; Frida Kahlo Edition Tension Pact Intense Moisture SPF37 No23; Frida Kahlo Edition Tension Pact Intense Moisture SPF37 No27; Frida Kahlo Edition Tension Pact Intense Moisture SPF37 No29; Frida Kahlo Edition Tension Pact Perfect Cover SPF37 No 21; Frida Kahlo Edition Tension Pact Perfect Cover SPF37 No 23; Frida Kahlo Edition Tension Pact Perfect Cover SPF37 No 27; Frida Kahlo Edition Tension Pact Perfect Cover SPF37 No 29; Frida Kahlo Edition Tension Pact Perfect Cover SPF37 No 31; Frimousse Ecran Solaire Fps 15; Fruit of the Earth Sun Town City; Fruit of the Earth Sun Town City SPF 50 Zinc Sunscreen; Fruit of the Earth, Inc. Luv That Sun SPF 30 Natural Mineral Sunscreen; Full Stay 24hr Spf50; Full Stay 24hr V203 Natural Beige; Full Stay Cc 24hr; Full Stay V201 Apricot Beige (refill); Future Solution Lx Universal Defense; Futurist Hydra Rescue Moisturizing Makeup Broad Spectrum SPF 45; Futurist Hydra Rescue Moisturizing Makeup Fond De Teint Hydratant SPF/fps 45; Futurist Skin Tint Serum; G.M. Collin Mineral Sun Veil; G9 Moisture CC SPF30 PA PLUS PLUS; G9 Whitening Skin; GET MR. Butter Body SPF-30; GET MR. The Active Mineral Body SPF-30; GIN-III Alpha and Omega GIN Sun; GL HEALTH Barrier Skin Protectant; GLYTONE Mineral Sunscreen SPF 40; GM Collin MINERAL BB; GM Collin Mineral Sun; GM Collin Mineral Sun Veil Tinted; GM Collin SPF 25 UVA - UVB Urban Protection Veil Sunscreen; GM Collin SPF 60 Mineral Sunscreen; GMC Medical; GMC Medical ANTI-AGING TREATMENT; GMC Medical ANTIOXIDANT AND ANTI-AGING TREATMENT; GMC Medical POST PROCEDURE TREATMENT; GMC Medical Sun Protection; GNP Calamine Topical Suspension; GNP Caldyphen; GODDESS GARDEN ORGANICS Grapefruit Bergamot DAILY BROAD SPECTRUM SPF 15; GODDESS GARDEN ORGANICS Lavender Mint DAILY BROAD SPECTRUM SPF 15; GODDESS GARDEN ORGANICS Sunny Baby NATURAL SUNSCREEN BROAD SPECTRUM SPF 30 WATER RESISTANT; GODDESS GARDEN ORGANICS Sunny Body NATURAL SUNSCREEN BROAD SPECTRUM SPF 30 WATER RESISTANT; GODDESS GARDEN ORGANICS Sunny Face NATURAL SUNSCREEN BROAD SPECTRUM SPF 30 WATER RESISTANT; GODDESS GARDEN ORGANICS Sunny Kids NATURAL SUNSCREEN BROAD SPECTRUM SPF 30 WATER RESISTANT; GODDESS GARDEN ORGANICS Tangerine Lavender DAILY BROAD SPECTRUM SPF 15; GOLD COLLAGEN Ampoule Cover Cake SPF 50; GOLD COLLAGEN Ampoule Cover Cake SPF50 N203; GOLD COLLAGEN Ampoule Foundation SPF30; GOLD COLLAGEN Ampoule Two-way Compact Foundation SPF30; GOLD COLLAGEN N203 Natural Beige SPF30; GOLD MOUNTAIN BEAUTY Collagen Broad Spectrum SPF 30; GOLDKIWI SUN SPF50 Plus PA Plus Plus; GRANULOTION Hemorrhoidal; GREEN SCREEN Daily Environmental Protector Broad Spectrum SPF 30 Sunscreen; GUINOT Ultra UV Sunscreen High Protection Sun For The Face SPF 30; Gaondodam Pure Bb Sun Cushion; Garnier Ombrelle Face Mineral 50; GenRx Cala Zinc Skin Healing; Gentle Hydrating Sunscreen Broad Spectrum SPF 30; Gentle Mineneral Sunscreen SPF30; Gentle Rejuvenation Ultra Light Repair SPF 30 Sunscreen; Gerber Diaper Rash Ointment; GeriGard; Gerigard-Skin Protectant; Gesticare DHA; Get Mr Skincare Daily Protection SPF30 Sunscreen; Gg Xerozine 15; Gin Amber Beauty Mineral Sunscreen Broad Spectrum SPF 25 BB Cream; Ginger Armor Mineral SPF 50; Ginseng Royal Silk Pow Der 01 Pure Beige; Give Me Shade Sunscreen Broad Spectrum SPF 30; Glamour Camper SPF-50; Glamtox Eye; Glint; Glint Aura Make Keep Chiffon Base Pink Beige; Glint En Shield Aloe Soft Vitamin Enriched; GloNaturals - Broad-Spectrum Sunscreen SPF 30; Glytone Age Defense UV Mineral Sunscreen Serum Broad Spectrum SPF 50 PLUS; Glytone Sunscreen SPF 40; Gmc Medical Sun Protection Broad Spectrum SPF 60; Go PSP calamine; Goddess Garden Organics Baby Natural Sunscreen Broad Spectrum; Goddess Garden Organics Everyday Natural Sunscreen; Goddess Garden Organics Everyday Natural Sunscreen Broad Spectrum; Goddess Garden Organics Facial Natural Sunscreen Broad Spectrum; Goddess Garden Organics Kids Natural Sunscreen; Goddess Garden Organics Kids Natural Sunscreen Broad Spectrum; Goddess Garden Organics Kids Natural Sunscreen Broad Spectrum SPF 30 Continuous; Goddess Garden Organics Kids Natural Sunscreen SPF 30; Goddess Garden Organics Kids Sport Natural Sunscreen Broad Spectrum SPF 30; Goddess Garden Organics Sport Natural Sunscreen Broad Spectrum SPF 30; Goddess Garden Organics Sport Natural Sunscreen Broad Spectrum SPF 30 Continuous; Gold Bond Baby Cornstarch Plus; Gold Bond Medicated Body Powder; Gold Caviar Bb; Gold Caviar Cover Cushion; Gold Collagen Foundation Spf30; Gold Collagen SPF 30 Pa; Golden Dark Foundation SPF 15; Golden Deep Foundation SPF 15; Golden Fair Foundation SPF 15; Golden Ray Sunscreen (Deep Tinted); Golden Rays Sunscreen (Light Tinted); Golden Tan Original; Goldie Locks Sheer Mineral Sunscreen Broad Spectrum SPF 30; Goldkiwi Sun SPF 36 Pa Plus Plus; Goldkiwi Sun SPF 50 Plus Pa Plus Plus Plus; Golfers Skin Broad Spectrum SPF 30 Plus Sunscreen; GolfersSkin Face Sunscreen; GolfersSkin Sunscreen Zinc; Good Afternoon Berry Berry Tea Bb Spf35 Pa Plus Plus No.1; Good Afternoon Berry Berry Tea Bb Spf35 Pa Plus Plus No.2; Good Molecules Sheer Mineral Sunscreen SPF 30; Good Neighbor Pharmacy Diaper Rash; Good Neighbor Pharmacy Diaper Rash Creamy; Good Neighbor Pharmacy Skin Protectant; Good Neighbor Pharmacy Zinc Oxide; Goodsense Diaper Rash; Goong Secret Mild Sun Spf25 Pa Plus Plus; Goongsecret Baby Sun Spf35 Pa Plus Plus Plus; Goongsecret Mild Sun SPF25 PA PLUS PLUS; Goth Block SPF-50; Gowoonsesang Brightening Balm SPF30; Gowoonsesang Expert Actifirm Tm Recovery Super Blemish Base Spf30 Pa Plus Plus; Gowoonsesang Hydra Intensive Blemish Balm; Gowoonsesang Hydra Intensive Blemish Balm SPF30; Gowoonsesang Medi UV Block Suncream SPF50; Gowoonsesang Multi Protection; Gowoonsesang Perfect Pore Cover Bb SPF 30 Pa Plus Plus; Grahams Natural Diaper Rash; GranuLotion; Green Defense Broad Spectrum SPF 30; Green Defense daily mineral sunscreen Broad Spectrum SPF 30; Green Derma Mild Cica Safety 100 Sun; Green Screen D SPF 35 Sunscreen; Green Screen SPF 31 Bronze Sunscreen; Green Screen SPF 31 Neutral Sunscreen; Green Screen SPF 31 Nude Sunscreen; Green Screen SPF 31 Peach Sunscreen; Green Screen SPF 32 Original Sunscreen; Green Stick; Green Sunblock; Gretchen Bleiler's Sweet Vanilla Lip Balmer SPF 15; GroomWell Weightless with Mineral Broad Spectrum SPF 15 Sunscreen; Guards Up Daily; H Skin Repair - Hydrate plus Restore Sunscreen SPF 30; H Skin Repair - Hydrate plus Restore Sunscreen SPF30 plus Blemish Fix Tinted Mineral Makeup; H.E.B. Mineral Sunscreen Broad Spectrum SPF 50; HA Physical Tint SPF 44; HAND PERFECTION ANTI-AGING SKINCARE nourishing day SPF 15; HATCH MAMA SUNNY MAMA Body Mineral Sunscreen Broad Spectrum SPF 50; HATCH MAMA SUNNY MAMA Face Mineral Sunscreen Broad Spectrum SPF 50; HAUTE PROTECTION High Protection Tinted Compact BROAD SPECTRUM SPF 50 BEIGE; HAUTE PROTECTION High Protection Tinted Compact BROAD SPECTRUM SPF 50 HONEY; HAUTE PROTECTION High Protection Tinted Compact Broad Spectrum SPF 50 Beige; HAUTE PROTECTION High Protection Tinted Compact Broad Spectrum SPF 50 Honey; HAWAIIAN SOL Natural Sunscreen SPF-30; HEB Calaclear; HEB Calagesic; HEB Mineral Sunscreen SPF 50; HEB Sensitive 50 Mineral Sensitive Skin Sunscreen For Face; HWT SPF 30 Unscented Face Sunscreen 2fl oz; Hand Sanitizer; Hansai Beestox Sun Cream SPF 50; Hansai Beestox Trial Kit Set Beestox Sun Cream; Hanskin Bio Origin Royal Ampoule Bb EX; Hanskin Super Light Touch Bb; Hanskin nontouring gradation pact L21 fair Serum cover balm; Hanskin nontouring gradation pact M22 nude Serum cover balm; Happy Farm Botanicals Protective Day Cream SPF 30; Harken Derm High Performance Sunscreen; Harris Teeter Calamine; Harris Teetter Calagesic; Haute Protection High Protection Tinted Compact Broad Spectrum SPF 50; Hawaiian Airline EC with Colgate Toothbrush and Sun; Hawaiian Natural Zinc Sunscreen SPF 50; Hawaiian Tropic Matte Effect Mineral Enriched Sunscreen Lotion SPF 30; Hawaiian Tropic Matte Effect Mineral Enriched Sunscreen Lotion SPF 50; Hawaiian Tropic Matte Effect Mineral Enriched Sunscreen SPF 30; Hawaiian Tropic Matte Effect Mineral Enriched Sunscreen SPF 50; Hawaiian Tropic Mineral Face Skin Nourishing Tinted Milk Coconut Oil SPF30; Hawaiian Tropic Mineral Milk Sunscreen Broad Spectrum SPF 50; Hawaiian Tropic Mineral Skin Nourishing Milk Coconut Oil SPF 50; Hawaiian Tropic Mineral Skin Nourishing Milk Coconut Oil SPF30; Hawaiian Tropic Mineral Skin Nourishing Milk Sunscreen Broad Spectrum SPF 30; Hawaiian Tropic Mineral Sunscreen Broad Spectrum SPF 30; Hawaiian Tropic Mineral Tinted Facial Milk Sunscreen Broad Spectrum SPF 30; Hawaiian Tropic Mineral Translucent Sunscreen Powder SPF 30; Hd Waterful Bb; Health Care Calamine; Health Mart Calamine; Health Smart Medicated Body; Healthy Glow All-IN-one Tinted Moisturizer Broad Spectrum SPF 25; Healthy Skin Protection; Healthy Wear Powder Foundation SPF 50; Healthy Wear Pressed Bronzer SPF 50; Healthy Wear Tinted Moisturizer SPF 50; Hebe Luca Bb; Hello; HemeNatal OB; HemeNatal OB plus DHA; Hemera Colors Anti-Aging Tinted Moisturizer Sunscreen Broad Spectrum SPF30; Hemo-pic; Hemorrhoidal Relief Cream; Hemorro-dol Sup; Hemorrodil Unguento; Henry Schein Flexible Unna Boot; Henry Schein Flexible Unna Boot with Calamine; Herbal Power Alternative Amazing Powder Wound Antiseptic; Herbalife Herbal Aloe Face and Body Mineral Sunscreen Broad Spectrum SPF 30; Herbalife SKIN Protective Moisturizer Broad Spectrum SPF 30 Mineral Sunscreen; Herban Roots Sunscreen Broad Spectrum SPF 30; Herisan Ont 150mg; Hero Force Shield SPF 30; Hers Mineral Sunscreen Multi-screen; High Altitude Adventure Sunscreen; High Altitude Apres; High Impact Lip Colour SPF 15; Higher Education Spring Break Oil-Free Broad-Spectrum Sunscreen SPF 30; Hims Mineral Sunscreen Multi-screen; Hipoglos; Hissyfit Saving Face Foundation; Honest Diaper Rash; Honest Mineral Sunscreen Broad Spectrum SPF 50; Honest Sunscreen Broad Spectrum SPF 30; Honest Sunscreen SPF 30 Broad Spectrum SPF 30; Honey Bisque Foundation SPF 20; Hook Ya SPF 50 Sport Sunscreen; Hope In A Jar A To Z Cream Broad Spectrum SPF 20 Sunscreen; Hope Oil Free Moisturizer SPF 30; Humco Calagesic; Humco Calamine; Hydra Intensive Blemish Balm SPF30 PA; Hydra Végétal CRème Hydratante Fps 25; HydraTint Pro Mineral Broad Spectrum Sunscreen SPF 36; Hydrating Duo; Hydrator Plus; Hydrator Plus SPF 30; Hydro and Pore BB; HydroPeptide S.P.F. Sun Protection Friends; HydroPeptide Solar Defense Broad Spectrum SPF30; HydroPeptide Solar Defense Hand Guard; HydroPeptide Solar Defense Mineral; Hydroseptine; Hylands Naturals Diaper Rash Cream; I Conceal Flawless Foundation Broad Spectrum SPF 30 Sunscreen Beige; I Conceal Flawless Foundation Broad Spectrum SPF 30 Sunscreen Deep Honey; I Conceal Flawless Foundation Broad Spectrum SPF 30 Sunscreen Mahogany; I Conceal Flawless Foundation Broad Spectrum SPF 30 Sunscreen Mocha; I Conceal Flawless Foundation Broad Spectrum SPF 30 Sunscreen Natural; I Conceal Flawless Foundation Broad Spectrum SPF 30 Sunscreen Porcelain; I Conceal Flawless Foundation Broad Spectrum SPF 30 Sunscreen Suede; I Conceal Flawless Foundation Broad Spectrum SPF 30 Sunscreen Toffee; I-care Multivitamin and Multimineral Tablets; INATAL Ultra; IOPE AIR CUSHION Cover 13 Ivory; IOPE AIR CUSHION Cover 21 Vanilla; IOPE AIR CUSHION Cover 23 Beige; IOPE AIR CUSHION Cover 31 Warm Beige; IOPE AIR CUSHION Natural 13 Ivory; IOPE AIR CUSHION Natural 21 Vanilla; IOPE AIR CUSHION Natural 23 Beige; IOPE Air Cushion Blusher no 1; IOPE Air Cushion Blusher no 2; IOPE Air Cushion Intense Cover 13; IOPE Air Cushion Intense Cover 21; IOPE Air Cushion Intense Cover 23; IOPE Air Cushion Sunblock EX; IOPE CC no. 1; IOPE CC no. 2; IOPE Perfect Skin Twin Pact no 21; IOPE Perfect Skin Twin Pact no 23; IOPE S.S. CONDITIONING COLOR BASE No.40 SPF22 PA PLUS; IOPE S.S. CONDITIONING COLOR BASE No.60 SPF22 PA PLUS; IPKN ARTISTS TOUCH BB 02 Medium; IPKN MOIST AND FIRM BB 02 Light; IPKN Moist and Firm BB 01 Light; IPKN Moist and Firm BB 02 MEDIUM; IPKN Moist and Firm BB 02 Medium; IPKN Moist and Firm BB 03 Light Medium; IPKN Moist and Firm BB 04 Medium; IPKN Pore Apple Sun Block; IQ Derma Essentials Life Without Wrinkles SPF 25; IQ Derma regiMEN Hydrating UV Shield SPF 25; IST Sunscreen SPF 50; ITC Bye Bye Foundation Full Coverage Moisturizer Deep; ITC Bye Bye Foundation Full Coverage Moisturizer Fair; ITC Bye Bye Foundation Full Coverage Moisturizer Fair Light; ITC Bye Bye Foundation Full Coverage Moisturizer Light; ITC Bye Bye Foundation Full Coverage Moisturizer Light Medium; ITC Bye Bye Foundation Full Coverage Moisturizer Medium; ITC Bye Bye Foundation Full Coverage Moisturizer Medium Tan; ITC Bye Bye Foundation Full Coverage Moisturizer Neutral Medium; ITC Bye Bye Foundation Full Coverage Moisturizer Neutral Tan; ITC Bye Bye Foundation Full Coverage Moisturizer Oil-Free Matte Deep; ITC Bye Bye Foundation Full Coverage Moisturizer Oil-Free Matte Fair; ITC Bye Bye Foundation Full Coverage Moisturizer Oil-Free Matte Fair Light; ITC Bye Bye Foundation Full Coverage Moisturizer Oil-Free Matte Light; ITC Bye Bye Foundation Full Coverage Moisturizer Oil-Free Matte Light Medium; ITC Bye Bye Foundation Full Coverage Moisturizer Oil-Free Matte Medium; ITC Bye Bye Foundation Full Coverage Moisturizer Oil-Free Matte Medium Tan; ITC Bye Bye Foundation Full Coverage Moisturizer Oil-Free Matte Neutral Medium; ITC Bye Bye Foundation Full Coverage Moisturizer Oil-Free Matte Neutral Tan; ITC Bye Bye Foundation Full Coverage Moisturizer Oil-Free Matte Rich; ITC Bye Bye Foundation Full Coverage Moisturizer Oil-Free Matte Rich Honey; ITC Bye Bye Foundation Full Coverage Moisturizer Oil-Free Matte Tan; ITC Bye Bye Foundation Full Coverage Moisturizer Rich; ITC Bye Bye Foundation Full Coverage Moisturizer Rich Honey; ITC Bye Bye Foundation Full Coverage Moisturizer Tan; ITC CC Full Coverage Cream Fair; ITC CC Full Coverage Cream Fair Light; ITC CC Full Coverage Cream Light; ITC CC Full Coverage Cream Light Medium; ITC CC Full Coverage Cream Medium; ITC CC Full Coverage Cream Medium Tan; ITC CC Full Coverage Cream Neutral Medium; ITC CC Full Coverage Cream Neutral Tan; ITC CC Full Coverage Cream Rich; ITC CC Full Coverage Cream Rich Honey; ITC CC Full Coverage Cream Tan; ITC CC Illumination Full Coverage Cream Deep; ITC CC Illumination Full Coverage Cream Fair; ITC CC Illumination Full Coverage Cream Fair Light; ITC CC Illumination Full Coverage Cream Light; ITC CC Illumination Full Coverage Cream Light Medium; ITC CC Illumination Full Coverage Cream Medium; ITC CC Illumination Full Coverage Cream Medium Tan; ITC CC Illumination Full Coverage Cream Neutral Medium; ITC CC Illumination Full Coverage Cream Neutral Tan; ITC CC Illumination Full Coverage Cream Rich; ITC CC Illumination Full Coverage Cream Rich Honey; ITC CC Illumination Full Coverage Cream Tan; ITK Broad Spectrum SPF 50 Sunscreen Serum; Iaso Control Make Up Base 60; Iaso Cover Veil Pact 25; Iaso Smart Pact 23; Iaso Smart Powder Pact 23; Ice Sun Bc Air Puff; Ics Perfect Finish Bb EX SPF 17 Pa; Ics Platinum Multi Finish Bb SPF 47 Pa; Ideal Shade Mousse Foundation Stick Stick Fond De Teint Mousse SPF/fps 10; Ideal Tone Up Glow Bb; Ihle's Paste 25%; Ilia Super Serum Skin Tint (st0.5 Skye); Ilia Super Serum Skin Tint (st1 Rendezvous); Ilia Super Serum Skin Tint (st10 Porto Ferro); Ilia Super Serum Skin Tint (st11 Matira); Ilia Super Serum Skin Tint (st11.5 Morgat); Ilia Super Serum Skin Tint (st12 Kokkini); Ilia Super Serum Skin Tint (st12.5 Ramla Bay); Ilia Super Serum Skin Tint (st12.75 Papakolea); Ilia Super Serum Skin Tint (st13 Kamari); Ilia Super Serum Skin Tint (st13.5 Rialto); Ilia Super Serum Skin Tint (st14 Dominica); Ilia Super Serum Skin Tint (st14.5 Honopu); Ilia Super Serum Skin Tint (st15 Porto Covo); Ilia Super Serum Skin Tint (st16 Pavones); Ilia Super Serum Skin Tint (st16.5 Jardin); Ilia Super Serum Skin Tint (st17 Miho); Ilia Super Serum Skin Tint (st17.5 Perissa); Ilia Super Serum Skin Tint (st18 Mali); Ilia Super Serum Skin Tint (st19 Lovina); Ilia Super Serum Skin Tint (st2 Tulum); Ilia Super Serum Skin Tint (st2.5 Sombrio); Ilia Super Serum Skin Tint (st3 Balos); Ilia Super Serum Skin Tint (st4 Formosa); Ilia Super Serum Skin Tint (st5 Bom Bom); Ilia Super Serum Skin Tint (st6 Ora); Ilia Super Serum Skin Tint (st6.5 Kai); Ilia Super Serum Skin Tint (st7 Diaz); Ilia Super Serum Skin Tint (st8 Shela); Ilia Super Serum Skin Tint (st9 Paloma); Ilia Super Serum Skin Tint (st9.5 Baikal); Im Cover Bb Sunstick; Im Pure Cica Sunscreen; Im Pure Perfect Cica; Image Md Reconstructive Moisturizer SPF 50; Image Prevention Plus Professional Ultimate Protection Moisturizer SPF50; Image Prevention Refiner Primer SPF50; Image Skincare Prevention Plus Daily Defense Lip Enhancer; Image Skincare Prevention Plus Daily Hydrating Moisturizer; Image Skincare Prevention Plus Daily Ultimate Protection; Impact Fix Prism Two Way Cake Broad Spectrum SPF 24; Impact Fix Prism Two Way Cake SPF 24, No. 23; Impact Fix Prism Two Way Cake SPF 24, No. 33; Impeccable Skin - Bronze; Impeccable Skin - Buff; Impeccable Skin - Ivory; Impeccable Skin - Nude; Impeccable Skin - Sand; Impeccable Skin - Tan; Impeccable Skin Moisturizing Face Sunscreen Broad Spectrum SPF 30; Imubolic; InSKin Essentials Dynamic Broad Spectrum; Inatal Advance; Indefense30; Industrial Strength Sunscreen; Infant Diaper Cream Anne Geddes; Infinitek Paris Broad Spectrum SPF 50 Sunscreen; Infinitek SPF 50 Mineral; Ingenue; InstaNatural Vitamin C Moisturizer SPF30; InstaReady Full Coverage Concealer; InstaReady Full Coverage Concealer SPF 30; Instant Radiance Sun Defense Sunscreen Broad Spectrum SPF 40 (Light - Medium) with sheer color correction technology; Instant Radiance Sun Defense Sunscreen Broad Spectrum SPF 40 (Medium-Deep) with sheer color correction technology; Intellishade Matte SPF 45; Intellishade Original SPF 45; Intellishade TruPhysical SPF 45; Intensive Cover Blemish Balm; Intensive Line Filler Comble-ridules Intensif SPF/fps 15; Intensive Serum Foundation; Intensive Skin Serum Foundation Broad Spectrum SPF 40; Intral Sensitive Skin Environmental Lightweight Shield Broad Spectrum Spf50; Invincible Setting Powder SPF 45 Deep; Invincible Setting Powder SPF 45 Light; Invincible Setting Powder SPF 45 Translucent; Invincible Setting Powder SPF 45 medium; Invincible Setting powder SPF 45; Invisible Hero SPF30; Invisible Physical Defense SPF 30; Invisible Physical Defense Spf30; Invisible Shield Full Physical SPF 49 Broad Spectrum Sunscreen; Invisible Shield Full Physical Tinted SPF 52 Broad Spectrum Sunscreen; Invisible Uv Filters SPF 30; Ion de Cushion Cover Beige ICCB; Ion de Cushion Cover Light Beige ICCLB; Ion de Cushion Natural Beige ICNB; Ion de Cushion Natural Light Beige ICNLB; Iope Air Cushion; Iope Air Cushion Flawless 13c; Iope Air Cushion Flawless 21n; Iope Air Cushion Flawless 21w; Iope Air Cushion Flawless 23n; Iope Air Cushion Flawless 23w; Iope Air Cushion Matte Longwear C13; Iope Air Cushion Matte Longwear N21; Iope Air Cushion Matte Longwear N23; Iope Air Cushion Matte Longwear W21; Iope Air Cushion Matte Longwear W23; Iope Air Cushion Perfection C13; Iope Air Cushion Perfection N21; Iope Air Cushion Perfection N23; Iope Air Cushion Perfection W21; Iope Air Cushion Perfection W23; Iope Air Cushion Sheer 13c; Iope Air Cushion Sheer 21n; Iope Air Cushion Sheer 21w; Iope Air Cushion Sheer 23n; Iope Air Cushion Sheer 23w; Iope Air Cushion Xp; Iope Air Cushion Xp Cover Beige Broad Spectrum Spf50plus; Iope Air Cushion Xp Cover Light Vanilla; Iope Air Cushion Xp Cover Vanilla Broad Spectrum Spf50plus; Iope Air Cushion Xp Intense Cover Beige; Iope Air Cushion Xp Intense Cover Vanilla; Iope Air Cushion Xp Matte Beige; Iope Air Cushion Xp Matte Light Vanilla; Iope Air Cushion Xp Matte Vanilla; Iope Air Cushion Xp Natural 31; Iope Mild Clinic Sun Protector; Iope Perfect Cover Cushion 13; Iope Perfect Cover Cushion 21; Iope Perfect Cover Cushion 23; Iope Perfect Skin Cover Cake 21 Light Beige; Iope Perfect Skin Cover Cake 23 Natural Beige; Iope Retigen Glow Cover Cake No.21; Iope Retigen Glow Cover Cake No.23; Iope Retigen Luminous Base; Iope Retigen Moisture Base Natural Green; Iope Retigen Moisture Base Natural Yellow; Iope Retigen Moisture Foundation No.17 Spf22 Pa Plus; Iope Retigen Moisture Foundation No.21 Spf22 Pa Plus; Iope Retigen Moisture Foundation No.23 Spf22 Pa Plus; Iope Retigen Moisture Twin Cake No.17; Iope Retigen Moisture Twin Cake No.21; Iope Retigen Moisture Twin Cake No.23; Iope Retigen Smoothing Pact No.1 Spf25 Pa Plus Plus; Iope Retigen Smoothing Pact No.2 Spf25 Pa Plus Plus; Iope Ss Conditioning Foundation No.13 Spf22 Pa Plus; Iope Ss Conditioning Foundation No.21 Spf22 Pa Plus; Iope Ss Conditioning Foundation No.23 Spf22 Pa Plus; Iope Ss Conditioning Foundation No.31 Spf22 Pa Plus; Iope Ss Conditioning Twincake No.13 Spf25 Pa Plus Plus; Iope Ss Conditioning Twincake No.21 Spf25 Pa Plus Plus; Iope Ss Conditioning Twincake No.23 Spf25 Pa Plus Plus; Iope Ss Conditioning Twincake No.31 Spf25 Pa Plus Plus; Iope Super Vital Extra Moist B.b; Iope Super Vital Extra Moist Base; Iope Super Vital Extra Moist Twin Pact No. 21 Spf25 Pa Plus Plus; Iope Super Vital Extra Moist Twin Pact No. 23 Spf25 Pa Plus Plus; Ipkn Artists Touch Bb 01 Light; Ipkn Artists Touch Bb 02 Medium; Ipkn Hydro and Pore Bb 01 Light; Ipkn Hydro and Pore Bb 02 Medium; Ipkn Moist and Firm Bb 01 Fair; Ipkn Moist and Firm Bb 05 Medium Tan; Iron Polysaccharides Folic Acid DHA; Isa Knox 365 Sun; Isa Knox Smart Bb Sun; Isa SunGuard SPF 30; Isaknox Suncare 365 Advanced Sun; Island Remedy All-day Revitalizing Moisturizer with SPF 30; It Radiant CC Color Base Lavender; It Radiant CC Color Base Mint; It Radiant CC Color Base Rose; It Radiant CC Cover Light Beige; It Radiant CC Cover Natural Beige; It Radiant Glow Bb Classic Beige; It Radiant Glow Bb True Beige; Ivarest; JACKET SPF-50 Broad Spectrum Sunscreen; JLo Beauty That Big Screen Broad Spectrum SPF 30 Moisturizer; JOY SPRING Kids Mineral Sunscreen SPF-30; JOYSPRING Kids Mineral Sunscreen SPF-30; JUNGSAEMMOOL Essential Skin Nuder Longwear Cushion Fair Light; JUNGSAEMMOOL Essential Skin Nuder Longwear Cushion Light; JUNGSAEMMOOL Essential Skin Nuder Longwear Cushion Medium; JUNGSAEMMOOL Essential Skin Nuder Longwear Cushion Medium Deep; JUNGSAEMMOOL Essential Star cealer Foundation Fair Light; JUNGSAEMMOOL Essential Star cealer Foundation Light; JUNGSAEMMOOL Essential Star cealer Foundation Medium; JUNGSAEMMOOL Essential Star cealer Foundation Medium Deep; JUNGSAEMMOOL Skin Setting Tone Balancing Base; Jack Black Ink Boost Tattoo Care; Jack Black Sun Guard Sunscreen SPF45; Jacket SPF 50; Jafra Brightening Brightening SPF 15; Jafra Calming Dynamics; Jafra Long Wear Makeup Broad Spectrum SPF 20; Jafra Long Wear Makeup Broad Spectrum SPF 20 Bare L6; Jafra Long Wear Makeup Broad Spectrum SPF 20 Bronze D2; Jafra Long Wear Makeup Broad Spectrum SPF 20 Caramel D12; Jafra Long Wear Makeup Broad Spectrum SPF 20 Earth D10; Jafra Long Wear Makeup Broad Spectrum SPF 20 Fair L2; Jafra Long Wear Makeup Broad Spectrum SPF 20 Honey M6; Jafra Long Wear Makeup Broad Spectrum SPF 20 Natural M2; Jafra Long Wear Makeup Broad Spectrum SPF 20 Nude L4; Jafra Long Wear Makeup Broad Spectrum SPF 20 Sable D6; Jafra Long Wear Makeup Broad Spectrum SPF 20 Spice D4; Jafra Long Wear Makeup Broad Spectrum SPF 20 Tawny M4; Jafra Long Wear Makeup Testers Broad Spectrum SPF 20; Jafra Royal Jelly Radiance Broad Spectrum SPF 20 Bare L6; Jafra Royal Jelly Radiance Broad Spectrum SPF 20 Bronze D2; Jafra Royal Jelly Radiance Broad Spectrum SPF 20 Cappuccino D8; Jafra Royal Jelly Radiance Broad Spectrum SPF 20 Caramel D12; Jafra Royal Jelly Radiance Broad Spectrum SPF 20 Earth D10; Jafra Royal Jelly Radiance Broad Spectrum SPF 20 Fair L2; Jafra Royal Jelly Radiance Broad Spectrum SPF 20 Honey M6; Jafra Royal Jelly Radiance Broad Spectrum SPF 20 Natural M2; Jafra Royal Jelly Radiance Broad Spectrum SPF 20 Sable D6; Jafra Royal Jelly Radiance Broad Spectrum SPF 20 Spice D4; Jafra Royal Jelly Radiance Broad Spectrum SPF 20 Tawny M4; Jafra Royal Jelly Radiance Spectrum SPF 20 Nude L4; Jasmine 3d Waterful 3d C.c; Jasmine 3d Waterful Cc; Jasmine Water Bb; Jasmine Water Cover Cushion; Jason Mineral Sunscreen SPF30 Broad Spectrum; Jason Pure Natural Sun Mineral Natural Sunscreen Broad Spectrum SPF30; Jazzy Jellies - Lip Twist; Jerrys Baby Non-nano Sun Cushion; John Wayne Cancer Foundation Mineral Sunscreen Facestick SPF 30; Johnson's Baby Powder Medicated; Johnson's Diaper Rash Cream; Johnson's Diaper Rash Ointment 15%; Johnson's Medicated Baby Pwd - 10%; Johnsons Baby Bathtime Gift Set; Johnsons Baby Care Essentials Gift Set; Johnsons Baby First Touch Gift Set; Johnsons Baby Pure Cornstarch Medicated; Johnsons Bath Discovery Baby Gift Set; Johnsons Bath Discovery baby Gift Set; Johnsons First Touch Baby Gift Set; Johnsons No More Rash Diaper Rash 3 in 1 Formula; Johnsons Tiny Traveler Gift Set; Johnsons Welcome Baby Gift Set; Johnsons first touch baby Gift Set; Johnsons medicated; Josie Maran - Get Even Sun Milk Broad Spectrum SPF 33 Mineral Sunscreen; Josie Maran Argan Daily Moisturizer SPF47; Josie Maran Argan Daily Moisturizer SPF47 Protect and Perfect; Josie Maran Argan Daily Moisturizer SPF47 Protect and Perfect Radiance; Journee; Journee Bio-restorative Day Balm Broad-spectrum Suncreen SPF 30; Journee Bio-restorative Day Cream Broad-spectrum Sunscreen SPF 30; Journee Firm Broad Spectrum Sunscreen SPF 30; Journee Riche Bio-restorative Day Balm Broad-spectrum Sunscreen SPF 30; Julep Everyday Hand SPF 30; Julep daylight defense for hands and face SPF 30; Jungle Screen SPF 30; Jurlique Purely Sun-Defying Moisturizer with SPF 15 Sunscreen; KINLO Golden Rays Sunscreen; KINLO Golden Rays Sunscreen (Medium Tinted); KINeSYS EarthKind SPF 30 Sunscreen; KISS MY FACE MINERAL SUNSCREEN obsessively natural KIDS defense broad spectrum spf 30; KISS MY FACE MINERAL SUNSCREEN sun broad spectrum spf 30; KISS MY FACE SPF-50 Baby Mineral Sunscreen; KISS MY FACE SPF-50 Daily Mineral Sunscreen; KISS MY FACE SPF-50 Face Factor Mineral Sunscreen; KISS MY FACE SUNSCREEN COOL SPORT broad spectrum spf 30; KISS MY FACE SUNSCREEN TATTOO SHADE broad spectrum spf 30; KISS MY FACE SUNSCREEN face factor broad spectrum spf 30; KISS MY FACE organics KIDS MINERAL SUNSCREEN broad spectrum spf 30; KISS MY FACE organics face and body MINERAL SUNSCREEN broad spectrum spf 30; KLAVUU BLUEPEARLSATION High Coverage Marine Collagen Aqua Cushion 21; KLAVUU BLUEPEARLSATION High Coverage Marine Collagen Aqua Cushion 23; KLAVUU UV Protection Secret Tone Up Sunscreen; Kandesn CC Cream Fair; Kandesn CC Cream Light Medium; Kari Gran Essential SPF SPF 28; Kari Gran Essential SPF SPF 30; Kashmere Anti-aging Sunscreen Moisturizer Broad Spectrum SPF 30; Kathari Sun Shield Drops Natural SPF 50; Keep The Peace Protect and Correct; Keep the Peace Broad Spectrum SPF 20 Sunscreen Protective Color Corrector; Kelsen - SPF 30 Daily Sunscreen; Kelsen - Under The Sun Broad Spectrum SPF 50 Mineral Sunscreen; Kendall Soothing; Kerstin Florian Multi-Vitamin Day Creme SPF 30; Kicho Cc; Kicho Correct Control; Kid Safe Screen; Kid's Sunscreen SPF 46; KidCreme Mineral Broad Spectrum SPF 40 Sunscreen UVA-UVB Suncreen; KidStick Mineral Broad Spectrum SPF 40 Sunscreen UVA-UVB Sunscreen; KidZGoo Natural Sunscreen; Kids 50 SPF50; Kids Broad Spectrum SPF 35; Kids Easy Block Spray SPF 30+; Kids Mineral Sunscreen Roll-ON SPF-30; Kids Mineral Sunscreen Roll-ON SPF-50; Kids Natural Mineral Sunscreen Broad Spectrum SPF 30; Kids SPF 50 Plus Sunscreen; Kids SPF 50 plus Sunscreen All Mineral Active Ingredients; Kids SPF50 Plus Mineral Sunscreen Continuous Totally Tropical; Kids SPF50Plus Mineral Sunscreen Rollerball Totally Tropical; Kids Sport Natural Mineral Sunscreen Broad Spectrum SPF 30; Kids Sunscreen SPF 50 Wegmans; Kids Sunscreen Stick SPF 50+; Kids and Baby Organic Sunscreen; Kidsport; KiinSun Sunscreen Broad Spectrum SPF50; Kinerase BB Cream with Kinetin; Kinesys; Kinfield Cloud Cover Mineral Body Sunscreen Broad Spectrum SPF 35; Kinfield Daily Dew Sea Kelp Moisturizer Sunscreen Broad Spectrum SPF 35; Kinfield Sunglow Luminizing Sunscreen SPF 30; Kinlo Always Golden Body; Kinlo Sunscreen Stick Broad Spectrum SPF 30; Kiss My Face - Face Factor SPF 30; Kiss My Face - Oat Protein Complex SPF 18; Kiss My Face - Oat Protein Complex SPF 30; Kiss My Face Organics SPF-30 Mineral Sun; Klavuu City Defense Tone Change Sun Cushion; Klenskin Sunscreen Face and Body Broad Spectrum SPF 30; Koala Kubs Diaper Rash Cream; Koh Gen Do Aqua Foundation BE-1; Koh Gen Do Aqua Foundation OC-1; Koh Gen Do Aqua Foundation OC-2; Koh Gen Do Aqua Foundation OC-3; Koh Gen Do Aqua Foundation PK-0; Koh Gen Do Aqua Foundation PK-1; Koh Gen Do Aqua Foundation PK-2; Koh Gen Do Aqua Foundation PK-3; Koh Gen Do Aqua Foundation WT-00; Koh Gen Do Maifanshi Makeup Color Base Green; Koh Gen Do Maifanshi Makeup Color Base Lavender Pink; Koh Gen Do Maifanshi Makeup Color Base Pearl White; Koh Gen Do Maifanshi Makeup Color Base Yellow; Koh Gen DoUV Care Milk UV Care Milk; Kopher Calming Ocean Sun; Korres Wild Rose Mineral Foundation SPF 30 - Fair; Korres Wild Rose Mineral Foundation SPF 30 - Fairly Light; Korres Wild Rose Mineral Foundation SPF 30 - Medium Beige; Korres Wild Rose Mineral Foundation SPF 30 - Medium Tan; Korres Wild Rose Mineral Foundation WRMF1 Fair SPF 30; Korres Wild Rose Mineral Foundation WRMF2 Light SPF 30; Korres Wild Rose Mineral Foundation WRMF3 Medium Beige SPF 30; Korres Wild Rose Mineral Foundation WRMF4 Medium Tan SPF 30; Koru Performance Sunscreen SPF40; Kypris Pot of Shade Heliotropic Broad Spectrum SPF 30 Sunscreen And Primer; L-Topical CALAMINE 8% PRAMOXINE HCL 1%; L-Topical CALAMINE 8% ZINC OXIDE 8%; LA Mer The SPF 30 Uv Protecting Fluid; LA Muse Return 2 Blessing Visual; LANEIGE BB CUSHION HYDRA RADIANCE Limited Edition with Crystals No.11 Porcelain; LANEIGE BB CUSHION HYDRA RADIANCE Limited Edition with Crystals No.21 Beige; LANEIGE BB CUSHION HYDRA RADIANCE Limited Edition with Crystals No.23 Sand; LANEIGE BB CUSHION HYDRA RADIANCE Limited Edition with Crystals No.33 Cinnamon; LANEIGE BB CUSHION HYDRA RADIANCE Limited Edition with Crystals No.35 Coffee; LANEIGE BB CUSHION HYDRA RADIANCE Limited Edition with Crystals No.37 Cacao; LANEIGE BB CUSHION HYDRA RADIANCE No.11 Porcelain; LANEIGE BB CUSHION HYDRA RADIANCE No.21 Beige; LANEIGE BB CUSHION HYDRA RADIANCE No.23 Sand; LANEIGE BB CUSHION HYDRA RADIANCE No.33 Cinnamon; LANEIGE BB CUSHION HYDRA RADIANCE No.35 Coffee; LANEIGE BB CUSHION HYDRA RADIANCE No.37 Cacao; LANEIGE BB CUSHION PORE BLUR No.11 Porcelain; LANEIGE BB CUSHION PORE BLUR No.21 Beige; LANEIGE BB CUSHION PORE BLUR No.23 Sand; LANEIGE BB CUSHION PORE BLUR No.33 Cinnamon; LANEIGE BB CUSHION PORE BLUR No.35 Coffee; LANEIGE BB CUSHION PORE BLUR No.37 Cacao; LANEIGE BB Cushion Light; LANEIGE BB Cushion Medium; LANEIGE BB Cushion no.21; LANEIGE BB Cushion no.23; LANEIGE CUSHION CONCEALER No.11 Rose Porcelain; LANEIGE CUSHION CONCEALER No.13 Cool Ivory; LANEIGE CUSHION CONCEALER No.21 Cool Beige; LANEIGE CUSHION CONCEALER No.23 Sand; LANEIGE Forever Definite Compact Foundation No.1; LANEIGE Forever Definite Compact Foundation No.2; LANEIGE Forever Definite Compact Foundation No.3; LANEIGE Forever Definite Compact Foundation No.4; LANEIGE MYSTIC VEIL FOUNDATION No. 21; LANEIGE MYSTIC VEIL FOUNDATION No. 23; LANEIGE SKIN VEIL BASE SPF 26 PA plus; LANEIGE SNOW crystal No. 21 SPF22 PAplus; LANEIGE SNOW crystal No. 23 SPF22 PAplus; LANEIGE SNOW crystal No. 31 SPF22 PAplus; LANEIGE SNOW crystal No. 33 SPF22 PAplus; LANEIGE Snow BB No.1 Brightening BB; LANEIGE Snow BB No.2 Natural BB; LANEIGE SunScreen Triple; LAPCOS Lasting Waterproof Sun; LASPA Ultra Sun Stick; LBEL CLARITE Clarifying Effect Foundation SPF 30; LBEL CLARITE Clarifying Effect Foundation SPF 30 CLAIRE 1- BEIGE; LBEL CLARITE Clarifying Effect Foundation SPF 30 CLAIRE 2- BEIGE; LBEL CLARITE Clarifying Effect Foundation SPF 30 CLAIRE 3- BEIGE; LBEL CLARITE Clarifying Effect Foundation SPF 30 CLAIRE 4- BEIGE; LBEL CLARITE Clarifying Effect Foundation SPF 30 MEDIUM 5- BEIGE; LBEL CLARITE Clarifying Effect Foundation SPF 30 MEDIUM 6- BEIGE; LBEL CLARITE Clarifying Effect Foundation SPF 30 MEDIUM 7- BEIGE; LBEL CLARITE Clarifying Effect Foundation SPF 30 OBSCURE 8- BROWN; LBEL CLARITE Clarifying Effect Foundation SPF 30 OBSCURE 9- BROWN; LBEL CONCENTRE TOTAL LABIOS GLOBAL PERFECTION SPF 20 BURDEOS/Red; LBEL CONCENTRE TOTAL LABIOS GLOBAL PERFECTION SPF 20 CARAMEL TOASTED/Brown; LBEL CONCENTRE TOTAL LABIOS GLOBAL PERFECTION SPF 20 FRAMBOISE/Red; LBEL CONCENTRE TOTAL LABIOS GLOBAL PERFECTION SPF 20 FUCSIA RADIANT/Red; LBEL CONCENTRE TOTAL LABIOS GLOBAL PERFECTION SPF 20 FUCSIA ROYAL/Red; LBEL CONCENTRE TOTAL LABIOS GLOBAL PERFECTION SPF 20 FUCSIA/Red; LBEL CONCENTRE TOTAL LABIOS GLOBAL PERFECTION SPF 20 MALVA NUDE/Red; LBEL CONCENTRE TOTAL LABIOS GLOBAL PERFECTION SPF 20 ROSE NUDE/Red; LBEL CONCENTRE TOTAL LABIOS GLOBAL PERFECTION SPF 20 ROUGE AMORE/Red; LBEL CONCENTRE TOTAL LABIOS GLOBAL PERFECTION SPF 20 ROUGE CORAIL/Red; LBEL CONCENTRE TOTAL LABIOS GLOBAL PERFECTION SPF 20 ROUGE/Red; LBEL CONCENTRE TOTAL LABIOS GLOBAL PERFECTION SPF 20 SALMON/Red; LBEL Clarite Clarifying Effect Foundation SPF 30 Claire 1/Beige; LBEL Clarite Clarifying Effect Foundation SPF 30 Claire 2/Beige; LBEL Clarite Clarifying Effect Foundation SPF 30 Claire 3/Beige; LBEL Clarite Clarifying Effect Foundation SPF 30 Claire 4/Beige; LBEL Clarite Clarifying Effect Foundation SPF 30 Claire 5/Beige; LBEL Clarite Clarifying Effect Foundation SPF 30 Claire 6/Beige; LBEL Clarite Clarifying Effect Foundation SPF 30 Claire 7/Beige; LBEL Clarite Clarifying Effect Foundation SPF 30 Claire 8/Beige; LBEL Clarite Clarifying Effect Foundation SPF 30 Claire 9/Brown; LBEL DEFENSE 365 Daily Protective Facial SPF 50; LBEL DEFENSE 365 oil-free daily protective facial SPF 50; LBEL DIVINE Double Use compact SPF 15 gold deluxe edition Obscure 8-9; LBEL DIVINE Polvos compactos doble uso FPS 15 edicion de lujo dorado/Double use compact SPF 15 gold deluxe edition Claire 1-2-3; LBEL DIVINE Polvos compactos doble uso FPS 15 edicion de lujo dorado/Double use compact SPF 15 gold deluxe edition Claire 4; LBEL DIVINE Polvos compactos doble uso FPS 15 edicion de lujo dorado/Double use compact SPF 15 gold deluxe edition Medium 5; LBEL DIVINE Polvos compactos doble uso FPS 15 edicion de lujo dorado/Double use compact SPF 15 gold deluxe edition Medium 6; LBEL DIVINE Polvos compactos doble uso FPS 15 edicion de lujo dorado/Double use compact SPF 15 gold deluxe edition Medium 7; LBEL DIVINE Polvos compactos doble uso FPS 15 edicion de lujo dorado/Double use compact SPF 15 gold deluxe edition Obscure 8-9; LBEL DIVINE Polvos compactos doble uso FPS 15 edicion de lujo plateado/Double use compact SPF 15 silver deluxe edition Claire 1-2-3; LBEL DIVINE Polvos compactos doble uso FPS 15 edicion de lujo plateado/Double use compact SPF 15 silver deluxe edition Claire 4; LBEL DIVINE Polvos compactos doble uso FPS 15 edicion de lujo plateado/Double use compact SPF 15 silver deluxe edition Medium 5; LBEL DIVINE Polvos compactos doble uso FPS 15 edicion de lujo plateado/Double use compact SPF 15 silver deluxe edition Medium 6; LBEL DIVINE Polvos compactos doble uso FPS 15 edicion de lujo plateado/Double use compact SPF 15 silver deluxe edition Medium 7; LBEL DIVINE Polvos compactos doble uso FPS 15 edicion de lujo plateado/Double use compact SPF 15 silver deluxe edition Obscure 8-9; LBEL Defense Total Compact Suncreen SPF 50 For Face - Matte Finish; LBEL Defense Total compact sunscreen SPF 50 for face - matte finish CLAIRE- BEIGE; LBEL Defense Total compact sunscreen SPF 50 for face - matte finish MEDIUM- BROWN; LBEL EFFET PARFAIT LONG LASTING COMPACT SPF 15 Claire 1/Beige; LBEL EFFET PARFAIT LONG LASTING COMPACT SPF 15 Claire 2/Beige; LBEL EFFET PARFAIT LONG LASTING COMPACT SPF 15 Claire 3/Beige; LBEL EFFET PARFAIT LONG LASTING COMPACT SPF 15 Claire 4/Beige; LBEL EFFET PARFAIT LONG LASTING COMPACT SPF 15 Medium 5/Beige; LBEL EFFET PARFAIT LONG LASTING COMPACT SPF 15 Medium 6/Beige; LBEL EFFET PARFAIT LONG LASTING COMPACT SPF 15 Medium 7/Beige; LBEL EFFET PARFAIT LONG LASTING COMPACT SPF 15 Obscure 8/Beige; LBEL EFFET PARFAIT LONG LASTING COMPACT SPF 15 Obscure 9/Beige; LBEL EFFET PARFAIT MINERAL natural skin effect mousse foundation SPF 16 CLAIRE 1 - BEIGE; LBEL EFFET PARFAIT MINERAL natural skin effect mousse foundation SPF 16 CLAIRE 1- BEIGE; LBEL EFFET PARFAIT MINERAL natural skin effect mousse foundation SPF 16 CLAIRE 2 - BEIGE; LBEL EFFET PARFAIT MINERAL natural skin effect mousse foundation SPF 16 CLAIRE 2- BEIGE; LBEL EFFET PARFAIT MINERAL natural skin effect mousse foundation SPF 16 CLAIRE 3 - BEIGE; LBEL EFFET PARFAIT MINERAL natural skin effect mousse foundation SPF 16 CLAIRE 3- BEIGE; LBEL EFFET PARFAIT MINERAL natural skin effect mousse foundation SPF 16 CLAIRE 4 - BEIGE; LBEL EFFET PARFAIT MINERAL natural skin effect mousse foundation SPF 16 CLAIRE 4- BEIGE; LBEL EFFET PARFAIT MINERAL natural skin effect mousse foundation SPF 16 MEDIUM 5 - BEIGE; LBEL EFFET PARFAIT MINERAL natural skin effect mousse foundation SPF 16 MEDIUM 5- BEIGE; LBEL EFFET PARFAIT MINERAL natural skin effect mousse foundation SPF 16 MEDIUM 6 - BEIGE; LBEL EFFET PARFAIT MINERAL natural skin effect mousse foundation SPF 16 MEDIUM 6- BEIGE; LBEL EFFET PARFAIT MINERAL natural skin effect mousse foundation SPF 16 MEDIUM 7 - BEIGE; LBEL EFFET PARFAIT MINERAL natural skin effect mousse foundation SPF 16 MEDIUM 7- BEIGE; LBEL EFFET PARFAIT MINERAL natural skin effect mousse foundation SPF 16 OBSCURE 8 - BEIGE; LBEL EFFET PARFAIT MINERAL natural skin effect mousse foundation SPF 16 OBSCURE 8- BEIGE; LBEL EFFET PARFAIT Polvos Compactos de Larga Duracion para rostro FPS 15 /Long Lasting Compact SPF 15 (CLAIRE 1) - BEIGE; LBEL EFFET PARFAIT Polvos Compactos de Larga Duracion para rostro FPS 15 /Long Lasting Compact SPF 15 (CLAIRE 2) - BEIGE; LBEL EFFET PARFAIT Polvos Compactos de Larga Duracion para rostro FPS 15 /Long Lasting Compact SPF 15 (CLAIRE 3) - BEIGE; LBEL EFFET PARFAIT Polvos Compactos de Larga Duracion para rostro FPS 15 /Long Lasting Compact SPF 15 (CLAIRE 4) - BEIGE; LBEL EFFET PARFAIT Polvos Compactos de Larga Duracion para rostro FPS 15 /Long Lasting Compact SPF 15 (MEDIUM 5) - BROWN; LBEL EFFET PARFAIT Polvos Compactos de Larga Duracion para rostro FPS 15 /Long Lasting Compact SPF 15 (MEDIUM 6) - BROWN; LBEL EFFET PARFAIT Polvos Compactos de Larga Duracion para rostro FPS 15 /Long Lasting Compact SPF 15 (MEDIUM 7) - BROWN; LBEL EFFET PARFAIT Polvos Compactos de Larga Duracion para rostro FPS 15 /Long Lasting Compact SPF 15 (OBSCURE 8) - BROWN; LBEL EFFET PARFAIT Polvos Compactos de Larga Duracion para rostro FPS 15 /Long Lasting Compact SPF 15 (OBSCURE 9) - BROWN; LBEL Effet Parfait Mineral Natural Skin Effect Mouse Foundation; LBEL Effet Parfait maximum comfort and long-lasting foundation spf 10; LBEL MOUSSE MATIFFIANT MATTE FINISH MOUSSE FOUNDATION SPF 15 Claire 1/Beige; LBEL MOUSSE MATIFFIANT MATTE FINISH MOUSSE FOUNDATION SPF 15 Claire 2/ Beige; LBEL MOUSSE MATIFFIANT MATTE FINISH MOUSSE FOUNDATION SPF 15 Claire 3/ Beige; LBEL MOUSSE MATIFFIANT MATTE FINISH MOUSSE FOUNDATION SPF 15 Claire 4/ Beige; LBEL MOUSSE MATIFFIANT MATTE FINISH MOUSSE FOUNDATION SPF 15 Clare 1/ Beige; LBEL MOUSSE MATIFFIANT MATTE FINISH MOUSSE FOUNDATION SPF 15 Clare 1/Beige; LBEL MOUSSE MATIFFIANT MATTE FINISH MOUSSE FOUNDATION SPF 15 Clare 2/ Beige; LBEL MOUSSE MATIFFIANT MATTE FINISH MOUSSE FOUNDATION SPF 15 Clare 3/ Beige; LBEL MOUSSE MATIFFIANT MATTE FINISH MOUSSE FOUNDATION SPF 15 Clare 4/ Beige; LBEL MOUSSE MATIFFIANT MATTE FINISH MOUSSE FOUNDATION SPF 15 Medium 5/ Beige; LBEL MOUSSE MATIFFIANT MATTE FINISH MOUSSE FOUNDATION SPF 15 Medium 6/ Beige; LBEL MOUSSE MATIFFIANT MATTE FINISH MOUSSE FOUNDATION SPF 15 Medium 7/ Beige; LBEL MOUSSE MATIFFIANT MATTE FINISH MOUSSE FOUNDATION SPF 15 Obscure 8/ Beige; LBEL MOUSSE MATIFFIANT MATTE FINISH MOUSSE FOUNDATION SPF 15 Obscure 9/ Beige; LBEL MOUSSE MATIFFIANT Matte Finish Mousse Foundation SPF 16 Base Textura Mousse Acabado Mate FPS 16 CLAIRE 1 - BEIGE; LBEL MOUSSE MATIFFIANT Matte Finish Mousse Foundation SPF 16 Base Textura Mousse Acabado Mate FPS 16 CLAIRE 1- BEIGE; LBEL MOUSSE MATIFFIANT Matte Finish Mousse Foundation SPF 16 Base Textura Mousse Acabado Mate FPS 16 CLAIRE 2 - BEIGE; LBEL MOUSSE MATIFFIANT Matte Finish Mousse Foundation SPF 16 Base Textura Mousse Acabado Mate FPS 16 CLAIRE 2- BEIGE; LBEL MOUSSE MATIFFIANT Matte Finish Mousse Foundation SPF 16 Base Textura Mousse Acabado Mate FPS 16 CLAIRE 3 - BEIGE; LBEL MOUSSE MATIFFIANT Matte Finish Mousse Foundation SPF 16 Base Textura Mousse Acabado Mate FPS 16 CLAIRE 3- BEIGE; LBEL MOUSSE MATIFFIANT Matte Finish Mousse Foundation SPF 16 Base Textura Mousse Acabado Mate FPS 16 CLAIRE 4 - BEIGE; LBEL MOUSSE MATIFFIANT Matte Finish Mousse Foundation SPF 16 Base Textura Mousse Acabado Mate FPS 16 CLAIRE 4- BEIGE; LBEL MOUSSE MATIFFIANT Matte Finish Mousse Foundation SPF 16 Base Textura Mousse Acabado Mate FPS 16 MEDIUM 5 - BEIGE; LBEL MOUSSE MATIFFIANT Matte Finish Mousse Foundation SPF 16 Base Textura Mousse Acabado Mate FPS 16 MEDIUM 5- BEIGE; LBEL MOUSSE MATIFFIANT Matte Finish Mousse Foundation SPF 16 Base Textura Mousse Acabado Mate FPS 16 MEDIUM 6 - BEIGE; LBEL MOUSSE MATIFFIANT Matte Finish Mousse Foundation SPF 16 Base Textura Mousse Acabado Mate FPS 16 MEDIUM 6- BEIGE; LBEL MOUSSE MATIFFIANT Matte Finish Mousse Foundation SPF 16 Base Textura Mousse Acabado Mate FPS 16 MEDIUM 7 - BEIGE; LBEL MOUSSE MATIFFIANT Matte Finish Mousse Foundation SPF 16 Base Textura Mousse Acabado Mate FPS 16 MEDIUM 7- BEIGE; LBEL MOUSSE MATIFFIANT Matte Finish Mousse Foundation SPF 16 Base Textura Mousse Acabado Mate FPS 16 OBSCURE 8 - BROWN; LBEL MOUSSE MATIFFIANT Matte Finish Mousse Foundation SPF 16 Base Textura Mousse Acabado Mate FPS 16 OBSCURE 8- BROWN; LBEL MOUSSE MATIFFIANT Matte Finish Mousse Foundation SPF 16 Base Textura Mousse Acabado Mate FPS 16 OBSCURE 9 - BROWN; LBEL MOUSSE MATIFFIANT Matte Finish Mousse Foundation SPF 16 Base Textura Mousse Acabado Mate FPS 16 OBSCURE 9- BROWN; LBEL ULTRA BALM MOISTURIZING PROTECTIVE BALM FOR LIPS SPF 20 Cerise Brise / Red; LBEL ULTRA BALM MOISTURIZING PROTECTIVE BALM FOR LIPS SPF 20 Coral Petale/ Red; LBEL ULTRA BALM MOISTURIZING PROTECTIVE BALM FOR LIPS SPF 20 Nude Caramel/ Beige; LBEL ULTRA BALM MOISTURIZING PROTECTIVE BALM FOR LIPS SPF 20 Nude Translucent/Beige; LBEL ULTRA BALM MOISTURIZING PROTECTIVE BALM FOR LIPS SPF 20 Rose Cotton/ Red; LBEL ULTRA BALM MOISTURIZING PROTECTIVE BALM FOR LIPS SPF 20 Rose Paradise/ Red; LBel Effet Parfit; LBri Pure N Natural Diaper; LBri Pure n Natural SPF 30; LC Skincare - Ella Sunscreen Broad Spectrum SPF 55; LEADER Caldyphen; LESSE EVERYDAY ELEMENTS SPF 30 Broad Spectrum Mineral Sunscreen; LOVLUV Vivacity Bright BB Cream; LOVLUV Vivacity Bright Cushion 13g; LOVLUV Vivacity Bright Cushion 21g; LUCKY 13s ALL NATURAL TATTOO SUNSCREEN SPF-30; La Defense Broad Spectrum SPF 30 Mineral Sunscreen; La Defense Urban Protect Mineral BB Cream Broad Spectrum SPF20, Cool Undertone; La Defense Urban Protect Mineral BB Cream Broad Spectrum SPF20, Warm Undertone; La Defense Urban Protect Mineral Sunscreen Broad Spectrum SPF30; La Roche Posay Laboratoire Dermatologique Anthelios 50 Mineral Ultra Light Sunscreen; La Roche Posay Laboratoire Dermatologique Anthelios 50 Mineral Ultra Light Sunscreen Face Broad Spectrum SPF 50; La Roche Posay Laboratoire Dermatologique Anthelios HA Mineral Broad Spectrum SPF 30 Daily Moisturizing Sunscreen; La Roche Posay New 50 Body and Face SPF 50 Mineral Anthelios Gentle 100 percent mineral UV filters Soft finish with Cell Ox Shield; LaSpa Mineral Zinc Oxide Sunscreen, 80ml; LaSpa Moisturizing Mineral Sunscreen SPF 30; Lab Series Skincare for Men Bb Tinted Moisturizer Broad Spectrum SPF 35; LabNo 4SP Safe Bright Tone BB Cushion; LabNo 4SP Safe Natural Tone BB Cushion; Labisan; Labisan Cold Sore; Labo De Dermafirm Sun Defense Fluid; Labode Dermafirm Sun Defense Make Up Base; Lady Face Mineral Sunscreen, SPF 40 - Medium/Dark; Lait Haute Protection; Lanacane Medicated Body Powder - 10%; Land Shark SPF 30; Land Shark SPF 30 Clear Zinc; Land Shark SPF 30 Sunkissed; Land Shark SPF 30 Tinted Zinc; Land Shark SPF 40; Land Shark Zinky SPF 36 Azure Blue; Land Shark Zinky SPF 36 Pacific Purple; Land Shark Zinky SPF 36 Pink Beach; Laneige BB Cushion Dark; Laneige BB Cushion Medium Dark; Laneige Bb Cushion; Laneige Bb Cushion Fair; Laneige Bb Cushion Light Medium; Laneige Cushion Concealer; Laneige Cushion Concealer Fair; Laneige Cushion Concealer Light; Laneige Cushion Concealer Light Medium; Laneige Cushion Concealer Medium; Laneige Satin Finish Twin Pact No. 13; Laneige Satin Finish Twin Pact No. 21; Laneige Satin Finish Twin Pact No. 23; Laneige Satin Finish Twin Pact No. 25; Laneige Satin Finish Twin Pact No. 31; Laneige Skin Veil Base No. 20 SPF 26 Pa Plus; Laneige Skin Veil Base No. 40 SPF 26 Pa Plus; Laneige Skin Veil NO.21 SPF 26 PAplus; Laneige Skin Veil NO.23 SPF 26 PAplus; Laneige Skin Veil NO.31 SPF 26 PAplus; Laneige Skin Veil NO.33 SPF 26 PAplus; Laneige Sliding Pact EX snow crystal No.1; Laneige Snow Bb Cream; Laneige UV TOTAL BASE; Laneige Watery Cushion Concealer no. 1; Laneige Watery Cushion Concealer no. 2; Laneige Watery Cushion Concealer no. 3; Laneige sliding pact EX snow crystal No.2; Laneige sliding pact EX snow crystal No.3; Laneige sliding pact EX snow crystal No.4; Laneige sliding pact EX snow crystal No.5; Lani and Kai Mineral Sunscreen Spf30; Lanoguard Multi-Purpose; Lansinoh Baby; Lantiseptic CaldaZinc; Larkly SPF30 Mineral Powder Face Sunscreen; Laser Block 100 sunblock; Laser Max Sunstick SPF50; Laser Sun Block 100 SPF50; Laser Sunscreen 100; Laspa; Laspa Broad Spectrum Mineral Sunscreen SPF 50 Ultra Sun; Laspa Daily Sun Protection Broad Spectrum Mineral Sunscreen SPF 20; Laspa Mineral Sunscreen; Laspa Tinted Matte Sunscreen SPF 20 Bronze; Laspa Tinted Matte Sunscreen SPF 20 Deep Umber; Laspa Tinted Matte Sunscreen SPF 20 Golden; Laspa Tinted Matte Sunscreen SPF 20 Light; Laspa Tinted Matte Sunscreen SPF 20 Rich Brown; Lassar's Paste; Lassar's Pst; Lather- Daily Defense Mineral SPF 50; Laundryou Clear Defense Cushion Glow 21 Uyuni Beige; Laundryou Clear Defense Cushion Glow 23 Cannelle Beige; Laundryou Moisture Sun Cushion Clear; Lauren Conrad - The Liquid Foundation SPF 15; Lavender Mint SPF30; Lbel Clarite Makeup Foundation for A Clearer Appearance SPF 30 110-C; Lbel Clarite Makeup Foundation for A Clearer Appearance SPF 30 130-F; Lbel Clarite Makeup Foundation for A Clearer Appearance SPF 30 140-C; Lbel Clarite Makeup Foundation for A Clearer Appearance SPF 30 150-C; Lbel Clarite Makeup Foundation for A Clearer Appearance SPF 30 160-N; Lbel Clarite Makeup Foundation for A Clearer Appearance SPF 30 200-C; Lbel Clarite Makeup Foundation for A Clearer Appearance SPF 30 210-F; Lbel Clarite Makeup Foundation for A Clearer Appearance SPF 30 240-C; Lbel Clarite Makeup Foundation for A Clearer Appearance SPF 30 250-F; Lbel Clarite Makeup Foundation for A Clearer Appearance SPF 30 260-N; Lbel Clarite Makeup Foundation for A Clearer Appearance SPF 30 270-C; Lbel Clarite Makeup Foundation for A Clearer Appearance SPF 30 280-F; Lbel Clarite Makeup Foundation for A Clearer Appearance SPF 30 290-C; Lbel Clarite Makeup Foundation for A Clearer Appearance SPF 30 300-N; Lbel Clarite Makeup Foundation for A Clearer Appearance SPF 30 320-C; Lbel Clarite Makeup Foundation for A Clearer Appearance SPF 30 330-C; Lbel Concentre Total Base Serum Ultra-fluid Foundation SPF 25 Claire 1 - Beige; Lbel Concentre Total Base Serum Ultra-fluid Foundation SPF 25 Claire 2 - Beige; Lbel Concentre Total Base Serum Ultra-fluid Foundation SPF 25 Claire 3 - Beige; Lbel Concentre Total Base Serum Ultra-fluid Foundation SPF 25 Claire 4 - Beige; Lbel Concentre Total Base Serum Ultra-fluid Foundation SPF 25 Medium 5 - Beige; Lbel Concentre Total Base Serum Ultra-fluid Foundation SPF 25 Medium 6 - Beige; Lbel Concentre Total Base Serum Ultra-fluid Foundation SPF 25 Medium 7 - Beige; Lbel Concentre Total Base Serum Ultra-fluid Foundation SPF 25 Obscure 8 - Beige; Lbel Concentre Total Base Serum Ultra-fluid Foundation SPF 25 Obscure 9 - Beige; Lbel Concentre Total Base Serum Ultra-fluid Foundation SPF 25 Tono Hut - Beige; Lbel Defense 365 Daily Protective Facial SPF 50; Lbel Defense 365 Daily Protective SPF 50; Lbel Effet Parfait Mineral; Lbel Effet Parfait Mineral Natural Skin Effect Mousse Foundation SPF 16 (claire 1) - Beige; Lbel Effet Parfait Mineral Natural Skin Effect Mousse Foundation SPF 16 (claire 2) - Beige; Lbel Effet Parfait Mineral Natural Skin Effect Mousse Foundation SPF 16 (claire 3) - Beige; Lbel Effet Parfait Mineral Natural Skin Effect Mousse Foundation SPF 16 (claire 4) - Beige; Lbel Effet Parfait Mineral Natural Skin Effect Mousse Foundation SPF 16 (medium 5) - Brown; Lbel Effet Parfait Mineral Natural Skin Effect Mousse Foundation SPF 16 (medium 6) - Brown; Lbel Effet Parfait Mineral Natural Skin Effect Mousse Foundation SPF 16 (medium 7) - Brown; Lbel Effet Parfait Mineral Natural Skin Effect Mousse Foundation SPF 16 (obscure 8) - Brown; Lbel Effet Parfait Mineral Natural Skin Effect Mousse Foundation SPF 16 (obscure 9) - Brown; Lbel Effet Parfait Polvos Compactos De Larga Duracion Para Rostro Fps 15 Long Lasting Compact SPF 15 (claire 1) - Beige; Lbel Effet Parfait Polvos Compactos De Larga Duracion Para Rostro Fps 15 Long Lasting Compact SPF 15 (claire 2) - Beige; Lbel Effet Parfait Polvos Compactos De Larga Duracion Para Rostro Fps 15 Long Lasting Compact SPF 15 (claire 3) - Beige; Lbel Effet Parfait Polvos Compactos De Larga Duracion Para Rostro Fps 15 Long Lasting Compact SPF 15 (claire 4) - Beige; Lbel Effet Parfait Polvos Compactos De Larga Duracion Para Rostro Fps 15 Long Lasting Compact SPF 15 (medium 5) - Beige; Lbel Effet Parfait Polvos Compactos De Larga Duracion Para Rostro Fps 15 Long Lasting Compact SPF 15 (medium 6) - Beige; Lbel Effet Parfait Polvos Compactos De Larga Duracion Para Rostro Fps 15 Long Lasting Compact SPF 15 (medium 7) - Beige; Lbel Effet Parfait Polvos Compactos De Larga Duracion Para Rostro Fps 15 Long Lasting Compact SPF 15 (obscure 8) - Brown; Lbel Effet Parfait Polvos Compactos De Larga Duracion Para Rostro Fps 15 Long Lasting Compact SPF 15 (obscure 9) - Brown; Lbel Forever Hydra Base Hidratante De Larga Duracion Fps 15 Hydrating Longwear Foundation SPF 15 Almendra 230-N; Lbel Forever Hydra Base Hidratante De Larga Duracion Fps 15 Hydrating Longwear Foundation SPF 15 Beige 220-C; Lbel Forever Hydra Base Hidratante De Larga Duracion Fps 15 Hydrating Longwear Foundation SPF 15 Capuccino 310-C; Lbel Forever Hydra Base Hidratante De Larga Duracion Fps 15 Hydrating Longwear Foundation SPF 15 Champagne 170-N; Lbel Forever Hydra Base Hidratante De Larga Duracion Fps 15 Hydrating Longwear Foundation SPF 15 Latte 180-F; Lbel Forever Stay Polvos Compactos De Larga Duracion Fps 15 Long Lasting Compact SPF 15 Arena 200; Lbel Forever Stay Polvos Compactos De Larga Duracion Fps 15 Long Lasting Compact SPF 15 Avellana 200; Lbel Forever Stay Polvos Compactos De Larga Duracion Fps 15 Long Lasting Compact SPF 15 Caramel 200; Lbel Forever Stay Polvos Compactos De Larga Duracion Fps 15 Long Lasting Compact SPF 15 Golden 300; Lbel Forever Stay Polvos Compactos De Larga Duracion Fps 15 Long Lasting Compact SPF 15 Perla 100; Lbel Forever Stay Polvos Compactos De Larga Duracion Fps 15 Long Lasting Compact SPF 15 Solei 200; Lbel Forever Ultra Matte Base Control Brillo De Larga Duracion Fps 15 Shine Control Longwear Foundation SPF 15 Almendra 230-N; Lbel Forever Ultra Matte Base Control Brillo De Larga Duracion Fps 15 Shine Control Longwear Foundation SPF 15 Beige 220-C; Lbel Forever Ultra Matte Base Control Brillo De Larga Duracion Fps 15 Shine Control Longwear Foundation SPF 15 Capuccino 310-C; Lbel Forever Ultra Matte Base Control Brillo De Larga Duracion Fps 15 Shine Control Longwear Foundation SPF 15 Champagne 170-N; Lbel Forever Ultra Matte Base Control Brillo De Larga Duracion Fps 15 Shine Control Longwear Foundation SPF 15 Latte 180-F; Lbel Libertage Cc Matte Perfectioning-effect Moisturizing Face SPF 30; Lbel Maximum Comfort and Long-lasting Foundation SPF 10 (claire 1) - Beige; Lbel Maximum Comfort and Long-lasting Foundation SPF 10 (claire 2) - Beige; Lbel Maximum Comfort and Long-lasting Foundation SPF 10 (claire 3) - Beige; Lbel Maximum Comfort and Long-lasting Foundation SPF 10 (claire 3)- Beige; Lbel Maximum Comfort and Long-lasting Foundation SPF 10 (claire 4) - Beige; Lbel Maximum Comfort and Long-lasting Foundation SPF 10 (medium 5) - Brown; Lbel Maximum Comfort and Long-lasting Foundation SPF 10 (medium 6) - Brown; Lbel Maximum Comfort and Long-lasting Foundation SPF 10 (medium 7) - Brown; Lbel Maximum Comfort and Long-lasting Foundation SPF 10 (obscure 8) - Brown; Lbel Maximum Comfort and Long-lasting Foundation SPF 10 (obscure 9) - Brown; Lbel Mousse Matiffiant Matte Finish Mousse Foundation SPF 15 Claire 1; Lbel Mousse Matiffiant Matte Finish Mousse Foundation SPF 15 Claire 2; Lbel Mousse Matiffiant Matte Finish Mousse Foundation SPF 15 Claire 3; Lbel Mousse Matiffiant Matte Finish Mousse Foundation SPF 15 Claire 4; Lbel Mousse Matiffiant Matte Finish Mousse Foundation SPF 15 Medium 5; Lbel Mousse Matiffiant Matte Finish Mousse Foundation SPF 15 Medium 6; Lbel Mousse Matiffiant Matte Finish Mousse Foundation SPF 15 Medium 7; Lbel Mousse Matiffiant Matte Finish Mousse Foundation SPF 15 Obscure 8; Lbel Mousse Matiffiant Matte Finish Mousse Foundation SPF 15 Obscure 9; Lbel Nude Skin Ultra Light Matte Foundation With Vitamins SPF 20 Almendra 230-N; Lbel Nude Skin Ultra Light Matte Foundation With Vitamins SPF 20 Beige 220-C; Lbel Nude Skin Ultra Light Matte Foundation With Vitamins SPF 20 Capuccino 310-C; Lbel Nude Skin Ultra Light Matte Foundation With Vitamins SPF 20 Champagne 170-N; Lbel Nude Skin Ultra Light Matte Foundation With Vitamins SPF 20 Latte 180-F; Lbel Nude Skin Ultra Light Matte Foundation With Vitamins SPF 20 Mokaccino 390-N; Lbel Ultra Balm Moisturizing Protective Balm for Lips SPF 20 Cerise Brise - Pink; Lbel Ultra Balm Moisturizing Protective Balm for Lips SPF 20 Coral Petale - Pink; Lbel Ultra Balm Moisturizing Protective Balm for Lips SPF 20 Nude Caramel - Beige; Lbel Ultra Balm Moisturizing Protective Balm for Lips SPF 20 Nude Translucide - Beige; Lbel Ultra Balm Moisturizing Protective Balm for Lips SPF 20 Rose Cotton - Pink; Lbel Ultra Balm Moisturizing Protective Balm for Lips SPF 20 Rose Paradise - Pink; Lbel Uv Defense 365; Lc Foundation SPF 15; Le Blanc Light Creator Brightening Makeup Base Broad Spectrum SPF 40 Sunscreen, 10 Rosee; Le Blanc Light Creator Brightening Makeup Base Broad Spectrum SPF 40 Sunscreen, 20 Mimosa; Le Lou Collagen Day SPF 30; Le Mieux Just Glow BB Cream SPF 50; Le Teint Ultra Tenue Ultrawear Flawless Compact Foundation Broad Spectrum SPF 15 Suncreeen 10 Beige; Le Teint Ultra Tenue Ultrawear Flawless Compact Foundation Broad Spectrum SPF 15 Suncreeen 12 Beige Rose; Le Teint Ultra Tenue Ultrawear Flawless Compact Foundation Broad Spectrum SPF 15 Suncreeen 20 Beige; Le Teint Ultra Tenue Ultrawear Flawless Compact Foundation Broad Spectrum SPF 15 Suncreeen 21 Beige; Le Teint Ultra Tenue Ultrawear Flawless Compact Foundation Broad Spectrum SPF 15 Suncreeen 22 Beige Rose; Le Teint Ultra Tenue Ultrawear Flawless Compact Foundation Broad Spectrum SPF 15 Suncreeen 30 Beige; Le Teint Ultra Tenue Ultrawear Flawless Compact Foundation Broad Spectrum SPF 15 Suncreeen 32 Beige Rose; Le Teint Ultra Tenue Ultrawear Flawless Compact Foundation Broad Spectrum SPF 15 Suncreeen 40 Beige; Le Teint Ultra Tenue Ultrawear Flawless Compact Foundation Broad Spectrum SPF 15 Suncreeen 42 Beige Rose; Le Teint Ultra Tenue Ultrawear Flawless Compact Foundation Broad Spectrum SPF 15 Suncreeen 50 Beige; Le Teint Ultra Tenue Ultrawear Flawless Compact Foundation Broad Spectrum SPF 15 Suncreeen 60 Beige; Le Teint Ultra Tenue Ultrawear Flawless Compact Foundation Broad Spectrum SPF 15 Suncreeen 70 Beige; Le Teint Ultra Tenue Ultrawear Flawless Compact Foundation Broad Spectrum SPF 15 Suncreeen 91 Caramel; Lea Black Broad Spectrum SPF 30 Sunscreen; Leader Calamine Plus; Leader Diaper Rash; Leader Diaper Rash Cream; Leader Kids Sunscreen SPF 50; Leader Zinc Oxide; Let It Block SPF-30; LiProtect SPF 35; Liage - Herbal Day Cream Broad Spectrum SPF 30 Sunscreen; Liage - Mineral Rich Tinted Sunscreen Broad Spectrum SPF 30; Liage - Sheer Moisturizer Broad Spectrum SPF 25 Sunscreen; LifeCell Broad Spectrum SPF 30 Mineral; LifeCell bb cream Hydrating Anti-Oxidant Beauty Balm Broad Spectrum SPF 30 light; LifeCell bb cream Hydrating Anti-Oxidant Beauty Balm Broad Spectrum SPF 30 medium; Lifecell BROAD SPECTRUM SPF 30 BB Cream; Lifeguard Sunscreen; LiftIntense Sculpting with Mineral Broad Spectrum SPF 15 Sunscreen; Light Beam Hand Repair Cream Broad Spectrum SPF 18; Light CC creme Broad Spectrum SPF 15 JAFRA; Light Daylight Tinted Radiance Moisturizer Broad Spectrum SPF 32; Light Foundation SPF 15; Light Hearted Broad Spectrum SPF 30 Sunscreen; Light Illusion Luminous Makeup Nude-Skin Feel all day wear broad spectrum spf18 sunscreen Caramel M5; Light Illusion Luminous Makeup Nude-Skin Feel all day wear broad spectrum spf18 sunscreen Classic Tan M3; Light Illusion Luminous Makeup Nude-Skin Feel all day wear broad spectrum spf18 sunscreen Ivory L2; Light Illusion Luminous Makeup Nude-Skin Feel all day wear broad spectrum spf18 sunscreen Mocha D3; Light Illusion Luminous Makeup Nude-Skin Feel all day wear broad spectrum spf18 sunscreen Natural Beige M1; Light Illusion Luminous Makeup Nude-Skin Feel all day wear broad spectrum spf18 sunscreen Nude L3; Light Illusion Luminous Makeup Nude-Skin Feel all day wear broad spectrum spf18 sunscreen Nutmeg D2; Light Illusion Luminous Makeup Nude-Skin Feel all day wear broad spectrum spf18 sunscreen Porcelain L1; Light Illusion Luminous Makeup Nude-Skin Feel all day wear broad spectrum spf18 sunscreen Sable D1; Light Illusion Luminous Makeup Nude-Skin Feel all day wear broad spectrum spf18 sunscreen Soft Sand M2; Light Illusion Luminous Makeup Nude-Skin Feel all day wear broad spectrum spf18 sunscreen Tawny M4; Light Illusion Luminous Makeup Nude-Skin Feel all day wear broad spectrum spf18 sunscreen Warm Beige L4; Light Illusion Luminous Makeup Nude-Skin Feel all-day wear broad spectrum spf18 sunscreen 01; Light Medium Tinted Drops; Light Tint Clear Zinc Solar Protection SPF 30; Lightweight Protection SPF 45; Lightweight Sheer Daily Sunscreen SPF 40; Likewise Facial Moisturizer - Sun Protectant SPF 50 Normal to Dry Skin; Likewise Facial Moisturizer - Sun Protectant SPF 50 Normal to Oily Skin; Likewise Facial Moisturizer - Sun Protectant SPF 50 Oily Skin; Likewise Hand Moisturizer - Sun Protectant SPF 50; Lil Goats Petite Chevre Fragrance free; Lil Goats Petite Chevre Original; Lil Goats Zinc Oxide; Lilikoi Light Defense Face Primer SPF 23; Lilikoi Mineral Defense Moisturizer SPF 33; Lilikoi Mineral Defense Sport Sunscreen SPF 30; Limited Line Edition 2018 MISSHA M Perfect Cover BB No 21; Limited Line Edition 2018 MISSHA M Perfect Cover BB No 23; LincoShield; Lincoln; Linea Jose Ignacio Sunscreen Broad Spectrum SPF 30 with Zinc; Lip Balm; Lip Balm SPF; Lip Balm SPF 20; Lip Lavender Mint SPF30; Lip Orange Vanilla SPF30; Lip Protector Sunscreen SPF15; Lip Protector Sunscreen SPF15 Lip Protector Sunscreen SPF15; Lip Raspberry SPF30; Lip Shield; Lip Shine SPF35 Sunscreen; LipCoTZ Lip Balm/Sunscreen; Liquid Sunshine Mineral Sunscreen Broad Spectrum SPF 30 For Body; Liquid Sunshine Mineral Sunscreen Broad Spectrum SPF 30 For Face; Little Bubs Diaper; Little Ones Maximum Strength; Little Remedies New Baby Essentials; Little Twig Diaper Rash Cream; Live Clean Baby; Live Tinted Hueguard 3-in1 Mineral Sunscreen Moisturizer Primer Broad Spectrum SPF 30; Live Ultimate Facial Sunscreen SPF30 SPF 30; Locana Zinc Oxide Sunscreen Broad Spectrum SPF 40; Logically skin PROFESSIONAL SUN BLOCK SPF50 PA; Long Wear Get Over Bb; Long Wear Makeup Broad Spectrum SPF 20 Bare Jafra; Long Wear Makeup Broad Spectrum SPF 20 Bronze Jafra; Long Wear Makeup Broad Spectrum SPF 20 Cappuccino Jafra; Long Wear Makeup Broad Spectrum SPF 20 Caramel Jafra; Long Wear Makeup Broad Spectrum SPF 20 Earth Jafra; Long Wear Makeup Broad Spectrum SPF 20 Honey Jafra; Long Wear Makeup Broad Spectrum SPF 20 Natural Jafra; Long Wear Makeup Broad Spectrum SPF 20 Nude Jafra; Long Wear Makeup Broad Spectrum SPF 20 Sable Jafra; Long Wear Makeup Broad Spectrum SPF 20 Spice Jafra; Long Wear Makeup Broad Spectrum SPF 20 Tawny Jafra; Lotion Calamine Avec Antihistaminique; LovLuv Daily BB Cream; LovLuv Daily Sunflower Sunscreen; LovLuv M Suit Sun Block; LovLuv Vivacity Bright CC Cream; Love Sun Body SPF 30 Fragrance Free; Love Sun Body SPF 30 Lightly Scented; Love Sun Body SPF 50 Fragrance Free; Love Sun Body SPF 50 Lightly Scented; Love You Baby Sun Cushion; Lovluv Vivacity Bright BB Cream; Lovluv daily BB Cream; Lucky Supersoft Medicated Body Triple Action; Lucky Supersoft Premium; Lumene Valo Nordic-C Brightening Day Fluid Mineral Sunscreen Broad Spectrum SPF 30; Lumin Broad Spectrum Moisturizer with SPF 30 PA High UVA/UVB Protection; Lumin Broad Spectrum Moisturizer with SPF 30 PA High UVA/UVB Protection Sunscreen; Lumin Broad Spectrum Moisturizer with SPF 30 PA UVA/UVB Protection Sunscreen; Lumin UV Defense Moisturizing Balm Broad Spectrum SPF 30; Luminess SPF 30 sunscreen setting powder; Luminess SPF30 Suncreen Setting Powder; Luminizing Moisture Tint Sunscreen Broad Spectrum SPF 20 Blush; Luminizing Moisture Tint Sunscreen Broad Spectrum SPF 20 Bronzed; Luminizing Moisture Tint Sunscreen Broad Spectrum SPF 20 Deep Bronze; Luminizing Moisture Tint Sunscreen Broad Spectrum SPF 20 Glow; Luminizing Moisture Tint Sunscreen Broad Spectrum SPF 20 Golden; Luminizing Moisture Tint Sunscreen Broad Spectrum SPF 20 Opal; Luminizing Moisture Tint Sunscreen Broad Spectrum SPF 20 Pearl; Luminous AuraCapsule CC; Luminous Bright Aura CC; Luminous Goddess Aura Bb; Luminous Goddess Aura Live Melting Foundation; Luminous Live Aura CC; Luminous Pure Aura CC; Lunchboxwax Body spf 30; Lunchboxwax mineral broad spectrum sunscreen face cream SPF30; Lupium Moisture Water Sun Serum; Luxe Art Beaute SAS (69879-108-35) Cover-Expert Sunscreen Broad Spectrum SPF 15 No.8 Intense Beige, 35ml; Luxiva Changing Skin Treatment SPF 15; Luxury Sun Ritual Pore Smoothing SPF 30 Sunscreen; Lycogel Cover and Recovery - Breathable Camouflage - SPF 30 with LYCO Complex; Lycogel Cover and Recovery - Breathable Concealer - SPF 30 with LYCO Complex; Lycoris Rubus brightening BB SPF40 PA Plus Plus; M Suit Cushion; M.A.C. Prep + Prime Cc Colour Correct SPF 30; M.A.C. Studio Waterweight SPF 30 Foundation; M.A.c Lightful C Marine-bright Formula SPF 30 Moisturizer; M.A.c Prep+prime Bb Beauty Balm Compact SPF 30; M.A.c Prep+prime Face Protect SPF 50; M.D. FORTE Aftercare Environmental Protection Sunscreen SPF 30; MARA Algae Zinc Sea Kale Sunscreen Serum SPF 30; MATTE MOISTURE TINT SUNSCREEN BROAD SPECTRUM SPF 15 Linen; MATTE MOISTURE TINT SUNSCREEN BROAD SPECTRUM SPF 15 Nude; MATTE MOISTURE TINT SUNSCREEN BROAD SPECTRUM SPF 15 Porcelain; MATTE PRO DEFENSE Base mate con multiproteccion de la piel FPS 20 Matte foundation with skin multiprotection SPF 20 ALMENDRA 230-N; MATTE PRO DEFENSE Base mate con multiproteccion de la piel FPS 20 Matte foundation with skin multiprotection SPF 20 BEIGE 220-C; MATTE PRO DEFENSE Base mate con multiproteccion de la piel FPS 20 Matte foundation with skin multiprotection SPF 20 CAPUCCINO 310-C; MATTE PRO DEFENSE Base mate con multiproteccion de la piel FPS 20 Matte foundation with skin multiprotection SPF 20 CHAMPAGNE 170-N; MATTE PRO DEFENSE Base mate con multiproteccion de la piel FPS 20 Matte foundation with skin multiprotection SPF 20 LATTE 180-F; MATTE PRO DEFENSE Base mate con multiproteccion de la piel FPS 20 Matte foundation with skin multiprotection SPF 20 MOKACCINO 390-N; MATYS Baby DIAPER RASH RELIEF; MD Glam SPF 50; MD Restoring daily Defense Moisturizer SPF 50; MDSOLARSCIENCES Natural Mineral Sunscreen Kid; MDSOLARSCIENCES SPF 30 Mineral Tinted; MDSOLARSCIENCES SPF 50 Mineral; MDSolarSCIENCES Natural Mineral Sunscreen; MDSolarSciences Natural Mineral Sunscreen; MDSolarSciences Natural Mineral Sunscreen Tinted; MDSolarSciences SPF30 Plus Mineral Screen; MDSolarSciences SPF40 Mineral Screen; MDSolarSciences SPF40 Ultra-Sport; MDSolarSciences SPF50 Plus Ultra Mineral Screen; MEN Face Guard SPF 30; MIAMI BEACH BUM Blocked SPF-30 Sunscreen; MIAMI BEACH BUM Save Face SPF-30 Sunscreen; MINERAL SUNSCREEN SPF 30 for Kids and Babies BOO BAMBOO; MISA Cho Bo Yang BB SPF30 No21; MISA Cho Bo Yang BB SPF30 No23; MISSHA All Around Safe Block Mild Sun SPF30; MISSHA All Around Safe Block Sebum Zero Sun; MISSHA All Around Safe Block Sun Milk For Men SPF50 40ML; MISSHA All Around Safe Block Sun Milk For Men SPF50 70ML; MISSHA All Around Safe Block Toning Sun Tension SPF50; MISSHA All Around Safe Block Waterproof Sun; MISSHA M Perfect Cover BB Cream SPF42 (No. 25); MISSHA M Perfect Cover BB No 13; MISSHA M Perfect Cover BB No 21; MISSHA M Perfect Cover BB No 23; MISSHA M Perfect Cover BB No 27; MISSHA M Perfect Cover BB No 27 (20ml); MISSHA M Perfect Cover BB No 31; MISSHA M Perfect Cover BB SPF42 No21; MISSHA M Perfect Cover BB SPF42 No23; MISSHA M Perfect Cover BB SPF42 No29; MISSHA M SIGNATURE REAL COMPLETE BB Honey Beige; MISSHA M Signature Real Complete BB Cream SPF25 No.13 Bright Milky Beige; MISSHA M Signature Real Complete BB Cream SPF25 No.21 Light Pink Beige; MISSHA M Signature Real Complete BB Cream SPF25 No.23 Natural Yellow Beige; MISSHA Pore-fection BB Cream SPF30 No.1 Light Beige; MISSHA Pore-fection BB Cream SPF30 No.2 Natural Beige; MISSHA Signature Volume Brightening Concealer SPF30 No21; MISSHA Signature Volume Brightening Concealer SPF30 No23; MISSHA Skin Fit Stick Foundation SPF50 No.21; MISSHA Skin Fit Stick Foundation SPF50 No.23; MISSHA The Original Tension Pact Intense Moisture SPF37 No13; MISSHA The Original Tension Pact Intense Moisture SPF37 No21; MISSHA The Original Tension Pact Intense Moisture SPF37 No23; MISSHA The Original Tension Pact Perfect Cover SPF37 No 13; MISSHA The Original Tension Pact Perfect Cover SPF37 No 21; MISSHA The Original Tension Pact Perfect Cover SPF37 No 23; MISSHA The Original Tension Pact Tone Up Glow SPF30 No 13; MISSHA The Original Tension Pact Tone Up Glow SPF30 No 21; MISSHA The Original Tension Pact Tone Up Glow SPF30 No 23; MISSHA The Style Fitting Wear Foundation SPF30 No21; MISSHA The Style Fitting Wear Foundation SPF30 No23; MMM Diaper Rash Cream; MOOR SPA SPF30 Sunscreen; MOOR SPA SPF30 face cream; MR Daily Defense Broad Spectrum Sunscreen SPF 55; MUSTELA Diaper Rash 1 2 3; Ma Ying Long Musk Hemorrhoids; Mac Lightful C Marine Bright Formula Bs SPF 30 Moisturizer; Mac Skin Essentials SPF 40 Foundation; Mac Studio Moisture Fix SPF 15; Mac Studio Waterweight SPF 30 Broad Spectrum Foundation Sunscreen; Macuvex; Macuzin; Magic Foundation Flawless Long-Lasting Coverage Sunscreen Broad Spectrum SPF 15; Magis Lene Brilliant Gold CC Cream XQ; Magis Lene Collagen Choc Extra Gold BB Cream; Magnesium and Zinc; Makesense; Makeup Sun Primer; Malie Organics Reef Safe Sunscreen SPF-30; Malie Organics Reef Safe Sunscreen SPF-50; Mamonde Brightening Cover Watery Cushion No. 11; Mamonde Brightening Cover Watery Cushion No. 21; Mamonde Brightening Cover Watery Cushion No. 23; Mamonde Brightening Cover Watery Cushion No. 33; Mamonde Brightening Cover Watery Cushion No. 35; Mamonde Brightening Cover Watery Cushion No. 37; Mamonde Brightening Pact 10hr N21; Mamonde Brightening Pact 10hr N23; Mamonde Pact Blooming 21; Mamonde Pact Blooming 23; Mamonde Total Moisture BB 01; Mamonde Total Moisture BB 02; Manzatin Diaper Rash Skin Protectant; Manzatin-E Diaper Rash Skin Protectant; Marcelle Moisture Cream Eye SPF 15 / CRème Hydratante Pour Les Yeux Fps 15; Marcelle Protective Block SPF 25 Cream; Marcelle Protective Block SPF 25 Lotion; Mary Kay Lip Protector Sunscreen SPF 15; Mary Kay TimeWise Day Solution Sunscreen SPF 25; Mary Kay Timewise Sunscreen SPF 15; Mary Kay Tinted Lip Balm Sunscreen SPF 15; Mary Kay Tinted Lip Balm Sunscreen SPF 15 Apricot; Mary Kay Tinted Lip Balm Sunscreen SPF 15 Berry; Mary Kay Tinted Lip Balm Sunscreen SPF 15 Blush; Mary Kay Tinted Lip Balm Sunscreen SPF 15 Cherry; Mary Kay Tinted Lip Balm Sunscreen SPF 15 Fig; Mary Kay Tinted Lip Balm Sunscreen SPF 15 Mango; Mary Kay Tinted Lip Balm Sunscreen SPF 15 Natural; Mary Kay Tinted Lip Balm Sunscreen SPF 15 Peach; Mary Kay Tinted Lip Balm Sunscreen SPF 15 Peony; Mary Kay Tinted Lip Balm Sunscreen SPF 15 Poppy; Mary Kay Tinted Lip Balm Sunscreen SPF 15 Rose; Mary Kay Tinted Moisturizer Sunscreen SPF 20 Beige 1; Mary Kay Tinted Moisturizer Sunscreen SPF 20 Beige 1 (Drug Facts); Mary Kay Tinted Moisturizer Sunscreen SPF 20 Beige 2; Mary Kay Tinted Moisturizer Sunscreen SPF 20 Beige 2 (Drug Facts); Mary Kay Tinted Moisturizer Sunscreen SPF 20 Bronze 1; Mary Kay Tinted Moisturizer Sunscreen SPF 20 Bronze 1 (Drug Facts); Mary Kay Tinted Moisturizer Sunscreen SPF 20 Bronze 2; Mary Kay Tinted Moisturizer Sunscreen SPF 20 Bronze 2 (Drug Facts); Mary Kay Tinted Moisturizer Sunscreen SPF 20 Ivory 1; Mary Kay Tinted Moisturizer Sunscreen SPF 20 Ivory 1 (Drug Facts); Mary Kay Tinted Moisturizer Sunscreen SPF 20 Ivory 2; Mary Kay Tinted Moisturizer Sunscreen SPF 20 Ivory 2 (Drug Facts); Mary Kay Tinted Moisturizer With Sunscreen SPF 20; Materna; Materna - Tab; Materna-tab; Matte Face Unscented; Matte Moisture Tint Sunscreen Broad Spectrum SPF 15 Beige Rose; Matte Moisture Tint Sunscreen Broad Spectrum SPF 15 Chamomile; Matte Moisture Tint Sunscreen Broad Spectrum SPF 15 Hazel; Mattifying Duo; Mattifying Perfector SPF 20 Sunscreen; Mattifying Primer SPF 20; Maui Island Secret Browning Creme Broad Spectrum SPF 5 Sunscreen; Maui Naturals All Natural Sunscreen; Maui Surfer Honey Natural Sunscreen; Maui Vera Reef Friendly Mineral Sunscreen; Max Hyaluronic Stemcell Bb; Maximum Strength Diaper Rash; Maximum Strength Original Diaper Rash; May New York Secret Muse Himiznohana Cover Pact No 21; May New York Secret Muse UV Vita Sun Cushion; May Newyork Super Sun; May Newyork Super Sun 10g; Maya Solar Natural Sunscreen 15 SPF; Maya Solar Natural Sunscreen 30 SPF; Maya Solar Natural Sunscreen 45 SPF; Mayinglong Bezornil Hemorrhoidal; Mayinglong Hemorrhoidal; Mayinglong Hemorrhoids; McKesson Skin Protectant; McKesson Unna Boot 3; McKesson Unna Boot 4; McKesson Unna Boot with Calamine 3; McKesson Unna Boot with Calamine 4; Md Formulations Total Protector 15; Md Formulations Total Protector 30; Meaningful Beauty Cindy Crawford Maintenance 1plus Daily Moisture SPF 20 UVA/UVB; Mecca Ointment; MedPak Derma Guard; MedPride EN SHIELD ALOE SOFT VITAMIN ENRICHED; MedPride Medicated Body Powder Powder; Medcosa Adult Care; Medcosa Daily Defense Diaper Rash; Medcosa Daily Defense Skin Protectant; Medi Megaton 2080; Medi-pak; MediSpa Sunblock SPF47; MediSpa Sunblock sunblock; Medicated; Medicated Body; Medicated Body Powder; Medicated Cornstarch Baby Powder; Medicated Cream; Medik8 Physical Sunscreen SPF 50; Medium Beige Foundation SPF 15; Medium Dark Foundation SPF 15; Medium Deep Foundation SPF 15; Medium Tan Foundation SPF 15; MediumCC creme Broad Spectrum SPF 15 JAFRA; Medline; Medline Remedy Essentials Protectant Paste; Medline Remedy Phytoplex Calazime; Medpride; Medpride EN SHIELD ALOE SOFT VITAMIN ENRICHED; Medpride En Shield; Medpura Zinc Oxide 20%; Megacushion Foundation SPF 15; Megavite Rx; Meijer AM Facial Moisturizing Broad Spectrum SPF 30 Sunscreen; Meijer Baby Quick Relief Diaper Rash; Meijer Baby Tear Free SPF 50; Meijer Clear Zinc SPF 50; Meijer Elements Maximum Strength For Diaper Rash; Meijer Kids Broad Spectrum SPF 50 Mineral Based Sunscreen; Meijer Kids Tear Free SPF 50; Meijer Zinc SPF 50; Melvita PROSUN High protection sunscreen Broad Spectrum SPF 30; Melvita PROSUN High protection sunscreen Broad Spectrum SPF 50; Melvita PROSUN SPF 15 Sun; Melvita PROSUN SPF 30 Sun; Members Mark Diaper Rash; Menaji Power Hydrator Plus Sunscreen Broad Spectrum SPF 30 Plus Tinted Moisturize Medium; Mens Care Project - Daily SPF 25; Menthol and Zinc Oxide; Meow Meow Tweet Everyday Sunscreen SPF 25; Method Men Face with Zinc Oxide Sunscreen; Mezinc; Miami Beach Body SPF-30 Sunscreen; Miami Beach Body White Gold SPF 50; Miami Beach White Gold SPF-30 Sunscreen; Micro Day Rejuvenating Broad-spectrum Sunscreen SPF 30; Micro Day Rejuvenating Cream; Micro Day Riche; Mild Care Suncream; Milky Mineral Sun Serum; Mimi Luzon - Face Defence Age Defying Cream Broad Spectrum SPF 30 Sunscreen; Mimi Luzon - Face Defence Broad Spectrum SPF 30 Sunscreen Serum; Mimi Luzon - Face Defence Broad Spectrum SPF 30 Sunscreen Serum (Tinted); Mineral Baby SPF 50 Broad Spectrum; Mineral Baby Unscented SPF 50 Broad Spectrum; Mineral Based SPF 50 Sunscreen; Mineral Beauty Balm Broad Spectrum SPF 50 Sunscreen UVA-UVB Suncreen Light/Medium; Mineral Beauty Balm Broad Spectrum SPF 50 Sunscreen UVA-UVB Suncreen Medium/Dark; Mineral Broad Spectrum SPF 50 Sunscreen UVA-UVB Suncreen; Mineral Concealer SPF 20; Mineral Corrector Palette SPF 20 Sunscreen; Mineral Creme Broad Spectrum SPF 30 Sunscreen UVA-UVB Suncreen; Mineral Creme Broad Spectrum SPF 48 Sunscreen UVA-UVB Suncreen; Mineral Defense Sport Antioxidant Face Sunscreen SPF-50; Mineral Defense Sport Ceramide SPF-30; Mineral Face Matte Cucumber SPF 30 Broad Spectrum; Mineral Face Matte Tint Unscented SPF 30 Broad Spectrum; Mineral Foundation SPF 15; Mineral Foundation SPF 30-3W; Mineral Foundation SPF 30-5W; Mineral Lip Balm SPF-15; Mineral Lip Bonfire SPF 30 Broad Spectrum; Mineral Lip Firecracker SPF 30 Broad Spectrum; Mineral Lip Nude Beach SPF 30 Broad Spectrum; Mineral Lip Skinny Dip SPF 30 Broad Spectrum; Mineral Lip Summer Crush SPF 30 Broad Spectrum; Mineral Lip Tan Line SPF 30 Broad Spectrum; Mineral Mattescreen Broad Spectrum SPF 40; Mineral Mattescreen SPF 40; Mineral Mist SPF-50; Mineral Moisture Defense Broad Spectrum SPF 50 Sunscreen UVA-UVB Suncreen; Mineral Oil, Pramoxine Hydrochloride and Zinc Oxide; Mineral Prismatic Luminizing Shield SPF 35; Mineral SPF 15 Broad Spectrum Lip Balm; Mineral SPF 30; Mineral SPF 30 Brush-On Sun Defense; Mineral SPF 30 Non-Tint Face; Mineral SPF 30 Sun; Mineral SPF 30 Whipped Sunscreen; Mineral SPF 40 Moisturizer; Mineral Sheer Screen Broad Spectrum Sunscreen SPF 30; Mineral Sport Citrus Mimosa SPF 30 Broad Spectrum; Mineral Sport Golden Tint SPF 50 Broad Spectrum; Mineral Sport Stick Untinted SPF 50 Broad Spectrum; Mineral Sunscreen; Mineral Sunscreen - Water Resistant SPF-50; Mineral Sunscreen Broad Spectrum SPF 30; Mineral Sunscreen Broad Spectrum SPF 40 Sunscreen UVA-UVB Sunscreen; Mineral Sunscreen Broad Spectrum SPF 45; Mineral Sunscreen Lip Balm SPF 15; Mineral Sunscreen Lip Gloss - Beach Bonfire; Mineral Sunscreen Lip Gloss - Candy Skies; Mineral Sunscreen Lip Gloss - Creamsicle; Mineral Sunscreen Lip Gloss - Pink Paradise; Mineral Sunscreen Lip Gloss - Sangria Kiss; Mineral Sunscreen Lip Gloss - Skinny Dip; Mineral Sunscreen Lip Gloss - Summer Fling; Mineral Sunscreen Lip Gloss - Tahiti Breeze; Mineral Sunscreen Lip Gloss - Tropical Punch; Mineral Sunscreen Lip Gloss - Wet Sand; Mineral Sunscreen Moisturizer Broad Spectrum SPF 20; Mineral Sunscreen SPF 20; Mineral Sunscreen SPF 30; Mineral Sunscreen SPF 30 Boo Bamboo; Mineral Sunscreen SPF 50; Mineral Sunscreen SPF-50; Mineral Sunscreen Stick SPF 50 Supergoop; Mineral Suscreen SPF 30; Mineral Tinted Face Sunscreen SPF 30 - Light/ Medium; Mineral Tinted Face Sunscreen SPF 30 - Medium/ Dark; Mineral Tinted Sunscreen Broad Spectrum SPF 30 Sunscreen UVA-UVB Suncreen; Mineral UV Shield SPF30; Mineral Wear; Mineral Wear Airbrushing Pressed Powder; Mineral Wear All-in-1 ABC Cushion Foundation; Mineral Wear Face Powder; Mineral Wear Loose Powder; Mineral Wear Loose Powder SPF16; Mineral Wear Oh So Radiant Powder SPF 20; Mineral Wear Talc Free Airbrushing Pressed Powder SPF 30; Mineral Wear Talc Free Cushion Corrector Primer Duo SPF 20; Mineral Wear Talc Free Mineral Airbrushing Bronzer SPF 30; Mineral Wear Talc Free Mineral Face Powder SPF 16; Mineral Wear Talc-Free Airbrushing Loose Powder SPF 30; Mineral Wear Talc-Free Correcting Primer SPF 15; Mineral Wear Talc-Free Illuminating Powder Duo SPF 16; Mineral Wear Talc-Free Mineral Face Powder SPF 16; Mineral Wear Talc-Free Mineral Loose Powder SPF 16; Mineral Wear Talc-free Mineral Airbrushing Blush SPF 30; Mineralizing Cr eamy Concealer 0.5 Snow; Mineralizing Cr eamy Concealer 01 Vanilla; Mineralizing Cr eamy Concealer 02 Ginger; Mineralizing Cr eamy Concealer 1.25 Cr eamlatte; Mineralizing Cr eamy Concealer 1.5 Cappuccino; Mineralizing Cr eamy Concealer 1.75 Macadamia; Mineralizing Serum Concealer 01 Clear Beige; Mineralizing Serum Concealer 02 Rich Beige; Mineralizing Serum Concealer 1.5 Natural Beige; Minus-Sol Facial Sun Protection Sunscreen Broad Spectrum SPF 30 Plus Ivory; Minus-Sol Facial Sun Protection Sunscreen Broad Spectrum SPF 30 Plus White; Miracle Matt BB Cream; Miracle Skin Transformer Face Broad Spectrum SPF 20 Sunscreen; Miractil; Misa Cho Bo Yang Bb Spf30 Pa Plus Plus No.1 Natural Beige; Missha All Around Safe Block Soft Finish Sun Milk 40ml; Missha All Around Safe Block Soft Finish Sun Milk 70ml; Missha All Around Safe Block Soft Finish Sun Milk Broad Spectrum SPF 50 Plus; Missha All Around Safe Block Waterproof Sun Milk Spf50 40ml; Missha All Around Safe Block Waterproof Sun Milk Spf50 70ml; Missha Closing Cover Concealer Spf30 No21; Missha Closing Cover Concealer Spf30 No23; Missha Glam Silky Body Balm SPF 27; Missha M Perfect Cover Bb Light; Missha M Perfect Cover Bb Medium; Missha M Perfect Cover Bb Spf42; Missha M Perfect Cover Bb Tan; Missha M Prism Bright On Auto No.2 Spf35 Pa Plus Plus Plus; Missha M Radiance Two Way Pact Spf27 No21; Missha M Radiance Two Way Pact Spf27 No23; Missha M Signature Real Complete Bb No27; Missha M Signature Real Complete Bb Spf25 Pa Plus Plus; Missha M Swirl Bb Sun Balm Spf50 Plus Pa Plus Plus Plus No.21; Missha Signature Aura Tension Deep Moisture No 21; Missha Signature Aura Tension Deep Moisture No 23; Missha Signature Complexion Coordinating Bb Beige Broad Spectrum Spf43; Missha Signature Complexion Coordinating Bb Honey Beige; Missha Signature Complexion Coordinating Bb White Broad Spectrum Spf43; Missha Signature Dramatic Whitening Pact No.2 Spf50 Plus Pa Plus Plus Plus; Missha Signature Wrinkle Fill Up Bb No 21; Missha Signature Wrinkle Fill Up Bb No 23; Missha Signature Wrinkle Filler Bb Spf37 Pa Plus Plus No.23; Missha Time Revolution White Cure Blanc Sun Protector Nw Broad Spectrum Spf50 Plus; Missha Time Revolution White Cure Uv Sun Protector Spf50 Plus Pa Plus Plus Plus; Miunori Natural Baby Sunscreen; Mizon Snail Repair Blemish Balm Rose Beige; Mizon Snail Repair Intensive Bb 21; Mizon Snail Repair Intensive Bb 23; Mizon Snail Repair Intensive Bb 27; Mizon Snail Repair Intensive Bb 31; Mizon Uv Sun Protector; Moist Essential Pact 21 Light Beige; Moist Essential Pact 23 Natural Beige; Moist Moisture Bb; Moist Pact No.21 Bright Beige; Moist Pact No.23 Natural Beige; Moisture Restore Day Oil Free Protective Lotion SPF 15 (combination To Oily Skin); Moisture Restore Day Protective Lotion SPF 15 Normal To Dry Skin; Moisture Sunscreen SPF 50; Moisture Surge Cc Broad Spectrum SPF 30 Hydrating Colour Corrector; Moisture Surge Sheertint Hydrator Broad Spectrum SPF 25; Moisture Surge Sheertint Hydrator SPF 25; Moisturising Daily Defense SPF 30 asap Skin Products; Moisturising Sunscreen SPF 30; Moisturizer; Moisturizer SPF 15; Moisturizer SPF15; Moisturizing Face Screen Light Tint SPF 30; Moisturizing Face Screen Medium Tint SPF 30; Moisturizing Face Screen SPF 30; Moisturizing Sunscreen SPF 15; Moms Choice Rx; Monat Sun Veil Sunscreen Broad Spectrum SPF 30; Mongdies excellent sun; Mongdies excellent sun cushion; MooGoo Natural Sunscreen SPF 30; Moonflash Cushion; Moore Brand Unna Boot; More Than Moisture SPF 30; Mother SPF - Daily Face and Body Spf30 Broad Spectrum; Motives Liquid Powder Mineral Foundation SPF 15; Mt Everest Skreen; Multi Vitamin and Mineral vitamin; Multi-Nate 30; Multinate DHA; Multinate DHA Extra; Multitam; Murad - Environmental Shield - City Skin Age Defense Broad Spectrum SPF-50; Murad Correct and Protect Serum; Mustela 50 Sunscreen; Mustela Broad spectrum SPF 50 plus mineral sunscreen; Mustela Diaper Rash Sprayable; Mustela High protection SPF 50; Mustela Mineral Sunscreen Broad Spectrum SPF 30; Mustela Mineral Sunscreen Broad Spectrum SPF 50; Mustela Mineral Sunscreen SPF 50; Mustela SPF 50; Mustela Stelactiv; Mustela Vitamin Barrier; Mustela for sensitive areas SPF 50; My Day Screen Medium Dark Tinted Drops SPF 30; My Fair Baby Diaper Rash; My Sunny Powde Ry Finish Sun Milk; MyChelle Dermaceuticals Daily Defense SPF 17 Broad Spectrum; MyChelle Dermaceuticals Replenishing Solar Defense Body SPF 50 Broad Spectrum; MyChelle Dermaceuticals Replenishing Solar Defense Body SPF 50 Protect; MyChelle Dermaceuticals Replenishing Solar Defense SPF 30 Broad Spectrum; MyChelle Dermaceuticals Replenishing Solar Defense SPF 30 Protect; MyChelle Dermaceuticals Sun Shield Clear SPF 30 Broad Spectrum; MyChelle Dermaceuticals Sun Shield Clear SPF 30 Protect; MyChelle Dermaceuticals Sun Shield Coconut SPF 28 Broad Spectrum; MyChelle Dermaceuticals Sun Shield Natural Tan SPF 50 Broad Spectrum; MyChelle Dermaceuticals Sun Shield Non-Tinted SPF 50 Broad Spectrum; MyChelle Dermaceuticals Sun Shield Nude SPF 50 Broad Spectrum; MyChelle Dermaceuticals Sun Shield SPF 28 Coconut Protect; MyChelle Dermaceuticals Sun Shield SPF 28 Unscented Protect; MyChelle Dermaceuticals Sun Shield SPF 30 Light Protect; MyChelle Dermaceuticals Sun Shield SPF 30 Light/Medium Protect; MyChelle Dermaceuticals Sun Shield SPF 30 Medium/Dark Protect; MyChelle Dermaceuticals Sun Shield SPF 50 Dark Protect; MyChelle Dermaceuticals Sun Shield SPF 50 Light Protect; MyChelle Dermaceuticals Sun Shield SPF 50 Light/Medium Protect; MyChelle Dermaceuticals Sun Shield SPF 50 Medium/Dark Protect; MyChelle Dermaceuticals Sun Shield SPF 50 Non-Tinted Protect; MyChelle Dermaceuticals Sun Shield SPF 50 Tinted Protect; MyChelle Dermaceuticals Sun Shield Tinted SPF 50 Broad Spectrum; MyChelle Dermaceuticals Sun Shield Unscented SPF 28 Broad Spectrum; MyChelle Sun Shield Liquid SPF 50 Light/Medium; MyChelle Sun Shield Liquid SPF 50 Medium/Dark; Myeonghan Miindo Hwansaenggo Gold Essence Bb SPF 35 30100317; Myung Han Mi In Do Recovery Bb Spf25 Pa; Myung Han Mi In Do Two Way Cake Spf35 Pa Nb21; Myung Han Mi In Do Two Way Cake Spf35 Pa Nb23; NATURAL MOISTURIZING FACE SUNSCREEN and PRIMER; NATURAL SUN ECO Calming Sensitive Sunscreen Cream SPF 40; NATURAL SUN ECO Oil Clear Sunscreen Cream 50 SPF; NATURAL SUN ECO Power Long-lasting Sunscreen Cream SPF50; NBCeutical; NELLY DEVUYST BIOSOLAR COLORLIFT 1 TINTED SUNSCREEN 30 mL SPF30; NELLY DEVUYST BIOSOLAR COLORLIFT 2 TINTED SUNSCREEN 30 mL SPF30; NEOGEN DERMALOGY Day-Light Protection Sun Screen SPF50; NEONATAL Complete; NESTABS DHA Prenatal Multi-vitamin/Mineral Supplement with DHA/EPA; NESTABS Prenatal Multi-vitamin/Mineral Supplement; NF Skin SPF 30 Broad Spectrum Moisturizer; NOTS Once Finishing; NP set BB Broad Spectrum SPF 20; NU-DERM System NORMAL-Oily SKIN TRANSFORMATION; NU-DERM system NORMAL-DRY SKIN TRANSFORMATION TRIAL; NU-DERM system NORMAL-oily SKIN TRANSFORMATION TRIAL; NUDIST LIP BUTTER afterglow; NUDIST LIP BUTTER natural; NUDIST LIP BUTTER nude; NUDIST LIP BUTTER wine; NYDG Discovery Set; NYDG Travel Essentials; Naked One and Done Cream Light; Naked Skin One and Done Dark; Naked Skin One and Done Deep; Naked Skin One and Done, Medium; Naked Skin One and Done, Medium Dark; Naked Skin One and Done, Medium Light; Namo bacteriostatic deodorant; Naples Company - Sunscreen Broad Spectrum SPF 25 Lightweight Face; Naples Company - Sunscreen Broad Spectrum SPF 30 Tinted Mineral Face; Napoleon Perdis Auto Pilot BBB Beauty Boosting Balm Broad Spectrum SPF 30 LIGHT-MEDIUM; Napoleon Perdis Auto Pilot BBB Beauty Boosting Balm Broad Spectrum SPF 30 MEDIUM-DARK; Nars Face Glow - Polynesia; Nars Face Glow - Seychelles; Nars Gel Fraicheur - Alaska; Nars Gel Fraicheur - Antilles; Nars Gel Fraicheur - Monte Carlo; Nars Gel Fraicheur - ST-moritz; Naruko Taiwan Magnolia Firming Smooth Finish Cream Makeup; Natal-V RX Multi-vitamin/Multi-mineral; Natalvirt 90dha; Natalvirt Ca; Native Facial Care Brightening Facial Moisturizer Broad Spectrum SPF 30; Native Mineral Face Broad Spectrum SPF 30 Coconut and Pineapple; Native Mineral Face Broad Spectrum SPF 30 Unscented; Native Mineral Sunscreen Broad Spectrum SPF 30 Coconut and Pineapple; Native Mineral Sunscreen Broad Spectrum SPF 30 Rose; Native Mineral Sunscreen Broad Spectrum SPF 30 Unscented; Natria Brightening SPF 15; Natria Nourishing Daily Defense; Natria-balancing Daily Defense Lotion Spf15; Natria-nourishing Daily Defense Lotion SPF 15; Natural Blend SPF 30 Sunscreen; Natural Defense Concealer SPF; Natural Defense Finishing Powder; Natural Defense Foundation SPF; Natural Defense Multicolor Stick; Natural Diaper Rash; Natural Finish Pressed Foundation SPF 20 Sunscreen; Natural Hydrating Shield SPF 30; Natural Mineral Body Sunscreen; Natural Mineral Body Sunscreen Unscented; Natural Mineral Formula; Natural Mineral Sunscreen Sport, SPF 30 (Unscented); Natural Protection Face and Eyes SPF 30; Natural SPF 28; Natural SPF 28 Soy Free; Natural SPF 50; Natural SUN SPF 26 Unscented; Natural SUN SPF 30 Active Lifestyles; Natural SUN SPF 30 Green Tea; Natural SUN SPF 30 Unscented; Natural SUN Saving Face SPF 15; Natural Sun AQ Power Long Lasting Sun Spf45 Pa; Natural Sun Eco Oil Clear Sun Cream Spf50+ Pa+++; Natural Sun Eco Photogenic Sun Blur Spf50+ Pa+++; Natural Sun Eco Sun Cream SPF 50+ Pa+++; Natural Sunscreen; Natural Sunscreen Broad Spectrum SPF 30 Baby Bum; Natural Sunscreen SPF 40; Natural Sunscreen for Kids/baby SPF 40; Natural for Family SPF 30; Naturals by Safety 1st; Nature Origin Aqua Marble Foundation 01 Light Beige; Nature Origin Aqua Marble Foundation 02 Natural Beige; Nature Origin Collagen Bb 01 Light Beige; Nature Origin Collagen Bb 02 Natural Beige; Nature Origin Collagen Bb Cre Am 10 Dark Beige; Nature Origin Collagen Bb Original; Nature Origin Cover Two Way Pact 01 Light Beige; Nature Origin Cover Two Way Pact 02 Natural Beige; Nature's Gate Aquablock Lotion Spf30; Natureplex Diaper Rash; Natures Gate Aqua Block SPF 50 Sunscreen; Natures Gate Aqua SPF 50; Natures Gate Face Block SPF 25 Fragrance-Free; Natures Gate Face Broad Spectrum Sunscreen SPF 25; Natures Gate Face SPF 25; Natures Gate Kids SPF 20 Mineral; Natures Gate Kids SPF 50; Natures Gate Mineral Kids Block SPF 20; Natures Gate Mineral Sportblock SPF 20 Sunscreen; Natures Gate Sport Block SPF 50; Natures Gate Sport SPF 20 Mineral; Natures Gate Sport SPF 50; Natures Gate aqua block SPF 50; Natures Gate kids SPF 50; Natures Gate kids block SPF 50; Naturopathica; Naturopathica Calendula and Butterfly Ginger SPF 40; Near Skin Dustless Defense Sunblock; Nelly Devuyst Mineral SPF 30 Sunscreen; Nelly Devuyst Organic Sunscreen Natural Protection Broad Spectrum Spf30; Nelly Devuyst Organic Transparent Mineral Sunscreen Spf30; Nena Natural Oceanic Clay Skin Brightening Daily Moisturizing Cream, SPF 30; Neo Classic Homme Leports Sun Cream SPF 50+ Pa+++; Neo Classic Homme Sports 31700111; NeoStrata Sheer Physical Protection SPF 50; NeoStrata Sheer Physical Protection Sunscreen Broad Spectrum SPF 50; Neogen Dermalogy Day Light Protection Sun Screen Spf50; Neonatal DHA; Neonatal Plus Vitamin; Neonatal Vitamin; Neostrata Oil Free Anti Aging Sunscreen Lotion; Neova DNA Damage Control - Active Broad Spectrum SPF 43; Neova DNA Damage Control - Active SPF 45; Neova DNA Damage Control - Everyday Broad Spectrum SPF 44; Neova DNA Damage Control - Everyday SPF 43; Neova DNA Damage Control - Silc Sheer Broad Spectrum SPF 40; Neova Day Therapy SPF 20; Neova Smartsunscreen - Active; Neova Smartsunscreen - Everyday; Neova Smartsunscreen - Silc Sheer 2.0; NephPlex Rx; Nestabs ONE; Neutrogena Complete Acne Therapy Solution; Neutrogena Complete Acne Therapy System; Neutrogena Day Lotion SPF 15; Neutrogena HEALTHY DEFENSE daily moisturizer with sunscreen Broad Spectrum SPF 50; Neutrogena Healthy Defense Daily Moisturizer SPF 30; Neutrogena Healthy Defense Daily Moisturizer Sunscreen SPF30 Light Tint; Neutrogena Healthy Defense SPF30; Neutrogena Healthy Defense SPF50; Neutrogena MINERAL UV TINT FACE DEEP SPF 30; Neutrogena MINERAL UV TINT FACE LIGHT SPF 30; Neutrogena MINERAL UV TINT FACE MEDIUM DEEP SPF 30; Neutrogena MINERAL UV TINT FACE MEDIUM SPF 30; Neutrogena Mineral Beach Defense Active Performance Sunscreen Broad Spectrum SPF 30; Neutrogena Mineral Beach Defense On-The-Go Body SPF 50; Neutrogena Mineral Ultra Sheer Dry Touch SPF 30; Neutrogena Mineral Ultra Sheer Dry-Touch Face and Body Sunscreen Broad Spectrum UVA-UVB SPF 50; Neutrogena Pure And Free Sunscreen Broad Spectrum SPF 50; Neutrogena Pure and Free; Neutrogena Pure and Free Baby Faces Ultra Gentle Sunblock SPF 50plus; Neutrogena Pure and Free Baby Faces Ultra Gentle Sunscreen Broad Spectrum SPF45 Plus; Neutrogena Pure and Free Baby Sunscreen Broad Spectrum SPF60 Plus; Neutrogena Pure and Free Sunscreen Broad Spectrum SPF50; Neutrogena Pure and free Baby Sunblock SPF 60plus Purescreen; Neutrogena Sensitive Skin Face Mineral Sunscreen Broad Spectrum SPF 50; Neutrogena Sensitive Skin Mineral Sunscreen Broad Spectrum SPF 60 plus; Neutrogena Sensitive Skin Sunblock SPF60 Plus; Neutrogena Sensitive Skin Sunscreen Broad Spectrum SPF60 Plus; Neutrogena Sheer Zinc DRY-TOUCH Sunscreen Broad Spectrum SPF30; Neutrogena Sheer Zinc DRY-TOUCH Sunscreen Broad Spectrum SPF50; Neutrogena Sheer Zinc Face Mineral Sunscreen Broad Spectrum SPF 50; Neutrogena Sheer Zinc Kids Mineral Sunscreen Broad Spectrum SPF 50 Plus; Neutrogena Sheer Zinc Mineral Sunscreen Broad Spectrum SPF 30; Neutrogena Sheer Zinc Mineral Sunscreen Broad Spectrum SPF 50; Neutrogena Sheer Zinc Mineral Sunscreen Broad Spectrum SPF 50 Plus; Neutrogena Visibly Firm Face Lotion SPF 20; Neutrogena naturals Brightening Daily Moisturizer Broad Spectrum SPF 25; Neutrogena pure and free baby SUNSCREEN Broad Spectrum SPF 50; Neutrogena sensitive skin face Liquid Sunscreen Broad Spectrum SPF50; NewGel Plus SPF; NewGel UV Plus SPF30; Neways True Touch Protect AM SPF 15; Nia24 Sun Damage Defense Broad Spectrum 100 Percent Mineral Sunscreen SPF 30; Niaacinamide Azelaic AC TURMER FA B6 Zinc Ox Copper; NicAzel Doxy Kit; NicAzelFORTE; Nicaprin; Nicole Miller Day Cover Creme To Powder Foundation; Nicole Miller Day Cover Perfecting Foundation; Nicole Miller Timeless Age-defying Hand Creme; Nicomide; Nicotinamide Zcf; Niva-Plus; Nivagen Zinc Oxide; No Concealer Concealer; No Concealer Concealer No.2 Light to Medium; No Foundation Foundation Fair; No Foundation Foundation No.1 Fair to Light; No Foundation Foundation No.2 Light to Medium; No Foundation SPF 30; No Makeup Bronzer SPF15; No Makeup Concealer (Deep) SPF 20; No Makeup Concealer (Fair) SPF 20; No Makeup Concealer (Light) SPF 20; No Makeup Concealer (Medium) SPF 20; No Makeup Concealer (Tan) SPF 20; No Makeup Concealer Fair Broad Spectrum SPF 35; No Makeup Concealer Medium Broad Spectrum SPF 35; No Makeup Foundation (Buff) SPF20; No Makeup Foundation (Golden) SPF20; No Makeup Foundation (Nude) SPF20; No Makeup Foundation (Porcelain) SPF20; No Makeup Foundation (Rich) SPF20; No Makeup Foundation (Tan) SPF20; No Makeup Foundation Fair Broad Spectrum SPF 30; No Makeup Foundation Fair-Light Broad Spectrum SPF 30; No Makeup Foundation Light Broad Spectrum SPF 30; No Makeup Foundation Light-Medium Broad Spectrum SPF 30; No Makeup Foundation Tan Broad Spectrum SPF 30; No Makeup Lipstick (Berry) SPF15; No Makeup Lipstick (Cognac) SPF15; No Makeup Lipstick (Original Pink) SPF15; No Makeup Lipstick (Red) SPF15; No Makeup Lipstick (Rose) SPF15; No Makeup Lipstick (Wine) SPF15; No Sun Face SPF 50; No-AD SPF 45 Babies Sun Protection; NoTS UV PROTECTION SUN; Noevir N5; Noevir Raysela; Noevir Raysela UV Shield Primer; Non-nano Sunscreen SPF 40; Nourish Your Skin Micronized Zinc Oxide SPF 30 Organic Sunscreen; Novana Protect Barrier; Noxzema Skin Fitness Skin Endurance With Uv Protectant; Nu Skin 180 Degree UV Block Hydrator SPF 18; Nu Skin 180 Degree UV Defense Hydrator SPF 18; Nu Skin Sunright 35 Broad Spectrum SPF 35; Nu Skin ageLOC Me Day S2 Broad Spectrum SPF 20; Nu Skin ageLOC Me Day T2 Broad Spectrum SPF 20; Nu-derm Fx Normal Dry / Normale Sèche; Nu-derm Fx Normal Oily/ Normale Grasse; Nu-derm Healthy Skin Protection SPF 35; Nu-derm Normal Dry/ Normale Sèche; Nu-derm Normal Oily / Normale Grasse; Nu-derm Physical Uv Block SPF 32; Nu-derm Physical Uv Broad Spectrum SPF 32; Nu-derm Starter Set Normal-dry Skin Transformation System; Nu-derm Starter Set Normal-oily Skin Transformation System; Nu-derm Sun Shield Broad Spectrum SPF 50 Matte Sunscreen; Nu-derm Sun Shield SPF 50 Sunscreen; Nu-derm System Normal-dry Skin Transformation; Nu-derm System Normal-dry Skin Transformation Trial; Nu-derm System Normal-oily Skin Transformation; Nu-derm System Normal-oily Skin Transformation Trial; Nu-derm Travel Set Normal/dry Skin Transformation System; NuGLOW DAYTIME THERAPY With SPF 15; Nudestix Daily Mineral Veil SPF 30 Tint - Hot; Nudestix Daily Mineral Veil SPF 30 Tint - Warm; Nudestix Daily Mineral Veil SPF 30 Tint Free - Cool; Nuori Mineral Defence Sunscreen Face and Body SPF 30; Nuori Mineral Defence Sunscreen SPF 30; Nuori Mineral Defence Sunscreen Water Resistant SPF 30; Nuori X Boost The Light Salon Mineral Defence Sunscreen SPF 30; Nuria Defend Matte Finish Daily Moisturizer Mineral Sunscreen Broad Spectrum SPF 30; Nutri-Tab OB; Nutri-Tab OB plus DHA; Nutrimen C Re9 Reality Moisturizing Sunscreen SPF 8; Nutrimenc Re9 Reality Moisturizer With SPF 8; Nwc21 Natural White Cream; O HUI Perfect Sun Black EX Broad Spectrum SPF 50; OB Complete 400; OB Complete DHA; OB Complete Petite; OB Complete Prenatal; OBAGI-C RX System NORMAL-DRY SKIN INTERVENTION; OBAGI-C RX system NORMAL-oily SKIN INTERVENTION; OCLIPSE Sunscreen plus Primer Broad-Spectrum SPF 30 UVA/UVB Protection; OHUI Powdery Metal Cushion Compact 01 Light Beige; OHUI Powdery Metal Cushion Compact 02 Natural Beige; OHUI SUN SCIENCE Perfect Sunblock black EX plus; OHUI Sun Science Powder Sun Block Natural Skin; OHUI Sun Science Sun Block EX plus Beige; OHUI Sun Science intensive sunblock cake EX; OI LIN DEEP MOISTURE SUNSCREEN SPF 25 Tinted; OLP diaper Rash cream A and D; ONCODERM Rx Mineral Sunscreen SPF-30; ONE C BB CC Cream; OP spf45 Face Clear Zinc Potion; OS SILKY SUN CUSHION Broad Spectrum SPF 50; Oars and Alps 100% Mineral Anti-Aging Face Moisturizer SPF 30; Oars and Alps 100% Mineral Antioxidant Sunscreen; Oars and Alps SPF 30 100% Mineral Sunscreen; Oars and Alps SPF 37 Everyday Anti-Aging Face Moisturizer; Obagi; Obagi C-system C-sunguard SPF 30; Obagi Medical - Nu-Derm System - Normal to Dry - Skin Transformation Kit; Obagi Medical - Nu-Derm System - Normal to Dry - Skin Transformation Trial Kit; Obagi Medical Back to Basics (Including Obagi Medical Professional-C Serum 15); Obagi Medical Back to Basics (Including Obagi Medical Professional-C Serum 20); Obagi Medical Exclusive Gift Set; Obagi Medical Physical Defense Broad Spectrum Mineral Sunscreen SPF 40 by SUZANOBAGIMD; Obagi Medical Physical Defense Broad Spectrum Mineral Sunscreen SPF 50 by SUZANOBAGIMD; Obagi Nu-Derm FX System - Normal to Dry; Obagi Nu-Derm FX System Normal - Dry Skin Transformation Complexion Brightening System; Obagi Nu-Derm FX System Normal - Oily Skin Transformation Complexion Brightening System; Obagi Skintrinsiq Brightening Protocol; Obagi Skintrinsiq Clarifiying Protocol; Obagi Skintrinsiq Firming Protocol; Obagi Sun Shield MINERAL Broad Spectrum SPF 50 Sunscreen; Obagi Sun Shield TINT Cool Sunscreen Broad Spectrum SPF 50; Obagi Sun Shield TINT Warm Sunscreen Broad Spectrum SPF 50; Obagi-C Fx System Normal-Dry Skin Brightening System With Arbutin; Obagi-C Fx System Normal-Oily Skin Brightening System With Arbutin; Obagi-C Rx System C-Sunguard SPF 30; Obagi-C Rx System Normal-dry Skin Intervention; Obagi-C Rx System Normal-oily Skin Intervention; Obagi-C Rx System Sun Shield Broad Spectrum SPF 50 Matte Sunscreen; Obagi-C System; Obagi-C System Skin Intervention Kit Ensemble Intervention; Ocean Friendly Sunscreen SPF30 Broad Spectrum; Octinoxate, Zinc Oxide; Octisalate,octocrylene,octinoxate,zinc Oxide,titanium Dioxide,ensulizole; Ocuvel; Ocuvite Tab; Ocuvite Vitamin and Mineral Supplement; Ocuvite Vitamin and Mineral Supplement Capsules; Odacite; Odacite Sun Guardian Oceanic Glacial Water Day Creme SPF30; Ohui Sun Science Perfect Sunblock Red EX; Ohui Sunscience Luminous Whitening Sunblock; Oi Lin Deep Moisture Sunscreen SPF 25; Oi Lin Deep Moisture Sunscreen SPF 25 Tinted; Oi Lin Deep Moisture Sunscreen SPF 30; Oil Control Mattifier SPF 15; Oil Control Mattifier SPF 15 Pa++; Oil Free Matte Sunscreen SPF 30, - Zinc Oxide, Octinoxate, Octisalate, Oxybenzone; Oil Of Olay Complete Care Daily Uv Protection Moisturizing Cream; Oil Of Olay Complete Care Daily Uv Protection Moisturizing Lotion; Oil Of Olay Protective Moisture Creme; Oil Of Olay Protective Moisture Lotion; Oil Of Olay Protective Renewal Lotion; Oil of Beauty; Oil-free Sunscreen; Olay Age Defying Advanced With Hyaluronic Acid Hydrating Moisturizer Lotion With Sunscreen; Olay Age Defying Advanced with Hyaluronic Acid Hydrating MoisturizerProtective Renewal Broad Spectrum SPF 15; Olay Age Defying Classic; Olay Age Defying Classic Daily Renewal Broad Spectrum SPF 15; Olay Age Defying Classic Protective Renewal Broad Spectrum SPF 15; Olay Age Defying Mature Skin Broad Spectrum SPF 15; Olay Age Defying Mature Skin Protective Renewal Broad Spectrum SPF 15; Olay Age Defying Protective Renewal; Olay Anti-Wrinkle Mature Skin; Olay Complete 15 Uva/uvb 365 Daily Moisturizing Lotion With SPF Broad Spectrum SPF 15 Sensitive; Olay Complete 30 Uva/uvb 365 Daily Moisturizing Lotion With SPF Broad Spectrum SPF 30 Sensitive; Olay Complete All Day Moisture Sensitive with Broad Spectrum SPF 15; Olay Complete All Day Moisture With Sunscreen Broad Spectrum SPF 30 Sensitive; Olay Complete All Day Moisturizer Broad Spectrum SPF 15 Sensitive; Olay Complete All Day Moisturizer Broad Spectrum SPF 30 Sensitive Skin; Olay Complete All Day Moisturizer Sensitive Broad Spectrum SPF 15; Olay Complete All Day Moisturizer with Sunscreen Broad Spectrum SPF 30 Sensitive; Olay Complete Allday Moisture Cream - Uv Defense; Olay Complete Allday Moisture Lotion - Uv Defense; Olay Complete Plus Ultra Rich Day Cream; Olay Complete Plus Ultra Rich Uv Moisturizer; Olay Complete Radiance Tinted Moisturizer; Olay Complete SPF 30 Defense Daily UV Moisturizer Sensitive Skin; Olay Complete Spf30 Defense All Day Moisturizer - Sensitive Skin; Olay Complete UV365 Daily Moisturizer Sensitive Broad Spectrum SPF 15; Olay Complete UV365 Daily Moisturizer Sensitive Plus Broad Spectrum SPF 15; Olay Complete UV365 Daily Moisturizer with Sunscreen Broad Spectrum SPF 30 Sensitive; Olay Complete Uv365* Daily Moisturizing Cream With Sunscreen Broad Spectrum SPF 15 Sensitive; Olay Regenerist Mineral Sunscreen Hydrating Moisturizer Broad Spectrum SPF 30; Olay Sensitive; Olay Sensitive Calming Facial Moisturizer Broad Spectrum SPF 15 Fragrance Free; Olivene Diaper Rash; Ology; Omar Sharif Everyday Sun Protection Broad Spectrum SPF 50; Omar Sharif Silk Sun BB Broad Spectrum SPF 45; Omega-3 Rx Complete; Onalt Pure Mild Suncream; Once Finishing; One A Day Advance Fem; One Essential City Defense; One Tablet Daily Mens Formula; One and Done; One-A-day Advance Fem - Tablets; Open Formula SPF 33 Sunscreen; Open Nature Children SPF 50 Mineral Sunscreen; Open Nature SPF 50 Mineral Sunscreen; Open Nature Zinc Oxide Sunscreen Mineral Sunscreen SPF 30; Optical Illusion Foundation SPF 15; Optivite Vitamin and Mineral Supplement Tablet; Orange Vanilla SPF30; Orchid Secret Foundation 21 Spf28 Pa Plus Plus; Orchid Secret Foundation 23 Spf28 Pa Plus Plus; Orchid Secret Pact Spf35 Pa Plus Plus Plus 21 Orchid Ivory; Orchid Secret Pact Spf35 Pa Plus Plus Plus 23 Orchid Beige; Orday Mild Suncream; Organic Diaper Rash Cream; Organic Rose Face Sunscreen; Organic Rose Lip Balm Sunscreen; Organic Sunscreen; Organic Wear BB All in One Beauty Balm Cream; Organic Wear CC Cream SPF 20; Organic Wear Work It Marathonista Tinted Moisturizer; Organic Zinclear Sunscreen; Origins Ginzing Energy-boosting Tinted Moisturizer Broad Spectrum SPF 40; Origins Ginzing SPF 40 Energy-boosting Tinted Moisturizer; Othree 50 Whitening; Ounce by Ounce Broad Spectrum Sunscreen SPF 30; Ourself Mineral Sunscreen; Outback 2 in 1 Protection; Outback 2-in-1 Insect Repellent and Protective Sunscreen; Outback Series 2-in-1 Sunscreen; Outdoor Adventure Set; Outdoor Essentials; Outdoor Explorer Set; Oznaturals Sunscreen; Ozone Body Protection Cream; Ozone Face Protection Daily Moisturizer; Ozonol Ont; PACIFICA ULTRA CC RADIANT FOUNDATION broad spectrum SPF 17 cool deep; PACIFICA ULTRA CC RADIANT FOUNDATION broad spectrum SPF 17 neutral fair; PACIFICA ULTRA CC RADIANT FOUNDATION broad spectrum SPF 17 warm medium; PACIFICA ULTRA CC RADIANT FOUNDATION broad spectrum SPF 17 warm tan; PAUL and JOE PROTECTIVE FOUNDATION PRIMER UV 02; PAULAS CHOICE HYDRALIGHT SHINE-FREE DAILY MINERAL COMPLEX Broad Spectrum SPF 30; PCA SKIN Body Hydrator SPF30; PEAK Sunscreen 100 Natural SPF 30; PERFECT 6 in one BB Light; PERFECT 6 in one BB Natural; PETER ISLAND NATURAL MINERAL SUNCREEN BROAD SPECTRUM SPF 60 Water Resistant; PHACE BIOACTIVE SOOTHING DAY Plus PRIMER BROAD-SPECTRUM SPF 46; PHARMACA Natural Mineral Sunscreen SPF-30; PHARMACA Natural Mineral Sunscreen SPF-50; PNV Ferrous Fumarate Docusate Folic Acid; PNV Prenatal Plus Multivitamin; PNV Tabs 29-1; PNV-First; PNV-Select; POZCOS PO CC Cream; PR Natal 400; PR Natal 400 ec; PR Natal 430; PR Natal 430 ec; PREP (plus) PRIME BEAUTY BALM SPF 35; PREP SPF 15 Lip Gloss; PREP and PRIME FACE PROTECTION SPF 50; PROJECT REEF Mineral Sunscreen SPF-30; PROJECT REEF Mineral Sunscreen SPF-50; PROJECT REEF SPF-30 Mineral Sunscreen; PROTEC Plus NATURAL SPF 30; PROTEKT SPF-50 Sheer Mineral Sunscreen; PSP Calamine; PSP GO Calamine; PURE HAVEN Face Sunscreen SPF-30; PURITO Comfy Water Sun Block; Pacifica CC broad spectrum SPF 17 LIGHT; Pacifica CC broad spectrum SPF 17 MEDIUM; Paire OB Plus DHA; Paladin Diaper Rash; Palomar E Skin Rash; Pamela Metamorphosis Sunscreen SPF 30; PanOxyl Oil Control Moisturizer; Panama Jack 30 Broad Spectrum SPF 30 Clear Zinc; Pasta de Lassar Andromaco; Pate D Unna; Paul and Joe; Paul and Joe Compact Foundation 100; Paul and Joe Compact Foundation 101; Paul and Joe Compact Foundation 102; Paul and Joe Compact Foundation 103; Paul and Joe Compact Foundation 201; Paul and Joe Protective Foundation Primer Uv; Paulas Choice Calm Redness Relief SPF 30 Mineral (Normal to Oily); Paulas Choice Calm Redness Relief SPF 30 Mineral Moisturizer (Normal to Dry); Paulas Choice DEFENSE Essential Glow Moisturizer SPF 30; Paulas Choice Hydralight Shine Free Daily Mineral Complex; Paulas Choice On-the-Go Shielding Powder Broad Spectrum SPF 30; Paulas Choice Resist Super-Light Daily Wrinkle Defense SPF 30; Paulas Choice Skin Recovery Daily Moisturizing SPF 30; Pedi-Derm Bum; Pelagic Broad Spectrum SPF 50 Sunscreen; Penaten Cream; Penaten Soothing Lotion; People4Ocean SPF30 Sunscreen; People4Ocean SPF50 sunscreen; People4Ocean SPF50 sunscreen vegan; Pep-star Daily Uv Protector Broad Spectrum SPF 50; PerCara Original Medicated Powder; PerfecTint Powder SPF 40 All Shades; Perfect Body - Weightless Moisturizer Broad Spectrum SPF 25 Sunscreen; Perfect Body - Youth Boost Moisturizer Broad Spectrum SPF 30 Sunscreen; Perfect Finish SPF-30; Perfect Purity Medicated Body Powder; Perfect Sebum control real foundation 21 Nude beige; Perfect Sebum control real foundation 23 Natural beige; Perfect Shield Rejuve Sunscreen 100; Perfect Skin Face Salve; Perfect Sunscreen SPF 50 Sheer Mineral; Perfect Sunscreen Tinted Mineral SPF50; Perfecting BB Beauty Balm Natural Tint SPF 30; Perfecting Liquid Foundation Alabaster SPF 15; Perfecting Liquid Foundation Buff SPF 15; Perfecting Liquid Foundation Deep Beige SPF 15; Perfecting Liquid Foundation Deep Bronze SPF 15; Perfecting Liquid Foundation Earthy Beige SPF 15; Perfecting Liquid Foundation Espresso SPF 15; Perfecting Liquid Foundation Fair SPF 15; Perfecting Liquid Foundation Golden Beige SPF 15; Perfecting Liquid Foundation Golden Bronze SPF 15; Perfecting Liquid Foundation Honey Beige SPF 15; Perfecting Liquid Foundation Neutral Beige SPF 15; Perfecting Liquid Foundation Porcelain SPF 15; Perfecting Liquid Foundation Rosy Beige SPF 15; Perfecting Liquid Foundation Soft Blush SPF 15; Perfecting Liquid Foundation Toffee Bronze SPF 15; Perfecting Protection SPF 30; Perfectionist Pro Multi-defense Uv Fluid Broad Sprectrum SPF 45; Perfectly Posh THROWING SHADE SPF30 Broad Spectrum Facial Sunscreen; Periguard; Perricone MD No Make Up Foundation Serum SPF 20 - Beige; Perricone MD No Make Up Foundation Serum SPF 20 - Buff; Perricone MD No Make Up Foundation Serum SPF 20 - Golden; Perricone MD No Make Up Foundation Serum SPF 20 - Ivory; Perricone MD No Make Up Foundation Serum SPF 20 - Nude; Perricone MD No Make Up Foundation Serum SPF 20 - Porcelain; Perricone MD No Make Up Foundation Serum SPF 20 - Rich; Perricone MD No Make Up Foundation Serum SPF 20 - Tan; Perricone No foundation foundation; Persimmon & Cantaloupe Moisturizing Day Cream SPF 32; Persimmon and Cantaloupe Day Sunscreen Broad Spectrum SPF 32 Oily to Normal; Personal Blend Foundation SPF 15; Personal Care; Personal Skincare Barrier Cream; Personalized Day Moisturizer with SPF; Personalized Day Moisturizer with SPF 30; Personalized Day Moisturizer with SPF 50; Peter Island Natural Mineralspf 60 SPF 60; Peter Island Sunscreen SPF 50; Peter Thomas Roth CC Light to Medium; Pharmaskincare Solar-C Moisturizer SPF 15; Pharmaskincare Solar-C Moisturizer SPF 50; Physical Facial Block SPF 30; Physicians Care Alliance Perfecting Protection SPF30; Phytogenic Infinite Makeup Base Spf15 Green; Phytogenic Infinite Makeup Base Spf15 Purple; Phytogenic Infinte 37100457; Phytoplex Clear Aid; Pineapple Mineral SPF 15 Broad Spectrum Lip Balm; Pink Stick; Pipette Diaper Rash; Pipette Mineral Sunscreen Broad Spectrum SPF 50; Pipette Mineral Sunscreen Broad Spectrum SPF50; Placenta EX Essence Bb Spf50plus Pa Plus Plus Plus; Placenta EX Sun Balm Spf50plus Pa Plus Plus Plus; Plagentra Soothing Revolution Bb; Planet Sun SPF 30; Plant and Mineral Sunscreen SPF 50; Play Mineral Broad Spectrum SPF 50; Play Mineral Lip Balm SPF-15; Play Mineral Sunscreen SPF-50; Play Mineral Sunstick SPF-30; Plumscreen SPF 31; Pnv Ob DHA; Pnv-OB-dha; Poison Ivy/Oak; Pollution Shield SPF 46 Broad Spectrum Sunscreen; Pommade Parnel; Ponds; Ponds Luminous Finish BB cream Light SPF 15; Ponds Luminous Finish BB cream Medium SPF 15; Poof 100% Mineral Part Broad Spectrum Sunscreen SPF 45; Poof 100% Mineral Part Powder SPF 35; Porescreen Spf40; Positive Light Tinted Moisturizer Broad Spectrum SPF 20 Sunscreen 10N; Positive Light Tinted Moisturizer Broad Spectrum SPF 20 Sunscreen 12C; Positive Light Tinted Moisturizer Broad Spectrum SPF 20 Sunscreen 14W; Positive Light Tinted Moisturizer Broad Spectrum SPF 20 Sunscreen 16C; Positive Light Tinted Moisturizer Broad Spectrum SPF 20 Sunscreen 20W; Positive Light Tinted Moisturizer Broad Spectrum SPF 20 Sunscreen 22W; Positive Light Tinted Moisturizer Broad Spectrum SPF 20 Sunscreen 24N; Positive Light Tinted Moisturizer Broad Spectrum SPF 20 Sunscreen 26W; Positive Light Tinted Moisturizer Broad Spectrum SPF 20 Sunscreen 28C; Positive Light Tinted Moisturizer Broad Spectrum SPF 20 Sunscreen 30N; Positive Light Tinted Moisturizer Broad Spectrum SPF 20 Sunscreen 32N; Positive Light Tinted Moisturizer Broad Spectrum SPF 20 Sunscreen 34W; Positive Light Tinted Moisturizer Broad Spectrum SPF 20 Sunscreen 36C; Positive Light Tinted Moisturizer Broad Spectrum SPF 20 Sunscreen 38N; Positive Light Tinted Moisturizer Broad Spectrum SPF 20 Sunscreen 40N; Positive Light Tinted Moisturizer Broad Spectrum SPF 20 Sunscreen 42N; Positive Light Tinted Moisturizer Broad Spectrum SPF 20 Sunscreen 44N; Positive Light Tinted Moisturizer Broad Spectrum SPF 20 Sunscreen 46C; Positive Light Tinted Moisturizer Broad Spectrum SPF 20 Sunscreen 48W; Positive Light Tinted Moisturizer Broad Spectrum SPF 20 Sunscreen 50N; Positive Light Tinted Moisturizer Broad Spectrum SPF 20 Sunscreen 52W; Positive Light Tinted Moisturizer Broad Spectrum SPF 20 Sunscreen 54N; Positive Light Tinted Moisturizer Broad Spectrum SPF 20 Sunscreen 56N; Positive Light Tinted Moisturizer Broad Spectrum SPF 20 Sunscreen 58N; Post Rays UV Protect Sun Block; Post rays Blemish Balm; Poudre; Powder; Powerproof Sunscreen 100; Poxiezzz; Pranicura; Pranicura 5; Pranicura II; Pre-Tabs DHA Prenatal Multi-vitamin/Mineral Supplement with DHA/EPA; PreGen DHA; PreNatal 19; PrePLUS; PreQue 10; PreTAB; Prefera OB plus DHA; PreferaOB; PreferaOB ONE; PreferaOB One; PreferaOB plus DHA; Preferred Plus Body Powder; Preferred Plus Medicated Baby; Pregvit; Pregvit Folic 4; Pregvit Folic 5; Premier Value Calaclear; Premier Value Calagesic; Premier Value Diaper Rash; Premier Value Medicated Body Powder; Premier Value Zinc Oxide; Premiere Value Calamine; Premium Endurance Sunscreen 30; Premium Endurance Sunscreen 50; Premium Gold Mineral BB; Premium Mineral Sunscreen Broad Spectrum SPF 30; Premium Natural Sunscreen Baby Bum 30; Premium Natural Sunscreen Broad Spectrum SPF 30 Baby Bum; Premium Natural Sunscreen Loition Baby Bum; Premium Sunscreen Face SPF-50; Premium Sunscreen SPF-30; Prena1; Prenatabs FA; Prenatal; Prenatal Plus; Prenatal Plus Iron; Prenatal Plus Multivitamin Plus DHA MiniCaps; Prenatal Plus Vitamins; Prenatal Supplement - Tab; Prenatal Vitamin and Mineral Supplement -tab; Prenatal Vitamins Plus; Prenatal Vitamins and Minerals Tablets; Prenatal and Post Partum Supplement; Prenatal, DHA; Prenate Elite; Prenate Star; Prenatrix; Prenatryl; Prenatvite; Prenatvite Complete; Prenatvite Plus; Prep (and) Prime Cc Color Correct Spf30 Broad Spectrum; Prep Plus Prime Bb Beauty Balm Compact Broad Spectrum SPF 30; Prep and Prime Fortified Skin Enhancer Broad Spectrum SPF 35; Prep and Prime Fortified Skin Enhancer SPF 35; Prep and Prime SPF Mini Set; Preplus; Presage Moisturizer SPF 15; Prescribers Choice Dynamic Broad Spectrum; Prescriptives Flawless Skin Total Protection Makeup SPF 15; Prescriptives Site Unseen Brightening Concealer Broad Spectrum SPF 15; Prescriptives Site Unseen Brightening Concealer SPF 15; Preserve and Protect Broad Spectrum SPF 30 Sunscreen; Pressed Mineral; Presto; Pretrate; Pretty In Bloom SPF 20; Prevage City Smart; Prevention + Daily Matte Moisturizer Oil-free; Prevention + Daily Ultimate Protection Moisturizer; Prevention + Daily Ultra Sheer Spray; Prevention Daily Matte Moisturizer SPF 30; Prevention Daily Tinted Moisturizer SPF 30; Prevention Plus Daily Hydrating Moisturizer SPF 30; Prevention Plus Daily Tinted Moisturizer SPF 30; Prevention daily tinted mositurizer oil-free Tinted 30; Prevex Diaper Rash Crm; PreviSense Moisture Barrier with Protease Technology; Prime Primer Bb Nude; Prime Primer Bb Sheer; Primer; Primer Plus Radiance Broad Spectrum SPF 35; Principal Secret Reclaim Botanical (with SP) Radiant Recovery Day Broad Spectrum SPF 15; Principal Secret Reclaim Sunscreen For Face and Body SPF 30; Prismatic Protectant SPF50; Prismplus Broad-Spectrum Sunscreen SPF 43; Private Label Moisturizing Oil Free Paraben Free SPF43; Private Label SPF45 Water Resistant Paraben Free Sunscreen; Private Label Super Light Oil-Free SPF45; Pro Perfecting Minerals Broad Spectrum SPF 25 Sunscreen - Shade 1; Pro Perfecting Minerals Broad Spectrum SPF 25 Sunscreen - Shade 2; Pro Perfecting Minerals Broad Spectrum SPF 25 Sunscreen - Shade 3; Pro Perfecting Minerals Broad Spectrum SPF 25 Sunscreen - Shade 4; Pro Therapy MD Advanced Ultra Light Day Repair; Pro Triple Protection Factor Broad Spectrum SPF 50 Sunscreen; Pro Triple Protection Factor Lip Balm Broad Spectrum SPF 30 Sunscreen; Pro Vive SPF 30; Pro-derm 50; Pro-derm Cream; Pro-derm Fps 60 SPF; Proactiv Oil Free Moisture SPF 15 Moisturizer; Proactiv SPF 15 Moisturizer; Proactiv Solution Oil Free Moisture SPF 15 Moisturizer; Procure; Procyte Z-Silc Plus SPF 30; Professional Solutions - Botanical Day Cream Broad Spectrum SPF 30 Sunscreen; Professional Solutions - Sunscreen Broad Spectrum SPF 55 Moisturizing; Professional Solutions - Tinted Mineral Defense Broad Spectrum SPF 30 Sunscreen; Professional Solutions - Weightless Moisturizer Broad Spectrum SPF 25 Sunscreen; Professional Solutions - Youth Boost Daily Moisturizer Broad Spectrum SPF 30 Sunscreen; Professional Solutions Day Intense Moisture SPF 30; Professional Solutions Sunscreen SPF 30; Professional Solutions Tinted Moisturizer SPF 30 Light; Professional Solutions Tinted Moisturizer SPF 30 Medium; Project Reef SPF-50; Project Sunscreen Baby Mineral Sunscreen Roll-ON SPF-50; Project Sunscreen Festival Mineral Sunscreen Roll-ON SPF-40; Project Sunscreen Kids Mineral Sunscreen Roll-ON SPF-50; Project Sunscreen Spfu Mineral Sunscreen Roll-ON SPF-50; Project Sunscreen for All Mineral Sunscreen Roll-ON SPF-40; Project Sunscreen for All Mineral Sunscreen Roll-ON SPF-50; Prometa; Promise Organics Diaper Cream; Propolis 27 Cover Cushion; Propolis 39 Cc; Propolis 90 Ampoule; Protect Broad Spectrum SPF 30; Protect and Serve Tinted Sun Shield SPF 30; Protectif deep tint; Protectif fair tint; Protectif untinted; Protecting Hydrator SPF 30; Protecting Natural Shine Tone Up Sun Cushion; Protecting Natural Shine Tone Up Sun Cushion Refill; Protecting Natural Shine Tone Up Sun Cushion Refull; Protection U.V. Broad Spectrum SPF 25; Protective Base Sun for Dry Skin; Protective Base Sun for Oily Skin; Protective Cream; Protective Moisturizer SPF 15; Protective Powder; Protecto Barrier Cream; Protecto Barrier Cream - 15%; Protector Gripper Broad Spectrum SPF 30; Proven Personalized Day Moisturizer With SPF 50; Provence Air Skin Fit Blur Pact; Provence Air Skin Fit Foundation Ginger Beige C02; Provence Air Skin Fit Foundation Pink Beige C01; Provence Air Skin Fit Foundation W01 Light Beige; Provence Air Skin Fit Foundation W02 Natural Beige; Provence Air Skin Fit Oi L Control Bb Cushion 01 Light Beige; Provence Air Skin Fit Oi L Control Bb Cushion 02 Natural Beige; Provence Air Skin Fit One Day Lasting Foundation N13 Porcelain; Provence Air Skin Fit One Day Lasting Foundation N35 Natural Brown; Provence Air Skin Fit One Day Lasting Foundation N45 Tan Brown; Provence Air Skin Fit One Day Lasting Foundation P21 Rosy Vanilla; Provence Air Skin Fit One Day Lasting Foundation Y21 Pure Vanilla; Provence Air Skin Fit One Day Lasting Foundation Y23 Warm Beige; Provence Air Skin Fit One Day Lasting Foundation Y25 Golden Beige; Provence Air Skin Fit Pact 01 Light Beige; Provence Air Skin Fit Pact 02 Natural Beige; Provence Calendula Ice Puff Sun; Provence Calendula No Sebum Sun Block; Provence Calendula No Sebum Sun Block Spf45; Provence Calendula Sun; Provence Calendula Waterproof Sun Block; Provence Foundation Spf31 Pa Plus Plus No 21; Provence Foundation Spf31 Pa Plus Plus No 23; Provence Intensive Ampoule Bb 01 Light Beige; Provence Intensive Ampoule Bb 02 Natural Beige; Provence Intensive Ampoule Bb Cushion 01 Light Beige; Provence Intensive Ampoule Bb Cushion 02 Natural Beige; Provence Intensive Ampoule Foundation 01 Light Beige; Provence Intensive Ampoule Foundation 02 Natural Beige; Provence Intensive Ampoule Foundation P21 Rosy Vanilla; Provence Intensive Ampoule Foundation Y21 Pure Vanilla; Provence Intensive Ampoule Foundation Y23 Warm Beige; Provence Intensive Ampoule Make Up Base 01 Mint; Provence Intensive Ampoule Make Up Base 02 Lavender; Provence Makeup Base Spf30 Pa Plus Plus 01 Mint; Provence Makeup Base Spf30 Pa Plus Plus 02 Lavender; Provence Melting Foundation Bright Beige Spf32 Pa Plus Plus; Provence Melting Foundation Natural Beige Spf32 Pa Plus Plus; Provence Two Way Pact Spf50plus Pa Plus Plus Plus 01 Light Beige; Provence Two Way Pact Spf50plus Pa Plus Plus Plus 02 Natural Beige; Provence Water Drop Pact 21 Light Beige; Provence Water Drop Pact 23 Natural Beige; Provida OB; Public Goods; Publix Calamine Medicated; Publix Clear Anti-Itch; Pur Air Perfection CC Cushion Foundation Broad Spectrum SPF 50 Plus (DARK); Pur Air Perfection CC Cushion Foundation Broad Spectrum SPF 50 Plus (LIGHT); Pur Air Perfection CC Cushion Foundation Broad Spectrum SPF 50 Plus (MEDIUM); Pur Air Perfection CC Cushion Foundation Broad Spectrum SPF 50 Plus (TAN); Pura Vida Sunscreen; Pure Baby Diaper Rash; Pure Bb 21 Light Beige; Pure Bb 23 Light Beige; Pure Bb Cre Am 21 Light Beige; Pure Bb Cre Am 23 Natural Beige; Pure Foundation 21 Pink Beige; Pure Foundation 23 Natural Beige; Pure Foundation 23 Natural Beige Spf40; Pure Foundation 25 Sand Beige; Pure Foundation 35 Tan Brown; Pure Haven Body SPF 30; Pure Haven Essentials; Pure Perfection Classic Oil Free Moisturizer With SPF 15; Pure Skin Naked All Natural Sunscreen SPF 35; Pure Transformation Sheer Clear; Pure Transformation Sheer Dark; Pure Transformation Sheer Fair; Pure Transformation Sheer Light; Pure Transformation Sheer Medium; Pure Transformation Sheer Tan; Pure Zinc Oxide Sunscreen 30; Pure and Simple Kids 50; PureLight SPF 30; Purely Physical SPF 47; Purely Simple Sunscreen Stick Broad Spectrum SPF 30; Puristics Baby Zinc Oxide Diaper Rash; Puristics Totally Ageless SPF 15 Daily Anti-aging; Puristics Totallyageless SPF 15 Daily Anti-aging; Purlisse Ageless Glow Bb SPF 40; Purlisse BB Tinted Moist; Purlisse BB Tinted Moist Light; Purlisse BB Tinted Moist SPF30 Deep; Purlisse BB Tinted Moist SPF30 Fair; Purlisse BB Tinted Moist SPF30 Light; Purlisse BB Tinted Moist SPF30 Medium; Purlisse BB Tinted Moist SPF30 Medium Deep; Purlisse Perfect Glow Bb SPF 30; Purlisse Radiant Glow Illuminating Bb SPF 30; Purlisse Youth Glow Cc SPF 50; Purminerals 4-in-1 Mineral Tinted Moisturizer Broad Spectrum SPF 20; Purminerals 4-in-1 Mineral Tinted Moisturizer Broad Spectrum SPF 20 (DARK); Purminerals 4-in-1 Mineral Tinted Moisturizer Broad Spectrum SPF 20 (LIGHT); Purminerals 4-in-1 Mineral Tinted Moisturizer Broad Spectrum SPF 20 (MEDIUM); Purminerals 4-in-1 Mineral Tinted Moisturizer Broad Spectrum SPF 20 (TAN); Purple Stick; Purple Sunblock; PurpleU GLOW BEAUTIFULLY BRIGHT; Puttisu; Putto Ato Secret Uv Face SPF 6; Pyratine XR Creme With Sunscreen Broad Spectrum SPF30; QC Diaper Rash; QYO QYO Tangerine Bright Moist Jelly Sunblock SPF 40; Quality Choice Anti-Itch Clear; Quality Choice Anti-itch Medicated; Quality Choice Calamine; Quality Choice Diaper Rash; Quality Choice Maximum Strength Diaper Rash; Quality Choice Maximum Strength Zinc Oxide; Quality Choice Quick Relief Diaper Rash; Quality Choice Zinc Oxide; Queens Rose Perfection Cover Cushion Pact; Queens Rose Rose Skin Perfection Bb; Quench and Protect Hydrating SPF 30; Quflora FE; Quick Relief Creamy Diaper Rash; Quo Cc Cream; Quo Luminous Finish Foundation; RAF Five - Kick Off Hydrating BROAD SPECTRUM SPF30 SUNSCREEN; RE Nata; RE Nata OB; RE9 Advanced Brightening Protective Broad Spectrum SPF 15; RE9 Advanced Brightening Sample Pack; RE9 Advanced Deluxe Try Me Set; RE9 Advanced LIFTING AND CONTOURING BROAD SPECTRUM SPF 15 SUNSCREEN; RE9 Advanced Prepwork; RE9 Advanced Prepwork Soft Focus Veil Broad Spectrum SPF30 Sunscreen; RE9 Advanced Restorative Broad Spectrum SPF 15 Sunscreen; RE9 Advanced Restorative Day Creme SPF 20; RE9 Advanced Skincare Sample Pack for Face Kit; RE9 Advanced for Men Anti-Aging Moisturizer Broad Spectrum SPF 15 Sunscreen; RE9 Advanced for Men Anti-Aging Skincare Line; RE9 Advanced for Men Deluxe Try Me Set; RECHARGE Protect Blur; RECHARGE Regimen for Balancing, Boosting and Defending Healthy-Looking skin; REDNESS solutions DAILY PROTECTIVE BASE BROAD SPECTRUM SPF 15; REDNESS solutions MAKEUP BROAD SPECTRUM SPF 15 WITH PROBIOTIC TECHNOLOGY; REMEDY Calazime Skin Protectant; REN Clean Favourites; REN Satin Perfection BB Sunscreen Broad Spectrum SPF 15 Light-Medium; RODAN FIELDS SOOTHE 4 Mineral Sunscreen BROAD SPECTRUM SPF 30; RODAN and FIELDS ENHANCEMENTS BRONZE; RODAN and FIELDS ENHANCEMENTS LIGHT; RODAN and FIELDS ENHANCEMENTS MEDIUM; RODAN and FIELDS UNBLEMISH; RVR90 Brighten; RVR90 Clear; RVR90 Firm; RVR90 Hydrating; RVR90 Refine and Perfect; RVR90 Retexturize; Radiance; Radiance Cc SPF 30; Radiance Foundation Broad Spectrum SPF 20 - Bare; Radiance Foundation Broad Spectrum SPF 20 - Bare JAFRA; Radiance Foundation Broad Spectrum SPF 20 - Bronze; Radiance Foundation Broad Spectrum SPF 20 - Bronze JAFRA; Radiance Foundation Broad Spectrum SPF 20 - Cappuccino; Radiance Foundation Broad Spectrum SPF 20 - Fair; Radiance Foundation Broad Spectrum SPF 20 - Fair JAFRA; Radiance Foundation Broad Spectrum SPF 20 - Honey; Radiance Foundation Broad Spectrum SPF 20 - Honey JAFRA; Radiance Foundation Broad Spectrum SPF 20 - Natural JAFRA; Radiance Foundation Broad Spectrum SPF 20 - Nude JAFRA; Radiance Foundation Broad Spectrum SPF 20 - Spicy JAFRA; Radiance Foundation Broad Spectrum SPF 20 - Tawny; Radiance Foundation Broad Spectrum SPF 20 - Tawny JAFRA; Radiance Foundation Broad Spectrum SPF 20 -Caramel; Radiance Foundation Broad Spectrum SPF 20 -Spice; Radiance Foundation Broad Spectrum SPF 20- Natural; Radiance Foundation Broad Spectrum SPF 20-Nude; Radiance Superbe Day Cream Neutral Bronze; Radiance Superbe Day Cream Neutral Caramel; Radiance Superbe Day Cream Neutral Light; Radiance Superbe Day Cream Neutral Medium; Radiance Superbe Day Cream Neutral Tan; Radiance Superbe Day Cream Nude; Radiance Superbe Day Cream Translucent; RadianceSHIELD Golden Tint; RadianceSHIELD Untinted; Radiant Defense; Radiant Defense Perfecting Broad Spectrum SPF 30; Radiant Defense Perfecting Liquid Broad Spectrum SPF 30 - Almond; Radiant Defense Perfecting Liquid Broad Spectrum SPF 30 - Beige; Radiant Defense Perfecting Liquid Broad Spectrum SPF 30 - Caramel; Radiant Defense Perfecting Liquid Broad Spectrum SPF 30 - Cream; Radiant Defense Perfecting Liquid Broad Spectrum SPF 30 - Espresso; Radiant Defense Perfecting Liquid Broad Spectrum SPF 30 - Golden; Radiant Defense Perfecting Liquid Broad Spectrum SPF 30 - Honey; Radiant Defense Perfecting Liquid Broad Spectrum SPF 30 - Sand; Radiant Defense Perfecting Liquid Broad Spectrum SPF 30 - Shell; Radiant Defense Perfecting Liquid Broad Spectrum SPF 30 - Truffle; Radical Skincare Skin Perfecting Screen SPF 30; Radically Rejuvenating Day Cream; Rainforest of the Sea Water Foundation Broad Spectrum SPF 15 Sunscreen 12B fair beige; Rainforest of the Sea Water Foundation Broad Spectrum SPF 15 Sunscreen 12N fair neutral; Rainforest of the Sea Water Foundation Broad Spectrum SPF 15 Sunscreen 14S fair-light sand; Rainforest of the Sea Water Foundation Broad Spectrum SPF 15 Sunscreen 15N fair-light neutral; Rainforest of the Sea Water Foundation Broad Spectrum SPF 15 Sunscreen 22G light golden; Rainforest of the Sea Water Foundation Broad Spectrum SPF 15 Sunscreen 22H light honey; Rainforest of the Sea Water Foundation Broad Spectrum SPF 15 Sunscreen 22N light neutral; Rainforest of the Sea Water Foundation Broad Spectrum SPF 15 Sunscreen 22S light sand; Rainforest of the Sea Water Foundation Broad Spectrum SPF 15 Sunscreen 27B light-medium beige; Rainforest of the Sea Water Foundation Broad Spectrum SPF 15 Sunscreen 27H light-medium honey; Rainforest of the Sea Water Foundation Broad Spectrum SPF 15 Sunscreen 27S light-medium sand; Rainforest of the Sea Water Foundation Broad Spectrum SPF 15 Sunscreen 29G light-medium golden; Rainforest of the Sea Water Foundation Broad Spectrum SPF 15 Sunscreen 29N light-medium neutral; Rainforest of the Sea Water Foundation Broad Spectrum SPF 15 Sunscreen 32G medium golden; Rainforest of the Sea Water Foundation Broad Spectrum SPF 15 Sunscreen 32H medium honey; Rainforest of the Sea Water Foundation Broad Spectrum SPF 15 Sunscreen 32N medium neutral; Rainforest of the Sea Water Foundation Broad Spectrum SPF 15 Sunscreen 32S medium sand; Rainforest of the Sea Water Foundation Broad Spectrum SPF 15 Sunscreen 37S medium-tan sand; Rainforest of the Sea Water Foundation Broad Spectrum SPF 15 Sunscreen 39G medium-tan golden; Rainforest of the Sea Water Foundation Broad Spectrum SPF 15 Sunscreen 42N tan neutral; Rainforest of the Sea Water Foundation Broad Spectrum SPF 15 Sunscreen 42S tan sand; Rainforest of the Sea Water Foundation Broad Spectrum SPF 15 Sunscreen 46S tan-deep sand; Rainforest of the Sea Water Foundation Broad Spectrum SPF 15 Sunscreen 48G tan-deep golden; Rainforest of the Sea Water Foundation Broad Spectrum SPF 15 Sunscreen 51H deep honey; Rainforest of the Sea Water Foundation Broad Spectrum SPF 15 Sunscreen 51S deep sand; Rainforest of the Sea Water Foundation Broad Spectrum SPF 15 Sunscreen 53G deep golden; Rainforest of the Sea Water Foundation Broad Spectrum SPF 15 Sunscreen 57N rich neutral; Rainforest of the Sea Water Foundation Broad Spectrum SPF 15 Sunscreen 57S rich sand; Rainforest of the Sea Water Foundation Broad Spectrum SPF 15 Sunscreen 61H mahogany; Rainforest of the Sea Water Foundation Broad Spectrum SPF 15 Sunscreen 8S porcelain; Rainforest of the Sea Water Foundation Broad Spectrum SPF 15 Sunscreen deep; Rainforest of the Sea Water Foundation Broad Spectrum SPF 15 Sunscreen deep honey; Rainforest of the Sea Water Foundation Broad Spectrum SPF 15 Sunscreen deep sand; Rainforest of the Sea Water Foundation Broad Spectrum SPF 15 Sunscreen fair; Rainforest of the Sea Water Foundation Broad Spectrum SPF 15 Sunscreen fair beige; Rainforest of the Sea Water Foundation Broad Spectrum SPF 15 Sunscreen fair neutral; Rainforest of the Sea Water Foundation Broad Spectrum SPF 15 Sunscreen fair-light neutral; Rainforest of the Sea Water Foundation Broad Spectrum SPF 15 Sunscreen fair-light sand; Rainforest of the Sea Water Foundation Broad Spectrum SPF 15 Sunscreen light; Rainforest of the Sea Water Foundation Broad Spectrum SPF 15 Sunscreen light honey; Rainforest of the Sea Water Foundation Broad Spectrum SPF 15 Sunscreen light neutral; Rainforest of the Sea Water Foundation Broad Spectrum SPF 15 Sunscreen light sand; Rainforest of the Sea Water Foundation Broad Spectrum SPF 15 Sunscreen light-medium; Rainforest of the Sea Water Foundation Broad Spectrum SPF 15 Sunscreen light-medium beige; Rainforest of the Sea Water Foundation Broad Spectrum SPF 15 Sunscreen light-medium honey; Rainforest of the Sea Water Foundation Broad Spectrum SPF 15 Sunscreen light-medium neutral; Rainforest of the Sea Water Foundation Broad Spectrum SPF 15 Sunscreen light-medium sand; Rainforest of the Sea Water Foundation Broad Spectrum SPF 15 Sunscreen mahogany; Rainforest of the Sea Water Foundation Broad Spectrum SPF 15 Sunscreen medium; Rainforest of the Sea Water Foundation Broad Spectrum SPF 15 Sunscreen medium honey; Rainforest of the Sea Water Foundation Broad Spectrum SPF 15 Sunscreen medium neutral; Rainforest of the Sea Water Foundation Broad Spectrum SPF 15 Sunscreen medium sand; Rainforest of the Sea Water Foundation Broad Spectrum SPF 15 Sunscreen medium-tan sand; Rainforest of the Sea Water Foundation Broad Spectrum SPF 15 Sunscreen porcelain; Rainforest of the Sea Water Foundation Broad Spectrum SPF 15 Sunscreen rich sand; Rainforest of the Sea Water Foundation Broad Spectrum SPF 15 Sunscreen tan; Rainforest of the Sea Water Foundation Broad Spectrum SPF 15 Sunscreen tan sand; Rainforest of the Sea water foundation Broad Spectrum SPF 15 Sunscreen 12B fair beige; Rainforest of the Sea water foundation Broad Spectrum SPF 15 Sunscreen 12N fair neutral; Rainforest of the Sea water foundation Broad Spectrum SPF 15 Sunscreen 14S fair-light sand; Rainforest of the Sea water foundation Broad Spectrum SPF 15 Sunscreen 15N fair-light neutral; Rainforest of the Sea water foundation Broad Spectrum SPF 15 Sunscreen 22G light golden; Rainforest of the Sea water foundation Broad Spectrum SPF 15 Sunscreen 22H light honey; Rainforest of the Sea water foundation Broad Spectrum SPF 15 Sunscreen 22N light neutral; Rainforest of the Sea water foundation Broad Spectrum SPF 15 Sunscreen 22S light sand; Rainforest of the Sea water foundation Broad Spectrum SPF 15 Sunscreen 27B light-medium beige; Rainforest of the Sea water foundation Broad Spectrum SPF 15 Sunscreen 27H light-medium honey; Rainforest of the Sea water foundation Broad Spectrum SPF 15 Sunscreen 27S light-medium sand; Rainforest of the Sea water foundation Broad Spectrum SPF 15 Sunscreen 29G light-medium golden; Rainforest of the Sea water foundation Broad Spectrum SPF 15 Sunscreen 29N light-medium neutral; Rainforest of the Sea water foundation Broad Spectrum SPF 15 Sunscreen 32G medium golden; Rainforest of the Sea water foundation Broad Spectrum SPF 15 Sunscreen 32H medium honey; Rainforest of the Sea water foundation Broad Spectrum SPF 15 Sunscreen 32N medium neutral; Rainforest of the Sea water foundation Broad Spectrum SPF 15 Sunscreen 32S medium sand; Rainforest of the Sea water foundation Broad Spectrum SPF 15 Sunscreen 37S medium-tan sand; Rainforest of the Sea water foundation Broad Spectrum SPF 15 Sunscreen 39G medium-tan golden; Rainforest of the Sea water foundation Broad Spectrum SPF 15 Sunscreen 42N tan neutral; Rainforest of the Sea water foundation Broad Spectrum SPF 15 Sunscreen 42S tan sand; Rainforest of the Sea water foundation Broad Spectrum SPF 15 Sunscreen 46S tan-deep sand; Rainforest of the Sea water foundation Broad Spectrum SPF 15 Sunscreen 48G tan-deep golden; Rainforest of the Sea water foundation Broad Spectrum SPF 15 Sunscreen 51H deep honey; Rainforest of the Sea water foundation Broad Spectrum SPF 15 Sunscreen 51S deep sand; Rainforest of the Sea water foundation Broad Spectrum SPF 15 Sunscreen 53G deep golden; Rainforest of the Sea water foundation Broad Spectrum SPF 15 Sunscreen 57N rich neutral; Rainforest of the Sea water foundation Broad Spectrum SPF 15 Sunscreen 57S rich sand; Rainforest of the Sea water foundation Broad Spectrum SPF 15 Sunscreen 61H mahogany; Rainforest of the Sea water foundation Broad Spectrum SPF 15 Sunscreen 8S porcelain; Ramosu The Star Mild Sunscreen; Rapid Repair Balm; Rash Relief; Rash Relief Antibacterial; Rash Relief Antifungal; Rash Relief Silver; Rash Repair Balm; Rash Stuff; Raspberry Lip SPF30; Raw Elements Baby Kids Broad Spectrum SPF30; Raw Elements Baby Kids Broad Spectrum SPF30 Sunscreen; Raw Elements Daily Moisturizer Broad Spectrum SPF30; Raw Elements Eco 30 Broad Spectrum SPF 30; Raw Elements Eco Formula 30 Broad Spectrum SPF 30; Raw Elements Eco Formula SPF30 Sample Packs; Raw Elements Facial Moisturizer Tint Formula 30 SPF 30 Broad Spectrum; Raw Elements Lip Rescue 30 Broad Spectrum SPF 30; Raw Elements Tint 30 Broad Spectrum SPF 30; RayaVit; Re Ob 90 DHA; Re-Flect; Re20 Advanced Wrinkle Control BB Cream Broad Spectrum SPF 50; Re20 Light Wrinkle BB Cream Broad Spectrum SPF 50; Re20 Light Wrinkle BB Cream SPF 50; Re20 Ultra Sun Defense Special Set Broad Spectrum SPF 44; Re20 Ultra Sun Defense Special Set SPF 44; Re9 Advanced Restorative Day CRème With SPF 20; Re9 Advanced for Men Facial Moisturizer With SPF 20; Re9 Advanced for Men Travel Set; ReNK Velvet in pact No.21; Reactive Plus Anti-Oxidant Serum plus Broad-spectrum SPF 45; Ready Foundation Dark; Ready Foundation Deepest Deep; Ready Foundation Fair; Ready Foundation Fairly Light; Ready Foundation Fairly Medium; Ready Foundation Golden Dark; Ready Foundation Golden Deep; Ready Foundation Golden Fair; Ready Foundation Golden Medium; Ready Foundation Golden Tan; Ready Foundation Light; Ready Foundation Medium; Ready Foundation Medium Beige; Ready Foundation Medium Dark; Ready Foundation Medium Deep; Ready Foundation Medium Tan; Ready Foundation Tan; Ready Foundation Warm Dark; Ready Foundation Warm Deep; Ready Foundation Warm Tan; Reboncel Brilliant BB SPF 40; Reboncel Ultra Sun Block SPF 50; Red Currant Protective Moisturizer SPF 30; Red Gecko Broad Spectrum SPF 30 Sunscreen; Red Ginseng Fermented Sun Spf50plus Pa Plus Plus Plus; Red Orange Sun Pact SPF 50 Plus Pa Plus Plus Plus; Red Orange Sun SPF 45 Pa Plus Plus Plus; Red Stick; Redness Relief Primer SPF20; Redness Relief SPF 20; Redness Solutions Makeup SPF 15 With Probiotic Technology; Reef Repair SPF 30 Suncream; Reef Repair SPF 50 Suncream; Rejuvaderm Medispa sunscreen; Rejuve Sunscreen 100; Rejuvity moisturizing day cream BROAD SPECTRUM SPF 15 SUNSCREEN; ReliaMed; Reliamed; Relnate DHA; Reman Homme Sun Protection; Remedy Essentials; Remedy Phytoplex Calazime Protectant; Remedy Phytoplex Z-Guard; Remedy SPF 30; Remedy Zinc Skin Protectant; RenaPlex; RenaPlex-D; Renate; Renate DHA; Renew Periprotect; Renewal Daily Moisturizer Sensitive Skin; Renewal Firming Day Broad Spectrum SPF 30; Renove Royal Perfect Color Control Cushion SPF 37 / PA; Reorom Multi Defense Daily Sun Block; Repairwear Anti -aging Makeup SPF 15; Repara; Repaskids Facial / Body Broad Spectrum SPF30; Repaskids Facial / Body Broad Spectrum SPF50; Replenishing Sunscreen SPF 36; Resist Ultimate Hand Cream Broad Spectrum SPF 30; Resist Wrinkle Defense SPF 30 Paulas Choice; Reverse It Kit; Revitalizing C I2pl Stemcell Bb; Revlon Age Defying 3x Concealer; Revlon Age Defying All Day Lifting Foundation SPF 20 (9 Shades); Revlon Age Defying Light Make Up SPF 30; Revlon Age Defying Makeup & Concealer Compact SPF 20; Revlon Age Defying Moisturizing Concealer; Revlon Colorstay Active Light Makeup SPF 25; Revlon Colorstay Light Cover Foundation; Revlon Colorstay Liquid Makeup for Normal to Dry Skin; Revlon Colorstay Liquid Makeup for Oily to Combination Skin; Revlon Colorstay Preo and Protect Primer; Revlon Colorstay Stay Natural Makeup SPF 12 (ethnic Shades-toast, Caramel, Cappucino); Revlon Colorstay Stay Natural Makeup SPF 15 ( Shades- Ivory, Buff, Nude, Sand Beige, Natural Beige, Medium Beige, Honey Beige, True Beige, Natural Tan); Revlon New Complexion Even Out Makeup; Revlon Photoready Airbrush Effect Makeup; Revlon Photoready Concealer; Revlon Photoready Insta-fix Makeup; Revlon Skinlights Diffusing Tint SPF 15; Revlon Skinlights Diffusing Tint SPF 15 (shade - Caramel); Revlon Skinlights Illusion Wand SPF 12 (luminous Touch, Light Touch, Medium Touch); Revlon Youth FX; Ribotin-E; Rides & Éclat CRème Resplendissante Jour Fps 20; Riptide Sunscreen Tinted; Riptide Sunscreen White; Rite Aid Calamine; Rite Aid Diaper Rash; Rite Aid RENEWAL baby sunscreen SPF 60; Rite Aid Renewal Sunscreen; Rite Aid Zinc Oxide; Rite Aid Zinc SPF 50; Riversol Lightweight Broad Spectrum Sunscreen Spf 30; Riversol SPF 40 Weightless Body Sunscreen; Roc Minesol SPF 40; Roccos Old School Healing Balm; Rodan & Fields Proactiv Solution: Oil Free Moisture With SPF 15; Rodan Fields UNBLEMISH Regimen for Acne, Blemishes and Breakouts; Roderm Protecting SPF 28 Sunscreen; Roman Broad Spectrum SPF 28 Sunscreen Face Moisturizer; Roris Shiny Cc Spf37 Pa Plus Plus Plus; Rory Broad Spectrum SPF 28 Sunscreen Face Moisturizer; Rosaclear Skin Balancing Sun Protection Broad Spectrum SPF 30 Suncreen; Rosaclear Skin Balancing Sun Protection SPF 30 Suncreen; Rose Sil Vous Plait Spf30 Gentle Mineral Sunscreen; Rosease By Anna Lotan Gentle Daytime Broad Spectrum SPF 30; Rosehip and Lemongrass Lip SPF 15; Rough Dry; Round Around Grrentea Cica Sun Zinc Oxide; Roundaround Grrentea Cica Sun Zinc Oxide; Roven SuperBloom Glow Defense Cream; Royal Jelly Radiance Foundation Broad Spectrum SPF 20 Earth; Royal and Ancient Suncreen; Ruby Cell 4u Sun; Ruby-Cell 4U Plus Sun; Rugby Barrier Cream; Rugby Zinc Oxide; Rugby Zinc Oxide 20%; Rugid Sunscreen; Rv Paque - Ont; Rv Paque Ont; S-Cream ZINC OXIDE 13%; S-Oint DIAPER RASH AND SKIN PROTECTANT; S-Oint PRODERM SKIN PROTECTANT; S.O.S Cream Intensive Moisturizing Skin Protectant; S.O.S Repair Cream; S4 Sunscreen Stick SPF30; SANTO REMEDIOS Piel Eterna Radiance Sunscreen Primer SPF-42; SCREENSES Tinted facial make-up cream; SDARA Skincare Mineral Sunscreen SPF-30; SEA STAR SPARKLE SPF 50 Glitter Sunscreen Coco Lime; SEA STAR SPARKLE SPF 50 Glitter Sunscreen Cotton Candy; SEA set and protect mineral sunscreen Broad Spectrum SPF 30 translucent; SEA set and protect mineral sunscreen Broad Spectrum SPF 30 translucent deep; SEAWEED BATH CO Cooling Mist SPF-60 Sport; SEAWEED BATH CO Everyday Mineral SPF 40; SENSAI TRIPLE TOUCH COMPACT TC01 Sample; SENSAI TRIPLE TOUCH COMPACT TC02 Sample; SEPHORA Bronze Perfect CC sunscreen broad spectrum SPF 20; SEPHORA Skin Perfect CC Sunscreen Broad Spectrum SPF 20 DARK; SEPHORA Skin Perfect CC Sunscreen Broad Spectrum SPF 20 DEEP; SEPHORA Skin Perfect CC Sunscreen Broad Spectrum SPF 20 FAIR; SEPHORA Skin Perfect CC Sunscreen Broad Spectrum SPF 20 LIGHT; SEPHORA Skin Perfect CC Sunscreen Broad Spectrum SPF 20 MEDIUM; SEPHORA Skin Perfect CC Sunscreen Broad Spectrum SPF 20 MEDIUM-TAN; SEPHORA Skin Perfect CC Sunscreen Broad Spectrum SPF 20 TAN; SETZ Sunscreen Mineral Powder SPF 30; SHADE and ILLUMINATE SOFT RAD PRMR SPF; SHEER DEFENSE Mineral Sunscreen Broad Spectrum SPF 30; SHISEIDO FUTURE solution LX UNIVERSAL DEFENSE E; SHISEIDO URBAN ENVIRONMENT Oil-FREE UV PROTECTOR; SHISEIDO URBAN ENVIRONMENT Oil-Free SUNSCREEN SPF 42; SHISEIDO URBAN ENVIRONMENT oil-FREE UV PROTECTOR; SHISEIDO URBAN ENVIRONMENT oil-free MINERAL SUNSCREEN SPF 42; SILKEN pore perfecting sunscreen broad spectrum SPF 35; SIMPLI DAY All In One SmartCream SPF 42; SIROT 24-Hour Hand Care Kit Transformative Glass Technology Age-Fighting Protection Day And Night; SIROT 24-Hour Hand Care Transformative Glass Technology Age-Fighting Protection Day and Night; SIROT Essential Day Transformative Glass Technology Anti-Aging Sunscreen Broad Spectrum SPF 20; SIROT The Complete Beauty Experience Transformative Glass Technology The First Steps to Younger Looking Skin; SK-II Facial Treatment UV Protection SPF 25; SKIN 79 Super Plus Beblesh Balm SPF25 PA (40g); SKIN 79 Super Plus Beblesh Balm Triple Functions SPF25 PA (40g); SKIN 79 The Prestige Beblesh Balm (40g); SKIN 79 The Prestige Beblesh Balm (5g); SKIN LONG-WEAR FLUID powder FOUNDATION BROAD SPECTRUM SPF 20; SKIN79 Super Plus Beblesh Balm Triple Functions SPF25 PA (5g); SKINFOOD ALOE SUN BB 02 Natural Skin; SLMD UV Bounce shade 001; SLMD UV Bounce, shade 002; SLMD UV Bounce, shade 003; SOLAR SENSE CLEAR ZINC SUNSCREEN BROAD SPECTRUM SPF 50 Plus; SOLAR SENSE CLEAR ZINC SUNSCREEN Baby Tear Free FACE AND BODY BROAD SPECTRUM SPF 50; SOLAR SENSE CLEAR ZINC SUNSCREEN Baby Tear Free FACE and BODY BROAD SPECTRUM SPF 50 PLUS; SOLAR SENSE CLEAR ZINC SUNSCREEN FACE and BODY BROAD SPECTRUM SPF 50; SOLAR SENSE CLEAR ZINC SUNSCREEN FACE and BODY BROAD SPECTRUM SPF 70; SOLAR SENSE CLEAR ZINC SUNSCREEN FACE and BODY SPORT BROAD SPECTRUM SPF 50 Plus; SOLAR SENSE CLEAR ZINC SUNSCREEN FACE and LIPS BROAD SPECTRUM SPF 50; SOLAR SENSE CLEAR ZINC SUNSCREEN FACE and LIPS BROAD SPECTRUM SPF 50 Plus; SOLAR SENSE CLEAR ZINC SUNSCREEN FACE and LIPS BROAD SPECTRUM SPF 70; SOLAR SENSE CLEAR ZINC SUNSCREEN SPORT BROAD SPECTRUM SPF 50 Plus; SOOTHE Daily Mineral Sunscreen; SOOTHE Regimen for Sensitive Skin; SOOTHE Regimen for Sensitive Skin Travel Size; SOQU Watery Chamomile Sun Cream; SPF 15 Brightening Moisturizer; SPF 15 Lip Balm Key Lime; SPF 15 Lotion; SPF 15 Lotion W/bronzer; SPF 15 Spray Gel W/bronzer; SPF 16 Age-defying Treatment Serum; SPF 16 Brightening; SPF 20; SPF 20 Loose Mineral Foundation; SPF 30; SPF 30 Broad Spectrum Suncreen Epione; SPF 30 Concealer; SPF 30 Daily Sunscreen; SPF 30 Face; SPF 30 Fps; SPF 30 Mineral Sun Stick; SPF 30 Mineral Sunscreen; SPF 30 Mineral Sunscreen Face Neck; SPF 30 Moisturizing Defense Day Cream; SPF 30 Moisturizing Defense Eye Cream; SPF 30 Moisturizing Facial Sunscreen Cvs Health; SPF 30 Oil-Free Moisturizer; SPF 30 Pure Mineral Face Body Sunscreen; SPF 30 Signature High Performance Sunscreen; SPF 30 Signature High Performance Sunscreen Clear Face; SPF 30 Sport Sunscreen; SPF 30 Sunscreen; SPF 30 Sunscreen Stick; SPF 30 tinted mineral moisturizer Sand; SPF 30 tinted mineral moisturizer Sheer; SPF 32 Daily Suscreen Ghost Democracy; SPF 40; SPF 50; SPF 50 Broad Spectrum Ultrathon; SPF 50 Face Cream; SPF 50 Facial Sunscreen; SPF 50 Mineral Sunscreen Babyganics; SPF 50 Mineral Sunscreen bkids; SPF 50 Moisturizing Sunscreen Broad Spectrum; SPF 50 Sheer Mineral Sensitive Sunscreen; SPF 50 Signature High Performance Sunscreen; SPF 50 Sunscreen; SPF 50 Sunscreen Stick; SPF 50 Super Shield Sport Sunscreen; SPF 50 Tinted Face Mineral Fragrance Free Sunscreen; SPF 50 plus Sunscreen; SPF 50 plus Sunscreen All Mineral Active Ingredients; SPF 60 Baby Sunscreen Stick; SPF 8 Lip Moisturizers; SPF 8 Lotion; SPF Beauty; SPF Fps 15 Mentha Lip Balm Stick; SPF Multitaskers Mini Set; SPF Rx - Mineral Sunscreen SPF 30; SPF Rx - Mineral Sunscreen SPF 40; SPF Rx - Mineral Sunscreen SPF 50; SPF Rx - Ultra-Clear Daily Skin Hydrator SPF 50; SPF Ventures Brush on Block; SPF-30 Bb; SPF-30 SPORT moisturizer; SPF-40 facial moisturizer; SPF-45 Sunscreen; SPF30 Daily Moisturizer with Sunscreen; SPF50 Plus Mineral Sunscreen; SPF50 Sunscreen; SRB 3 Lighting White BB; STAY HOT BURN NOT Broad Spectrum SPF 25 Sunscreen; STEBLANC WATER CC PACT 21 Light Beige; STEBLANC WATER CC PACT 23 Natural Beige; SUBLIME DEFENSE Anti-Aging Blurring Moisturizer SPF 30; SUN Solar Defense Hydrating; SUN Solar Defense Oil-free SPF 30; SUN Solar Defense Organic SPF30; SUN Tinted Solar Defense Organic SPF 30; SUN and SHINE MINERAL SUNSCREEN; SUNNY Q Broad Spectrum SPF-30; SUNSHINE SKIN TINT BROAD SPECTRUM SPF 30 Sunscreen; SUNZEE Broad Spectrum SPF 40 Sunscreen; SUPER BB All-in-1 Beauty Balm Powder SPF 30; SUPER ORIGIN COLLAGEN WATERPROOF BB 45g; SUPER SOLAIRE sun sensitive areas tinted SPF 30; Sable Long Wear Makeup Broad Spectrum SPF 20; Sable Radiance Foundation Broad Spectrum SPF 20 - Tawny JAFRA; Sachet Active Argan 02.3 Plasma Pro 50 Featherweight Day Broad Spectrum SPF 20 With Proprietary A.P.I. and Activated Argan Complex; Saemmul A Clean BB; Saemmul Cover Foundation 01 Light Beige; Saemmul Cover Foundation 02 Natural Beige; Saemmul Moist BB 01 Light Beige; Saemmul Moist BB 02 Natural Beige; Saemmul O il Control Cushion 01 Light Beige; Saemmul O il Control Cushion 02 Natural Beige; Saemmul Perfect Pore BB 01 Light Beige; Saemmul Perfect Pore BB 02 Natural Beige; Saemmul Perfect Pore Cushion 01 Light Beige; Saemmul Perfume BB Pact 21 Pink Beige; Saemmul Perfume BB Pact 23 Cover Beige; Safe Harbor - Natural - Sensitive SPF50 Broad Spectrum; Safe Harbor - Natural Anti-Aging Sunscreen Broad Spectrum SPF30 Sunscreen Sensitive Skin; Safe Harbor - Natural Sunscreen - Baby and Kids SPF50 Broad Spectrum Sunscreen; Safe Harbor - Natural Sunscreen Face and Neck Cream Broad Spectrum SPF40 Sunscreen; Safe Harbor Natural Suncare Broad Spectrum; Safe Harbor Natural Suncare Natural Face and Neck Broad Spectrum; Safe Harbor Natural Suncare Natural Sheer Mineral; Safe Sea; Safe Sea SPF 50; Safe Sea SPF 50 KIDS; Safe Sea SPF 60; Safe Sea Sunscreen With Jellyfish Sting Protective SPF 15; Safe Sea Sunscreen With Jellyfish Sting Protective SPF 50; Sage And Zinc Facial Hydrating SPF 15; Sage and Zinc Facial Hydrating SPF15; Saie Slip Cover Broad Spectrum SPF 35 Sunscreen Tinted Moisturizer Eight; Saie Slip Cover Broad Spectrum SPF 35 Sunscreen Tinted Moisturizer Five; Saie Slip Cover Broad Spectrum SPF 35 Sunscreen Tinted Moisturizer Four; Saie Slip Cover Broad Spectrum SPF 35 Sunscreen Tinted Moisturizer Nine; Saie Slip Cover Broad Spectrum SPF 35 Sunscreen Tinted Moisturizer One; Saie Slip Cover Broad Spectrum SPF 35 Sunscreen Tinted Moisturizer Seven; Saie Slip Cover Broad Spectrum SPF 35 Sunscreen Tinted Moisturizer Six; Saie Slip Cover Broad Spectrum SPF 35 Sunscreen Tinted Moisturizer Three; Saie Slip Cover Broad Spectrum SPF 35 Sunscreen Tinted Moisturizer Two; Saie Sunvisor Broad Spectrum SPF 35 Sheer Moisturizer; Salonpas Medicated Plaster; Salt and Stone Mineral Sunscreen SPF 50; Salt and Stone Natural Mineral Sunscreen SPF 30; Salt and Stone Natural Mineral Sunscreen SPF 50; Salt and Stone SPF 30 Sunscreen; Salt and Stone SPF 30 Sunscreen stick; Salt and Stone Sunscreen Lip Balm SPF 30; Salt and Stone Tinted Sunscreen SPF 50; Salt and stone Stussy SPF 50 Tinted Sunscreen Stick; Scar Zone Scar Cream; Scar Zone Topical Scar Diminishing; ScarScreen; Scott-Vincent Borba Anti-Fatige 8 Hour Mineral Foundation with Broad Spectrum SPF 29; Scout SPF-50; Screen; Se-Care Chewable; Se-Care Conceive; Se-Natal; Se-Natal 19; Se-Natal 19 Chewable; Se-Natal One; Se-Plete DHA; Sea & Ski SPF 50 Advanced Sunblock; Sea & Ski SPF 50 Baby Sunblock; Sea & Ski SPF 50 Faces Sunblock; Sea & Ski SPF 50 Kids Sunblock; Sea & Ski SPF 50 Platinum Sunscreen; Sea & Ski Sport SPF 50; Sea Star Sparkle SPF-50 MANGO-TANGO; Sea Star Sparkle SPF-50 PARTY CAKE; Sea Star Sparkle SPF-50 VERY BERRY; Seavenger ocean kiss sunscreen SPF 30; Seavenger ocean kiss sunscreen SPF 50; Seaweed Bath Co. SPF 50 Sport; Seaweed Bath Co. SPF-30; Secret Key Thanakha Mild SunCream SPF47 PA PLUS PLUS PLUS; Secura EPC Skin Care Starter Kit; Secura Extra Protective; Secura Extra Protective Cream; Secura Protective; Secura Two Step Kit; Sei Bella CC Brightening Creme Fair; Sei Bella CC Brightening Creme Light; Sei Bella CC Brightening Creme Medium; Sei Bella CC Brightening Creme Medium Tan; Sei Bella Tinted BB Moisturizing Creme Deep 550 N; Sei Bella Tinted BB Moisturizing Creme Light to Medium 160 N; Sei Bella Tinted BB Moisturizing Creme Light to Medium 200 N; Sei Bella Tinted BB Moisturizing Creme Medium 300 W; Sei Bella Tinted BB Moisturizing Creme Medium 320 C; Sei Bella Tinted BB Moisturizing Creme Medium 440 N; Sei Bella Tinted BB Moisturizing Creme Medium to Deep 450 W; Sei Bella Tinted BB Moisturizing Creme Medium to Deep 500 W; Sei Bella Tinted BB Moisturizing Creme Sheer to Light 140 N; Sei Bella Tinted BB Moisturizing Creme Sheer to Light 20 N; Sekkisei Treatment Bb 00; Sekkisei Treatment Bb 01; Selan +; Selan Plus Zinc; Selan Plus Zinc Oxide; Select Brand Calamine; Select OB; Select SPF 15 Moistureblend Foundation; Select-OB Plus DHA Prenatal Supplement Plus DHA; Self Defense Mineral Sunscreen Fluid SPF 34; Self Reflect Probiotic Sunscreen Moisturizer Broad Spectrum SPF 32; Sensai Silky Bronze Sun for Face Spf30; Sensai Triple Touch Compact Tc01; Sensai Triple Touch Compact Tc02; Sensai Triple Touch Compact Tc03; Sensi Care Clear Zinc; Sensi Care Protective Barrier; Sensi-Care; Sensible SPF 32 Mineral Sunscreen; Sensitif Eye US SPF 30 Broad Spectrum UVA UVB Sunscreen PA; Sensitive Day Cream With Uv-protection; Sensitive Skin 10 oz; Sensitive Skin 3 oz; Sensitive Skin 8 oz; Sente Daily Repair Complex SPF 30; Serena Williams Lip Balmer SPF 15; Seriously Soothing Face Cream; Serum Crema Broad Spectrum SPF20 Sunscreen; Sesderma SESPREVEX Calming and protecting foam; SetonET; SetonET-EC; Sfl Sunscreen - Sol Defense SPF 30; Shade and Illuminate Soft Radiance Foundation SPF 50; Sharx - SunBreaker Moisturizing Sunscreen SPF55 Broad Spectrum; Shea Moisture Gotu Kola and Raspberry Seed Oil Broad Spectrum SPF 20 Daily Sunscreen; Shea Moisture Gotu Kola and Raspberry Seed Oil Broad Spectrum SPF 25 Daily Sunscreen; Shea Moisture SPF 35 Mineral Sunscreen; Sheer Broad Spectrum SPF 30; Sheer Broad Spectrum SPF45; Sheer Cover Mineral Foundation SPF-15 Almond; Sheer Cover Mineral Foundation SPF-15 Bisque; Sheer Cover Mineral Foundation SPF-15 Buff; Sheer Cover Mineral Foundation SPF-15 Frost; Sheer Cover Mineral Foundation SPF-15 Golden; Sheer Cover Mineral Foundation SPF-15 Latte; Sheer Cover Mineral Foundation SPF-15 Mocha; Sheer Cover Mineral Foundation SPF-15 Nude; Sheer Cover Pressed Mineral Foundation SPF 12; Sheer Cover Shade Adapting Mineral Foundation SPF-15 Dark; Sheer Cover Shade Adapting Mineral Foundation SPF-15 Light; Sheer Cover Shade Adapting Mineral Foundation SPF-15 Medium; Sheer Cover Shade Adapting Mineral Foundation SPF-15 Tan; Sheer Daily Wear Face Protection Mineral Based Sunscreen SPF 16; Sheer Defense Tinted SPF 46; Sheer Face; Sheer Finish Tinted Moisturizer Dark SPF 15; Sheer Finish Tinted Moisturizer Fair SPF 15; Sheer Finish Tinted Moisturizer Light SPF 15; Sheer Finish Tinted Moisturizer Medium SPF 15; Sheer Finish Tinted Moisturizer Medium-Beige SPF 15; Sheer Finish Tinted Moisturizer Warm Beige SPF 15; Sheer Fluid Sun Shield Broad Spectrum SPF 30; Sheer Focus Tinted Moisturizer; Sheer Focus Tinted Moisturizer Dark SPF 15; Sheer Focus Tinted Moisturizer Fair SPF 15; Sheer Focus Tinted Moisturizer Light SPF 15; Sheer Focus Tinted Moisturizer Medium SPF 15; Sheer Focus Tinted Moisturizer With Uva/uvb SPF 15; Sheer Glow; Sheer Glow Even Tone Mineral Moisturizer SPF30; Sheer Matte SPF 30; Sheer Moisture; Sheer Sunscreen SPF 30 Wegmans; Sheer Sunscreen SPF 50 Wegmans; Sheer Tint Moisture - Dark; Sheer Tint Moisture - Light; Sheer Tint Moisture - Medium; Sheer Tint Moisturizer SPF 15 ASAP Skin Products; Sheer Tint SPF 30; Sheer Tint SPF20 - Dark; Sheer Tint SPF20 - Light; Sheer Tint SPF20 - Medium; Sheer Zinc SPF 30; SheerZinc SPF 30 Tinted - Nude; SheerZinc SPF 30 Tinted - SunKissed; SheerZinc SPF 30 Tinted - Tan; Sheet SPF 30 Mineral; Sheet Tint Eye SPF 30; Sheffield Zinc Oxide; Shield; Shield and Protect Barrier Cream; Shimmershade Broad Spectrum SPF 30 First Light; Shimmershade Broad Spectrum Sunscreen SPF 30 Day Dream; Shimmershade Broad Spectrum Sunscreen SPF 30 Golden Hour; Shimmershade Broad Spectrum Sunscreen SPF 30 Sunset; Shine Control Mattifying Makeup SPF 15 (medium Beige, Natural Beige and Buff); Shine Control Mattifying Makeup SPF 15 (natural Tan and Toast); Shine Control Mattifying SPF 15 (caramel); Shine On Living 30A Broad Spectrum SPF 30 Sunscreen; Shineblock; Shiseido Extra Smooth Sun Protection Cream SPF 38; Shiseido Extra Smooth Sun Protection Lotion SPF 34; Shiseido Extra Smooth Sun Protection N; Shiseido Future Lx Universal Defense; Shiseido Sun Protection Eye; Shiseido Sun Protection Eye Cream SPF 32; Shiseido Suncare Extra Smooth; Shiseido Suncare Ultimate; Shiseido Ultimate Sun Protection; Shiseido Ultimate Sun Protection Plus; Shiseido Ultimate Sun Protection S; Shiseido Ultimate Sun Protector; Shiseido Ultra Sun Block Lotion SPF 50; Shiseido Ultra Sun Protection Cream SPF 50; Shiseido Ultra Sun Protection Lotion SPF 50; Shiseido Urban Environment Oil-free Uv Protector; Shiseido Urban Environment Uv Protection; ShopKo Absolute Daily Moisturizer SPF15 Sensitive Skin; Shopko Diaper Rash Maximum Strength; Shopping Annuity Brand Premium Sunscreen; Shower To Shower Deod. Body Pwr 5%; Shunly Radiant Translucent SPF 40; Shunly Radiant Translucent Tinted SPF 40; Shunly Zn20 Light Moisturizer; Shunly Zn20 Tinted Light Moisturizer; Siero Co Aqua Cushion Foundation 13 Light Beige; Siero Co Aqua Cushion Foundation 21 Natural Beige; Siero Co Aqua Cushion Foundation 23 Rosy Beige; Siero Double Co Aqua Cc Cushion 13 Light Beige; Siero Double Co Aqua Cc Cushion 21 Natural Beige; Siero Double Co Aqua Cc Cushion 23 Rosy Beige; Siero Tyrian Red Cushion 13 Light Beige; Siero Tyrian Red Cushion 21 Natural Beige; Siero Tyrian Red Cushion 23 Rosy Beige; Signature SPF 50 Clear Face; Silagen; SilkShield All Mineral Sunscreen with TriHex Technology; Simple Truth Mineral Based SPF 30 Sunscreen; Simple Truth Mineral Based SPF 50 Sunscreen; Simply b, MD Daily Clear; Sinsinpas Arex Instant Pain Relief (not for Sale); Sinsinpas Arex Instant Pain Relief Small; Siorisyou Are My Shining Sunscreen; Sirot Daytime Hand Perfection Transformative Glass Technology Moisturizing Sunscreen Broad Spectrum SPF 20; Sirot Hand and Body Trio Transformative Glass Technology Complete Age Resistance Day and Night; Sirot Hand and Body Trio Transformative glass Technology Complete Age Resistance Day and Night; Sirot complete Hand Care Collection Transformative Glass Technology Hydrate Restore Protect; Sk1n Natural Sunscreen SPF 20; Sk1n Natural Sunscreen SPF 40; Skin Balancing Face Primer SPF 20 Sunscreen; Skin Brightening Face Primer SPF 20 Sunscreen; Skin Brightening SPF 50 Pa; Skin Brightening Spf50; Skin Bronzing Face Primer SPF 20 Sunscreen; Skin Calming Face Primer SPF 20 Sunscreen; Skin Crave All Natural SPF30; Skin Crave SPF30 Sun Stick; Skin Long-wear Fluid Powder Foundation SPF 20; Skin Mattifying Face Primer SPF 20 Sunscreen; Skin Protectant; Skin Rejuvenating Daily Moisturizer Broad Spectrum SPF 30 Sunscreen; Skin Renewing Day Cream; Skin Soothing Mineral Sunscreen Broad Spectrum SPF 40 Supergoop; Skin Tint FX; Skin-E-dip Ont; Skin-Perfecting Mineral Beauty Balm Broad Spectrum SPF 20; Skin79 Snail Nutrition Bbcream; SkinCeuticals Daily Sun Defense Broad Spectrum SPF 20 Sunscreen; SkinCeuticals Physical Eye UV Defense Sunscreen; SkinCeuticals Physical Fusion UV Defense Broad Spectrum SPF 50 Sunscreen; SkinCeuticals Physical Matte UV Defense Broad Spectrum SPF 50 Sunscreen; SkinCeuticals Physical UV Defense Broad Spectrum SPF 30 Sunscreen; SkinCeuticals Sheer Physical UV Defense Broad Spectrum SPF 30 Sunscreen; SkinCeuticals Sheer Physical UV Defense Broad Spectrum SPF 50 Sunscreen; SkinCeuticals Ultimate UV Defense Broad Spectrum SPF 30 Sunscreen; SkinMedica Daily Physical Defense SPF 30 Sunscreen; SkinMedica Environmental Defense Sunscreen SPF 50; SkinMedica TNS Ultimate Daily Moisturizer Sunscreen SPF 20; SkinMineralZ Viniferamine; SkinPerfect Primer SPF 30; SkinTx Daily Defense SPF 45; SkinTx UV Pro Broad Spectrum SPF30; SkinTx UV Pro Broad Spectrum SPF45; Skinceuticals Daily Sun Defense SPF 20; Skinceuticals Sport Uv Defense SPF 45; Skinceuticals Uv Defense SPF 30; Skinfood Aloe Sun Bb; Skinfood Aloe Watery Sun Waterproof; Skinfood Miracle Food 10 Solu Tion Sun Essence; Skinfood Vita Water Drop Cc; Skinfuse Shield SPF 30; Skinlycious Multi Protection Mineral Sunscreen Broad Spectrum SPF 30; Skinsuit Face SPF 50; Skinsuit Lip SPF 30; Skintint Fx; Skinuva Scar plus; Skylake Sunscreen; Skylark; Slim Fit Moist SPF 50; Slim Fit SPF 50 Pa; Slip Tint Broad Spectrum SPF 35 Tinted Moisturizer; Smart Stuff Natural Lip Treatment SPF15 4g; Smart Stuff SPF30 4oz; Smart Sunblock Puff; Smarth PeriShield; Smashbox Camera Ready Bb Cream Eyes SPF 15; Smashbox Camera Ready Bb Water SPF 30; Smashbox Halo Healthy Glow All-IN-one Tinted Moisturizer Broad Spectrum SPF 25; Smashbox Sheer Focus Tinted Moisturizer Luminous SPF15; Smoothing TRIO; Snail Bb 01; Snail Bb 02; Snail Essential EX Origin BB 21 Light Beige; Snail Essential EX Origin BB 23 Natural Beige; Snail Essential EX Wrinkle Soluti on Sun Crea m; Snail Essential EX Wrinkle Sun; Snail Repair Blemish Balm; Snail Solu Tion Bb 02; Snail Therapy 50 Bb Spf30 Pa Plus Plus No1; Snail Therapy 50 Bb Spf30 Pa Plus Plus No2; Snail Therapy Pact 21 Spf25 Pa Plus Plus; Snail Therapy Pact 23 Spf25 Pa Plus Plus; SnowBalm Adult; SnowBalm Baby; SnowSkin Face Sunscreen; SnowSkin Sunscreen; SnowSkin Sunscreen Zinc; Snowberry; SnugZ SPF 50 Sunscreen Stick; SnugZ Zinc SPF 50 Sunscreen Stick; Softlips Pure Lip Butter Vanilla Berry; Softlips Pure Lip Gloss Coral; Softlips Pure Lip Gloss Natural; Softlips Pure Lip Gloss Pink; Softlips Pure Tint Coral; Softlips Pure Tint Natural Honesty; Softlips Pure Tint Shell Pink; Sol Protect; SolScents Clear Face Flower Blast Broad Spectrum spf 50; Solaire Peau Parfaite 100 Mineral Fluid Flawless Skin; Solaire Peau Parfaite 100 Mineral Sunscreen; Solaire Peau Parfaite 100% Mineral Fluid Flawless skin; Solaire peau Parfaite Mineral Screen SPF 30; Solar Defender SPF 30; Solar Defense Non Tinted; Solar Defense Tinted; Solar Goo; Solar Protect SPF 30; Solar Protection Formula LipTect Lip Balm/Sunscreen; Solar Protection Formula SPF 58 Sunscreen; Solar Protection Formula SPF 60 Tinted Concealer - (Beige) Sunscreen; Solar Protection Formula SPF 60 Tinted Concealer - (Blush) Sunscreen; Solar Protection Formula SPF 60 Tinted Concealer - (Honey) Sunscreen; Solar Protection Formula SPF 65 Sunscreen; Solar Protection Formula TiZO Body Sunscreen; Solar Protection Formula TiZO SPF 35 Sunscreen; Solar Sense Clear Sun Protection; Solar Sense Clear Zinc; Solar Sense Clear Zinc Baby; Solar Sense Clear Zinc Body SPF 50; Solar Sense Clear Zinc For Face And Lips SPF 50; Solar Sense Clear Zinc For Face Sunscreen SPF 70; Solar Sense Clear Zinc Sport Body SPF 50; Solar Sense Clear Zinc Sunscreen Value Pack 50 Plus; Solar Sense Face & Lip Protection - SPF-30; Solar Sense Face & Lip Protection W/SPF 45; Solar Sense Face Sense - Spf30; Solar Sense Kids Protection - SPF-30; Solar Sense Outdoor Sports Protection - SPF-30; Solar Sense SPF 45 for Face, Nose and Lips; Solar Sense Sun Damage Restoration Body SPF 15; Solar Sense Zany Zinc SPF 50 - Blue; Solar Sense Zany Zinc SPF 50 - Green; Solar Sense Zany Zinc SPF 50 - Pink; Solar Sense Zany Zinc SPF 50 - White; Solar Sense Zany Zinc SPF 50 - Yellow; Solar Sense for Visible Sun Damage Restoration Daily Facial Cream SPF 15; Solara Suncare - Clean Freak SPF-30 Naturally Scented; Solara Suncare - Clean Freak SPF-30 Unscented; Solara Suncare - Glow Getter SPF-30 Naturally Scented; Solara Suncare - Pout Protector SPF-15; Solara Suncare - Time Traveler SPF-30 Unscented; Solbar; Solbar Shield SPF40; Solbar Zinc SPF38; Solco platino plus uv sun; Soleil Broad Spectrum SPF-15; Soleil Broad Spectrum SPF-30; Soleil Broad Spectrum SPF-50; Soleil Glow Tone Up Foundation SPF 45 Hydrating Cushion Compact; Soleil Toujours Perpetual Radiance Broad Spectrum SPF 20; Soleo Organics Sunscreen; Solthera SPF 30; Solvaderm - Dermaxsol; Sonage Protec Plus SPF 30 Mineral Sunscreen; Sonatural Pow Der4room Cover Fixing Cushion 21.5; Sonatural Pow Der4room Cover Fixing Cushion 23.5; Sonatural Pow Der4room Fixing It Full Cover Neutral Beige; Sonatural Pow Der4room Fixing It Full Cover Vanilla Beige; Sooryehan Bichaek Jadan Sun; Sooryehan Jadan Sun Mild; Soothe and Cool Protect; Source Vital apothecary sunshade SPF 30; Spai-sons Fine Talcum; Sparkle Screen Broad Spectrum 30 Glittering Gold Kiwi-Pear Scented; Spela Vibe Cushion B21; Spela Vibe Cushion B23; Spf30; Spf30 Sheer Touch Facial Sunscreen; Spf30 Sheer Touch Tinted Sunscreen Light - Medium; Spf30 Sheer Touch Tinted Sunscreen Medium - Dark; Spf50 Sheer Glow Balm Trio; Spit and Polish Mineral Face SPF 30; Spit and Polish Mineral Lip Balm Broad Spectrum Lip Protectant SPF 30; Spit and Polish Sun Smart Sunscreen; Sport 50 SPF50; Sport Broad Spectrum SPF50 Water Resistant 80 minutes Mineral Sunscreen UVA UVB Protection Stick; Sport Mineral Sun; Sport Mineral Tinted Sun - Light; Sport Mineral Tinted Sun - Medium; Sport Natural Mineral Body Sunscreen; Sport Natural Mineral Sunscreen Broad Spectrum SPF 30; Sport Natural Mineral Tinted Sunscreen; Sport Sunscreen SPF 50 Daylogic; Sport Sunscreen SPF 50 TopCare; Sport Sunscreen SPF 50 Wegmans; Sprayable Diaper Rash Cream; Squalane Zinc Sheer Mineral Sunscreen; Squalane plus Mineral SPF 45; Starter Set Dry/Normal Skin; Starter Set Oily/Normal Skin; State-48 Suncare Mineral SPF-30; Stay Ageless Daily Moisturizer Broad Spectrum SPF 30 Sunscreen; Stay Ageless Daily Moisturizer Mineral Sunscreen Broad Spectrum SPF 30; Stay Ageless Daily Moisturizer Mineral Sunscreen Broad Spectrum SPF30; Stay Ageless Daily Moisturizer Mineral Sunscreen Broad Spectrum SPF30 cream; Stay Ageless Daily Moisturizer Sunscreen Broad Spectrum SPF 25; Stay Ageless Daily Moisturizing Sunscreen Broad Spectrum SPF 25; Stay Ageless Tinted Mineral Sunscreen Broad Spectrum SPF 30; Stay Ageless Tinted Mineral Sunscreen Broad Spectrum SPF30; Stay Ageless Tinted Moisturizer Mineral Sunscreen Broad Spectrum SPF 30; Stay All Day 10-in-1 Bronzing Skin Veil Broad-Spectrum SPF 30 Sunscreen Water Resistant 80 minutes Bronzing; Stay All Day 10-in-1 Illuminating Skin Veil Broad-Spectrum SPF 30 Sunscreen Water-Resistant 80 minutes KITTEN; Stay All Day 10-in-1 Illuminating Skin Veil Broad-Spectrum SPF 30 Sunscreen Water-Resistant 80 minutes Kitten Illuminating; Stay All Day 10-in-1 Mattifying Skin Veil Broad-Spectrum SPF 30 Sunscreen Water-Resistant 80 minutes Mattifying; Stem Cellular CC Cream beach glow; Stem Cellular CC Cream deep glow; Stem Cellular CC Cream desert glow; Stem Cellular CC Cream natural glow; Stem Cellular CC Cream rosy glow; Stem Cellular CC Cream sun-kissed glow; Stem Cellular CC Cream warm glow; Stila Bronzing Tinted Moisturizer SPF 15; Stila Color Correcting Broad Spectrum SPF 20 (All Shades); Stila Oil Free Tinted Moisturizer Dark 01 SPF 30; Stila Oil Free Tinted Moisturizer Dark 02 SPF 30; Stila Oil Free Tinted Moisturizer Light 02 Bare SPF 30; Stila Oil Free Tinted Moisturizer Light 03 SPF 30; Stila Oil Free Tinted Moisturizer Medium 01 SPF 30; Stila Oil Free Tinted Moisturizer Medium 02 SPF 30; Stila Oil Free Tinted Moisturizer Medium 03 Dark SPF 30; Stila Oil Free tinted Moisurizer Light 01 Fair SPF 30; Stila Petal Infusions Skin Visor SPF 50 Sunscreen; Stila Sheer color tinted moisturizer BS SPF20 (All Shades); Stila Stay All Day 10-in-1 HD Beauty Balm Broad Spectrum SPF 30; Stila Stay All Day 10-in-1 HD Illuminating Beauty Balm Broad Spectrum SPF 30; Stila illuminating tinted moisturizer broad spectrum SPF 20 (All Shades); Stop The Clock Broad Spectrum SPF 50; Stout Daily SPF for Men; StriVectin Advanced SPF Full Screen SHEER AND TINTED; StriVectin Advanced SPF Full Screen Vanishing Tint; Strovite One Caplets; Studio 35 External Analgesic Medicated Body; Studio Look Base de alta cobertura para el rostro con FPS 20 Almendra 230-N; Studio Look Base de alta cobertura para el rostro con FPS 20 Avellana 270-C; Studio Look Base de alta cobertura para el rostro con FPS 20 Avena 170-N; Studio Look Base de alta cobertura para el rostro con FPS 20 Azucar Blanca 110-C; Studio Look Base de alta cobertura para el rostro con FPS 20 Azucar Moreno 300-N; Studio Look Base de alta cobertura para el rostro con FPS 20 Bombon 400-N; Studio Look Base de alta cobertura para el rostro con FPS 20 Brownie 380-F; Studio Look Base de alta cobertura para el rostro con FPS 20 Cacao 350-N; Studio Look Base de alta cobertura para el rostro con FPS 20 Canela 280-F; Studio Look Base de alta cobertura para el rostro con FPS 20 Caramelo 210-F; Studio Look Base de alta cobertura para el rostro con FPS 20 Chantilly 130-F; Studio Look Base de alta cobertura para el rostro con FPS 20 Chocochip 330-C; Studio Look Base de alta cobertura para el rostro con FPS 20 Chocotrufa 430-N; Studio Look Base de alta cobertura para el rostro con FPS 20 Dulce De Leche 260-N; Studio Look Base de alta cobertura para el rostro con FPS 20 Espresso 450-C; Studio Look Base de alta cobertura para el rostro con FPS 20 Miel 200-C; Studio Look Base de alta cobertura para el rostro con FPS 20 Nuez 180-F; Studio Look Base de alta cobertura para el rostro con FPS 20 Panela 320-C; Studio Look Base de alta cobertura para el rostro con FPS 20 Toffee 240-C; Studio Look Base de alta cobertura para el rostro con FPS 20 Vainilla 140-C; Studio Moisture Fix SPF 15; Sudden Change Derma Renewal Complex; Sudden Change Intensive Restoration Daily Moisturizer SPF 15; Suisse DS Systeme Barrier Shield SPF 15; Sulwhasoo Age-veil Sun Cream SPF 30; Sulwhasoo Age-veil UV protection; Sulwhasoo Age-veil Uv Protection Cream; Sulwhasoo EVENFAIR SMOOTHING FOUNDATION SPF25 NO.2 MEDIUM BEIGE; Sulwhasoo EVENFAIR SMOOTHING FOUNDATION SPF25 NO.3 MEDIUM OCHER; Sulwhasoo Evenfair Perfecting Cushion No.21; Sulwhasoo Evenfair Perfecting Cushion No.23; Sulwhasoo Evenfair Perfecting Cushion No.25; Sulwhasoo Lumitouch Base; Sulwhasoo Lumitouch Base Makeup SPF15, PA plus; Sulwhasoo Lumitouch Base SPF 15 No. 60 Light Green; Sulwhasoo Lumitouch Base SPF 15 No.40 Light Violet; Sulwhasoo Lumitouch Compact No.21 Natural Beige; Sulwhasoo Lumitouch Compact No.23 True Beige; Sulwhasoo Lumitouch Foundation; Sulwhasoo Lumitouch Foundation No. 21; Sulwhasoo Lumitouch Foundation No. 23; Sulwhasoo Lumitouch Foundation No. 25; Sulwhasoo Lumitouch Foundation No.21 Natural Beige; Sulwhasoo Lumitouch Foundation SPF 25 No 23. True Beige; Sulwhasoo Lumitouch Foundation SPF 25 No 25. Dark Beige; Sulwhasoo Lumitouch Foundation SPF 25 No.21 Natural Beige; Sulwhasoo Lumitouch Foundation SPF15, PA plus; Sulwhasoo Lumitouch Foundation SPF26, PA plus plus; Sulwhasoo Lumitouch Multi-Base No.1; Sulwhasoo Lumitouch Multi-Base No.2; Sulwhasoo Lumitouch Twincake SPF25, PA plus plus; Sulwhasoo PERFECTING CUSHION NO.11 PALE PINK; Sulwhasoo PERFECTING CUSHION NO.13 LIGHT PINK; Sulwhasoo PERFECTING CUSHION NO.21 MEDIUM PINK; Sulwhasoo PERFECTING CUSHION NO.23 MEDIUM BEIGE; Sulwhasoo PERFECTING CUSHION NO.25 DEEP BEIGE; Sulwhasoo PERFECTING CUSHION NO.33 DARK BEIGE; Sulwhasoo PERPECTING CUSHION BRIGHTENING NO.11 PALE PINK; Sulwhasoo PERPECTING CUSHION BRIGHTENING NO.13 LIGHT PINK; Sulwhasoo PERPECTING CUSHION BRIGHTENING NO.17 LIGHT BEIGE; Sulwhasoo PERPECTING CUSHION BRIGHTENING NO.21 MEDIUM PINK; Sulwhasoo PERPECTING CUSHION BRIGHTENING NO.23 MEDIUM BEIGE; Sulwhasoo PERPECTING CUSHION BRIGHTENING NO.25 DEEP BEIGE; Sulwhasoo PERPECTING CUSHION BRIGHTENING NO.33 DARK BEIGE; Sulwhasoo Perfecting Cushion; Sulwhasoo Perfecting Cushion Brightening; Sulwhasoo Perfecting Cushion Intense; Sulwhasoo Perfecting Cushion Intense No.11; Sulwhasoo Perfecting Cushion Intense No.13; Sulwhasoo Perfecting Cushion Intense No.17; Sulwhasoo Perfecting Cushion Intense No.21; Sulwhasoo Perfecting Cushion Intense No.23; Sulwhasoo Perfecting Cushion Intense No.25; Sulwhasoo Perfecting Cushion Intense No.33; Sulwhasoo Perfecting Cushion No. 11; Sulwhasoo Perfecting Cushion No. 15; Sulwhasoo Perfecting Cushion No. 17; Sulwhasoo Perfecting Cushion No. 21; Sulwhasoo Perfecting Cushion No. 23; Sulwhasoo Perfecting Cushion No. 25; Sulwhasoo Perfecting Cushion No. 27; Sulwhasoo Perfecting Cushion No. 31; Sulwhasoo Perfecting Cushion No. 33; Sulwhasoo Perfecting Cushion No. 37; Sulwhasoo Perfecting Cushion No.21; Sulwhasoo Perfecting Cushion No.23; Sulwhasoo Perfecting Cushion No.25; Sulwhasoo SNOWISE BRIGHTENING SERUM BB; Sulwhasoo Snowise Brightening Bb Base No.1; Sulwhasoo Snowise Brightening Bb Base No.2; Sulwhasoo Snowise Foundation; SulwhasooSNOWISE BRIGHTENING SERUM BB; Summer Bisque Foundation SPF 20; Summer Fridays Shadedrops Broad Spectrum SPF 30 Mineral Milk Sunscreen; Sun Armor SPF 50; Sun Bad Broad Spectrum SPF 50 Mineral; Sun Barrier UV Milk Broad Spectrum SPF 50; Sun Barrier UV Protector Broad Spectrum SPF 50; Sun Barrier UV Shaking Broad Spectrum SPF 50; Sun Bum Clear Zinc SPF 50 Sunscreen; Sun Bum Clear Zinc SPF50 Sunscreen; Sun Bum Mineral SPF; Sun Bum Mineral SPF 30 Tinted Sunscreen Face; Sun Bum Mineral SPF30 Continuous Sunscreen; Sun Bum Mineral SPF30 Sunscreen; Sun Bum Mineral SPF30 Tinted Sunscreen Face; Sun Bum Mineral SPF50 Moisturising Sunscreen; Sun Bum Mineral SPF50 Sunscreen Face; Sun Bum Mineral Sunscreen Broad Spectrum SPF 30; Sun Bum Mineral Sunscreen Broad Spectrum SPF 50; Sun Bum Mineral Sunscreen Face Stick SPF 50; Sun Bum Mineral Sunscreen Roll On SPF 50; Sun Bum Mineral Sunscreen SPF 50; Sun Bum Signature Clear SPF 50; Sun Bum Signature SPF 30 Sunscreen Lip Balm; Sun Bum Tinted Lip Balm Raisin Hell; Sun Bum Tinted Sunscreen Face UVA/UVB Broad Spectrum SPF 30; Sun Care For Face; Sun Care for Body; Sun Defense Mineral Oil-Free Sunscreen SPF 30 Baby; Sun Defense Mineral Sunscreen SPF 30 Face; Sun Defense UVscreen SPF 48; Sun Dmc SPF-30; Sun Goo Mineral Sun stick; Sun Guard; Sun Lotion SPF 8; Sun Natural Sunscreen; Sun Protect Beblesh Pact SPF30 PA 2Plus; Sun Protect Lip Balm SPF 30; Sun Protection SPF 45; Sun Savvy Solar Shield; Sun Savvy Solar Shield SPF 20; Sun Shades; Sun Shades Mineral Plus Sunscreen; Sun Shades Mineral Plus Sunscreen with Zinc Oxide; Sun Shield Broad Spectrum SPF 50 Matte Sunscreen; Sun Shield Clear SPF 30 Broad Spectrum Mineral Continuous; Sun Shield Clear SPF 50 Broad Spectrum; Sun Shield Day Lotion SPF 15; Sun Shield Mineral Broad Spectrum SPF 50 Sunscreen; Sun Shield SPF 50; Sun Shine Mineral Mouse; Sun Stick SPF 24; Sun Total Protector 30 broad spectrum SPF 30 daily protection; Sun Total Protector Color 30 Dark Tint; Sun Total Protector Color 30 Light Tint; Sun-Kissed Suncream; SunBum SPF 30; SunBum SPF 50; SunClear; Sunbar SPF 48; Sunblock Cream; Sunblock for Body SPF 15; Sunblock for Face SPF 30; Sunblocz; Sunblocz Baby and Kids; Sunbrellas Goodbye Bugs Block SPF 26; Sunbrellas Mineral Sunblock SPF 30; Sunbrero SPF 30 Lotion; Suncare By Vaseline Sport Lotion SPF 15; Suncare Essentials; Sunforgettable Brush On Mineral Sunscreen SPF 50; Sunforgettable Brush-On Sunscreen SPF 30; Sunforgettable Brush-On Sunscreen SPF 50; Sunforgettable Eyescreen SPF 30 Sunscreen; Sunforgettable Face Primer SPF 30 Sunscreen; Sunforgettable Lip Shine SPF 35 Sunscreen; Sunforgettable Loose Mineral Sunscreen SPF 30; Sunforgettable Tint du Soleil Foundation SPF 30 Sunscreen; Sunforgettable Total Face Protection Face Shield Classic; Sunforgettable Total Protection Body Shield; Sunforgettable Total Protection Body Shield Bronze; Sunforgettable Total Protection Body Shield, 50 SPF; Sunforgettable Total Protection Brush-On Shield SPF 50; Sunforgettable Total Protection Color Balm (Berry); Sunforgettable Total Protection Color Balm (Blush); Sunforgettable Total Protection Color Balm (Bronze); Sunforgettable Total Protection Face Shield; Sunforgettable Total Protection Face Shield Bronze; Sunforgettable Total Protection Face Shield Flex; Sunforgettable Total Protection Face Shield Glow; Sunforgettable Total Protection Face Shield Matte; Sunforgettable Total Protection Face Shield, Bronze; Sunforgettable Total Protection Face Shield, Glow; Sunforgettable Total Protection Sheet Matte Sunscreen SPF 30; Sunforgettable Total Protection Sport Stick; Sunglitter Princess; Sunjammer SPF 15; Sunkiss SPF15; Sunlight Daily Facial Moisturizing Sunscreen; Sunlight Daily Facial SPF 30; Sunmark Calamine; Sunmark Caldiphen; Sunmark Caldyphen Clear; Sunmark Phenolated Calamine; Sunny Skin Glow Filter SPF50; Sunny Skin Super Sun SPF50; SunnyDays Broad Spectrum SPF 30 Tinted Sunscreen 10 Larchmont; SunnyDays Broad Spectrum SPF 30 Tinted Sunscreen 15 Melrose; SunnyDays Broad Spectrum SPF 30 Tinted Sunscreen 20 Mulholland; SunnyDays Broad Spectrum SPF 30 Tinted Sunscreen 25 Ocean Park; SunnyDays Broad Spectrum SPF 30 Tinted Sunscreen 30 PCH; SunnyDays Broad Spectrum SPF 30 Tinted Sunscreen 35 Point Dume; SunnyDays Broad Spectrum SPF 30 Tinted Sunscreen 40 Runyon; SunnyDays Broad Spectrum SPF 30 Tinted Sunscreen 45 Silver Lake; SunnyDays Broad Spectrum SPF 30 Tinted Sunscreen 5 Fairfax; SunnyDays Broad Spectrum SPF 30 Tinted Sunscreen 50 Sunset; SunnyDays Broad Spectrum SPF 30 Tinted Sunscreen 55 Temescal; SunnyDays Broad Spectrum SPF 30 Tinted Sunscreen 60 Third St; SunnyDays Broad Spectrum SPF 30 Tinted Sunscreen 65 Topanga; SunnyDays Broad Spectrum SPF 30 Tinted Sunscreen 70 Venice; Sunnyscreen SPF 50; Sunnyscreen SPF 50 Stick; Sunplus Sunscreen Laguna; Sunplus Sunscreen Yosemite SPF 45; Sunright 15 - Lot; Sunright 23 Face & Hands - Lot; Sunright 28 - Lot; Sunscreen; Sunscreen Baby SPF30 Plus Broad Spectrum; Sunscreen Beige Broad Spectrum Spf50+; Sunscreen Broad Spectrum SPF 30; Sunscreen Broad Spectrum SPF 30 Light Tropical Scent; Sunscreen Broad Spectrum SPF 50 Vi Aesthetics; Sunscreen Broad Spectrum SPF 50 Vitality Institute; Sunscreen Broad Spectrum SPF 55 Moisturizing; Sunscreen Broad Spectrum Spf50+; Sunscreen Day Broad Spectrum SPF 40 Supergoop; Sunscreen Day SPF 50 Supergoop; Sunscreen Face SPF 50 Equate beauty; Sunscreen Facestick SPF30; Sunscreen Flawless Skin fluid tinted; Sunscreen Karina Skin Care Moist; Sunscreen Lip Balm SPF 30; Sunscreen Plus Powder Broad-Spectrum SPF 45; Sunscreen SPF 15; Sunscreen SPF 25; Sunscreen SPF 28; Sunscreen SPF 30; Sunscreen SPF 45; Sunscreen SPF 50; Sunscreen SPF 50 CeraVe; Sunscreen SPF-30; Sunscreen SPF-50; Sunscreen SPF-50 Tinted; Sunscreen SPF30; Sunscreen SPF30 Plus Broad Spectrum; Sunscreen Sport Lip SPF30 Plus Broad Spectrum; Sunscreen Sport SPF30 Plus Broad Spectrum; Sunscreen Stick; Sunscreen Stick Broad Spectrum SPF 30 Sunscreen baby Bum; Sunscreen Stick With Moisturizing Aloe Vera; Sunscreen drops SPF30; Sunscreen for Face SPF30; Sunscreen for kids SPF50; Sunscreen stick; Sunscreen with UV pearls Broad Spectrm SPF 20; Sunshield SPF-30; Sunshine Skin Tint Broad Spectrum SPF 30 - Refill; Sunshine Skin Tint SPF 30 Broad Spectrum SPF 30 - Refill; Sunshine on the Go Natural SPF 30plus Sunscreen; Sunsorb Reef Safe SPF50; Sunstation All-Natural SPF 30 Sunscreen; Sunstick; Sunstick Broad Spectrum SPF 30 Supergoop; Sunstop 30 +; Suntegrity Lip CPR Lipstick Fuchsia Flare SPF30; Suntegrity Lip CPR Lipstick Moonlight Merlot SPF30; Suntegrity Lip CPR Lipstick Plum Eclipse SPF30; Suntegrity Lip CPR Lipstick Sable Shade SPF30; Suntegrity Lip CPR Lipstick Stargazer Bloom SPF30; Suntegrity Lip CPR Lipstick Sunburst Pink SPF30; Suntegrity Lip CPR Lipstick Sunny Blush SPF30; Suntegrity Lip CPR Lipstick Sunrise Peach SPF30; Suntegrity Lip CPR Lipstick Sunset Coral SPF30; Suntique Im Pure Perfect Cica; Sunzee Face and Neck Sunscreen; Super BB 10-in-1 Beauty Balm Concealer SPF 30; Super BB All in One Beauty Balm Bronzer and Blush; Super BB All in One Beauty Balm Stick; Super BB All in One Cheek and Lip; Super BB All-In-1; Super BB All-in-One Compact Cream SPF 30; Super BB Beauty Balm Cream SPF 30; Super BB Beauty Balm Powder; Super BB Beauty Balm Powder SPF 30; Super BB InstaReady Beauty Balm BB Cream; Super BB InstaReady Contour Trio BB Stick; Super Bb 10-IN-1 Beauty Balm Cream SPF 30; Super CC Color Correction Care CC Compact Cream; Super CC Color Correction Care Instant Blurring Eye Cream; Super CC Color Correction Care Primer Stick SPF 30; Super CC Color-Corection Care All Over Blur Stick; Super CC Color-Correction Care All Over Blur CC Cream; Super CC Plus Concealer SPF 30; Super CC Plus Cream SPF 30; Super CC Plus Powder SPF 30; Super CC Powder; Super City Block Bb Cushion Compact Broad Spectrum SPF 50; Super City Block SPF 40 Oil Free Daily Face Protector; Super Light Touch Bb Pact Spf30 Pa Plus Plus; Super Light Touch Bb Spf30 Pa Plus Plus; Super Max Barrier Cream; Super Origin Cc Spf30 Pa Plus Plus Color Change; Super Origin Ceramide Bb; Super Origin Ceramide Bb Spf25 Pa Plus Plus; Super Origin Collagen Bb; Super Origin Collagen Bb Sand Beige; Super Origin Collagen Bb Spf25 Pa Plus Plus; Super Origin Collagen Waterproof Bb; Super Origin Collagen Waterproof Bb Spf46 Pa Plus Plus Plus; Super Origin Cotton Finish Foundation 21 Light Beige; Super Origin Cotton Finish Foundation 23 Natural Beige; Super Origin Cushion Complete Control 21 Moist and Bright Skin; Super Origin Cushion Complete Control 23 Moist and Natural Skin; Super Plus Beblesh Balm Triple Functions SPF25 PA 2Plus; Super Plus Beblesh Balm Triple Functions SPF50 Plus PA 3Plus (40g); Super Plus Perfect Bb Spf30 Pa Plus Plus Bright; Super Plus Perfect Bb Spf30 Pa Plus Plus Natural; Super Sensitive Diaper Rash; Super Sensitive Shield SPF 30; Super Serums Collection; Super Sheer Sunscreen Lotion SPF 50; Super Solaire Sun Sensitive Areas Colorless SPF 30 SPF 30; Super Sparkle Screen Broad Spectrum 30 Sunkissed Gold Glitter Tangerine Scented; Super Sparkle Screen Broad Spectrum 30 Sunkissed Pink Glitter Strawberry Scented; SuperPlus Beblesh Balm Gold SPF25 PA 2Plus; SuperPlus Beblesh Balm SPF25 PA 2Plus; SuperPlus Beblesh Balm Triple Functions SPF25 PA 2Plus; Superdefense Age Defense Broad Spectrum SPF 20; Superdefense City Block Daily Energy + Face Protector SPF 50; Supernatural Airbrushed Canvas Broad Spectrum SPF 15 Sunscreen Beige; Supernatural Airbrushed Canvas Broad Spectrum SPF 15 Sunscreen Bronze; Supernatural Airbrushed Canvas Broad Spectrum SPF 15 Sunscreen Extra Rich; Supernatural Airbrushed Canvas Broad Spectrum SPF 15 Sunscreen Fair; Supernatural Airbrushed Canvas Broad Spectrum SPF 15 Sunscreen Honey; Supernatural Airbrushed Canvas Broad Spectrum SPF 15 Sunscreen Light Bronze; Supernatural Airbrushed Canvas Broad Spectrum SPF 15 Sunscreen Medium Beige; Supernatural Airbrushed Canvas Broad Spectrum SPF 15 Sunscreen Natural Ivory; Supernatural Airbrushed Canvas Broad Spectrum SPF 15 Sunscreen Rich; Supernatural Airbrushed Canvas Broad Spectrum SPF 15 Sunscreen Rich Toffee; Supernatural Airbrushed Canvas Broad Spectrum SPF 15 Sunscreen Sand; Supernatural Superbeautiful Makeup SPF 15; Supreme Shield; Supreme Skinpia 10 Bb; Supreme Skinpia 10 Sun Block; Surfers Barrier; Surfers Barrier SPF 50; Surfers Skin Sunscreen; SurfersSkin Face Sunscreen; SurfersSkin Sunscreen Zinc; Surya Natural Mineral Sunscreen; Susanne Kaufmann Suncare Face Broad Spectrum Protection Sunscreen SPF 30 Uvb Uva; Suzanne Organics Tinted Mineral Sunscreen Broad Spectrum SPF 25 - Bronze; Suzanne Organics Tinted Mineral Sunscreen Broad Spectrum SPF 25 - Sand; Svens Everyday Mineral Sunscreen; Sweat Gleam On Mineral Illuminator SPF 25; Sweat Glow Hard Bronzer SPF 25; Sweat Mineral Foundation SPF 30 Shade 100; Sweat Mineral Foundation SPF 30 Shade 200; Sweat Mineral Foundation SPF 30 Shade 300; Sweat Mineral Foundation SPF 30 Shade 400; Sweat Translucent Mineral BS SPF 30; Sweet Cheek Diaper Cream; Sweet Cheeks Diaper; Sweet Honey Lip Balm; Sweet cheeks; Swimmers Itch Guard SPF 30; Swisstec Global Protect SPF 30; Systeme Anti-rides Bio Matifiant Jour Fps 15; TANRI Sunscreen SPF15; TANRI Sunscreen SPF30; TARTEGUARD 30 sunscreen Broad Spectrum SPF 30; TENA Protective Cream; THEFACESHOP Natural Sun Long Lasting Sunscreen Broad Spectrum SPF 50; THEFACESHOP Natural Sun Oil-Free Sunscreen Broad Spectrum SPF 50; THERA Calazinc Body Shield; THINKBABY Baby Sunscreen SPF 50; THINKSPORT Kids sunscreen SPF 50; THINKSPORT sunscreen SPF 50; TIGER BABY Baby Sunscreen SPF-50; TIME SECRET Mineral Makeup Base Cover Matte; TIME SECRET Mineral Pressed Clear Veil; TIME SECRET Mineral Pressed Powder Light Ochre; TIME SECRET Mineral Pressed Powder Medium Ochre; TIME SECRET Mineral Pressed Powder Natural Ochre; TL-Folate; TONYMOLY BCDation All Master; TONYMOLY Face Mix Skin Makeup Base 02 Mix Lavendar SPF20; TONYMOLY Fitting Foundation 23 SPF30 Natural Beige; TONYMOLY My Sunny Body and Family Sun Cream; TONYMOLY My Sunny Kids and Mom Sun Cream; TONYMOLY My Sunny Tok Tok Sun Powder; TONYMOLY My Sunny Touch Free Sun Block; TONYMOLY My Sunny Waterproof Sun Block; TONYMOLY Regencia Homme Multi BB Cream SPF43; TONYMOLY Timeless Carat Foun Cover 01 Skin Beige; TONYMOLY Timeless Carat Moisture Soft Powder Pact 21 Skin Beige; TONYMOLY Timeless Carat Moisture Soft Powder Pact 23 Natural Beige; TONYMOLY Timeless Ferment Snail BB Cream; TOTAL DEFENSE REPAIR BROAD SPECTRUM SPF 34 Sunscreen; TOTAL DEFENSE REPAIR BROAD SPECTRUM SPF 34 Sunscreen (Tinted); TOTAL DEFENSE REPAIR BROAD SPECTRUM SPF 50 Sunscreen; TRENDY JOHN SPF-32 Sheer Mineral Sunscreen; TS CC Cream Beige; TS CC Cream Natural Beige; TULA SKINCARE MINERAL MAGIC Mineral Sunscreen Fluid Broad Spectrum SPF 30; Tan Foundation SPF 15; Tan Smart Mineral Sunscreen; Target Maximum Strength Zinc Oxide Diaper Rash; Target Up and Up Kids Mineral Sunscreen SPF 50; Target Up and Up Mineral Based SPF 30 Sunscreen; Target Up and Up Mineral Sunscreen Broad Spectrum SPF 50; Target Up and Up Mineral Sunscreen Broad Spectrum SPF 50 Reef-Conscious Formula; Target Up and Up Sunscreen SPF 50 KIDS Broad Spectrum; Tarte Amazonian Clay Bb Tinted Moisturizer Broad Spectrum SPF 20 Sunscreen; Tarteguard 20 Tinted Moisturizer light; Tarteguard 20 Tinted Moisturizer light-medium; Tarteguard 20 Tinted Moisturizer medium; Tarteguard Mineral Powder SPF 30; Tatcha The Silk Sunscreen; Tena; Tena Proskin Protective; Tender Moments Baby Bottom Balm; Tender Moments Delicate Baby Bottom Balm; Tender Moments Delicate Baby Diaper Rash Balm; Tenderwrap; Terrasport; The Cellin EOP B.B Cream; The Cellin SC BB Cream SPF 25 PA; The Diaper Duty Set; The Enriched Creme Broad Spectrum SPF 15; The Enriched Eye Creme Broad Spectrum SPF15; The First Sun Spf50 Plus Pa Plus Plus Plus; The Flower Uv Intense Pact Spf50 Pa Nb21; The Flower Uv Intense Pact Spf50 Pa Nb23; The Green Beaver Company SPF 40 Adult Sunscreen; The Green Beaver Company SPF 40 Kids Sunscreen; The Healthy Powder; The Healthy Powder SPF16; The History Of Whoo Gongjinhyang Seol Whitening Sun; The History of Whoo Gongjinhyang Haeyoon Sun Powder; The Ordinary Suncare Mineral UV Filters with Antioxidants; The Ordinary Suncare Mineral UV Filters with Antioxidants SPF15; The Ordinary Suncare Mineral UV Filters with Antioxidants SPF30; The Ordinary Suncare Mineral Uv Filters With Antioxidants; The Organic Pharmacy Cellular Protection Sunscreen SPF 30; The Organic Pharmacy Cellular Protection Sunscreen SPF 50; The Oriental Gold BB SPF25 PA 2Plus; The Oriental Gyeol Goun Two Way Pact; The Prestige BB SPF25 PA 2Plus; The Tinted Serum Broad Spectrum SPF 50+; The Yeon Lotus Flower Bc Cushion Pact 01 Light Beige; The Yeon Lotus Flower Bc Cushion Pact 02 Natural Beige; The Yeon Style Y Y Glam Luminous Cc; The Yeon Style Y Y Glam Water Bomb Cc; TheFaceShop Jelly Pact 34200187; TheFaceShop Jelly Pact 34200188; TheradermSPF 43 SPF 43; Theraseptin; Thermasun Zinxation Mineral Zinc Facial Sunscreen - Acne Prone Skin SPF-50; Think Baby SPF 30; Think Every Day Face Sunscreen SPF 30; Think Sport SPF 30; Think Sport for Kids; Thinkbaby Diaper Rash; Thinkbaby Sunscreen SPF 30; Thinksport Kids Sunscreen SPF 30; Thinksport Livestrong SPF 50; Thinksport Sunscreen SPF 18; Thinksport Sunscreen SPF 30; Thinksport Thinksun Sunscreen SPF 30; Thrivite 19; Thrivite Rx; TiZO Eye Renewal SPF 20 (Non-Tinted); TiZO Mineral Stick - Tinted SPF 45; TiZO Mineral Stick Non-Tinted SPF 45; TiZO Photoceutical AM Replenish - Tinted; TiZO Photoceutical AM Replenish Non-Tinted; TiZO Sheer Botanicals Non-Tinted; TiZO SheerFoam; TiZO SheerFoam - Tinted; TiZO Tinted Lip Protection SPF 45; TiZO Ultra Zinc SPF 40 (Non-Tinted); TiZO Ultra Zinc SPF 40 (Tinted); TiZO2; TiZO3; Tiege Hanley Moisturizing Lip Balm SPF 30; Tilley Endurables SPF 40; Time Dynamics Defy Time Protector Moisturizer Broad Spectrum SPF 15; Time Dynamics Time Protector Daily Defense SPF 15; Time Dynamics Travel Kit Jafra; Time Machine BB; Time Revolution White Cure Blanc Tone Up Sun Protector; Timewise Day Solution Sunscreen SPF 25; Tinted Clear Zinc Solar Protection SPF 30; Tinted Lip Balm SPF30 Sienna Rose; Tinted Lip Balm SPF30 Wild Peony; Tinted Lip Shield; Tinted Mineral Defense Broad Spectrum SPF 30 Sunscreen; Tinted Mineral Face Sunscreen Stick - Chestnut; Tinted Mineral Face Sunscreen Stick - Creme; Tinted Mineral Face Sunscreen Stick - Latte; Tinted Mineral Sunscreen Broad Spectrum SPF 25; Tinted Mineral Sunscreen Broad Spectrum SPF 30; Tinted Mineral Sunscreen Broad Spectrum SPF 40; Tinted Mineral Sunscreen SPF-30; Tinted Mineral Sunscreen, SPF 30 Medium Tint; Tinted Moisturizer Broad Spectrum SPF 30; Tinted Moisturizer Broad-Spectrum SPF 45; Tinted Moisturizer Matte Broad Spectrum SPF 45; Tinted Moisturizer SPF 20; Tinted Moisturizer SPF 30 SPF 30; Tinted Moisturizer SPF 45 Matte; Tinted Moisturizer SPF 46 Universal Tint; Tinted Moisturizer SPF-20; Tinted Radiance Moisturizer Broad Spectrum SPF 32; Tinted Radiance Moisturizer Broad Spectrum SPF 32 Medium to Tan; Tinted SPF 45; Tinted Sunscreen; Tinted Sunscreen Cream SPF 30 4-Deep Amber; Tinted Sunscreen SPF 30 1-Natural; Tinted Sunscreen SPF 30 2-Golden; Tiny Tillia; Tom Ford Flawless Glow Foundation Broad Spectrum SPF 30; Tom Ford Shade and Illuminate Foundation Broad Spectrum SPF 45 Soft Radiance Cushion Compact Refill; Tom Ford Shade and Illuminate Soft Radiance Foundation Broad Spectrum SPF 50; Tom Ford Soleil Glow Tone Up Foundation Broad Spectrum SPF 45; Tomato Day Broad Spectrum SPF 16 Sunscreen; Tomato Sun SPF 36 Pa Plus Plus; Tomato Wrinkle Sun Spf36 Pa Plus Plus; Toms Baby Diaper Fragrance Free; Toms Baby Sunscreen Fragrance Free Sunscreen; Tone Up White Sun; Tonymoly Bcdation 01; Tonymoly Bcdation 02; Tonymoly Intense Care Snail Bb; Tonymoly Luminous Goddess Aura Bb 02; Tonymoly Timeless Carat Foun Cover 02 Natural Beige; Too Cool For School DINO PLATZ CINEMA CITY (CC CHEEK); Too Cool For School DINO PLATZ CINEMA CITY (CC CONCEALER); Too Cool For School DINO PLATZ CINEMA CITY (CC Highlighter); Too Cool For School DINOPLATZ LOOSE and SILLY No. 1 Definition; Too Cool For School DINOPLATZ LOOSE and SILLY No. 2 Illusion; Too Faced Tinted Beauty Balm SPF-20; TopCare Calagesic; TopCare Calamine; TopCare Everyday Kids Mineral Sunscreen; TopCare Everyday Mineral Sunscreen Zinc Oxide SPF 30; Topco Everyday Mineral Sunscreen Broad Spectrum SPF 50; Topco Topcare Everyday Mineral Sunscreen Zinc Oxide SPF 50; TotLogic Sunscreen SPF 30; Total Active Dual BB SPF50 PLUS PA PLUS PLUS PLUS; Total Defense + Repair Broad Spectrum SPF 34 Sunscreen; Total Defense + Repair Broad Spectrum SPF 34 Sunscreen Tinted; Total Defense + Repair Broad Spectrum SPF 50+ Sunscreen; Total Eye 3-In-1 Renewal Therapy SPF 35; Total Eye 3-In-1 Renewal Therapy SPF 35 (Deep); Total Eye 3-In-1 Renewal Therapy SPF 35 (Fair); Total Eye 3-In-1 Renewal Therapy SPF 35 (Tan); Total Protector 30; Total Protector Color 30 Medium Tint; Total Protrector 15; Total Sun Protection; Touch Anti-Aging SPF 30 Moisturizer; Touchless Care ZINC OXIDE PROTECTANT; Tourmanium Bb Spf30 Pa Plus Plus; Traceless Touch Foundation Broad Spectrum SPF 45 Refill Cushion Compact; Traci Lynn Skin Iluminator Broad Spectrum SPF 50; Trader Joe S Mineral Sunscreen; Trader Joes Enrich Moisturizing Face Broad Spectrum SPF 15; Trader Joes Moisturizing Face Broad Spectrum SPF 15; Trader Joes Zinc Oxide Mineral Sunscreen SPF 30; Trader Joes Zinc Oxide Sunscreen SPF 40; Transparent Mineral Sunscreen Facestick Broad Spectrum SPF 50; TreeActiv Safflower Oleosomes Daily Natural Moisturizing Sunscreen Broad Spectrum SPF 30; Tri-Zel; TriAdvance; Tricare Prenatal; Tricare Prenatal Compleat; Trinatal GT; Trinatal Rx 1; Trinatal Ultra; Triple Care Cream 10%; Triple Defense Sunscreen Broad Spectrum SPF 40; Triple Diaper Rash; Triple Medicated for Diaper Rash; Triple Protection Broad Spectrum Sunscreenspf 30 SPF 30; Triple Protection Sunscreen Broad Spectrum SPF 30; Triveen-Duo DHA; Troiareuke Cushion A Plus C21; Troiareuke Cushion A Plus C21 Refill; Troiareuke Cushion A Plus C23; Troiareuke Cushion A Plus C23 Refill; Tronolane; Tropic Sport Mineral Sunscreen SPF 30; Tropic Sport Mineral Sunscreen SPF 50; Tropical Sands SPF-30 Broad Spectrum Sunscreen; Tropical Sands SPF-30 Broad Spectrum Sunscreen (Coconut); Tropical Sands, SPF-50 Broad Spectrum Sunscreen; Tropical Solutions Facial Moisturizer SPF 15; Tropical Topical Matte SPF 30; Tropical Vanilla Body SPF 32; Tropical Vanilla Body Sunscreen Broad Spectrum SPF 32; Tropical Vanilla Sun Cream; Tropical Vanilla Sunscreen Broad Spectrum SPF 32; Tropicsurf Extreme Protection Spf30-ultra; Tropicsurf Extreme Protection Spf50; Trouvaille Sunscreen Broad Spectrum SPF 30 UVA/UVB; True Complexion Tinted Moisturizer SPF 15; True Finish Powder Makeup SPF 15 Sunscreen; True Natural Baby 30 and Family; True Natural NEUTRAL 50; True Natural broad spectrum spf 50 all natural baby and sensitive skin sunscreen; True Natural broad spectrum spf 50 all natural sunscreen Limited Edition; True Natural broad spectrum spf 50 all natural vanilla-coconut sunscreen; True Natural broad sptectum spf 50 Unscented face and sensitive skin; Truecomfort Tm Lipcare SPF-25; Truffle EX Sun Spf50 Plus Pa Plus Plus Plus; Tucks Hemorrhoidal; Tulip Dew Sunscreen; ULTA beauty Broad Spectrum SPF 50 Mineral; ULTRASOL nature BABY Sunscreen; UNBLEMISH Control Broad Spectrum SPF 20; UNBLEMISH Regimen for Acne, Blemishes and Breakouts; UNBLEMISH Regimen for Acne, Blemishes and Breakouts Travel Size; UNBLEMISH Shine Free; UNNAPLAST with CALAMINE; UP and UP CREAMY DIAPER RASH; UP and UP DIAPER RASH; UV Capture Sebum Control Sun Cream; UV Capture Sun BB; UV Capture Water Zero Sunspray; UV Defense Fluid; UV Mineral Shield SPF30; UV NATURAL 100 MINERAL SUNKILL RX 12g; UV NATURAL 100 MINERAL SUNKILL RX 2.5g; UV NATURAL 100 MINERAL SUNKILL RX 3g; UV SUNSET Body And Family Sun; UV SUNSET Waterproof Sun Block; UVA/UVB SPF 15 Rodan and Fields; UberZinc; Ulta Beauty Broad Spectrum SPF 30 Tinted Mineral Sunscreen; Ulta Beauty Tinted Moisturizer SPF-30; Ulta Broad Spectrum SPF 30; Ulta SPF 45; Ultimate OB DHA; Ultimate Protection SPF28; UltimateCare ONE NF; Ultra Balm Moisturizing Protective Balm for lips SPF 20 Cerise Brise; Ultra Balm Moisturizing Protective Balm for lips SPF 20 Coral Petale; Ultra Balm Moisturizing Protective Balm for lips SPF 20 Nude Caramel; Ultra Balm Moisturizing Protective Balm for lips SPF 20 Nude Translucide; Ultra Balm Moisturizing Protective Balm for lips SPF 20 Rose Cotton; Ultra Balm Moisturizing Protective Balm for lips SPF 20 Rose Paradise; Ultra Balm Moisturizing Protective lips SPF 20 Cerise Brise; Ultra Balm Moisturizing Protective lips SPF 20 Coral Petale; Ultra Balm Moisturizing Protective lips SPF 20 Nude Caramel; Ultra Balm Moisturizing Protective lips SPF 20 Nude Translucide; Ultra Balm Moisturizing Protective lips SPF 20 Rose Cotton; Ultra Balm Moisturizing Protective lips SPF 20 Rose Paradise; Ultra Replenishing Sunscreen SPF 40; Ultra Shade Sunscreen SPF 30 Taheri MD; Ultra Sun Protection Cream; Ultra Sun Protection Lotion; Ultra Sun Protector Cream CRème Solaire Ultra Protection 50+; Ultra UV Defense SPF 30; Ultra UV Protective Mineral Defence; Ultra V IDEBENONE SKINFIT CUSHION; Unblemish Regimen for Acne and Post Acne Marks; United Spirit of America Broad Spectrum SPF 50 Sunscreen; Universal Defense E; Unnaplast; Unnaplast with Calamine; Unscented SPF 17; Unsun Broad Spectrum SPF 15 Sunscreen; Unsun Broad Spectrum SPF 30; Unsun Broad Spectrum SPF 30 Mineral; Urban Antioxidant Sunscreen SPF 40; Urban Decay Naked Skin Beauty Balm SPF 20; Urban Decay Naked Skin Bronzing Beauty Balm SPF 20; Urban Decay Naked Skin Dark Beauty Balm SPF20; Urban Decay Naked Skin Illuminating Beauty Balm SPF20; Urban Decay Naked Skin Light Beauty Balm SPF20; Urban Decay Naked Skin One and Done Hybrid Complexion Perfector Broad Spectrum SPF 20; Urban Environment Oil-free; Urban Environment Oil-free Uv Protector; Urban Environment Uv Protection Cream; Usana Celavive Daily Mineral Protective Cream Moisturizer with Sunscreen SPF 30; Usana Sunblock Lotion SPF 15; Usana Sunblock Lotion SPF 30 Plus; Uv Aero; Uv Daily Tinted; Uv Defense; Uv Essential Multi Protection; Uv Essentiel; Uv Essentiel Complete Protection Antioxidant Anti-pollution Sunscreen Broad Spectrum SPF 50; Uv Essentiel Complete Sunscreen Uv Protection Anti-pollution Broad Spectrum SPF 50; Uv Essentiel Daily Defense Sunscreen Anti-pollution Broad Spectrum SPF 30; Uv Essentiel Daily Defense Sunscreen Anti-pollution Broad Spectrum SPF 50; Uv Essentiel Multi-protection Daily Sunscreen Uv Care Broad Spectrum SPF 50; Uv Essentiel SPF 50; Uv Essentiel Soin Quotidien Protection Uv Globale Complete Daily Uv Protection SPF 50/pa+++; Uv Hydrator; Uv Lip Balm; Uv Lock Flower 3 Proof Sun Spf50plus Pa Plus Plus Plus; Uv Lock Flower Daily Powerful Sun Spf50plus Pa Plus Plus Plus; Uv Lock Flower Non Chemical Sun Spf50plus Pa Plus Plus Plus; Uv Lock Flower Pact Sun Spf50plus Pa Plus Plus Plus; Uv Lock Flower Water Proof Sun Spf50plus Pa Plus Plus Plus; Uv Lock Ultra Milk Sun Big Size Spf50plus Pa Plus Plus Plus; Uv Lock Ultra Milk Sun Spf50plus Pa Plus Plus Plus; Uv Lock Ultra Pact Sun Spf50plus Pa Plus Plus Plus; Uv Pro Broad Spectrum SPF 30; Uv Pro Broad Spectrum SPF 45; Uv Protect Face SPF 50; Uv-total Creme Ecran Solaire Fps 30; V-Natal; VANICREAM Sunscreen BROAD SPECTRUM SPF 30; VANICREAM Sunscreen BROAD SPECTRUM SPF 35; VANICREAM Sunscreen BROAD SPECTRUM SPF 50 PLUS; VERTRA Premium Suncare SPF 30; VERTRA Premium Suncare SPF 50; VERTRA Premium Suncare SPF 50 Unscented; VIL-Rx; VITACILINA Bebe Diaper Rash; VIVITE Aftercare Environmental Protection Sunscreen SPF 30; VP-HEME One; Vacation Mineral Broad Spectrum SPF 30 Sunscreen; Vanicream Diaper Rash; Vanicream Facial Moisturizer Broad Spectrum SPF30; Vanicream Lip Protectant/Sunscreen; Vanicream Sunscreen Broad Spectrum SPF 50; Vanicream Sunscreen Sport Broad Spectrum SPF 35; Vanilla Latte Tinted Moisturizer; Vanilla Latte Tinted Moisturizer Broad Spectrum SPF 25 Sunscreen Light; Vanilla Lip Balm SPF 15; Vanishing Zinc Facial Sunscreen SPF 30 CVS; Vaseline Brand Int Care Baby Snblk Lot Spf15; Vasseur Skincare Day Matte SPF30; Veil Mineral Primer SPF 15; Vena-Bal DHA; Venexa; Venexa FE; Ventrixyl; Ventrixyl Fe; VeraSeptine Multipurpose Moisture Barrier; Veribella Protect Daily Drops; Versed Guards Up Daily Mineral Sunscreen Broad Spectrum SPF 35; Vertra Elemental Resistance Water Resistant Sunscreen; Vertra Premium Suncare SPF 50; Vertra Reef Safe Lip Balm SPF 15; Vibriance Sunscreen Broad Spectrum SPF 50; Vida Mia Calaclear; Village11factory Pink Calming Sun Block; Vinacal; Vinate AZ; Vinate Care; Viniferamine SkinMineralZ; Virt Nate; Virt Vite GT; Virt-Advance; Virt-Bal DHA Plus; Virt-Nate; Virt-Nate DHA; Virt-PN; Virt-Pn; Virt-Tabs; Visage; Vita Water Drop Cc; VitaPhil Aide; Vitabath Baby Soothing Relief Diaper Rash; Vitabrid C12 DOCTOR Sensitive Face Powder; Vitabrid C12 FACE 12H VITAMIN C; Vitabrid C12 FACE 3g; Vitabrid C12 Face Brightening; Vitabrid C12 Hair Powder Professional; Vitabrid C12 Hair Powder Scalp Relief; Vitabrid C12 Spot; Vitabrid C12 Spot Sensitive Solution; Vitacilina; Vitacilina Bebe Diaper Rash; Vitafol Fe Plus; Vitafol Ultra; Vital-D Rx; Vitamin C BB Beauty Balm Sheer Tint SFP 30; Vitamin and Mineral Supplement Capsules; Vitaphil 90 DHA; Vitaphil DHA; Vitramyn; Vitranol; Vitranol Fe; Vitrexate; Vitrexate FE; Vitrexyl; Vitrexyl plus Iron; Viva CT Prenatal; Vivaiodays Sunscreen with Turmeric; Vivier Sheer SPF 45; VivierSkin Sun Protection SPF 45; Vivierskin Sheer Broad Spectrum SPF30; Vmv Hypoallergenics Armada 30; Vmv Hypoallergenics Armada Baby 50; Vmv Hypoallergenics Armada Post Procedure 50 Plus; Vol-Nate; Vol-Plus; Vol-Tab Rx; Vp-heme Ob; Vp-heme Ob DHA; Vp-pnv-dha; Vp-zel; Vusion; W Honey Beam Cushion 21; W Honey Beam Cushion 23; W Lab BLOSSOM WHITE CUSHION 13 Blossom White; W Lab BLOSSOM WHITE CUSHION 21 Blossom Light; W Lab BLOSSOM WHITE CUSHION 23 Blossom Beige; W-snow Cc Cusion 21 Snow Light; W-snow Cc Cusion 23 Snow Beige; W.Lab W-SNOW CC CUSHION 21 SNOW LIGHT; W.Lab W-SNOW CC CUSHION 23 SNOW BEIGE; WHAMISA Organic Flowers Liquid BB Natural Expression 20 Sand Beige; WHAMISA Organic Flowers Liquid BB Natural Expression 21 Light Beige; WHAMISA Organic Flowers Liquid BB Natural Expression 21 Pink Beige; WHAMISA Organic Flowers Liquid BB Natural Expression 23 Natural Beige; WHAMISA Organic Flowers Liquid BB Natural Expression 24 Honey Beige; WHAMISA Organic Flowers Liquid BB Natural Expression 26 Tan Beige; WHAMISA Organic Flowers Liquid BB Natural Expression 27 Deep Beige; WHY Diaper Rash Pads; WL-AAJ-Z-W-508 (Kopari 50ml); Walgreen Maximum Strength Diaper Rash; Walgreens 50 Baby Mineral Sunscreen; Walgreens Baby SPF50; Walgreens Calamine Skin Protectant; Walgreens Kids Baby SPF 50; Walgreens Moisture Barrier; Walgreens SPF 50 Mineral Sunscreen; Walgreens SUNSCREEN Clear Zinc Broad Spectrum SPF 50; Walgreens SunscreenSPF 45 SPF 45 SPF 45; Walgreens SunscreenSPF 70 SPF 70; Walgreens Zinc Oxide; Walgreens Zinc SPF 50; Walgreens sunscreen Clear Zinc SPF50; Wander PACK UP and GLOW; Warm Dark Original; Warm Deep Original; Warm Tan Foundation SPF 15; Warrior Broad Spectrum SPF 30 Sunscreen Minerals Formula; Warrior Broad Spectrum SPF 50 Sunscreen Minerals Formula; Warrior SPF 50; Watermelon Glow; Watermelon Glow Niacinamide Sunscreen; Wax SPF 50; Waxhead Baby Sunscreen SPF 35; Waxhead Skin Nourishing Sunscreen SPF 32; Waxhead Skin Nourishing Tinted Plus Sunscreen SPF 31; Waxhead Skin Nourishing Tinted Sunscreen SPF 31; Waxhead Tinted Zinc Oxide Sunscreen SPF 30; Waxhead Zinc Oxide Sunscreen SPF 30; Wear Me SPF-ing Mineral Sunscreen - Acne Prone Skin SPF-50; Wear Me SPF-ing Mineral Sunscreen - Normal Skin SPF-30; Weightless Protection; Weightless Protection SPF 30; Weightless Protection SPF 45; Well People Bio Tint SPF 30 Sunscreen 10w; Well People Bio Tint SPF 30 Sunscreen 11w; Well People Bio Tint SPF 30 Sunscreen 12w; Well People Bio Tint SPF 30 Sunscreen 13w; Well People Bio Tint SPF 30 Sunscreen 14w; Well People Bio Tint SPF 30 Sunscreen 1C; Well People Bio Tint SPF 30 Sunscreen 2w; Well People Bio Tint SPF 30 Sunscreen 3N; Well People Bio Tint SPF 30 Sunscreen 4W; Well People Bio Tint SPF 30 Sunscreen 5N; Well People Bio Tint SPF 30 Sunscreen 6w; Well People Bio Tint SPF 30 Sunscreen 7N; Well People Bio Tint SPF 30 Sunscreen 8N; Well People Bio Tint SPF 30 Sunscreen 9w; Well People Lip Butter SPF 15 Sunscreen AFTERGLOW; Well People Lip Butter SPF 15 Sunscreen NATURAL; Well People Lip Butter SPF 15 Sunscreen PEACH; Well People Lip Butter SPF 15 Sunscreen WINE; Welmedix HomeCare PRO Extra Strength Rapid Rash Relief; Welmedix HomeCare PRO Skin Essentials Incontinence Care Starter; WesNate DHA; WesTab Plus; Western Family Diaper Rash; Wet N Wild Beauty Benefits Fresh Effects Liquid Foundation SPF 15; Wet N Wild Pout Protector - (750-757) - Clear SPF 15; Wet N Wild Pout Protector - 752 - Tint Of Blush SPF 15; Wet N Wild Pout Protector - 753 - Tint Of Pink - SPF 15; Wet N Wild Pout Protector - 754 - Tint Of Bronze SPF 15; Wet N Wild Pout Protector - 755 - Tint Of Caramel - SPF 15; Wet N Wild Pout Protector - 756 - Tint Of Plum - SPF 15; Wet N Wild Pout Protector - 757- Tint Of Cranberry - SPF 15; Whamisa Organic Carrot Baby Kids Natural Sun Pact Spf50 Pa; Whamisa Organic Carrot Baby Kids Suncream SPF 14 Pa; Whamisa Organic Carrot Baby Kids Suncream SPF 50 Pa; Whamisa Organic Flowers BB Pact Natural Expression 20 Sand Beige; Whamisa Organic Flowers BB Pact Natural Expression 24 Honey Beige; Whamisa Organic Flowers BB Pact Natural Expression 26 Tan Beige; Whamisa Organic Flowers BB Pact Natural Expression 27 Deep Beige; Whamisa Organic Flowers Bb Pact Natural Expression 21-light Beige; Whamisa Organic Flowers Bb Pact Natural Expression 21-natural Beige; Whamisa Organic Flowers Bb Pact Natural Expression 21-pink Beige; Whamisa Organic Flowers Natural Expression Sun Pact SPF 50 Pa; Whamisa Organic Flowers Natural Tone Up Sun Pact SPF 50 Pa; Whamisa Organic Flowers Suncream SPF 14 Pa; Whamisa Organic Flowers Suncream SPF 50 Pa; White 81 Tone Up Stick; White Mallow Diaper Rash Cream; White Stick; White and Elm Everyday SPF 15; Whole Body Organic Sunscreen; Whoo Gong Jin Hyang Jin Hae Yoon Sun; Wiklar Uv Cover Shield; Wild Mint Clear SPF 45; Wild Rose Daily Moisture Sunscreen SPF 30; Will Ferrells SEXY HOT TAN Sunscreen SPF 30; Winter Skin Protectant; Wl-aaa-Z-A-525; Wl-aaa-Z-A-625; Wl-aab-Z-W-1001; Wl-aab-Z-W-1003; Wl-aab-Z-W-1018; Wl-aab-Z-W-1019; Wl-aab-Z-W-1026; Wl-aab-Z-W-1095; Wl-aab-Z-W-1117; Wl-aab-Z-W-1118; Wl-aab-Z-W-1173; Wl-aab-Z-W-1190; Wl-aab-Z-W-1350; Wl-aab-Z-W-1351; Wl-aab-Z-W-330; Wl-aab-Z-W-401; Wl-aab-Z-W-404; Wl-aab-Z-W-471; Wl-aab-Z-W-780; Wl-aab-Z-W-807; Wl-aab-Z-W-850; Wl-aab-Z-W-980; Wl-aab-Z-W-982; Wl-aab-Z-W-988; Wl-aac-Z-A-1312; Wl-aac-Z-A-1313; Wl-aac-Z-A-1314; Wl-aac-Z-A-567; Wl-aac-Z-A-568; Wl-aac-Z-A-790; Wl-aac-Z-A-792; Wl-aac-Z-A-809; Wl-aad-Z-W-1020; Wl-aad-Z-W-1038; Wl-aad-Z-W-1049; Wl-aad-Z-W-1050; Wl-aad-Z-W-1051; Wl-aad-Z-W-1052; Wl-aad-Z-W-1053; Wl-aad-Z-W-1054; Wl-aad-Z-W-1055; Wl-aad-Z-W-1056; Wl-aad-Z-W-1057; Wl-aad-Z-W-1058; Wl-aad-Z-W-1059; Wl-aad-Z-W-1060; Wl-aad-Z-W-1062; Wl-aad-Z-W-1063; Wl-aad-Z-W-1064; Wl-aad-Z-W-1065; Wl-aad-Z-W-1189; Wl-aad-Z-W-1226; Wl-aad-Z-W-1311; Wl-aad-Z-W-1347; Wl-aad-Z-W-1367; Wl-aad-Z-W-1386; Wl-aad-Z-W-691; Wl-aad-Z-W-750; Wl-aad-Z-W-751; Wl-aad-Z-W-752; Wl-aad-Z-W-753; Wl-aad-Z-W-754; Wl-aad-Z-W-755; Wl-aad-Z-W-756; Wl-aad-Z-W-757; Wl-aad-Z-W-758; Wl-aad-Z-W-759; Wl-aad-Z-W-760; Wl-aad-Z-W-761; Wl-aad-Z-W-762; Wl-aad-Z-W-763; Wl-aad-Z-W-764; Wl-aad-Z-W-765; Wl-aad-Z-W-766; Wl-aad-Z-W-772; Wl-aad-Z-W-971; Wl-aad-Z-W-987; Wl-aae-Z-O-1032; Wl-aae-Z-O-1039; Wl-aae-Z-O-1307; Wl-aae-Z-O-1342; Wl-aae-ZT-O-1258; Wl-aae-ZT-O-1337; Wl-aae-ZT-O-391; Wl-aae-ZT-O-400; Wl-aae-ZT-O-408; Wl-aae-ZT-O-413; Wl-aae-ZT-O-414; Wl-aae-ZT-O-416; Wl-aae-ZT-O-492; Wl-aai-ZT-P-522; Wl-aai-ZT-P-523; Wl-aai-ZT-P-524; Wl-aaj-Z-W-1138; Wl-aaj-Z-W-633; Wl-aaj-Z-W-796; Wl-aaj-Z-W-818; Wl-aaj-Z-W-832; Wl-aaj-Z-W-838; Wl-aaj-Z-W-870; Wl-aaj-Z-W-914; Wl-aaj-Z-W-942; Wl-aan-Z-A-822; Wl-aas-Z-A-348; Wl-aca-Z-A-1405; Wl-aca-Z-A-1428; Wl-aca-Z-A-1444; Wl-aca-Z-A-1473; Wolf Daily Moisturizier SPF 15; Wonder Intensive BBCream 21 (Light); Wonderscreen Broad Spectrum SPF 30; Wotnot Naturals Natural Sunscreen SPF 30; Wound Care; Wound Repair; Wrinkles and Radiance Dazzling -Day- SPF 20; Xyzmune; YAYA Organics SPF-50 Baby Kids Mineral Sunscreen; YAYA Organics SPF-50 Sports Cream; YOU-V SPF-30 Broad Spectrum Sunscreen; YOUNG AND CLEAR Mineral Moisturizer Broad Spectrum SPF30 Sunscreen; YOUNG and CLEAR - Mineral Moisturizer Broad Spectrum SPF 30 Sunscreen; YOUTH CORRIDOR Soothe and Defend SPF-30; YVES ROCHER hydra vegetal HYDRATING DAY SPF 25 SUNSCREEN; Yadah Airpowder Pact 19 Light Beige; Yadah Airpowder Pact 21 Natural Beige; Yadah Be My Cushion 21 Light Beige; Yadah Be My Cushion 23 Natural Beige; Yadah Silky Fit Concealer Bb Power Brightening; Yadah Twin Angel Bb; Yellow Sunblock; Yensa Bc Foundation SPF 40; Yerba Mate Mineral SPF 30 Broad Spectrum; Yes Grapefruit Daily Mineral Broad Spectrum SPF-15; Yes To Avocado Fragrance-Free Daily Mineral Broad Spectrum SPF-15; Yes To Blueberries Daily Repairing Moisturizer SPF30; Yes To Carrots Daily Facial Moisturizer SPF 15; Yes To Carrots Fragrance-free Daily Facial Moisturizer Spf15; Yes To Carrots Sweet Fig Lip Butter with SPF 15; Yes To Cucumbers Daily Moisturizer SPF 30; Yes To Cucumbers Natural Sunscreen SPF 30; Yes To Cucumbers Natural Sunscreen SPF 30 Stick; Yes To Cucumbers Natural Sunscreen SPF 40 Kids; Yes To Grapefruit Cc Cream - Light; Yes To Grapefruit Cc Cream - Light/medium; Yes To Grapefruit Moisturizer with SPF15; Yes To Tomatoes Fragrance-Free Clarifying Mineral Broad Spectrum SPF-30; Yes to Carrots Sweet Fig SPF15; Yes to Natural Man Broad Spectrum SPF 15 Face; YesTo Pomegranate Lip Butter with SPF 15; Your Name Cosmetics Brightening CC Cream Broad Spectrum SPF 20; Your Skin But Better Cc Airbrush Perfecting Deep; Your Skin But Better Cc Airbrush Perfecting Fair; Your Skin But Better Cc Airbrush Perfecting Illumination Deep; Your Skin But Better Cc Airbrush Perfecting Illumination Fair; Your Skin But Better Cc Airbrush Perfecting Illumination Light; Your Skin But Better Cc Airbrush Perfecting Illumination Medium; Your Skin But Better Cc Airbrush Perfecting Illumination Medium Tan; Your Skin But Better Cc Airbrush Perfecting Illumination Rich; Your Skin But Better Cc Airbrush Perfecting Illumination Tan; Your Skin But Better Cc Airbrush Perfecting Light; Your Skin But Better Cc Airbrush Perfecting Medium; Your Skin But Better Cc Airbrush Perfecting Medium Tan; Your Skin But Better Cc Airbrush Perfecting Rich; Your Skin But Better Cc Airbrush Perfecting Tan; Your Skin But Better Cc Bronzer Bronze Glow; Your Skin But Better Cc Color Correcting Full Coverage SPF 50 Deep; Your Skin But Better Cc Color Correcting Full Coverage SPF 50 Fair; Your Skin But Better Cc Color Correcting Full Coverage SPF 50 Light; Your Skin But Better Cc Color Correcting Full Coverage SPF 50 Medium; Your Skin But Better Cc Color Correcting Full Coverage SPF 50 Medium Tan; Your Skin But Better Cc Color Correcting Full Coverage SPF 50 Medium-tan; Your Skin But Better Cc Color Correcting Full Coverage SPF 50 Rich; Your Skin But Better Cc Color Correcting Full Coverage SPF 50 Tan; Your Skin But Better Cc Eye Fair; Your Skin But Better Cc Eye Light; Your Skin But Better Cc Eye Medium; Your Skin But Better Cc Eye Rich; Your Skin But Better Cc Eye Tan; Your Skin But Better Cc Illumination Deep; Your Skin But Better Cc Illumination Fair; Your Skin But Better Cc Illumination Light; Your Skin But Better Cc Illumination Medium; Your Skin But Better Cc Illumination Medium-tan; Your Skin But Better Cc Illumination Rich; Your Skin But Better Cc Illumination Tan; Your Skin But Better Fair; Your Skin But Better Light; Youth 1 Activating BB Cream SPF 30 Light; Youth 2 Activating BB Cream SPF 30 Light Medium; Youth 3 Activating BB Cream SPF 30 Medium; Youth 4 Activating BB Cream SPF 30 Dark; Youth Activating BB SPF30 Shade 3; Youth Age Defense Mineral Moisturizer SPF 30; Youth Protection SPF 30; Youthful Wear Cosmeceutical Youth Boosting Foundation SPF 15; Youthful Wear Cosmeceutical Youth Boosting Spotless CC Cream; Youthtopia Skin Firming Foundation SPF 15; Z-Bum; Z-Guard; ZO MEDICAL OCLIPSE-C Broad-Spectrum Sunscreen SPF 50; ZO SKIN HEALTH LEVEL I DAILY SKINCARE PROGRAM Essentials for Healthy Skin; ZO SKIN HEALTH LEVEL II ANTI-AGING PROGRAM with Growth Factor Serum Plus; ZO SKIN HEALTH LEVEL III AGGRESSIVE ANTI-AGING PROGRAM with Advanced Radical Night Repair; ZO SKIN HEALTH OSSENTIAL DAILY POWER DEFENSE ANTI-AGING FORMULA and OCLIPSE SUNSCREEN PLUS PRIMER BROAD SPECTRUM SPF 30 UVA/UVB PROTECTION; ZO SKIN HEALTH SunSmart Triple Protection Program Natural Melanin and Antioxidant Defenders with Sunscreen plus Primer SPF 30; ZO Skin Health Broad-Spectrum Sunscreen SPF 50; ZO Skin Health Sunscreen Plus Broad-Spectrum SPF 40 Medium; ZO Skin Health Sunscreen Plus Powder Broad-Spectrum SPF 45; ZO Skin Health Sunscreen Plus Powder Broad-Spectrum SPF 45 (Light); ZO Skin Health Sunscreen Plus Primer Broad-Spectrum SPF 30; ZO Skin Health Sunscreen plus Broad-Spectrum SPF 40 Deep; ZO Skin Health Sunscreen plus Broad-Spectrum SPF 40 Light; ZOEY NATURALS DIAPER Cream; Zebs Organics Sunscreen; Zebs broad spectrum sunscreen; Zermat Skin Platinum Series Cellular Beauty Caviar and Collagen Day SPF 30; ZinClear IM 50AB; ZinClear IM 50CCT; ZinClear IM 50JJ; ZinClear SPF 30 Tinted; Zinaderm Crm; Zinc Cream; Zinc Cream - 15%; Zinc Cream 15%; Zinc Five-O SPF-50; Zinc Five-O Zinxation Baby Mineral Sunscreen SPF-50; Zinc Five-O Zinxation Kids Sunscreen SPF-50; Zinc Ointment; Zinc Ointment 15%; Zinc Ont 15%; Zinc Oxide; Zinc Oxide 20%; Zinc Oxide 40%; Zinc Oxide Cream; Zinc Oxide Cream 15%; Zinc Oxide Diaper Rash; Zinc Oxide Lip Balm Pina Colada; Zinc Oxide Ont 20%; Zinc Oxide Ont 20gm/100gm; Zinc Oxide Ont USP; Zinc Oxide and Dimethicone with Dimethicone; Zinc Oxide, Titanium Dioxide; Zinc Screen Broad Spectrum Sunscreen SPF 40; Zinc Spf30 Ltn Cvs; Zinc Stick; Zinc and Castor Oil Cream BP; Zinc and Castor Oil Crm; Zinc oxide; Zinc-oxyde Plus; Zincofax; Zincofax Extra Strength; Zincofax Fragrance Free Ointment 15%; Zincofax Original 15%; Zincoxide; Zinka Clear Zinc Oxide Sunscreen; Zinka SPF 50 Facestick; Zintrexyl-C; Zinxation Bulk Sunscreen; Zinxation SPF 47; Zinxation Sunscreen SPF-50; Zitsticka Megashade Sunscreen Serum (SPF-50); Ziva Baby Wipes; Zoey Naturals Unscented Broad Spectrum SPF 30 Sunscreen; a.c. care Bees Sun Protection; a.c.care Bees Shield B.B Cream SPF 35; a.c.care Bees Shield B.B UV Moisturizer SPF 35; a.c.care Bees Sun Protection UV Moisturizer SPF 50; aKwa Daystar Shade SPF 40; ac care Bees Shield BB Broad Spectrum SPF 35; ac care Bees Sun Protection Broad Spectrum SPF 50; aqua fit cushion C11; aqua fit cushion C13; aqua fit cushion C21; aqua fit cushion C43; aqua fit cushion N21; aqua fit cushion N23; aqua fit cushion N27; aqua fit cushion N31; aqua fit cushion W21; aqua fit cushion W23; aqua fit cushion W33; aqua fit cushion W34; aqua fit cushion W35; aqua fit cushion W37; avatara Kom Bu Cha The Simple Shield Balancing Oil-Free Moisturizer SPF 30; baby Jolie - SPF 50; bareMinerals 5-in-1 BB Advanced Performance Mineral Veil Finishing Broad Spectrum SPF 20; bareMinerals Advanced Protection SPF 20 Moisturizer Combination Skin; bareMinerals Advanced Protection SPF 20 Moisturizer Sheer Tint Combination Skin; bareMinerals Complexion Rescue Defense Radiant Protective Veil Broad Spectrum SPF 30 Soft Radiance; bareMinerals Daily Defense Broad Spectrum SPF 30; bareMinerals Matte Foundation Broad Spectrum SPF 15 Deepest Deep; bareMinerals Matte Foundation Broad Spectrum SPF 15 Fair; bareMinerals Matte Foundation Broad Spectrum SPF 15 Fair Ivory; bareMinerals Matte Foundation Broad Spectrum SPF 15 Fairly Light; bareMinerals Matte Foundation Broad Spectrum SPF 15 Fairly Medium; bareMinerals Matte Foundation Broad Spectrum SPF 15 Golden Beige; bareMinerals Matte Foundation Broad Spectrum SPF 15 Golden Dark; bareMinerals Matte Foundation Broad Spectrum SPF 15 Golden Deep; bareMinerals Matte Foundation Broad Spectrum SPF 15 Golden Fair; bareMinerals Matte Foundation Broad Spectrum SPF 15 Golden Ivory; bareMinerals Matte Foundation Broad Spectrum SPF 15 Golden Medium; bareMinerals Matte Foundation Broad Spectrum SPF 15 Golden Nude; bareMinerals Matte Foundation Broad Spectrum SPF 15 Golden Tan; bareMinerals Matte Foundation Broad Spectrum SPF 15 Light; bareMinerals Matte Foundation Broad Spectrum SPF 15 Light Beige; bareMinerals Matte Foundation Broad Spectrum SPF 15 Medium; bareMinerals Matte Foundation Broad Spectrum SPF 15 Medium Beige; bareMinerals Matte Foundation Broad Spectrum SPF 15 Medium Dark; bareMinerals Matte Foundation Broad Spectrum SPF 15 Medium Tan; bareMinerals Matte Foundation Broad Spectrum SPF 15 Neutral Dark; bareMinerals Matte Foundation Broad Spectrum SPF 15 Neutral Deep; bareMinerals Matte Foundation Broad Spectrum SPF 15 Neutral Ivory; bareMinerals Matte Foundation Broad Spectrum SPF 15 Neutral Medium; bareMinerals Matte Foundation Broad Spectrum SPF 15 Neutral Tan; bareMinerals Matte Foundation Broad Spectrum SPF 15 Soft Medium; bareMinerals Matte Foundation Broad Spectrum SPF 15 Tan; bareMinerals Matte Foundation Broad Spectrum SPF 15 Tan Nude; bareMinerals Matte Foundation Broad Spectrum SPF 15 Warm Dark; bareMinerals Matte Foundation Broad Spectrum SPF 15 Warm Deep; bareMinerals Matte Foundation Broad Spectrum SPF 15 Warm Tan; bareMinerals Medium Beige Matte; bareMinerals Multi-Tasking SPF 20 Concealer Deep Bisque; bareMinerals Multi-Tasking SPF 20 Concealer Honey Bisque; bareMinerals Multi-Tasking SPF 20 Concealer Summer Bisque; bareMinerals Original Foundation Broad Spectrum SPF 15 Deepest Deep 30; bareMinerals Original Foundation Broad Spectrum SPF 15 Fairly Medium 05; bareMinerals Original Foundation Broad Spectrum SPF 15 Golden Dark 25; bareMinerals Original Foundation Broad Spectrum SPF 15 Golden Deep 28; bareMinerals Original Foundation Broad Spectrum SPF 15 Golden Fair 04; bareMinerals Original Foundation Broad Spectrum SPF 15 Golden Tan 20; bareMinerals Original Foundation Broad Spectrum SPF 15 Light 08; bareMinerals Original Foundation Broad Spectrum SPF 15 Medium Beige 12; bareMinerals Original Foundation Broad Spectrum SPF 15 Medium Dark 23; bareMinerals Original Foundation Broad Spectrum SPF 15 Medium Tan 18; bareMinerals Original Foundation Broad Spectrum SPF 15 Neutral Dark; bareMinerals Original Foundation Broad Spectrum SPF 15 Neutral Dark 24; bareMinerals Original Foundation Broad Spectrum SPF 15 Neutral Deep; bareMinerals Original Foundation Broad Spectrum SPF 15 Neutral Deep 29; bareMinerals Original Foundation Broad Spectrum SPF 15 Tan 19; bareMinerals Original Foundation Broad Spectrum SPF 15 Warm Dark 26; bareMinerals Original Foundation Broad Spectrum SPF 15 Warm Deep 27; bareMinerals Original Foundation Broad Spectrum SPF 15 Warm Tan 22; bareMinerals Prep Step Mineral Shield Broad Spectrum SPF 50 Daily Prep; bareMinerals Prime Time BB Primer Daily Defense Broad Spectrum SPF 30 Fair; bareMinerals Prime Time BB Primer Daily Defense Broad Spectrum SPF 30 Light; bareMinerals Prime Time BB Primer Daily Defense Broad Spectrum SPF 30 Medium; bareMinerals Prime Time BB Primer Daily Defense Broad Spectrum SPF 30 Tan; bareMinerals Prime Time BB Primer-Cream Broad Spectrum SPF 30 Light; bareMinerals Prime Time BB Primer-Cream Broad Spectrum SPF 30 Medium; bareMinerals READY Touch Up Veil Broad Spectrum SPF 15 Dark; bareMinerals READY Touch Up Veil Broad Spectrum SPF 15 Deep; bareMinerals READY Touch Up Veil Broad Spectrum SPF 15 Light; bareMinerals READY Touch Up Veil Broad Spectrum SPF 15 Medium; bareMinerals READY Touch Up Veil Broad Spectrum SPF 15 Tan; bareMinerals READY Touch Up Veil Broad Spectrum SPF 15 Translucent; bareMinerals Skinlongevity Vital Power Moisturizer Broad Spectrum SPF 30; bright guard SPF-30 SUNSCREEN; buybuyBABY maximum strength diaper rash skin protectant; buybuyBABY quick relief diaper rash cream; california naturel SPF 30; calmpose Repairy Light Derma Sun; celesty colors special edition with ALIX AVIEN FOUNDATION; chorus Supernatural PROTECT SPF 30 broad spectrum sunscreen; chorus Supernatural SHIELD SPF30 broad spectrum sunscreen; correcting cream Broad Spectrum SPF 15 asap; daily UV protection cream sebum care; defy time protector moisturizer broad spectrum SPF 15 Jafra time dynamics; do naturals SPF 32; doTERRA Sun; doTERRA sun; dr. brandt SUN SHIELD SPF 50; e-ko SKIN CARE SPF 50; elave Age Delay Daily Lip Defence SPF20; emilia SAFE HARBOR NATURAL SUNCARE; eos THE GUARDIAN 100% NATURAL SPF 30 COCONUT SUN PROTECT SUNSCREEN LIP BALM; eos THE GUARDIAN 100% NATURAL SPF 30 WATERMELON SUN PROTECT SUNSCREEN LIP BALM; equate beauty ALL-DAYMoisturizing Broad SpectrumSPF 15 Sunscreen; essentials by ARTISTRY MULTI-PROTECT SPF 30 Broad Spectrum Sunscreen; eyes lips face Mineral Concealer SPF 15; fine finish pressed powder C13; fine finish pressed powder C21; fine finish pressed powder C27; fine finish pressed powder C43; fine finish pressed powder N21; fine finish pressed powder N23; fine finish pressed powder N27; fine finish pressed powder N31; fine finish pressed powder N33; fine finish pressed powder W21; fine finish pressed powder W23; fine finish pressed powder W31; fine finish pressed powder W35; fine finish pressed powder W37; foundcealer 2-in-1 foundation and concealer Broad Spectrum SPF 15 Sunscreen deep; foundcealer 2-in-1 foundation and concealer Broad Spectrum SPF 15 Sunscreen fair; foundcealer 2-in-1 foundation and concealer Broad Spectrum SPF 15 Sunscreen light; foundcealer 2-in-1 foundation and concealer Broad Spectrum SPF 15 Sunscreen light-medium; foundcealer 2-in-1 foundation and concealer Broad Spectrum SPF 15 Sunscreen medium; foundcealer 2-in-1 foundation and concealer Broad Spectrum SPF 15 Sunscreen tan; foundcealer multi-tasking foundation Broad Spectrum SPF 20 Sunscreen 13N fair neutral; foundcealer multi-tasking foundation Broad Spectrum SPF 20 Sunscreen 14S fair sand; foundcealer multi-tasking foundation Broad Spectrum SPF 20 Sunscreen 16B fair-light beige; foundcealer multi-tasking foundation Broad Spectrum SPF 20 Sunscreen 16N fair-light neutral; foundcealer multi-tasking foundation Broad Spectrum SPF 20 Sunscreen 16S fair-light sand; foundcealer multi-tasking foundation Broad Spectrum SPF 20 Sunscreen 22B light beige; foundcealer multi-tasking foundation Broad Spectrum SPF 20 Sunscreen 22N light neutral; foundcealer multi-tasking foundation Broad Spectrum SPF 20 Sunscreen 22S light sand; foundcealer multi-tasking foundation Broad Spectrum SPF 20 Sunscreen 24G light golden; foundcealer multi-tasking foundation Broad Spectrum SPF 20 Sunscreen 27N light-medium neutral; foundcealer multi-tasking foundation Broad Spectrum SPF 20 Sunscreen 27S light-medium sand; foundcealer multi-tasking foundation Broad Spectrum SPF 20 Sunscreen 29H light-medium honey; foundcealer multi-tasking foundation Broad Spectrum SPF 20 Sunscreen 34N medium neutral; foundcealer multi-tasking foundation Broad Spectrum SPF 20 Sunscreen 34S medium sand; foundcealer multi-tasking foundation Broad Spectrum SPF 20 Sunscreen 35G medium golden; foundcealer multi-tasking foundation Broad Spectrum SPF 20 Sunscreen 36H medium-tan honey; foundcealer multi-tasking foundation Broad Spectrum SPF 20 Sunscreen 36N medium-tan neutral; foundcealer multi-tasking foundation Broad Spectrum SPF 20 Sunscreen 38S medium-tan sand; foundcealer multi-tasking foundation Broad Spectrum SPF 20 Sunscreen 42N tan neutral; foundcealer multi-tasking foundation Broad Spectrum SPF 20 Sunscreen 44H tan honey; foundcealer multi-tasking foundation Broad Spectrum SPF 20 Sunscreen 44S tan sand; foundcealer multi-tasking foundation Broad Spectrum SPF 20 Sunscreen 48S tan-deep sand; foundcealer multi-tasking foundation Broad Spectrum SPF 20 Sunscreen 49H tan-deep honey; foundcealer multi-tasking foundation Broad Spectrum SPF 20 Sunscreen 50S deep sand; foundcealer multi-tasking foundation Broad Spectrum SPF 20 Sunscreen 52N deep neutral; foundcealer multi-tasking foundation Broad Spectrum SPF 20 Sunscreen 54H deep honey; foundcealer multi-tasking foundation Broad Spectrum SPF 20 Sunscreen 58S rich sand; foundcealer multi-tasking foundation Broad Spectrum SPF 20 Sunscreen 59N rich neutral; foundcealer multi-tasking foundation Broad Spectrum SPF 20 Sunscreen 60H mahogany; foundcealer multi-tasking foundation Broad Spectrum SPF 20 Sunscreen 8B porcelain beige; gesgep ONE DROP PERFECTION HEALTHY; gesgep ONE DROP PERFECTION LIGHT; gesgep ONE DROP PERFECTION TRUE; glo SKIN BEAUTY Oil Free SPF 40; glo SKIN BEAUTY Solar Shade SPF 50; glo SKIN BEAUTY Tinted Primer SPF 30; glo Skin Beauty C-Shield Anti-Pollution Moisture Tint Broad Spectrum SPF 30; goddess garden ORGANICS Baby NATURAL SUNSCREEN SPF 30; goddess garden ORGANICS Everyday NATURAL SUNSCREEN SPF 30; goddess garden ORGANICS Facial NATURAL SUNSCREEN SPF 30; goddess garden ORGANICS Kids NATURAL SUNSCREEN SPF 30; goddess garden ORGANICS Kids Sport NATURAL SUNSCREEN SPF 30; goddess garden ORGANICS Sport NATURAL SUNSCREEN SPF 30; healthy mamaBE WELL ROUNDED BE WELL ROUNDED; iBlanc Restora-Bright Elite Natural Sun Defense SPF 30; in2itiv SPF30 Sunscreen; innisfree Aqua-fit Cushion W39 Deep tan; innisfree Aqua-fit Cushion W41 Cinnamon; innisfree Matte Full-cover Cushion W39 Deep tan; innisfree Matte Full-cover Cushion W41 Cinnamon; intense UV protection cream; isLeaf Cushion Concealer 21; isLeaf Cushion Concealer 23; it cosmetics Bye Bye Foundation Full Coverage Moisturizer Broad Spectrum 50 Plus Sunscreen All Shades; it cosmetics Bye Bye Foundation Full Coverage Moisturizer Oil Free Matte Broad Spectrum 50 Plus Sunscreen; it cosmetics Your Skin But Better CC Plus Color Correcting Broad Spectrum SPF 50 Plus Sunscreen Full Coverage Deep FairLight Neutral Tan Rich Honey LightMedium and Neutral Medium; it cosmetics Your Skin But Better CC Plus Illumination Color Correcting Illuminating Broad Spectrum SPF 50 Plus Sunscreen Full Coverage FairLight NeutralTan RichHoney LightMedium and NeutralMedium; it cosmetics Your Skin But Better CC Plus Oil Free Matte Poreless Finish Full Coverage Broad Spectrum SPF 40 Sunscreen All Shades; jane Be Beautiful Multi-Benefit BB Broad Spectrum SPF 30 Dark; jane Be Beautiful Multi-Benefit BB Broad Spectrum SPF 30 Light; jane Be Beautiful Multi-Benefit BB Broad Spectrum SPF 30 Medium; kids SPF 50plus sunscreen continuous; koa protect our ocean life OXYBENZONE FREE Broad Spectrum SPF 30 UVA UVB Protection Sunscreen; made of Broad Spectrum SPF 30 Non-Nano Zinc Oxide Sunscreen; made of Diaper Rash Cream; mally Face Defender Foundation; mally Face Defender Foundation BB; mally Poreless Perfection Glowing Foundation Fair; mally Poreless Perfection Glowing Foundation Light; mally Poreless Perfection Glowing Foundation Medium; mally Poreless Perfection Glowing Foundation Rich; mally Poreless Perfection Glowing Foundation Tan; matte full cover cushion C11; matte full cover cushion C13; matte full cover cushion C21; matte full cover cushion C43; matte full cover cushion N21; matte full cover cushion N23; matte full cover cushion N27; matte full cover cushion N31; matte full cover cushion W21; matte full cover cushion W23; matte full cover cushion W33; matte full cover cushion W34; matte full cover cushion W35; matte full cover cushion W37; medpak(TM) Derma Guard; myBody PROTECT AND SERVE SPF-30; napoleon PERDIS ADVANCED MINERAL MAKEUP BROAD SPECTRUM SPF 15 Look 1; napoleon PERDIS ADVANCED MINERAL MAKEUP BROAD SPECTRUM SPF 15 Look 2; napoleon PERDIS ADVANCED MINERAL MAKEUP BROAD SPECTRUM SPF 15 Look 3; napoleon PERDIS ADVANCED MINERAL MAKEUP BROAD SPECTRUM SPF 15 Look 4; napoleon PERDIS ADVANCED MINERAL MAKEUP BROAD SPECTRUM SPF 15 Look 5; napoleon PERDIS AUTO PILOT BBB BROAD SPECTRUM SPF 30 LIGHT-MEDIUM; napoleon PERDIS AUTO PILOT BBB BROAD SPECTRUM SPF 30 MEDIUM-DARK; napoleon PERDIS CHINA DOLL FOUNDATION BROAD SPECTRUM SPF 15 Look 1; napoleon PERDIS CHINA DOLL FOUNDATION BROAD SPECTRUM SPF 15 Look 2; napoleon PERDIS CHINA DOLL FOUNDATION BROAD SPECTRUM SPF 15 Look 2B; napoleon PERDIS CHINA DOLL FOUNDATION BROAD SPECTRUM SPF 15 Look 3; napoleon PERDIS CHINA DOLL FOUNDATION BROAD SPECTRUM SPF 15 Look 4; ocean elements sheer daily moisture broad spectrum SPF 30; plantogen Protective Moisturizer Broad Spectrum SPF; restorsea Rejuvenating Day SPF 30 Broad Spectrum UVA UVB with Vibransea Complex; sheer tint SPF 45; shu uemura face architect glow enhancing foundation SPF 26; silk SPF facial sunscreen fluid hybrid broad spectrum SPF 30 UVA/UVB; skinlycious Clear skin complete starter kit; stila bronzing tinted moisturizer oil-free SPF 20; sugar rush skin treat blurring skin tint Broad Spectrum SPF 20 Sunscreen deep; sugar rush skin treat blurring skin tint Broad Spectrum SPF 20 Sunscreen fair; sugar rush skin treat blurring skin tint Broad Spectrum SPF 20 Sunscreen light; sugar rush skin treat blurring skin tint Broad Spectrum SPF 20 Sunscreen light-medium; sugar rush skin treat blurring skin tint Broad Spectrum SPF 20 Sunscreen medium; sugar rush skin treat blurring skin tint Broad Spectrum SPF 20 Sunscreen rich; sugar rush skin treat blurring skin tint Broad Spectrum SPF 20 Sunscreen tan; sugar rush skin treat blurring skin tint Broad Spectrum SPF 20 Sunscreen tan-deep; sugar rush skin treat poreless tinted moisturizer Broad Spectrum SPF 20 Sunscreen deep; sugar rush skin treat poreless tinted moisturizer Broad Spectrum SPF 20 Sunscreen fair; sugar rush skin treat poreless tinted moisturizer Broad Spectrum SPF 20 Sunscreen light; sugar rush skin treat poreless tinted moisturizer Broad Spectrum SPF 20 Sunscreen light-medium; sugar rush skin treat poreless tinted moisturizer Broad Spectrum SPF 20 Sunscreen mahogany; sugar rush skin treat poreless tinted moisturizer Broad Spectrum SPF 20 Sunscreen medium; sugar rush skin treat poreless tinted moisturizer Broad Spectrum SPF 20 Sunscreen rich; sugar rush skin treat poreless tinted moisturizer Broad Spectrum SPF 20 Sunscreen tan; sugar rush skin treat poreless tinted moisturizer Broad Spectrum SPF 20 Sunscreen tan-deep; sunbetter Broad Spectrum SPF 56 Sunscreen Compact Sheer; sunbetter Broad Spectrum SPF 56 Sunscreen Stick Sheer; sunbetter Broad Spectrum SPF 68 Sunscreen Compact Tone Smart; sunbetter Broad Spectrum SPF 70 Sunscreen Sheer; sunbetter Broad Spectrum SPF 75 Sunscreen Tone Smart; take cover anti-aging foundation DEEP; take cover anti-aging foundation FAIR; take cover anti-aging foundation LIGHT; take cover anti-aging foundation MEDIUM; take cover anti-aging foundation MEDIUM DEEP; take cover anti-aging foundation MEDIUM RICH; tarteguard 30 sunscreen Broad Spectrum SPF 30; the SAEM Foundation 01 Light; the SAEM Foundation 02 Medium; the SAEM Foundation 03 Medium Deep; toty Ilumina CC Cream 1C; toty Ilumina CC Cream 1N; toty Ilumina CC Cream 1W; toty Ilumina CC Cream 2C; toty Ilumina CC Cream 2N; toty Ilumina CC Cream 2W; toty Ilumina CC Cream 3C; toty Ilumina CC Cream 3N; toty Ilumina CC Cream 3W; toty Ilumina CC Cream 4C; toty Ilumina CC Cream 4N; toty Ilumina CC Cream 4W; toty Ilumina CC Cream 5W; toty Ilumina CC Cream 5W1; toty Ilumina CC Cream 5W2; touch in SOL Advanced Real Moisture Li quid Foundation 21 Nude Beige; touch in SOL Advanced Real Moisture Li quid Foundation 23 Natural Beige; touch in SOL Dark Long Lasting Primer Base BRIGHT PURPLE; touch in SOL Dark Long Lasting Primer Base PURE PEACH; touch in SOL Dark Out Long Lasting Primer Base FRESH GREEN; touch in SOL Pang Pang Sun Cutting; true natural Caribbean Coconut 30; vbeaute Day Job 30ml; vitaMedMD One Rx; zermat skin Broad Spectrum Sunscreen SPF 30; Écran Jour Creme Protectrice SPF 15 - Avene

$$$$
