
  Mrv0541 05041405392D          

 63 66  0  0  1  0            999 V2000
   -3.5724   -7.8375    0.0000 C   0  0  0  0  0  0  0  0  0  0  0  0
   -2.8579   -7.4250    0.0000 C   0  0  0  0  0  0  0  0  0  0  0  0
   -3.5724   -6.1875    0.0000 C   0  0  0  0  0  0  0  0  0  0  0  0
   -5.0013   -8.6625    0.0000 C   0  0  0  0  0  0  0  0  0  0  0  0
   -8.5737   -9.0750    0.0000 C   0  0  0  0  0  0  0  0  0  0  0  0
   -3.5724   -8.6625    0.0000 C   0  0  2  0  0  0  0  0  0  0  0  0
   -2.8579   -6.6000    0.0000 C   0  0  0  0  0  0  0  0  0  0  0  0
   -2.1434   -7.8375    0.0000 C   0  0  1  0  0  0  0  0  0  0  0  0
   -5.7158   -9.0750    0.0000 C   0  0  2  0  0  0  0  0  0  0  0  0
   -9.2881   -8.6625    0.0000 C   0  0  2  0  0  0  0  0  0  0  0  0
   -2.8579   -9.0750    0.0000 C   0  0  2  0  0  0  0  0  0  0  0  0
   -2.1434   -6.1875    0.0000 C   0  0  2  0  0  0  0  0  0  0  0  0
   -1.4289   -7.4250    0.0000 C   0  0  1  0  0  0  0  0  0  0  0  0
   -9.2881   -7.8375    0.0000 C   0  0  2  0  0  0  0  0  0  0  0  0
   -2.8579   -9.9000    0.0000 C   0  0  1  0  0  0  0  0  0  0  0  0
   -1.4289   -6.6000    0.0000 C   0  0  1  0  0  0  0  0  0  0  0  0
  -10.0026   -7.4250    0.0000 C   0  0  1  0  0  0  0  0  0  0  0  0
   -6.4302  -10.3125    0.0000 C   0  0  2  0  0  0  0  0  0  0  0  0
  -10.7171   -7.8375    0.0000 C   0  0  2  0  0  0  0  0  0  0  0  0
   -3.5724  -10.3125    0.0000 C   0  0  2  0  0  0  0  0  0  0  0  0
   -7.1447   -9.9000    0.0000 C   0  0  2  0  0  0  0  0  0  0  0  0
   -5.7158   -9.9000    0.0000 C   0  0  2  0  0  0  0  0  0  0  0  0
  -10.7171   -8.6625    0.0000 C   0  0  2  0  0  0  0  0  0  0  0  0
   -7.1447   -9.0750    0.0000 C   0  0  1  0  0  0  0  0  0  0  0  0
   -4.2868   -9.9000    0.0000 C   0  0  2  0  0  0  0  0  0  0  0  0
   -2.1434   -8.6625    0.0000 N   0  0  0  0  0  0  0  0  0  0  0  0
   -3.5724   -5.3625    0.0000 O   0  0  0  0  0  0  0  0  0  0  0  0
   -5.0013   -7.8375    0.0000 O   0  0  0  0  0  0  0  0  0  0  0  0
   -2.1434   -5.3625    0.0000 O   0  0  0  0  0  0  0  0  0  0  0  0
   -0.7145   -7.8375    0.0000 O   0  0  0  0  0  0  0  0  0  0  0  0
   -8.5737   -7.4250    0.0000 O   0  0  0  0  0  0  0  0  0  0  0  0
   -2.1434  -10.3125    0.0000 O   0  0  0  0  0  0  0  0  0  0  0  0
   -0.7145   -6.1875    0.0000 O   0  0  0  0  0  0  0  0  0  0  0  0
  -10.0026   -6.6000    0.0000 O   0  0  0  0  0  0  0  0  0  0  0  0
   -6.4302  -11.1375    0.0000 O   0  0  0  0  0  0  0  0  0  0  0  0
  -11.4315   -7.4250    0.0000 O   0  0  0  0  0  0  0  0  0  0  0  0
   -3.5724  -11.1375    0.0000 O   0  0  0  0  0  0  0  0  0  0  0  0
   -7.8592  -10.3125    0.0000 O   0  0  0  0  0  0  0  0  0  0  0  0
  -11.4315   -9.0750    0.0000 O   0  0  0  0  0  0  0  0  0  0  0  0
   -7.8592   -8.6625    0.0000 O   0  0  0  0  0  0  0  0  0  0  0  0
   -4.2868   -9.0750    0.0000 O   0  0  0  0  0  0  0  0  0  0  0  0
  -10.0026   -9.0750    0.0000 O   0  0  0  0  0  0  0  0  0  0  0  0
   -6.4302   -8.6625    0.0000 O   0  0  0  0  0  0  0  0  0  0  0  0
   -5.0013  -10.3125    0.0000 O   0  0  0  0  0  0  0  0  0  0  0  0
   -2.8579   -8.2500    0.0000 H   0  0  0  0  0  0  0  0  0  0  0  0
   -2.6737   -8.4695    0.0000 H   0  0  0  0  0  0  0  0  0  0  0  0
   -4.9033   -9.2183    0.0000 H   0  0  0  0  0  0  0  0  0  0  0  0
   -8.7578   -8.0305    0.0000 H   0  0  0  0  0  0  0  0  0  0  0  0
   -3.1401   -8.2998    0.0000 H   0  0  0  0  0  0  0  0  0  0  0  0
   -2.8579   -5.7750    0.0000 H   0  0  0  0  0  0  0  0  0  0  0  0
   -1.4289   -8.2500    0.0000 H   0  0  0  0  0  0  0  0  0  0  0  0
   -8.4757   -7.9808    0.0000 H   0  0  0  0  0  0  0  0  0  0  0  0
   -2.1434   -9.4875    0.0000 H   0  0  0  0  0  0  0  0  0  0  0  0
   -1.4289   -5.7750    0.0000 H   0  0  0  0  0  0  0  0  0  0  0  0
   -9.2881   -7.0125    0.0000 H   0  0  0  0  0  0  0  0  0  0  0  0
   -6.9605  -10.9445    0.0000 H   0  0  0  0  0  0  0  0  0  0  0  0
  -10.7171   -7.0125    0.0000 H   0  0  0  0  0  0  0  0  0  0  0  0
   -2.8579  -10.7250    0.0000 H   0  0  0  0  0  0  0  0  0  0  0  0
   -7.4269  -10.6752    0.0000 H   0  0  0  0  0  0  0  0  0  0  0  0
   -4.9033   -9.7567    0.0000 H   0  0  0  0  0  0  0  0  0  0  0  0
  -11.4315   -8.2500    0.0000 H   0  0  0  0  0  0  0  0  0  0  0  0
   -7.8592   -9.4875    0.0000 H   0  0  0  0  0  0  0  0  0  0  0  0
   -4.2868  -10.7250    0.0000 H   0  0  0  0  0  0  0  0  0  0  0  0
  6  1  1  6  0  0  0
  7  2  2  0  0  0  0
  7  3  1  0  0  0  0
  8  2  1  0  0  0  0
  9  4  1  6  0  0  0
 10  5  1  1  0  0  0
 11  6  1  0  0  0  0
 12  7  1  0  0  0  0
 13  8  1  0  0  0  0
 14 10  1  0  0  0  0
 15 11  1  0  0  0  0
 16 12  1  0  0  0  0
 16 13  1  0  0  0  0
 17 14  1  0  0  0  0
 19 17  1  0  0  0  0
 20 15  1  0  0  0  0
 21 18  1  0  0  0  0
 22  9  1  0  0  0  0
 22 18  1  0  0  0  0
 23 19  1  0  0  0  0
 24 21  1  0  0  0  0
 25 20  1  0  0  0  0
  8 26  1  1  0  0  0
 11 26  1  1  0  0  0
 27  3  1  0  0  0  0
 28  4  1  0  0  0  0
 12 29  1  1  0  0  0
 13 30  1  1  0  0  0
 14 31  1  6  0  0  0
 15 32  1  6  0  0  0
 16 33  1  6  0  0  0
 17 34  1  1  0  0  0
 18 35  1  6  0  0  0
 19 36  1  6  0  0  0
 20 37  1  1  0  0  0
 21 38  1  1  0  0  0
 23 39  1  1  0  0  0
 40  5  1  0  0  0  0
 24 40  1  1  0  0  0
 41  6  1  0  0  0  0
 41 25  1  0  0  0  0
 42 10  1  0  0  0  0
 42 23  1  0  0  0  0
 43  9  1  0  0  0  0
 43 24  1  0  0  0  0
 22 44  1  1  0  0  0
 25 44  1  1  0  0  0
  6 45  1  1  0  0  0
  8 46  1  6  0  0  0
  9 47  1  1  0  0  0
 10 48  1  6  0  0  0
 11 49  1  6  0  0  0
 12 50  1  6  0  0  0
 13 51  1  6  0  0  0
 14 52  1  1  0  0  0
 15 53  1  1  0  0  0
 16 54  1  1  0  0  0
 17 55  1  6  0  0  0
 18 56  1  1  0  0  0
 19 57  1  1  0  0  0
 20 58  1  6  0  0  0
 21 59  1  6  0  0  0
 22 60  1  6  0  0  0
 23 61  1  6  0  0  0
 24 62  1  6  0  0  0
 25 63  1  6  0  0  0
M  END
> <DATABASE_ID>
DB03495

> <DATABASE_NAME>
drugbank

> <SMILES>
[H][C@]1(C)O[C@]([H])(O[C@]2([H])[C@@]([H])(CO)O[C@]([H])(OC[C@@]3([H])O[C@@]([H])(O)[C@]([H])(O)[C@@]([H])(O)[C@]3([H])O)[C@]([H])(O)[C@@]2([H])O)[C@]([H])(O)[C@@]([H])(O)[C@]1([H])N[C@@]1([H])C=C(CO)[C@@]([H])(O)[C@]([H])(O)[C@@]1([H])O

> <INCHI_IDENTIFIER>
InChI=1S/C25H43NO18/c1-6-11(26-8-2-7(3-27)12(29)16(33)13(8)30)15(32)20(37)25(41-6)44-22-9(4-28)43-24(21(38)18(22)35)40-5-10-14(31)17(34)19(36)23(39)42-10/h2,6,8-39H,3-5H2,1H3/t6-,8+,9-,10-,11-,12-,13+,14-,15+,16+,17+,18-,19-,20-,21-,22-,23-,24+,25-/m1/s1

> <INCHI_KEY>
FZLCJZILHGFQLM-PISLJJGOSA-N

> <FORMULA>
C25H43NO18

> <MOLECULAR_WEIGHT>
645.6048

> <EXACT_MASS>
645.248013577

> <JCHEM_ACCEPTOR_COUNT>
19

> <JCHEM_ATOM_COUNT>
87

> <JCHEM_AVERAGE_NEUTRAL_MICROSPECIES_CHARGE>
0.5180923190218549

> <JCHEM_AVERAGE_POLARIZABILITY>
61.881272346776385

> <JCHEM_BIOAVAILABILITY>
0

> <JCHEM_DONOR_COUNT>
14

> <JCHEM_FORMAL_CHARGE>
0

> <JCHEM_GHOSE_FILTER>
0

> <JCHEM_IUPAC>
(2R,3R,4S,5S,6R)-6-({[(2S,3R,4R,5S,6R)-5-{[(2R,3R,4S,5S,6R)-3,4-dihydroxy-6-methyl-5-{[(1S,4R,5S,6S)-4,5,6-trihydroxy-3-(hydroxymethyl)cyclohex-2-en-1-yl]amino}oxan-2-yl]oxy}-3,4-dihydroxy-6-(hydroxymethyl)oxan-2-yl]oxy}methyl)oxane-2,3,4,5-tetrol

> <ALOGPS_LOGP>
-2.66

> <JCHEM_LOGP>
-7.614558856666667

> <ALOGPS_LOGS>
-0.67

> <JCHEM_MDDR_LIKE_RULE>
1

> <JCHEM_NEUTRAL_CHARGE>
1

> <JCHEM_NUMBER_OF_RINGS>
4

> <JCHEM_PHYSIOLOGICAL_CHARGE>
0

> <JCHEM_PKA>
12.006002805292935

> <JCHEM_PKA_STRONGEST_ACIDIC>
11.225308274261572

> <JCHEM_PKA_STRONGEST_BASIC>
7.0315951976629965

> <JCHEM_POLAR_SURFACE_AREA>
321.17

> <JCHEM_REFRACTIVITY>
137.60239999999996

> <JCHEM_ROTATABLE_BOND_COUNT>
9

> <JCHEM_RULE_OF_FIVE>
0

> <ALOGPS_SOLUBILITY>
1.38e+02 g/l

> <JCHEM_TRADITIONAL_IUPAC>
biotin

> <JCHEM_VEBER_RULE>
0

> <DRUGBANK_ID>
DB03495

> <SECONDARY_ACCESSION_NUMBERS>
EXPT01820

> <DRUG_GROUPS>
experimental

> <GENERIC_NAME>
4,6-Dideoxy-4-{[4,5,6-Trihydroxy-3-(Hydroxymethyl)Cyclohex-2-En-1-Yl]Amino}-Alpha-D-Lyxo-Hexopyranosyl-(1->4)-Alpha-D-Threo-Hexopyranosyl-(1->6)-Alpha-L-Threo-Hexopyranose

$$$$
