
  Mrv0541 02231216292D          

  9  9  0  0  0  0            999 V2000
    1.4289   -1.6500    0.0000 O   0  0  0  0  0  0  0  0  0  0  0  0
    0.7145   -1.2375    0.0000 C   0  0  0  0  0  0  0  0  0  0  0  0
    0.7145   -0.4125    0.0000 C   0  0  0  0  0  0  0  0  0  0  0  0
    0.0000    0.0000    0.0000 C   0  0  0  0  0  0  0  0  0  0  0  0
    0.0000    0.8250    0.0000 C   0  0  0  0  0  0  0  0  0  0  0  0
    0.7145    1.2375    0.0000 C   0  0  0  0  0  0  0  0  0  0  0  0
    0.7145    2.0625    0.0000 Br  0  0  0  0  0  0  0  0  0  0  0  0
    1.4289    0.8250    0.0000 C   0  0  0  0  0  0  0  0  0  0  0  0
    1.4289    0.0000    0.0000 C   0  0  0  0  0  0  0  0  0  0  0  0
  1  2  1  0  0  0  0
  2  3  1  0  0  0  0
  3  4  2  0  0  0  0
  4  5  1  0  0  0  0
  5  6  2  0  0  0  0
  6  7  1  0  0  0  0
  6  8  1  0  0  0  0
  8  9  2  0  0  0  0
  3  9  1  0  0  0  0
M  END
> <DATABASE_ID>
DB02822

> <DATABASE_NAME>
drugbank

> <SMILES>
OCC1=CC=C(Br)C=C1

> <INCHI_IDENTIFIER>
InChI=1S/C7H7BrO/c8-7-3-1-6(5-9)2-4-7/h1-4,9H,5H2

> <INCHI_KEY>
VEDDBHYQWFOITD-UHFFFAOYSA-N

> <FORMULA>
C7H7BrO

> <MOLECULAR_WEIGHT>
187.034

> <EXACT_MASS>
185.968027493

> <JCHEM_ACCEPTOR_COUNT>
1

> <JCHEM_ATOM_COUNT>
16

> <JCHEM_AVERAGE_NEUTRAL_MICROSPECIES_CHARGE>
-1.043165925959864e-08

> <JCHEM_AVERAGE_POLARIZABILITY>
15.349257431283258

> <JCHEM_BIOAVAILABILITY>
1

> <JCHEM_DONOR_COUNT>
1

> <JCHEM_FORMAL_CHARGE>
0

> <JCHEM_GHOSE_FILTER>
0

> <JCHEM_IUPAC>
(4-bromophenyl)methanol

> <ALOGPS_LOGP>
2.01

> <JCHEM_LOGP>
1.9746486739999995

> <ALOGPS_LOGS>
-1.79

> <JCHEM_MDDR_LIKE_RULE>
0

> <JCHEM_NEUTRAL_CHARGE>
0

> <JCHEM_NUMBER_OF_RINGS>
1

> <JCHEM_PHYSIOLOGICAL_CHARGE>
0

> <JCHEM_PKA_STRONGEST_ACIDIC>
14.97524049659336

> <JCHEM_PKA_STRONGEST_BASIC>
-2.8096298067900634

> <JCHEM_POLAR_SURFACE_AREA>
20.23

> <JCHEM_REFRACTIVITY>
40.496700000000004

> <JCHEM_ROTATABLE_BOND_COUNT>
1

> <JCHEM_RULE_OF_FIVE>
1

> <ALOGPS_SOLUBILITY>
3.01e+00 g/l

> <JCHEM_TRADITIONAL_IUPAC>
tetrahydrofolic acid

> <JCHEM_VEBER_RULE>
1

> <DRUGBANK_ID>
DB02822

> <SECONDARY_ACCESSION_NUMBERS>
EXPT00748

> <DRUG_GROUPS>
experimental

> <GENERIC_NAME>
Para-Bromobenzyl Alcohol

$$$$
