
  Mrv0541 05041403442D          

 16 16  0  0  1  0            999 V2000
    1.4289   -0.0000    0.0000 C   0  0  0  0  0  0  0  0  0  0  0  0
    0.0000   -0.0000    0.0000 C   0  0  0  0  0  0  0  0  0  0  0  0
    1.4289    0.8250    0.0000 C   0  0  0  0  0  0  0  0  0  0  0  0
    0.0000    0.8250    0.0000 C   0  0  2  0  0  0  0  0  0  0  0  0
    0.7145    1.2375    0.0000 C   0  0  2  0  0  0  0  0  0  0  0  0
    1.1018   -1.1409    0.0000 C   0  0  0  0  0  0  0  0  0  0  0  0
    0.7145   -0.4125    0.0000 C   0  0  2  0  0  0  0  0  0  0  0  0
    2.1434    1.2375    0.0000 N   0  0  0  0  0  0  0  0  0  0  0  0
   -0.7145    1.2375    0.0000 O   0  0  0  0  0  0  0  0  0  0  0  0
    0.7145    2.0625    0.0000 O   0  0  0  0  0  0  0  0  0  0  0  0
    1.9263   -1.1697    0.0000 O   0  0  0  0  0  0  0  0  0  0  0  0
    0.6646   -1.8406    0.0000 O   0  0  0  0  0  0  0  0  0  0  0  0
    0.3272   -1.1409    0.0000 O   0  0  0  0  0  0  0  0  0  0  0  0
    2.8579    0.8250    0.0000 O   0  0  0  0  0  0  0  0  0  0  0  0
   -0.7145    0.4125    0.0000 H   0  0  0  0  0  0  0  0  0  0  0  0
    1.4289    1.6500    0.0000 H   0  0  0  0  0  0  0  0  0  0  0  0
  3  1  1  0  0  0  0
  4  2  1  0  0  0  0
  5  3  1  0  0  0  0
  5  4  1  0  0  0  0
  7  1  1  0  0  0  0
  7  2  1  0  0  0  0
  7  6  1  1  0  0  0
  8  3  2  0  0  0  0
  4  9  1  1  0  0  0
  5 10  1  6  0  0  0
 11  6  2  0  0  0  0
 12  6  1  0  0  0  0
  7 13  1  6  0  0  0
 14  8  1  0  0  0  0
  4 15  1  6  0  0  0
  5 16  1  1  0  0  0
M  END
> <DATABASE_ID>
DB03739

> <DATABASE_NAME>
drugbank

> <SMILES>
[H][C@@]1(O)C[C@@](O)(C\C(=N/O)[C@@]1([H])O)C(O)=O

> <INCHI_IDENTIFIER>
InChI=1S/C7H11NO6/c9-4-2-7(13,6(11)12)1-3(8-14)5(4)10/h4-5,9-10,13-14H,1-2H2,(H,11,12)/b8-3+/t4-,5-,7+/m1/s1

> <INCHI_KEY>
WASIBXJFRXJWAR-GKQOBJDDSA-N

> <FORMULA>
C7H11NO6

> <MOLECULAR_WEIGHT>
205.1653

> <EXACT_MASS>
205.058637089

> <JCHEM_ACCEPTOR_COUNT>
7

> <JCHEM_ATOM_COUNT>
25

> <JCHEM_AVERAGE_NEUTRAL_MICROSPECIES_CHARGE>
-1.0045785802739768

> <JCHEM_AVERAGE_POLARIZABILITY>
18.051230089490435

> <JCHEM_BIOAVAILABILITY>
1

> <JCHEM_DONOR_COUNT>
5

> <JCHEM_FORMAL_CHARGE>
0

> <JCHEM_GHOSE_FILTER>
0

> <JCHEM_IUPAC>
(1S,3R,4R,5E)-1,3,4-trihydroxy-5-(hydroxyimino)cyclohexane-1-carboxylic acid

> <ALOGPS_LOGP>
-2.21

> <JCHEM_LOGP>
-2.0457700926666664

> <ALOGPS_LOGS>
-0.33

> <JCHEM_MDDR_LIKE_RULE>
0

> <JCHEM_NEUTRAL_CHARGE>
-1

> <JCHEM_NUMBER_OF_RINGS>
1

> <JCHEM_PHYSIOLOGICAL_CHARGE>
-1

> <JCHEM_PKA>
9.317628425229772

> <JCHEM_PKA_STRONGEST_ACIDIC>
3.3253239251769857

> <JCHEM_PKA_STRONGEST_BASIC>
-3.248799212601526

> <JCHEM_POLAR_SURFACE_AREA>
130.58

> <JCHEM_REFRACTIVITY>
42.5191

> <JCHEM_ROTATABLE_BOND_COUNT>
1

> <JCHEM_RULE_OF_FIVE>
1

> <ALOGPS_SOLUBILITY>
9.56e+01 g/l

> <JCHEM_TRADITIONAL_IUPAC>
tetrahydrofolic acid

> <JCHEM_VEBER_RULE>
0

> <DRUGBANK_ID>
DB03739

> <SECONDARY_ACCESSION_NUMBERS>
EXPT01388

> <DRUG_GROUPS>
experimental

> <GENERIC_NAME>
3-Hydroxyimino Quinic Acid

$$$$
