
  Mrv0541 02231215542D          

 16 15  0  0  1  0            999 V2000
    9.9513    4.0954    0.0000 N   0  0  0  0  0  0  0  0  0  0  0  0
    9.9513    3.2704    0.0000 C   0  0  1  0  0  0  0  0  0  0  0  0
    9.2368    2.8579    0.0000 C   0  0  0  0  0  0  0  0  0  0  0  0
    8.5224    3.2704    0.0000 C   0  0  0  0  0  0  0  0  0  0  0  0
    7.8079    2.8579    0.0000 C   0  0  0  0  0  0  0  0  0  0  0  0
    7.0934    3.2704    0.0000 N   0  0  0  0  0  0  0  0  0  0  0  0
    6.3789    2.8579    0.0000 C   0  0  0  0  0  0  0  0  0  0  0  0
    6.3789    2.0329    0.0000 O   0  0  0  0  0  0  0  0  0  0  0  0
    5.6645    3.2704    0.0000 C   0  0  0  0  0  0  0  0  0  0  0  0
    4.9500    2.8579    0.0000 P   0  0  0  0  0  0  0  0  0  0  0  0
    4.2355    2.4454    0.0000 O   0  0  0  0  0  0  0  0  0  0  0  0
    5.3625    2.1434    0.0000 O   0  0  0  0  0  0  0  0  0  0  0  0
    4.5375    3.5724    0.0000 O   0  0  0  0  0  0  0  0  0  0  0  0
   10.6658    2.8579    0.0000 C   0  0  0  0  0  0  0  0  0  0  0  0
   11.3802    3.2704    0.0000 O   0  0  0  0  0  0  0  0  0  0  0  0
   10.6658    2.0329    0.0000 O   0  0  0  0  0  0  0  0  0  0  0  0
  2  1  1  6  0  0  0
  2  3  1  0  0  0  0
  3  4  1  0  0  0  0
  4  5  1  0  0  0  0
  5  6  1  0  0  0  0
  6  7  1  0  0  0  0
  7  8  2  0  0  0  0
  7  9  1  0  0  0  0
  9 10  1  0  0  0  0
 10 11  1  0  0  0  0
 10 12  1  0  0  0  0
 10 13  2  0  0  0  0
  2 14  1  0  0  0  0
 14 15  1  0  0  0  0
 14 16  2  0  0  0  0
M  END
> <DATABASE_ID>
DB02011

> <DATABASE_NAME>
drugbank

> <SMILES>
N[C@@H](CCCNC(=O)CP(O)(O)=O)C(O)=O

> <INCHI_IDENTIFIER>
InChI=1S/C7H15N2O6P/c8-5(7(11)12)2-1-3-9-6(10)4-16(13,14)15/h5H,1-4,8H2,(H,9,10)(H,11,12)(H2,13,14,15)/t5-/m0/s1

> <INCHI_KEY>
FCIHAQFHXJOLIF-YFKPBYRVSA-N

> <FORMULA>
C7H15N2O6P

> <MOLECULAR_WEIGHT>
254.1776

> <EXACT_MASS>
254.066772734

> <JCHEM_ACCEPTOR_COUNT>
7

> <JCHEM_ATOM_COUNT>
31

> <JCHEM_AVERAGE_NEUTRAL_MICROSPECIES_CHARGE>
-1.1302851100219087

> <JCHEM_AVERAGE_POLARIZABILITY>
22.613343271430388

> <JCHEM_BIOAVAILABILITY>
1

> <JCHEM_DONOR_COUNT>
5

> <JCHEM_FORMAL_CHARGE>
0

> <JCHEM_GHOSE_FILTER>
0

> <JCHEM_IUPAC>
(2S)-2-amino-5-(2-phosphonoacetamido)pentanoic acid

> <ALOGPS_LOGP>
-2.45

> <JCHEM_LOGP>
-4.251105610184412

> <ALOGPS_LOGS>
-1.64

> <JCHEM_MDDR_LIKE_RULE>
0

> <JCHEM_NEUTRAL_CHARGE>
-1

> <JCHEM_NUMBER_OF_RINGS>
0

> <JCHEM_PHYSIOLOGICAL_CHARGE>
-1

> <JCHEM_PKA>
2.303405671892135

> <JCHEM_PKA_STRONGEST_ACIDIC>
1.48021912817692

> <JCHEM_PKA_STRONGEST_BASIC>
9.278727454152937

> <JCHEM_POLAR_SURFACE_AREA>
149.95

> <JCHEM_REFRACTIVITY>
53.6426

> <JCHEM_ROTATABLE_BOND_COUNT>
7

> <JCHEM_RULE_OF_FIVE>
1

> <ALOGPS_SOLUBILITY>
5.85e+00 g/l

> <JCHEM_TRADITIONAL_IUPAC>
biotin

> <JCHEM_VEBER_RULE>
0

> <DRUGBANK_ID>
DB02011

> <SECONDARY_ACCESSION_NUMBERS>
EXPT02497

> <DRUG_GROUPS>
experimental

> <GENERIC_NAME>
N-(Phosphonoacetyl)-L-Ornithine

$$$$
