
  Mrv0541 05031423392D          

 27 29  0  0  1  0            999 V2000
   -1.8169   -3.2843    0.0000 C   0  0  0  0  0  0  0  0  0  0  0  0
   -0.5683   -1.4940    0.0000 C   0  0  0  0  0  0  0  0  0  0  0  0
    3.3523    1.1104    0.0000 C   0  0  0  0  0  0  0  0  0  0  0  0
    0.6538    1.5229    0.0000 C   0  0  0  0  0  0  0  0  0  0  0  0
    0.0992   -1.0091    0.0000 C   0  0  2  0  0  0  0  0  0  0  0  0
    1.9233    1.9354    0.0000 C   0  0  0  0  0  0  0  0  0  0  0  0
    0.8838   -1.2640    0.0000 C   0  0  2  0  0  0  0  0  0  0  0  0
    1.3687   -0.5966    0.0000 C   0  0  2  0  0  0  0  0  0  0  0  0
    2.6378    2.3479    0.0000 C   0  0  0  0  0  0  0  0  0  0  0  0
    1.9233    1.1104    0.0000 C   0  0  0  0  0  0  0  0  0  0  0  0
    0.8838    0.0709    0.0000 C   0  0  2  0  0  0  0  0  0  0  0  0
    2.6378    3.1729    0.0000 N   0  0  0  0  0  0  0  0  0  0  0  0
    3.3523    1.9354    0.0000 N   0  0  0  0  0  0  0  0  0  0  0  0
    2.6378    0.6979    0.0000 N   0  0  0  0  0  0  0  0  0  0  0  0
    1.1387    2.1904    0.0000 N   0  0  0  0  0  0  0  0  0  0  0  0
    1.1387    0.8555    0.0000 N   0  0  0  0  0  0  0  0  0  0  0  0
    1.1387   -2.0486    0.0000 O   0  0  0  0  0  0  0  0  0  0  0  0
    2.1937   -0.5966    0.0000 O   0  0  0  0  0  0  0  0  0  0  0  0
   -0.6646   -3.4668    0.0000 O   0  0  0  0  0  0  0  0  0  0  0  0
   -1.6344   -2.1319    0.0000 O   0  0  0  0  0  0  0  0  0  0  0  0
   -0.4820   -2.3145    0.0000 O   0  0  0  0  0  0  0  0  0  0  0  0
    0.0992   -0.1841    0.0000 O   0  0  0  0  0  0  0  0  0  0  0  0
   -1.1495   -2.7994    0.0000 P   0  0  0  0  0  0  0  0  0  0  0  0
    0.4991   -1.7306    0.0000 H   0  0  0  0  0  0  0  0  0  0  0  0
    0.5351   -2.0117    0.0000 H   0  0  0  0  0  0  0  0  0  0  0  0
    1.7432   -1.3316    0.0000 H   0  0  0  0  0  0  0  0  0  0  0  0
    1.6986    0.1999    0.0000 H   0  0  0  0  0  0  0  0  0  0  0  0
  5  2  1  1  0  0  0
  7  5  1  0  0  0  0
  8  7  1  0  0  0  0
  9  6  2  0  0  0  0
 10  6  1  0  0  0  0
 11  8  1  0  0  0  0
 12  9  1  0  0  0  0
 13  3  2  0  0  0  0
 13  9  1  0  0  0  0
 14  3  1  0  0  0  0
 14 10  2  0  0  0  0
 15  4  2  0  0  0  0
 15  6  1  0  0  0  0
 16  4  1  0  0  0  0
 16 10  1  0  0  0  0
 11 16  1  1  0  0  0
  7 17  1  6  0  0  0
  8 18  1  6  0  0  0
 21  2  1  0  0  0  0
 22  5  1  0  0  0  0
 22 11  1  0  0  0  0
 23  1  1  0  0  0  0
 23 19  1  0  0  0  0
 23 20  2  0  0  0  0
 23 21  1  0  0  0  0
  5 24  1  6  0  0  0
  7 25  1  1  0  0  0
  8 26  1  1  0  0  0
 11 27  1  6  0  0  0
M  END
> <DATABASE_ID>
DB02798

> <DATABASE_NAME>
drugbank

> <SMILES>
[H][C@]1(COP(C)(O)=O)O[C@@]([H])(N2C=NC3=C(N)N=CN=C23)[C@]([H])(O)[C@]1([H])O

> <INCHI_IDENTIFIER>
InChI=1S/C11H16N5O6P/c1-23(19,20)21-2-5-7(17)8(18)11(22-5)16-4-15-6-9(12)13-3-14-10(6)16/h3-5,7-8,11,17-18H,2H2,1H3,(H,19,20)(H2,12,13,14)/t5-,7-,8-,11-/m1/s1

> <INCHI_KEY>
PXSSQXBLDTZHLF-IOSLPCCCSA-N

> <FORMULA>
C11H16N5O6P

> <MOLECULAR_WEIGHT>
345.2484

> <EXACT_MASS>
345.083819781

> <JCHEM_ACCEPTOR_COUNT>
9

> <JCHEM_ATOM_COUNT>
39

> <JCHEM_AVERAGE_NEUTRAL_MICROSPECIES_CHARGE>
-0.9917689311300187

> <JCHEM_AVERAGE_POLARIZABILITY>
30.83723372804002

> <JCHEM_BIOAVAILABILITY>
1

> <JCHEM_DONOR_COUNT>
4

> <JCHEM_FORMAL_CHARGE>
0

> <JCHEM_GHOSE_FILTER>
0

> <JCHEM_IUPAC>
{[(2R,3S,4R,5R)-5-(6-amino-9H-purin-9-yl)-3,4-dihydroxyoxolan-2-yl]methoxy}(methyl)phosphinic acid

> <ALOGPS_LOGP>
-2.88

> <JCHEM_LOGP>
-4.755332368320333

> <ALOGPS_LOGS>
-2.04

> <JCHEM_MDDR_LIKE_RULE>
0

> <JCHEM_NEUTRAL_CHARGE>
-1

> <JCHEM_NUMBER_OF_RINGS>
3

> <JCHEM_PHYSIOLOGICAL_CHARGE>
-1

> <JCHEM_PKA>
12.457224817480094

> <JCHEM_PKA_STRONGEST_ACIDIC>
1.4069355004131234

> <JCHEM_PKA_STRONGEST_BASIC>
3.9400368263017955

> <JCHEM_POLAR_SURFACE_AREA>
165.83999999999997

> <JCHEM_REFRACTIVITY>
76.59460000000001

> <JCHEM_ROTATABLE_BOND_COUNT>
4

> <JCHEM_RULE_OF_FIVE>
1

> <ALOGPS_SOLUBILITY>
3.16e+00 g/l

> <JCHEM_TRADITIONAL_IUPAC>
biotin

> <JCHEM_VEBER_RULE>
0

> <DRUGBANK_ID>
DB02798

> <SECONDARY_ACCESSION_NUMBERS>
EXPT00399

> <DRUG_GROUPS>
experimental

> <GENERIC_NAME>
Alpha-Methylene Adenosine Monophosphate

$$$$
