
  Mrv0541 02241219522D          

 32 36  0  0  0  0            999 V2000
    2.5459   -2.7015    0.0000 O   0  0  0  0  0  0  0  0  0  0  0  0
    2.2910   -3.4861    0.0000 C   0  0  0  0  0  0  0  0  0  0  0  0
    1.8785   -2.2166    0.0000 C   0  0  2  0  0  0  0  0  0  0  0  0
    1.8785   -1.3916    0.0000 C   0  0  2  0  0  0  0  0  0  0  0  0
    2.5929   -0.9791    0.0000 N   0  0  0  0  0  0  0  0  0  0  0  0
    3.3074   -1.3916    0.0000 C   0  0  0  0  0  0  0  0  0  0  0  0
    2.5929   -0.1541    0.0000 C   0  0  0  0  0  0  0  0  0  0  0  0
    1.8785    0.2584    0.0000 C   0  0  0  0  0  0  0  0  0  0  0  0
    1.1640   -0.1541    0.0000 C   0  0  0  0  0  0  0  0  0  0  0  0
    0.4495    0.2584    0.0000 C   0  0  0  0  0  0  0  0  0  0  0  0
   -0.2649   -0.1541    0.0000 C   0  0  0  0  0  0  0  0  0  0  0  0
   -1.0496    0.1009    0.0000 O   0  0  0  0  0  0  0  0  0  0  0  0
   -1.5345   -0.5666    0.0000 C   0  0  0  0  0  0  0  0  0  0  0  0
   -1.0496   -1.2340    0.0000 O   0  0  0  0  0  0  0  0  0  0  0  0
   -0.2649   -0.9791    0.0000 C   0  0  0  0  0  0  0  0  0  0  0  0
    0.4495   -1.3916    0.0000 C   0  0  0  0  0  0  0  0  0  0  0  0
    0.4495   -2.2166    0.0000 O   0  0  0  0  0  0  0  0  0  0  0  0
   -0.2649   -2.6291    0.0000 C   0  0  0  0  0  0  0  0  0  0  0  0
    1.1640   -0.9791    0.0000 C   0  0  0  0  0  0  0  0  0  0  0  0
    2.8743   -4.0695    0.0000 O   0  0  0  0  0  0  0  0  0  0  0  0
    1.2110   -2.7015    0.0000 C   0  0  0  0  0  0  0  0  0  0  0  0
    0.4556   -2.4757    0.0000 C   0  0  0  0  0  0  0  0  0  0  0  0
   -0.1278   -3.0591    0.0000 C   0  0  0  0  0  0  0  0  0  0  0  0
    0.0857   -3.8560    0.0000 C   0  0  0  0  0  0  0  0  0  0  0  0
    0.8826   -4.0695    0.0000 C   0  0  0  0  0  0  0  0  0  0  0  0
    1.4660   -3.4861    0.0000 C   0  0  0  0  0  0  0  0  0  0  0  0
    1.0961   -4.8664    0.0000 O   0  0  0  0  0  0  0  0  0  0  0  0
    1.8930   -5.0799    0.0000 C   0  0  0  0  0  0  0  0  0  0  0  0
   -0.4977   -4.4393    0.0000 O   0  0  0  0  0  0  0  0  0  0  0  0
   -0.2841   -5.2362    0.0000 C   0  0  0  0  0  0  0  0  0  0  0  0
    1.8785   -3.0416    0.0000 H   0  0  0  0  0  0  0  0  0  0  0  0
    1.8785   -0.5666    0.0000 H   0  0  0  0  0  0  0  0  0  0  0  0
  1  2  1  0  0  0  0
  2 26  1  0  0  0  0
 21  3  1  0  0  0  0
  1  3  1  0  0  0  0
  3  4  1  0  0  0  0
  4  5  1  0  0  0  0
  5  6  1  0  0  0  0
  5  7  1  0  0  0  0
  7  8  1  0  0  0  0
  8  9  1  0  0  0  0
  9 10  2  0  0  0  0
 10 11  1  0  0  0  0
 11 12  1  0  0  0  0
 12 13  1  0  0  0  0
 13 14  1  0  0  0  0
 14 15  1  0  0  0  0
 11 15  2  0  0  0  0
 15 16  1  0  0  0  0
 16 17  1  0  0  0  0
 17 18  1  0  0  0  0
 16 19  2  0  0  0  0
  4 19  1  0  0  0  0
  9 19  1  0  0  0  0
  2 20  2  0  0  0  0
 21 22  1  0  0  0  0
 22 23  2  0  0  0  0
 23 24  1  0  0  0  0
 24 25  2  0  0  0  0
 25 26  1  0  0  0  0
 21 26  2  0  0  0  0
 25 27  1  0  0  0  0
 27 28  1  0  0  0  0
 24 29  1  0  0  0  0
 29 30  1  0  0  0  0
  3 31  1  6  0  0  0
  4 32  1  6  0  0  0
M  END
> <DATABASE_ID>
DB06174

> <DATABASE_NAME>
drugbank

> <SMILES>
[H][C@@]1(OC(=O)C2=C1C=CC(OC)=C2OC)[C@]1([H])N(C)CCC2=CC3=C(OCO3)C(OC)=C12

> <INCHI_IDENTIFIER>
InChI=1S/C22H23NO7/c1-23-8-7-11-9-14-20(29-10-28-14)21(27-4)15(11)17(23)18-12-5-6-13(25-2)19(26-3)16(12)22(24)30-18/h5-6,9,17-18H,7-8,10H2,1-4H3/t17-,18+/m1/s1

> <INCHI_KEY>
AKNNEGZIBPJZJG-MSOLQXFVSA-N

> <FORMULA>
C22H23NO7

> <MOLECULAR_WEIGHT>
413.4205

> <EXACT_MASS>
413.147452095

> <JCHEM_ACCEPTOR_COUNT>
7

> <JCHEM_ATOM_COUNT>
53

> <JCHEM_AVERAGE_NEUTRAL_MICROSPECIES_CHARGE>
0.5795409240228006

> <JCHEM_AVERAGE_POLARIZABILITY>
42.16866377973042

> <JCHEM_BIOAVAILABILITY>
1

> <JCHEM_DONOR_COUNT>
0

> <JCHEM_FORMAL_CHARGE>
0

> <JCHEM_GHOSE_FILTER>
1

> <JCHEM_IUPAC>
(3S)-6,7-dimethoxy-3-[(5R)-4-methoxy-6-methyl-2H,5H,6H,7H,8H-[1,3]dioxolo[4,5-g]isoquinolin-5-yl]-1,3-dihydro-2-benzofuran-1-one

> <ALOGPS_LOGP>
2.00

> <JCHEM_LOGP>
2.580710038

> <ALOGPS_LOGS>
-3.36

> <JCHEM_MDDR_LIKE_RULE>
0

> <JCHEM_NEUTRAL_CHARGE>
1

> <JCHEM_NUMBER_OF_RINGS>
5

> <JCHEM_PHYSIOLOGICAL_CHARGE>
1

> <JCHEM_PKA_STRONGEST_ACIDIC>
13.066964768064752

> <JCHEM_PKA_STRONGEST_BASIC>
7.139360183651885

> <JCHEM_POLAR_SURFACE_AREA>
75.69000000000001

> <JCHEM_REFRACTIVITY>
107.0761

> <JCHEM_ROTATABLE_BOND_COUNT>
4

> <JCHEM_RULE_OF_FIVE>
1

> <ALOGPS_SOLUBILITY>
1.81e-01 g/l

> <JCHEM_TRADITIONAL_IUPAC>
biotin

> <JCHEM_VEBER_RULE>
0

> <DRUGBANK_ID>
DB06174

> <DRUG_GROUPS>
approved; investigational

> <GENERIC_NAME>
Noscapine

> <SYNONYMS>
(−)-narcotine; (−)-α-narcotine; alpha-Narcotine; Noscapina; Noscapine; Noscapinum

> <SALTS>
Noscapine hydrochloride

$$$$
