
  Mrv0541 02231215412D          

 10 10  0  0  1  0            999 V2000
    2.1434   -0.4125    0.0000 C   0  0  0  0  0  0  0  0  0  0  0  0
    1.4289    0.0000    0.0000 C   0  0  2  0  0  0  0  0  0  0  0  0
    0.7145   -0.4125    0.0000 C   0  0  0  0  0  0  0  0  0  0  0  0
    0.0000    0.0000    0.0000 C   0  0  0  0  0  0  0  0  0  0  0  0
    0.0000    0.8250    0.0000 C   0  0  0  0  0  0  0  0  0  0  0  0
    0.7145    1.2375    0.0000 N   0  0  0  0  0  0  0  0  0  0  0  0
    1.4289    0.8250    0.0000 C   0  0  0  0  0  0  0  0  0  0  0  0
    0.7145    2.0625    0.0000 C   0  0  0  0  0  0  0  0  0  0  0  0
    0.0000    2.4750    0.0000 C   0  0  0  0  0  0  0  0  0  0  0  0
    1.4289    2.4750    0.0000 O   0  0  0  0  0  0  0  0  0  0  0  0
  2  1  1  6  0  0  0
  2  3  1  0  0  0  0
  3  4  1  0  0  0  0
  4  5  1  0  0  0  0
  5  6  1  0  0  0  0
  6  7  1  0  0  0  0
  2  7  1  0  0  0  0
  6  8  1  0  0  0  0
  8  9  1  0  0  0  0
  8 10  2  0  0  0  0
M  END
> <DATABASE_ID>
DB01742

> <DATABASE_NAME>
drugbank

> <SMILES>
C[C@@H]1CCCN(C1)C(C)=O

> <INCHI_IDENTIFIER>
InChI=1S/C8H15NO/c1-7-4-3-5-9(6-7)8(2)10/h7H,3-6H2,1-2H3/t7-/m1/s1

> <INCHI_KEY>
XKFPNHDGLSYZRC-SSDOTTSWSA-N

> <FORMULA>
C8H15NO

> <MOLECULAR_WEIGHT>
141.2108

> <EXACT_MASS>
141.115364107

> <JCHEM_ACCEPTOR_COUNT>
1

> <JCHEM_ATOM_COUNT>
25

> <JCHEM_AVERAGE_NEUTRAL_MICROSPECIES_CHARGE>
7.833214846472898e-09

> <JCHEM_AVERAGE_POLARIZABILITY>
16.56429593946462

> <JCHEM_BIOAVAILABILITY>
1

> <JCHEM_DONOR_COUNT>
0

> <JCHEM_FORMAL_CHARGE>
0

> <JCHEM_GHOSE_FILTER>
0

> <JCHEM_IUPAC>
1-[(3R)-3-methylpiperidin-1-yl]ethan-1-one

> <ALOGPS_LOGP>
0.91

> <JCHEM_LOGP>
0.6324027613333332

> <ALOGPS_LOGS>
-0.01

> <JCHEM_MDDR_LIKE_RULE>
0

> <JCHEM_NEUTRAL_CHARGE>
0

> <JCHEM_NUMBER_OF_RINGS>
1

> <JCHEM_PHYSIOLOGICAL_CHARGE>
0

> <JCHEM_PKA_STRONGEST_BASIC>
-1.1060599582262824

> <JCHEM_POLAR_SURFACE_AREA>
20.310000000000002

> <JCHEM_REFRACTIVITY>
40.8729

> <JCHEM_ROTATABLE_BOND_COUNT>
0

> <JCHEM_RULE_OF_FIVE>
1

> <ALOGPS_SOLUBILITY>
1.39e+02 g/l

> <JCHEM_TRADITIONAL_IUPAC>
biotin

> <JCHEM_VEBER_RULE>
1

> <DRUGBANK_ID>
DB01742

> <SECONDARY_ACCESSION_NUMBERS>
EXPT00079

> <DRUG_GROUPS>
experimental

> <GENERIC_NAME>
(3r)-1-Acetyl-3-Methylpiperidine

$$$$
