
  Mrv0541 02241204202D          

  3  2  0  0  0  0            999 V2000
    1.2375   -0.7145    0.0000 Cl  0  0  0  0  0  0  0  0  0  0  0  0
    1.9520   -1.1270    0.0000 Hg  0  0  0  0  0  0  0  0  0  0  0  0
    2.6664   -0.7145    0.0000 Cl  0  0  0  0  0  0  0  0  0  0  0  0
  1  2  1  0  0  0  0
  2  3  1  0  0  0  0
M  END
> <DATABASE_ID>
DB13765

> <DATABASE_NAME>
drugbank

> <SMILES>
Cl[Hg]Cl

> <INCHI_IDENTIFIER>
InChI=1S/2ClH.Hg/h2*1H;/q;;+2/p-2

> <INCHI_KEY>
LWJROJCJINYWOX-UHFFFAOYSA-L

> <FORMULA>
Cl2Hg

> <MOLECULAR_WEIGHT>
271.5

> <EXACT_MASS>
271.908331018

> <JCHEM_ACCEPTOR_COUNT>
0

> <JCHEM_ATOM_COUNT>
3

> <JCHEM_AVERAGE_NEUTRAL_MICROSPECIES_CHARGE>
0.0

> <JCHEM_AVERAGE_POLARIZABILITY>
7.265316990745099

> <JCHEM_BIOAVAILABILITY>
1

> <JCHEM_DONOR_COUNT>
0

> <JCHEM_FORMAL_CHARGE>
0

> <JCHEM_GHOSE_FILTER>
0

> <JCHEM_IUPAC>
dichloromercury

> <ALOGPS_LOGP>
0.42

> <JCHEM_LOGP>
0.569

> <ALOGPS_LOGS>
-0.52

> <JCHEM_MDDR_LIKE_RULE>
0

> <JCHEM_NEUTRAL_CHARGE>
0

> <JCHEM_NUMBER_OF_RINGS>
0

> <JCHEM_PHYSIOLOGICAL_CHARGE>
0

> <JCHEM_POLAR_SURFACE_AREA>
0.0

> <JCHEM_REFRACTIVITY>
12.2726

> <JCHEM_ROTATABLE_BOND_COUNT>
0

> <JCHEM_RULE_OF_FIVE>
1

> <ALOGPS_SOLUBILITY>
8.15e+01 g/l

> <JCHEM_TRADITIONAL_IUPAC>
biotin

> <JCHEM_VEBER_RULE>
1

> <DRUGBANK_ID>
DB13765

> <DRUG_GROUPS>
experimental

> <GENERIC_NAME>
Mercuric chloride

> <SYNONYMS>
bichlorure de mercure; chlorure mercurique; corrosive mercury chloride; corrosive sublimate; dichloromercury; dichlorure de mercure; hydrargyrum bichloratum; mercuric bichloride; Mercuric chloride; mercury bichloride; mercury perchloride; Mercury(II) chloride; Quecksilber(II)-chlorid; Sublimat; sublimate; Sulema

$$$$
