
  Mrv0541 05041412092D          

 33 38  0  0  1  0            999 V2000
    4.5466    1.3336    0.0000 C   0  0  0  0  0  0  0  0  0  0  0  0
    2.0307    1.7357    0.0000 C   0  0  0  0  0  0  0  0  0  0  0  0
   -1.3892    1.8815    0.0000 C   0  0  0  0  0  0  0  0  0  0  0  0
   -1.1089    1.1056    0.0000 C   0  0  0  0  0  0  0  0  0  0  0  0
   -0.8574    2.5122    0.0000 C   0  0  0  0  0  0  0  0  0  0  0  0
   -0.2968    0.9604    0.0000 C   0  0  0  0  0  0  0  0  0  0  0  0
    4.5754   -0.8489    0.0000 C   0  0  0  0  0  0  0  0  0  0  0  0
    3.7633   -0.7037    0.0000 C   0  0  0  0  0  0  0  0  0  0  0  0
    2.0195   -0.2889    0.0000 C   0  0  0  0  0  0  0  0  0  0  0  0
    1.3367    0.1741    0.0000 C   0  0  0  0  0  0  0  0  0  0  0  0
    6.1708    1.0432    0.0000 C   0  0  0  0  0  0  0  0  0  0  0  0
    3.7345    1.4789    0.0000 C   0  0  0  0  0  0  0  0  0  0  0  0
    5.3587    1.1884    0.0000 C   0  0  0  0  0  0  0  0  0  0  0  0
    2.9224    1.6241    0.0000 C   0  0  0  0  0  0  0  0  0  0  0  0
    5.9193   -0.3634    0.0000 C   0  0  0  0  0  0  0  0  0  0  0  0
    1.2889    2.4104    0.0000 C   0  0  0  0  0  0  0  0  0  0  0  0
    5.1072   -0.2182    0.0000 C   0  0  0  0  0  0  0  0  0  0  0  0
    6.4511    0.2673    0.0000 C   0  0  1  0  0  0  0  0  0  0  0  0
    3.4830    0.0722    0.0000 C   0  0  1  0  0  0  0  0  0  0  0  0
    2.6708    0.2174    0.0000 C   0  0  1  0  0  0  0  0  0  0  0  0
    4.0148    0.7029    0.0000 C   0  0  1  0  0  0  0  0  0  0  0  0
   -0.0452    2.3670    0.0000 C   0  0  0  0  0  0  0  0  0  0  0  0
    0.2351    1.5911    0.0000 C   0  0  0  0  0  0  0  0  0  0  0  0
    1.5660    0.9666    0.0000 C   0  0  0  0  0  0  0  0  0  0  0  0
    4.8269    0.5577    0.0000 C   0  0  2  0  0  0  0  0  0  0  0  0
    2.3905    0.9934    0.0000 C   0  0  2  0  0  0  0  0  0  0  0  0
    0.6061    2.8734    0.0000 N   0  0  0  0  0  0  0  0  0  0  0  0
    1.0596    1.6179    0.0000 N   0  0  0  0  0  0  0  0  0  0  0  0
    7.2632    0.1221    0.0000 O   0  0  0  0  0  0  0  0  0  0  0  0
    6.9829    0.8980    0.0000 H   0  0  0  0  0  0  0  0  0  0  0  0
    3.1989   -0.7023    0.0000 H   0  0  0  0  0  0  0  0  0  0  0  0
    2.5826   -0.6028    0.0000 H   0  0  0  0  0  0  0  0  0  0  0  0
    4.2988    1.4775    0.0000 H   0  0  0  0  0  0  0  0  0  0  0  0
  4  3  2  0  0  0  0
  5  3  1  0  0  0  0
  6  4  1  0  0  0  0
  8  7  1  0  0  0  0
 10  9  1  0  0  0  0
 13 11  1  0  0  0  0
 14 12  1  0  0  0  0
 17  7  2  0  0  0  0
 17 15  1  0  0  0  0
 18 11  1  0  0  0  0
 18 15  1  0  0  0  0
 19  8  1  0  0  0  0
 20  9  1  0  0  0  0
 20 19  1  0  0  0  0
 21 12  1  0  0  0  0
 21 19  1  0  0  0  0
 22  5  2  0  0  0  0
 23  6  2  0  0  0  0
 23 22  1  0  0  0  0
 24 10  2  0  0  0  0
 25  1  1  6  0  0  0
 25 13  1  0  0  0  0
 25 17  1  0  0  0  0
 25 21  1  0  0  0  0
 26  2  1  6  0  0  0
 26 14  1  0  0  0  0
 26 20  1  0  0  0  0
 26 24  1  0  0  0  0
 27 16  2  0  0  0  0
 27 22  1  0  0  0  0
 28 16  1  0  0  0  0
 28 23  1  0  0  0  0
 28 24  1  0  0  0  0
 18 29  1  6  0  0  0
 18 30  1  1  0  0  0
 19 31  1  6  0  0  0
 20 32  1  1  0  0  0
 21 33  1  1  0  0  0
M  END
> <DATABASE_ID>
DB12415

> <DATABASE_NAME>
drugbank

> <SMILES>
[H][C@@]12CC=C(N3C=NC4=CC=CC=C34)[C@@]1(C)CC[C@@]1([H])[C@@]2([H])CC=C2C[C@@]([H])(O)CC[C@]12C

> <INCHI_IDENTIFIER>
InChI=1S/C26H32N2O/c1-25-13-11-18(29)15-17(25)7-8-19-20-9-10-24(26(20,2)14-12-21(19)25)28-16-27-22-5-3-4-6-23(22)28/h3-7,10,16,18-21,29H,8-9,11-15H2,1-2H3/t18-,19-,20-,21-,25-,26-/m0/s1

> <INCHI_KEY>
PAFKTGFSEFKSQG-PAASFTFBSA-N

> <FORMULA>
C26H32N2O

> <MOLECULAR_WEIGHT>
388.5451

> <EXACT_MASS>
388.251463656

> <JCHEM_ACCEPTOR_COUNT>
2

> <JCHEM_ATOM_COUNT>
61

> <JCHEM_AVERAGE_NEUTRAL_MICROSPECIES_CHARGE>
0.009216087764857958

> <JCHEM_AVERAGE_POLARIZABILITY>
46.65584147878657

> <JCHEM_BIOAVAILABILITY>
1

> <JCHEM_DONOR_COUNT>
1

> <JCHEM_FORMAL_CHARGE>
0

> <JCHEM_GHOSE_FILTER>
1

> <JCHEM_IUPAC>
(3aS,3bR,7S,9aR,9bS,11aS)-1-(1H-1,3-benzodiazol-1-yl)-9a,11a-dimethyl-3H,3aH,3bH,4H,6H,7H,8H,9H,9aH,9bH,10H,11H,11aH-cyclopenta[a]phenanthren-7-ol

> <ALOGPS_LOGP>
5.95

> <JCHEM_LOGP>
4.467677880000001

> <ALOGPS_LOGS>
-5.25

> <JCHEM_MDDR_LIKE_RULE>
0

> <JCHEM_NEUTRAL_CHARGE>
0

> <JCHEM_NUMBER_OF_RINGS>
6

> <JCHEM_PHYSIOLOGICAL_CHARGE>
0

> <JCHEM_PKA_STRONGEST_ACIDIC>
18.204289505501876

> <JCHEM_PKA_STRONGEST_BASIC>
4.9685676525353895

> <JCHEM_POLAR_SURFACE_AREA>
38.05

> <JCHEM_REFRACTIVITY>
118.57849999999996

> <JCHEM_ROTATABLE_BOND_COUNT>
1

> <JCHEM_RULE_OF_FIVE>
1

> <ALOGPS_SOLUBILITY>
2.19e-03 g/l

> <JCHEM_TRADITIONAL_IUPAC>
tetrahydrofolic acid

> <JCHEM_VEBER_RULE>
1

> <DRUGBANK_ID>
DB12415

> <DRUG_GROUPS>
investigational

> <GENERIC_NAME>
Galeterone

> <SYNONYMS>
Galeterone

$$$$
