
  Mrv0541 05061311422D          

 16 17  0  0  0  0            999 V2000
    5.0013    1.2375    0.0000 C   0  0  0  0  0  0  0  0  0  0  0  0
    3.5724    2.0625    0.0000 C   0  0  0  0  0  0  0  0  0  0  0  0
    3.5724   -1.2375    0.0000 C   0  0  0  0  0  0  0  0  0  0  0  0
    0.6165    0.6817    0.0000 C   0  0  0  0  0  0  0  0  0  0  0  0
    1.1468    1.6002    0.0000 C   0  0  0  0  0  0  0  0  0  0  0  0
    2.1434   -0.4125    0.0000 C   0  0  0  0  0  0  0  0  0  0  0  0
    1.4289    0.0000    0.0000 C   0  0  0  0  0  0  0  0  0  0  0  0
    4.2868    0.8250    0.0000 C   0  0  0  0  0  0  0  0  0  0  0  0
    3.5724    1.2375    0.0000 C   0  0  0  0  0  0  0  0  0  0  0  0
    3.5724   -0.4125    0.0000 C   0  0  0  0  0  0  0  0  0  0  0  0
    2.8579    0.0000    0.0000 C   0  0  0  0  0  0  0  0  0  0  0  0
    4.2868    0.0000    0.0000 C   0  0  0  0  0  0  0  0  0  0  0  0
    2.8579    0.8250    0.0000 C   0  0  0  0  0  0  0  0  0  0  0  0
    1.4289    0.8250    0.0000 C   0  0  0  0  0  0  0  0  0  0  0  0
    5.0013   -0.4125    0.0000 O   0  0  0  0  0  0  0  0  0  0  0  0
    2.1434    1.2375    0.0000 O   0  0  0  0  0  0  0  0  0  0  0  0
  7  6  1  0  0  0  0
  8  1  1  0  0  0  0
  9  2  1  0  0  0  0
  9  8  1  0  0  0  0
 10  3  1  0  0  0  0
 11  6  1  0  0  0  0
 11 10  2  0  0  0  0
 12  8  2  0  0  0  0
 12 10  1  0  0  0  0
 13  9  2  0  0  0  0
 13 11  1  0  0  0  0
 14  4  1  0  0  0  0
 14  5  1  0  0  0  0
 14  7  1  0  0  0  0
 15 12  1  0  0  0  0
 16 13  1  0  0  0  0
 16 14  1  0  0  0  0
M  END
> <DATABASE_ID>
DB13111

> <DATABASE_NAME>
drugbank

> <SMILES>
CC1=C(O)C(C)=C2CCC(C)(C)OC2=C1C

> <INCHI_IDENTIFIER>
InChI=1S/C14H20O2/c1-8-9(2)13-11(10(3)12(8)15)6-7-14(4,5)16-13/h15H,6-7H2,1-5H3

> <INCHI_KEY>
SEBPXHSZHLFWRL-UHFFFAOYSA-N

> <FORMULA>
C14H20O2

> <MOLECULAR_WEIGHT>
220.3074

> <EXACT_MASS>
220.146329884

> <JCHEM_ACCEPTOR_COUNT>
2

> <JCHEM_ATOM_COUNT>
36

> <JCHEM_AVERAGE_NEUTRAL_MICROSPECIES_CHARGE>
-0.00015733090439134335

> <JCHEM_AVERAGE_POLARIZABILITY>
25.8442656825995

> <JCHEM_BIOAVAILABILITY>
1

> <JCHEM_DONOR_COUNT>
1

> <JCHEM_FORMAL_CHARGE>
0

> <JCHEM_GHOSE_FILTER>
1

> <JCHEM_IUPAC>
2,2,5,7,8-pentamethyl-3,4-dihydro-2H-1-benzopyran-6-ol

> <ALOGPS_LOGP>
4.06

> <JCHEM_LOGP>
4.233882261

> <ALOGPS_LOGS>
-2.79

> <JCHEM_MDDR_LIKE_RULE>
0

> <JCHEM_NEUTRAL_CHARGE>
0

> <JCHEM_NUMBER_OF_RINGS>
2

> <JCHEM_PHYSIOLOGICAL_CHARGE>
0

> <JCHEM_PKA_STRONGEST_ACIDIC>
10.803117623650678

> <JCHEM_PKA_STRONGEST_BASIC>
-4.851264063422418

> <JCHEM_POLAR_SURFACE_AREA>
29.46

> <JCHEM_REFRACTIVITY>
66.59330000000001

> <JCHEM_ROTATABLE_BOND_COUNT>
0

> <JCHEM_RULE_OF_FIVE>
1

> <ALOGPS_SOLUBILITY>
3.59e-01 g/l

> <JCHEM_TRADITIONAL_IUPAC>
tetrahydrofolic acid

> <JCHEM_VEBER_RULE>
1

> <DRUGBANK_ID>
DB13111

> <DRUG_GROUPS>
investigational

> <GENERIC_NAME>
Chromanol

$$$$
