
  Mrv0541 02231219112D          

 31 33  0  0  1  0            999 V2000
   15.1628  -10.5298    0.0000 C   0  0  0  0  0  0  0  0  0  0  0  0
   15.1628  -11.3548    0.0000 C   0  0  0  0  0  0  0  0  0  0  0  0
   15.8772  -11.7673    0.0000 C   0  0  0  0  0  0  0  0  0  0  0  0
   16.5918  -11.3548    0.0000 C   0  0  0  0  0  0  0  0  0  0  0  0
   16.5918  -10.5298    0.0000 C   0  0  0  0  0  0  0  0  0  0  0  0
   15.8772  -10.1173    0.0000 C   0  0  0  0  0  0  0  0  0  0  0  0
   17.3062  -11.7673    0.0000 N   0  0  0  0  0  0  0  0  0  0  0  0
   18.0207  -11.3548    0.0000 C   0  0  0  0  0  0  0  0  0  0  0  0
   18.0207  -10.5298    0.0000 C   0  0  0  0  0  0  0  0  0  0  0  0
   17.3062  -10.1173    0.0000 N   0  0  0  0  0  0  0  0  0  0  0  0
   18.7352  -11.7673    0.0000 N   0  0  0  0  0  0  0  0  0  0  0  0
   19.4496  -11.3548    0.0000 C   0  0  0  0  0  0  0  0  0  0  0  0
   19.4496  -10.5298    0.0000 N   0  0  0  0  0  0  0  0  0  0  0  0
   18.7352  -10.1173    0.0000 C   0  0  0  0  0  0  0  0  0  0  0  0
   14.4483  -10.1173    0.0000 C   0  0  0  0  0  0  0  0  0  0  0  0
   14.4483  -11.7673    0.0000 C   0  0  0  0  0  0  0  0  0  0  0  0
   20.1641  -11.7673    0.0000 O   0  0  0  0  0  0  0  0  0  0  0  0
   18.7352   -9.2923    0.0000 O   0  0  0  0  0  0  0  0  0  0  0  0
   17.3062  -12.5923    0.0000 C   0  0  0  0  0  0  0  0  0  0  0  0
   16.5918  -13.0048    0.0000 C   0  0  2  0  0  0  0  0  0  0  0  0
   15.8772  -12.5923    0.0000 O   0  0  0  0  0  0  0  0  0  0  0  0
   16.5918  -13.8299    0.0000 C   0  0  2  0  0  0  0  0  0  0  0  0
   17.3062  -14.2424    0.0000 O   0  0  0  0  0  0  0  0  0  0  0  0
   15.8772  -14.2424    0.0000 C   0  0  1  0  0  0  0  0  0  0  0  0
   15.1628  -13.8299    0.0000 C   0  0  0  0  0  0  0  0  0  0  0  0
   14.4483  -14.2424    0.0000 O   0  0  0  0  0  0  0  0  0  0  0  0
   15.8772  -15.0674    0.0000 O   0  0  0  0  0  0  0  0  0  0  0  0
   13.7338  -13.8299    0.0000 P   0  0  0  0  0  0  0  0  0  0  0  0
   13.0194  -14.2424    0.0000 O   0  0  0  0  0  0  0  0  0  0  0  0
   13.7338  -13.0048    0.0000 O   0  0  0  0  0  0  0  0  0  0  0  0
   14.4483  -13.4173    0.0000 O   0  0  0  0  0  0  0  0  0  0  0  0
  1  2  1  0  0  0  0
  2  3  2  0  0  0  0
  3  4  1  0  0  0  0
  4  5  2  0  0  0  0
  5  6  1  0  0  0  0
  6  1  2  0  0  0  0
  4  7  1  0  0  0  0
  7  8  1  0  0  0  0
  8  9  1  0  0  0  0
  9 10  2  0  0  0  0
 10  5  1  0  0  0  0
  8 11  2  0  0  0  0
 11 12  1  0  0  0  0
 12 13  1  0  0  0  0
 13 14  1  0  0  0  0
 14  9  1  0  0  0  0
  1 15  1  0  0  0  0
  2 16  1  0  0  0  0
 12 17  2  0  0  0  0
 14 18  2  0  0  0  0
  7 19  1  0  0  0  0
 19 20  1  0  0  0  0
 20 21  1  1  0  0  0
 20 22  1  0  0  0  0
 22 23  1  6  0  0  0
 22 24  1  0  0  0  0
 24 25  1  0  0  0  0
 25 26  1  0  0  0  0
 24 27  1  6  0  0  0
 26 28  1  0  0  0  0
 28 29  1  0  0  0  0
 28 30  1  0  0  0  0
 28 31  2  0  0  0  0
M  END
> <DATABASE_ID>
DB03247

> <DATABASE_NAME>
drugbank

> <SMILES>
CC1=CC2=C(C=C1C)N(C[C@H](O)[C@H](O)[C@H](O)COP(O)(O)=O)C1=NC(=O)NC(=O)C1=N2

> <INCHI_IDENTIFIER>
InChI=1S/C17H21N4O9P/c1-7-3-9-10(4-8(7)2)21(15-13(18-9)16(25)20-17(26)19-15)5-11(22)14(24)12(23)6-30-31(27,28)29/h3-4,11-12,14,22-24H,5-6H2,1-2H3,(H,20,25,26)(H2,27,28,29)/t11-,12+,14-/m0/s1

> <INCHI_KEY>
FVTCRASFADXXNN-SCRDCRAPSA-N

> <FORMULA>
C17H21N4O9P

> <MOLECULAR_WEIGHT>
456.3438

> <EXACT_MASS>
456.104614802

> <JCHEM_ACCEPTOR_COUNT>
11

> <JCHEM_ATOM_COUNT>
52

> <JCHEM_AVERAGE_NEUTRAL_MICROSPECIES_CHARGE>
-2.8023170830323076

> <JCHEM_AVERAGE_POLARIZABILITY>
42.18863753153134

> <JCHEM_BIOAVAILABILITY>
0

> <JCHEM_DONOR_COUNT>
6

> <JCHEM_FORMAL_CHARGE>
0

> <JCHEM_GHOSE_FILTER>
0

> <JCHEM_IUPAC>
{[(2R,3S,4S)-5-{7,8-dimethyl-2,4-dioxo-2H,3H,4H,10H-benzo[g]pteridin-10-yl}-2,3,4-trihydroxypentyl]oxy}phosphonic acid

> <ALOGPS_LOGP>
-0.78

> <JCHEM_LOGP>
-1.0401062913333337

> <ALOGPS_LOGS>
-2.83

> <JCHEM_MDDR_LIKE_RULE>
1

> <JCHEM_NEUTRAL_CHARGE>
-3

> <JCHEM_NUMBER_OF_RINGS>
3

> <JCHEM_PHYSIOLOGICAL_CHARGE>
-3

> <JCHEM_PKA>
5.86167372448251

> <JCHEM_PKA_STRONGEST_ACIDIC>
1.4989218797833297

> <JCHEM_PKA_STRONGEST_BASIC>
-0.31316946664705525

> <JCHEM_POLAR_SURFACE_AREA>
201.57999999999998

> <JCHEM_REFRACTIVITY>
107.14129999999999

> <JCHEM_ROTATABLE_BOND_COUNT>
7

> <JCHEM_RULE_OF_FIVE>
0

> <ALOGPS_SOLUBILITY>
6.68e-01 g/l

> <JCHEM_TRADITIONAL_IUPAC>
tetrahydrofolic acid

> <JCHEM_VEBER_RULE>
0

> <DRUGBANK_ID>
DB03247

> <SECONDARY_ACCESSION_NUMBERS>
EXPT01458

> <DRUG_GROUPS>
approved; investigational

> <GENERIC_NAME>
Flavin mononucleotide

> <SYNONYMS>
FMN; riboflavin 5'-(dihydrogen phosphate); riboflavin 5'-monophosphate; riboflavin 5'-phosphate; Riboflavin monophosphate; Riboflavin phosphate; Riboflavin-5-phosphate; riboflavine dihydrogen phosphate; Vitamin B2 (riboflavin-5-phosphate); Vitamin B2 phosphate

> <PRODUCTS>
Adult Infuvite Multiple Vitamins; Alsimine W Vitamins A D; B Complex W C and B12 Inj; B Virol; B-plex 100; Beminal Fortis Elx; Beminal With C Fortis Pws; BumP DHA; Dr. AVi MULTIVITAMIN with Zinc, Real Ginger, Lemon and Lemongrass; Dynam Ampoule Et Tablet; Floriva Plus; Fortaplex Inj; Gtf Support Caplet; Hemarexin Amp; Hemarexin Liquid and Drinkable Ampoules; Infa Drops Multivitamins; Infuvite Adult Multiple Vitamins; Kanga Sport Vitamins B & C Plus Minerals; Kanga-B Vitamin B Group + C; Kanga-kid Multi-vitamin & Mineral; Kenwood Liquid Supplement; M.V.I. 12; M.V.I. Adult; M.V.I. Paediatric; M.V.I. Pediatric; M.V.I.-12; Maxi 6 Liq; Multi Vitamin Drops with Fluoride; Multi Vitamin Drops with Fluoride and Iron; Multi Vitamin Drops with Fluoride with Iron; Multi Vitamin and Fluoride; Multi Vitamin, Iron and Fluoride; Multi-Vit with Fluoride; Multi-Vit with Fluoride and Iron; Multi-Vitamin Drops with Fluoride and Iron; Multi-Vitamin Fluoride; Multi-Vitamin with Fluoride; MultiVitamin Drops with Fluoride and Iron; MultiVitamin with Fluoride Drops; MultiVitamin, Iron and Fluoride Drops; Multisol; Multivit Et Fer Ampoules Et Comprimes; Multivitamin Drops with Fluoride; Mvc 9 Plus 3 Inj; Mvc 9+4 Inj; Neo Bex Elixir; Neo-bex Injectable; Nrg Plus Liq; Paramettes Syrup; Pediatric Infuvite Multiple Vitamins; Pediatric Infuvite Multiple Vitamins for Infusion; Photrexa; Photrexa Cross-linking Kit; Photrexa Viscous; Poly-Vite Pediatric Oral Solution; Poly-Vite/Iron Oral Solution; Revitex Ampoules Et Comprimes; Riboflavin Inj 50mg/ml; Somarexin and C 1000; Super Vitalex Ampoule Buvable; Supravite 10ml Ampoule; Supravite C 1000; Tini-cal Ampoules; Toni Com Liq; Tonicol Et A-D-C Ampoules/comprimes; Ultra Enerforce; Vitamin B Complex; Vitamin B Complex 100; Vitamin B-Complex; Vitamin and Mineral Supplement - Liq; Vitamine 110 Liq

> <SALTS>
Riboflavin 5'-phosphate sodium; Riboflavin 5'-phosphate sodium anhydrous

$$$$
