
  Mrv0541 01101412212D          

 28 30  0  0  0  0            999 V2000
    6.1792  -24.6708    0.0000 C   0  0  2  0  0  0  0  0  0  0  0  0
    6.1792  -25.4958    0.0000 C   0  0  2  0  0  0  0  0  0  0  0  0
    6.8912  -25.9042    0.0000 C   0  0  1  0  0  0  0  0  0  0  0  0
    7.6032  -25.4958    0.0000 C   0  0  2  0  0  0  0  0  0  0  0  0
    7.6032  -24.6708    0.0000 C   0  0  1  0  0  0  0  0  0  0  0  0
    6.8912  -24.2542    0.0000 O   0  0  0  0  0  0  0  0  0  0  0  0
    8.3189  -24.2604    0.0000 C   0  0  0  0  0  0  0  0  0  0  0  0
    5.4635  -24.2604    0.0000 C   0  0  0  0  0  0  0  0  0  0  0  0
    8.3171  -25.9094    0.0000 O   0  0  0  0  0  0  0  0  0  0  0  0
    5.4653  -25.9094    0.0000 O   0  0  0  0  0  0  0  0  0  0  0  0
    6.8912  -26.7291    0.0000 O   0  0  0  0  0  0  0  0  0  0  0  0
    5.4611  -23.4354    0.0000 O   0  0  0  0  0  0  0  0  0  0  0  0
    9.0288  -24.6788    0.0000 C   0  0  0  0  0  0  0  0  0  0  0  0
    9.7439  -24.2691    0.0000 C   0  0  0  0  0  0  0  0  0  0  0  0
    9.7468  -23.4432    0.0000 C   0  0  0  0  0  0  0  0  0  0  0  0
    9.0285  -23.0288    0.0000 C   0  0  0  0  0  0  0  0  0  0  0  0
    8.3163  -23.4409    0.0000 C   0  0  0  0  0  0  0  0  0  0  0  0
   10.4619  -23.0319    0.0000 Cl  0  0  0  0  0  0  0  0  0  0  0  0
   10.4570  -24.6840    0.0000 C   0  0  0  0  0  0  0  0  0  0  0  0
   11.1729  -24.2740    0.0000 C   0  0  0  0  0  0  0  0  0  0  0  0
   11.8817  -24.6920    0.0000 C   0  0  0  0  0  0  0  0  0  0  0  0
   12.5971  -24.2826    0.0000 C   0  0  0  0  0  0  0  0  0  0  0  0
   12.6004  -23.4568    0.0000 C   0  0  0  0  0  0  0  0  0  0  0  0
   11.8823  -23.0420    0.0000 C   0  0  0  0  0  0  0  0  0  0  0  0
   11.1698  -23.4538    0.0000 C   0  0  0  0  0  0  0  0  0  0  0  0
   13.3157  -23.0458    0.0000 O   0  0  0  0  0  0  0  0  0  0  0  0
   14.0293  -23.4598    0.0000 C   0  0  0  0  0  0  0  0  0  0  0  0
   14.7446  -23.0488    0.0000 C   0  0  0  0  0  0  0  0  0  0  0  0
 13 14  1  0  0  0  0
  5  7  1  1  0  0  0
 14 15  2  0  0  0  0
  1  2  1  0  0  0  0
 15 16  1  0  0  0  0
  1  8  1  1  0  0  0
 16 17  2  0  0  0  0
 17  7  1  0  0  0  0
  1  6  1  0  0  0  0
 15 18  1  0  0  0  0
  4  9  1  6  0  0  0
 14 19  1  0  0  0  0
  2  3  1  0  0  0  0
 19 20  1  0  0  0  0
  2 10  1  6  0  0  0
 20 21  2  0  0  0  0
  3  4  1  0  0  0  0
 21 22  1  0  0  0  0
  3 11  1  1  0  0  0
 22 23  2  0  0  0  0
  4  5  1  0  0  0  0
 23 24  1  0  0  0  0
  8 12  1  0  0  0  0
 24 25  2  0  0  0  0
 25 20  1  0  0  0  0
  5  6  1  0  0  0  0
 23 26  1  0  0  0  0
  7 13  2  0  0  0  0
 26 27  1  0  0  0  0
 27 28  1  0  0  0  0
M  END
> <DATABASE_ID>
DB06292

> <DATABASE_NAME>
drugbank

> <SMILES>
CCOC1=CC=C(CC2=C(Cl)C=CC(=C2)[C@@H]2O[C@H](CO)[C@@H](O)[C@H](O)[C@H]2O)C=C1

> <INCHI_IDENTIFIER>
InChI=1S/C21H25ClO6/c1-2-27-15-6-3-12(4-7-15)9-14-10-13(5-8-16(14)22)21-20(26)19(25)18(24)17(11-23)28-21/h3-8,10,17-21,23-26H,2,9,11H2,1H3/t17-,18-,19+,20-,21+/m1/s1

> <INCHI_KEY>
JVHXJTBJCFBINQ-ADAARDCZSA-N

> <FORMULA>
C21H25ClO6

> <MOLECULAR_WEIGHT>
408.873

> <EXACT_MASS>
408.133966239

> <JCHEM_ACCEPTOR_COUNT>
6

> <JCHEM_ATOM_COUNT>
53

> <JCHEM_AVERAGE_NEUTRAL_MICROSPECIES_CHARGE>
-3.591048215706855e-06

> <JCHEM_AVERAGE_POLARIZABILITY>
42.87616970960357

> <JCHEM_BIOAVAILABILITY>
1

> <JCHEM_DONOR_COUNT>
4

> <JCHEM_FORMAL_CHARGE>
0

> <JCHEM_GHOSE_FILTER>
1

> <JCHEM_IUPAC>
(2S,3R,4R,5S,6R)-2-{4-chloro-3-[(4-ethoxyphenyl)methyl]phenyl}-6-(hydroxymethyl)oxane-3,4,5-triol

> <ALOGPS_LOGP>
2.52

> <JCHEM_LOGP>
2.1109003033333336

> <ALOGPS_LOGS>
-3.37

> <JCHEM_MDDR_LIKE_RULE>
1

> <JCHEM_NEUTRAL_CHARGE>
0

> <JCHEM_NUMBER_OF_RINGS>
3

> <JCHEM_PHYSIOLOGICAL_CHARGE>
0

> <JCHEM_PKA>
13.456757261629468

> <JCHEM_PKA_STRONGEST_ACIDIC>
12.56788240171166

> <JCHEM_PKA_STRONGEST_BASIC>
-2.979190369034347

> <JCHEM_POLAR_SURFACE_AREA>
99.38000000000001

> <JCHEM_REFRACTIVITY>
104.93010000000001

> <JCHEM_ROTATABLE_BOND_COUNT>
6

> <JCHEM_RULE_OF_FIVE>
1

> <ALOGPS_SOLUBILITY>
1.73e-01 g/l

> <JCHEM_TRADITIONAL_IUPAC>
biotin

> <JCHEM_VEBER_RULE>
0

> <DRUGBANK_ID>
DB06292

> <DRUG_GROUPS>
approved

> <GENERIC_NAME>
Dapagliflozin

> <SYNONYMS>
(2S,3R,4R,5S,6R)-2-(4-Chloro-3-(4-ethoxybenzyl)phenyl)-6- (hydroxymethyl)tetrahydro-2H-pyran-3,4,5-triol; Dapagliflozin; Dapagliflozina

> <PRODUCTS>
Ebymect; Edistride; Farxiga; Forxiga; Qtern; Qternmet XR; Xigduo; Xigduo XR

> <SALTS>
Dapagliflozin propanediol monohydrate

$$$$
