
  Mrv0541 02231216362D          

 24 23  0  0  0  0            999 V2000
    3.8526    4.6993    0.0000 C   0  0  0  0  0  0  0  0  0  0  0  0
    4.5671    4.2868    0.0000 S   0  0  0  0  0  0  0  0  0  0  0  0
    5.2816    4.6993    0.0000 C   0  0  0  0  0  0  0  0  0  0  0  0
    5.2816    5.5243    0.0000 N   0  0  0  0  0  0  0  0  0  0  0  0
    5.9961    4.2868    0.0000 N   0  0  0  0  0  0  0  0  0  0  0  0
    6.7105    4.6993    0.0000 C   0  0  0  0  0  0  0  0  0  0  0  0
    7.4250    4.2868    0.0000 C   0  0  0  0  0  0  0  0  0  0  0  0
    8.1395    4.6993    0.0000 C   0  0  0  0  0  0  0  0  0  0  0  0
    8.8539    4.2868    0.0000 C   0  0  0  0  0  0  0  0  0  0  0  0
    9.5684    4.6993    0.0000 C   0  0  0  0  0  0  0  0  0  0  0  0
   10.2829    4.2868    0.0000 C   0  0  0  0  0  0  0  0  0  0  0  0
   10.9974    4.6993    0.0000 C   0  0  0  0  0  0  0  0  0  0  0  0
   11.7118    4.2868    0.0000 C   0  0  0  0  0  0  0  0  0  0  0  0
   12.4263    4.6993    0.0000 C   0  0  0  0  0  0  0  0  0  0  0  0
   13.1408    4.2868    0.0000 C   0  0  0  0  0  0  0  0  0  0  0  0
   13.8552    4.6993    0.0000 C   0  0  0  0  0  0  0  0  0  0  0  0
   14.5697    4.2868    0.0000 C   0  0  0  0  0  0  0  0  0  0  0  0
   15.2842    4.6993    0.0000 C   0  0  0  0  0  0  0  0  0  0  0  0
   15.9987    4.2868    0.0000 C   0  0  0  0  0  0  0  0  0  0  0  0
   16.7131    4.6993    0.0000 N   0  0  0  0  0  0  0  0  0  0  0  0
   17.4276    4.2868    0.0000 C   0  0  0  0  0  0  0  0  0  0  0  0
   17.4276    3.4618    0.0000 N   0  0  0  0  0  0  0  0  0  0  0  0
   18.1421    4.6993    0.0000 S   0  0  0  0  0  0  0  0  0  0  0  0
   18.1421    5.5243    0.0000 C   0  0  0  0  0  0  0  0  0  0  0  0
  1  2  1  0  0  0  0
  2  3  1  0  0  0  0
  3  4  1  0  0  0  0
  3  5  2  0  0  0  0
  5  6  1  0  0  0  0
  6  7  1  0  0  0  0
  7  8  1  0  0  0  0
  8  9  1  0  0  0  0
  9 10  1  0  0  0  0
 10 11  1  0  0  0  0
 11 12  1  0  0  0  0
 12 13  1  0  0  0  0
 13 14  1  0  0  0  0
 14 15  1  0  0  0  0
 15 16  1  0  0  0  0
 16 17  1  0  0  0  0
 17 18  1  0  0  0  0
 18 19  1  0  0  0  0
 19 20  1  0  0  0  0
 20 21  2  0  0  0  0
 21 22  1  0  0  0  0
 21 23  1  0  0  0  0
 23 24  1  0  0  0  0
M  END
> <DATABASE_ID>
DB02979

> <DATABASE_NAME>
drugbank

> <SMILES>
CS\C(N)=N\CCCCCCCCCCCCCC\N=C(/N)SC

> <INCHI_IDENTIFIER>
InChI=1S/C18H38N4S2/c1-23-17(19)21-15-13-11-9-7-5-3-4-6-8-10-12-14-16-22-18(20)24-2/h3-16H2,1-2H3,(H2,19,21)(H2,20,22)

> <INCHI_KEY>
IOKDMHHZKWLWKO-UHFFFAOYSA-N

> <FORMULA>
C18H38N4S2

> <MOLECULAR_WEIGHT>
374.651

> <EXACT_MASS>
374.253788616

> <JCHEM_ACCEPTOR_COUNT>
4

> <JCHEM_ATOM_COUNT>
62

> <JCHEM_AVERAGE_NEUTRAL_MICROSPECIES_CHARGE>
1.9934734132428271

> <JCHEM_AVERAGE_POLARIZABILITY>
47.85698085910265

> <JCHEM_BIOAVAILABILITY>
0

> <JCHEM_DONOR_COUNT>
2

> <JCHEM_FORMAL_CHARGE>
0

> <JCHEM_GHOSE_FILTER>
0

> <JCHEM_IUPAC>
(E)-N'-{14-[(E)-[amino(methylsulfanyl)methylidene]amino]tetradecyl}(methylsulfanyl)methanimidamide

> <ALOGPS_LOGP>
4.85

> <JCHEM_LOGP>
6.1257572379999985

> <ALOGPS_LOGS>
-6.09

> <JCHEM_MDDR_LIKE_RULE>
0

> <JCHEM_NEUTRAL_CHARGE>
2

> <JCHEM_NUMBER_OF_RINGS>
0

> <JCHEM_PHYSIOLOGICAL_CHARGE>
2

> <JCHEM_PKA_STRONGEST_BASIC>
9.882353238789799

> <JCHEM_POLAR_SURFACE_AREA>
76.75999999999999

> <JCHEM_REFRACTIVITY>
112.47319999999998

> <JCHEM_ROTATABLE_BOND_COUNT>
17

> <JCHEM_RULE_OF_FIVE>
0

> <ALOGPS_SOLUBILITY>
3.07e-04 g/l

> <JCHEM_TRADITIONAL_IUPAC>
tetrahydrofolic acid

> <JCHEM_VEBER_RULE>
0

> <DRUGBANK_ID>
DB02979

> <SECONDARY_ACCESSION_NUMBERS>
EXPT02394

> <DRUG_GROUPS>
experimental

> <GENERIC_NAME>
N1,N14-Bis((S-Methyl)Isothioureido)Tetradecane

$$$$
