 
  Mrv0541 07171216022D          
 
 48 47  0  0  1  0            999 V2000
   16.9030  -10.7037    0.0000 C   0  0  2  0  0  0  0  0  0  0  0  0
   16.1877  -11.1147    0.0000 N   0  0  0  0  0  0  0  0  0  0  0  0
   16.9030   -9.8781    0.0000 C   0  0  0  0  0  0  0  0  0  0  0  0
   17.6176  -11.1147    0.0000 C   0  0  0  0  0  0  0  0  0  0  0  0
   15.4764  -10.7037    0.0000 C   0  0  0  0  0  0  0  0  0  0  0  0
   17.6176   -9.4671    0.0000 N   0  0  0  0  0  0  0  0  0  0  0  0
   16.1877   -9.4671    0.0000 O   0  0  0  0  0  0  0  0  0  0  0  0
   18.3296  -10.7037    0.0000 S   0  0  0  0  0  0  0  0  0  0  0  0
   14.7609  -11.1147    0.0000 C   0  0  0  0  0  0  0  0  0  0  0  0
   15.4764   -9.8781    0.0000 O   0  0  0  0  0  0  0  0  0  0  0  0
   18.3296   -9.8781    0.0000 C   0  0  0  0  0  0  0  0  0  0  0  0
   18.3296  -12.3478    0.0000 S   0  0  0  0  0  0  0  0  0  0  0  0
   14.0497  -10.7037    0.0000 C   0  0  0  0  0  0  0  0  0  0  0  0
   19.0443   -9.4671    0.0000 C   0  0  0  0  0  0  0  0  0  0  0  0
   17.6176  -11.9369    0.0000 C   0  0  0  0  0  0  0  0  0  0  0  0
   13.3343  -11.1147    0.0000 C   0  0  1  0  0  0  0  0  0  0  0  0
   19.7564   -9.8781    0.0000 N   0  0  0  0  0  0  0  0  0  0  0  0
   19.0443   -8.6415    0.0000 O   0  0  0  0  0  0  0  0  0  0  0  0
   16.9030  -12.3478    0.0000 C   0  0  2  0  0  0  0  0  0  0  0  0
   12.6196  -10.7037    0.0000 C   0  0  0  0  0  0  0  0  0  0  0  0
   13.3343  -11.9369    0.0000 N   0  0  0  0  0  0  0  0  0  0  0  0
   20.4710   -9.4671    0.0000 C   0  0  0  0  0  0  0  0  0  0  0  0
   16.1877  -11.9369    0.0000 N   0  0  0  0  0  0  0  0  0  0  0  0
   16.9030  -13.1735    0.0000 C   0  0  0  0  0  0  0  0  0  0  0  0
   11.9118  -11.1147    0.0000 O   0  0  0  0  0  0  0  0  0  0  0  0
   12.6196   -9.8781    0.0000 O   0  0  0  0  0  0  0  0  0  0  0  0
   21.1863   -9.8781    0.0000 C   0  0  0  0  0  0  0  0  0  0  0  0
   15.4764  -12.3478    0.0000 C   0  0  0  0  0  0  0  0  0  0  0  0
   17.6176  -13.5845    0.0000 N   0  0  0  0  0  0  0  0  0  0  0  0
   16.1877  -13.5845    0.0000 O   0  0  0  0  0  0  0  0  0  0  0  0
   21.1863  -10.7037    0.0000 C   0  0  0  0  0  0  0  0  0  0  0  0
   15.4764  -13.1735    0.0000 C   0  0  0  0  0  0  0  0  0  0  0  0
   14.7609  -11.9369    0.0000 O   0  0  0  0  0  0  0  0  0  0  0  0
   18.3296  -13.1735    0.0000 C   0  0  0  0  0  0  0  0  0  0  0  0
   21.8942  -11.1147    0.0000 C   0  0  0  0  0  0  0  0  0  0  0  0
   14.7609  -13.5845    0.0000 C   0  0  0  0  0  0  0  0  0  0  0  0
   19.0443  -13.5845    0.0000 C   0  0  0  0  0  0  0  0  0  0  0  0
   21.8942  -11.9369    0.0000 N   0  0  0  0  0  0  0  0  0  0  0  0
   14.7609  -14.4135    0.0000 C   0  0  1  0  0  0  0  0  0  0  0  0
   19.7564  -13.1735    0.0000 N   0  0  0  0  0  0  0  0  0  0  0  0
   19.0443  -14.4135    0.0000 O   0  0  0  0  0  0  0  0  0  0  0  0
   21.1863  -12.3478    0.0000 C   0  0  0  0  0  0  0  0  0  0  0  0
   14.0497  -14.8246    0.0000 C   0  0  0  0  0  0  0  0  0  0  0  0
   15.4764  -14.8246    0.0000 N   0  0  0  0  0  0  0  0  0  0  0  0
   20.4710  -13.5845    0.0000 C   0  0  0  0  0  0  0  0  0  0  0  0
   21.1863  -13.1735    0.0000 C   0  0  0  0  0  0  0  0  0  0  0  0
   13.3343  -14.4135    0.0000 O   0  0  0  0  0  0  0  0  0  0  0  0
   14.0497  -15.6467    0.0000 O   0  0  0  0  0  0  0  0  0  0  0  0
  1  2  1  6  0  0  0
  1  3  1  0  0  0  0
  1  4  1  0  0  0  0
  2  5  1  0  0  0  0
  3  6  1  0  0  0  0
  3  7  2  0  0  0  0
  4  8  1  0  0  0  0
  5  9  1  0  0  0  0
  5 10  2  0  0  0  0
  6 11  1  0  0  0  0
  9 13  1  0  0  0  0
 11 14  1  0  0  0  0
 12 15  1  0  0  0  0
 13 16  1  0  0  0  0
 14 17  1  0  0  0  0
 14 18  2  0  0  0  0
 15 19  1  0  0  0  0
 16 20  1  0  0  0  0
 16 21  1  6  0  0  0
 17 22  1  0  0  0  0
 19 23  1  1  0  0  0
 19 24  1  0  0  0  0
 20 25  1  0  0  0  0
 20 26  2  0  0  0  0
 22 27  1  0  0  0  0
 23 28  1  0  0  0  0
 24 29  1  0  0  0  0
 24 30  2  0  0  0  0
 27 31  1  0  0  0  0
 28 32  1  0  0  0  0
 28 33  2  0  0  0  0
 29 34  1  0  0  0  0
 31 35  1  0  0  0  0
 32 36  1  0  0  0  0
 34 37  1  0  0  0  0
 35 38  1  0  0  0  0
 36 39  1  0  0  0  0
 37 40  1  0  0  0  0
 37 41  2  0  0  0  0
 38 42  1  0  0  0  0
 39 43  1  0  0  0  0
 39 44  1  6  0  0  0
 40 45  1  0  0  0  0
 42 46  1  0  0  0  0
 43 47  1  0  0  0  0
 43 48  2  0  0  0  0
 45 46  1  0  0  0  0
M  END
> <DATABASE_ID>
DB03470

> <DATABASE_NAME>
drugbank

> <SMILES>
N[C@@H](CCC(=O)N[C@@H](CS)C(=O)NCC(=O)NCCCCNCCCNC(=O)CNC(=O)[C@H](CS)NC(=O)CC[C@H](N)C(O)=O)C(O)=O

> <INCHI_IDENTIFIER>
InChI=1S/C27H49N9O10S2/c28-16(26(43)44)4-6-20(37)35-18(14-47)24(41)33-12-22(39)31-10-2-1-8-30-9-3-11-32-23(40)13-34-25(42)19(15-48)36-21(38)7-5-17(29)27(45)46/h16-19,30,47-48H,1-15,28-29H2,(H,31,39)(H,32,40)(H,33,41)(H,34,42)(H,35,37)(H,36,38)(H,43,44)(H,45,46)/t16-,17-,18-,19-/m0/s1

> <INCHI_KEY>
PHDOXVGRXXAYEB-VJANTYMQSA-N

> <FORMULA>
C27H49N9O10S2

> <MOLECULAR_WEIGHT>
723.862

> <EXACT_MASS>
723.304380213

> <JCHEM_ACCEPTOR_COUNT>
13

> <JCHEM_ATOM_COUNT>
97

> <JCHEM_AVERAGE_NEUTRAL_MICROSPECIES_CHARGE>
0.9785482547357385

> <JCHEM_AVERAGE_POLARIZABILITY>
75.33399759289838

> <JCHEM_BIOAVAILABILITY>
0

> <JCHEM_DONOR_COUNT>
13

> <JCHEM_FORMAL_CHARGE>
0

> <JCHEM_GHOSE_FILTER>
0

> <JCHEM_IUPAC>
(2S)-2-amino-4-{[(1R)-1-{[({3-[(4-{2-[(2R)-2-[(4S)-4-amino-4-carboxybutanamido]-3-sulfanylpropanamido]acetamido}butyl)amino]propyl}carbamoyl)methyl]carbamoyl}-2-sulfanylethyl]carbamoyl}butanoic acid

> <ALOGPS_LOGP>
-2.73

> <JCHEM_LOGP>
-11.26330269862629

> <ALOGPS_LOGS>
-4.78

> <JCHEM_MDDR_LIKE_RULE>
0

> <JCHEM_NEUTRAL_CHARGE>
1

> <JCHEM_NUMBER_OF_RINGS>
0

> <JCHEM_PHYSIOLOGICAL_CHARGE>
1

> <JCHEM_PKA>
2.2444106552033096

> <JCHEM_PKA_STRONGEST_ACIDIC>
1.6423507118900234

> <JCHEM_PKA_STRONGEST_BASIC>
10.573859794430787

> <JCHEM_POLAR_SURFACE_AREA>
313.27

> <JCHEM_REFRACTIVITY>
176.79840000000002

> <JCHEM_ROTATABLE_BOND_COUNT>
27

> <JCHEM_RULE_OF_FIVE>
0

> <ALOGPS_SOLUBILITY>
1.21e-02 g/l

> <JCHEM_TRADITIONAL_IUPAC>
biotin

> <JCHEM_VEBER_RULE>
0

> <DRUGBANK_ID>
DB03470

> <SECONDARY_ACCESSION_NUMBERS>
EXPT01557

> <DRUG_GROUPS>
experimental

> <GENERIC_NAME>
Trypanothione

$$$$
