
  Mrv0541 05031422372D          

 11 12  0  0  0  0            999 V2000
    5.4223   -0.0000    0.0000 C   0  0  0  0  0  0  0  0  0  0  0  0
    3.9934    0.8250    0.0000 C   0  0  0  0  0  0  0  0  0  0  0  0
    3.2789    1.2375    0.0000 C   0  0  0  0  0  0  0  0  0  0  0  0
    3.2789   -0.4125    0.0000 C   0  0  0  0  0  0  0  0  0  0  0  0
    1.2949    0.4125    0.0000 C   0  0  0  0  0  0  0  0  0  0  0  0
    3.9934    0.0000    0.0000 C   0  0  0  0  0  0  0  0  0  0  0  0
    2.5645    0.8250    0.0000 C   0  0  0  0  0  0  0  0  0  0  0  0
    2.5645    0.0000    0.0000 C   0  0  0  0  0  0  0  0  0  0  0  0
    1.7798    1.0799    0.0000 N   0  0  0  0  0  0  0  0  0  0  0  0
    1.7798   -0.2549    0.0000 N   0  0  0  0  0  0  0  0  0  0  0  0
    4.7079   -0.4125    0.0000 O   0  0  0  0  0  0  0  0  0  0  0  0
  3  2  2  0  0  0  0
  6  2  1  0  0  0  0
  6  4  2  0  0  0  0
  7  3  1  0  0  0  0
  8  4  1  0  0  0  0
  8  7  2  0  0  0  0
  9  5  2  0  0  0  0
  9  7  1  0  0  0  0
 10  5  1  0  0  0  0
 10  8  1  0  0  0  0
 11  1  1  0  0  0  0
 11  6  1  0  0  0  0
M  END
> <DATABASE_ID>
DB04130

> <DATABASE_NAME>
drugbank

> <SMILES>
COC1=CC2=C(C=C1)N=CN2

> <INCHI_IDENTIFIER>
InChI=1S/C8H8N2O/c1-11-6-2-3-7-8(4-6)10-5-9-7/h2-5H,1H3,(H,9,10)

> <INCHI_KEY>
ILMHAGCURJPNRZ-UHFFFAOYSA-N

> <FORMULA>
C8H8N2O

> <MOLECULAR_WEIGHT>
148.1619

> <EXACT_MASS>
148.063662888

> <JCHEM_ACCEPTOR_COUNT>
2

> <JCHEM_ATOM_COUNT>
19

> <JCHEM_AVERAGE_NEUTRAL_MICROSPECIES_CHARGE>
0.10725452372136139

> <JCHEM_AVERAGE_POLARIZABILITY>
15.236697414925136

> <JCHEM_BIOAVAILABILITY>
1

> <JCHEM_DONOR_COUNT>
1

> <JCHEM_FORMAL_CHARGE>
0

> <JCHEM_GHOSE_FILTER>
0

> <JCHEM_IUPAC>
6-methoxy-1H-1,3-benzodiazole

> <ALOGPS_LOGP>
1.41

> <JCHEM_LOGP>
1.1018327333333333

> <ALOGPS_LOGS>
-1.42

> <JCHEM_MDDR_LIKE_RULE>
0

> <JCHEM_NEUTRAL_CHARGE>
0

> <JCHEM_NUMBER_OF_RINGS>
2

> <JCHEM_PHYSIOLOGICAL_CHARGE>
0

> <JCHEM_PKA_STRONGEST_ACIDIC>
12.183808448870447

> <JCHEM_PKA_STRONGEST_BASIC>
6.079717322963635

> <JCHEM_POLAR_SURFACE_AREA>
37.91

> <JCHEM_REFRACTIVITY>
41.43169999999999

> <JCHEM_ROTATABLE_BOND_COUNT>
1

> <JCHEM_RULE_OF_FIVE>
1

> <ALOGPS_SOLUBILITY>
5.60e+00 g/l

> <JCHEM_TRADITIONAL_IUPAC>
biotin

> <JCHEM_VEBER_RULE>
1

> <DRUGBANK_ID>
DB04130

> <SECONDARY_ACCESSION_NUMBERS>
EXPT00256

> <DRUG_GROUPS>
experimental

> <GENERIC_NAME>
5-Methoxybenzimidazole

$$$$
