
  Mrv0541 02231216462D          

 10 10  0  0  0  0            999 V2000
    2.1434   -0.4125    0.0000 C   0  0  0  0  0  0  0  0  0  0  0  0
    1.4289    0.0000    0.0000 C   0  0  0  0  0  0  0  0  0  0  0  0
    0.7145   -0.4125    0.0000 N   0  0  0  0  0  0  0  0  0  0  0  0
    0.0000    0.0000    0.0000 C   0  0  0  0  0  0  0  0  0  0  0  0
    0.0000    0.8250    0.0000 C   0  0  0  0  0  0  0  0  0  0  0  0
   -0.7145    1.2375    0.0000 C   0  0  0  0  0  0  0  0  0  0  0  0
   -1.4289    0.8250    0.0000 N   0  0  0  0  0  0  0  0  0  0  0  0
    0.7145    1.2375    0.0000 C   0  0  0  0  0  0  0  0  0  0  0  0
    0.7145    2.0625    0.0000 N   0  0  0  0  0  0  0  0  0  0  0  0
    1.4289    0.8250    0.0000 N   0  0  0  0  0  0  0  0  0  0  0  0
  1  2  1  0  0  0  0
  2  3  2  0  0  0  0
  3  4  1  0  0  0  0
  4  5  2  0  0  0  0
  5  6  1  0  0  0  0
  6  7  1  0  0  0  0
  5  8  1  0  0  0  0
  8  9  1  0  0  0  0
  8 10  2  0  0  0  0
  2 10  1  0  0  0  0
M  END
> <DATABASE_ID>
DB03204

> <DATABASE_NAME>
drugbank

> <SMILES>
CC1=NC=C(CN)C(N)=N1

> <INCHI_IDENTIFIER>
InChI=1S/C6H10N4/c1-4-9-3-5(2-7)6(8)10-4/h3H,2,7H2,1H3,(H2,8,9,10)

> <INCHI_KEY>
OZOHTVFCSKFMLL-UHFFFAOYSA-N

> <FORMULA>
C6H10N4

> <MOLECULAR_WEIGHT>
138.1704

> <EXACT_MASS>
138.09054634

> <JCHEM_ACCEPTOR_COUNT>
4

> <JCHEM_ATOM_COUNT>
20

> <JCHEM_AVERAGE_NEUTRAL_MICROSPECIES_CHARGE>
0.9942114423862021

> <JCHEM_AVERAGE_POLARIZABILITY>
14.614119412873382

> <JCHEM_BIOAVAILABILITY>
1

> <JCHEM_DONOR_COUNT>
2

> <JCHEM_FORMAL_CHARGE>
0

> <JCHEM_GHOSE_FILTER>
0

> <JCHEM_IUPAC>
5-(aminomethyl)-2-methylpyrimidin-4-amine

> <ALOGPS_LOGP>
-0.75

> <JCHEM_LOGP>
-0.46749091033333334

> <ALOGPS_LOGS>
-0.85

> <JCHEM_MDDR_LIKE_RULE>
0

> <JCHEM_NEUTRAL_CHARGE>
1

> <JCHEM_NUMBER_OF_RINGS>
1

> <JCHEM_PHYSIOLOGICAL_CHARGE>
1

> <JCHEM_PKA_STRONGEST_BASIC>
8.287675810340275

> <JCHEM_POLAR_SURFACE_AREA>
77.82

> <JCHEM_REFRACTIVITY>
40.833999999999996

> <JCHEM_ROTATABLE_BOND_COUNT>
1

> <JCHEM_RULE_OF_FIVE>
1

> <ALOGPS_SOLUBILITY>
1.95e+01 g/l

> <JCHEM_TRADITIONAL_IUPAC>
biotin

> <JCHEM_VEBER_RULE>
0

> <DRUGBANK_ID>
DB03204

> <SECONDARY_ACCESSION_NUMBERS>
EXPT02389

> <DRUG_GROUPS>
experimental

> <GENERIC_NAME>
4-amino-5-aminomethyl-2-methylpyrimidine

> <SYNONYMS>
2-Methyl-4-amino-5-aminomethylpyrimidine; 4-Amino-2-methylpyrimidine-5-methylamine

$$$$
