
  Mrv0541 05041402542D          

 31 32  0  0  1  0            999 V2000
   -0.0000    3.3000    0.0000 C   0  0  0  0  0  0  0  0  0  0  0  0
   -0.7145    6.1875    0.0000 C   0  0  0  0  0  0  0  0  0  0  0  0
   -2.1434    2.0625    0.0000 C   0  0  0  0  0  0  0  0  0  0  0  0
   -0.7145    3.7125    0.0000 C   0  0  2  0  0  0  0  0  0  0  0  0
   -1.4289    5.7750    0.0000 C   0  0  2  0  0  0  0  0  0  0  0  0
   -1.4289    2.4750    0.0000 C   0  0  2  0  0  0  0  0  0  0  0  0
   -0.0000    2.4750    0.0000 C   0  0  1  0  0  0  0  0  0  0  0  0
   -2.1434    6.1875    0.0000 C   0  0  2  0  0  0  0  0  0  0  0  0
   -2.8579    5.7750    0.0000 C   0  0  1  0  0  0  0  0  0  0  0  0
   -2.8579    4.9500    0.0000 C   0  0  2  0  0  0  0  0  0  0  0  0
   -1.4289    3.3000    0.0000 C   0  0  1  0  0  0  0  0  0  0  0  0
   -2.1434    4.5375    0.0000 C   0  0  2  0  0  0  0  0  0  0  0  0
   -0.0000    5.7750    0.0000 O   0  0  0  0  0  0  0  0  0  0  0  0
   -2.1434    1.2375    0.0000 O   0  0  0  0  0  0  0  0  0  0  0  0
   -0.7145    4.5375    0.0000 O   0  0  0  0  0  0  0  0  0  0  0  0
    0.7145    2.0625    0.0000 O   0  0  0  0  0  0  0  0  0  0  0  0
   -2.1434    7.0125    0.0000 O   0  0  0  0  0  0  0  0  0  0  0  0
   -3.5724    6.1875    0.0000 O   0  0  0  0  0  0  0  0  0  0  0  0
   -3.5724    4.5375    0.0000 O   0  0  0  0  0  0  0  0  0  0  0  0
   -0.7145    2.0625    0.0000 O   0  0  0  0  0  0  0  0  0  0  0  0
   -1.4289    4.9500    0.0000 O   0  0  0  0  0  0  0  0  0  0  0  0
   -2.1434    3.7125    0.0000 O   0  0  0  0  0  0  0  0  0  0  0  0
   -0.0000    4.1250    0.0000 H   0  0  0  0  0  0  0  0  0  0  0  0
   -1.7111    6.5502    0.0000 H   0  0  0  0  0  0  0  0  0  0  0  0
   -2.1434    2.8875    0.0000 H   0  0  0  0  0  0  0  0  0  0  0  0
    0.7145    2.8875    0.0000 H   0  0  0  0  0  0  0  0  0  0  0  0
   -1.6131    6.8195    0.0000 H   0  0  0  0  0  0  0  0  0  0  0  0
   -2.8579    6.6000    0.0000 H   0  0  0  0  0  0  0  0  0  0  0  0
   -3.5724    5.3625    0.0000 H   0  0  0  0  0  0  0  0  0  0  0  0
   -1.4289    4.1250    0.0000 H   0  0  0  0  0  0  0  0  0  0  0  0
   -2.8579    4.1250    0.0000 H   0  0  0  0  0  0  0  0  0  0  0  0
  4  1  1  0  0  0  0
  5  2  1  1  0  0  0
  6  3  1  6  0  0  0
  7  1  1  0  0  0  0
  8  5  1  0  0  0  0
  9  8  1  0  0  0  0
 10  9  1  0  0  0  0
 11  4  1  0  0  0  0
 11  6  1  0  0  0  0
 12 10  1  0  0  0  0
 13  2  1  0  0  0  0
 14  3  1  0  0  0  0
  4 15  1  6  0  0  0
  7 16  1  1  0  0  0
  8 17  1  6  0  0  0
  9 18  1  1  0  0  0
 10 19  1  6  0  0  0
 20  6  1  0  0  0  0
 20  7  1  0  0  0  0
 21  5  1  0  0  0  0
 21 12  1  0  0  0  0
 11 22  1  1  0  0  0
 12 22  1  6  0  0  0
  4 23  1  1  0  0  0
  5 24  1  6  0  0  0
  6 25  1  1  0  0  0
  7 26  1  6  0  0  0
  8 27  1  1  0  0  0
  9 28  1  6  0  0  0
 10 29  1  1  0  0  0
 11 30  1  6  0  0  0
 12 31  1  1  0  0  0
M  END
> <DATABASE_ID>
DB03281

> <DATABASE_NAME>
drugbank

> <SMILES>
[H][C@@]1(O)C[C@@]([H])(O)[C@]([H])(O[C@@]2([H])O[C@]([H])(CO)[C@@]([H])(O)[C@]([H])(O)[C@@]2([H])O)[C@@]([H])(CO)O1

> <INCHI_IDENTIFIER>
InChI=1S/C12H22O10/c13-2-5-8(17)9(18)10(19)12(21-5)22-11-4(15)1-7(16)20-6(11)3-14/h4-19H,1-3H2/t4-,5-,6-,7+,8-,9+,10-,11+,12-/m1/s1

> <INCHI_KEY>
FDCIWBIYHZDLEG-AEEGTDTOSA-N

> <FORMULA>
C12H22O10

> <MOLECULAR_WEIGHT>
326.2971

> <EXACT_MASS>
326.121296924

> <JCHEM_ACCEPTOR_COUNT>
10

> <JCHEM_ATOM_COUNT>
44

> <JCHEM_AVERAGE_NEUTRAL_MICROSPECIES_CHARGE>
-1.7997153652416244e-05

> <JCHEM_AVERAGE_POLARIZABILITY>
30.114116915090086

> <JCHEM_BIOAVAILABILITY>
1

> <JCHEM_DONOR_COUNT>
7

> <JCHEM_FORMAL_CHARGE>
0

> <JCHEM_GHOSE_FILTER>
0

> <JCHEM_IUPAC>
(2R,3R,4S,5S,6R)-2-{[(2R,3S,4R,6S)-4,6-dihydroxy-2-(hydroxymethyl)oxan-3-yl]oxy}-6-(hydroxymethyl)oxane-3,4,5-triol

> <ALOGPS_LOGP>
-3.22

> <JCHEM_LOGP>
-3.802736800666667

> <ALOGPS_LOGS>
0.22

> <JCHEM_MDDR_LIKE_RULE>
0

> <JCHEM_NEUTRAL_CHARGE>
0

> <JCHEM_NUMBER_OF_RINGS>
2

> <JCHEM_PHYSIOLOGICAL_CHARGE>
0

> <JCHEM_PKA>
12.52738344699286

> <JCHEM_PKA_STRONGEST_ACIDIC>
11.977920238007798

> <JCHEM_PKA_STRONGEST_BASIC>
-2.981083565257409

> <JCHEM_POLAR_SURFACE_AREA>
169.29999999999998

> <JCHEM_REFRACTIVITY>
66.826

> <JCHEM_ROTATABLE_BOND_COUNT>
4

> <JCHEM_RULE_OF_FIVE>
0

> <ALOGPS_SOLUBILITY>
5.45e+02 g/l

> <JCHEM_TRADITIONAL_IUPAC>
tetrahydrofolic acid

> <JCHEM_VEBER_RULE>
0

> <DRUGBANK_ID>
DB03281

> <SECONDARY_ACCESSION_NUMBERS>
EXPT01247

> <DRUG_GROUPS>
experimental

> <GENERIC_NAME>
2'-Deoxymaltose

$$$$
