
  Mrv0541 02231217202D          

  8  7  0  0  0  0            999 V2000
   -0.1914   -0.7145    0.0000 C   0  0  0  0  0  0  0  0  0  0  0  0
    0.5230   -1.1270    0.0000 C   0  0  0  0  0  0  0  0  0  0  0  0
    1.2375   -0.7145    0.0000 C   0  0  0  0  0  0  0  0  0  0  0  0
    1.9520   -1.1270    0.0000 C   0  0  0  0  0  0  0  0  0  0  0  0
    2.6664   -0.7145    0.0000 P   0  0  0  0  0  0  0  0  0  0  0  0
    3.3809   -0.3020    0.0000 O   0  0  0  0  0  0  0  0  0  0  0  0
    3.0789   -1.4289    0.0000 O   0  0  0  0  0  0  0  0  0  0  0  0
    2.2539    0.0000    0.0000 O   0  0  0  0  0  0  0  0  0  0  0  0
  1  2  1  0  0  0  0
  2  3  1  0  0  0  0
  3  4  1  0  0  0  0
  4  5  1  0  0  0  0
  5  6  1  0  0  0  0
  5  7  1  0  0  0  0
  5  8  2  0  0  0  0
M  END
> <DATABASE_ID>
DB03999

> <DATABASE_NAME>
drugbank

> <SMILES>
CCCCP(O)(O)=O

> <INCHI_IDENTIFIER>
InChI=1S/C4H11O3P/c1-2-3-4-8(5,6)7/h2-4H2,1H3,(H2,5,6,7)

> <INCHI_KEY>
UOKRBSXOBUKDGE-UHFFFAOYSA-N

> <FORMULA>
C4H11O3P

> <MOLECULAR_WEIGHT>
138.1021

> <EXACT_MASS>
138.04458073

> <JCHEM_ACCEPTOR_COUNT>
3

> <JCHEM_ATOM_COUNT>
19

> <JCHEM_AVERAGE_NEUTRAL_MICROSPECIES_CHARGE>
-1.0925324972273396

> <JCHEM_AVERAGE_POLARIZABILITY>
12.854973803018908

> <JCHEM_BIOAVAILABILITY>
1

> <JCHEM_DONOR_COUNT>
2

> <JCHEM_FORMAL_CHARGE>
0

> <JCHEM_GHOSE_FILTER>
0

> <JCHEM_IUPAC>
butylphosphonic acid

> <ALOGPS_LOGP>
0.32

> <JCHEM_LOGP>
0.08251647333333381

> <ALOGPS_LOGS>
-0.62

> <JCHEM_MDDR_LIKE_RULE>
0

> <JCHEM_NEUTRAL_CHARGE>
-1

> <JCHEM_NUMBER_OF_RINGS>
0

> <JCHEM_PHYSIOLOGICAL_CHARGE>
-1

> <JCHEM_PKA>
8.292533358833728

> <JCHEM_PKA_STRONGEST_ACIDIC>
1.8105648148604105

> <JCHEM_POLAR_SURFACE_AREA>
57.53

> <JCHEM_REFRACTIVITY>
31.1754

> <JCHEM_ROTATABLE_BOND_COUNT>
3

> <JCHEM_RULE_OF_FIVE>
1

> <ALOGPS_SOLUBILITY>
3.34e+01 g/l

> <JCHEM_TRADITIONAL_IUPAC>
biotin

> <JCHEM_VEBER_RULE>
0

> <DRUGBANK_ID>
DB03999

> <SECONDARY_ACCESSION_NUMBERS>
EXPT00862

> <DRUG_GROUPS>
experimental

> <GENERIC_NAME>
Butylphosphonate

$$$$
