
  Mrv0541 05041400492D          

 16 16  0  0  1  0            999 V2000
    0.5678    1.9393    0.0000 C   0  0  0  0  0  0  0  0  0  0  0  0
    1.2352    0.6294    0.0000 C   0  0  0  0  0  0  0  0  0  0  0  0
    0.5678    1.1143    0.0000 C   0  0  2  0  0  0  0  0  0  0  0  0
    0.9803   -0.1553    0.0000 C   0  0  1  0  0  0  0  0  0  0  0  0
   -0.0997    0.6294    0.0000 C   0  0  2  0  0  0  0  0  0  0  0  0
   -0.8843    0.8843    0.0000 C   0  0  0  0  0  0  0  0  0  0  0  0
    0.1553   -0.1553    0.0000 N   0  0  0  0  0  0  0  0  0  0  0  0
   -1.0558    1.6913    0.0000 O   0  0  0  0  0  0  0  0  0  0  0  0
   -1.4974    0.3323    0.0000 O   0  0  0  0  0  0  0  0  0  0  0  0
    1.9501   -1.4901    0.0000 O   0  0  0  0  0  0  0  0  0  0  0  0
    0.7977   -1.3076    0.0000 O   0  0  0  0  0  0  0  0  0  0  0  0
    2.1326   -0.3378    0.0000 O   0  0  0  0  0  0  0  0  0  0  0  0
    1.4652   -0.8227    0.0000 S   0  0  0  0  0  0  0  0  0  0  0  0
    1.3028    1.4888    0.0000 H   0  0  0  0  0  0  0  0  0  0  0  0
    1.7951   -0.0262    0.0000 H   0  0  0  0  0  0  0  0  0  0  0  0
   -0.2287    1.4442    0.0000 H   0  0  0  0  0  0  0  0  0  0  0  0
  3  1  1  6  0  0  0
  3  2  1  0  0  0  0
  4  2  1  0  0  0  0
  5  3  1  0  0  0  0
  5  6  1  1  0  0  0
  7  4  1  0  0  0  0
  7  5  1  0  0  0  0
  8  6  2  0  0  0  0
  9  6  1  0  0  0  0
  4 13  1  6  0  0  0
 13 10  1  0  0  0  0
 13 11  2  0  0  0  0
 13 12  2  0  0  0  0
  3 14  1  1  0  0  0
  4 15  1  1  0  0  0
  5 16  1  6  0  0  0
M  END
> <DATABASE_ID>
DB02248

> <DATABASE_NAME>
drugbank

> <SMILES>
[H][C@@]1(C)C[C@@]([H])(N[C@@]1([H])C(O)=O)S(O)(=O)=O

> <INCHI_IDENTIFIER>
InChI=1S/C6H11NO5S/c1-3-2-4(13(10,11)12)7-5(3)6(8)9/h3-5,7H,2H2,1H3,(H,8,9)(H,10,11,12)/t3-,4+,5-/m1/s1

> <INCHI_KEY>
PZCKFQRRNSACOM-MROZADKFSA-N

> <FORMULA>
C6H11NO5S

> <MOLECULAR_WEIGHT>
209.22

> <EXACT_MASS>
209.035793157

> <JCHEM_ACCEPTOR_COUNT>
6

> <JCHEM_ATOM_COUNT>
24

> <JCHEM_AVERAGE_NEUTRAL_MICROSPECIES_CHARGE>
-1.009902082061646

> <JCHEM_AVERAGE_POLARIZABILITY>
18.36081188801424

> <JCHEM_BIOAVAILABILITY>
1

> <JCHEM_DONOR_COUNT>
3

> <JCHEM_FORMAL_CHARGE>
0

> <JCHEM_GHOSE_FILTER>
0

> <JCHEM_IUPAC>
(2R,3R,5S)-3-methyl-5-sulfopyrrolidine-2-carboxylic acid

> <ALOGPS_LOGP>
-1.94

> <JCHEM_LOGP>
-1.7594811718594148

> <ALOGPS_LOGS>
-0.83

> <JCHEM_MDDR_LIKE_RULE>
0

> <JCHEM_NEUTRAL_CHARGE>
-1

> <JCHEM_NUMBER_OF_RINGS>
1

> <JCHEM_PHYSIOLOGICAL_CHARGE>
-1

> <JCHEM_PKA>
2.3839165794543558

> <JCHEM_PKA_STRONGEST_ACIDIC>
-3.902506653169496

> <JCHEM_PKA_STRONGEST_BASIC>
7.712241119274348

> <JCHEM_POLAR_SURFACE_AREA>
103.69999999999999

> <JCHEM_REFRACTIVITY>
42.41120000000001

> <JCHEM_ROTATABLE_BOND_COUNT>
2

> <JCHEM_RULE_OF_FIVE>
1

> <ALOGPS_SOLUBILITY>
3.11e+01 g/l

> <JCHEM_TRADITIONAL_IUPAC>
biotin

> <JCHEM_VEBER_RULE>
0

> <DRUGBANK_ID>
DB02248

> <SECONDARY_ACCESSION_NUMBERS>
EXPT00681

> <DRUG_GROUPS>
experimental

> <GENERIC_NAME>
3-Methyl-5-Sulfo-Pyrrolidine-2-Carboxylic Acid

$$$$
