
  Mrv0541 05041402122D          

 65 68  0  0  1  0            999 V2000
   -2.1434   -1.2375    0.0000 C   0  0  0  0  0  0  0  0  0  0  0  0
    0.7145   -2.8875    0.0000 C   0  0  0  0  0  0  0  0  0  0  0  0
   -2.1434   -2.8875    0.0000 C   0  0  0  0  0  0  0  0  0  0  0  0
   -0.7145   -3.7125    0.0000 C   0  0  0  0  0  0  0  0  0  0  0  0
   -2.8579   -1.6500    0.0000 C   0  0  2  0  0  0  0  0  0  0  0  0
    1.4289   -2.4750    0.0000 C   0  0  2  0  0  0  0  0  0  0  0  0
   -2.1434   -3.7125    0.0000 C   0  0  2  0  0  0  0  0  0  0  0  0
    0.0000   -4.1250    0.0000 C   0  0  2  0  0  0  0  0  0  0  0  0
   -3.5724   -1.2375    0.0000 C   0  0  2  0  0  0  0  0  0  0  0  0
   -4.2868   -1.6500    0.0000 C   0  0  1  0  0  0  0  0  0  0  0  0
    2.8579   -2.4750    0.0000 C   0  0  2  0  0  0  0  0  0  0  0  0
   -2.8579   -4.9500    0.0000 C   0  0  2  0  0  0  0  0  0  0  0  0
    0.7145   -5.3625    0.0000 C   0  0  2  0  0  0  0  0  0  0  0  0
    2.8579   -1.6500    0.0000 C   0  0  2  0  0  0  0  0  0  0  0  0
   -4.2868   -2.4750    0.0000 C   0  0  2  0  0  0  0  0  0  0  0  0
    1.4289   -4.9500    0.0000 C   0  0  2  0  0  0  0  0  0  0  0  0
   -2.1434   -5.3625    0.0000 C   0  0  2  0  0  0  0  0  0  0  0  0
    2.1434   -2.8875    0.0000 C   0  0  2  0  0  0  0  0  0  0  0  0
   -2.8579   -4.1250    0.0000 C   0  0  2  0  0  0  0  0  0  0  0  0
    0.0000   -4.9500    0.0000 C   0  0  2  0  0  0  0  0  0  0  0  0
    2.1434   -1.2375    0.0000 C   0  0  2  0  0  0  0  0  0  0  0  0
   -3.5724   -2.8875    0.0000 C   0  0  1  0  0  0  0  0  0  0  0  0
    1.4289   -4.1250    0.0000 C   0  0  1  0  0  0  0  0  0  0  0  0
   -1.4289   -4.9500    0.0000 C   0  0  1  0  0  0  0  0  0  0  0  0
   -2.1434   -0.4125    0.0000 O   0  0  0  0  0  0  0  0  0  0  0  0
   -0.0000   -2.4750    0.0000 O   0  0  0  0  0  0  0  0  0  0  0  0
   -1.4289   -2.4750    0.0000 O   0  0  0  0  0  0  0  0  0  0  0  0
   -0.7145   -2.8875    0.0000 O   0  0  0  0  0  0  0  0  0  0  0  0
   -3.5724   -0.4125    0.0000 O   0  0  0  0  0  0  0  0  0  0  0  0
   -5.0013   -1.2375    0.0000 O   0  0  0  0  0  0  0  0  0  0  0  0
    3.5724   -2.8875    0.0000 O   0  0  0  0  0  0  0  0  0  0  0  0
   -3.5724   -5.3625    0.0000 O   0  0  0  0  0  0  0  0  0  0  0  0
    0.7145   -6.1875    0.0000 O   0  0  0  0  0  0  0  0  0  0  0  0
    3.5724   -1.2375    0.0000 O   0  0  0  0  0  0  0  0  0  0  0  0
   -5.0013   -2.8875    0.0000 O   0  0  0  0  0  0  0  0  0  0  0  0
    2.1434   -5.3625    0.0000 O   0  0  0  0  0  0  0  0  0  0  0  0
   -2.1434   -6.1875    0.0000 O   0  0  0  0  0  0  0  0  0  0  0  0
    2.1434   -0.4125    0.0000 O   0  0  0  0  0  0  0  0  0  0  0  0
    1.4289   -1.6500    0.0000 O   0  0  0  0  0  0  0  0  0  0  0  0
   -2.8579   -2.4750    0.0000 O   0  0  0  0  0  0  0  0  0  0  0  0
    0.7145   -3.7125    0.0000 O   0  0  0  0  0  0  0  0  0  0  0  0
   -1.4289   -4.1250    0.0000 O   0  0  0  0  0  0  0  0  0  0  0  0
    2.1434   -3.7125    0.0000 O   0  0  0  0  0  0  0  0  0  0  0  0
   -3.5724   -3.7125    0.0000 O   0  0  0  0  0  0  0  0  0  0  0  0
   -0.7145   -5.3625    0.0000 O   0  0  0  0  0  0  0  0  0  0  0  0
   -3.1401   -0.8748    0.0000 H   0  0  0  0  0  0  0  0  0  0  0  0
    1.7111   -3.2502    0.0000 H   0  0  0  0  0  0  0  0  0  0  0  0
   -2.9559   -3.5692    0.0000 H   0  0  0  0  0  0  0  0  0  0  0  0
   -0.5303   -4.7570    0.0000 H   0  0  0  0  0  0  0  0  0  0  0  0
   -3.0421   -0.6055    0.0000 H   0  0  0  0  0  0  0  0  0  0  0  0
   -4.2868   -0.8250    0.0000 H   0  0  0  0  0  0  0  0  0  0  0  0
    3.3882   -1.8430    0.0000 H   0  0  0  0  0  0  0  0  0  0  0  0
   -2.5757   -5.7252    0.0000 H   0  0  0  0  0  0  0  0  0  0  0  0
    1.5269   -5.5058    0.0000 H   0  0  0  0  0  0  0  0  0  0  0  0
    3.6704   -1.7933    0.0000 H   0  0  0  0  0  0  0  0  0  0  0  0
   -5.0013   -2.0625    0.0000 H   0  0  0  0  0  0  0  0  0  0  0  0
    1.7111   -5.7252    0.0000 H   0  0  0  0  0  0  0  0  0  0  0  0
   -2.6737   -5.9945    0.0000 H   0  0  0  0  0  0  0  0  0  0  0  0
    1.6131   -3.5195    0.0000 H   0  0  0  0  0  0  0  0  0  0  0  0
   -3.1401   -3.3498    0.0000 H   0  0  0  0  0  0  0  0  0  0  0  0
   -0.8125   -4.8067    0.0000 H   0  0  0  0  0  0  0  0  0  0  0  0
    2.8579   -0.8250    0.0000 H   0  0  0  0  0  0  0  0  0  0  0  0
   -4.2868   -3.3000    0.0000 H   0  0  0  0  0  0  0  0  0  0  0  0
    2.1434   -4.5375    0.0000 H   0  0  0  0  0  0  0  0  0  0  0  0
   -1.4289   -5.7750    0.0000 H   0  0  0  0  0  0  0  0  0  0  0  0
  5  1  1  1  0  0  0
  6  2  1  1  0  0  0
  7  3  1  1  0  0  0
  8  4  1  1  0  0  0
  9  5  1  0  0  0  0
 10  9  1  0  0  0  0
 14 11  1  0  0  0  0
 15 10  1  0  0  0  0
 16 13  1  0  0  0  0
 17 12  1  0  0  0  0
 18  6  1  0  0  0  0
 18 11  1  0  0  0  0
 19  7  1  0  0  0  0
 19 12  1  0  0  0  0
 20  8  1  0  0  0  0
 20 13  1  0  0  0  0
 21 14  1  0  0  0  0
 22 15  1  0  0  0  0
 23 16  1  0  0  0  0
 24 17  1  0  0  0  0
 25  1  1  0  0  0  0
 26  2  1  0  0  0  0
 27  3  1  0  0  0  0
 28  4  1  0  0  0  0
  9 29  1  6  0  0  0
 10 30  1  1  0  0  0
 11 31  1  1  0  0  0
 12 32  1  1  0  0  0
 13 33  1  1  0  0  0
 14 34  1  6  0  0  0
 15 35  1  6  0  0  0
 16 36  1  6  0  0  0
 17 37  1  6  0  0  0
 21 38  1  1  0  0  0
 39  6  1  0  0  0  0
 39 21  1  0  0  0  0
 40  5  1  0  0  0  0
 40 22  1  0  0  0  0
 41  8  1  0  0  0  0
 41 23  1  0  0  0  0
 42  7  1  0  0  0  0
 42 24  1  0  0  0  0
 18 43  1  6  0  0  0
 23 43  1  1  0  0  0
 19 44  1  6  0  0  0
 22 44  1  1  0  0  0
 20 45  1  6  0  0  0
 24 45  1  1  0  0  0
  5 46  1  6  0  0  0
  6 47  1  6  0  0  0
  7 48  1  6  0  0  0
  8 49  1  6  0  0  0
  9 50  1  1  0  0  0
 10 51  1  6  0  0  0
 11 52  1  6  0  0  0
 12 53  1  6  0  0  0
 13 54  1  6  0  0  0
 14 55  1  1  0  0  0
 15 56  1  1  0  0  0
 16 57  1  1  0  0  0
 17 58  1  1  0  0  0
 18 59  1  1  0  0  0
 19 60  1  1  0  0  0
 20 61  1  1  0  0  0
 21 62  1  6  0  0  0
 22 63  1  6  0  0  0
 23 64  1  6  0  0  0
 24 65  1  6  0  0  0
M  END
> <DATABASE_ID>
DB02717

> <DATABASE_NAME>
drugbank

> <SMILES>
[H][C@@]1(O)O[C@]([H])(CO)[C@@]([H])(O[C@]2([H])O[C@]([H])(CO)[C@@]([H])(O[C@]3([H])O[C@]([H])(CO)[C@@]([H])(O[C@]4([H])O[C@]([H])(CO)[C@@]([H])(O)[C@]([H])(O)[C@@]4([H])O)[C@]([H])(O)[C@@]3([H])O)[C@]([H])(O)[C@@]2([H])O)[C@]([H])(O)[C@@]1([H])O

> <INCHI_IDENTIFIER>
InChI=1S/C24H42O21/c25-1-5-9(29)10(30)15(35)22(40-5)44-19-7(3-27)42-24(17(37)12(19)32)45-20-8(4-28)41-23(16(36)13(20)33)43-18-6(2-26)39-21(38)14(34)11(18)31/h5-38H,1-4H2/t5-,6-,7-,8-,9-,10+,11-,12-,13-,14-,15-,16-,17-,18-,19-,20-,21-,22+,23+,24+/m1/s1

> <INCHI_KEY>
LUEWUZLMQUOBSB-HGDSAIHNSA-N

> <FORMULA>
C24H42O21

> <MOLECULAR_WEIGHT>
666.5777

> <EXACT_MASS>
666.221858406

> <JCHEM_ACCEPTOR_COUNT>
21

> <JCHEM_ATOM_COUNT>
87

> <JCHEM_AVERAGE_NEUTRAL_MICROSPECIES_CHARGE>
-8.913775593042042e-05

> <JCHEM_AVERAGE_POLARIZABILITY>
61.59394228649407

> <JCHEM_BIOAVAILABILITY>
0

> <JCHEM_DONOR_COUNT>
14

> <JCHEM_FORMAL_CHARGE>
0

> <JCHEM_GHOSE_FILTER>
0

> <JCHEM_IUPAC>
(2S,3R,4S,5S,6R)-2-{[(2R,3S,4R,5R,6S)-6-{[(2R,3S,4R,5R,6S)-4,5-dihydroxy-2-(hydroxymethyl)-6-{[(2R,3S,4R,5R,6R)-4,5,6-trihydroxy-2-(hydroxymethyl)oxan-3-yl]oxy}oxan-3-yl]oxy}-4,5-dihydroxy-2-(hydroxymethyl)oxan-3-yl]oxy}-6-(hydroxymethyl)oxane-3,4,5-triol

> <ALOGPS_LOGP>
-2.69

> <JCHEM_LOGP>
-8.245046155

> <ALOGPS_LOGS>
-0.28

> <JCHEM_MDDR_LIKE_RULE>
1

> <JCHEM_NEUTRAL_CHARGE>
0

> <JCHEM_NUMBER_OF_RINGS>
4

> <JCHEM_PHYSIOLOGICAL_CHARGE>
0

> <JCHEM_PKA>
11.867979094355297

> <JCHEM_PKA_STRONGEST_ACIDIC>
11.191626386596173

> <JCHEM_PKA_STRONGEST_BASIC>
-3.685322227064877

> <JCHEM_POLAR_SURFACE_AREA>
347.8300000000001

> <JCHEM_REFRACTIVITY>
133.16329999999996

> <JCHEM_ROTATABLE_BOND_COUNT>
10

> <JCHEM_RULE_OF_FIVE>
0

> <ALOGPS_SOLUBILITY>
3.50e+02 g/l

> <JCHEM_TRADITIONAL_IUPAC>
tetrahydrofolic acid

> <JCHEM_VEBER_RULE>
0

> <DRUGBANK_ID>
DB02717

> <SECONDARY_ACCESSION_NUMBERS>
EXPT01056

> <DRUG_GROUPS>
experimental

> <GENERIC_NAME>
Cellotetraose

$$$$
