
  Mrv0541 09051417062D          

  3  0  0  0  0  0            999 V2000
    0.0000    0.0000    0.0000 Cl  0  5  0  0  0  0  0  0  0  0  0  0
    1.0018    0.0000    0.0000 Cl  0  5  0  0  0  0  0  0  0  0  0  0
    0.0000   -1.6500    0.0000 Sn  0  2  0  0  0  0  0  0  0  0  0  0
M  CHG  3   1  -1   2  -1   3   2
M  END
> <DATABASE_ID>
DB11056

> <DATABASE_NAME>
drugbank

> <SMILES>
[Cl-].[Cl-].[Sn++]

> <INCHI_IDENTIFIER>
InChI=1S/2ClH.Sn/h2*1H;/q;;+2/p-2

> <INCHI_KEY>
AXZWODMDQAVCJE-UHFFFAOYSA-L

> <FORMULA>
Cl2Sn

> <MOLECULAR_WEIGHT>
189.62

> <EXACT_MASS>
189.839901985

> <JCHEM_ACCEPTOR_COUNT>
0

> <JCHEM_ATOM_COUNT>
3

> <JCHEM_AVERAGE_NEUTRAL_MICROSPECIES_CHARGE>
-0.99999999999999

> <JCHEM_AVERAGE_POLARIZABILITY>
2.3881688999999993

> <JCHEM_BIOAVAILABILITY>
1

> <JCHEM_DONOR_COUNT>
0

> <JCHEM_FORMAL_CHARGE>
0

> <JCHEM_GHOSE_FILTER>
0

> <JCHEM_IUPAC>
lambda2-tin(2+) dichloride

> <ALOGPS_LOGP>
0.66

> <JCHEM_LOGP>
0.6123387216666667

> <ALOGPS_LOGS>
-0.46

> <JCHEM_MDDR_LIKE_RULE>
0

> <JCHEM_NEUTRAL_CHARGE>
-1

> <JCHEM_NUMBER_OF_RINGS>
0

> <JCHEM_PHYSIOLOGICAL_CHARGE>
-1

> <JCHEM_PKA_STRONGEST_ACIDIC>
-7.0

> <JCHEM_POLAR_SURFACE_AREA>
0.0

> <JCHEM_REFRACTIVITY>
5.6156

> <JCHEM_ROTATABLE_BOND_COUNT>
0

> <JCHEM_RULE_OF_FIVE>
1

> <ALOGPS_SOLUBILITY>
6.54e+01 g/l

> <JCHEM_TRADITIONAL_IUPAC>
tetrahydrofolic acid

> <JCHEM_VEBER_RULE>
1

> <DRUGBANK_ID>
DB11056

> <DRUG_GROUPS>
approved

> <GENERIC_NAME>
Stannous chloride

> <SYNONYMS>
Stannous chloride anhydrous; Stannous chloride,anhydrous; Tin dichloride

> <PRODUCTS>
High Potency Multivitamins & Minerals Caplets; Multivitamins and Minerals Tablets; Spectrum Performa Multivitamins and Minerals Tablets; Technescan PYP; Ultratag RBC

> <SALTS>
Stannous chloride dihydrate

$$$$
