
  Mrv0541 05031422372D          

 29 29  0  0  0  0            999 V2000
   -0.5662    5.6452    0.0000 C   0  0  0  0  0  0  0  0  0  0  0  0
    0.1483    6.0577    0.0000 C   0  0  0  0  0  0  0  0  0  0  0  0
    0.8628    5.6452    0.0000 C   0  0  0  0  0  0  0  0  0  0  0  0
    5.6332    8.1467    0.0000 C   0  0  0  0  0  0  0  0  0  0  0  0
    5.0201    8.6988    0.0000 C   0  0  0  0  0  0  0  0  0  0  0  0
    1.5772    6.0577    0.0000 C   0  0  0  0  0  0  0  0  0  0  0  0
    5.4617    7.3398    0.0000 C   0  0  0  0  0  0  0  0  0  0  0  0
    5.1916    9.5057    0.0000 C   0  0  0  0  0  0  0  0  0  0  0  0
    2.2917    5.6452    0.0000 C   0  0  0  0  0  0  0  0  0  0  0  0
    6.0748    6.7877    0.0000 C   0  0  0  0  0  0  0  0  0  0  0  0
    4.5785   10.0578    0.0000 C   0  0  0  0  0  0  0  0  0  0  0  0
    3.7206    5.6452    0.0000 C   0  0  0  0  0  0  0  0  0  0  0  0
    4.4351    6.0577    0.0000 C   0  0  0  0  0  0  0  0  0  0  0  0
    6.0428    4.6532    0.0000 C   0  0  0  0  0  0  0  0  0  0  0  0
    3.0062    6.0577    0.0000 C   0  0  0  0  0  0  0  0  0  0  0  0
    5.9033    5.9808    0.0000 C   0  0  0  0  0  0  0  0  0  0  0  0
    5.1496    5.6452    0.0000 C   0  0  0  0  0  0  0  0  0  0  0  0
    6.4553    5.3677    0.0000 C   0  0  0  0  0  0  0  0  0  0  0  0
    5.2358    4.8247    0.0000 C   0  0  0  0  0  0  0  0  0  0  0  0
    4.7501   10.8648    0.0000 C   0  0  0  0  0  0  0  0  0  0  0  0
    3.0062    6.8827    0.0000 O   0  0  0  0  0  0  0  0  0  0  0  0
    7.2758    5.4539    0.0000 O   0  0  0  0  0  0  0  0  0  0  0  0
    4.6227    4.2727    0.0000 O   0  0  0  0  0  0  0  0  0  0  0  0
    4.1370   11.4168    0.0000 O   0  0  0  0  0  0  0  0  0  0  0  0
    5.5347   11.1197    0.0000 O   0  0  0  0  0  0  0  0  0  0  0  0
    6.4178    8.4017    0.0000 H   0  0  0  0  0  0  0  0  0  0  0  0
    4.6771    7.0848    0.0000 H   0  0  0  0  0  0  0  0  0  0  0  0
    3.7206    4.8202    0.0000 H   0  0  0  0  0  0  0  0  0  0  0  0
    4.4351    6.8827    0.0000 H   0  0  0  0  0  0  0  0  0  0  0  0
  2  1  1  0  0  0  0
  3  2  1  0  0  0  0
  5  4  1  0  0  0  0
  6  3  1  0  0  0  0
  7  4  2  0  0  0  0
  8  5  1  0  0  0  0
  9  6  1  0  0  0  0
 10  7  1  0  0  0  0
 11  8  1  0  0  0  0
 13 12  2  0  0  0  0
 15  9  1  0  0  0  0
 15 12  1  0  0  0  0
 16 10  1  0  0  0  0
 17 13  1  0  0  0  0
 17 16  1  0  0  0  0
 18 14  1  0  0  0  0
 18 16  1  0  0  0  0
 19 14  1  0  0  0  0
 19 17  1  0  0  0  0
 20 11  1  0  0  0  0
 21 15  2  0  0  0  0
 22 18  2  0  0  0  0
 23 19  1  0  0  0  0
 24 20  2  0  0  0  0
 25 20  1  0  0  0  0
 26  4  1  0  0  0  0
  7 27  1  4  0  0  0
 28 12  1  0  0  0  0
 29 13  1  0  0  0  0
M  END
> <DATABASE_ID>
DB07177

> <DATABASE_NAME>
drugbank

> <SMILES>
[H]C(CCCC(O)=O)=C([H])CC1C(\C([H])=C(/[H])C(=O)CCCCC)C(O)CC1=O

> <INCHI_IDENTIFIER>
InChI=1S/C20H30O5/c1-2-3-6-9-15(21)12-13-17-16(18(22)14-19(17)23)10-7-4-5-8-11-20(24)25/h4,7,12-13,16-17,19,23H,2-3,5-6,8-11,14H2,1H3,(H,24,25)/b7-4?,13-12+

> <INCHI_KEY>
YRTJDWROBKPZNV-SFTOQRQMSA-N

> <FORMULA>
C20H30O5

> <MOLECULAR_WEIGHT>
350.4492

> <EXACT_MASS>
350.20932407

> <JCHEM_ACCEPTOR_COUNT>
5

> <JCHEM_ATOM_COUNT>
55

> <JCHEM_AVERAGE_NEUTRAL_MICROSPECIES_CHARGE>
-0.9979933010713328

> <JCHEM_AVERAGE_POLARIZABILITY>
39.92530967357579

> <JCHEM_BIOAVAILABILITY>
1

> <JCHEM_DONOR_COUNT>
2

> <JCHEM_FORMAL_CHARGE>
0

> <JCHEM_GHOSE_FILTER>
1

> <JCHEM_IUPAC>
7-{3-hydroxy-5-oxo-2-[(1E)-3-oxooct-1-en-1-yl]cyclopentyl}hept-5-enoic acid

> <ALOGPS_LOGP>
3.27

> <JCHEM_LOGP>
3.636608624999999

> <ALOGPS_LOGS>
-3.78

> <JCHEM_MDDR_LIKE_RULE>
0

> <JCHEM_NEUTRAL_CHARGE>
-1

> <JCHEM_NUMBER_OF_RINGS>
1

> <JCHEM_PHYSIOLOGICAL_CHARGE>
-1

> <JCHEM_PKA>
14.688055302266072

> <JCHEM_PKA_STRONGEST_ACIDIC>
4.303359015207908

> <JCHEM_PKA_STRONGEST_BASIC>
-2.93524020776586

> <JCHEM_POLAR_SURFACE_AREA>
91.67

> <JCHEM_REFRACTIVITY>
98.53769999999997

> <JCHEM_ROTATABLE_BOND_COUNT>
12

> <JCHEM_RULE_OF_FIVE>
1

> <ALOGPS_SOLUBILITY>
5.83e-02 g/l

> <JCHEM_TRADITIONAL_IUPAC>
biotin

> <JCHEM_VEBER_RULE>
0

> <DRUGBANK_ID>
DB07177

> <DRUG_GROUPS>
experimental

> <GENERIC_NAME>
(5E,13E)-11-HYDROXY-9,15-DIOXOPROSTA-5,13-DIEN-1-OIC ACID

$$$$
