
  Mrv0541 05041402342D          

 45 47  0  0  1  0            999 V2000
    1.4289    2.4750    0.0000 C   0  0  0  0  0  0  0  0  0  0  0  0
    1.4289    3.3000    0.0000 C   0  0  0  0  0  0  0  0  0  0  0  0
    2.8579    2.4750    0.0000 C   0  0  0  0  0  0  0  0  0  0  0  0
    0.7145    8.6625    0.0000 C   0  0  0  0  0  0  0  0  0  0  0  0
    0.7145    7.0125    0.0000 C   0  0  0  0  0  0  0  0  0  0  0  0
    2.1434    2.0625    0.0000 C   0  0  0  0  0  0  0  0  0  0  0  0
    2.8579    3.3000    0.0000 C   0  0  0  0  0  0  0  0  0  0  0  0
    2.1434    3.7125    0.0000 C   0  0  0  0  0  0  0  0  0  0  0  0
   -0.0000    8.2500    0.0000 C   0  0  2  0  0  0  0  0  0  0  0  0
    0.7145    6.1875    0.0000 C   0  0  2  0  0  0  0  0  0  0  0  0
    0.7145    4.5375    0.0000 C   0  0  2  0  0  0  0  0  0  0  0  0
   -0.7145    8.6625    0.0000 C   0  0  2  0  0  0  0  0  0  0  0  0
   -0.0000    4.9500    0.0000 C   0  0  2  0  0  0  0  0  0  0  0  0
   -1.4289    8.2500    0.0000 C   0  0  1  0  0  0  0  0  0  0  0  0
   -1.4289    7.4250    0.0000 C   0  0  2  0  0  0  0  0  0  0  0  0
   -0.0000    5.7750    0.0000 C   0  0  2  0  0  0  0  0  0  0  0  0
    1.4289    4.9500    0.0000 C   0  0  2  0  0  0  0  0  0  0  0  0
   -0.7145    7.0125    0.0000 C   0  0  1  0  0  0  0  0  0  0  0  0
    0.7145    3.7125    0.0000 F   0  0  0  0  0  0  0  0  0  0  0  0
    2.1434    1.2375    0.0000 N   0  0  0  0  0  0  0  0  0  0  0  0
    3.5724    3.7125    0.0000 N   0  0  0  0  0  0  0  0  0  0  0  0
    0.7145    9.4875    0.0000 O   0  0  0  0  0  0  0  0  0  0  0  0
    1.4289    7.4250    0.0000 O   0  0  0  0  0  0  0  0  0  0  0  0
   -0.7145    9.4875    0.0000 O   0  0  0  0  0  0  0  0  0  0  0  0
   -0.7145    4.5375    0.0000 O   0  0  0  0  0  0  0  0  0  0  0  0
   -2.1434    8.6625    0.0000 O   0  0  0  0  0  0  0  0  0  0  0  0
   -2.1434    7.0125    0.0000 O   0  0  0  0  0  0  0  0  0  0  0  0
    1.4289    0.8250    0.0000 O   0  0  0  0  0  0  0  0  0  0  0  0
    2.8579    0.8250    0.0000 O   0  0  0  0  0  0  0  0  0  0  0  0
    3.5724    4.5375    0.0000 O   0  0  0  0  0  0  0  0  0  0  0  0
    4.2868    3.3000    0.0000 O   0  0  0  0  0  0  0  0  0  0  0  0
    2.1434    4.5375    0.0000 O   0  0  0  0  0  0  0  0  0  0  0  0
   -0.0000    7.4250    0.0000 O   0  0  0  0  0  0  0  0  0  0  0  0
    1.4289    5.7750    0.0000 O   0  0  0  0  0  0  0  0  0  0  0  0
   -0.7145    6.1875    0.0000 O   0  0  0  0  0  0  0  0  0  0  0  0
   -0.2822    9.0252    0.0000 H   0  0  0  0  0  0  0  0  0  0  0  0
   -0.0980    6.3308    0.0000 H   0  0  0  0  0  0  0  0  0  0  0  0
    0.1842    3.9055    0.0000 H   0  0  0  0  0  0  0  0  0  0  0  0
   -0.1842    9.2945    0.0000 H   0  0  0  0  0  0  0  0  0  0  0  0
   -0.2822    4.1748    0.0000 H   0  0  0  0  0  0  0  0  0  0  0  0
   -1.4289    9.0750    0.0000 H   0  0  0  0  0  0  0  0  0  0  0  0
   -2.1434    7.8375    0.0000 H   0  0  0  0  0  0  0  0  0  0  0  0
   -0.2822    6.5502    0.0000 H   0  0  0  0  0  0  0  0  0  0  0  0
    1.4289    4.1250    0.0000 H   0  0  0  0  0  0  0  0  0  0  0  0
   -1.4289    6.6000    0.0000 H   0  0  0  0  0  0  0  0  0  0  0  0
  2  1  2  0  0  0  0
  6  1  1  0  0  0  0
  6  3  2  0  0  0  0
  7  3  1  0  0  0  0
  8  2  1  0  0  0  0
  8  7  2  0  0  0  0
  9  4  1  1  0  0  0
 10  5  1  1  0  0  0
 12  9  1  0  0  0  0
 13 11  1  0  0  0  0
 14 12  1  0  0  0  0
 15 14  1  0  0  0  0
 16 10  1  0  0  0  0
 16 13  1  0  0  0  0
 17 11  1  0  0  0  0
 18 15  1  0  0  0  0
 11 19  1  6  0  0  0
 20  6  1  0  0  0  0
 21  7  1  0  0  0  0
 22  4  1  0  0  0  0
 23  5  1  0  0  0  0
 12 24  1  6  0  0  0
 13 25  1  1  0  0  0
 14 26  1  1  0  0  0
 15 27  1  6  0  0  0
 28 20  2  0  0  0  0
 29 20  2  0  0  0  0
 30 21  2  0  0  0  0
 31 21  2  0  0  0  0
 32  8  1  0  0  0  0
 17 32  1  1  0  0  0
 33  9  1  0  0  0  0
 33 18  1  0  0  0  0
 34 10  1  0  0  0  0
 34 17  1  0  0  0  0
 16 35  1  6  0  0  0
 18 35  1  1  0  0  0
  9 36  1  6  0  0  0
 10 37  1  6  0  0  0
 11 38  1  1  0  0  0
 12 39  1  1  0  0  0
 13 40  1  6  0  0  0
 14 41  1  6  0  0  0
 15 42  1  1  0  0  0
 16 43  1  1  0  0  0
 17 44  1  6  0  0  0
 18 45  1  6  0  0  0
M  END
> <DATABASE_ID>
DB04086

> <DATABASE_NAME>
drugbank

> <SMILES>
[H][C@]1(CO)O[C@@]([H])(O[C@]2([H])[C@@]([H])(CO)O[C@@]([H])(OC3=C(C=C(C=C3)N(=O)=O)N(=O)=O)[C@]([H])(F)[C@@]2([H])O)[C@]([H])(O)[C@@]([H])(O)[C@]1([H])O

> <INCHI_IDENTIFIER>
InChI=1S/C18H23FN2O14/c19-11-13(25)16(35-18-15(27)14(26)12(24)9(4-22)33-18)10(5-23)34-17(11)32-8-2-1-6(20(28)29)3-7(8)21(30)31/h1-3,9-18,22-27H,4-5H2/t9-,10-,11-,12-,13-,14+,15-,16-,17-,18+/m1/s1

> <INCHI_KEY>
WFVCNOHOODVBQK-IUBYCILNSA-N

> <FORMULA>
C18H23FN2O14

> <MOLECULAR_WEIGHT>
510.3786

> <EXACT_MASS>
510.113331659

> <JCHEM_ACCEPTOR_COUNT>
14

> <JCHEM_ATOM_COUNT>
58

> <JCHEM_AVERAGE_NEUTRAL_MICROSPECIES_CHARGE>
-1.1368727099759237e-05

> <JCHEM_AVERAGE_POLARIZABILITY>
44.04663007409269

> <JCHEM_BIOAVAILABILITY>
0

> <JCHEM_DONOR_COUNT>
6

> <JCHEM_FORMAL_CHARGE>
0

> <JCHEM_GHOSE_FILTER>
0

> <JCHEM_IUPAC>
(2S,3R,4S,5S,6R)-2-{[(2R,3S,4S,5R,6S)-6-(2,4-dinitrophenoxy)-5-fluoro-4-hydroxy-2-(hydroxymethyl)oxan-3-yl]oxy}-6-(hydroxymethyl)oxane-3,4,5-triol

> <ALOGPS_LOGP>
-0.82

> <JCHEM_LOGP>
-1.5981630919999992

> <ALOGPS_LOGS>
-1.97

> <JCHEM_MDDR_LIKE_RULE>
1

> <JCHEM_NEUTRAL_CHARGE>
0

> <JCHEM_NUMBER_OF_RINGS>
3

> <JCHEM_PHYSIOLOGICAL_CHARGE>
0

> <JCHEM_PKA>
12.68479239046598

> <JCHEM_PKA_STRONGEST_ACIDIC>
12.080442294426495

> <JCHEM_PKA_STRONGEST_BASIC>
-2.9810835653018843

> <JCHEM_POLAR_SURFACE_AREA>
249.93999999999994

> <JCHEM_REFRACTIVITY>
105.55389999999997

> <JCHEM_ROTATABLE_BOND_COUNT>
8

> <JCHEM_RULE_OF_FIVE>
0

> <ALOGPS_SOLUBILITY>
5.50e+00 g/l

> <JCHEM_TRADITIONAL_IUPAC>
tetrahydrofolic acid

> <JCHEM_VEBER_RULE>
0

> <DRUGBANK_ID>
DB04086

> <SECONDARY_ACCESSION_NUMBERS>
EXPT01130

> <DRUG_GROUPS>
experimental

> <GENERIC_NAME>
2',4'-Dinitrophenyl-2deoxy-2-Fluro-B-D-Cellobioside

$$$$
