
  Mrv0541 02231216432D          

 10  9  0  0  0  0            999 V2000
    4.6184    2.6664    0.0000 O   0  0  0  0  0  0  0  0  0  0  0  0
    4.6184    1.8414    0.0000 N   0  0  0  0  0  0  0  0  0  0  0  0
    3.9039    1.4289    0.0000 C   0  0  0  0  0  0  0  0  0  0  0  0
    3.1895    1.8414    0.0000 C   0  0  0  0  0  0  0  0  0  0  0  0
    2.4750    1.4289    0.0000 P   0  0  0  0  0  0  0  0  0  0  0  0
    1.7605    1.0164    0.0000 O   0  0  0  0  0  0  0  0  0  0  0  0
    2.8875    0.7145    0.0000 O   0  0  0  0  0  0  0  0  0  0  0  0
    2.0625    2.1434    0.0000 O   0  0  0  0  0  0  0  0  0  0  0  0
    5.3329    1.4289    0.0000 C   0  0  0  0  0  0  0  0  0  0  0  0
    6.0474    1.8414    0.0000 O   0  0  0  0  0  0  0  0  0  0  0  0
  1  2  1  0  0  0  0
  2  3  1  0  0  0  0
  3  4  1  0  0  0  0
  4  5  1  0  0  0  0
  5  6  1  0  0  0  0
  5  7  1  0  0  0  0
  5  8  2  0  0  0  0
  2  9  1  0  0  0  0
  9 10  2  0  0  0  0
M  END
> <DATABASE_ID>
DB03135

> <DATABASE_NAME>
drugbank

> <SMILES>
ON(CCP(O)(O)=O)C=O

> <INCHI_IDENTIFIER>
InChI=1S/C3H8NO5P/c5-3-4(6)1-2-10(7,8)9/h3,6H,1-2H2,(H2,7,8,9)

> <INCHI_KEY>
NBAIGNUEKZLOMI-UHFFFAOYSA-N

> <FORMULA>
C3H8NO5P

> <MOLECULAR_WEIGHT>
169.0731

> <EXACT_MASS>
169.014008883

> <JCHEM_ACCEPTOR_COUNT>
5

> <JCHEM_ATOM_COUNT>
18

> <JCHEM_AVERAGE_NEUTRAL_MICROSPECIES_CHARGE>
-1.1527756501695077

> <JCHEM_AVERAGE_POLARIZABILITY>
13.128360739781607

> <JCHEM_BIOAVAILABILITY>
1

> <JCHEM_DONOR_COUNT>
3

> <JCHEM_FORMAL_CHARGE>
0

> <JCHEM_GHOSE_FILTER>
0

> <JCHEM_IUPAC>
[2-(N-hydroxyformamido)ethyl]phosphonic acid

> <ALOGPS_LOGP>
-1.17

> <JCHEM_LOGP>
-2.3569273933333332

> <ALOGPS_LOGS>
-0.90

> <JCHEM_MDDR_LIKE_RULE>
0

> <JCHEM_NEUTRAL_CHARGE>
-1

> <JCHEM_NUMBER_OF_RINGS>
0

> <JCHEM_PHYSIOLOGICAL_CHARGE>
-1

> <JCHEM_PKA>
8.055231659437425

> <JCHEM_PKA_STRONGEST_ACIDIC>
1.7873467049273493

> <JCHEM_PKA_STRONGEST_BASIC>
-5.696205082525957

> <JCHEM_POLAR_SURFACE_AREA>
98.07

> <JCHEM_REFRACTIVITY>
31.969500000000004

> <JCHEM_ROTATABLE_BOND_COUNT>
3

> <JCHEM_RULE_OF_FIVE>
1

> <ALOGPS_SOLUBILITY>
2.15e+01 g/l

> <JCHEM_TRADITIONAL_IUPAC>
tetrahydrofolic acid

> <JCHEM_VEBER_RULE>
0

> <DRUGBANK_ID>
DB03135

> <SECONDARY_ACCESSION_NUMBERS>
EXPT00020

> <DRUG_GROUPS>
experimental

> <GENERIC_NAME>
[2(Formyl-Hydroxy-Amino)-Ethyl]-Phosphonic Acid

$$$$
