
  Mrv0541 02241203522D          

 36 40  0  0  1  0            999 V2000
   14.0744  -13.0487    0.0000 C   0  0  0  0  0  0  0  0  0  0  0  0
   14.4869  -12.3348    0.0000 C   0  0  0  0  0  0  0  0  0  0  0  0
   14.0744  -11.6202    0.0000 N   0  0  0  0  0  0  0  0  0  0  0  0
   14.4869  -10.9057    0.0000 C   0  0  0  0  0  0  0  0  0  0  0  0
   14.0744  -10.1912    0.0000 C   0  0  0  0  0  0  0  0  0  0  0  0
   13.2494  -10.1912    0.0000 N   0  0  0  0  0  0  0  0  0  0  0  0
   12.8370  -10.9057    0.0000 C   0  0  0  0  0  0  0  0  0  0  0  0
   13.2494  -11.6202    0.0000 C   0  0  0  0  0  0  0  0  0  0  0  0
   12.8370   -9.4766    0.0000 C   0  0  0  0  0  0  0  0  0  0  0  0
   13.2494   -8.7627    0.0000 C   0  0  0  0  0  0  0  0  0  0  0  0
   12.8370   -8.0481    0.0000 C   0  0  0  0  0  0  0  0  0  0  0  0
   12.0120   -8.0481    0.0000 C   0  0  0  0  0  0  0  0  0  0  0  0
   11.5995   -8.7627    0.0000 C   0  0  0  0  0  0  0  0  0  0  0  0
   12.0120   -9.4766    0.0000 C   0  0  0  0  0  0  0  0  0  0  0  0
   11.5995   -7.3336    0.0000 O   0  0  0  0  0  0  0  0  0  0  0  0
   10.7746   -7.3336    0.0000 C   0  0  0  0  0  0  0  0  0  0  0  0
   10.3621   -6.6191    0.0000 C   0  0  2  0  0  0  0  0  0  0  0  0
   10.6977   -5.8654    0.0000 C   0  0  0  0  0  0  0  0  0  0  0  0
   10.0848   -5.3134    0.0000 O   0  0  0  0  0  0  0  0  0  0  0  0
    9.3703   -5.7259    0.0000 C   0  0  1  0  0  0  0  0  0  0  0  0
    8.8853   -5.0585    0.0000 C   0  0  0  0  0  0  0  0  0  0  0  0
    9.2208   -4.3048    0.0000 N   0  0  0  0  0  0  0  0  0  0  0  0
   10.0278   -4.1337    0.0000 C   0  0  0  0  0  0  0  0  0  0  0  0
   10.1140   -3.3130    0.0000 C   0  0  0  0  0  0  0  0  0  0  0  0
    9.3604   -2.9775    0.0000 N   0  0  0  0  0  0  0  0  0  0  0  0
    8.8084   -3.5903    0.0000 C   0  0  0  0  0  0  0  0  0  0  0  0
    8.5497   -5.8121    0.0000 C   0  0  0  0  0  0  0  0  0  0  0  0
    8.0646   -5.1447    0.0000 C   0  0  0  0  0  0  0  0  0  0  0  0
    7.2447   -5.2309    0.0000 C   0  0  0  0  0  0  0  0  0  0  0  0
    6.9091   -5.9845    0.0000 C   0  0  0  0  0  0  0  0  0  0  0  0
    7.3935   -6.6520    0.0000 C   0  0  0  0  0  0  0  0  0  0  0  0
    8.2142   -6.5657    0.0000 C   0  0  0  0  0  0  0  0  0  0  0  0
    8.6992   -7.2331    0.0000 Cl  0  0  0  0  0  0  0  0  0  0  0  0
    6.0885   -6.0708    0.0000 Cl  0  0  0  0  0  0  0  0  0  0  0  0
    9.5415   -6.5328    0.0000 O   0  0  0  0  0  0  0  0  0  0  0  0
   15.3118  -12.3348    0.0000 O   0  0  0  0  0  0  0  0  0  0  0  0
  1  2  1  0  0  0  0
  2  3  1  0  0  0  0
  2 36  2  0  0  0  0
  3  4  1  0  0  0  0
  3  8  1  0  0  0  0
  4  5  1  0  0  0  0
  5  6  1  0  0  0  0
  6  7  1  0  0  0  0
  6  9  1  0  0  0  0
  7  8  1  0  0  0  0
  9 10  2  0  0  0  0
  9 14  1  0  0  0  0
 10 11  1  0  0  0  0
 11 12  2  0  0  0  0
 12 13  1  0  0  0  0
 12 15  1  0  0  0  0
 13 14  2  0  0  0  0
 15 16  1  0  0  0  0
 17 16  1  1  0  0  0
 17 18  1  0  0  0  0
 17 35  1  0  0  0  0
 18 19  1  0  0  0  0
 19 20  1  0  0  0  0
 20 21  1  1  0  0  0
 20 27  1  0  0  0  0
 20 35  1  0  0  0  0
 21 22  1  0  0  0  0
 22 23  1  0  0  0  0
 22 26  1  0  0  0  0
 23 24  2  0  0  0  0
 24 25  1  0  0  0  0
 25 26  2  0  0  0  0
 27 28  2  0  0  0  0
 27 32  1  0  0  0  0
 28 29  1  0  0  0  0
 29 30  2  0  0  0  0
 30 31  1  0  0  0  0
 30 34  1  0  0  0  0
 31 32  2  0  0  0  0
 32 33  1  0  0  0  0
M  END
> <DATABASE_ID>
DB05667

> <DATABASE_NAME>
drugbank

> <SMILES>
CC(=O)N1CCN(CC1)C1=CC=C(OC[C@@H]2CO[C@](CN3C=CN=C3)(O2)C2=CC=C(Cl)C=C2Cl)C=C1

> <INCHI_IDENTIFIER>
InChI=1S/C26H28Cl2N4O4/c1-19(33)31-10-12-32(13-11-31)21-3-5-22(6-4-21)34-15-23-16-35-26(36-23,17-30-9-8-29-18-30)24-7-2-20(27)14-25(24)28/h2-9,14,18,23H,10-13,15-17H2,1H3/t23-,26-/m1/s1

> <INCHI_KEY>
XMAYWYJOQHXEEK-ZEQKJWHPSA-N

> <FORMULA>
C26H28Cl2N4O4

> <MOLECULAR_WEIGHT>
531.431

> <EXACT_MASS>
530.148760818

> <JCHEM_ACCEPTOR_COUNT>
6

> <JCHEM_ATOM_COUNT>
64

> <JCHEM_AVERAGE_NEUTRAL_MICROSPECIES_CHARGE>
0.20953704718834593

> <JCHEM_AVERAGE_POLARIZABILITY>
54.66676747855721

> <JCHEM_BIOAVAILABILITY>
1

> <JCHEM_DONOR_COUNT>
0

> <JCHEM_FORMAL_CHARGE>
0

> <JCHEM_GHOSE_FILTER>
0

> <JCHEM_IUPAC>
1-[4-(4-{[(2S,4R)-2-(2,4-dichlorophenyl)-2-[(1H-imidazol-1-yl)methyl]-1,3-dioxolan-4-yl]methoxy}phenyl)piperazin-1-yl]ethan-1-one

> <ALOGPS_LOGP>
4.30

> <JCHEM_LOGP>
4.191597861333333

> <ALOGPS_LOGS>
-4.76

> <JCHEM_MDDR_LIKE_RULE>
1

> <JCHEM_NEUTRAL_CHARGE>
0

> <JCHEM_NUMBER_OF_RINGS>
5

> <JCHEM_PHYSIOLOGICAL_CHARGE>
0

> <JCHEM_PKA_STRONGEST_BASIC>
6.4224910616464514

> <JCHEM_POLAR_SURFACE_AREA>
69.06

> <JCHEM_REFRACTIVITY>
138.06719999999999

> <JCHEM_ROTATABLE_BOND_COUNT>
7

> <JCHEM_RULE_OF_FIVE>
0

> <ALOGPS_SOLUBILITY>
9.31e-03 g/l

> <JCHEM_TRADITIONAL_IUPAC>
biotin

> <JCHEM_VEBER_RULE>
0

> <DRUGBANK_ID>
DB05667

> <DRUG_GROUPS>
approved; investigational

> <GENERIC_NAME>
Levoketoconazole

> <SYNONYMS>
Levoketoconazole

> <PRODUCTS>
Recorlev

$$$$
