
  Mrv0541 02231217402D          

 49 56  0  0  0  0            999 V2000
   -3.4660   -0.8150    0.0000 C   0  0  0  0  0  0  0  0  0  0  0  0
   -2.7684   -0.3746    0.0000 C   0  0  0  0  0  0  0  0  0  0  0  0
   -2.7146    0.4486    0.0000 C   0  0  0  0  0  0  0  0  0  0  0  0
   -3.3490    0.9760    0.0000 C   0  0  0  0  0  0  0  0  0  0  0  0
   -4.1230    0.6903    0.0000 C   0  0  0  0  0  0  0  0  0  0  0  0
   -4.7574    1.2176    0.0000 C   0  0  0  0  0  0  0  0  0  0  0  0
   -5.5313    0.9319    0.0000 O   0  0  0  0  0  0  0  0  0  0  0  0
   -4.6179    2.0308    0.0000 O   0  0  0  0  0  0  0  0  0  0  0  0
   -1.9151    0.6519    0.0000 C   0  0  0  0  0  0  0  0  0  0  0  0
   -1.3945    1.5893    0.0000 C   0  0  0  0  0  0  0  0  0  0  0  0
   -0.6802    2.0020    0.0000 C   0  0  0  0  0  0  0  0  0  0  0  0
   -0.3746    2.7684    0.0000 C   0  0  0  0  0  0  0  0  0  0  0  0
   -0.8150    3.4660    0.0000 C   0  0  0  0  0  0  0  0  0  0  0  0
    0.4486    2.7146    0.0000 C   0  0  0  0  0  0  0  0  0  0  0  0
    0.9760    3.3490    0.0000 C   0  0  0  0  0  0  0  0  0  0  0  0
    1.7891    3.2095    0.0000 C   0  0  0  0  0  0  0  0  0  0  0  0
    2.3165    3.8440    0.0000 C   0  0  0  0  0  0  0  0  0  0  0  0
    2.0308    4.6179    0.0000 O   0  0  0  0  0  0  0  0  0  0  0  0
    3.1296    3.7044    0.0000 O   0  0  0  0  0  0  0  0  0  0  0  0
    0.6519    1.9151    0.0000 C   0  0  0  0  0  0  0  0  0  0  0  0
    1.5893    1.3945    0.0000 C   0  0  0  0  0  0  0  0  0  0  0  0
    2.0020    0.6802    0.0000 C   0  0  0  0  0  0  0  0  0  0  0  0
    1.4746    0.0457    0.0000 N   0  0  0  0  0  0  0  0  0  0  0  0
    1.9151   -0.6519    0.0000 C   0  0  0  0  0  0  0  0  0  0  0  0
    1.3945   -1.5893    0.0000 C   0  0  0  0  0  0  0  0  0  0  0  0
    0.6802   -2.0020    0.0000 C   0  0  0  0  0  0  0  0  0  0  0  0
    0.3746   -2.7684    0.0000 C   0  0  0  0  0  0  0  0  0  0  0  0
    0.8150   -3.4660    0.0000 C   0  0  0  0  0  0  0  0  0  0  0  0
   -0.4486   -2.7146    0.0000 C   0  0  0  0  0  0  0  0  0  0  0  0
   -0.9760   -3.3490    0.0000 C   0  0  0  0  0  0  0  0  0  0  0  0
   -1.7891   -3.2095    0.0000 C   0  0  0  0  0  0  0  0  0  0  0  0
   -2.3165   -3.8440    0.0000 C   0  0  0  0  0  0  0  0  0  0  0  0
   -2.0308   -4.6179    0.0000 O   0  0  0  0  0  0  0  0  0  0  0  0
   -3.1296   -3.7044    0.0000 O   0  0  0  0  0  0  0  0  0  0  0  0
   -0.6519   -1.9151    0.0000 C   0  0  0  0  0  0  0  0  0  0  0  0
   -1.5893   -1.3945    0.0000 C   0  0  0  0  0  0  0  0  0  0  0  0
   -2.0020   -0.6802    0.0000 C   0  0  0  0  0  0  0  0  0  0  0  0
   -1.4746   -0.0457    0.0000 N   0  0  0  0  0  0  0  0  0  0  0  0
    0.0000    0.0000    0.0000 Co  0  0  0  0  0  0  0  0  0  0  0  0
    0.0457   -1.4746    0.0000 N   0  0  0  0  0  0  0  0  0  0  0  0
   -0.0457    1.4746    0.0000 N   0  0  0  0  0  0  0  0  0  0  0  0
    2.7146   -0.4486    0.0000 C   0  0  0  0  0  0  0  0  0  0  0  0
    3.3490   -0.9760    0.0000 C   0  0  0  0  0  0  0  0  0  0  0  0
    4.1230   -0.6903    0.0000 C   0  0  0  0  0  0  0  0  0  0  0  0
    4.7574   -1.2176    0.0000 C   0  0  0  0  0  0  0  0  0  0  0  0
    5.5313   -0.9319    0.0000 O   0  0  0  0  0  0  0  0  0  0  0  0
    4.6179   -2.0308    0.0000 O   0  0  0  0  0  0  0  0  0  0  0  0
    2.7684    0.3746    0.0000 C   0  0  0  0  0  0  0  0  0  0  0  0
    3.4660    0.8150    0.0000 C   0  0  0  0  0  0  0  0  0  0  0  0
  1  2  1  0  0  0  0
  2  3  2  0  0  0  0
  3  4  1  0  0  0  0
  4  5  1  0  0  0  0
  5  6  1  0  0  0  0
  6  7  1  0  0  0  0
  6  8  2  0  0  0  0
  3  9  1  0  0  0  0
  9 10  2  0  0  0  0
 10 11  1  0  0  0  0
 11 12  2  0  0  0  0
 12 13  1  0  0  0  0
 12 14  1  0  0  0  0
 14 15  1  0  0  0  0
 15 16  1  0  0  0  0
 16 17  1  0  0  0  0
 17 18  1  0  0  0  0
 17 19  2  0  0  0  0
 14 20  2  0  0  0  0
 20 21  1  0  0  0  0
 21 22  2  0  0  0  0
 22 23  1  0  0  0  0
 23 24  1  0  0  0  0
 24 25  2  0  0  0  0
 25 26  1  0  0  0  0
 26 27  2  0  0  0  0
 27 28  1  0  0  0  0
 27 29  1  0  0  0  0
 29 30  1  0  0  0  0
 30 31  1  0  0  0  0
 31 32  1  0  0  0  0
 32 33  1  0  0  0  0
 32 34  2  0  0  0  0
 29 35  2  0  0  0  0
 35 36  1  0  0  0  0
 36 37  2  0  0  0  0
  2 37  1  0  0  0  0
 37 38  1  0  0  0  0
  9 38  1  0  0  0  0
 38 39  1  0  0  0  0
 23 39  1  0  0  0  0
 39 40  1  0  0  0  0
 26 40  1  0  0  0  0
 35 40  1  0  0  0  0
 39 41  1  0  0  0  0
 11 41  1  0  0  0  0
 20 41  1  0  0  0  0
 24 42  1  0  0  0  0
 42 43  1  0  0  0  0
 43 44  1  0  0  0  0
 44 45  1  0  0  0  0
 45 46  1  0  0  0  0
 45 47  2  0  0  0  0
 42 48  2  0  0  0  0
 22 48  1  0  0  0  0
 48 49  1  0  0  0  0
M  END
> <DATABASE_ID>
DB04423

> <DATABASE_NAME>
drugbank

> <SMILES>
CC1=C(CCC(O)=O)C2=CC3=C(C)C(CCC(O)=O)=C4C=C5N6C(=CC7=C(C)C(CCC(O)=O)=C8C=C1N2[Co]6(N78)N34)C(CCC(O)=O)=C5C

> <INCHI_IDENTIFIER>
InChI=1S/C36H36N4O8.Co/c1-17-21(5-9-33(41)42)29-14-26-19(3)23(7-11-35(45)46)31(39-26)16-28-20(4)24(8-12-36(47)48)32(40-28)15-27-18(2)22(6-10-34(43)44)30(38-27)13-25(17)37-29;/h13-16H,5-12H2,1-4H3,(H,41,42)(H,43,44)(H,45,46)(H,47,48);/q-4;+4/b25-13-,26-14-,27-15-,28-16-,29-14-,30-13-,31-16-,32-15-;

> <INCHI_KEY>
YMJSUHOSFAHJRH-MXOXSBADSA-N

> <FORMULA>
C36H36CoN4O8

> <MOLECULAR_WEIGHT>
711.6262

> <EXACT_MASS>
711.186514342

> <JCHEM_ACCEPTOR_COUNT>
8

> <JCHEM_ATOM_COUNT>
85

> <JCHEM_AVERAGE_NEUTRAL_MICROSPECIES_CHARGE>
-3.996090056295306

> <JCHEM_AVERAGE_POLARIZABILITY>
76.51642835634419

> <JCHEM_BIOAVAILABILITY>
0

> <JCHEM_DONOR_COUNT>
4

> <JCHEM_FORMAL_CHARGE>
0

> <JCHEM_GHOSE_FILTER>
0

> <JCHEM_IUPAC>
3-[9,14,19-tris(2-carboxyethyl)-5,10,15,20-tetramethyl-2,22,23,25-tetraaza-1-cobaltaoctacyclo[11.9.1.1^{1,8}.1^{3,21}.0^{2,6}.0^{16,23}.0^{18,22}.0^{11,25}]pentacosa-3(24),4,6,8,10,12,14,16,18,20-decaen-4-yl]propanoic acid

> <ALOGPS_LOGP>
2.85

> <JCHEM_LOGP>
5.628399999999999

> <ALOGPS_LOGS>
-2.95

> <JCHEM_MDDR_LIKE_RULE>
1

> <JCHEM_NEUTRAL_CHARGE>
-4

> <JCHEM_NUMBER_OF_RINGS>
8

> <JCHEM_PHYSIOLOGICAL_CHARGE>
-4

> <JCHEM_PKA>
3.882641402461751

> <JCHEM_PKA_STRONGEST_ACIDIC>
3.4562483355047977

> <JCHEM_POLAR_SURFACE_AREA>
168.92000000000002

> <JCHEM_REFRACTIVITY>
182.21400000000006

> <JCHEM_ROTATABLE_BOND_COUNT>
12

> <JCHEM_RULE_OF_FIVE>
0

> <ALOGPS_SOLUBILITY>
8.07e-01 g/l

> <JCHEM_TRADITIONAL_IUPAC>
tetrahydrofolic acid

> <JCHEM_VEBER_RULE>
0

> <DRUGBANK_ID>
DB04423

> <SECONDARY_ACCESSION_NUMBERS>
EXPT02513

> <DRUG_GROUPS>
experimental

> <GENERIC_NAME>
Coproporphyrin I containing CO(III)

$$$$
