
  Mrv0541 05041402302D          

 16 16  0  0  1  0            999 V2000
    2.1434    1.2375    0.0000 C   0  0  0  0  0  0  0  0  0  0  0  0
    1.4289    0.8250    0.0000 C   0  0  2  0  0  0  0  0  0  0  0  0
    0.7145    1.2375    0.0000 C   0  0  2  0  0  0  0  0  0  0  0  0
    0.0000    0.8250    0.0000 C   0  0  1  0  0  0  0  0  0  0  0  0
    0.0000    0.0000    0.0000 C   0  0  2  0  0  0  0  0  0  0  0  0
    0.7145   -0.4125    0.0000 C   0  0  2  0  0  0  0  0  0  0  0  0
    0.7145    2.0625    0.0000 N   0  0  0  0  0  0  0  0  0  0  0  0
   -0.7145    1.2375    0.0000 O   0  0  0  0  0  0  0  0  0  0  0  0
   -0.7145   -0.4125    0.0000 O   0  0  0  0  0  0  0  0  0  0  0  0
    0.7145   -1.2375    0.0000 O   0  0  0  0  0  0  0  0  0  0  0  0
    1.4289   -0.0000    0.0000 O   0  0  0  0  0  0  0  0  0  0  0  0
    1.1468    1.6002    0.0000 H   0  0  0  0  0  0  0  0  0  0  0  0
    1.2448    1.8695    0.0000 H   0  0  0  0  0  0  0  0  0  0  0  0
    0.0000    1.6500    0.0000 H   0  0  0  0  0  0  0  0  0  0  0  0
   -0.7145    0.4125    0.0000 H   0  0  0  0  0  0  0  0  0  0  0  0
   -0.0000   -0.8250    0.0000 H   0  0  0  0  0  0  0  0  0  0  0  0
  2  1  1  1  0  0  0
  3  2  1  0  0  0  0
  4  3  1  0  0  0  0
  5  4  1  0  0  0  0
  6  5  1  0  0  0  0
  3  7  1  6  0  0  0
  4  8  1  1  0  0  0
  5  9  1  6  0  0  0
  6 10  1  1  0  0  0
 11  2  1  0  0  0  0
 11  6  1  0  0  0  0
  2 12  1  6  0  0  0
  3 13  1  1  0  0  0
  4 14  1  6  0  0  0
  5 15  1  1  0  0  0
  6 16  1  6  0  0  0
M  END
> <DATABASE_ID>
DB02469

> <DATABASE_NAME>
drugbank

> <SMILES>
[H][C@]1(C)O[C@@]([H])(O)[C@]([H])(O)[C@@]([H])(O)[C@]1([H])N

> <INCHI_IDENTIFIER>
InChI=1S/C6H13NO4/c1-2-3(7)4(8)5(9)6(10)11-2/h2-6,8-10H,7H2,1H3/t2-,3-,4+,5-,6-/m1/s1

> <INCHI_KEY>
RJKBJEZZABBYBA-VFUOTHLCSA-N

> <FORMULA>
C6H13NO4

> <MOLECULAR_WEIGHT>
163.1717

> <EXACT_MASS>
163.084457909

> <JCHEM_ACCEPTOR_COUNT>
5

> <JCHEM_ATOM_COUNT>
24

> <JCHEM_AVERAGE_NEUTRAL_MICROSPECIES_CHARGE>
0.9731970935464077

> <JCHEM_AVERAGE_POLARIZABILITY>
15.831688744996123

> <JCHEM_BIOAVAILABILITY>
1

> <JCHEM_DONOR_COUNT>
4

> <JCHEM_FORMAL_CHARGE>
0

> <JCHEM_GHOSE_FILTER>
0

> <JCHEM_IUPAC>
(2R,3R,4S,5S,6R)-5-amino-6-methyloxane-2,3,4-triol

> <ALOGPS_LOGP>
-2.12

> <JCHEM_LOGP>
-1.9925110479999997

> <ALOGPS_LOGS>
0.65

> <JCHEM_MDDR_LIKE_RULE>
0

> <JCHEM_NEUTRAL_CHARGE>
1

> <JCHEM_NUMBER_OF_RINGS>
1

> <JCHEM_PHYSIOLOGICAL_CHARGE>
1

> <JCHEM_PKA>
13.105899394078007

> <JCHEM_PKA_STRONGEST_ACIDIC>
11.320235686013067

> <JCHEM_PKA_STRONGEST_BASIC>
8.560832302072079

> <JCHEM_POLAR_SURFACE_AREA>
95.94000000000001

> <JCHEM_REFRACTIVITY>
36.0372

> <JCHEM_ROTATABLE_BOND_COUNT>
0

> <JCHEM_RULE_OF_FIVE>
1

> <ALOGPS_SOLUBILITY>
7.22e+02 g/l

> <JCHEM_TRADITIONAL_IUPAC>
biotin

> <JCHEM_VEBER_RULE>
0

> <DRUGBANK_ID>
DB02469

> <SECONDARY_ACCESSION_NUMBERS>
EXPT01106

> <DRUG_GROUPS>
experimental

> <GENERIC_NAME>
4,6-dideoxy-4-amino-beta-D-glucopyranoside

$$$$
