
  Mrv0541 05041408552D          

 10 10  0  0  0  0            999 V2000
    0.7145   -1.2375    0.0000 C   0  0  0  0  0  0  0  0  0  0  0  0
    1.4289   -0.0000    0.0000 C   0  0  0  0  0  0  0  0  0  0  0  0
    0.0000   -0.0000    0.0000 C   0  0  0  0  0  0  0  0  0  0  0  0
    1.4289    0.8250    0.0000 C   0  0  0  0  0  0  0  0  0  0  0  0
    0.0000    0.8250    0.0000 C   0  0  0  0  0  0  0  0  0  0  0  0
    0.7145    2.0625    0.0000 C   0  0  0  0  0  0  0  0  0  0  0  0
    0.7145   -0.4125    0.0000 N   0  0  0  0  0  0  0  0  0  0  0  0
    0.7145    1.2375    0.0000 N   0  0  0  0  0  0  0  0  0  0  0  0
   -0.0000    2.4750    0.0000 O   0  0  0  0  0  0  0  0  0  0  0  0
    1.4289    2.4750    0.0000 O   0  0  0  0  0  0  0  0  0  0  0  0
  4  2  1  0  0  0  0
  5  3  1  0  0  0  0
  7  1  1  0  0  0  0
  7  2  1  0  0  0  0
  7  3  1  0  0  0  0
  8  4  1  0  0  0  0
  8  5  1  0  0  0  0
  8  6  1  0  0  0  0
  9  6  2  0  0  0  0
 10  6  1  0  0  0  0
M  END
> <DATABASE_ID>
DB04451

> <DATABASE_NAME>
drugbank

> <SMILES>
CN1CCN(CC1)C(O)=O

> <INCHI_IDENTIFIER>
InChI=1S/C6H12N2O2/c1-7-2-4-8(5-3-7)6(9)10/h2-5H2,1H3,(H,9,10)

> <INCHI_KEY>
KNWWGBNAUNTSRV-UHFFFAOYSA-N

> <FORMULA>
C6H12N2O2

> <MOLECULAR_WEIGHT>
144.1717

> <EXACT_MASS>
144.089877638

> <JCHEM_ACCEPTOR_COUNT>
3

> <JCHEM_ATOM_COUNT>
22

> <JCHEM_AVERAGE_NEUTRAL_MICROSPECIES_CHARGE>
-0.3392885957918913

> <JCHEM_AVERAGE_POLARIZABILITY>
14.900886207288053

> <JCHEM_BIOAVAILABILITY>
1

> <JCHEM_DONOR_COUNT>
1

> <JCHEM_FORMAL_CHARGE>
0

> <JCHEM_GHOSE_FILTER>
0

> <JCHEM_IUPAC>
4-methylpiperazine-1-carboxylic acid

> <ALOGPS_LOGP>
-2.05

> <JCHEM_LOGP>
-2.90119271011015

> <ALOGPS_LOGS>
0.65

> <JCHEM_MDDR_LIKE_RULE>
0

> <JCHEM_NEUTRAL_CHARGE>
0

> <JCHEM_NUMBER_OF_RINGS>
1

> <JCHEM_PHYSIOLOGICAL_CHARGE>
0

> <JCHEM_PKA_STRONGEST_ACIDIC>
3.7722838354833277

> <JCHEM_PKA_STRONGEST_BASIC>
7.287401359857483

> <JCHEM_POLAR_SURFACE_AREA>
43.78

> <JCHEM_REFRACTIVITY>
37.1639

> <JCHEM_ROTATABLE_BOND_COUNT>
0

> <JCHEM_RULE_OF_FIVE>
1

> <ALOGPS_SOLUBILITY>
6.46e+02 g/l

> <JCHEM_TRADITIONAL_IUPAC>
tetrahydrofolic acid

> <JCHEM_VEBER_RULE>
0

> <DRUGBANK_ID>
DB04451

> <SECONDARY_ACCESSION_NUMBERS>
EXPT02419

> <DRUG_GROUPS>
experimental

> <GENERIC_NAME>
4-Methylpiperazin-1-Yl Carbonyl Group

$$$$
