 
  Mrv0541 06161316122D          
 
 36 39  0  0  1  0            999 V2000
   11.7122  -16.9826    0.0000 C   0  0  0  0  0  0  0  0  0  0  0  0
   11.7122  -17.7774    0.0000 C   0  0  0  0  0  0  0  0  0  0  0  0
   12.4233  -18.1957    0.0000 C   0  0  0  0  0  0  0  0  0  0  0  0
   13.0925  -17.7774    0.0000 C   0  0  0  0  0  0  0  0  0  0  0  0
   13.0925  -16.9826    0.0000 C   0  0  2  0  0  0  0  0  0  0  0  0
   12.4233  -16.5643    0.0000 C   0  0  0  0  0  0  0  0  0  0  0  0
   13.8036  -18.1957    0.0000 C   0  0  2  0  0  0  0  0  0  0  0  0
   14.5565  -17.7774    0.0000 C   0  0  0  0  0  0  0  0  0  0  0  0
   14.5565  -16.9826    0.0000 C   0  0  2  0  0  0  0  0  0  0  0  0
   13.8036  -16.5643    0.0000 C   0  0  2  0  0  0  0  0  0  0  0  0
   15.1840  -16.5643    0.0000 C   0  0  1  0  0  0  0  0  0  0  0  0
   15.1840  -15.7696    0.0000 C   0  0  2  0  0  0  0  0  0  0  0  0
   14.5565  -15.3513    0.0000 C   0  0  0  0  0  0  0  0  0  0  0  0
   13.8036  -15.7696    0.0000 C   0  0  2  0  0  0  0  0  0  0  0  0
   16.5643  -16.5643    0.0000 C   0  0  0  0  0  0  0  0  0  0  0  0
   16.5643  -15.7696    0.0000 C   0  0  2  0  0  0  0  0  0  0  0  0
   15.8533  -15.3513    0.0000 C   0  0  1  0  0  0  0  0  0  0  0  0
   11.0011  -18.1957    0.0000 O   0  0  0  0  0  0  0  0  0  0  0  0
   13.0925  -16.1461    0.0000 C   0  0  0  0  0  0  0  0  0  0  0  0
   13.8036  -17.3591    0.0000 F   0  0  0  0  0  0  0  0  0  0  0  0
   14.5565  -16.1461    0.0000 H   0  0  0  0  0  0  0  0  0  0  0  0
   13.0925  -15.3513    0.0000 O   0  0  0  0  0  0  0  0  0  0  0  0
   15.1840  -17.3591    0.0000 H   0  0  0  0  0  0  0  0  0  0  0  0
   15.1840  -14.9330    0.0000 C   0  0  0  0  0  0  0  0  0  0  0  0
   16.6898  -14.8075    0.0000 O   0  0  0  0  0  0  0  0  0  0  0  0
   17.4009  -15.7696    0.0000 C   0  0  0  0  0  0  0  0  0  0  0  0
   13.8036  -19.0323    0.0000 F   0  0  0  0  0  0  0  0  0  0  0  0
   15.8533  -14.5147    0.0000 C   0  0  0  0  0  0  0  0  0  0  0  0
   16.6062  -14.0964    0.0000 O   0  0  0  0  0  0  0  0  0  0  0  0
   15.1003  -14.0964    0.0000 S   0  0  0  0  0  0  0  0  0  0  0  0
   14.3892  -14.5147    0.0000 C   0  0  0  0  0  0  0  0  0  0  0  0
   13.6781  -14.0964    0.0000 F   0  0  0  0  0  0  0  0  0  0  0  0
   17.4009  -14.3892    0.0000 C   0  0  0  0  0  0  0  0  0  0  0  0
   18.1120  -14.8075    0.0000 C   0  0  0  0  0  0  0  0  0  0  0  0
   18.8231  -14.3892    0.0000 C   0  0  0  0  0  0  0  0  0  0  0  0
   17.4009  -13.5526    0.0000 O   0  0  0  0  0  0  0  0  0  0  0  0
  1  2  1  0  0  0  0
  2  3  1  0  0  0  0
  3  4  2  0  0  0  0
  4  5  1  0  0  0  0
  5  6  1  0  0  0  0
  1  6  2  0  0  0  0
  4  7  1  0  0  0  0
  7  8  1  0  0  0  0
  8  9  1  0  0  0  0
  9 10  1  0  0  0  0
  5 10  1  0  0  0  0
  9 11  1  0  0  0  0
 11 12  1  0  0  0  0
 12 13  1  0  0  0  0
 13 14  1  0  0  0  0
 10 14  1  0  0  0  0
 11 15  1  0  0  0  0
 15 16  1  0  0  0  0
 16 17  1  0  0  0  0
 12 17  1  0  0  0  0
  2 18  2  0  0  0  0
  5 19  1  1  0  0  0
 10 20  1  6  0  0  0
  9 21  1  1  0  0  0
 14 22  1  1  0  0  0
 11 23  1  6  0  0  0
 12 24  1  1  0  0  0
 17 25  1  6  0  0  0
 16 26  1  6  0  0  0
  7 27  1  6  0  0  0
 17 28  1  1  0  0  0
 28 29  2  0  0  0  0
 28 30  1  0  0  0  0
 30 31  1  0  0  0  0
 31 32  1  0  0  0  0
 33 34  1  0  0  0  0
 33 25  1  0  0  0  0
 34 35  1  0  0  0  0
 33 36  2  0  0  0  0
M  END
> <DATABASE_ID>
DB00588

> <DATABASE_NAME>
drugbank

> <SMILES>
[H][C@@]12C[C@@H](C)[C@](OC(=O)CC)(C(=O)SCF)[C@@]1(C)C[C@H](O)[C@@]1(F)[C@@]2([H])C[C@H](F)C2=CC(=O)C=C[C@]12C

> <INCHI_IDENTIFIER>
InChI=1S/C25H31F3O5S/c1-5-20(31)33-25(21(32)34-12-26)13(2)8-15-16-10-18(27)17-9-14(29)6-7-22(17,3)24(16,28)19(30)11-23(15,25)4/h6-7,9,13,15-16,18-19,30H,5,8,10-12H2,1-4H3/t13-,15+,16+,18+,19+,22+,23+,24+,25+/m1/s1

> <INCHI_KEY>
WMWTYOKRWGGJOA-CENSZEJFSA-N

> <FORMULA>
C25H31F3O5S

> <MOLECULAR_WEIGHT>
500.571

> <EXACT_MASS>
500.184429407

> <JCHEM_ACCEPTOR_COUNT>
4

> <JCHEM_ATOM_COUNT>
65

> <JCHEM_AVERAGE_NEUTRAL_MICROSPECIES_CHARGE>
-2.6327301250774323e-07

> <JCHEM_AVERAGE_POLARIZABILITY>
49.28997299145852

> <JCHEM_BIOAVAILABILITY>
1

> <JCHEM_DONOR_COUNT>
1

> <JCHEM_FORMAL_CHARGE>
0

> <JCHEM_GHOSE_FILTER>
0

> <JCHEM_IUPAC>
(1R,2R,3aS,3bS,5S,9aS,9bR,10S,11aS)-5,9b-difluoro-1-{[(fluoromethyl)sulfanyl]carbonyl}-10-hydroxy-2,9a,11a-trimethyl-7-oxo-1H,2H,3H,3aH,3bH,4H,5H,7H,9aH,9bH,10H,11H,11aH-cyclopenta[a]phenanthren-1-yl propanoate

> <ALOGPS_LOGP>
3.69

> <JCHEM_LOGP>
3.718004615666666

> <ALOGPS_LOGS>
-4.64

> <JCHEM_MDDR_LIKE_RULE>
1

> <JCHEM_NEUTRAL_CHARGE>
0

> <JCHEM_NUMBER_OF_RINGS>
4

> <JCHEM_PHYSIOLOGICAL_CHARGE>
0

> <JCHEM_PKA>
14.80471291498652

> <JCHEM_PKA_STRONGEST_ACIDIC>
13.606186903754944

> <JCHEM_PKA_STRONGEST_BASIC>
-3.393545718097036

> <JCHEM_POLAR_SURFACE_AREA>
80.67

> <JCHEM_REFRACTIVITY>
121.65029999999997

> <JCHEM_ROTATABLE_BOND_COUNT>
6

> <JCHEM_RULE_OF_FIVE>
0

> <ALOGPS_SOLUBILITY>
1.14e-02 g/l

> <JCHEM_TRADITIONAL_IUPAC>
biotin

> <JCHEM_VEBER_RULE>
0

> <DRUGBANK_ID>
DB00588

> <SECONDARY_ACCESSION_NUMBERS>
APRD00065

> <DRUG_GROUPS>
approved

> <GENERIC_NAME>
Fluticasone propionate

> <SYNONYMS>
Fluticasone propionate

> <PRODUCTS>
24 Hour Allergy Nasal; 24 Hour Allergy Relief Nasal; 24 Hour Allergy Relief nasal; 24hr Nasal Allergy Relief; Advair 100 Diskus; Advair 125; Advair 250; Advair 250 Diskus; Advair 500 Diskus; Advair Diskus; Advair HFA; Advairdiskus Diskus; Aermony Respiclick; AirDuo Digihaler; AirDuo RespiClick; Airexar Spiromax; Allergy Nasal; Allergy Relief; Allergy Relief Nasal; Allergy Relief Nasal Spray; Apo-fluticasone; Apo-fluticasone HFA; Arbesda Respiclick; ArmonAir Digihaler; ArmonAir RespiClick; Azelastine Hydrochloride and Fluticasone Propionate; Azelastine hydrochloride and Fluticasone propionate; Basic Care Allergy Relief Nasal; Basic Care Childrens Allergy Relief Nasal; Berkley and Jensen Allergy Relief; Beser; Betr Allergy Relief Nasal; Bropair Spiromax; CareOne Allergy Relief; Careone Childrens Allergy Relief; Careone Fluticasone Propionate; Caring Mill Allergy Relief Nasal; Caring Mill Childrens Allergy Relief Nasal; Cenovia; Childrens 24 Hour Allergy Relief Nasal; Childrens 24 hour allergy nasal; Childrens Allergy Nasal; Childrens Flonase Allergy Relief; Childrens Nasal; Childrens Nasopro; ClariSpray Nasal Allergy; Core Values Allergy Relief; Cutivate; DG Health Allergy Relief; DG Health Allergy Relief Nasal; DG Health childrens allergy relief nasal; Dymista; Equaline Fluticasone Propionate; Equaline fluticasone propionate; Equate Allergy Relief; Exchange Select Allergy Relief; Family Wellness Allergy Relief Nasal; Flonase; Flonase - Aem-sus Nas 50mcg/md; Flonase Aem-sus 50mcg/aem; Flonase Allergy Relief; Flonaseallergy Relief Allergy Relief; Flovent; Flovent Diskus; Flovent HFA; Flovent Inhalers - Aem Inh-orl 125mcg/aem; Flovent Inhalers - Aem Inh-orl 250mcg/aem; Flovent Inhalers - Aem Inh-orl 25mcg/aem; Flovent Inhalers - Aem Inh-orl 50mcg/aem; Flovent Inhalers-aem Inh-orl 25mcg/actuation; Flovent Inhalers-aem Inh-orl 50mcg/actuation; Flovent Inhalers-aem Inh-orl125mcg/actuation; Flovent Inhalers-aem Inh-orl250mcg/actuation; FlutiCare Nasal Alergy; Fluticasone; Fluticasone Propionate; Fluticasone Propionate 0.05% / Niacinamide 4%; Fluticasone Propionate HFA; Fluticasone Propionate Nasal; Fluticasone Propionate and Salmeterol; Fluticasone Propionate and Salmeterol DISKUS; Fluticasone propionate; Fluticasone propionate glucocorticoid; Good Neighbor Pharmacy Childrens Fluticasone Propionate; Good Neighbor Pharmacy Fluticasone Propionate; Good Sense 24 hour allergy nasal; Good Sense Nasoflow; Harris Teeter Allergy Relief Nasal; Health Mart Allergy Relief Nasal 24 Hr; Healthy Accents Allergy Relief; Healthy Accents Nasoflow; Kirkland Signature Aller Flo; Leader Allergy Relief Nasal; Mylan-azelastine/fluticasone; Nasal; Nasoflow; Nasopro 24; Nu-fluticasone; PMS-fluticasone; PMS-fluticasone HFA; PMS-fluticasone Propionate/salmeterol Dpi; Picnic Allergy Symptom Reliever Nasal; Ratio-fluticasone; Rugby Fluticasone Propionate Nasal; Seffalair Spiromax; ShopRite Allergy Relief Nasal; Signature Care Allergy Relief; Signature Care Childrens Allergy Relief; Smart Sense Allergy Relief; Sound Body Allergy Relief; SunMark allergy relief nasal 24 hr; Teva-fluticasone; Ticalast; Ticanase; Ticaspray; TopCare Childrens Allergy Relief Nasal 24 Hour; TopCare Nasoflow Allergy Relief; Topcare Fluticasone Propionate Nasal; Up and Up Allergy Relief Nasal; Up and Up allergy relief nasal; Validerm; Welby Allergy Relief; Welby Fluticasone; Wixela Inhub; Xhance

> <INTERNATIONAL_BRANDS>
Ezicas; Flixonase; Flixotide; FLOVENTHFA; Flunase; Nasofan; Pirinase; Seretide

$$$$
