
  Mrv0541 02231216122D          

 11 10  0  0  1  0            999 V2000
    4.6184    2.6664    0.0000 N   0  0  0  0  0  0  0  0  0  0  0  0
    4.6184    1.8414    0.0000 C   0  0  1  0  0  0  0  0  0  0  0  0
    3.9039    1.4289    0.0000 C   0  0  0  0  0  0  0  0  0  0  0  0
    3.1895    1.8414    0.0000 C   0  0  0  0  0  0  0  0  0  0  0  0
    2.4750    1.4289    0.0000 C   0  0  0  0  0  0  0  0  0  0  0  0
    2.4750    0.6039    0.0000 O   0  0  0  0  0  0  0  0  0  0  0  0
    1.7605    1.8414    0.0000 N   0  0  0  0  0  0  0  0  0  0  0  0
    1.0461    1.4289    0.0000 O   0  0  0  0  0  0  0  0  0  0  0  0
    5.3329    1.4289    0.0000 C   0  0  0  0  0  0  0  0  0  0  0  0
    6.0474    1.8414    0.0000 O   0  0  0  0  0  0  0  0  0  0  0  0
    5.3329    0.6039    0.0000 O   0  0  0  0  0  0  0  0  0  0  0  0
  2  1  1  6  0  0  0
  2  3  1  0  0  0  0
  3  4  1  0  0  0  0
  4  5  1  0  0  0  0
  5  6  2  0  0  0  0
  5  7  1  0  0  0  0
  7  8  1  0  0  0  0
  2  9  1  0  0  0  0
  9 10  1  0  0  0  0
  9 11  2  0  0  0  0
M  END
> <DATABASE_ID>
DB02446

> <DATABASE_NAME>
drugbank

> <SMILES>
N[C@@H](CCC(=O)NO)C(O)=O

> <INCHI_IDENTIFIER>
InChI=1S/C5H10N2O4/c6-3(5(9)10)1-2-4(8)7-11/h3,11H,1-2,6H2,(H,7,8)(H,9,10)/t3-/m0/s1

> <INCHI_KEY>
YVGZXTQJQNXIAU-VKHMYHEASA-N

> <FORMULA>
C5H10N2O4

> <MOLECULAR_WEIGHT>
162.1439

> <EXACT_MASS>
162.064056818

> <JCHEM_ACCEPTOR_COUNT>
5

> <JCHEM_ATOM_COUNT>
21

> <JCHEM_AVERAGE_NEUTRAL_MICROSPECIES_CHARGE>
-0.020812063544439208

> <JCHEM_AVERAGE_POLARIZABILITY>
14.789222581848904

> <JCHEM_BIOAVAILABILITY>
1

> <JCHEM_DONOR_COUNT>
4

> <JCHEM_FORMAL_CHARGE>
0

> <JCHEM_GHOSE_FILTER>
0

> <JCHEM_IUPAC>
(2S)-2-amino-4-(hydroxycarbamoyl)butanoic acid

> <ALOGPS_LOGP>
-3.05

> <JCHEM_LOGP>
-4.004643457446121

> <ALOGPS_LOGS>
-0.47

> <JCHEM_MDDR_LIKE_RULE>
0

> <JCHEM_NEUTRAL_CHARGE>
0

> <JCHEM_NUMBER_OF_RINGS>
0

> <JCHEM_PHYSIOLOGICAL_CHARGE>
0

> <JCHEM_PKA>
8.761362346546665

> <JCHEM_PKA_STRONGEST_ACIDIC>
1.9268305173442988

> <JCHEM_PKA_STRONGEST_BASIC>
9.457790967235168

> <JCHEM_POLAR_SURFACE_AREA>
112.65

> <JCHEM_REFRACTIVITY>
34.874500000000005

> <JCHEM_ROTATABLE_BOND_COUNT>
4

> <JCHEM_RULE_OF_FIVE>
1

> <ALOGPS_SOLUBILITY>
5.50e+01 g/l

> <JCHEM_TRADITIONAL_IUPAC>
biotin

> <JCHEM_VEBER_RULE>
0

> <DRUGBANK_ID>
DB02446

> <SECONDARY_ACCESSION_NUMBERS>
EXPT01737

> <DRUG_GROUPS>
experimental

> <GENERIC_NAME>
Glutamine hydroxamate

> <SYNONYMS>
gamma-Glutamyl hydroxamate; Glutamate-gamma-hydroxamate; Glutamate-gamma-hydroxamic acid; Glutamic acid gamma-monohydroxamate; Glutamyl-gamma-hydroxamate; L-gamma-Glutamyl hydroxamate; L-glutamic acid Î³-hydroxamic acid

$$$$
