
  Mrv0541 02231219222D          

  1  0  0  0  0  0            999 V2000
   25.6983  -15.0132    0.0000 O   0  0  0  0  0  0  0  0  0  0  0  0
M  END
> <DATABASE_ID>
DB09145

> <DATABASE_NAME>
drugbank

> <SMILES>
O

> <INCHI_IDENTIFIER>
InChI=1S/H2O/h1H2

> <INCHI_KEY>
XLYOFNOQVPJJNP-UHFFFAOYSA-N

> <FORMULA>
H2O

> <MOLECULAR_WEIGHT>
18.0153

> <EXACT_MASS>
18.010564686

> <JCHEM_ACCEPTOR_COUNT>
1

> <JCHEM_ATOM_COUNT>
3

> <JCHEM_AVERAGE_NEUTRAL_MICROSPECIES_CHARGE>
-4.1036912103859217e-10

> <JCHEM_AVERAGE_POLARIZABILITY>
1.5082203897359623

> <JCHEM_BIOAVAILABILITY>
1

> <JCHEM_DONOR_COUNT>
1

> <JCHEM_FORMAL_CHARGE>
0

> <JCHEM_GHOSE_FILTER>
0

> <JCHEM_IUPAC>
water

> <JCHEM_LOGP>
-0.6519999999999999

> <JCHEM_MDDR_LIKE_RULE>
0

> <JCHEM_NEUTRAL_CHARGE>
0

> <JCHEM_NUMBER_OF_RINGS>
0

> <JCHEM_PHYSIOLOGICAL_CHARGE>
0

> <JCHEM_PKA_STRONGEST_ACIDIC>
15.699999999999998

> <JCHEM_PKA_STRONGEST_BASIC>
-1.8000000000000003

> <JCHEM_POLAR_SURFACE_AREA>
25.3

> <JCHEM_REFRACTIVITY>
3.7

> <JCHEM_ROTATABLE_BOND_COUNT>
0

> <JCHEM_RULE_OF_FIVE>
1

> <JCHEM_TRADITIONAL_IUPAC>
tetrahydrofolic acid

> <JCHEM_VEBER_RULE>
1

> <DRUGBANK_ID>
DB09145

> <DRUG_GROUPS>
approved

> <GENERIC_NAME>
Water

> <SYNONYMS>
agua; Dihydrogen oxide; Purified water; Sterile water; Water purified

> <PRODUCTS>
10 Person ANSI; 25 Person ANSI; 37.4; 4017 First Aid Kit; 4022 First Aid Kit; 4023 First Aid Kit; 4025 First Aid Kit; 4026 First Aid Kit; 4027 First Aid Kit; 4028 First Aid Kit; 4029 First Aid Kit; 4030 First Aid Kit; 4031 First Aid Kit; 4032 First Aid Kit; 4039 First Aid Kit; 4040 First Aid Kit; 4041 First Aid Kit; 4056 First Aid Kit; 4058 First Aid Kit; 4059 First Aid Kit; 4060 First Aid Kit; 4061 First Aid Kit; 4062 First Aid Kit; 4063 First Aid Kit; 4068 First Aid Kit; 4069 First Aid Kit; 4074 First Aid Kit; 4076 First Aid Kit; 4081 First Aid Kit; 4082 First Aid Kit; 4083 First Aid Kit; 4084 First Aid Kit; 4085 First Aid Kit; 4086 First Aid Kit; 4087 First Aid Kit; 4088 First Aid Kit; 4089 First Aid Kit; 4090 First Aid Kit; 4112 First Aid Kit; 4113 First Aid Kit; 4114 First Aid Kit; 4115 First Aid Kit; 4116 First Aid Kit; 4117 First Aid Kit; 4118 First Aid Kit; 4121 First Aid Kit; 4125 First Aid Kit; 4130 First Aid Kit; 4132 First Aid Kit; 4133 First Aid Kit; 4134 First Aid Kit; 4135 First Aid Kit; 4136 First Aid Kit; 4137 First Aid Kit; 4138 First Aid Kit; 4140 First Aid Kit; 4141 First Aid Kit; 4142 First Aid Kit; 4143 First Aid Kit; 4144 First Aid Kit; 4148 First Aid Kit; 4149 First Aid Kit; 4151 First Aid Kit; 4155 First Aid Kit; 4157 First Aid Kit; 4159 First Aid Kit; 4162 First Aid Kit; 4165 First Aid Kit; 4166 First Aid Kit; 4167 First Aid Kit; 4168 First Aid Kit; 4169 First Aid Kit; 4171 First Aid Kit; 4172 First Aid Kit; 4173 First Aid Kit; 4184 First Aid Kit; 4187 First Aid Kit; 4189 First Aid Kit; 4190 First Aid Kit; 4191 First Aid Kit; 4193 First Aid Kit; 4194 First Aid Kit; 4195 First Aid Kit; 4196 First Aid Kit; 4197 First Aid Kit; 4198 First Aid Kit; 4199 First Aid Kit; 4200 First Aid Kit; 4201 First Aid Kit; 4202 First Aid Kit; 4203 First Aid Kit; 4204 First Aid Kit; 4205 First Aid Kit; 4206 First Aid Kit; 4207 First Aid Kit; 4208 First Aid Kit; 4209 First Aid Kit; 4210 First Aid Kit; 4211 First Aid Kit; 4212 First Aid Kit; 4214 First Aid Kit; 4215 First Aid Kit; 4216 First Aid Kit; 4217 First Aid Kit; 4218 First Aid Kit; 4219 First Aid Kit; 4220 First Aid Kit; 4221 First Aid Kit; 4222 First Aid Kit; 4224 First Aid Kit; 4226 First Aid Kit; 4230 First Aid Kit; 4231First Aid Kit; 4232 First Aid Kit; 4235 First Aid Kit; 4238 First Aid Kit; 4239 First Aid Kit; 4240 First Aid Kit; 4241 First Aid Kit; 4242 First Aid Kit; 4243 First Aid Kit; 4246 First Aid Kit; 4247 First Aid Kit; 4248 First Aid Kit; 4249 First Aid Kit; 4252 First Aid Kit; 4253 First Aid Kit; 4254 First Aid Kit; 4255 First Aid Kit; 4256 First Aid Kit; 4257 First Aid Kit; 4258 First Aid Kit; 4259 First Aid Kit; 4260 First Aid Kit; 4261 First Aid Kit; 4263 First Aid Kit; 4264 First Aid Kit; 4265 First Aid Kit; 4266 First Aid Kit; 4267 First Aid Kit; 4271 First Aid Kit; 4272 First Aid Kit; 4273 First Aid Kit; 4278 First Aid Kit; 4279 First Aid Kit; 4281 First Aid Kit; 4282 First Aid Kit; 4283 First Aid Kit; 4284 First Aid Kit; 4285 First Aid Kit; 4286 First Aid Kit; 4287 First Aid Kit; 4288 First Aid Kit; 4289 First Aid Kit; 4290 First Aid Kit; 4291 First Aid Kit; 4293 First Aid Kit; 4294 First Aid Kit; 4298 First Aid Kit; 4300 First Aid Kit; 4301 First Aid Kit; 4302 First Aid Kit; 4303 First Aid Kit; 4304 First Aid Kit; 4305 First Aid Kit; 4306 First Aid Kit; 4307 First Aid Kit; 4308 First Aid Kit; 4310 First Aid Kit; 4311 First Aid Kit; 4312 First Aid Kit; 4314 First Aid Kit; 4315 First Aid Kit; 4316 First Aid Kit; 4317 First Aid Kit; 4318 First Aid Kit; 4319 First Aid Kit; 4320 First Aid Kit; 4322 First Aid Kit; 4323 First Aid Kit; 4324 First Aid Kit; 4325 First Aid Kit; 4326 First Aid Kit; 4327 First Aid Kit; 4328 First Aid Kit; 4329 First Aid Kit; 4331 First Aid Kit; 4332 First Aid Kit; 4333 First Aid Kit; 4335 First Aid Kit; 4336 First Aid Kit; 4337 First Aid Kit; 4338 First Aid Kit; 4339 First Aid Kit; 4340 First Aid Kit; 4344 First Aid Kit; 4345 First Aid Kit; 4346 First Aid Kit; 4349 First Aid Kit; 4352 First Aid Kit; 4353 First Aid Kit; 4354 First Aid Kit; 4355 First Aid Kit; 4356 First Aid Kit; 4357 First Aid Kit; 4358 First Aid Kit; 4359 First Aid Kit; 4360 First Aid Kit; 4362 First Aid Kit; 4363 First Aid Kit; 4365 First Aid Kit; 4366 First Aid Kit; 4367 First Aid Kit; 4368 First Aid Kit; 4369 First Aid Kit; 4371 First Aid Kit; 4372 First Aid Kit; 4373 First Aid Kit; 4374 First Aid Kit; 4380 First Aid Kit; 4381 First Aid Kit; 4382 First Aid Kit; 4383 First Aid Kit; 4384 First Aid Kit; 4385 First Aid Kit; 4386 First Aid Kit; 4388 First Aid Kit; 4389 First Aid Kit; 4390 First Aid Kit; 4392 First Aid Kit; 4393 First Aid Kit; 4397 First Aid Kit; 4398 First Aid Kit; 4399 First Aid Kit; 4400 First Aid Kit; 50 Person ANSI; A-Med; A-Med brand First Aid Eye and Skin-Rinse; A.P.L. - Pws-liq; ACME FIRST AID Contains 404 PIECES; ARC Emergency Preparedness FIRST AID Contains 202 PIECES; ARC FIRST AID Contains 1000 PIECES; ARC FIRST AID Contains 101 PIECES; ARC FIRST AID Contains 101 PIECES Hardcase; ARC FIRST AID Contains 303 PIECES; ARC FIRST AID Contains 303 PIECES HARDCASE; ARC FIRST AID Contains 404 PIECES; ARC FIRST AID Emergency Preparedness Contains 167 PIECES; Activase RT-PA; Advanced Eye Relief Eye Wash; AeroWash Eyewash; Aerowash Eyewash and Skin-Rinse; Airlife Sterile Water for Inhalation USP; AlphaNine SD; Alphanate; Antithrombin III Immuno; Antivenin; AnubisMed; Avonex; BLUE ACME SLEEVE FIRST AID Contains 1000 PIECES; Bacteriostatic Water; Bacteriostatic Water for Injection USP; Bacteriostatic Water for Injection USP-pre-filled Syringe; Bebulin Vh Inj 1000unit/vial; Benefix - (250iu); Benefix - (500iu); Benefix -(1000iu); Boraqua Eye Wash; Bouton Eye Wash; Buffered Eye-Lert; CEDERROTH Emergency Eye Wash; CVS Eyewash; Caverject Sterile Powder - Kit 11.9mcg /vial; Cica Fucoidan; Coachs First Aid Contains 102 Pieces; Collyrium for Fresh Eyes - Eye Wash; Crane Safety Eye Wash; Diluent; Diluting Medium for Insulin Zinc Injectable Suspension; Diluting Medium for Isophane Insulin Injection; Diluting Medium for Soluble Insulin Injection; Dorama-Neo; Dynamic Eyewash; Dynamic Eyewash with Eyecup; Dyural 40 Kit; Dyural 80 Kit; ECOLAB Eye Wash; Easy Care First Aid Eyewash; Egrifta; Emergency Eye Wash, PW, Sterile Ster-Aide; Emergency First Aid Eyewash Purified Water; Enbrel; ExEm Foam; EyS Eye Wash; Eye Clean; Eye Irrigating; Eye Stream; Eye Wash; Eye Wash Saline; Eye wash; EyeWash; Eyes Alive Eye Wash; Eyesaline Concentrate; Eyesaline Emergency Eyewash; Eyesaline Emergency Eyewash Concentrate; Eyewash; Eyewash Additive Concentrate; Eyewash Flushing Solution; FAK Large Office First Aid kit; FIRST AID Contains 1000 PIECES; FIRST AID Contains 101 PIECES; FIRST AID Contains 101 PIECES HARDCASE; FIRST AID Contains 202 PIECES; FIRST AID Contains 303 PIECES; FIRST AID Contains 303 PIECES HARDCASE; FIRST AID Contains 404 PIECES; Family Care Eye Wash; Fendall 2000 Pure Flow; Fendall Pure Flow; First Aid Direct Buffered Eyewash Sterile Isotonic; First Aid Eye Wash; Firstep Firstflush; Follistim; Fresh Aqua; Fuzeon; GENUINE FIRST AID Emergency Preparedness Contains 167 PIECES HARDCASE; GENUINE FIRST AID Emergency Preparedness Contains 167 Pieces; GFA First Aid 75 Person Metal Case; GOOD NEIGHBOR PHARMACY FIRST AID Contains 202 PIECES; Glucagon; Good Neighbor Pharmacy Emergency Preparedness and First Aid Contains 167 Pieces; Green Guard First Aid Eye Wash; Guardian Angel; Haws Eyewash Additive; Haws Personal Emergency Eyewash - DUO Saline; Haws Personal Emergency Eyewash - DUO pH Neutral; Hiberix; Honeywell Sterile Eyesaline Emergency Eyewash; Icg; Indocyanine Green; Industrial Neutral-eyes; Instillation Medium for Immucyst; Insulin Diluting Medium for NovoLog; Intron A; Intron A - Kit (pws+diluent) 3000000iu/vial; Intron A - Kit (pws+diluent) 5000000iu/vial; Iveegam Immuno 5000mg (iv); K-Mart SmartSense First Aid Contains 101 Pieces; K-Mart SmartSense First Aid Contains 303 Pieces; Kit Breakroom Office First Aid; Kit Large Office First Aid; Koate; Kollourion Eyesalve Eyewash; Large ANSI First Aid Kit; Leader Eye Wash; Lysatec RT - Pa; Major Eye Wash; Measles Virus Vaccine, Live, Attenuated (dried); Medi-First Eyewash; Medi-First First Aid Eye Wash; Medi-First Plus First Aid Eye Wash; Medium Cuts and Scratches; Methylprednisolone Sodium Succinate for Injection, USP; Monoclate-P - 200-350iu/vial; Monoclate-P - 400-700iu/vial; Monoclate-P - 800-1500iu/vial; Moru-viraten Berna Vaccine; Neutral-Eyes; North Safety First Aid Kit 685533T13; Nutropin - Kit Pws(10mg) & Liq(10ml) Im Sc; Nutropin - Kit Pws(5mg) & Liq(10ml) Im Sc; Nuwiq; OcuFresh; Ocuflush; Ocufresh; Ogivri; Omnitrope; Ori-power; PINPOINT Lymphatics Kit; Ph 12 Sterile Diluent for Flolan; Physicians Care Eye Wash Sterile Buffered Isotonic; PhysiciansCare Eye Wash; PhysiciansCare Ophthalmic Solution Eyewash; PhysiciansCare Ophthalmic Solution Eyewash Purified Water, 98.3%; Plum Duo Emergency Eyewash; Plum Duo Emergency Eyewash pH Neutralizing; Plum Emergency Eyewash; Plum Emergency Eyewash pH Neutralizing; Plum Emergency Eyewash/Eyewash DUO/Eyewash Shower ISS USA; Plum pH Neutral Emergency Eyewash/Emergency Eyewash DUO/Emergency Eyewash Shower ISS USA; Plus Rinse Emergency; Plus Rinse Emergency Eyewash; Profasi Hp 10000; Profilnine; Prolastin-C; Protropin - Kit Im Sc 10mg/vial; Protropin - Kit Im Sc 5mg/vial; Protropin Inj Pws 10mg/vial; Protropin Pws 5mg/vial; Pur-Wash; Pur-wash; Purified Water; Quality Choice Eye Wash; RapidCare Sterile Eyewash; Real Eyewash; Redicare Emergency First Aid Eyewash; Redu mineral; Refill 6; Refill Bundle 8 Large Office; Rexall Sterile Eye Wash; Rugby Eye Irrigating; Rugby Eye Wash; SL Eye Wash with Preservative; SOLNARA Everything Blood circulation Nattokinase(Control blood pressure and Improve blood circulation); SPY Elite Kit; SPY Lymphatics Kit; SPY-MIS Kit; SPY-PHI Kit; Salinaax Emergency Eye and Skin Wash; Salinaax Eye Wash; Salinaax Eye Wash and Skin Flush; Scienceware Eyewash; Serostim; Sperian Eyesaline Emergency Eyewash; Sperian Eyesaline Eyewash; Sperian Water Additive Concentrate; Standard ANSI First Aid; Stemgen; Steril-Eyes Eyewash; Sterile Diluent; Sterile Diluent for Flolan Injection; Sterile Diluent for Merck Sharp & Dohme Corp. Live Attenuated Virus Vaccines; Sterile Diluent for Remodulin; Sterile Isotonic Buffered Genuine Eyewash; Sterile Saline Eyewash; Sterile Water; Sterile Water for INHALATION; Sterile Water for Inhalation; Sterile Water for Inhalation U.S.P.; Sterile Water for Inhalation USP; Sterile Water for Inhalation USP 3ml; Sterile Water for Injection; Sterile Water for Injection 100% USP; Sterile Water for Injection USP; Sterile Water for Injection, U.S.P.; Sterile Water for Injection, USP; Sterile Water for Irrigation USP; Sterile Water for Irrigation, USP; Sterilised Water for Injections; Sterilized Water for Injections Ph. Eur.; Thrombate III; Varilrix; Vege Aqua; Vista MEIBO Eyelid Cleansing Foam; Vista Meibo Eyelid Cleansing Wipes; Walgreens Sterile Soothing Eye Wash; Water Additive; Water for Injection; Water for Injection BP; Xpect Buffered Eyewash Sterile Isotonic; Xpect First aid Buffered Eye and Skin; Xpect First aid Buffered Eyewash; Yumaki Original Mint Tooth; fad first aid direct Buffered Eye and Skin; fad first aid direct Eyewash; theSafetyDirector aquapreserv

$$$$
