
  Mrv0541 02231217362D          

 12 11  0  0  0  0            999 V2000
    0.8250    1.4289    0.0000 O   0  0  0  0  0  0  0  0  0  0  0  0
    1.2375    0.7145    0.0000 C   0  0  0  0  0  0  0  0  0  0  0  0
    2.0625    0.7145    0.0000 O   0  0  0  0  0  0  0  0  0  0  0  0
    0.8250    0.0000    0.0000 C   0  0  0  0  0  0  0  0  0  0  0  0
    1.2375   -0.7145    0.0000 C   0  0  0  0  0  0  0  0  0  0  0  0
    2.0625   -0.7145    0.0000 P   0  0  0  0  0  0  0  0  0  0  0  0
    2.8875   -0.7145    0.0000 O   0  0  0  0  0  0  0  0  0  0  0  0
    2.0625   -1.5395    0.0000 O   0  0  0  0  0  0  0  0  0  0  0  0
    2.0625    0.1105    0.0000 O   0  0  0  0  0  0  0  0  0  0  0  0
    0.0000    0.0000    0.0000 C   0  0  0  0  0  0  0  0  0  0  0  0
   -0.4125    0.7145    0.0000 Cl  0  0  0  0  0  0  0  0  0  0  0  0
   -0.4125   -0.7145    0.0000 Cl  0  0  0  0  0  0  0  0  0  0  0  0
  1  2  1  0  0  0  0
  2  3  2  0  0  0  0
  2  4  1  0  0  0  0
  4  5  1  0  0  0  0
  5  6  1  0  0  0  0
  6  7  1  0  0  0  0
  6  8  1  0  0  0  0
  6  9  2  0  0  0  0
  4 10  2  0  0  0  0
 10 11  1  0  0  0  0
 10 12  1  0  0  0  0
M  END
> <DATABASE_ID>
DB04317

> <DATABASE_NAME>
drugbank

> <SMILES>
OC(=O)C(CP(O)(O)=O)=C(Cl)Cl

> <INCHI_IDENTIFIER>
InChI=1S/C4H5Cl2O5P/c5-3(6)2(4(7)8)1-12(9,10)11/h1H2,(H,7,8)(H2,9,10,11)

> <INCHI_KEY>
IBGSKYLUHGAGLB-UHFFFAOYSA-N

> <FORMULA>
C4H5Cl2O5P

> <MOLECULAR_WEIGHT>
234.959

> <EXACT_MASS>
233.925165196

> <JCHEM_ACCEPTOR_COUNT>
5

> <JCHEM_ATOM_COUNT>
17

> <JCHEM_AVERAGE_NEUTRAL_MICROSPECIES_CHARGE>
-2.1038555578297014

> <JCHEM_AVERAGE_POLARIZABILITY>
16.73058233399685

> <JCHEM_BIOAVAILABILITY>
1

> <JCHEM_DONOR_COUNT>
3

> <JCHEM_FORMAL_CHARGE>
0

> <JCHEM_GHOSE_FILTER>
0

> <JCHEM_IUPAC>
3,3-dichloro-2-(phosphonomethyl)prop-2-enoic acid

> <ALOGPS_LOGP>
-0.53

> <JCHEM_LOGP>
-0.20893859633333323

> <ALOGPS_LOGS>
-1.64

> <JCHEM_MDDR_LIKE_RULE>
0

> <JCHEM_NEUTRAL_CHARGE>
-2

> <JCHEM_NUMBER_OF_RINGS>
0

> <JCHEM_PHYSIOLOGICAL_CHARGE>
-2

> <JCHEM_PKA>
3.182206541509301

> <JCHEM_PKA_STRONGEST_ACIDIC>
1.7074533937152434

> <JCHEM_POLAR_SURFACE_AREA>
94.83000000000001

> <JCHEM_REFRACTIVITY>
52.863299999999995

> <JCHEM_ROTATABLE_BOND_COUNT>
3

> <JCHEM_RULE_OF_FIVE>
1

> <ALOGPS_SOLUBILITY>
5.36e+00 g/l

> <JCHEM_TRADITIONAL_IUPAC>
biotin

> <JCHEM_VEBER_RULE>
0

> <DRUGBANK_ID>
DB04317

> <SECONDARY_ACCESSION_NUMBERS>
EXPT01136

> <DRUG_GROUPS>
experimental

> <GENERIC_NAME>
3,3-Dichloro-2-Phosphonomethyl-Acrylic Acid

$$$$
