
  Mrv0541 05041402522D          

 16 15  0  0  1  0            999 V2000
    0.5230    1.1270    0.0000 C   0  0  0  0  0  0  0  0  0  0  0  0
    4.0954    0.7145    0.0000 C   0  0  0  0  0  0  0  0  0  0  0  0
    1.2375    0.7145    0.0000 C   0  0  2  0  0  0  0  0  0  0  0  0
    3.3809    1.1270    0.0000 C   0  0  2  0  0  0  0  0  0  0  0  0
    1.9520    1.1270    0.0000 C   0  0  2  0  0  0  0  0  0  0  0  0
    2.6664    0.7145    0.0000 C   0  0  2  0  0  0  0  0  0  0  0  0
   -0.1914    0.7145    0.0000 O   0  0  0  0  0  0  0  0  0  0  0  0
    4.8099    1.1270    0.0000 O   0  0  0  0  0  0  0  0  0  0  0  0
    1.2375   -0.1105    0.0000 O   0  0  0  0  0  0  0  0  0  0  0  0
    3.3809    1.9520    0.0000 O   0  0  0  0  0  0  0  0  0  0  0  0
    1.9520    1.9520    0.0000 O   0  0  0  0  0  0  0  0  0  0  0  0
    2.6664   -0.1105    0.0000 O   0  0  0  0  0  0  0  0  0  0  0  0
    1.2375    1.5395    0.0000 H   0  0  0  0  0  0  0  0  0  0  0  0
    3.3809    0.3020    0.0000 H   0  0  0  0  0  0  0  0  0  0  0  0
    1.9520    0.3020    0.0000 H   0  0  0  0  0  0  0  0  0  0  0  0
    2.6664    1.5395    0.0000 H   0  0  0  0  0  0  0  0  0  0  0  0
  3  1  1  0  0  0  0
  4  2  1  0  0  0  0
  5  3  1  0  0  0  0
  6  4  1  0  0  0  0
  6  5  1  0  0  0  0
  7  1  2  0  0  0  0
  8  2  1  0  0  0  0
  3  9  1  1  0  0  0
  4 10  1  1  0  0  0
  5 11  1  6  0  0  0
  6 12  1  6  0  0  0
  3 13  1  1  0  0  0
  4 14  1  1  0  0  0
  5 15  1  6  0  0  0
  6 16  1  6  0  0  0
M  END
> <DATABASE_ID>
DB12907

> <DATABASE_NAME>
drugbank

> <SMILES>
[H][C@@](O)(CO)[C@@]([H])(O)[C@]([H])(O)[C@]([H])(O)C=O

> <INCHI_IDENTIFIER>
InChI=1S/C6H12O6/c7-1-3(9)5(11)6(12)4(10)2-8/h1,3-6,8-12H,2H2/t3-,4-,5-,6-/m1/s1

> <INCHI_KEY>
GZCGUPFRVQAUEE-KVTDHHQDSA-N

> <FORMULA>
C6H12O6

> <MOLECULAR_WEIGHT>
180.1559

> <EXACT_MASS>
180.063388116

> <JCHEM_ACCEPTOR_COUNT>
6

> <JCHEM_ATOM_COUNT>
24

> <JCHEM_AVERAGE_NEUTRAL_MICROSPECIES_CHARGE>
-6.891872737735616e-06

> <JCHEM_AVERAGE_POLARIZABILITY>
16.235839215134067

> <JCHEM_BIOAVAILABILITY>
1

> <JCHEM_DONOR_COUNT>
5

> <JCHEM_FORMAL_CHARGE>
0

> <JCHEM_GHOSE_FILTER>
0

> <JCHEM_IUPAC>
(2S,3S,4R,5R)-2,3,4,5,6-pentahydroxyhexanal

> <ALOGPS_LOGP>
-2.41

> <JCHEM_LOGP>
-3.5683605629999993

> <ALOGPS_LOGS>
0.16

> <JCHEM_MDDR_LIKE_RULE>
0

> <JCHEM_NEUTRAL_CHARGE>
0

> <JCHEM_NUMBER_OF_RINGS>
0

> <JCHEM_PHYSIOLOGICAL_CHARGE>
0

> <JCHEM_PKA>
13.072469985141604

> <JCHEM_PKA_STRONGEST_ACIDIC>
12.261226271016959

> <JCHEM_PKA_STRONGEST_BASIC>
-2.974219876255926

> <JCHEM_POLAR_SURFACE_AREA>
118.22000000000001

> <JCHEM_REFRACTIVITY>
37.3456

> <JCHEM_ROTATABLE_BOND_COUNT>
5

> <JCHEM_RULE_OF_FIVE>
1

> <ALOGPS_SOLUBILITY>
2.61e+02 g/l

> <JCHEM_TRADITIONAL_IUPAC>
tetrahydrofolic acid

> <JCHEM_VEBER_RULE>
0

> <DRUGBANK_ID>
DB12907

> <DRUG_GROUPS>
investigational

> <GENERIC_NAME>
Mannose

> <SYNONYMS>
D-mannose

$$$$
