
  Mrv0541 05041403292D          

 60 59  0  0  1  0            999 V2000
   21.3828    4.1546    0.0000 C   0  0  0  0  0  0  0  0  0  0  0  0
    0.6632   -5.3329    0.0000 C   0  0  0  0  0  0  0  0  0  0  0  0
   21.3828    3.3296    0.0000 C   0  0  0  0  0  0  0  0  0  0  0  0
    1.3776   -5.7454    0.0000 C   0  0  0  0  0  0  0  0  0  0  0  0
   20.6684    2.9171    0.0000 C   0  0  0  0  0  0  0  0  0  0  0  0
    2.0921   -5.3329    0.0000 C   0  0  0  0  0  0  0  0  0  0  0  0
   20.6684    2.0921    0.0000 C   0  0  0  0  0  0  0  0  0  0  0  0
    2.0921   -4.5079    0.0000 C   0  0  0  0  0  0  0  0  0  0  0  0
   19.9539    1.6796    0.0000 C   0  0  0  0  0  0  0  0  0  0  0  0
    2.8066   -4.0954    0.0000 C   0  0  0  0  0  0  0  0  0  0  0  0
   19.9539    0.8546    0.0000 C   0  0  0  0  0  0  0  0  0  0  0  0
    2.8066   -3.2704    0.0000 C   0  0  0  0  0  0  0  0  0  0  0  0
   19.2394    0.4421    0.0000 C   0  0  0  0  0  0  0  0  0  0  0  0
    3.5211   -2.8579    0.0000 C   0  0  0  0  0  0  0  0  0  0  0  0
   19.2394   -0.3829    0.0000 C   0  0  0  0  0  0  0  0  0  0  0  0
    4.2355   -3.2704    0.0000 C   0  0  0  0  0  0  0  0  0  0  0  0
   18.5249   -0.7954    0.0000 C   0  0  0  0  0  0  0  0  0  0  0  0
   18.5249   -1.6204    0.0000 C   0  0  0  0  0  0  0  0  0  0  0  0
    4.9500   -2.8579    0.0000 C   0  0  0  0  0  0  0  0  0  0  0  0
   17.8105   -2.0329    0.0000 C   0  0  0  0  0  0  0  0  0  0  0  0
   17.8105   -2.8579    0.0000 C   0  0  0  0  0  0  0  0  0  0  0  0
    5.6645   -3.2704    0.0000 C   0  0  0  0  0  0  0  0  0  0  0  0
   17.0960   -3.2704    0.0000 C   0  0  0  0  0  0  0  0  0  0  0  0
    6.3789   -2.8579    0.0000 C   0  0  0  0  0  0  0  0  0  0  0  0
   16.3815   -2.8579    0.0000 C   0  0  0  0  0  0  0  0  0  0  0  0
    7.0934   -3.2704    0.0000 C   0  0  0  0  0  0  0  0  0  0  0  0
   15.6671   -3.2704    0.0000 C   0  0  0  0  0  0  0  0  0  0  0  0
    7.8079   -2.8579    0.0000 C   0  0  0  0  0  0  0  0  0  0  0  0
   14.9526   -2.8579    0.0000 C   0  0  0  0  0  0  0  0  0  0  0  0
    8.5224   -3.2704    0.0000 C   0  0  0  0  0  0  0  0  0  0  0  0
   14.2381   -3.2704    0.0000 C   0  0  0  0  0  0  0  0  0  0  0  0
    9.2368   -2.8579    0.0000 C   0  0  0  0  0  0  0  0  0  0  0  0
   12.7283   -6.0474    0.0000 C   0  0  0  0  0  0  0  0  0  0  0  0
   11.9033   -6.0474    0.0000 C   0  0  0  0  0  0  0  0  0  0  0  0
   12.0947   -2.8579    0.0000 C   0  0  0  0  0  0  0  0  0  0  0  0
   11.3802   -4.0954    0.0000 C   0  0  0  0  0  0  0  0  0  0  0  0
   11.3802   -3.2704    0.0000 C   0  0  2  0  0  0  0  0  0  0  0  0
   13.5237   -2.8579    0.0000 C   0  0  0  0  0  0  0  0  0  0  0  0
    9.9513   -3.2704    0.0000 C   0  0  0  0  0  0  0  0  0  0  0  0
   13.1408   -6.7618    0.0000 N   0  0  0  0  0  0  0  0  0  0  0  0
   13.5237   -2.0329    0.0000 O   0  0  0  0  0  0  0  0  0  0  0  0
    9.9513   -4.0954    0.0000 O   0  0  0  0  0  0  0  0  0  0  0  0
    9.8408   -5.3329    0.0000 O   0  0  0  0  0  0  0  0  0  0  0  0
   10.6658   -6.1579    0.0000 O   0  0  0  0  0  0  0  0  0  0  0  0
   12.8092   -3.2704    0.0000 O   0  0  0  0  0  0  0  0  0  0  0  0
   11.4908   -5.3329    0.0000 O   0  0  0  0  0  0  0  0  0  0  0  0
   10.6658   -4.5079    0.0000 O   0  0  0  0  0  0  0  0  0  0  0  0
   10.6658   -2.8579    0.0000 O   0  0  0  0  0  0  0  0  0  0  0  0
   10.6658   -5.3329    0.0000 P   0  0  0  0  0  0  0  0  0  0  0  0
   22.0973    2.9171    0.0000 H   0  0  0  0  0  0  0  0  0  0  0  0
   19.9539    3.3296    0.0000 H   0  0  0  0  0  0  0  0  0  0  0  0
    1.3776   -4.0954    0.0000 H   0  0  0  0  0  0  0  0  0  0  0  0
    3.5211   -4.5079    0.0000 H   0  0  0  0  0  0  0  0  0  0  0  0
   20.6684    0.4421    0.0000 H   0  0  0  0  0  0  0  0  0  0  0  0
   18.5249    0.8546    0.0000 H   0  0  0  0  0  0  0  0  0  0  0  0
    3.5211   -2.0329    0.0000 H   0  0  0  0  0  0  0  0  0  0  0  0
    4.2355   -4.0954    0.0000 H   0  0  0  0  0  0  0  0  0  0  0  0
   19.2394   -2.0329    0.0000 H   0  0  0  0  0  0  0  0  0  0  0  0
   17.0960   -1.6204    0.0000 H   0  0  0  0  0  0  0  0  0  0  0  0
   12.0947   -3.6829    0.0000 H   0  0  0  0  0  0  0  0  0  0  0  0
  3  1  1  0  0  0  0
  4  2  1  0  0  0  0
  5  3  2  0  0  0  0
  6  4  1  0  0  0  0
  7  5  1  0  0  0  0
  8  6  1  0  0  0  0
  9  7  1  0  0  0  0
 10  8  2  0  0  0  0
 11  9  1  0  0  0  0
 12 10  1  0  0  0  0
 13 11  2  0  0  0  0
 14 12  1  0  0  0  0
 15 13  1  0  0  0  0
 16 14  2  0  0  0  0
 17 15  1  0  0  0  0
 18 17  1  0  0  0  0
 19 16  1  0  0  0  0
 20 18  2  0  0  0  0
 21 20  1  0  0  0  0
 22 19  1  0  0  0  0
 23 21  1  0  0  0  0
 24 22  1  0  0  0  0
 25 23  1  0  0  0  0
 26 24  1  0  0  0  0
 27 25  1  0  0  0  0
 28 26  1  0  0  0  0
 29 27  1  0  0  0  0
 30 28  1  0  0  0  0
 31 29  1  0  0  0  0
 32 30  1  0  0  0  0
 34 33  1  0  0  0  0
 37 35  1  0  0  0  0
 37 36  1  0  0  0  0
 38 31  1  0  0  0  0
 39 32  1  0  0  0  0
 40 33  1  0  0  0  0
 41 38  2  0  0  0  0
 42 39  2  0  0  0  0
 45 35  1  0  0  0  0
 45 38  1  0  0  0  0
 46 34  1  0  0  0  0
 47 36  1  0  0  0  0
 37 48  1  1  0  0  0
 48 39  1  0  0  0  0
 49 43  1  0  0  0  0
 49 44  2  0  0  0  0
 49 46  1  0  0  0  0
 49 47  1  0  0  0  0
 50  3  1  0  0  0  0
 51  5  1  0  0  0  0
 52  8  1  0  0  0  0
 53 10  1  0  0  0  0
 54 11  1  0  0  0  0
 13 55  1  4  0  0  0
 56 14  1  0  0  0  0
 57 16  1  0  0  0  0
 58 18  1  0  0  0  0
 59 20  1  0  0  0  0
 37 60  1  1  0  0  0
M  END
> <DATABASE_ID>
DB03047

> <DATABASE_NAME>
drugbank

> <SMILES>
[H]\C(C)=C(\[H])CCC([H])=C([H])CC\C([H])=C(/[H])CCCCCCC(=O)OC[C@]([H])(COP(O)(=O)OCCN)OC(=O)CCCCCCC\C([H])=C(/[H])C\C([H])=C(/[H])CCC

> <INCHI_IDENTIFIER>
InChI=1S/C39H68NO8P/c1-3-5-7-9-11-13-15-17-18-20-21-23-25-27-29-31-38(41)45-35-37(36-47-49(43,44)46-34-33-40)48-39(42)32-30-28-26-24-22-19-16-14-12-10-8-6-4-2/h3,5,8,10-11,13-14,16,18,20,37H,4,6-7,9,12,15,17,19,21-36,40H2,1-2H3,(H,43,44)/b5-3+,10-8+,13-11?,16-14+,20-18+/t37-/m1/s1

> <INCHI_KEY>
MABRTXOVHMDVAT-AAEGOEIASA-N

> <FORMULA>
C39H68NO8P

> <MOLECULAR_WEIGHT>
709.9329

> <EXACT_MASS>
709.468254669

> <JCHEM_ACCEPTOR_COUNT>
5

> <JCHEM_ATOM_COUNT>
117

> <JCHEM_AVERAGE_NEUTRAL_MICROSPECIES_CHARGE>
-0.000992001480615401

> <JCHEM_AVERAGE_POLARIZABILITY>
84.28999765421091

> <JCHEM_BIOAVAILABILITY>
0

> <JCHEM_DONOR_COUNT>
2

> <JCHEM_FORMAL_CHARGE>
0

> <JCHEM_GHOSE_FILTER>
0

> <JCHEM_IUPAC>
(2-aminoethoxy)[(2R)-2-[(9E,12E)-hexadeca-9,12-dienoyloxy]-3-[(8E,16E)-octadeca-8,12,16-trienoyloxy]propoxy]phosphinic acid

> <ALOGPS_LOGP>
7.88

> <JCHEM_LOGP>
9.530444405803422

> <ALOGPS_LOGS>
-6.82

> <JCHEM_MDDR_LIKE_RULE>
0

> <JCHEM_NEUTRAL_CHARGE>
0

> <JCHEM_NUMBER_OF_RINGS>
0

> <JCHEM_PHYSIOLOGICAL_CHARGE>
0

> <JCHEM_PKA_STRONGEST_ACIDIC>
1.8688003136581992

> <JCHEM_PKA_STRONGEST_BASIC>
9.999929336362278

> <JCHEM_POLAR_SURFACE_AREA>
134.38000000000002

> <JCHEM_REFRACTIVITY>
205.78890000000007

> <JCHEM_ROTATABLE_BOND_COUNT>
36

> <JCHEM_RULE_OF_FIVE>
0

> <ALOGPS_SOLUBILITY>
1.07e-04 g/l

> <JCHEM_TRADITIONAL_IUPAC>
biotin

> <JCHEM_VEBER_RULE>
0

> <DRUGBANK_ID>
DB03047

> <SECONDARY_ACCESSION_NUMBERS>
EXPT01352

> <DRUG_GROUPS>
experimental

> <GENERIC_NAME>
L-Alpha-Phosphatidyl-Beta-Oleoyl-Gamma-Palmitoyl-Phosphatidylethanolamine

$$$$
