
  Mrv0541 02231217472D          

 25 27  0  0  1  0            999 V2000
    3.9934    2.4750    0.0000 C   0  0  0  0  0  0  0  0  0  0  0  0
    3.2789    2.0625    0.0000 N   0  0  0  0  0  0  0  0  0  0  0  0
    2.5645    2.4750    0.0000 C   0  0  0  0  0  0  0  0  0  0  0  0
    3.2789    1.2375    0.0000 C   0  0  0  0  0  0  0  0  0  0  0  0
    3.9934    0.8250    0.0000 N   0  0  0  0  0  0  0  0  0  0  0  0
    3.9934    0.0000    0.0000 C   0  0  0  0  0  0  0  0  0  0  0  0
    3.2789   -0.4125    0.0000 N   0  0  0  0  0  0  0  0  0  0  0  0
    2.5645    0.0000    0.0000 C   0  0  0  0  0  0  0  0  0  0  0  0
    2.5645    0.8250    0.0000 C   0  0  0  0  0  0  0  0  0  0  0  0
    1.7798    1.0799    0.0000 N   0  0  0  0  0  0  0  0  0  0  0  0
    1.2949    0.4125    0.0000 C   0  0  0  0  0  0  0  0  0  0  0  0
    1.7798   -0.2549    0.0000 N   0  0  0  0  0  0  0  0  0  0  0  0
    1.5249   -1.0396    0.0000 C   0  0  2  0  0  0  0  0  0  0  0  0
    2.0098   -1.7070    0.0000 O   0  0  0  0  0  0  0  0  0  0  0  0
    1.5249   -2.3744    0.0000 C   0  0  2  0  0  0  0  0  0  0  0  0
    1.7798   -3.1591    0.0000 C   0  0  0  0  0  0  0  0  0  0  0  0
    1.2278   -3.7722    0.0000 O   0  0  0  0  0  0  0  0  0  0  0  0
    1.4827   -4.5568    0.0000 P   0  0  0  0  0  0  0  0  0  0  0  0
    1.7377   -5.3414    0.0000 O   0  0  0  0  0  0  0  0  0  0  0  0
    0.6981   -4.8117    0.0000 O   0  0  0  0  0  0  0  0  0  0  0  0
    2.2674   -4.3018    0.0000 O   0  0  0  0  0  0  0  0  0  0  0  0
    0.7403   -2.1195    0.0000 C   0  0  1  0  0  0  0  0  0  0  0  0
    0.0728   -2.6044    0.0000 N   0  0  0  0  0  0  0  0  0  0  0  0
    0.7403   -1.2945    0.0000 C   0  0  1  0  0  0  0  0  0  0  0  0
    0.0728   -0.8096    0.0000 O   0  0  0  0  0  0  0  0  0  0  0  0
  1  2  1  0  0  0  0
  2  3  1  0  0  0  0
  2  4  1  0  0  0  0
  4  5  2  0  0  0  0
  5  6  1  0  0  0  0
  6  7  2  0  0  0  0
  7  8  1  0  0  0  0
  8  9  2  0  0  0  0
  4  9  1  0  0  0  0
  9 10  1  0  0  0  0
 10 11  2  0  0  0  0
 11 12  1  0  0  0  0
  8 12  1  0  0  0  0
 13 12  1  6  0  0  0
 13 14  1  0  0  0  0
 14 15  1  0  0  0  0
 15 16  1  6  0  0  0
 16 17  1  0  0  0  0
 17 18  1  0  0  0  0
 18 19  1  0  0  0  0
 18 20  1  0  0  0  0
 18 21  2  0  0  0  0
 15 22  1  0  0  0  0
 22 23  1  1  0  0  0
 22 24  1  0  0  0  0
 13 24  1  0  0  0  0
 24 25  1  1  0  0  0
M  END
> <DATABASE_ID>
DB04602

> <DATABASE_NAME>
drugbank

> <SMILES>
CN(C)C1=NC=NC2=C1N=CN2[C@@H]1O[C@H](COP(O)(O)=O)[C@@H](N)[C@H]1O

> <INCHI_IDENTIFIER>
InChI=1S/C12H19N6O6P/c1-17(2)10-8-11(15-4-14-10)18(5-16-8)12-9(19)7(13)6(24-12)3-23-25(20,21)22/h4-7,9,12,19H,3,13H2,1-2H3,(H2,20,21,22)/t6-,7-,9-,12-/m1/s1

> <INCHI_KEY>
BFPIKGKMRKBBBF-GRIPGOBMSA-N

> <FORMULA>
C12H19N6O6P

> <MOLECULAR_WEIGHT>
374.2896

> <EXACT_MASS>
374.110368882

> <JCHEM_ACCEPTOR_COUNT>
10

> <JCHEM_ATOM_COUNT>
44

> <JCHEM_AVERAGE_NEUTRAL_MICROSPECIES_CHARGE>
-0.9151783971508518

> <JCHEM_AVERAGE_POLARIZABILITY>
34.288058187163074

> <JCHEM_BIOAVAILABILITY>
1

> <JCHEM_DONOR_COUNT>
4

> <JCHEM_FORMAL_CHARGE>
0

> <JCHEM_GHOSE_FILTER>
0

> <JCHEM_IUPAC>
{[(2S,3S,4R,5R)-3-amino-5-[6-(dimethylamino)-9H-purin-9-yl]-4-hydroxyoxolan-2-yl]methoxy}phosphonic acid

> <ALOGPS_LOGP>
-1.44

> <JCHEM_LOGP>
-2.4426482511065912

> <ALOGPS_LOGS>
-2.12

> <JCHEM_MDDR_LIKE_RULE>
0

> <JCHEM_NEUTRAL_CHARGE>
-1

> <JCHEM_NUMBER_OF_RINGS>
3

> <JCHEM_PHYSIOLOGICAL_CHARGE>
-1

> <JCHEM_PKA>
6.291211950822284

> <JCHEM_PKA_STRONGEST_ACIDIC>
1.2565321261490834

> <JCHEM_PKA_STRONGEST_BASIC>
9.186901176860905

> <JCHEM_POLAR_SURFACE_AREA>
169.08

> <JCHEM_REFRACTIVITY>
85.4542

> <JCHEM_ROTATABLE_BOND_COUNT>
5

> <JCHEM_RULE_OF_FIVE>
1

> <ALOGPS_SOLUBILITY>
2.83e+00 g/l

> <JCHEM_TRADITIONAL_IUPAC>
biotin

> <JCHEM_VEBER_RULE>
0

> <DRUGBANK_ID>
DB04602

> <DRUG_GROUPS>
experimental

> <GENERIC_NAME>
PUROMYCIN AMINONUCLEOSIDE-5'-MONOPHOSPHATE

$$$$
