
  Mrv0541 02231215462D          

  5  4  0  0  1  0            999 V2000
    2.0625   -0.7145    0.0000 C   0  0  0  0  0  0  0  0  0  0  0  0
    1.2375   -0.7145    0.0000 C   0  0  0  0  0  0  0  0  0  0  0  0
    0.8250   -1.4289    0.0000 O   0  0  0  0  0  0  0  0  0  0  0  0
    0.8250    0.0000    0.0000 C   0  0  0  0  0  0  0  0  0  0  0  0
    0.0000    0.0000    0.0000 O   0  0  0  0  0  0  0  0  0  0  0  0
  1  2  1  0  0  0  0
  2  3  1  0  0  0  0
  2  4  1  0  0  0  0
  4  5  1  0  0  0  0
M  END
> <DATABASE_ID>
DB01839

> <DATABASE_NAME>
drugbank

> <SMILES>
CC(O)CO

> <INCHI_IDENTIFIER>
InChI=1S/C3H8O2/c1-3(5)2-4/h3-5H,2H2,1H3

> <INCHI_KEY>
DNIAPMSPPWPWGF-UHFFFAOYSA-N

> <FORMULA>
C3H8O2

> <MOLECULAR_WEIGHT>
76.0944

> <EXACT_MASS>
76.0524295

> <JCHEM_ACCEPTOR_COUNT>
2

> <JCHEM_ATOM_COUNT>
13

> <JCHEM_AVERAGE_NEUTRAL_MICROSPECIES_CHARGE>
-3.4561059844497516e-08

> <JCHEM_AVERAGE_POLARIZABILITY>
8.010010240094317

> <JCHEM_BIOAVAILABILITY>
1

> <JCHEM_DONOR_COUNT>
2

> <JCHEM_FORMAL_CHARGE>
0

> <JCHEM_GHOSE_FILTER>
0

> <JCHEM_IUPAC>
propane-1,2-diol

> <ALOGPS_LOGP>
-1.10

> <JCHEM_LOGP>
-0.7921040560000001

> <ALOGPS_LOGS>
1.10

> <JCHEM_MDDR_LIKE_RULE>
0

> <JCHEM_NEUTRAL_CHARGE>
0

> <JCHEM_NUMBER_OF_RINGS>
0

> <JCHEM_PHYSIOLOGICAL_CHARGE>
0

> <JCHEM_PKA>
15.996044021064446

> <JCHEM_PKA_STRONGEST_ACIDIC>
14.470762978766015

> <JCHEM_PKA_STRONGEST_BASIC>
-2.8584492517004216

> <JCHEM_POLAR_SURFACE_AREA>
40.46

> <JCHEM_REFRACTIVITY>
18.9724

> <JCHEM_ROTATABLE_BOND_COUNT>
1

> <JCHEM_RULE_OF_FIVE>
1

> <ALOGPS_SOLUBILITY>
9.52e+02 g/l

> <JCHEM_TRADITIONAL_IUPAC>
tetrahydrofolic acid

> <JCHEM_VEBER_RULE>
0

> <DRUGBANK_ID>
DB01839

> <SECONDARY_ACCESSION_NUMBERS>
EXPT02572; DB11078

> <DRUG_GROUPS>
approved; investigational

> <GENERIC_NAME>
Propylene glycol

> <SYNONYMS>
1,2-dihydroxypropane; 1,2-Propanediol; 1,2-Propylenglykol; 2-hydroxypropanol; isopropylene glycol; methyl glycol; methylethyl glycol; methylethylene glycol; monopropylene glycol; Propane-1,2-diol; Propylene glycol; Î±-propyleneglycol

> <PRODUCTS>
(badiful) Antibacterial Wipes; Advanced Eye Relief Dry Eye Rejuvenation; Advanced Eye Relief/ Dry Eye/ Rejuvenation Lubricant; Alcohol Wipes; Alcohol disinfectant wipes; Alcohol wipes; Aloe Vera Gel; Aloe Vera Sprayer; AnubisMed; Artifical Tears; Artificial Tears; Artificial Tears Lubricant Eye Drops; Avenova Lubricant Eye Drops High Performance; BANACOS Cica-aid Centella Peptide toner; Baby Wipes; Basic Care Eye; CVS Health Lubricant Drops; CVS Long Lasting Lubricant Eye; CVS Long Lasting Lubricant Eye Twin Pack; CVS Lubricant Eye Drops 15mL; CVS Lubricant Eye Drops Original; CVS Lubricant Eye Drops Ultra; CVS Single Use Lubricant Eye Drops; CareOne Lubricant; CareOne Ultra Lubricant; Cvs; Cvs Single Use Lubricant Eye Drops; DG Lubricant Eye Drops; Derofen Miel; Dg Lubricant Eye Drops; Disinfectant Cleaning Wipes; Disinfecting Alcohol Wipes; Disinfecting Wipes; Dorama Dry Aid Eye Drops; Dry Eye Formula Lubricant Eye Drops; Dry Eye Therapy; Dry eye relief; Equate Lubricant Eye; Equate Lubricant Eye Drops; Equate Lubricant Eye Drops High Performance; Equate Lubricant Eye Drops Restorative Performance; Equate Support Advanced Lubricant; Equate Support Advanced Lubricant Drops MultiDose; Equate Support Advanced Lubricating Eye; Equate Support Moisture Lubricant Eye; Extreme Relief Lubricant; Eye Drops SY; Eye Lubricant; Eyelash and Eyebrow Lengthener; Eyewash Additive Concentrate; Eyewash Station Additive Concentrate; Family Care Lubricant Eye; Family Care Preservative Free Single Use; Family Care Single-Use Eye; GNP Eye Drops Long Lasting; GNP Lubricant Eye; GNP Lubricating Relief Eye; GenTeal Tears Gel Drops; Good Neighbor Pharmacy Lubricant Eye Drops; Good Sense Lubricant Eye; Good Sense Lubricant Eye Drops; GoodSense Lubricant Eye; GoodSense Ultra Lubricant Eye Drops; Goodsense Lubricant Eye Drops; Goodsense Ultra Lubricant; HEB Lubricant Eye Drops Dry Eye Therapy; Health Mart Lubricating Tears; Iypoly; Kroger High Performance Lubricant Eye Drops; Leader Lubricant Eye; Leader Lubricant Eye Drops; Leader Lubricant Eye Drops 30ct; Leader Preservative-Free Ultra Lubricating Eye Drops; Leader Sterile Ultra Lubricating Eye; Leader Ultra Lubricating Eye Drops; Lidl Ultra Lubricant Eye; Lubricant Eye; Lubricant Eye Drops; Lubricant Eye Drops High Performance; Lubricant Eye Drops Long Lasting; Lubricant Eye Drops Restorative Performance; Lubricant Eye Drops Ultra; Lubricant Eye Drops/ Artificial Tears; Lubricant drops; Lubricating Nasal Gel; Lubricating Nasal Mist; Lubricating Relief; MSM (MoSaengMo); Meijer Lubricant Dry Eye; Meijer Lubricant Eye; Meijer Lubricant Eye Drops; Meijer Ultra Lubricant Eye; Meijer Ultra Lubricant Eye Drops High Performance; Mycellcare Feminine Mist; Mycellcare iT s; Niguo Disinfectant wipes-80 Sheets; Ocusan Dry Eyes; Opti-free; PEG-Phen Lubricant Eye Drops; PEG-Phen Ultra Lubricant Eye Drops; PhysiciansCare Eyewash Station Additive Concentrate; Protection Hp Hand Sanitizergel; Publix High Performance Eye Drops; QC Ultra Lubricant Eye; Quality Choice Lubricant Eye; RITE AID Lubricant Drops; RITE AID lubricant drops; RUNYI MIAOJIE Hand sanitizer; Restorative Formula Lubricant Eye Drops; Revital eyes; Rhinaris Nasal Gel; Rhinaris Nasal Mist; Rhinedrine Lubricant Nasal Gel; Rhinedrine Moisturizing Nasal Mist -liq Nas; Rite Aid Eye Care Lubricant; Rohto Dry-Aid; Rohto Optic Glow; Rohto Preservative Free Dry Aid; Rugby Lubricant Eye; Rugby Lubricating Eye Drops; Rugby Ultra Lubricant Eye; SK Lubricant Eye Drops; Salinex Nasal Lubricant; Salinex Nasal Lubricant Gel; Salinol Sol 160mg; Sanitary alcohol disinfectant wipes; Secaris; Secret Key Tattoo Cover Cushion Spf50 Plus (21 Light Beige); Secret Key Tattoo Cover Cushion Spf50 Plus (23 Natural Beige); Signature Care Eye Drops High Performance; Soothe; Soothe Dry Eyes; SoundBody Long Lasting Lubricant; Soundbody Eye Lubricant; Sterile Lubricant drops; Sunmark Lubricant Eye Drops; Sunmark Lubricating Tears; Systane; Systane Balance; Systane COMPLETE; Systane COMPLETE PF; Systane Day and Night Value Pack; Systane Hydration PF Preservative Free; Systane Lubricant; Systane Lubricant Eye Drops; Systane Sport; Systane ULTRA; Systane Ultra; Systane Ultra Preservative Free; Systane Ultra Single Vials; Thrive Eye Drops Nanodrop; TopCare Ultra Lubricant; Topcare Health Lubricant Eye Drops; Topcare Lubricant Eye; Ultra Lubricant Eye Drops; VISTA MEIBO TEARS Propylene Glycol 0.6% w/v Advanced Dry Eye Relief Lubricating Drops 10 ml; Vista Tears Dry Relief Eye Lubricant Drops; Vitabrid SCALP CARE; Walgreen Sterile Lubricant; Walgreens Lubricant Eye; Walgreens Lubricant Eye Drops; Walgreens Lubricant Eye Drops Dry Eye 15mL and twin pack; Walgreens Lubricant Eye Drops High Performance 15mL and twin pack; Walgreens Lubricant Eye Drops Restorative Performance; i-Drops LUBRICANT EYE DROPS

$$$$
