
  Mrv0541 02231217512D          

 22 21  0  0  1  0            999 V2000
   12.6177    4.8099    0.0000 N   0  0  0  0  0  0  0  0  0  0  0  0
   12.6177    3.9849    0.0000 C   0  0  1  0  0  0  0  0  0  0  0  0
   11.9033    3.5724    0.0000 C   0  0  0  0  0  0  0  0  0  0  0  0
   11.1888    3.9849    0.0000 C   0  0  0  0  0  0  0  0  0  0  0  0
   10.4743    3.5724    0.0000 C   0  0  0  0  0  0  0  0  0  0  0  0
   10.4743    2.7474    0.0000 O   0  0  0  0  0  0  0  0  0  0  0  0
    9.7599    3.9849    0.0000 N   0  0  0  0  0  0  0  0  0  0  0  0
    9.0454    3.5724    0.0000 C   0  0  1  0  0  0  0  0  0  0  0  0
    9.0454    2.7474    0.0000 C   0  0  0  0  0  0  0  0  0  0  0  0
    8.3309    2.3349    0.0000 S   0  0  2  0  0  0  0  0  0  0  0  0
    7.6164    2.7474    0.0000 O   0  0  0  0  0  0  0  0  0  0  0  0
    8.3309    1.5099    0.0000 O   0  0  0  0  0  0  0  0  0  0  0  0
    8.3309    3.9849    0.0000 C   0  0  0  0  0  0  0  0  0  0  0  0
    8.3309    4.8099    0.0000 O   0  0  0  0  0  0  0  0  0  0  0  0
    7.6164    3.5724    0.0000 N   0  0  0  0  0  0  0  0  0  0  0  0
    6.9020    3.9849    0.0000 C   0  0  0  0  0  0  0  0  0  0  0  0
    6.1875    3.5724    0.0000 C   0  0  0  0  0  0  0  0  0  0  0  0
    5.4730    3.9849    0.0000 O   0  0  0  0  0  0  0  0  0  0  0  0
    6.1875    2.7474    0.0000 O   0  0  0  0  0  0  0  0  0  0  0  0
   13.3322    3.5724    0.0000 C   0  0  0  0  0  0  0  0  0  0  0  0
   14.0467    3.9849    0.0000 O   0  0  0  0  0  0  0  0  0  0  0  0
   13.3322    2.7474    0.0000 O   0  0  0  0  0  0  0  0  0  0  0  0
  2  1  1  6  0  0  0
  2  3  1  0  0  0  0
  3  4  1  0  0  0  0
  4  5  1  0  0  0  0
  5  6  2  0  0  0  0
  5  7  1  0  0  0  0
  8  7  1  1  0  0  0
  8  9  1  0  0  0  0
  9 10  1  0  0  0  0
 10 11  1  1  0  0  0
 10 12  2  0  0  0  0
  8 13  1  0  0  0  0
 13 14  2  0  0  0  0
 13 15  1  0  0  0  0
 15 16  1  0  0  0  0
 16 17  1  0  0  0  0
 17 18  1  0  0  0  0
 17 19  2  0  0  0  0
  2 20  1  0  0  0  0
 20 21  1  0  0  0  0
 20 22  2  0  0  0  0
M  END
> <DATABASE_ID>
DB04700

> <DATABASE_NAME>
drugbank

> <SMILES>
N[C@@H](CCC(=O)N[C@@H](C[S@](O)=O)C(=O)NCC(O)=O)C(O)=O

> <INCHI_IDENTIFIER>
InChI=1S/C10H17N3O8S/c11-5(10(18)19)1-2-7(14)13-6(4-22(20)21)9(17)12-3-8(15)16/h5-6H,1-4,11H2,(H,12,17)(H,13,14)(H,15,16)(H,18,19)(H,20,21)/t5-,6-/m0/s1

> <INCHI_KEY>
DMAPAHUEYHXRFI-WDSKDSINSA-N

> <FORMULA>
C10H17N3O8S

> <MOLECULAR_WEIGHT>
339.322

> <EXACT_MASS>
339.073635225

> <JCHEM_ACCEPTOR_COUNT>
9

> <JCHEM_ATOM_COUNT>
39

> <JCHEM_AVERAGE_NEUTRAL_MICROSPECIES_CHARGE>
-2.004652127399097

> <JCHEM_AVERAGE_POLARIZABILITY>
30.781880073423043

> <JCHEM_BIOAVAILABILITY>
1

> <JCHEM_DONOR_COUNT>
6

> <JCHEM_FORMAL_CHARGE>
0

> <JCHEM_GHOSE_FILTER>
0

> <JCHEM_IUPAC>
(2S)-2-amino-4-{[(1R)-1-[(carboxymethyl)carbamoyl]-2-[(S)-sulfino]ethyl]carbamoyl}butanoic acid

> <ALOGPS_LOGP>
-2.13

> <JCHEM_LOGP>
-5.859565111816957

> <ALOGPS_LOGS>
-1.32

> <JCHEM_MDDR_LIKE_RULE>
0

> <JCHEM_NEUTRAL_CHARGE>
-2

> <JCHEM_NUMBER_OF_RINGS>
0

> <JCHEM_PHYSIOLOGICAL_CHARGE>
-2

> <JCHEM_PKA>
2.200812609306606

> <JCHEM_PKA_STRONGEST_ACIDIC>
1.3052699558038996

> <JCHEM_PKA_STRONGEST_BASIC>
9.311058382104891

> <JCHEM_POLAR_SURFACE_AREA>
196.11999999999998

> <JCHEM_REFRACTIVITY>
69.8834

> <JCHEM_ROTATABLE_BOND_COUNT>
10

> <JCHEM_RULE_OF_FIVE>
0

> <ALOGPS_SOLUBILITY>
1.63e+01 g/l

> <JCHEM_TRADITIONAL_IUPAC>
tetrahydrofolic acid

> <JCHEM_VEBER_RULE>
0

> <DRUGBANK_ID>
DB04700

> <DRUG_GROUPS>
experimental

> <GENERIC_NAME>
GLUTATHIONE SULFINATE

$$$$
