
  Mrv0541 02231216082D          

 10  9  0  0  1  0            999 V2000
    1.9520    1.9520    0.0000 O   0  0  0  0  0  0  0  0  0  0  0  0
    1.9520    1.1270    0.0000 C   0  0  1  0  0  0  0  0  0  0  0  0
    1.2375    0.7145    0.0000 C   0  0  0  0  0  0  0  0  0  0  0  0
    0.5230    1.1270    0.0000 S   0  0  0  0  0  0  0  0  0  0  0  0
   -0.1914    1.5395    0.0000 O   0  0  0  0  0  0  0  0  0  0  0  0
    0.1105    0.4125    0.0000 O   0  0  0  0  0  0  0  0  0  0  0  0
    0.9355    1.8414    0.0000 O   0  0  0  0  0  0  0  0  0  0  0  0
    2.6664    0.7145    0.0000 C   0  0  0  0  0  0  0  0  0  0  0  0
    3.3809    1.1270    0.0000 O   0  0  0  0  0  0  0  0  0  0  0  0
    2.6664   -0.1105    0.0000 O   0  0  0  0  0  0  0  0  0  0  0  0
  2  1  1  6  0  0  0
  2  3  1  0  0  0  0
  3  4  1  0  0  0  0
  4  5  1  0  0  0  0
  4  6  2  0  0  0  0
  4  7  2  0  0  0  0
  2  8  1  0  0  0  0
  8  9  1  0  0  0  0
  8 10  2  0  0  0  0
M  END
> <DATABASE_ID>
DB02334

> <DATABASE_NAME>
drugbank

> <SMILES>
O[C@@H](CS(O)(=O)=O)C(O)=O

> <INCHI_IDENTIFIER>
InChI=1S/C3H6O6S/c4-2(3(5)6)1-10(7,8)9/h2,4H,1H2,(H,5,6)(H,7,8,9)/t2-/m0/s1

> <INCHI_KEY>
CQQGIWJSICOUON-REOHCLBHSA-N

> <FORMULA>
C3H6O6S

> <MOLECULAR_WEIGHT>
170.141

> <EXACT_MASS>
169.988508614

> <JCHEM_ACCEPTOR_COUNT>
6

> <JCHEM_ATOM_COUNT>
16

> <JCHEM_AVERAGE_NEUTRAL_MICROSPECIES_CHARGE>
-1.9999422452576794

> <JCHEM_AVERAGE_POLARIZABILITY>
13.14827787306751

> <JCHEM_BIOAVAILABILITY>
1

> <JCHEM_DONOR_COUNT>
3

> <JCHEM_FORMAL_CHARGE>
0

> <JCHEM_GHOSE_FILTER>
0

> <JCHEM_IUPAC>
(2R)-2-hydroxy-3-sulfopropanoic acid

> <ALOGPS_LOGP>
-1.84

> <JCHEM_LOGP>
-1.8083467673333333

> <ALOGPS_LOGS>
-0.33

> <JCHEM_MDDR_LIKE_RULE>
0

> <JCHEM_NEUTRAL_CHARGE>
-2

> <JCHEM_NUMBER_OF_RINGS>
0

> <JCHEM_PHYSIOLOGICAL_CHARGE>
-2

> <JCHEM_PKA>
2.7631770716966573

> <JCHEM_PKA_STRONGEST_ACIDIC>
-1.5807364544987192

> <JCHEM_PKA_STRONGEST_BASIC>
-4.189937179589438

> <JCHEM_POLAR_SURFACE_AREA>
111.9

> <JCHEM_REFRACTIVITY>
28.777500000000003

> <JCHEM_ROTATABLE_BOND_COUNT>
3

> <JCHEM_RULE_OF_FIVE>
1

> <ALOGPS_SOLUBILITY>
7.89e+01 g/l

> <JCHEM_TRADITIONAL_IUPAC>
biotin

> <JCHEM_VEBER_RULE>
0

> <DRUGBANK_ID>
DB02334

> <SECONDARY_ACCESSION_NUMBERS>
EXPT00192

> <DRUG_GROUPS>
experimental

> <GENERIC_NAME>
(R)-2-Hydroxy-3-Sulfopropanoic Acid

$$$$
