
  Mrv0541 02231217522D          

 48 48  0  0  1  0            999 V2000
    3.5724  -11.1375    0.0000 C   0  0  0  0  0  0  0  0  0  0  0  0
    4.2868  -11.5500    0.0000 C   0  0  0  0  0  0  0  0  0  0  0  0
    5.0013  -11.1375    0.0000 C   0  0  0  0  0  0  0  0  0  0  0  0
    5.7158  -11.5500    0.0000 C   0  0  0  0  0  0  0  0  0  0  0  0
    6.4302  -11.1375    0.0000 C   0  0  0  0  0  0  0  0  0  0  0  0
    7.1447  -11.5500    0.0000 C   0  0  0  0  0  0  0  0  0  0  0  0
    7.8592  -11.1375    0.0000 C   0  0  0  0  0  0  0  0  0  0  0  0
    8.5737  -11.5500    0.0000 C   0  0  0  0  0  0  0  0  0  0  0  0
    9.2881  -11.1375    0.0000 C   0  0  0  0  0  0  0  0  0  0  0  0
   10.0026  -11.5500    0.0000 C   0  0  0  0  0  0  0  0  0  0  0  0
   10.7171  -11.1375    0.0000 C   0  0  0  0  0  0  0  0  0  0  0  0
   11.4315  -11.5500    0.0000 C   0  0  0  0  0  0  0  0  0  0  0  0
   12.1460  -11.1375    0.0000 C   0  0  0  0  0  0  0  0  0  0  0  0
   12.8605  -11.5500    0.0000 C   0  0  0  0  0  0  0  0  0  0  0  0
   13.5749  -11.1375    0.0000 C   0  0  0  0  0  0  0  0  0  0  0  0
   14.2894  -11.5500    0.0000 C   0  0  0  0  0  0  0  0  0  0  0  0
   14.2894  -12.3750    0.0000 O   0  0  0  0  0  0  0  0  0  0  0  0
   15.0039  -11.1375    0.0000 O   0  0  0  0  0  0  0  0  0  0  0  0
   15.7184  -11.5500    0.0000 C   0  0  1  0  0  0  0  0  0  0  0  0
   15.7184  -12.3750    0.0000 C   0  0  0  0  0  0  0  0  0  0  0  0
   16.4328  -12.7875    0.0000 O   0  0  0  0  0  0  0  0  0  0  0  0
   16.4328  -13.6125    0.0000 C   0  0  2  0  0  0  0  0  0  0  0  0
   17.1473  -14.0250    0.0000 O   0  0  0  0  0  0  0  0  0  0  0  0
   17.1473  -14.8500    0.0000 C   0  0  1  0  0  0  0  0  0  0  0  0
   17.8618  -15.2625    0.0000 C   0  0  0  0  0  0  0  0  0  0  0  0
   17.8618  -16.0875    0.0000 O   0  0  0  0  0  0  0  0  0  0  0  0
   16.4328  -15.2625    0.0000 C   0  0  2  0  0  0  0  0  0  0  0  0
   16.4328  -16.0875    0.0000 O   0  0  0  0  0  0  0  0  0  0  0  0
   15.7184  -14.8500    0.0000 C   0  0  2  0  0  0  0  0  0  0  0  0
   15.0039  -15.2625    0.0000 O   0  0  0  0  0  0  0  0  0  0  0  0
   15.7184  -14.0250    0.0000 C   0  0  2  0  0  0  0  0  0  0  0  0
   15.0039  -13.6125    0.0000 O   0  0  0  0  0  0  0  0  0  0  0  0
   16.4328  -11.1375    0.0000 C   0  0  0  0  0  0  0  0  0  0  0  0
   17.1473  -11.5500    0.0000 O   0  0  0  0  0  0  0  0  0  0  0  0
   17.8618  -11.1375    0.0000 C   0  0  0  0  0  0  0  0  0  0  0  0
   17.8618  -10.3125    0.0000 O   0  0  0  0  0  0  0  0  0  0  0  0
   18.5762  -11.5500    0.0000 C   0  0  0  0  0  0  0  0  0  0  0  0
   19.2907  -11.1375    0.0000 C   0  0  0  0  0  0  0  0  0  0  0  0
   20.0052  -11.5500    0.0000 C   0  0  0  0  0  0  0  0  0  0  0  0
   20.7197  -11.1375    0.0000 C   0  0  0  0  0  0  0  0  0  0  0  0
   21.4341  -11.5500    0.0000 C   0  0  0  0  0  0  0  0  0  0  0  0
   22.1486  -11.1375    0.0000 C   0  0  0  0  0  0  0  0  0  0  0  0
   22.8631  -11.5500    0.0000 C   0  0  0  0  0  0  0  0  0  0  0  0
   23.5775  -11.1375    0.0000 C   0  0  0  0  0  0  0  0  0  0  0  0
   24.2920  -11.5500    0.0000 C   0  0  0  0  0  0  0  0  0  0  0  0
   25.0065  -11.1375    0.0000 C   0  0  0  0  0  0  0  0  0  0  0  0
   25.7210  -11.5500    0.0000 C   0  0  0  0  0  0  0  0  0  0  0  0
   26.4354  -11.1375    0.0000 C   0  0  0  0  0  0  0  0  0  0  0  0
  1  2  1  0  0  0  0
  2  3  1  0  0  0  0
  3  4  1  0  0  0  0
  4  5  1  0  0  0  0
  5  6  1  0  0  0  0
  6  7  1  0  0  0  0
  7  8  1  0  0  0  0
  8  9  1  0  0  0  0
  9 10  1  0  0  0  0
 10 11  1  0  0  0  0
 11 12  1  0  0  0  0
 12 13  1  0  0  0  0
 13 14  1  0  0  0  0
 14 15  1  0  0  0  0
 15 16  1  0  0  0  0
 16 17  2  0  0  0  0
 16 18  1  0  0  0  0
 19 18  1  6  0  0  0
 19 20  1  0  0  0  0
 20 21  1  0  0  0  0
 22 21  1  6  0  0  0
 22 23  1  0  0  0  0
 23 24  1  0  0  0  0
 24 25  1  1  0  0  0
 25 26  1  0  0  0  0
 24 27  1  0  0  0  0
 27 28  1  6  0  0  0
 27 29  1  0  0  0  0
 29 30  1  6  0  0  0
 29 31  1  0  0  0  0
 22 31  1  0  0  0  0
 31 32  1  6  0  0  0
 19 33  1  0  0  0  0
 33 34  1  0  0  0  0
 34 35  1  0  0  0  0
 35 36  2  0  0  0  0
 35 37  1  0  0  0  0
 37 38  1  0  0  0  0
 38 39  1  0  0  0  0
 39 40  1  0  0  0  0
 40 41  1  0  0  0  0
 41 42  1  0  0  0  0
 42 43  1  0  0  0  0
 43 44  1  0  0  0  0
 44 45  1  0  0  0  0
 45 46  1  0  0  0  0
 46 47  1  0  0  0  0
 47 48  1  0  0  0  0
M  END
> <DATABASE_ID>
DB04735

> <DATABASE_NAME>
drugbank

> <SMILES>
CCCCCCCCCCCCCCCC(=O)O[C@@H](CO[C@@H]1O[C@@H](CO)[C@H](O)[C@H](O)[C@@H]1O)COC(=O)CCCCCCCCCCCC

> <INCHI_IDENTIFIER>
InChI=1S/C38H72O10/c1-3-5-7-9-11-13-15-16-17-19-21-23-25-27-34(41)47-31(30-46-38-37(44)36(43)35(42)32(28-39)48-38)29-45-33(40)26-24-22-20-18-14-12-10-8-6-4-2/h31-32,35-39,42-44H,3-30H2,1-2H3/t31-,32+,35+,36+,37+,38-/m1/s1

> <INCHI_KEY>
FIJGNIAJTZSERN-DQQGJSMTSA-N

> <FORMULA>
C38H72O10

> <MOLECULAR_WEIGHT>
688.9723

> <EXACT_MASS>
688.512548524

> <JCHEM_ACCEPTOR_COUNT>
8

> <JCHEM_ATOM_COUNT>
120

> <JCHEM_AVERAGE_NEUTRAL_MICROSPECIES_CHARGE>
-7.078707497216712e-06

> <JCHEM_AVERAGE_POLARIZABILITY>
84.14163645401213

> <JCHEM_BIOAVAILABILITY>
0

> <JCHEM_DONOR_COUNT>
4

> <JCHEM_FORMAL_CHARGE>
0

> <JCHEM_GHOSE_FILTER>
0

> <JCHEM_IUPAC>
(2S)-1-(tridecanoyloxy)-3-{[(2R,3S,4S,5R,6S)-3,4,5-trihydroxy-6-(hydroxymethyl)oxan-2-yl]oxy}propan-2-yl hexadecanoate

> <ALOGPS_LOGP>
7.58

> <JCHEM_LOGP>
8.898552141333331

> <ALOGPS_LOGS>
-5.88

> <JCHEM_MDDR_LIKE_RULE>
0

> <JCHEM_NEUTRAL_CHARGE>
0

> <JCHEM_NUMBER_OF_RINGS>
1

> <JCHEM_PHYSIOLOGICAL_CHARGE>
0

> <JCHEM_PKA>
13.200206016280395

> <JCHEM_PKA_STRONGEST_ACIDIC>
12.21085705828492

> <JCHEM_PKA_STRONGEST_BASIC>
-2.9810834223250415

> <JCHEM_POLAR_SURFACE_AREA>
151.98000000000002

> <JCHEM_REFRACTIVITY>
186.30920000000003

> <JCHEM_ROTATABLE_BOND_COUNT>
34

> <JCHEM_RULE_OF_FIVE>
0

> <ALOGPS_SOLUBILITY>
9.05e-04 g/l

> <JCHEM_TRADITIONAL_IUPAC>
biotin

> <JCHEM_VEBER_RULE>
0

> <DRUGBANK_ID>
DB04735

> <DRUG_GROUPS>
experimental

> <GENERIC_NAME>
MONOGALACTOSYL-DIACYLGLYCEROL

$$$$
