
  Mrv0541 02231216352D          

 15 15  0  0  0  0            999 V2000
   -1.4289    2.4750    0.0000 N   0  3  0  0  0  0  0  0  0  0  0  0
   -0.7145    2.8875    0.0000 C   0  0  0  0  0  0  0  0  0  0  0  0
    0.0000    2.4750    0.0000 C   0  0  0  0  0  0  0  0  0  0  0  0
    0.7145    2.8875    0.0000 C   0  0  0  0  0  0  0  0  0  0  0  0
    1.4289    2.4750    0.0000 C   0  0  0  0  0  0  0  0  0  0  0  0
    1.4289    1.6500    0.0000 C   0  0  0  0  0  0  0  0  0  0  0  0
    2.1434    1.2375    0.0000 C   0  0  0  0  0  0  0  0  0  0  0  0
    2.8579    1.6500    0.0000 N   0  0  0  0  0  0  0  0  0  0  0  0
    3.5724    1.2375    0.0000 C   0  0  0  0  0  0  0  0  0  0  0  0
    4.2868    1.6500    0.0000 C   0  0  0  0  0  0  0  0  0  0  0  0
    5.0013    1.2375    0.0000 C   0  0  0  0  0  0  0  0  0  0  0  0
    5.7158    1.6500    0.0000 O   0  0  0  0  0  0  0  0  0  0  0  0
    5.0013    0.4125    0.0000 O   0  0  0  0  0  0  0  0  0  0  0  0
    0.7145    1.2375    0.0000 C   0  0  0  0  0  0  0  0  0  0  0  0
    0.0000    1.6500    0.0000 C   0  0  0  0  0  0  0  0  0  0  0  0
  1  2  1  0  0  0  0
  2  3  1  0  0  0  0
  3  4  2  0  0  0  0
  4  5  1  0  0  0  0
  5  6  2  0  0  0  0
  6  7  1  0  0  0  0
  7  8  1  0  0  0  0
  8  9  1  0  0  0  0
  9 10  1  0  0  0  0
 10 11  1  0  0  0  0
 11 12  1  0  0  0  0
 11 13  2  0  0  0  0
  6 14  1  0  0  0  0
 14 15  2  0  0  0  0
  3 15  1  0  0  0  0
M  CHG  1   1   1
M  END
> <DATABASE_ID>
DB02960

> <DATABASE_NAME>
drugbank

> <SMILES>
[NH3+]CC1=CC=C(CNCCC(O)=O)C=C1

> <INCHI_IDENTIFIER>
InChI=1S/C11H16N2O2/c12-7-9-1-3-10(4-2-9)8-13-6-5-11(14)15/h1-4,13H,5-8,12H2,(H,14,15)/p+1

> <INCHI_KEY>
IHQRRZIPLZXOKB-UHFFFAOYSA-O

> <FORMULA>
C11H17N2O2

> <MOLECULAR_WEIGHT>
209.2649

> <EXACT_MASS>
209.129002798

> <JCHEM_ACCEPTOR_COUNT>
3

> <JCHEM_ATOM_COUNT>
32

> <JCHEM_AVERAGE_NEUTRAL_MICROSPECIES_CHARGE>
0.9880860680517978

> <JCHEM_AVERAGE_POLARIZABILITY>
22.916719423692573

> <JCHEM_BIOAVAILABILITY>
1

> <JCHEM_DONOR_COUNT>
3

> <JCHEM_FORMAL_CHARGE>
1

> <JCHEM_GHOSE_FILTER>
0

> <JCHEM_IUPAC>
(4-{[(2-carboxyethyl)amino]methyl}phenyl)methanaminium

> <ALOGPS_LOGP>
-2.09

> <JCHEM_LOGP>
-2.340682476699852

> <ALOGPS_LOGS>
-3.21

> <JCHEM_MDDR_LIKE_RULE>
0

> <JCHEM_NEUTRAL_CHARGE>
1

> <JCHEM_NUMBER_OF_RINGS>
1

> <JCHEM_PHYSIOLOGICAL_CHARGE>
1

> <JCHEM_PKA_STRONGEST_ACIDIC>
3.5046299862551367

> <JCHEM_PKA_STRONGEST_BASIC>
9.639948170957066

> <JCHEM_POLAR_SURFACE_AREA>
76.97

> <JCHEM_REFRACTIVITY>
69.85620000000002

> <JCHEM_ROTATABLE_BOND_COUNT>
6

> <JCHEM_RULE_OF_FIVE>
1

> <ALOGPS_SOLUBILITY>
1.51e-01 g/l

> <JCHEM_TRADITIONAL_IUPAC>
tetrahydrofolic acid

> <JCHEM_VEBER_RULE>
0

> <DRUGBANK_ID>
DB02960

> <SECONDARY_ACCESSION_NUMBERS>
EXPT02200

> <DRUG_GROUPS>
experimental

> <GENERIC_NAME>
1-Carboxyethylaminomethyl-4-Aminomethylbenzene

$$$$
