
  Mrv0541 02231216372D          

  7  7  0  0  0  0            999 V2000
    0.7145    2.0625    0.0000 N   0  3  0  0  0  0  0  0  0  0  0  0
    0.7145    1.2375    0.0000 C   0  0  0  0  0  0  0  0  0  0  0  0
    1.4289    0.8250    0.0000 C   0  0  0  0  0  0  0  0  0  0  0  0
    1.4289    0.0000    0.0000 C   0  0  0  0  0  0  0  0  0  0  0  0
    0.7145   -0.4125    0.0000 C   0  0  0  0  0  0  0  0  0  0  0  0
    0.0000    0.0000    0.0000 C   0  0  0  0  0  0  0  0  0  0  0  0
    0.0000    0.8250    0.0000 C   0  0  0  0  0  0  0  0  0  0  0  0
  1  2  1  0  0  0  0
  2  3  1  0  0  0  0
  3  4  1  0  0  0  0
  4  5  1  0  0  0  0
  5  6  1  0  0  0  0
  6  7  1  0  0  0  0
  2  7  1  0  0  0  0
M  CHG  1   1   1
M  END
> <DATABASE_ID>
DB02995

> <DATABASE_NAME>
drugbank

> <SMILES>
[NH3+]C1CCCCC1

> <INCHI_IDENTIFIER>
InChI=1S/C6H13N/c7-6-4-2-1-3-5-6/h6H,1-5,7H2/p+1

> <INCHI_KEY>
PAFZNILMFXTMIY-UHFFFAOYSA-O

> <FORMULA>
C6H14N

> <MOLECULAR_WEIGHT>
100.1821

> <EXACT_MASS>
100.112624453

> <JCHEM_ACCEPTOR_COUNT>
0

> <JCHEM_ATOM_COUNT>
21

> <JCHEM_AVERAGE_NEUTRAL_MICROSPECIES_CHARGE>
0.9996492442564873

> <JCHEM_AVERAGE_POLARIZABILITY>
12.7545739996866

> <JCHEM_BIOAVAILABILITY>
1

> <JCHEM_DONOR_COUNT>
1

> <JCHEM_FORMAL_CHARGE>
1

> <JCHEM_GHOSE_FILTER>
0

> <JCHEM_IUPAC>
cyclohexanaminium

> <ALOGPS_LOGP>
-1.15

> <JCHEM_LOGP>
1.1738116663333336

> <ALOGPS_LOGS>
-3.26

> <JCHEM_MDDR_LIKE_RULE>
0

> <JCHEM_NEUTRAL_CHARGE>
1

> <JCHEM_NUMBER_OF_RINGS>
1

> <JCHEM_PHYSIOLOGICAL_CHARGE>
1

> <JCHEM_PKA_STRONGEST_BASIC>
10.454842850802967

> <JCHEM_POLAR_SURFACE_AREA>
27.64

> <JCHEM_REFRACTIVITY>
42.2258

> <JCHEM_ROTATABLE_BOND_COUNT>
0

> <JCHEM_RULE_OF_FIVE>
1

> <ALOGPS_SOLUBILITY>
7.40e-02 g/l

> <JCHEM_TRADITIONAL_IUPAC>
tetrahydrofolic acid

> <JCHEM_VEBER_RULE>
1

> <DRUGBANK_ID>
DB02995

> <SECONDARY_ACCESSION_NUMBERS>
EXPT01690

> <DRUG_GROUPS>
experimental

> <GENERIC_NAME>
Cyclohexylammonium Ion

$$$$
