
  Mrv0541 02231216302D          

  8  8  0  0  0  0            999 V2000
   -0.1467    2.3518    0.0000 O   0  5  0  0  0  0  0  0  0  0  0  0
    0.5678    1.9393    0.0000 C   0  0  0  0  0  0  0  0  0  0  0  0
    1.2822    2.3518    0.0000 O   0  0  0  0  0  0  0  0  0  0  0  0
    0.5678    1.1143    0.0000 C   0  0  0  0  0  0  0  0  0  0  0  0
    1.2352    0.6294    0.0000 N   0  3  0  0  0  0  0  0  0  0  0  0
    0.9803   -0.1553    0.0000 C   0  0  0  0  0  0  0  0  0  0  0  0
    0.1553   -0.1553    0.0000 C   0  0  0  0  0  0  0  0  0  0  0  0
   -0.0997    0.6294    0.0000 C   0  0  0  0  0  0  0  0  0  0  0  0
  1  2  1  0  0  0  0
  2  3  2  0  0  0  0
  2  4  1  0  0  0  0
  4  5  2  0  0  0  0
  5  6  1  0  0  0  0
  6  7  1  0  0  0  0
  7  8  1  0  0  0  0
  4  8  1  0  0  0  0
M  CHG  2   1  -1   5   1
M  END
> <DATABASE_ID>
DB02838

> <DATABASE_NAME>
drugbank

> <SMILES>
[O-]C(=O)C1=[NH+]CCC1

> <INCHI_IDENTIFIER>
InChI=1S/C5H7NO2/c7-5(8)4-2-1-3-6-4/h1-3H2,(H,7,8)

> <INCHI_KEY>
RHTAIKJZSXNELN-UHFFFAOYSA-N

> <FORMULA>
C5H7NO2

> <MOLECULAR_WEIGHT>
113.1146

> <EXACT_MASS>
113.047678473

> <JCHEM_ACCEPTOR_COUNT>
2

> <JCHEM_ATOM_COUNT>
15

> <JCHEM_AVERAGE_NEUTRAL_MICROSPECIES_CHARGE>
-0.3155153139750355

> <JCHEM_AVERAGE_POLARIZABILITY>
10.81138734712021

> <JCHEM_BIOAVAILABILITY>
1

> <JCHEM_DONOR_COUNT>
1

> <JCHEM_FORMAL_CHARGE>
0

> <JCHEM_GHOSE_FILTER>
0

> <JCHEM_IUPAC>
3,4-dihydro-2H-pyrrol-1-ium-5-carboxylate

> <ALOGPS_LOGP>
0.38

> <JCHEM_LOGP>
0.5292144963333332

> <ALOGPS_LOGS>
-0.85

> <JCHEM_MDDR_LIKE_RULE>
0

> <JCHEM_NEUTRAL_CHARGE>
0

> <JCHEM_NUMBER_OF_RINGS>
1

> <JCHEM_PHYSIOLOGICAL_CHARGE>
0

> <JCHEM_PKA_STRONGEST_ACIDIC>
3.9331828370415765

> <JCHEM_PKA_STRONGEST_BASIC>
1.7241099274971199

> <JCHEM_POLAR_SURFACE_AREA>
54.099999999999994

> <JCHEM_REFRACTIVITY>
49.890800000000006

> <JCHEM_ROTATABLE_BOND_COUNT>
1

> <JCHEM_RULE_OF_FIVE>
1

> <ALOGPS_SOLUBILITY>
2.36e+01 g/l

> <JCHEM_TRADITIONAL_IUPAC>
tetrahydrofolic acid

> <JCHEM_VEBER_RULE>
0

> <DRUGBANK_ID>
DB02838

> <SECONDARY_ACCESSION_NUMBERS>
EXPT00141

> <DRUG_GROUPS>
experimental

> <GENERIC_NAME>
3,4-Dihydro-2h-Pyrrolium-5-Carboxylate

$$$$
