
  Mrv0541 02231215562D          

 36 39  0  0  1  0            999 V2000
   -8.0591    2.3987    0.0000 N   0  0  0  0  0  0  0  0  0  0  0  0
   -7.3054    2.0632    0.0000 C   0  0  0  0  0  0  0  0  0  0  0  0
   -6.6380    2.5481    0.0000 C   0  0  0  0  0  0  0  0  0  0  0  0
   -6.5518    3.3686    0.0000 N   0  0  0  0  0  0  0  0  0  0  0  0
   -5.7448    3.5401    0.0000 C   0  0  0  0  0  0  0  0  0  0  0  0
   -5.3323    2.8256    0.0000 N   0  0  0  0  0  0  0  0  0  0  0  0
   -4.5118    2.7394    0.0000 C   0  0  2  0  0  0  0  0  0  0  0  0
   -3.9598    3.3525    0.0000 O   0  0  0  0  0  0  0  0  0  0  0  0
   -3.2061    3.0169    0.0000 C   0  0  2  0  0  0  0  0  0  0  0  0
   -2.4916    3.4294    0.0000 C   0  0  0  0  0  0  0  0  0  0  0  0
   -1.7772    3.0169    0.0000 O   0  0  0  0  0  0  0  0  0  0  0  0
   -1.0627    3.4294    0.0000 P   0  0  1  0  0  0  0  0  0  0  0  0
   -0.6502    2.7150    0.0000 O   0  0  0  0  0  0  0  0  0  0  0  0
   -1.4752    4.1439    0.0000 O   0  0  0  0  0  0  0  0  0  0  0  0
   -0.3482    3.8419    0.0000 O   0  0  0  0  0  0  0  0  0  0  0  0
    0.3663    3.4294    0.0000 P   0  0  1  0  0  0  0  0  0  0  0  0
   -0.0462    2.7150    0.0000 O   0  0  0  0  0  0  0  0  0  0  0  0
    0.7788    4.1439    0.0000 O   0  0  0  0  0  0  0  0  0  0  0  0
    1.0807    3.0169    0.0000 O   0  0  0  0  0  0  0  0  0  0  0  0
    1.7952    3.4294    0.0000 C   0  0  0  0  0  0  0  0  0  0  0  0
    2.5097    3.0169    0.0000 C   0  0  1  0  0  0  0  0  0  0  0  0
    3.2634    3.3525    0.0000 O   0  0  0  0  0  0  0  0  0  0  0  0
    3.8154    2.7394    0.0000 C   0  0  2  0  0  0  0  0  0  0  0  0
    4.6359    2.8256    0.0000 O   0  0  0  0  0  0  0  0  0  0  0  0
    3.4029    2.0249    0.0000 C   0  0  2  0  0  0  0  0  0  0  0  0
    3.7384    1.2712    0.0000 O   0  0  0  0  0  0  0  0  0  0  0  0
    2.5959    2.1964    0.0000 C   0  0  2  0  0  0  0  0  0  0  0  0
    1.9828    1.6444    0.0000 O   0  0  0  0  0  0  0  0  0  0  0  0
   -3.2923    2.1964    0.0000 C   0  0  1  0  0  0  0  0  0  0  0  0
   -2.6792    1.6444    0.0000 O   0  0  0  0  0  0  0  0  0  0  0  0
   -4.0993    2.0249    0.0000 C   0  0  1  0  0  0  0  0  0  0  0  0
   -4.4349    1.2712    0.0000 O   0  0  0  0  0  0  0  0  0  0  0  0
   -5.8843    2.2125    0.0000 C   0  0  0  0  0  0  0  0  0  0  0  0
   -5.7981    1.3920    0.0000 N   0  0  0  0  0  0  0  0  0  0  0  0
   -6.4655    0.9071    0.0000 C   0  0  0  0  0  0  0  0  0  0  0  0
   -7.2192    1.2427    0.0000 N   0  0  0  0  0  0  0  0  0  0  0  0
  1  2  1  0  0  0  0
  2  3  2  0  0  0  0
  3  4  1  0  0  0  0
  4  5  2  0  0  0  0
  5  6  1  0  0  0  0
  7  6  1  6  0  0  0
  7  8  1  0  0  0  0
  8  9  1  0  0  0  0
  9 10  1  6  0  0  0
 10 11  1  0  0  0  0
 12 11  1  1  0  0  0
 12 13  1  6  0  0  0
 12 14  2  0  0  0  0
 12 15  1  0  0  0  0
 16 15  1  1  0  0  0
 16 17  1  6  0  0  0
 16 18  2  0  0  0  0
 16 19  1  0  0  0  0
 19 20  1  0  0  0  0
 21 20  1  1  0  0  0
 21 22  1  0  0  0  0
 22 23  1  0  0  0  0
 23 24  1  6  0  0  0
 23 25  1  0  0  0  0
 25 26  1  6  0  0  0
 25 27  1  0  0  0  0
 21 27  1  0  0  0  0
 27 28  1  6  0  0  0
  9 29  1  0  0  0  0
 29 30  1  1  0  0  0
 29 31  1  0  0  0  0
  7 31  1  0  0  0  0
 31 32  1  1  0  0  0
  6 33  1  0  0  0  0
  3 33  1  0  0  0  0
 33 34  2  0  0  0  0
 34 35  1  0  0  0  0
 35 36  2  0  0  0  0
  2 36  1  0  0  0  0
M  END
> <DATABASE_ID>
DB02059

> <DATABASE_NAME>
drugbank

> <SMILES>
NC1=C2N=CN([C@@H]3O[C@H](CO[P@@](O)(=O)O[P@@](O)(=O)OC[C@H]4O[C@H](O)[C@H](O)[C@@H]4O)[C@@H](O)[C@H]3O)C2=NC=N1

> <INCHI_IDENTIFIER>
InChI=1S/C15H23N5O14P2/c16-12-7-13(18-3-17-12)20(4-19-7)14-10(23)8(21)5(32-14)1-30-35(26,27)34-36(28,29)31-2-6-9(22)11(24)15(25)33-6/h3-6,8-11,14-15,21-25H,1-2H2,(H,26,27)(H,28,29)(H2,16,17,18)/t5-,6-,8-,9-,10-,11-,14-,15+/m1/s1

> <INCHI_KEY>
SRNWOUGRCWSEMX-ZQSHOCFMSA-N

> <FORMULA>
C15H23N5O14P2

> <MOLECULAR_WEIGHT>
559.3157

> <EXACT_MASS>
559.071673493

> <JCHEM_ACCEPTOR_COUNT>
15

> <JCHEM_ATOM_COUNT>
59

> <JCHEM_AVERAGE_NEUTRAL_MICROSPECIES_CHARGE>
-1.9917274391561781

> <JCHEM_AVERAGE_POLARIZABILITY>
46.29025466420544

> <JCHEM_BIOAVAILABILITY>
0

> <JCHEM_DONOR_COUNT>
8

> <JCHEM_FORMAL_CHARGE>
0

> <JCHEM_GHOSE_FILTER>
0

> <JCHEM_IUPAC>
[({[(2R,3S,4R,5R)-5-(6-amino-9H-purin-9-yl)-3,4-dihydroxyoxolan-2-yl]methoxy}(hydroxy)phosphoryl)oxy]({[(2R,3S,4R,5S)-3,4,5-trihydroxyoxolan-2-yl]methoxy})phosphinic acid

> <ALOGPS_LOGP>
-1.80

> <JCHEM_LOGP>
-6.1615488764215405

> <ALOGPS_LOGS>
-2.19

> <JCHEM_MDDR_LIKE_RULE>
1

> <JCHEM_NEUTRAL_CHARGE>
-2

> <JCHEM_NUMBER_OF_RINGS>
4

> <JCHEM_PHYSIOLOGICAL_CHARGE>
-2

> <JCHEM_PKA>
2.283027015166814

> <JCHEM_PKA_STRONGEST_ACIDIC>
1.8542479274454697

> <JCHEM_PKA_STRONGEST_BASIC>
4.930731259644618

> <JCHEM_POLAR_SURFACE_AREA>
291.5199999999999

> <JCHEM_REFRACTIVITY>
111.1233

> <JCHEM_ROTATABLE_BOND_COUNT>
9

> <JCHEM_RULE_OF_FIVE>
0

> <ALOGPS_SOLUBILITY>
3.61e+00 g/l

> <JCHEM_TRADITIONAL_IUPAC>
tetrahydrofolic acid

> <JCHEM_VEBER_RULE>
0

> <DRUGBANK_ID>
DB02059

> <SECONDARY_ACCESSION_NUMBERS>
EXPT00544

> <DRUG_GROUPS>
experimental

> <GENERIC_NAME>
Adenosine-5-Diphosphoribose

> <SYNONYMS>
ADPR

$$$$
