
  Mrv0541 02231217542D          

 27 28  0  0  1  0            999 V2000
   -2.1434   -2.8875    0.0000 C   0  0  0  0  0  0  0  0  0  0  0  0
   -1.4289   -2.4750    0.0000 C   0  0  0  0  0  0  0  0  0  0  0  0
   -1.4289   -1.6500    0.0000 N   0  0  0  0  0  0  0  0  0  0  0  0
   -0.7145   -1.2375    0.0000 C   0  0  0  0  0  0  0  0  0  0  0  0
    0.0000   -1.6500    0.0000 C   0  0  0  0  0  0  0  0  0  0  0  0
    0.7145   -1.2375    0.0000 C   0  0  0  0  0  0  0  0  0  0  0  0
    0.7145   -0.4125    0.0000 N   0  3  0  0  0  0  0  0  0  0  0  0
    0.0000    0.0000    0.0000 C   0  0  0  0  0  0  0  0  0  0  0  0
    0.0000    0.8250    0.0000 C   0  0  0  0  0  0  0  0  0  0  0  0
    0.7145    1.2375    0.0000 C   0  0  0  0  0  0  0  0  0  0  0  0
    1.4289    0.8250    0.0000 C   0  0  0  0  0  0  0  0  0  0  0  0
    2.1434    1.2375    0.0000 C   0  0  0  0  0  0  0  0  0  0  0  0
    2.8579    0.8250    0.0000 C   0  0  0  0  0  0  0  0  0  0  0  0
    3.5724    1.2375    0.0000 O   0  0  0  0  0  0  0  0  0  0  0  0
    4.2868    0.8250    0.0000 P   0  0  2  0  0  0  0  0  0  0  0  0
    3.8743    0.1105    0.0000 O   0  0  0  0  0  0  0  0  0  0  0  0
    4.6993    1.5395    0.0000 O   0  0  0  0  0  0  0  0  0  0  0  0
    5.0013    0.4125    0.0000 O   0  0  0  0  0  0  0  0  0  0  0  0
    5.7158    0.8250    0.0000 P   0  0  0  0  0  0  0  0  0  0  0  0
    6.4302    1.2375    0.0000 O   0  0  0  0  0  0  0  0  0  0  0  0
    6.1283    0.1105    0.0000 O   0  0  0  0  0  0  0  0  0  0  0  0
    5.3033    1.5395    0.0000 O   0  0  0  0  0  0  0  0  0  0  0  0
    1.4289    0.0000    0.0000 C   0  0  0  0  0  0  0  0  0  0  0  0
    2.1434   -0.4125    0.0000 C   0  0  0  0  0  0  0  0  0  0  0  0
    0.0000   -2.4750    0.0000 C   0  0  0  0  0  0  0  0  0  0  0  0
    0.7145   -2.8875    0.0000 N   0  0  0  0  0  0  0  0  0  0  0  0
   -0.7145   -2.8875    0.0000 N   0  0  0  0  0  0  0  0  0  0  0  0
  1  2  1  0  0  0  0
  2  3  2  0  0  0  0
  3  4  1  0  0  0  0
  4  5  2  0  0  0  0
  5  6  1  0  0  0  0
  6  7  1  0  0  0  0
  7  8  2  0  0  0  0
  8  9  1  0  0  0  0
  9 10  2  0  0  0  0
 10 11  1  0  0  0  0
 11 12  1  0  0  0  0
 12 13  1  0  0  0  0
 13 14  1  0  0  0  0
 15 14  1  6  0  0  0
 15 16  1  1  0  0  0
 15 17  2  0  0  0  0
 15 18  1  0  0  0  0
 18 19  1  0  0  0  0
 19 20  1  0  0  0  0
 19 21  1  0  0  0  0
 19 22  2  0  0  0  0
 11 23  2  0  0  0  0
  7 23  1  0  0  0  0
 23 24  1  0  0  0  0
  5 25  1  0  0  0  0
 25 26  1  0  0  0  0
 25 27  2  0  0  0  0
  2 27  1  0  0  0  0
M  CHG  1   7   1
M  END
> <DATABASE_ID>
DB04768

> <DATABASE_NAME>
drugbank

> <SMILES>
CC1=NC=C(C[N+]2=CC=CC(CCO[P@](O)(=O)OP(O)(O)=O)=C2C)C(N)=N1

> <INCHI_IDENTIFIER>
InChI=1S/C14H20N4O7P2/c1-10-12(5-7-24-27(22,23)25-26(19,20)21)4-3-6-18(10)9-13-8-16-11(2)17-14(13)15/h3-4,6,8H,5,7,9H2,1-2H3,(H4-,15,16,17,19,20,21,22,23)/p+1

> <INCHI_KEY>
ZHKSTKOYQKNDSJ-UHFFFAOYSA-O

> <FORMULA>
C14H21N4O7P2

> <MOLECULAR_WEIGHT>
419.2867

> <EXACT_MASS>
419.08854707

> <JCHEM_ACCEPTOR_COUNT>
8

> <JCHEM_ATOM_COUNT>
48

> <JCHEM_AVERAGE_NEUTRAL_MICROSPECIES_CHARGE>
-1.2135356251314038

> <JCHEM_AVERAGE_POLARIZABILITY>
37.424126775320424

> <JCHEM_BIOAVAILABILITY>
1

> <JCHEM_DONOR_COUNT>
4

> <JCHEM_FORMAL_CHARGE>
1

> <JCHEM_GHOSE_FILTER>
0

> <JCHEM_IUPAC>
1-[(4-amino-2-methylpyrimidin-5-yl)methyl]-3-(2-{[hydroxy(phosphonooxy)phosphoryl]oxy}ethyl)-2-methylpyridin-1-ium

> <ALOGPS_LOGP>
-1.22

> <JCHEM_LOGP>
-6.838272825620212

> <ALOGPS_LOGS>
-2.87

> <JCHEM_MDDR_LIKE_RULE>
0

> <JCHEM_NEUTRAL_CHARGE>
-1

> <JCHEM_NUMBER_OF_RINGS>
2

> <JCHEM_PHYSIOLOGICAL_CHARGE>
-1

> <JCHEM_PKA>
2.219946679755034

> <JCHEM_PKA_STRONGEST_ACIDIC>
1.7786703521553096

> <JCHEM_PKA_STRONGEST_BASIC>
6.490394038863026

> <JCHEM_POLAR_SURFACE_AREA>
168.97000000000003

> <JCHEM_REFRACTIVITY>
99.1294

> <JCHEM_ROTATABLE_BOND_COUNT>
8

> <JCHEM_RULE_OF_FIVE>
1

> <ALOGPS_SOLUBILITY>
6.11e-01 g/l

> <JCHEM_TRADITIONAL_IUPAC>
biotin

> <JCHEM_VEBER_RULE>
0

> <DRUGBANK_ID>
DB04768

> <DRUG_GROUPS>
experimental

> <GENERIC_NAME>
Pyrithiamine Pyrophosphate

$$$$
