
  Mrv0541 02231217512D          

  6  6  0  0  0  0            999 V2000
    0.5678    1.9393    0.0000 O   0  0  0  0  0  0  0  0  0  0  0  0
    0.5678    1.1143    0.0000 C   0  0  0  0  0  0  0  0  0  0  0  0
    1.2352    0.6294    0.0000 C   0  0  0  0  0  0  0  0  0  0  0  0
    0.9803   -0.1553    0.0000 C   0  0  0  0  0  0  0  0  0  0  0  0
    0.1553   -0.1553    0.0000 C   0  0  0  0  0  0  0  0  0  0  0  0
   -0.0997    0.6294    0.0000 O   0  0  0  0  0  0  0  0  0  0  0  0
  1  2  2  0  0  0  0
  2  3  1  0  0  0  0
  3  4  1  0  0  0  0
  4  5  1  0  0  0  0
  5  6  1  0  0  0  0
  2  6  1  0  0  0  0
M  END
> <DATABASE_ID>
DB04699

> <DATABASE_NAME>
drugbank

> <SMILES>
O=C1CCCO1

> <INCHI_IDENTIFIER>
InChI=1S/C4H6O2/c5-4-2-1-3-6-4/h1-3H2

> <INCHI_KEY>
YEJRWHAVMIAJKC-UHFFFAOYSA-N

> <FORMULA>
C4H6O2

> <MOLECULAR_WEIGHT>
86.0892

> <EXACT_MASS>
86.036779436

> <JCHEM_ACCEPTOR_COUNT>
1

> <JCHEM_ATOM_COUNT>
12

> <JCHEM_AVERAGE_NEUTRAL_MICROSPECIES_CHARGE>
0.0

> <JCHEM_AVERAGE_POLARIZABILITY>
8.23114899325824

> <JCHEM_BIOAVAILABILITY>
1

> <JCHEM_DONOR_COUNT>
0

> <JCHEM_FORMAL_CHARGE>
0

> <JCHEM_GHOSE_FILTER>
0

> <JCHEM_IUPAC>
oxolan-2-one

> <ALOGPS_LOGP>
-0.11

> <JCHEM_LOGP>
0.14955130566666652

> <ALOGPS_LOGS>
0.44

> <JCHEM_MDDR_LIKE_RULE>
0

> <JCHEM_NEUTRAL_CHARGE>
0

> <JCHEM_NUMBER_OF_RINGS>
1

> <JCHEM_PHYSIOLOGICAL_CHARGE>
0

> <JCHEM_PKA_STRONGEST_BASIC>
-7.033665932739647

> <JCHEM_POLAR_SURFACE_AREA>
26.3

> <JCHEM_REFRACTIVITY>
20.3081

> <JCHEM_ROTATABLE_BOND_COUNT>
0

> <JCHEM_RULE_OF_FIVE>
1

> <ALOGPS_SOLUBILITY>
2.38e+02 g/l

> <JCHEM_TRADITIONAL_IUPAC>
biotin

> <JCHEM_VEBER_RULE>
1

> <DRUGBANK_ID>
DB04699

> <DRUG_GROUPS>
experimental; illicit

> <GENERIC_NAME>
gamma-Butyrolactone

> <SYNONYMS>
1,4-lactone; 4-butyrolactone; 4-hydroxybutyric acid lactone; butyrolactone; dihydrofuran-2(3h)-one; GBL; Î³-butyrolactone

$$$$
