
  Mrv0541 02231217252D          

 19 18  0  0  1  0            999 V2000
    4.3876    0.9096    0.0000 C   0  0  0  0  0  0  0  0  0  0  0  0
    5.0432    1.4103    0.0000 C   0  0  0  0  0  0  0  0  0  0  0  0
    5.8047    1.0928    0.0000 O   0  0  0  0  0  0  0  0  0  0  0  0
    6.4604    1.5936    0.0000 P   0  0  0  0  0  0  0  0  0  0  0  0
    6.9611    0.9379    0.0000 O   0  0  0  0  0  0  0  0  0  0  0  0
    5.9596    2.2492    0.0000 O   0  0  0  0  0  0  0  0  0  0  0  0
    5.1414    2.1434    0.0000 C   0  0  0  0  0  0  0  0  0  0  0  0
    4.6407    2.7991    0.0000 C   0  0  0  0  0  0  0  0  0  0  0  0
    7.1160    2.0943    0.0000 C   0  0  1  0  0  0  0  0  0  0  0  0
    7.0102    2.9125    0.0000 C   0  0  0  0  0  0  0  0  0  0  0  0
    7.8775    1.7769    0.0000 N   0  0  0  0  0  0  0  0  0  0  0  0
    8.5332    2.2776    0.0000 C   0  0  0  0  0  0  0  0  0  0  0  0
    8.4273    3.0958    0.0000 O   0  0  0  0  0  0  0  0  0  0  0  0
    9.2946    1.9601    0.0000 N   0  0  0  0  0  0  0  0  0  0  0  0
    9.9503    2.4609    0.0000 C   0  0  0  0  0  0  0  0  0  0  0  0
   10.7118    2.1434    0.0000 C   0  0  0  0  0  0  0  0  0  0  0  0
   11.3674    2.6441    0.0000 Cl  0  0  0  0  0  0  0  0  0  0  0  0
    9.4005    1.1419    0.0000 N   0  0  0  0  0  0  0  0  0  0  0  0
   10.1619    0.8245    0.0000 O   0  0  0  0  0  0  0  0  0  0  0  0
  1  2  1  0  0  0  0
  2  3  1  0  0  0  0
  3  4  1  0  0  0  0
  4  5  2  0  0  0  0
  4  6  1  0  0  0  0
  6  7  1  0  0  0  0
  7  8  1  0  0  0  0
  4  9  1  0  0  0  0
  9 10  1  1  0  0  0
  9 11  1  0  0  0  0
 11 12  1  0  0  0  0
 12 13  2  0  0  0  0
 12 14  1  0  0  0  0
 14 15  1  0  0  0  0
 15 16  1  0  0  0  0
 16 17  1  0  0  0  0
 14 18  1  0  0  0  0
 18 19  2  0  0  0  0
M  END
> <DATABASE_ID>
DB04106

> <DATABASE_NAME>
drugbank

> <SMILES>
CCOP(=O)(OCC)[C@@H](C)NC(=O)N(CCCl)N=O

> <INCHI_IDENTIFIER>
InChI=1S/C9H19ClN3O5P/c1-4-17-19(16,18-5-2)8(3)11-9(14)13(12-15)7-6-10/h8H,4-7H2,1-3H3,(H,11,14)/t8-/m0/s1

> <INCHI_KEY>
YAKWPXVTIGTRJH-QMMMGPOBSA-N

> <FORMULA>
C9H19ClN3O5P

> <MOLECULAR_WEIGHT>
315.691

> <EXACT_MASS>
315.075084952

> <JCHEM_ACCEPTOR_COUNT>
3

> <JCHEM_ATOM_COUNT>
38

> <JCHEM_AVERAGE_NEUTRAL_MICROSPECIES_CHARGE>
-1.53240700216822e-05

> <JCHEM_AVERAGE_POLARIZABILITY>
29.002636934017463

> <JCHEM_BIOAVAILABILITY>
1

> <JCHEM_DONOR_COUNT>
1

> <JCHEM_FORMAL_CHARGE>
0

> <JCHEM_GHOSE_FILTER>
1

> <JCHEM_IUPAC>
diethyl [(1S)-1-{[N-(2-chloroethyl)-N'-oxohydrazinecarbonyl]amino}ethyl]phosphonate

> <ALOGPS_LOGP>
1.23

> <JCHEM_LOGP>
1.2813361289999992

> <ALOGPS_LOGS>
-1.89

> <JCHEM_MDDR_LIKE_RULE>
0

> <JCHEM_NEUTRAL_CHARGE>
0

> <JCHEM_NUMBER_OF_RINGS>
0

> <JCHEM_PHYSIOLOGICAL_CHARGE>
0

> <JCHEM_PKA_STRONGEST_ACIDIC>
11.814619217012673

> <JCHEM_PKA_STRONGEST_BASIC>
-5.374898733535609

> <JCHEM_POLAR_SURFACE_AREA>
97.29999999999998

> <JCHEM_REFRACTIVITY>
71.4238

> <JCHEM_ROTATABLE_BOND_COUNT>
9

> <JCHEM_RULE_OF_FIVE>
1

> <ALOGPS_SOLUBILITY>
4.11e+00 g/l

> <JCHEM_TRADITIONAL_IUPAC>
tetrahydrofolic acid

> <JCHEM_VEBER_RULE>
0

> <DRUGBANK_ID>
DB04106

> <SECONDARY_ACCESSION_NUMBERS>
EXPT03300

> <DRUG_GROUPS>
investigational

> <GENERIC_NAME>
Fotemustine

> <SYNONYMS>
(+-)-Diethyl (1-(3-(2-chloroethyl)-3-nitrosoureido)ethyl)phosphonate; Diethyl-1-(3-(2-chloroethyl)-3-nitrosoureido)ethylphosphonate; Fotemustina; Fotemustine; Fotemustinum; Mustoforan

$$$$
