
  Mrv0541 05041411112D          

 41 43  0  0  1  0            999 V2000
   -1.7111   -3.2502    0.0000 C   0  0  0  0  0  0  0  0  0  0  0  0
   -0.0000   -4.1250    0.0000 C   0  0  0  0  0  0  0  0  0  0  0  0
   -2.8579   -0.0000    0.0000 C   0  0  0  0  0  0  0  0  0  0  0  0
   -2.8579    0.8250    0.0000 C   0  0  0  0  0  0  0  0  0  0  0  0
    1.4289    0.8250    0.0000 C   0  0  0  0  0  0  0  0  0  0  0  0
   -2.1434   -1.2375    0.0000 C   0  0  0  0  0  0  0  0  0  0  0  0
   -1.4289   -1.6500    0.0000 C   0  0  0  0  0  0  0  0  0  0  0  0
   -2.1434   -0.4125    0.0000 C   0  0  0  0  0  0  0  0  0  0  0  0
   -2.1434    1.2375    0.0000 C   0  0  2  0  0  0  0  0  0  0  0  0
    0.7145    1.2375    0.0000 C   0  0  1  0  0  0  0  0  0  0  0  0
    1.4289   -0.0000    0.0000 C   0  0  2  0  0  0  0  0  0  0  0  0
    0.0000   -0.0000    0.0000 C   0  0  1  0  0  0  0  0  0  0  0  0
   -0.0000   -2.4750    0.0000 C   0  0  2  0  0  0  0  0  0  0  0  0
    0.0000    0.8250    0.0000 C   0  0  2  0  0  0  0  0  0  0  0  0
    0.7145   -0.4125    0.0000 C   0  0  1  0  0  0  0  0  0  0  0  0
   -0.7145   -2.8875    0.0000 C   0  0  2  0  0  0  0  0  0  0  0  0
   -1.4289    0.8250    0.0000 C   0  0  2  0  0  0  0  0  0  0  0  0
    0.0000   -1.6500    0.0000 C   0  0  2  0  0  0  0  0  0  0  0  0
   -1.4289   -2.4750    0.0000 C   0  0  2  0  0  0  0  0  0  0  0  0
   -2.8579   -1.6500    0.0000 N   0  0  0  0  0  0  0  0  0  0  0  0
   -2.1434    2.0625    0.0000 N   0  0  0  0  0  0  0  0  0  0  0  0
    0.7145    2.0625    0.0000 N   0  0  0  0  0  0  0  0  0  0  0  0
    2.1434   -0.4125    0.0000 N   0  0  0  0  0  0  0  0  0  0  0  0
   -0.7145   -3.7125    0.0000 N   0  0  0  0  0  0  0  0  0  0  0  0
   -0.7145   -0.4125    0.0000 O   0  0  0  0  0  0  0  0  0  0  0  0
    0.7145   -2.8875    0.0000 O   0  0  0  0  0  0  0  0  0  0  0  0
   -2.2414   -2.3317    0.0000 O   0  0  0  0  0  0  0  0  0  0  0  0
   -0.7145   -1.2375    0.0000 O   0  0  0  0  0  0  0  0  0  0  0  0
   -1.4289   -0.0000    0.0000 O   0  0  0  0  0  0  0  0  0  0  0  0
   -0.7145    1.2375    0.0000 O   0  0  0  0  0  0  0  0  0  0  0  0
    0.7145   -1.2375    0.0000 O   0  0  0  0  0  0  0  0  0  0  0  0
   -2.8579    1.6500    0.0000 H   0  0  0  0  0  0  0  0  0  0  0  0
    1.4289    1.6500    0.0000 H   0  0  0  0  0  0  0  0  0  0  0  0
    2.1434    0.4125    0.0000 H   0  0  0  0  0  0  0  0  0  0  0  0
   -0.7145    0.4125    0.0000 H   0  0  0  0  0  0  0  0  0  0  0  0
    0.2822   -3.2502    0.0000 H   0  0  0  0  0  0  0  0  0  0  0  0
    0.0000    1.6500    0.0000 H   0  0  0  0  0  0  0  0  0  0  0  0
    1.4289   -0.8250    0.0000 H   0  0  0  0  0  0  0  0  0  0  0  0
   -0.1842   -3.5195    0.0000 H   0  0  0  0  0  0  0  0  0  0  0  0
   -1.4289    1.6500    0.0000 H   0  0  0  0  0  0  0  0  0  0  0  0
    0.7145   -2.0625    0.0000 H   0  0  0  0  0  0  0  0  0  0  0  0
  4  3  1  0  0  0  0
  8  3  2  0  0  0  0
  8  6  1  0  0  0  0
  9  4  1  0  0  0  0
 10  5  1  0  0  0  0
 11  5  1  0  0  0  0
 14 10  1  0  0  0  0
 14 12  1  0  0  0  0
 15 11  1  0  0  0  0
 15 12  1  0  0  0  0
 16 13  1  0  0  0  0
 17  9  1  0  0  0  0
 18 13  1  0  0  0  0
 19  1  1  6  0  0  0
 19  7  1  0  0  0  0
 19 16  1  0  0  0  0
 20  6  1  0  0  0  0
  9 21  1  1  0  0  0
 10 22  1  1  0  0  0
 11 23  1  1  0  0  0
 24  2  1  0  0  0  0
 16 24  1  1  0  0  0
 12 25  1  1  0  0  0
 13 26  1  6  0  0  0
 19 27  1  1  0  0  0
 28  7  1  0  0  0  0
 28 18  1  0  0  0  0
 29  8  1  0  0  0  0
 29 17  1  0  0  0  0
 14 30  1  6  0  0  0
 17 30  1  1  0  0  0
 15 31  1  6  0  0  0
 18 31  1  6  0  0  0
  9 32  1  6  0  0  0
 10 33  1  6  0  0  0
 11 34  1  6  0  0  0
 12 35  1  6  0  0  0
 13 36  1  1  0  0  0
 14 37  1  1  0  0  0
 15 38  1  1  0  0  0
 16 39  1  6  0  0  0
 17 40  1  6  0  0  0
 18 41  1  1  0  0  0
M  END
> <DATABASE_ID>
DB12604

> <DATABASE_NAME>
drugbank

> <SMILES>
[H][C@@]1(N)CC=C(CN)O[C@]1([H])O[C@]1([H])[C@@]([H])(N)C[C@@]([H])(N)[C@]([H])(O[C@@]2([H])OC[C@](C)(O)[C@]([H])(NC)[C@@]2([H])O)[C@@]1([H])O

> <INCHI_IDENTIFIER>
InChI=1S/C19H37N5O7/c1-19(27)7-28-18(13(26)16(19)24-2)31-15-11(23)5-10(22)14(12(15)25)30-17-9(21)4-3-8(6-20)29-17/h3,9-18,24-27H,4-7,20-23H2,1-2H3/t9-,10+,11-,12+,13-,14-,15+,16-,17-,18-,19+/m1/s1

> <INCHI_KEY>
URWAJWIAIPFPJE-YFMIWBNJSA-N

> <FORMULA>
C19H37N5O7

> <MOLECULAR_WEIGHT>
447.5264

> <EXACT_MASS>
447.269298563

> <JCHEM_ACCEPTOR_COUNT>
12

> <JCHEM_ATOM_COUNT>
68

> <JCHEM_AVERAGE_NEUTRAL_MICROSPECIES_CHARGE>
4.736532528221218

> <JCHEM_AVERAGE_POLARIZABILITY>
46.66768517432755

> <JCHEM_BIOAVAILABILITY>
0

> <JCHEM_DONOR_COUNT>
8

> <JCHEM_FORMAL_CHARGE>
0

> <JCHEM_GHOSE_FILTER>
0

> <JCHEM_IUPAC>
(2R,3R,4R,5R)-2-{[(1S,2S,3R,4S,6R)-4,6-diamino-3-{[(2S,3R)-3-amino-6-(aminomethyl)-3,4-dihydro-2H-pyran-2-yl]oxy}-2-hydroxycyclohexyl]oxy}-5-methyl-4-(methylamino)oxane-3,5-diol

> <ALOGPS_LOGP>
-2.03

> <JCHEM_LOGP>
-4.318567550666666

> <ALOGPS_LOGS>
-1.46

> <JCHEM_MDDR_LIKE_RULE>
1

> <JCHEM_NEUTRAL_CHARGE>
5

> <JCHEM_NUMBER_OF_RINGS>
3

> <JCHEM_PHYSIOLOGICAL_CHARGE>
5

> <JCHEM_PKA>
13.159155802521832

> <JCHEM_PKA_STRONGEST_ACIDIC>
12.548251763563155

> <JCHEM_PKA_STRONGEST_BASIC>
9.738114223543352

> <JCHEM_POLAR_SURFACE_AREA>
213.71999999999994

> <JCHEM_REFRACTIVITY>
110.32069999999999

> <JCHEM_ROTATABLE_BOND_COUNT>
6

> <JCHEM_RULE_OF_FIVE>
0

> <ALOGPS_SOLUBILITY>
1.56e+01 g/l

> <JCHEM_TRADITIONAL_IUPAC>
biotin

> <JCHEM_VEBER_RULE>
0

> <DRUGBANK_ID>
DB12604

> <DRUG_GROUPS>
investigational

> <GENERIC_NAME>
Sisomicin

> <SYNONYMS>
Sisomicin

$$$$
