
  Mrv0541 02231217042D          

 17 17  0  0  0  0            999 V2000
    2.1434    1.2375    0.0000 C   0  0  0  0  0  0  0  0  0  0  0  0
    1.4289    0.8250    0.0000 C   0  0  0  0  0  0  0  0  0  0  0  0
    1.4289    0.0000    0.0000 C   0  0  0  0  0  0  0  0  0  0  0  0
    2.1434   -0.4125    0.0000 O   0  0  0  0  0  0  0  0  0  0  0  0
    0.7145   -0.4125    0.0000 C   0  0  0  0  0  0  0  0  0  0  0  0
    0.7145   -1.2375    0.0000 C   0  0  0  0  0  0  0  0  0  0  0  0
    0.0000   -1.6500    0.0000 O   0  0  0  0  0  0  0  0  0  0  0  0
    0.0000    0.0000    0.0000 C   0  0  0  0  0  0  0  0  0  0  0  0
   -0.7145   -0.4125    0.0000 C   0  0  0  0  0  0  0  0  0  0  0  0
   -1.4289    0.0000    0.0000 O   0  0  0  0  0  0  0  0  0  0  0  0
   -2.1434   -0.4125    0.0000 P   0  0  0  0  0  0  0  0  0  0  0  0
   -2.8579   -0.8250    0.0000 O   0  0  0  0  0  0  0  0  0  0  0  0
   -2.5559    0.3020    0.0000 O   0  0  0  0  0  0  0  0  0  0  0  0
   -1.7309   -1.1270    0.0000 O   0  0  0  0  0  0  0  0  0  0  0  0
    0.0000    0.8250    0.0000 C   0  0  0  0  0  0  0  0  0  0  0  0
    0.7145    1.2375    0.0000 N   0  3  0  0  0  0  0  0  0  0  0  0
    0.7145    2.0625    0.0000 O   0  5  0  0  0  0  0  0  0  0  0  0
  1  2  1  0  0  0  0
  2  3  2  0  0  0  0
  3  4  1  0  0  0  0
  3  5  1  0  0  0  0
  5  6  1  0  0  0  0
  6  7  2  0  0  0  0
  5  8  2  0  0  0  0
  8  9  1  0  0  0  0
  9 10  1  0  0  0  0
 10 11  1  0  0  0  0
 11 12  1  0  0  0  0
 11 13  1  0  0  0  0
 11 14  2  0  0  0  0
  8 15  1  0  0  0  0
 15 16  2  0  0  0  0
  2 16  1  0  0  0  0
 16 17  1  0  0  0  0
M  CHG  2  16   1  17  -1
M  END
> <DATABASE_ID>
DB03629

> <DATABASE_NAME>
drugbank

> <SMILES>
CC1=C(O)C(C=O)=C(COP(O)(O)=O)C=[N+]1[O-]

> <INCHI_IDENTIFIER>
InChI=1S/C8H10NO7P/c1-5-8(11)7(3-10)6(2-9(5)12)4-16-17(13,14)15/h2-3,11H,4H2,1H3,(H2,13,14,15)

> <INCHI_KEY>
BBWRYPTUKZTWFD-UHFFFAOYSA-N

> <FORMULA>
C8H10NO7P

> <MOLECULAR_WEIGHT>
263.1413

> <EXACT_MASS>
263.019488191

> <JCHEM_ACCEPTOR_COUNT>
6

> <JCHEM_ATOM_COUNT>
27

> <JCHEM_AVERAGE_NEUTRAL_MICROSPECIES_CHARGE>
-2.7958681266552663

> <JCHEM_AVERAGE_POLARIZABILITY>
21.861296104112263

> <JCHEM_BIOAVAILABILITY>
1

> <JCHEM_DONOR_COUNT>
3

> <JCHEM_FORMAL_CHARGE>
0

> <JCHEM_GHOSE_FILTER>
0

> <JCHEM_IUPAC>
4-formyl-3-hydroxy-2-methyl-5-[(phosphonooxy)methyl]pyridin-1-ium-1-olate

> <ALOGPS_LOGP>
-0.25

> <JCHEM_LOGP>
-1.3766749652969263

> <ALOGPS_LOGS>
-2.00

> <JCHEM_MDDR_LIKE_RULE>
0

> <JCHEM_NEUTRAL_CHARGE>
-3

> <JCHEM_NUMBER_OF_RINGS>
1

> <JCHEM_PHYSIOLOGICAL_CHARGE>
-3

> <JCHEM_PKA>
5.376201226471208

> <JCHEM_PKA_STRONGEST_ACIDIC>
1.6272560590075467

> <JCHEM_PKA_STRONGEST_BASIC>
0.4992453388641075

> <JCHEM_POLAR_SURFACE_AREA>
131.0

> <JCHEM_REFRACTIVITY>
58.30810000000001

> <JCHEM_ROTATABLE_BOND_COUNT>
4

> <JCHEM_RULE_OF_FIVE>
1

> <ALOGPS_SOLUBILITY>
2.66e+00 g/l

> <JCHEM_TRADITIONAL_IUPAC>
tetrahydrofolic acid

> <JCHEM_VEBER_RULE>
0

> <DRUGBANK_ID>
DB03629

> <SECONDARY_ACCESSION_NUMBERS>
EXPT02377

> <DRUG_GROUPS>
experimental

> <GENERIC_NAME>
Pyridoxal-5'-Phosphate-N-Oxide

$$$$
