
  Mrv0541 02231217082D          

 10  9  0  0  0  0            999 V2000
    1.7605   -1.8414    0.0000 C   0  0  0  0  0  0  0  0  0  0  0  0
    2.4750   -1.4289    0.0000 C   0  0  0  0  0  0  0  0  0  0  0  0
    3.1895   -1.8414    0.0000 C   0  0  0  0  0  0  0  0  0  0  0  0
    3.1895   -2.6664    0.0000 O   0  0  0  0  0  0  0  0  0  0  0  0
    3.9039   -1.4289    0.0000 C   0  0  0  0  0  0  0  0  0  0  0  0
    4.6184   -1.8414    0.0000 C   0  0  0  0  0  0  0  0  0  0  0  0
    5.3329   -1.4289    0.0000 C   0  0  0  0  0  0  0  0  0  0  0  0
    6.0474   -1.0164    0.0000 C   0  0  0  0  0  0  0  0  0  0  0  0
    5.7454   -2.1434    0.0000 C   0  0  0  0  0  0  0  0  0  0  0  0
    4.9204   -0.7145    0.0000 O   0  0  0  0  0  0  0  0  0  0  0  0
  1  2  1  0  0  0  0
  2  3  1  0  0  0  0
  3  4  2  0  0  0  0
  3  5  1  0  0  0  0
  5  6  1  0  0  0  0
  6  7  1  0  0  0  0
  7  8  1  0  0  0  0
  7  9  1  0  0  0  0
  7 10  1  0  0  0  0
M  END
> <DATABASE_ID>
DB03711

> <DATABASE_NAME>
drugbank

> <SMILES>
CCC(=O)CCC(C)(C)O

> <INCHI_IDENTIFIER>
InChI=1S/C8H16O2/c1-4-7(9)5-6-8(2,3)10/h10H,4-6H2,1-3H3

> <INCHI_KEY>
FGPMBONEKHYAHO-UHFFFAOYSA-N

> <FORMULA>
C8H16O2

> <MOLECULAR_WEIGHT>
144.2114

> <EXACT_MASS>
144.115029756

> <JCHEM_ACCEPTOR_COUNT>
2

> <JCHEM_ATOM_COUNT>
26

> <JCHEM_AVERAGE_NEUTRAL_MICROSPECIES_CHARGE>
-3.9370339907852535e-09

> <JCHEM_AVERAGE_POLARIZABILITY>
16.858909632315694

> <JCHEM_BIOAVAILABILITY>
1

> <JCHEM_DONOR_COUNT>
1

> <JCHEM_FORMAL_CHARGE>
0

> <JCHEM_GHOSE_FILTER>
0

> <JCHEM_IUPAC>
6-hydroxy-6-methylheptan-3-one

> <ALOGPS_LOGP>
0.91

> <JCHEM_LOGP>
1.212393243666667

> <ALOGPS_LOGS>
-1.03

> <JCHEM_MDDR_LIKE_RULE>
0

> <JCHEM_NEUTRAL_CHARGE>
0

> <JCHEM_NUMBER_OF_RINGS>
0

> <JCHEM_PHYSIOLOGICAL_CHARGE>
0

> <JCHEM_PKA_STRONGEST_ACIDIC>
15.379851436018432

> <JCHEM_PKA_STRONGEST_BASIC>
-2.6326489408255966

> <JCHEM_POLAR_SURFACE_AREA>
37.3

> <JCHEM_REFRACTIVITY>
41.0353

> <JCHEM_ROTATABLE_BOND_COUNT>
4

> <JCHEM_RULE_OF_FIVE>
1

> <ALOGPS_SOLUBILITY>
1.35e+01 g/l

> <JCHEM_TRADITIONAL_IUPAC>
tetrahydrofolic acid

> <JCHEM_VEBER_RULE>
1

> <DRUGBANK_ID>
DB03711

> <SECONDARY_ACCESSION_NUMBERS>
EXPT02062

> <DRUG_GROUPS>
experimental

> <GENERIC_NAME>
6-Hydroxy-6-Methyl-Heptan-3-One

$$$$
