
  Mrv0541 02231216112D          

  6  5  0  0  1  0            999 V2000
    0.8250    1.4289    0.0000 C   0  0  0  0  0  0  0  0  0  0  0  0
    1.2375    0.7145    0.0000 C   0  0  1  0  0  0  0  0  0  0  0  0
    2.0625    0.7145    0.0000 O   0  0  0  0  0  0  0  0  0  0  0  0
    0.8250    0.0000    0.0000 C   0  0  2  0  0  0  0  0  0  0  0  0
    1.2375   -0.7145    0.0000 C   0  0  0  0  0  0  0  0  0  0  0  0
    0.0000    0.0000    0.0000 O   0  0  0  0  0  0  0  0  0  0  0  0
  1  2  1  0  0  0  0
  2  3  1  1  0  0  0
  2  4  1  0  0  0  0
  4  5  1  0  0  0  0
  4  6  1  6  0  0  0
M  END
> <DATABASE_ID>
DB02418

> <DATABASE_NAME>
drugbank

> <SMILES>
C[C@@H](O)[C@H](C)O

> <INCHI_IDENTIFIER>
InChI=1S/C4H10O2/c1-3(5)4(2)6/h3-6H,1-2H3/t3-,4+

> <INCHI_KEY>
OWBTYPJTUOEWEK-ZXZARUISSA-N

> <FORMULA>
C4H10O2

> <MOLECULAR_WEIGHT>
90.121

> <EXACT_MASS>
90.068079564

> <JCHEM_ACCEPTOR_COUNT>
2

> <JCHEM_ATOM_COUNT>
16

> <JCHEM_AVERAGE_NEUTRAL_MICROSPECIES_CHARGE>
-6.152423947260914e-08

> <JCHEM_AVERAGE_POLARIZABILITY>
9.827093542014598

> <JCHEM_BIOAVAILABILITY>
1

> <JCHEM_DONOR_COUNT>
2

> <JCHEM_FORMAL_CHARGE>
0

> <JCHEM_GHOSE_FILTER>
0

> <JCHEM_IUPAC>
(2R,3S)-butane-2,3-diol

> <ALOGPS_LOGP>
-0.59

> <JCHEM_LOGP>
-0.37552903133333315

> <ALOGPS_LOGS>
0.83

> <JCHEM_MDDR_LIKE_RULE>
0

> <JCHEM_NEUTRAL_CHARGE>
0

> <JCHEM_NUMBER_OF_RINGS>
0

> <JCHEM_PHYSIOLOGICAL_CHARGE>
0

> <JCHEM_PKA>
15.678062098346834

> <JCHEM_PKA_STRONGEST_ACIDIC>
14.224481598439644

> <JCHEM_PKA_STRONGEST_BASIC>
-3.006341228739074

> <JCHEM_POLAR_SURFACE_AREA>
40.46

> <JCHEM_REFRACTIVITY>
23.391199999999998

> <JCHEM_ROTATABLE_BOND_COUNT>
1

> <JCHEM_RULE_OF_FIVE>
1

> <ALOGPS_SOLUBILITY>
6.03e+02 g/l

> <JCHEM_TRADITIONAL_IUPAC>
biotin

> <JCHEM_VEBER_RULE>
0

> <DRUGBANK_ID>
DB02418

> <SECONDARY_ACCESSION_NUMBERS>
EXPT00773

> <DRUG_GROUPS>
experimental

> <GENERIC_NAME>
(R,R)-2,3-Butanediol

$$$$
