
  Mrv0541 02241220022D          

  6  6  0  0  0  0            999 V2000
    0.0409   -0.8258    0.0000 C   0  0  0  0  0  0  0  0  0  0  0  0
    0.7022   -0.4125    0.0000 C   0  0  0  0  0  0  0  0  0  0  0  0
    0.7022    0.4125    0.0000 O   0  0  0  0  0  0  0  0  0  0  0  0
    0.0409    0.8258    0.0000 C   0  0  0  0  0  0  0  0  0  0  0  0
   -0.7022    0.4125    0.0000 C   0  0  0  0  0  0  0  0  0  0  0  0
   -0.7022   -0.4125    0.0000 N   0  0  0  0  0  0  0  0  0  0  0  0
  1  2  1  0  0  0  0
  1  6  1  0  0  0  0
  2  3  1  0  0  0  0
  3  4  1  0  0  0  0
  4  5  1  0  0  0  0
  5  6  1  0  0  0  0
M  END
> <DATABASE_ID>
DB13669

> <DATABASE_NAME>
drugbank

> <SMILES>
C1COCCN1

> <INCHI_IDENTIFIER>
InChI=1S/C4H9NO/c1-3-6-4-2-5-1/h5H,1-4H2

> <INCHI_KEY>
YNAVUWVOSKDBBP-UHFFFAOYSA-N

> <FORMULA>
C4H9NO

> <MOLECULAR_WEIGHT>
87.1204

> <EXACT_MASS>
87.068413915

> <JCHEM_ACCEPTOR_COUNT>
2

> <JCHEM_ATOM_COUNT>
15

> <JCHEM_AVERAGE_NEUTRAL_MICROSPECIES_CHARGE>
0.9697216327718543

> <JCHEM_AVERAGE_POLARIZABILITY>
9.465792629528416

> <JCHEM_BIOAVAILABILITY>
1

> <JCHEM_DONOR_COUNT>
1

> <JCHEM_FORMAL_CHARGE>
0

> <JCHEM_GHOSE_FILTER>
0

> <JCHEM_IUPAC>
morpholine

> <ALOGPS_LOGP>
-0.75

> <JCHEM_LOGP>
-0.41137892333333337

> <ALOGPS_LOGS>
0.90

> <JCHEM_MDDR_LIKE_RULE>
0

> <JCHEM_NEUTRAL_CHARGE>
1

> <JCHEM_NUMBER_OF_RINGS>
1

> <JCHEM_PHYSIOLOGICAL_CHARGE>
1

> <JCHEM_PKA_STRONGEST_BASIC>
8.505514632085726

> <JCHEM_POLAR_SURFACE_AREA>
21.259999999999998

> <JCHEM_REFRACTIVITY>
23.7679

> <JCHEM_ROTATABLE_BOND_COUNT>
0

> <JCHEM_RULE_OF_FIVE>
1

> <ALOGPS_SOLUBILITY>
6.91e+02 g/l

> <JCHEM_TRADITIONAL_IUPAC>
biotin

> <JCHEM_VEBER_RULE>
1

> <DRUGBANK_ID>
DB13669

> <DRUG_GROUPS>
experimental

> <GENERIC_NAME>
Morpholine

> <SALTS>
Morpholine salicylate

$$$$
