
  Mrv0541 02231216102D          

  4  3  0  0  0  0            999 V2000
    2.0625   -0.7145    0.0000 C   0  0  0  0  0  0  0  0  0  0  0  0
    1.2375   -0.7145    0.0000 C   0  0  0  0  0  0  0  0  0  0  0  0
    0.8250    0.0000    0.0000 N   0  0  0  0  0  0  0  0  0  0  0  0
    0.0000    0.0000    0.0000 C   0  0  0  0  0  0  0  0  0  0  0  0
  1  2  1  0  0  0  0
  2  3  1  0  0  0  0
  3  4  1  0  0  0  0
M  END
> <DATABASE_ID>
DB02396

> <DATABASE_NAME>
drugbank

> <SMILES>
CCNC

> <INCHI_IDENTIFIER>
InChI=1S/C3H9N/c1-3-4-2/h4H,3H2,1-2H3

> <INCHI_KEY>
LIWAQLJGPBVORC-UHFFFAOYSA-N

> <FORMULA>
C3H9N

> <MOLECULAR_WEIGHT>
59.1103

> <EXACT_MASS>
59.073499293

> <JCHEM_ACCEPTOR_COUNT>
1

> <JCHEM_ATOM_COUNT>
13

> <JCHEM_AVERAGE_NEUTRAL_MICROSPECIES_CHARGE>
0.9997093164953821

> <JCHEM_AVERAGE_POLARIZABILITY>
7.722893849431831

> <JCHEM_BIOAVAILABILITY>
1

> <JCHEM_DONOR_COUNT>
1

> <JCHEM_FORMAL_CHARGE>
0

> <JCHEM_GHOSE_FILTER>
0

> <JCHEM_IUPAC>
ethyl(methyl)amine

> <ALOGPS_LOGP>
0.13

> <JCHEM_LOGP>
0.16392948300000007

> <ALOGPS_LOGS>
0.85

> <JCHEM_MDDR_LIKE_RULE>
0

> <JCHEM_NEUTRAL_CHARGE>
1

> <JCHEM_NUMBER_OF_RINGS>
0

> <JCHEM_PHYSIOLOGICAL_CHARGE>
1

> <JCHEM_PKA_STRONGEST_BASIC>
10.53645335179353

> <JCHEM_POLAR_SURFACE_AREA>
12.03

> <JCHEM_REFRACTIVITY>
19.442

> <JCHEM_ROTATABLE_BOND_COUNT>
1

> <JCHEM_RULE_OF_FIVE>
1

> <ALOGPS_SOLUBILITY>
4.18e+02 g/l

> <JCHEM_TRADITIONAL_IUPAC>
tetrahydrofolic acid

> <JCHEM_VEBER_RULE>
1

> <DRUGBANK_ID>
DB02396

> <SECONDARY_ACCESSION_NUMBERS>
EXPT01370

> <DRUG_GROUPS>
experimental

> <GENERIC_NAME>
Methylethylamine

$$$$
