
  Mrv0541 02231215422D          

 13 12  0  0  1  0            999 V2000
    3.9039    0.6039    0.0000 O   0  0  0  0  0  0  0  0  0  0  0  0
    3.9039    1.4289    0.0000 C   0  0  1  0  0  0  0  0  0  0  0  0
    3.1895    1.8414    0.0000 C   0  0  0  0  0  0  0  0  0  0  0  0
    2.4750    1.4289    0.0000 O   0  0  0  0  0  0  0  0  0  0  0  0
    1.7605    1.8414    0.0000 P   0  0  0  0  0  0  0  0  0  0  0  0
    1.0461    2.2539    0.0000 O   0  0  0  0  0  0  0  0  0  0  0  0
    1.3480    1.1270    0.0000 O   0  0  0  0  0  0  0  0  0  0  0  0
    2.1730    2.5559    0.0000 O   0  0  0  0  0  0  0  0  0  0  0  0
    4.6184    1.8414    0.0000 C   0  0  1  0  0  0  0  0  0  0  0  0
    4.6184    2.6664    0.0000 O   0  0  0  0  0  0  0  0  0  0  0  0
    5.3329    1.4289    0.0000 C   0  0  0  0  0  0  0  0  0  0  0  0
    6.0474    1.8414    0.0000 O   0  0  0  0  0  0  0  0  0  0  0  0
    5.3329    0.6039    0.0000 O   0  0  0  0  0  0  0  0  0  0  0  0
  2  1  1  1  0  0  0
  2  3  1  0  0  0  0
  3  4  1  0  0  0  0
  4  5  1  0  0  0  0
  5  6  1  0  0  0  0
  5  7  1  0  0  0  0
  5  8  2  0  0  0  0
  2  9  1  0  0  0  0
  9 10  1  1  0  0  0
  9 11  1  0  0  0  0
 11 12  1  0  0  0  0
 11 13  2  0  0  0  0
M  END
> <DATABASE_ID>
DB01756

> <DATABASE_NAME>
drugbank

> <SMILES>
O[C@@H](COP(O)(O)=O)[C@@H](O)C(O)=O

> <INCHI_IDENTIFIER>
InChI=1S/C4H9O8P/c5-2(3(6)4(7)8)1-12-13(9,10)11/h2-3,5-6H,1H2,(H,7,8)(H2,9,10,11)/t2-,3+/m0/s1

> <INCHI_KEY>
ZCZXOHUILRHRQJ-STHAYSLISA-N

> <FORMULA>
C4H9O8P

> <MOLECULAR_WEIGHT>
216.0832

> <EXACT_MASS>
216.003503776

> <JCHEM_ACCEPTOR_COUNT>
7

> <JCHEM_ATOM_COUNT>
22

> <JCHEM_AVERAGE_NEUTRAL_MICROSPECIES_CHARGE>
-2.8555035956879604

> <JCHEM_AVERAGE_POLARIZABILITY>
16.14935012938382

> <JCHEM_BIOAVAILABILITY>
1

> <JCHEM_DONOR_COUNT>
5

> <JCHEM_FORMAL_CHARGE>
0

> <JCHEM_GHOSE_FILTER>
0

> <JCHEM_IUPAC>
(2R,3S)-2,3-dihydroxy-4-(phosphonooxy)butanoic acid

> <ALOGPS_LOGP>
-2.33

> <JCHEM_LOGP>
-2.2726404579999997

> <ALOGPS_LOGS>
-1.04

> <JCHEM_MDDR_LIKE_RULE>
0

> <JCHEM_NEUTRAL_CHARGE>
-3

> <JCHEM_NUMBER_OF_RINGS>
0

> <JCHEM_PHYSIOLOGICAL_CHARGE>
-3

> <JCHEM_PKA>
3.469281509972466

> <JCHEM_PKA_STRONGEST_ACIDIC>
1.466216982657708

> <JCHEM_PKA_STRONGEST_BASIC>
-3.615101449431472

> <JCHEM_POLAR_SURFACE_AREA>
144.52

> <JCHEM_REFRACTIVITY>
37.218900000000005

> <JCHEM_ROTATABLE_BOND_COUNT>
5

> <JCHEM_RULE_OF_FIVE>
1

> <ALOGPS_SOLUBILITY>
1.96e+01 g/l

> <JCHEM_TRADITIONAL_IUPAC>
tetrahydrofolic acid

> <JCHEM_VEBER_RULE>
0

> <DRUGBANK_ID>
DB01756

> <SECONDARY_ACCESSION_NUMBERS>
EXPT01163

> <DRUG_GROUPS>
experimental

> <GENERIC_NAME>
4-phospho-L-threonic acid

> <SYNONYMS>
4-O-phosphono-L-threonic acid

$$$$
