
  Mrv0541 02241205142D          

 16 16  0  0  0  0            999 V2000
    4.2868    0.0000    0.0000 C   0  0  0  0  0  0  0  0  0  0  0  0
    3.5724    0.4125    0.0000 O   0  0  0  0  0  0  0  0  0  0  0  0
    2.8579    0.0000    0.0000 P   0  0  0  0  0  0  0  0  0  0  0  0
    2.4454    0.7145    0.0000 S   0  0  0  0  0  0  0  0  0  0  0  0
    3.2704   -0.7145    0.0000 O   0  0  0  0  0  0  0  0  0  0  0  0
    2.8579   -1.4289    0.0000 C   0  0  0  0  0  0  0  0  0  0  0  0
    2.1434   -0.4125    0.0000 O   0  0  0  0  0  0  0  0  0  0  0  0
    1.4289    0.0000    0.0000 C   0  0  0  0  0  0  0  0  0  0  0  0
    0.7145   -0.4125    0.0000 C   0  0  0  0  0  0  0  0  0  0  0  0
    0.0000    0.0000    0.0000 C   0  0  0  0  0  0  0  0  0  0  0  0
    0.0000    0.8250    0.0000 C   0  0  0  0  0  0  0  0  0  0  0  0
   -0.7145    1.2375    0.0000 S   0  0  0  0  0  0  0  0  0  0  0  0
   -1.4289    0.8250    0.0000 C   0  0  0  0  0  0  0  0  0  0  0  0
    0.7145    1.2375    0.0000 C   0  0  0  0  0  0  0  0  0  0  0  0
    0.7145    2.0625    0.0000 C   0  0  0  0  0  0  0  0  0  0  0  0
    1.4289    0.8250    0.0000 C   0  0  0  0  0  0  0  0  0  0  0  0
  1  2  1  0  0  0  0
  2  3  1  0  0  0  0
  3  4  2  0  0  0  0
  3  5  1  0  0  0  0
  5  6  1  0  0  0  0
  3  7  1  0  0  0  0
  7  8  1  0  0  0  0
  8  9  2  0  0  0  0
  9 10  1  0  0  0  0
 10 11  2  0  0  0  0
 11 12  1  0  0  0  0
 12 13  1  0  0  0  0
 11 14  1  0  0  0  0
 14 15  1  0  0  0  0
 14 16  2  0  0  0  0
  8 16  1  0  0  0  0
M  END
> <DATABASE_ID>
DB11412

> <DATABASE_NAME>
drugbank

> <SMILES>
COP(=S)(OC)OC1=CC=C(SC)C(C)=C1

> <INCHI_IDENTIFIER>
InChI=1S/C10H15O3PS2/c1-8-7-9(5-6-10(8)16-4)13-14(15,11-2)12-3/h5-7H,1-4H3

> <INCHI_KEY>
PNVJTZOFSHSLTO-UHFFFAOYSA-N

> <FORMULA>
C10H15O3PS2

> <MOLECULAR_WEIGHT>
278.328

> <EXACT_MASS>
278.020022238

> <JCHEM_ACCEPTOR_COUNT>
0

> <JCHEM_ATOM_COUNT>
31

> <JCHEM_AVERAGE_NEUTRAL_MICROSPECIES_CHARGE>
0.0

> <JCHEM_AVERAGE_POLARIZABILITY>
27.221358266557033

> <JCHEM_BIOAVAILABILITY>
1

> <JCHEM_DONOR_COUNT>
0

> <JCHEM_FORMAL_CHARGE>
0

> <JCHEM_GHOSE_FILTER>
1

> <JCHEM_IUPAC>
O,O-dimethyl O-3-methyl-4-(methylsulfanyl)phenyl phosphorothioate

> <ALOGPS_LOGP>
3.93

> <JCHEM_LOGP>
3.8032449059999998

> <ALOGPS_LOGS>
-4.82

> <JCHEM_MDDR_LIKE_RULE>
0

> <JCHEM_NEUTRAL_CHARGE>
0

> <JCHEM_NUMBER_OF_RINGS>
1

> <JCHEM_PHYSIOLOGICAL_CHARGE>
0

> <JCHEM_POLAR_SURFACE_AREA>
27.69

> <JCHEM_REFRACTIVITY>
73.66740000000001

> <JCHEM_ROTATABLE_BOND_COUNT>
5

> <JCHEM_RULE_OF_FIVE>
1

> <ALOGPS_SOLUBILITY>
4.20e-03 g/l

> <JCHEM_TRADITIONAL_IUPAC>
biotin

> <JCHEM_VEBER_RULE>
1

> <DRUGBANK_ID>
DB11412

> <DRUG_GROUPS>
vet_approved

> <GENERIC_NAME>
Fenthion

> <SYNONYMS>
4-methylmercapto-3-Methylphenyl dimethyl thiophosphate; Mercaptophos; MPP; O,O-Dimethyl O-[3-methyl-4-(methylsulfanyl)phenyl] thiophosphate; O,O-Dimethyl O-4-(methylmercapto)-3-methylphenyl phosphorothioate; O,O-Dimethyl O-4-methylthio-m-tolyl phosphorothioate; O,O-Dimethyl-O-4-(methylmercapto)-3-methylphenyl thiophosphate; Phosphorothioic acid, O,O-dimethyl O-(3-methyl-4-(methylthio)phenyl) ester

$$$$
