
  Mrv0541 02241220212D          

  6  4  0  0  0  0            999 V2000
    1.7321   -2.2688    0.0000 Na  0  3  0  0  0  0  0  0  0  0  0  0
   -0.9071    0.6187    0.0000 O   0  0  0  0  0  0  0  0  0  0  0  0
   -0.9071    1.4438    0.0000 P   0  0  0  0  0  0  0  0  0  0  0  0
   -0.9071    2.2688    0.0000 O   0  5  0  0  0  0  0  0  0  0  0  0
   -1.7321    1.4438    0.0000 O   0  0  0  0  0  0  0  0  0  0  0  0
   -0.0829    1.4438    0.0000 O   0  0  0  0  0  0  0  0  0  0  0  0
  2  3  2  0  0  0  0
  3  4  1  0  0  0  0
  3  5  1  0  0  0  0
  3  6  1  0  0  0  0
M  CHG  2   1   1   4  -1
M  END
> <DATABASE_ID>
DB09449

> <DATABASE_NAME>
drugbank

> <SMILES>
[Na+].OP(O)([O-])=O

> <INCHI_IDENTIFIER>
InChI=1S/Na.H3O4P/c;1-5(2,3)4/h;(H3,1,2,3,4)/q+1;/p-1

> <INCHI_KEY>
AJPJDKMHJJGVTQ-UHFFFAOYSA-M

> <FORMULA>
H2NaO4P

> <MOLECULAR_WEIGHT>
119.977

> <EXACT_MASS>
119.958839739

> <JCHEM_ACCEPTOR_COUNT>
4

> <JCHEM_ATOM_COUNT>
8

> <JCHEM_AVERAGE_NEUTRAL_MICROSPECIES_CHARGE>
-1.6909402832708205

> <JCHEM_AVERAGE_POLARIZABILITY>
5.525938918791973

> <JCHEM_BIOAVAILABILITY>
1

> <JCHEM_DONOR_COUNT>
2

> <JCHEM_FORMAL_CHARGE>
0

> <JCHEM_GHOSE_FILTER>
0

> <JCHEM_IUPAC>
sodium dihydrogen phosphate

> <JCHEM_LOGP>
-1.0201038226666665

> <JCHEM_MDDR_LIKE_RULE>
0

> <JCHEM_NEUTRAL_CHARGE>
-2

> <JCHEM_NUMBER_OF_RINGS>
0

> <JCHEM_PHYSIOLOGICAL_CHARGE>
-2

> <JCHEM_PKA>
6.951626889535468

> <JCHEM_PKA_STRONGEST_ACIDIC>
1.796126134018132

> <JCHEM_POLAR_SURFACE_AREA>
80.59

> <JCHEM_REFRACTIVITY>
13.5302

> <JCHEM_ROTATABLE_BOND_COUNT>
0

> <JCHEM_RULE_OF_FIVE>
1

> <JCHEM_TRADITIONAL_IUPAC>
tetrahydrofolic acid

> <JCHEM_VEBER_RULE>
0

> <DRUGBANK_ID>
DB09449

> <SECONDARY_ACCESSION_NUMBERS>
DB09127; DB11083; DB09524; DB09542; DB09468; DB11084; DB09482; DB09469; DB09525; DBSALT001969

> <DRUG_GROUPS>
approved

> <GENERIC_NAME>
Sodium phosphate, monobasic

> <SYNONYMS>
Disodium hydrogen phosphate anhydrous; Monosodium dihydrogen monophosphate; Monosodium dihydrogen orthophosphate; Monosodium monophosphate; Monosodium phosphate, anhydrous; Phosphoric acid, monosodium salt, anhydrous; Sodium acid phosphate; Sodium biphosphate, anhydrous; Sodium dihydrogen phosphate; Sodium dihydrogen phosphate, anhydrous; Sodium orthophosphate; Sodium orthophosphate monobasic; Sodium phosphate monobasic; Sodium phosphate monobasic (anhydrate); Sodium phosphate monobasic (anhydrous); Sodium phosphate, monobasic; Sodium phosphate, monobasic anhydrous; Sodium phosphate,monobasic; Sodium primary phosphate

> <PRODUCTS>
ADSOL Red Cell Preservation Solution System in Plastic Container (PL 146 Plastic); Additive Formula 3; Additive Solution Formula 3 As-3; Adsol Red Cell Preservation; Alphaligo; Anticoagulant Cit Phos Dex Adenine Sol USP; Anticoagulant Citrate Phosphate Dextrose (CPD) Blood-Pack Units in PL 146 Plastic; Anticoagulant Solution Citrate Phosphate Dextrose (CPD); As 3; Av-Phos 250 Neutral; Azuphen Mb; Blood Pack Unit Cpd; CPD Solution; CPD/ADSOL Red Cell Preservation Solution System (PL 2209); CPDA-1 Blood Collection System; Cpd; Cpd Adenine Cpda 1; Cpd/adsol; Cpda-1; Darpaz; Dibasic Sodium Phosphate, Monobasic Potassium Phosphate and Monobasic Sodium Phosphate; E-Z Cups; Elliotts B; Eyesaline Eyewash; Gent-L-tip Phosphate Enema; Glycerolyte 57 Solution; Haemonetics Additive Solution Formula 3 (AS-3); Haemonetics Anticoagulant Citrate Phosphate Double Dextrose Solution (CP2D); Hyolev Mb; Indiomin Mb; Instillation Medium for Immucyst; InterSol; Ionosol B and Dextrose; Ionosol MB and Dextrose; Ionosol and Dextrose; K Phos Neutral; K-Phos No. 2; Leucoflex CGP; Leukotrap WB System; MTL1 Leucoflex; Me NaPhos MB Hyo 1; Monobasic Sodium Phosphate and Dibasic Sodium Phosphate; Nutricel Additive System - CP2D; OsmoPrep; PMS-phosphates Solution; Pall Sterile Cord Blood Collection Unit; Phosenamine; Phosphasal; Phospho-Trin 250 Neutral; Phospho-soda Buffered Saline Laxative; Rejuvesol; Riga Purgative Lemon Flav Liq; Sodium Phosphates; Sodium Phosphates Injection USP; Solucion InterSol; Solution Saline Sterile Aux Phosphates; Ssp+; Sterile Cord Blood Collection Unit; Sterile Cord Blood Collection Unit (MSC127D); Sterile Cord Blood Collection Unit (MSC128D); Sterile Cord Blood Collection Unit (msc123d); TERUFLEX Blood Bag System Anticoagulant Citrate Phosphate Dextrose Adenine (CPDA-1); UR N-C Urinary Antiseptic; Uramit Mb; Urelle; Uretron D/S; Uribel; Urimar-T; Urin D/S; Uro-458; Uro-L; Uro-MP; Uro-SP; UroAv-81; UroAv-B; Ustell; Utac; Utira-C; Vilamit MB; Vilevev MB; Virt Phos 250 Neutral; Virt-Phos 250 Neutral; Visicol

> <SALTS>
Sodium phosphate, monobasic, dihydrate; Sodium phosphate, monobasic, monohydrate

$$$$
