
  Mrv0541 02231216562D          

  7  6  0  0  1  0            999 V2000
    2.0625    0.7145    0.0000 C   0  0  0  0  0  0  0  0  0  0  0  0
    1.2375    0.7145    0.0000 C   0  0  2  0  0  0  0  0  0  0  0  0
    0.8250    1.4289    0.0000 C   0  0  0  0  0  0  0  0  0  0  0  0
    1.2375    2.1434    0.0000 N   0  0  0  0  0  0  0  0  0  0  0  0
    0.8250    0.0000    0.0000 C   0  0  0  0  0  0  0  0  0  0  0  0
    1.2375   -0.7145    0.0000 O   0  5  0  0  0  0  0  0  0  0  0  0
    0.0000    0.0000    0.0000 O   0  0  0  0  0  0  0  0  0  0  0  0
  2  1  1  1  0  0  0
  2  3  1  0  0  0  0
  3  4  1  0  0  0  0
  2  5  1  0  0  0  0
  5  6  1  0  0  0  0
  5  7  2  0  0  0  0
M  CHG  1   6  -1
M  END
> <DATABASE_ID>
DB03432

> <DATABASE_NAME>
drugbank

> <SMILES>
C[C@H](CN)C([O-])=O

> <INCHI_IDENTIFIER>
InChI=1S/C4H9NO2/c1-3(2-5)4(6)7/h3H,2,5H2,1H3,(H,6,7)/p-1/t3-/m1/s1

> <INCHI_KEY>
QCHPKSFMDHPSNR-GSVOUGTGSA-M

> <FORMULA>
C4H8NO2

> <MOLECULAR_WEIGHT>
102.1118

> <EXACT_MASS>
102.055503505

> <JCHEM_ACCEPTOR_COUNT>
3

> <JCHEM_ATOM_COUNT>
15

> <JCHEM_AVERAGE_NEUTRAL_MICROSPECIES_CHARGE>
0.00019534943796828408

> <JCHEM_AVERAGE_POLARIZABILITY>
10.036050319460799

> <JCHEM_BIOAVAILABILITY>
1

> <JCHEM_DONOR_COUNT>
1

> <JCHEM_FORMAL_CHARGE>
-1

> <JCHEM_GHOSE_FILTER>
0

> <JCHEM_IUPAC>
(2R)-3-amino-2-methylpropanoate

> <ALOGPS_LOGP>
-0.83

> <JCHEM_LOGP>
-2.6306785728873137

> <ALOGPS_LOGS>
0.67

> <JCHEM_MDDR_LIKE_RULE>
0

> <JCHEM_NEUTRAL_CHARGE>
0

> <JCHEM_NUMBER_OF_RINGS>
0

> <JCHEM_PHYSIOLOGICAL_CHARGE>
0

> <JCHEM_PKA_STRONGEST_ACIDIC>
4.17495406481514

> <JCHEM_PKA_STRONGEST_BASIC>
10.324199994995906

> <JCHEM_POLAR_SURFACE_AREA>
66.15

> <JCHEM_REFRACTIVITY>
36.1144

> <JCHEM_ROTATABLE_BOND_COUNT>
2

> <JCHEM_RULE_OF_FIVE>
1

> <ALOGPS_SOLUBILITY>
5.67e+02 g/l

> <JCHEM_TRADITIONAL_IUPAC>
biotin

> <JCHEM_VEBER_RULE>
0

> <DRUGBANK_ID>
DB03432

> <SECONDARY_ACCESSION_NUMBERS>
EXPT00706

> <DRUG_GROUPS>
experimental

> <GENERIC_NAME>
Beta-Amino Isobutyrate

$$$$
