
  Mrv0541 05041400042D          

 53 56  0  0  1  0            999 V2000
    2.8579   -7.4250    0.0000 C   0  0  0  0  0  0  0  0  0  0  0  0
   -6.4302   -3.7125    0.0000 C   0  0  0  0  0  0  0  0  0  0  0  0
   -6.4302   -4.5375    0.0000 C   0  0  0  0  0  0  0  0  0  0  0  0
    4.2868   -3.3000    0.0000 C   0  0  0  0  0  0  0  0  0  0  0  0
    5.7158   -5.7750    0.0000 C   0  0  0  0  0  0  0  0  0  0  0  0
    5.7158   -4.9500    0.0000 C   0  0  0  0  0  0  0  0  0  0  0  0
    2.1434   -7.0125    0.0000 C   0  0  0  0  0  0  0  0  0  0  0  0
    1.4289   -3.3000    0.0000 C   0  0  0  0  0  0  0  0  0  0  0  0
    2.1434   -3.7125    0.0000 C   0  0  0  0  0  0  0  0  0  0  0  0
   -0.7145   -7.0125    0.0000 C   0  0  0  0  0  0  0  0  0  0  0  0
   -0.7145   -6.1875    0.0000 C   0  0  0  0  0  0  0  0  0  0  0  0
   -1.4289   -7.4250    0.0000 C   0  0  0  0  0  0  0  0  0  0  0  0
    0.7145   -3.7125    0.0000 C   0  0  0  0  0  0  0  0  0  0  0  0
   -2.8579   -4.9500    0.0000 C   0  0  0  0  0  0  0  0  0  0  0  0
   -3.5724   -3.7125    0.0000 C   0  0  0  0  0  0  0  0  0  0  0  0
   -2.1434   -4.5375    0.0000 C   0  0  0  0  0  0  0  0  0  0  0  0
   -4.2868   -3.3000    0.0000 C   0  0  0  0  0  0  0  0  0  0  0  0
    2.1434   -4.5375    0.0000 C   0  0  0  0  0  0  0  0  0  0  0  0
   -4.2868   -4.9500    0.0000 C   0  0  0  0  0  0  0  0  0  0  0  0
   -2.1434   -6.1875    0.0000 C   0  0  0  0  0  0  0  0  0  0  0  0
    2.8579   -4.9500    0.0000 C   0  0  0  0  0  0  0  0  0  0  0  0
    3.5724   -6.1875    0.0000 C   0  0  0  0  0  0  0  0  0  0  0  0
   -2.8579   -8.2500    0.0000 C   0  0  0  0  0  0  0  0  0  0  0  0
   -3.5724   -4.5375    0.0000 C   0  0  0  0  0  0  0  0  0  0  0  0
   -1.4289   -5.7750    0.0000 C   0  0  0  0  0  0  0  0  0  0  0  0
    2.8579   -5.7750    0.0000 C   0  0  0  0  0  0  0  0  0  0  0  0
   -2.1434   -7.0125    0.0000 C   0  0  0  0  0  0  0  0  0  0  0  0
    2.1434   -6.1875    0.0000 C   0  0  1  0  0  0  0  0  0  0  0  0
    0.7145   -4.5375    0.0000 C   0  0  1  0  0  0  0  0  0  0  0  0
   -1.4289   -4.9500    0.0000 C   0  0  2  0  0  0  0  0  0  0  0  0
   -5.0013   -3.7125    0.0000 C   0  0  0  0  0  0  0  0  0  0  0  0
   -5.0013   -4.5375    0.0000 C   0  0  0  0  0  0  0  0  0  0  0  0
    3.5724   -4.5375    0.0000 C   0  0  0  0  0  0  0  0  0  0  0  0
    4.2868   -5.7750    0.0000 C   0  0  0  0  0  0  0  0  0  0  0  0
   -3.5724   -8.6625    0.0000 C   0  0  0  0  0  0  0  0  0  0  0  0
    4.2868   -4.9500    0.0000 C   0  0  0  0  0  0  0  0  0  0  0  0
    1.4289   -5.7750    0.0000 C   0  0  0  0  0  0  0  0  0  0  0  0
    0.0000   -4.9500    0.0000 C   0  0  0  0  0  0  0  0  0  0  0  0
    1.4289   -4.9500    0.0000 N   0  0  0  0  0  0  0  0  0  0  0  0
   -3.5724   -9.4875    0.0000 O   0  0  0  0  0  0  0  0  0  0  0  0
   -4.2868   -8.2500    0.0000 O   0  0  0  0  0  0  0  0  0  0  0  0
    0.7145   -6.1875    0.0000 O   0  0  0  0  0  0  0  0  0  0  0  0
    0.0000   -5.7750    0.0000 O   0  0  0  0  0  0  0  0  0  0  0  0
   -5.7158   -3.3000    0.0000 O   0  0  0  0  0  0  0  0  0  0  0  0
   -5.7158   -4.9500    0.0000 O   0  0  0  0  0  0  0  0  0  0  0  0
    3.5724   -3.7125    0.0000 O   0  0  0  0  0  0  0  0  0  0  0  0
    5.0013   -6.1875    0.0000 O   0  0  0  0  0  0  0  0  0  0  0  0
    5.0013   -4.5375    0.0000 O   0  0  0  0  0  0  0  0  0  0  0  0
   -2.8579   -7.4250    0.0000 O   0  0  0  0  0  0  0  0  0  0  0  0
   -0.7145   -4.5375    0.0000 O   0  0  0  0  0  0  0  0  0  0  0  0
    2.8579   -6.6000    0.0000 H   0  0  0  0  0  0  0  0  0  0  0  0
    0.0000   -4.1250    0.0000 H   0  0  0  0  0  0  0  0  0  0  0  0
   -2.1434   -5.3625    0.0000 H   0  0  0  0  0  0  0  0  0  0  0  0
  7  1  1  0  0  0  0
  9  8  1  0  0  0  0
 11 10  2  0  0  0  0
 12 10  1  0  0  0  0
 13  8  1  0  0  0  0
 16 14  1  0  0  0  0
 17 15  2  0  0  0  0
 18  9  1  0  0  0  0
 24 14  1  0  0  0  0
 24 15  1  0  0  0  0
 24 19  2  0  0  0  0
 25 11  1  0  0  0  0
 25 20  2  0  0  0  0
 26 21  2  0  0  0  0
 26 22  1  0  0  0  0
 27 12  2  0  0  0  0
 27 20  1  0  0  0  0
 28  7  1  0  0  0  0
 28 26  1  0  0  0  0
 29 13  1  0  0  0  0
 30 16  1  0  0  0  0
 30 25  1  0  0  0  0
 31 17  1  0  0  0  0
 32 19  1  0  0  0  0
 32 31  2  0  0  0  0
 33 21  1  0  0  0  0
 34 22  2  0  0  0  0
 35 23  1  0  0  0  0
 36 33  2  0  0  0  0
 36 34  1  0  0  0  0
 28 37  1  1  0  0  0
 29 38  1  6  0  0  0
 39 18  1  0  0  0  0
 39 29  1  0  0  0  0
 39 37  1  0  0  0  0
 40 35  2  0  0  0  0
 41 35  1  0  0  0  0
 42 37  2  0  0  0  0
 43 38  2  0  0  0  0
 44  2  1  0  0  0  0
 44 31  1  0  0  0  0
 45  3  1  0  0  0  0
 45 32  1  0  0  0  0
 46  4  1  0  0  0  0
 46 33  1  0  0  0  0
 47  5  1  0  0  0  0
 47 34  1  0  0  0  0
 48  6  1  0  0  0  0
 48 36  1  0  0  0  0
 49 23  1  0  0  0  0
 49 27  1  0  0  0  0
 30 50  1  6  0  0  0
 50 38  1  0  0  0  0
 28 51  1  1  0  0  0
 29 52  1  1  0  0  0
 30 53  1  6  0  0  0
M  END
> <DATABASE_ID>
DB01723

> <DATABASE_NAME>
drugbank

> <SMILES>
[H][C@](CCC1=CC(OC)=C(OC)C=C1)(OC(=O)[C@]1([H])CCCCN1C(=O)[C@@]([H])(CC)C1=CC(OC)=C(OC)C(OC)=C1)C1=CC(OCC(O)=O)=CC=C1

> <INCHI_IDENTIFIER>
InChI=1S/C38H47NO11/c1-7-28(26-21-33(46-4)36(48-6)34(22-26)47-5)37(42)39-18-9-8-13-29(39)38(43)50-30(25-11-10-12-27(20-25)49-23-35(40)41)16-14-24-15-17-31(44-2)32(19-24)45-3/h10-12,15,17,19-22,28-30H,7-9,13-14,16,18,23H2,1-6H3,(H,40,41)/t28-,29-,30+/m0/s1

> <INCHI_KEY>
XCCRAOPQCACRFC-OIFRRMEBSA-N

> <FORMULA>
C38H47NO11

> <MOLECULAR_WEIGHT>
693.7799

> <EXACT_MASS>
693.314911351

> <JCHEM_ACCEPTOR_COUNT>
10

> <JCHEM_ATOM_COUNT>
97

> <JCHEM_AVERAGE_NEUTRAL_MICROSPECIES_CHARGE>
-0.9997238488127015

> <JCHEM_AVERAGE_POLARIZABILITY>
74.67689634990427

> <JCHEM_BIOAVAILABILITY>
0

> <JCHEM_DONOR_COUNT>
1

> <JCHEM_FORMAL_CHARGE>
0

> <JCHEM_GHOSE_FILTER>
0

> <JCHEM_IUPAC>
2-{3-[(1R)-3-(3,4-dimethoxyphenyl)-1-[(2S)-1-[(2S)-2-(3,4,5-trimethoxyphenyl)butanoyl]piperidine-2-carbonyloxy]propyl]phenoxy}acetic acid

> <ALOGPS_LOGP>
5.32

> <JCHEM_LOGP>
5.699057239

> <ALOGPS_LOGS>
-5.87

> <JCHEM_MDDR_LIKE_RULE>
1

> <JCHEM_NEUTRAL_CHARGE>
-1

> <JCHEM_NUMBER_OF_RINGS>
4

> <JCHEM_PHYSIOLOGICAL_CHARGE>
-1

> <JCHEM_PKA_STRONGEST_ACIDIC>
3.4412668762877914

> <JCHEM_PKA_STRONGEST_BASIC>
-1.5234085818922005

> <JCHEM_POLAR_SURFACE_AREA>
139.29000000000002

> <JCHEM_REFRACTIVITY>
184.01290000000003

> <JCHEM_ROTATABLE_BOND_COUNT>
18

> <JCHEM_RULE_OF_FIVE>
0

> <ALOGPS_SOLUBILITY>
9.40e-04 g/l

> <JCHEM_TRADITIONAL_IUPAC>
biotin

> <JCHEM_VEBER_RULE>
0

> <DRUGBANK_ID>
DB01723

> <SECONDARY_ACCESSION_NUMBERS>
EXPT00532

> <DRUG_GROUPS>
experimental

> <GENERIC_NAME>
{3-[3-(3,4-Dimethoxy-Phenyl)-1-(1-{1-[2-(3,4,5-Trimethoxy-Phenyl)-Butyryl]-Piperidin-2yl}-Vinyloxy)-Propyl]-Phenoxy}-Acetic Acid

$$$$
