
  Mrv0541 02231216482D          

 11 10  0  0  1  0            999 V2000
    2.6664    2.3645    0.0000 C   0  0  0  0  0  0  0  0  0  0  0  0
    1.9520    1.9520    0.0000 C   0  0  0  0  0  0  0  0  0  0  0  0
    1.9520    1.1270    0.0000 C   0  0  1  0  0  0  0  0  0  0  0  0
    1.2375    0.7145    0.0000 O   0  0  0  0  0  0  0  0  0  0  0  0
    1.2375   -0.1105    0.0000 P   0  0  0  0  0  0  0  0  0  0  0  0
    1.2375   -0.9355    0.0000 O   0  0  0  0  0  0  0  0  0  0  0  0
    0.4125   -0.1105    0.0000 O   0  0  0  0  0  0  0  0  0  0  0  0
    2.0625   -0.1105    0.0000 O   0  0  0  0  0  0  0  0  0  0  0  0
    2.6664    0.7145    0.0000 C   0  0  0  0  0  0  0  0  0  0  0  0
    3.3809    1.1270    0.0000 O   0  0  0  0  0  0  0  0  0  0  0  0
    2.6664   -0.1105    0.0000 O   0  0  0  0  0  0  0  0  0  0  0  0
  1  2  1  0  0  0  0
  2  3  1  0  0  0  0
  3  4  1  6  0  0  0
  4  5  1  0  0  0  0
  5  6  1  0  0  0  0
  5  7  1  0  0  0  0
  5  8  2  0  0  0  0
  3  9  1  0  0  0  0
  9 10  1  0  0  0  0
  9 11  2  0  0  0  0
M  END
> <DATABASE_ID>
DB03248

> <DATABASE_NAME>
drugbank

> <SMILES>
CC[C@@H](OP(O)(O)=O)C(O)=O

> <INCHI_IDENTIFIER>
InChI=1S/C4H9O6P/c1-2-3(4(5)6)10-11(7,8)9/h3H,2H2,1H3,(H,5,6)(H2,7,8,9)/t3-/m1/s1

> <INCHI_KEY>
OETAGSCBSKODFW-GSVOUGTGSA-N

> <FORMULA>
C4H9O6P

> <MOLECULAR_WEIGHT>
184.0844

> <EXACT_MASS>
184.013674532

> <JCHEM_ACCEPTOR_COUNT>
5

> <JCHEM_ATOM_COUNT>
20

> <JCHEM_AVERAGE_NEUTRAL_MICROSPECIES_CHARGE>
-2.6794006432778135

> <JCHEM_AVERAGE_POLARIZABILITY>
14.377494877257542

> <JCHEM_BIOAVAILABILITY>
1

> <JCHEM_DONOR_COUNT>
3

> <JCHEM_FORMAL_CHARGE>
0

> <JCHEM_GHOSE_FILTER>
0

> <JCHEM_IUPAC>
(2R)-2-(phosphonooxy)butanoic acid

> <ALOGPS_LOGP>
-1.43

> <JCHEM_LOGP>
-0.07287315433333336

> <ALOGPS_LOGS>
-0.92

> <JCHEM_MDDR_LIKE_RULE>
0

> <JCHEM_NEUTRAL_CHARGE>
-3

> <JCHEM_NUMBER_OF_RINGS>
0

> <JCHEM_PHYSIOLOGICAL_CHARGE>
-3

> <JCHEM_PKA>
3.8250785290997387

> <JCHEM_PKA_STRONGEST_ACIDIC>
1.1440302270512959

> <JCHEM_POLAR_SURFACE_AREA>
104.06

> <JCHEM_REFRACTIVITY>
34.236700000000006

> <JCHEM_ROTATABLE_BOND_COUNT>
4

> <JCHEM_RULE_OF_FIVE>
1

> <ALOGPS_SOLUBILITY>
2.21e+01 g/l

> <JCHEM_TRADITIONAL_IUPAC>
biotin

> <JCHEM_VEBER_RULE>
0

> <DRUGBANK_ID>
DB03248

> <SECONDARY_ACCESSION_NUMBERS>
EXPT02552

> <DRUG_GROUPS>
experimental

> <GENERIC_NAME>
2-(Phosphonooxy)Butanoic Acid

$$$$
