
  Mrv0541 05041403552D          

 14 14  0  0  0  0            999 V2000
    1.4289   -0.0000    0.0000 C   0  0  0  0  0  0  0  0  0  0  0  0
    0.0000   -0.0000    0.0000 C   0  0  0  0  0  0  0  0  0  0  0  0
    1.4289    0.8250    0.0000 C   0  0  0  0  0  0  0  0  0  0  0  0
    0.0000    0.8250    0.0000 C   0  0  0  0  0  0  0  0  0  0  0  0
    0.7145   -1.2375    0.0000 C   0  0  0  0  0  0  0  0  0  0  0  0
    0.7145   -0.4125    0.0000 C   0  0  0  0  0  0  0  0  0  0  0  0
    0.7145    1.2375    0.0000 C   0  0  0  0  0  0  0  0  0  0  0  0
    1.4289   -1.6500    0.0000 C   0  0  0  0  0  0  0  0  0  0  0  0
    2.1434   -1.2375    0.0000 C   0  0  0  0  0  0  0  0  0  0  0  0
    1.4289   -2.4750    0.0000 F   0  0  0  0  0  0  0  0  0  0  0  0
    0.7145    2.0625    0.0000 O   0  5  0  0  0  0  0  0  0  0  0  0
    2.1434   -0.4125    0.0000 O   0  0  0  0  0  0  0  0  0  0  0  0
    2.8579   -1.6500    0.0000 O   0  0  0  0  0  0  0  0  0  0  0  0
   -0.0000   -1.6500    0.0000 H   0  0  0  0  0  0  0  0  0  0  0  0
  3  1  1  0  0  0  0
  4  2  2  0  0  0  0
  6  1  2  0  0  0  0
  6  2  1  0  0  0  0
  6  5  1  0  0  0  0
  7  3  2  0  0  0  0
  7  4  1  0  0  0  0
  8  5  2  0  0  0  0
  9  8  1  0  0  0  0
 10  8  1  0  0  0  0
 11  7  1  0  0  0  0
 12  9  2  0  0  0  0
 13  9  1  0  0  0  0
 14  5  1  0  0  0  0
M  CHG  1  11  -1
M  END
> <DATABASE_ID>
DB02384

> <DATABASE_NAME>
drugbank

> <SMILES>
[H]\C(=C(/F)C(O)=O)C1=CC=C([O-])C=C1

> <INCHI_IDENTIFIER>
InChI=1S/C9H7FO3/c10-8(9(12)13)5-6-1-3-7(11)4-2-6/h1-5,11H,(H,12,13)/p-1/b8-5+

> <INCHI_KEY>
SBIZDOWXYPNTOJ-VMPITWQZSA-M

> <FORMULA>
C9H6FO3

> <MOLECULAR_WEIGHT>
181.1405

> <EXACT_MASS>
181.030097263

> <JCHEM_ACCEPTOR_COUNT>
3

> <JCHEM_ATOM_COUNT>
19

> <JCHEM_AVERAGE_NEUTRAL_MICROSPECIES_CHARGE>
-1.0056008540538763

> <JCHEM_AVERAGE_POLARIZABILITY>
15.940602142078877

> <JCHEM_BIOAVAILABILITY>
1

> <JCHEM_DONOR_COUNT>
1

> <JCHEM_FORMAL_CHARGE>
-1

> <JCHEM_GHOSE_FILTER>
0

> <JCHEM_IUPAC>
4-[(1E)-2-carboxy-2-fluoroeth-1-en-1-yl]benzen-1-olate

> <ALOGPS_LOGP>
2.06

> <JCHEM_LOGP>
1.760130515

> <ALOGPS_LOGS>
-2.68

> <JCHEM_MDDR_LIKE_RULE>
0

> <JCHEM_NEUTRAL_CHARGE>
-1

> <JCHEM_NUMBER_OF_RINGS>
1

> <JCHEM_PHYSIOLOGICAL_CHARGE>
-1

> <JCHEM_PKA>
9.247829986214137

> <JCHEM_PKA_STRONGEST_ACIDIC>
2.278020680429891

> <JCHEM_PKA_STRONGEST_BASIC>
-5.974791023226887

> <JCHEM_POLAR_SURFACE_AREA>
60.36

> <JCHEM_REFRACTIVITY>
55.794000000000004

> <JCHEM_ROTATABLE_BOND_COUNT>
2

> <JCHEM_RULE_OF_FIVE>
1

> <ALOGPS_SOLUBILITY>
4.15e-01 g/l

> <JCHEM_TRADITIONAL_IUPAC>
biotin

> <JCHEM_VEBER_RULE>
0

> <DRUGBANK_ID>
DB02384

> <SECONDARY_ACCESSION_NUMBERS>
EXPT01432

> <DRUG_GROUPS>
experimental

> <GENERIC_NAME>
(E)-2-Fluoro-P-Hydroxycinnamate

$$$$
