
  Mrv0541 09131211452D          

 26 27  0  0  0  0            999 V2000
    2.8579    2.4750    0.0000 C   0  0  0  0  0  0  0  0  0  0  0  0
    2.1434    2.0625    0.0000 C   0  0  0  0  0  0  0  0  0  0  0  0
    8.5737    3.3000    0.0000 C   0  0  0  0  0  0  0  0  0  0  0  0
    7.8592    3.7125    0.0000 C   0  0  0  0  0  0  0  0  0  0  0  0
    8.5737    2.4750    0.0000 C   0  0  0  0  0  0  0  0  0  0  0  0
    3.5724    2.0625    0.0000 C   0  0  0  0  0  0  0  0  0  0  0  0
    1.4289    2.4750    0.0000 C   0  0  0  0  0  0  0  0  0  0  0  0
    7.1447    3.3000    0.0000 C   0  0  0  0  0  0  0  0  0  0  0  0
    7.8592    2.0625    0.0000 C   0  0  0  0  0  0  0  0  0  0  0  0
   -2.8579    2.4750    0.0000 C   0  0  0  0  0  0  0  0  0  0  0  0
   -3.5724    2.0625    0.0000 C   0  0  0  0  0  0  0  0  0  0  0  0
    6.4302    2.0625    0.0000 C   0  0  0  0  0  0  0  0  0  0  0  0
   -1.4289    2.4750    0.0000 C   0  0  0  0  0  0  0  0  0  0  0  0
    4.2868    2.4750    0.0000 C   0  0  0  0  0  0  0  0  0  0  0  0
    0.7145    2.0625    0.0000 C   0  0  0  0  0  0  0  0  0  0  0  0
    5.7158    2.4750    0.0000 C   0  0  0  0  0  0  0  0  0  0  0  0
   -0.7145    2.0625    0.0000 C   0  0  0  0  0  0  0  0  0  0  0  0
   -2.1434    1.2375    0.0000 C   0  0  0  0  0  0  0  0  0  0  0  0
    7.1447    2.4750    0.0000 C   0  0  0  0  0  0  0  0  0  0  0  0
   -2.1434    2.0625    0.0000 C   0  0  0  0  0  0  0  0  0  0  0  0
   -3.5724    1.2375    0.0000 C   0  0  0  0  0  0  0  0  0  0  0  0
   -2.8579    0.8250    0.0000 C   0  0  0  0  0  0  0  0  0  0  0  0
    5.0013    2.0625    0.0000 N   0  0  0  0  0  0  0  0  0  0  0  0
    0.0000    2.4750    0.0000 N   0  0  0  0  0  0  0  0  0  0  0  0
   -4.2868    0.8250    0.0000 O   0  0  0  0  0  0  0  0  0  0  0  0
   -2.8579    0.0000    0.0000 O   0  0  0  0  0  0  0  0  0  0  0  0
  2  1  1  0  0  0  0
  4  3  2  0  0  0  0
  5  3  1  0  0  0  0
  6  1  1  0  0  0  0
  7  2  1  0  0  0  0
  8  4  1  0  0  0  0
  9  5  2  0  0  0  0
 11 10  2  0  0  0  0
 14  6  1  0  0  0  0
 15  7  1  0  0  0  0
 16 12  1  0  0  0  0
 17 13  1  0  0  0  0
 19  8  2  0  0  0  0
 19  9  1  0  0  0  0
 19 12  1  0  0  0  0
 20 10  1  0  0  0  0
 20 13  1  0  0  0  0
 20 18  2  0  0  0  0
 21 11  1  0  0  0  0
 22 18  1  0  0  0  0
 22 21  2  0  0  0  0
 23 14  1  0  0  0  0
 23 16  1  0  0  0  0
 24 15  1  0  0  0  0
 24 17  1  0  0  0  0
 25 21  1  0  0  0  0
 26 22  1  0  0  0  0
M  END
> <DATABASE_ID>
DB12313

> <DATABASE_NAME>
drugbank

> <SMILES>
OC1=C(O)C=C(CCNCCCCCCNCCC2=CC=CC=C2)C=C1

> <INCHI_IDENTIFIER>
InChI=1S/C22H32N2O2/c25-21-11-10-20(18-22(21)26)13-17-24-15-7-2-1-6-14-23-16-12-19-8-4-3-5-9-19/h3-5,8-11,18,23-26H,1-2,6-7,12-17H2

> <INCHI_KEY>
RYBJORHCUPVNMB-UHFFFAOYSA-N

> <FORMULA>
C22H32N2O2

> <MOLECULAR_WEIGHT>
356.5017

> <EXACT_MASS>
356.246378278

> <JCHEM_ACCEPTOR_COUNT>
4

> <JCHEM_ATOM_COUNT>
58

> <JCHEM_AVERAGE_NEUTRAL_MICROSPECIES_CHARGE>
1.9939177746413845

> <JCHEM_AVERAGE_POLARIZABILITY>
43.77462625026217

> <JCHEM_BIOAVAILABILITY>
1

> <JCHEM_DONOR_COUNT>
4

> <JCHEM_FORMAL_CHARGE>
0

> <JCHEM_GHOSE_FILTER>
1

> <JCHEM_IUPAC>
4-[2-({6-[(2-phenylethyl)amino]hexyl}amino)ethyl]benzene-1,2-diol

> <ALOGPS_LOGP>
3.75

> <JCHEM_LOGP>
2.9773050466833855

> <ALOGPS_LOGS>
-5.17

> <JCHEM_MDDR_LIKE_RULE>
0

> <JCHEM_NEUTRAL_CHARGE>
2

> <JCHEM_NUMBER_OF_RINGS>
2

> <JCHEM_PHYSIOLOGICAL_CHARGE>
2

> <JCHEM_PKA>
12.926930678089843

> <JCHEM_PKA_STRONGEST_ACIDIC>
10.712907327215207

> <JCHEM_PKA_STRONGEST_BASIC>
10.140823013239853

> <JCHEM_POLAR_SURFACE_AREA>
64.52

> <JCHEM_REFRACTIVITY>
108.82679999999998

> <JCHEM_ROTATABLE_BOND_COUNT>
13

> <JCHEM_RULE_OF_FIVE>
1

> <ALOGPS_SOLUBILITY>
2.43e-03 g/l

> <JCHEM_TRADITIONAL_IUPAC>
tetrahydrofolic acid

> <JCHEM_VEBER_RULE>
0

> <DRUGBANK_ID>
DB12313

> <DRUG_GROUPS>
approved; investigational

> <GENERIC_NAME>
Dopexamine

> <SYNONYMS>
Dopexamine

> <SALTS>
Dopexamine Hydrochloride

$$$$
