
  Mrv0541 02231217072D          

  7  7  0  0  0  0            999 V2000
    0.7145    2.0625    0.0000 O   0  0  0  0  0  0  0  0  0  0  0  0
    0.7145    1.2375    0.0000 C   0  0  0  0  0  0  0  0  0  0  0  0
    1.4289    0.8250    0.0000 C   0  0  0  0  0  0  0  0  0  0  0  0
    1.4289    0.0000    0.0000 C   0  0  0  0  0  0  0  0  0  0  0  0
    0.7145   -0.4125    0.0000 C   0  0  0  0  0  0  0  0  0  0  0  0
    0.0000    0.0000    0.0000 C   0  0  0  0  0  0  0  0  0  0  0  0
    0.0000    0.8250    0.0000 C   0  0  0  0  0  0  0  0  0  0  0  0
  1  2  1  0  0  0  0
  2  3  1  0  0  0  0
  3  4  1  0  0  0  0
  4  5  1  0  0  0  0
  5  6  1  0  0  0  0
  6  7  1  0  0  0  0
  2  7  1  0  0  0  0
M  END
> <DATABASE_ID>
DB03703

> <DATABASE_NAME>
drugbank

> <SMILES>
OC1CCCCC1

> <INCHI_IDENTIFIER>
InChI=1S/C6H12O/c7-6-4-2-1-3-5-6/h6-7H,1-5H2

> <INCHI_KEY>
HPXRVTGHNJAIIH-UHFFFAOYSA-N

> <FORMULA>
C6H12O

> <MOLECULAR_WEIGHT>
100.1589

> <EXACT_MASS>
100.088815006

> <JCHEM_ACCEPTOR_COUNT>
1

> <JCHEM_ATOM_COUNT>
19

> <JCHEM_AVERAGE_NEUTRAL_MICROSPECIES_CHARGE>
3.917035082967258e-09

> <JCHEM_AVERAGE_POLARIZABILITY>
11.941435170986574

> <JCHEM_BIOAVAILABILITY>
1

> <JCHEM_DONOR_COUNT>
1

> <JCHEM_FORMAL_CHARGE>
0

> <JCHEM_GHOSE_FILTER>
0

> <JCHEM_IUPAC>
cyclohexanol

> <ALOGPS_LOGP>
1.35

> <JCHEM_LOGP>
1.2806934630000002

> <ALOGPS_LOGS>
-0.77

> <JCHEM_MDDR_LIKE_RULE>
0

> <JCHEM_NEUTRAL_CHARGE>
0

> <JCHEM_NUMBER_OF_RINGS>
1

> <JCHEM_PHYSIOLOGICAL_CHARGE>
0

> <JCHEM_PKA_STRONGEST_ACIDIC>
18.183546936516187

> <JCHEM_PKA_STRONGEST_BASIC>
-1.4063165699678188

> <JCHEM_POLAR_SURFACE_AREA>
20.23

> <JCHEM_REFRACTIVITY>
29.275499999999997

> <JCHEM_ROTATABLE_BOND_COUNT>
0

> <JCHEM_RULE_OF_FIVE>
1

> <ALOGPS_SOLUBILITY>
1.72e+01 g/l

> <JCHEM_TRADITIONAL_IUPAC>
tetrahydrofolic acid

> <JCHEM_VEBER_RULE>
1

> <DRUGBANK_ID>
DB03703

> <SECONDARY_ACCESSION_NUMBERS>
EXPT01066

> <DRUG_GROUPS>
experimental

> <GENERIC_NAME>
Cyclohexanol

$$$$
