
  Mrv0541 02231217512D          

 46 51  0  0  1  0            999 V2000
   -0.4752   -1.7084    0.0000 N   0  0  0  0  0  0  0  0  0  0  0  0
    0.0768   -2.3215    0.0000 C   0  0  0  0  0  0  0  0  0  0  0  0
   -0.1781   -3.1062    0.0000 O   0  0  0  0  0  0  0  0  0  0  0  0
    0.8838   -2.1500    0.0000 C   0  0  0  0  0  0  0  0  0  0  0  0
    1.1387   -1.3654    0.0000 C   0  0  1  0  0  0  0  0  0  0  0  0
    0.6538   -0.6979    0.0000 C   0  0  0  0  0  0  0  0  0  0  0  0
    1.1387   -0.0305    0.0000 C   0  0  1  0  0  0  0  0  0  0  0  0
    0.8838    0.7541    0.0000 C   0  0  0  0  0  0  0  0  0  0  0  0
    1.3687    1.4216    0.0000 C   0  0  0  0  0  0  0  0  0  0  0  0
    0.8838    2.0890    0.0000 N   0  0  0  0  0  0  0  0  0  0  0  0
    0.0992    1.8341    0.0000 C   0  0  2  0  0  0  0  0  0  0  0  0
   -0.7213    1.7478    0.0000 C   0  0  0  0  0  0  0  0  0  0  0  0
   -1.2062    2.4153    0.0000 C   0  0  2  0  0  0  0  0  0  0  0  0
   -0.8707    3.1689    0.0000 O   0  0  0  0  0  0  0  0  0  0  0  0
   -2.0267    2.3290    0.0000 C   0  0  2  0  0  0  0  0  0  0  0  0
   -2.3623    1.5753    0.0000 C   0  0  0  0  0  0  0  0  0  0  0  0
   -1.8774    0.9079    0.0000 C   0  0  0  0  0  0  0  0  0  0  0  0
   -1.0569    0.9941    0.0000 C   0  0  0  0  0  0  0  0  0  0  0  0
   -0.5720    0.3267    0.0000 C   0  0  0  0  0  0  0  0  0  0  0  0
   -0.9075   -0.4270    0.0000 C   0  0  0  0  0  0  0  0  0  0  0  0
   -1.7280   -0.5132    0.0000 C   0  0  0  0  0  0  0  0  0  0  0  0
   -2.2129    0.1542    0.0000 C   0  0  0  0  0  0  0  0  0  0  0  0
   -2.5116    2.9965    0.0000 N   0  0  0  0  0  0  0  0  0  0  0  0
   -3.3321    2.9102    0.0000 C   0  0  0  0  0  0  0  0  0  0  0  0
   -3.6677    2.1566    0.0000 O   0  0  0  0  0  0  0  0  0  0  0  0
   -3.8170    3.5777    0.0000 O   0  0  0  0  0  0  0  0  0  0  0  0
   -4.6375    3.4914    0.0000 C   0  0  1  0  0  0  0  0  0  0  0  0
   -5.0500    2.7770    0.0000 C   0  0  0  0  0  0  0  0  0  0  0  0
   -5.8570    2.9485    0.0000 C   0  0  0  0  0  0  0  0  0  0  0  0
   -5.9432    3.7690    0.0000 O   0  0  0  0  0  0  0  0  0  0  0  0
   -5.1896    4.1045    0.0000 C   0  0  0  0  0  0  0  0  0  0  0  0
   -0.0724    2.6410    0.0000 C   0  0  0  0  0  0  0  0  0  0  0  0
    0.5407    3.1931    0.0000 C   0  0  0  0  0  0  0  0  0  0  0  0
    0.3692    4.0000    0.0000 C   0  0  0  0  0  0  0  0  0  0  0  0
    0.9823    4.5521    0.0000 C   0  0  0  0  0  0  0  0  0  0  0  0
    1.7669    4.2971    0.0000 C   0  0  0  0  0  0  0  0  0  0  0  0
    1.9384    3.4902    0.0000 C   0  0  0  0  0  0  0  0  0  0  0  0
    1.3253    2.9381    0.0000 C   0  0  0  0  0  0  0  0  0  0  0  0
    0.0992    1.0091    0.0000 C   0  0  0  0  0  0  0  0  0  0  0  0
   -0.1558    0.2244    0.0000 O   0  0  0  0  0  0  0  0  0  0  0  0
    1.9233   -0.2854    0.0000 C   0  0  0  0  0  0  0  0  0  0  0  0
    2.6378    0.1271    0.0000 C   0  0  0  0  0  0  0  0  0  0  0  0
    3.3523   -0.2854    0.0000 C   0  0  0  0  0  0  0  0  0  0  0  0
    3.3523   -1.1104    0.0000 C   0  0  0  0  0  0  0  0  0  0  0  0
    2.6378   -1.5229    0.0000 C   0  0  0  0  0  0  0  0  0  0  0  0
    1.9233   -1.1104    0.0000 C   0  0  0  0  0  0  0  0  0  0  0  0
  1  2  1  0  0  0  0
  2  3  2  0  0  0  0
  2  4  1  0  0  0  0
  5  4  1  1  0  0  0
  5  6  1  0  0  0  0
  6  7  1  0  0  0  0
  7  8  1  1  0  0  0
  8  9  2  0  0  0  0
  9 10  1  0  0  0  0
 10 11  1  0  0  0  0
 11 12  1  6  0  0  0
 12 13  1  0  0  0  0
 13 14  1  1  0  0  0
 13 15  1  0  0  0  0
 15 16  1  0  0  0  0
 16 17  1  0  0  0  0
 17 18  2  0  0  0  0
 18 19  1  0  0  0  0
 19 20  2  0  0  0  0
 20 21  1  0  0  0  0
 21 22  2  0  0  0  0
 17 22  1  0  0  0  0
 15 23  1  6  0  0  0
 23 24  1  0  0  0  0
 24 25  2  0  0  0  0
 24 26  1  0  0  0  0
 27 26  1  1  0  0  0
 27 28  1  0  0  0  0
 28 29  1  0  0  0  0
 29 30  1  0  0  0  0
 30 31  1  0  0  0  0
 27 31  1  0  0  0  0
 11 32  1  1  0  0  0
 32 33  1  0  0  0  0
 33 34  2  0  0  0  0
 34 35  1  0  0  0  0
 35 36  2  0  0  0  0
 36 37  1  0  0  0  0
 37 38  2  0  0  0  0
 33 38  1  0  0  0  0
 11 39  1  0  0  0  0
  8 39  1  0  0  0  0
 39 40  2  0  0  0  0
  7 41  1  0  0  0  0
 41 42  2  0  0  0  0
 42 43  1  0  0  0  0
 43 44  2  0  0  0  0
 44 45  1  0  0  0  0
 45 46  2  0  0  0  0
  5 46  1  0  0  0  0
 41 46  1  0  0  0  0
M  END
> <DATABASE_ID>
DB04708

> <DATABASE_NAME>
drugbank

> <SMILES>
NC(=O)C[C@H]1C[C@@H](C2=CN[C@](C[C@H](O)[C@H](CC3=CC=CC=C3)NC(=O)O[C@H]3CCOC3)(CC3=CC=CC=C3)C2=O)C2=CC=CC=C12

> <INCHI_IDENTIFIER>
InChI=1S/C37H41N3O6/c38-34(42)19-26-18-30(29-14-8-7-13-28(26)29)31-22-39-37(35(31)43,20-25-11-5-2-6-12-25)21-33(41)32(17-24-9-3-1-4-10-24)40-36(44)46-27-15-16-45-23-27/h1-14,22,26-27,30,32-33,39,41H,15-21,23H2,(H2,38,42)(H,40,44)/t26-,27+,30-,32+,33+,37+/m1/s1

> <INCHI_KEY>
SYNSHNDQFWMLJW-YZGRCXSVSA-N

> <FORMULA>
C37H41N3O6

> <MOLECULAR_WEIGHT>
623.7379

> <EXACT_MASS>
623.299536059

> <JCHEM_ACCEPTOR_COUNT>
6

> <JCHEM_ATOM_COUNT>
87

> <JCHEM_AVERAGE_NEUTRAL_MICROSPECIES_CHARGE>
-1.4015804975132105e-07

> <JCHEM_AVERAGE_POLARIZABILITY>
67.07051143612647

> <JCHEM_BIOAVAILABILITY>
0

> <JCHEM_DONOR_COUNT>
4

> <JCHEM_FORMAL_CHARGE>
0

> <JCHEM_GHOSE_FILTER>
0

> <JCHEM_IUPAC>
(3S)-oxolan-3-yl N-[(2S,3S)-4-[(2S)-2-benzyl-4-[(1R,3R)-3-(carbamoylmethyl)-2,3-dihydro-1H-inden-1-yl]-3-oxo-2,3-dihydro-1H-pyrrol-2-yl]-3-hydroxy-1-phenylbutan-2-yl]carbamate

> <ALOGPS_LOGP>
2.53

> <JCHEM_LOGP>
4.029884960666665

> <ALOGPS_LOGS>
-5.93

> <JCHEM_MDDR_LIKE_RULE>
1

> <JCHEM_NEUTRAL_CHARGE>
0

> <JCHEM_NUMBER_OF_RINGS>
6

> <JCHEM_PHYSIOLOGICAL_CHARGE>
0

> <JCHEM_PKA>
14.568085961651663

> <JCHEM_PKA_STRONGEST_ACIDIC>
13.936653003387688

> <JCHEM_PKA_STRONGEST_BASIC>
-1.499047997463916

> <JCHEM_POLAR_SURFACE_AREA>
139.98000000000002

> <JCHEM_REFRACTIVITY>
173.74169999999992

> <JCHEM_ROTATABLE_BOND_COUNT>
13

> <JCHEM_RULE_OF_FIVE>
0

> <ALOGPS_SOLUBILITY>
7.27e-04 g/l

> <JCHEM_TRADITIONAL_IUPAC>
biotin

> <JCHEM_VEBER_RULE>
0

> <DRUGBANK_ID>
DB04708

> <DRUG_GROUPS>
experimental

> <GENERIC_NAME>
(S)-TETRAHYDROFURAN-3-YL (2S,3S)-4-((S)-4-((1R,3R)-3-(2-AMINO-2-OXOETHYL)-2,3-DIHYDRO-1H-INDEN-1-YL)-2-BENZYL-3-OXO-2,3-DIHYDRO-1H-PYRROL-2-YL)-3-HYDROXY-1-PHENYLBUTAN-2-YLCARBAMATE

$$$$
