
  Mrv0541 02241214212D          

 41 45  0  0  0  0            999 V2000
   -1.6069    0.4135    0.0000 C   0  0  0  0  0  0  0  0  0  0  0  0
   -0.7944    0.5567    0.0000 C   0  0  0  0  0  0  0  0  0  0  0  0
   -0.2641   -0.0753    0.0000 C   0  0  0  0  0  0  0  0  0  0  0  0
    0.4503   -0.4878    0.0000 C   0  0  0  0  0  0  0  0  0  0  0  0
    1.1648   -0.0753    0.0000 O   0  0  0  0  0  0  0  0  0  0  0  0
    0.4503   -1.3128    0.0000 N   0  0  0  0  0  0  0  0  0  0  0  0
   -0.2641   -1.7253    0.0000 C   0  0  0  0  0  0  0  0  0  0  0  0
   -0.2641   -2.5503    0.0000 O   0  0  0  0  0  0  0  0  0  0  0  0
   -0.9786   -1.3128    0.0000 N   0  0  0  0  0  0  0  0  0  0  0  0
   -0.9786   -0.4878    0.0000 C   0  0  0  0  0  0  0  0  0  0  0  0
   -1.6931   -0.0753    0.0000 O   0  0  0  0  0  0  0  0  0  0  0  0
    0.2662    0.5567    0.0000 C   0  0  0  0  0  0  0  0  0  0  0  0
   -0.0160    1.3320    0.0000 C   0  0  0  0  0  0  0  0  0  0  0  0
    0.5143    1.9640    0.0000 C   0  0  0  0  0  0  0  0  0  0  0  0
    1.3268    1.8207    0.0000 C   0  0  0  0  0  0  0  0  0  0  0  0
    1.6089    1.0454    0.0000 C   0  0  0  0  0  0  0  0  0  0  0  0
    1.0786    0.4135    0.0000 C   0  0  0  0  0  0  0  0  0  0  0  0
    7.3027   -1.4662    0.0000 C   0  0  0  0  0  0  0  0  0  0  0  0
    6.5882   -1.0537    0.0000 O   0  0  0  0  0  0  0  0  0  0  0  0
    6.5882   -0.2287    0.0000 C   0  0  0  0  0  0  0  0  0  0  0  0
    5.8738    0.1838    0.0000 C   0  0  0  0  0  0  0  0  0  0  0  0
    5.8738    1.0088    0.0000 C   0  0  0  0  0  0  0  0  0  0  0  0
    5.1593    1.4213    0.0000 C   0  0  0  0  0  0  0  0  0  0  0  0
    5.1593    2.2463    0.0000 C   0  0  0  0  0  0  0  0  0  0  0  0
    5.8738    2.6588    0.0000 C   0  0  0  0  0  0  0  0  0  0  0  0
    6.5882    2.2463    0.0000 N   0  0  0  0  0  0  0  0  0  0  0  0
    6.5882    1.4213    0.0000 C   0  0  0  0  0  0  0  0  0  0  0  0
    7.3027    1.0088    0.0000 C   0  0  0  0  0  0  0  0  0  0  0  0
    7.3027    0.1838    0.0000 C   0  0  0  0  0  0  0  0  0  0  0  0
    4.4448    1.0088    0.0000 C   0  0  0  0  0  0  0  0  0  0  0  0
    4.4448    0.1838    0.0000 C   0  0  0  0  0  0  0  0  0  0  0  0
    4.0926   -0.5100    0.0000 C   0  0  0  0  0  0  0  0  0  0  0  0
    4.4673   -1.2281    0.0000 C   0  0  0  0  0  0  0  0  0  0  0  0
    3.8832   -1.9087    0.0000 C   0  0  0  0  0  0  0  0  0  0  0  0
    4.0659   -1.2813    0.0000 C   0  0  0  0  0  0  0  0  0  0  0  0
    4.8182   -0.5518    0.0000 N   0  0  0  0  0  0  0  0  0  0  0  0
    5.6996   -0.7892    0.0000 C   0  0  0  0  0  0  0  0  0  0  0  0
    5.3165   -1.4489    0.0000 C   0  0  0  0  0  0  0  0  0  0  0  0
    5.6340   -2.2104    0.0000 C   0  0  0  0  0  0  0  0  0  0  0  0
    6.4522   -2.3161    0.0000 C   0  0  0  0  0  0  0  0  0  0  0  0
    3.7303    1.4213    0.0000 O   0  0  0  0  0  0  0  0  0  0  0  0
  1  2  1  0  0  0  0
  2  3  1  0  0  0  0
  3  4  1  0  0  0  0
  4  5  2  0  0  0  0
  4  6  1  0  0  0  0
  6  7  1  0  0  0  0
  7  8  2  0  0  0  0
  7  9  1  0  0  0  0
  9 10  1  0  0  0  0
  3 10  1  0  0  0  0
 10 11  2  0  0  0  0
  3 12  1  0  0  0  0
 12 13  2  0  0  0  0
 13 14  1  0  0  0  0
 14 15  2  0  0  0  0
 15 16  1  0  0  0  0
 16 17  2  0  0  0  0
 12 17  1  0  0  0  0
 18 19  1  0  0  0  0
 19 20  1  0  0  0  0
 20 21  2  0  0  0  0
 21 22  1  0  0  0  0
 22 23  2  0  0  0  0
 23 24  1  0  0  0  0
 24 25  2  0  0  0  0
 25 26  1  0  0  0  0
 26 27  2  0  0  0  0
 22 27  1  0  0  0  0
 27 28  1  0  0  0  0
 28 29  2  0  0  0  0
 20 29  1  0  0  0  0
 23 30  1  0  0  0  0
 30 31  1  0  0  0  0
 31 32  1  0  0  0  0
 32 33  1  0  0  0  0
 33 34  1  0  0  0  0
 34 35  1  0  0  0  0
 35 36  1  0  0  0  0
 31 36  1  0  0  0  0
 36 37  1  0  0  0  0
 37 38  1  0  0  0  0
 33 38  1  0  0  0  0
 38 39  1  0  0  0  0
 39 40  2  0  0  0  0
 30 41  1  0  0  0  0
M  END
> <DATABASE_ID>
DB01346

> <DATABASE_NAME>
drugbank

> <SMILES>
CCC1(C(=O)NC(=O)NC1=O)C1=CC=CC=C1.COC1=CC2=C(C=CN=C2C=C1)C(O)C1CC2CCN1CC2C=C

> <INCHI_IDENTIFIER>
InChI=1S/C20H24N2O2.C12H12N2O3/c1-3-13-12-22-9-7-14(13)10-19(22)20(23)16-6-8-21-18-5-4-15(24-2)11-17(16)18;1-2-12(8-6-4-3-5-7-8)9(15)13-11(17)14-10(12)16/h3-6,8,11,13-14,19-20,23H,1,7,9-10,12H2,2H3;3-7H,2H2,1H3,(H2,13,14,15,16,17)

> <INCHI_KEY>
YHRUERMOPBDCFD-UHFFFAOYSA-N

> <FORMULA>
C32H36N4O5

> <MOLECULAR_WEIGHT>
556.652

> <EXACT_MASS>
556.268570282

> <JCHEM_ACCEPTOR_COUNT>
4

> <JCHEM_ATOM_COUNT>
77

> <JCHEM_AVERAGE_NEUTRAL_MICROSPECIES_CHARGE>
0.994144828212664

> <JCHEM_AVERAGE_POLARIZABILITY>
36.12081320410812

> <JCHEM_BIOAVAILABILITY>
1

> <JCHEM_DONOR_COUNT>
1

> <JCHEM_FORMAL_CHARGE>
0

> <JCHEM_GHOSE_FILTER>
0

> <JCHEM_IUPAC>
5-ethyl-5-phenyl-1,3-diazinane-2,4,6-trione; {5-ethenyl-1-azabicyclo[2.2.2]octan-2-yl}(6-methoxyquinolin-4-yl)methanol

> <ALOGPS_LOGP>
2.82

> <JCHEM_LOGP>
2.513463950666668

> <ALOGPS_LOGS>
-2.99

> <JCHEM_MDDR_LIKE_RULE>
1

> <JCHEM_NEUTRAL_CHARGE>
1

> <JCHEM_NUMBER_OF_RINGS>
6

> <JCHEM_PHYSIOLOGICAL_CHARGE>
1

> <JCHEM_PKA_STRONGEST_ACIDIC>
13.892048067691276

> <JCHEM_PKA_STRONGEST_BASIC>
9.045547511829293

> <JCHEM_POLAR_SURFACE_AREA>
45.59

> <JCHEM_REFRACTIVITY>
94.69359999999999

> <JCHEM_ROTATABLE_BOND_COUNT>
6

> <JCHEM_RULE_OF_FIVE>
0

> <ALOGPS_SOLUBILITY>
3.34e-01 g/l

> <JCHEM_TRADITIONAL_IUPAC>
biotin

> <JCHEM_VEBER_RULE>
0

> <DRUGBANK_ID>
DB01346

> <DRUG_GROUPS>
approved

> <GENERIC_NAME>
Quinidine barbiturate

$$$$
