
  Mrv0541 05031423462D          

  6  5  0  0  0  0            999 V2000
    1.2375   -0.7145    0.0000 C   0  0  0  0  0  0  0  0  0  0  0  0
    0.8250    0.0000    0.0000 C   0  0  0  0  0  0  0  0  0  0  0  0
    2.0625   -0.7145    0.0000 N   0  0  0  0  0  0  0  0  0  0  0  0
    0.0000    0.0000    0.0000 N   0  0  0  0  0  0  0  0  0  0  0  0
    0.8250   -1.4289    0.0000 H   0  0  0  0  0  0  0  0  0  0  0  0
    2.4750   -1.4289    0.0000 H   0  0  0  0  0  0  0  0  0  0  0  0
  2  1  1  0  0  0  0
  3  1  2  0  0  0  0
  4  2  1  0  0  0  0
  5  1  1  0  0  0  0
  6  3  1  0  0  0  0
M  END
> <DATABASE_ID>
DB02108

> <DATABASE_NAME>
drugbank

> <SMILES>
[H]N=C([H])CN

> <INCHI_IDENTIFIER>
InChI=1S/C2H6N2/c3-1-2-4/h1,3H,2,4H2/b3-1+

> <INCHI_KEY>
AXQVKDQRBAXYBP-HNQUOIGGSA-N

> <FORMULA>
C2H6N2

> <MOLECULAR_WEIGHT>
58.0824

> <EXACT_MASS>
58.053098202

> <JCHEM_ACCEPTOR_COUNT>
2

> <JCHEM_ATOM_COUNT>
10

> <JCHEM_AVERAGE_NEUTRAL_MICROSPECIES_CHARGE>
1.0802625437783684

> <JCHEM_AVERAGE_POLARIZABILITY>
6.283208482870052

> <JCHEM_BIOAVAILABILITY>
1

> <JCHEM_DONOR_COUNT>
2

> <JCHEM_FORMAL_CHARGE>
0

> <JCHEM_GHOSE_FILTER>
0

> <JCHEM_IUPAC>
2-iminoethan-1-amine

> <ALOGPS_LOGP>
-2.14

> <JCHEM_LOGP>
-1.293430296

> <ALOGPS_LOGS>
-0.71

> <JCHEM_MDDR_LIKE_RULE>
0

> <JCHEM_NEUTRAL_CHARGE>
1

> <JCHEM_NUMBER_OF_RINGS>
0

> <JCHEM_PHYSIOLOGICAL_CHARGE>
1

> <JCHEM_PKA_STRONGEST_BASIC>
10.133718361676992

> <JCHEM_POLAR_SURFACE_AREA>
49.870000000000005

> <JCHEM_REFRACTIVITY>
27.55

> <JCHEM_ROTATABLE_BOND_COUNT>
1

> <JCHEM_RULE_OF_FIVE>
1

> <ALOGPS_SOLUBILITY>
1.14e+01 g/l

> <JCHEM_TRADITIONAL_IUPAC>
tetrahydrofolic acid

> <JCHEM_VEBER_RULE>
0

> <DRUGBANK_ID>
DB02108

> <SECONDARY_ACCESSION_NUMBERS>
EXPT00447

> <DRUG_GROUPS>
experimental

> <GENERIC_NAME>
2-Aminoethanimidic Acid

$$$$
