
  Mrv0541 08301318242D          

 55 63  0  0  1  0            999 V2000
   12.6124   -3.3240    0.0000 O   0  0  0  0  0  0  0  0  0  0  0  0
   12.7839   -0.0421    0.0000 O   0  0  0  0  0  0  0  0  0  0  0  0
   11.4563   -2.6566    0.0000 O   0  0  0  0  0  0  0  0  0  0  0  0
   12.0694    1.1954    0.0000 O   0  0  0  0  0  0  0  0  0  0  0  0
   13.4984   -1.2796    0.0000 C   0  0  0  0  0  0  0  0  0  0  0  0
   13.4984   -2.1046    0.0000 C   0  0  0  0  0  0  0  0  0  0  0  0
   12.7839   -2.5171    0.0000 C   0  0  0  0  0  0  0  0  0  0  0  0
   12.7839   -0.8671    0.0000 C   0  0  0  0  0  0  0  0  0  0  0  0
   12.0694   -2.1046    0.0000 C   0  0  0  0  0  0  0  0  0  0  0  0
   12.0694   -1.2796    0.0000 C   0  0  0  0  0  0  0  0  0  0  0  0
   11.7919   -3.4103    0.0000 C   0  0  0  0  0  0  0  0  0  0  0  0
   11.3550   -0.8671    0.0000 C   0  0  0  0  0  0  0  0  0  0  0  0
   12.0694    0.3704    0.0000 C   0  0  0  0  0  0  0  0  0  0  0  0
   11.3550   -0.0421    0.0000 C   0  0  0  0  0  0  0  0  0  0  0  0
   14.2128   -0.8670    0.0000 C   0  0  2  0  0  0  0  0  0  0  0  0
   14.2128   -2.5171    0.0000 C   0  0  1  0  0  0  0  0  0  0  0  0
   14.9273   -2.1046    0.0000 N   0  0  0  0  0  0  0  0  0  0  0  0
   14.9273   -1.2795    0.0000 C   0  0  2  0  0  0  0  0  0  0  0  0
   15.6418   -0.8670    0.0000 C   0  0  2  0  0  0  0  0  0  0  0  0
   15.6418   -2.5171    0.0000 C   0  0  2  0  0  0  0  0  0  0  0  0
   16.3562   -2.1046    0.0000 C   0  0  1  0  0  0  0  0  0  0  0  0
   16.3562   -1.2795    0.0000 N   0  0  0  0  0  0  0  0  0  0  0  0
   12.7839    3.0370    0.0000 C   0  0  0  0  0  0  0  0  0  0  0  0
   12.0694    2.6244    0.0000 C   0  0  0  0  0  0  0  0  0  0  0  0
   12.0694    1.7994    0.0000 C   0  0  0  0  0  0  0  0  0  0  0  0
   12.7839    1.3869    0.0000 C   0  0  0  0  0  0  0  0  0  0  0  0
   13.4984    1.7994    0.0000 C   0  0  0  0  0  0  0  0  0  0  0  0
   13.4984    2.6244    0.0000 C   0  0  0  0  0  0  0  0  0  0  0  0
   14.2128    3.0370    0.0000 C   0  0  0  0  0  0  0  0  0  0  0  0
   14.2128    1.3869    0.0000 C   0  0  2  0  0  0  0  0  0  0  0  0
   14.9273    1.7994    0.0000 N   0  0  0  0  0  0  0  0  0  0  0  0
   14.9273    2.6244    0.0000 C   0  0  0  0  0  0  0  0  0  0  0  0
   11.3550    3.0369    0.0000 O   0  0  0  0  0  0  0  0  0  0  0  0
   11.3550    1.3869    0.0000 O   0  0  0  0  0  0  0  0  0  0  0  0
   10.6405    1.7994    0.0000 C   0  0  0  0  0  0  0  0  0  0  0  0
   14.3307   -1.6626    0.0000 C   0  0  0  0  0  0  0  0  0  0  0  0
   13.8003   -0.3883    0.0000 O   0  0  0  0  0  0  0  0  0  0  0  0
   14.6253   -0.1526    0.0000 S   0  0  0  0  0  0  0  0  0  0  0  0
   14.6253    0.6724    0.0000 C   0  0  0  0  0  0  0  0  0  0  0  0
   13.6295    0.8036    0.0000 C   0  0  0  0  0  0  0  0  0  0  0  0
   16.9890   -0.9215    0.0000 C   0  0  0  0  0  0  0  0  0  0  0  0
   12.8326    1.0171    0.0000 O   0  0  0  0  0  0  0  0  0  0  0  0
   15.6418   -3.3421    0.0000 O   0  0  0  0  0  0  0  0  0  0  0  0
   14.9273   -0.4545    0.0000 H   0  0  0  0  0  0  0  0  0  0  0  0
   17.5946   -0.5362    0.0000 C   0  0  0  0  0  0  0  0  0  0  0  0
   17.5946    1.1138    0.0000 C   0  0  0  0  0  0  0  0  0  0  0  0
   16.8801    0.7013    0.0000 C   0  0  0  0  0  0  0  0  0  0  0  0
   18.3091   -0.1237    0.0000 C   0  0  0  0  0  0  0  0  0  0  0  0
   18.3091    0.7013    0.0000 C   0  0  0  0  0  0  0  0  0  0  0  0
   19.0235    1.1138    0.0000 C   0  0  0  0  0  0  0  0  0  0  0  0
   17.5946    1.9388    0.0000 O   0  0  0  0  0  0  0  0  0  0  0  0
   16.1657    1.1138    0.0000 O   0  0  0  0  0  0  0  0  0  0  0  0
   18.3091    2.3513    0.0000 C   0  0  0  0  0  0  0  0  0  0  0  0
   16.8801   -0.1237    0.0000 C   0  0  0  0  0  0  0  0  0  0  0  0
   17.5946   -1.3612    0.0000 C   0  0  0  0  0  0  0  0  0  0  0  0
  1  7  1  0  0  0  0
  1 11  1  0  0  0  0
  2  8  1  0  0  0  0
  2 13  1  0  0  0  0
  3  9  1  0  0  0  0
  3 11  1  0  0  0  0
  4 13  2  0  0  0  0
  5  8  2  0  0  0  0
  6  7  2  0  0  0  0
  7  9  1  0  0  0  0
  8 10  1  0  0  0  0
  9 10  2  0  0  0  0
 10 12  1  0  0  0  0
 13 14  1  0  0  0  0
  6 16  1  0  0  0  0
  5  6  1  0  0  0  0
 15  5  1  0  0  0  0
 16 17  1  0  0  0  0
 15 18  1  0  0  0  0
 19 18  1  0  0  0  0
 18 17  1  0  0  0  0
 17 20  1  0  0  0  0
 20 21  1  0  0  0  0
 21 22  1  0  0  0  0
 19 22  1  0  0  0  0
 23 24  2  0  0  0  0
 24 25  1  0  0  0  0
 25 26  2  0  0  0  0
 26 27  1  0  0  0  0
 23 28  1  0  0  0  0
 29 28  1  0  0  0  0
 27 28  2  0  0  0  0
 27 30  1  0  0  0  0
 30 31  1  0  0  0  0
 31 32  1  0  0  0  0
 29 32  1  0  0  0  0
 24 33  1  0  0  0  0
 25 34  1  0  0  0  0
 34 35  1  0  0  0  0
 16 36  1  1  0  0  0
 36 37  1  0  0  0  0
 15 38  1  1  0  0  0
 39 38  1  0  0  0  0
 30 39  1  6  0  0  0
 30 40  1  1  0  0  0
 37 40  1  0  0  0  0
 22 41  1  0  0  0  0
 40 42  2  0  0  0  0
 20 43  1  6  0  0  0
 18 44  1  6  0  0  0
 55 45  1  0  0  0  0
 47 54  2  0  0  0  0
 54 45  1  0  0  0  0
 45 48  2  0  0  0  0
 46 47  1  0  0  0  0
 48 49  1  0  0  0  0
 46 49  2  0  0  0  0
 49 50  1  0  0  0  0
 46 51  1  0  0  0  0
 47 52  1  0  0  0  0
 51 53  1  0  0  0  0
 19 54  1  1  0  0  0
 21 55  1  1  0  0  0
M  END
> <DATABASE_ID>
DB05109

> <DATABASE_NAME>
drugbank

> <SMILES>
[H][C@@]12[C@@H]3SC[C@]4(NCCC5=C4C=C(OC)C(O)=C5)C(=O)OC[C@H](N1[C@@H](O)[C@@H]1CC4=CC(C)=C(OC)C(O)=C4[C@H]2N1C)C1=C2OCOC2=C(C)C(OC(C)=O)=C31

> <INCHI_IDENTIFIER>
InChI=1S/C39H43N3O11S/c1-16-9-20-10-22-37(46)42-23-13-50-38(47)39(21-12-25(48-5)24(44)11-19(21)7-8-40-39)14-54-36(30(42)29(41(22)4)26(20)31(45)32(16)49-6)28-27(23)35-34(51-15-52-35)17(2)33(28)53-18(3)43/h9,11-12,22-23,29-30,36-37,40,44-46H,7-8,10,13-15H2,1-6H3/t22-,23-,29+,30+,36+,37-,39+/m0/s1

> <INCHI_KEY>
PKVRCIRHQMSYJX-AIFWHQITSA-N

> <FORMULA>
C39H43N3O11S

> <MOLECULAR_WEIGHT>
761.837

> <EXACT_MASS>
761.261829923

> <JCHEM_ACCEPTOR_COUNT>
12

> <JCHEM_ATOM_COUNT>
97

> <JCHEM_AVERAGE_NEUTRAL_MICROSPECIES_CHARGE>
0.609567905983387

> <JCHEM_AVERAGE_POLARIZABILITY>
77.97598646421704

> <JCHEM_BIOAVAILABILITY>
0

> <JCHEM_DONOR_COUNT>
4

> <JCHEM_FORMAL_CHARGE>
0

> <JCHEM_GHOSE_FILTER>
0

> <JCHEM_IUPAC>
(1R,2R,3R,11S,12S,14R,26R)-5,6',12-trihydroxy-6,7'-dimethoxy-7,21,30-trimethyl-27-oxo-3',4'-dihydro-2'H-17,19,28-trioxa-24-thia-13,30-diazaspiro[heptacyclo[12.9.6.1^{3,11}.0^{2,13}.0^{4,9}.0^{15,23}.0^{16,20}]triacontane-26,1'-isoquinoline]-4,6,8,15,20,22-hexaen-22-yl acetate

> <ALOGPS_LOGP>
2.04

> <JCHEM_LOGP>
4.193910865333333

> <ALOGPS_LOGS>
-3.37

> <JCHEM_MDDR_LIKE_RULE>
0

> <JCHEM_NEUTRAL_CHARGE>
1

> <JCHEM_NUMBER_OF_RINGS>
9

> <JCHEM_PHYSIOLOGICAL_CHARGE>
1

> <JCHEM_PKA>
10.057912254304542

> <JCHEM_PKA_STRONGEST_ACIDIC>
9.256092143041649

> <JCHEM_PKA_STRONGEST_BASIC>
7.196201624817803

> <JCHEM_POLAR_SURFACE_AREA>
168.72

> <JCHEM_REFRACTIVITY>
196.921

> <JCHEM_ROTATABLE_BOND_COUNT>
4

> <JCHEM_RULE_OF_FIVE>
0

> <ALOGPS_SOLUBILITY>
3.28e-01 g/l

> <JCHEM_TRADITIONAL_IUPAC>
tetrahydrofolic acid

> <JCHEM_VEBER_RULE>
0

> <DRUGBANK_ID>
DB05109

> <DRUG_GROUPS>
approved; investigational

> <GENERIC_NAME>
Trabectedin

> <SYNONYMS>
Ecteinascidin 743; Trabectedin; Trabectedina

> <PRODUCTS>
Yondelis

$$$$
