
  Mrv0541 02231215562D          

  8  7  0  0  0  0            999 V2000
    1.7605    1.8414    0.0000 N   0  3  0  0  0  0  0  0  0  0  0  0
    2.4750    1.4289    0.0000 C   0  0  0  0  0  0  0  0  0  0  0  0
    3.1895    1.8414    0.0000 C   0  0  0  0  0  0  0  0  0  0  0  0
    3.9039    1.4289    0.0000 C   0  0  0  0  0  0  0  0  0  0  0  0
    4.6184    1.8414    0.0000 C   0  0  0  0  0  0  0  0  0  0  0  0
    5.3329    1.4289    0.0000 C   0  0  0  0  0  0  0  0  0  0  0  0
    6.0474    1.8414    0.0000 O   0  0  0  0  0  0  0  0  0  0  0  0
    5.3329    0.6039    0.0000 O   0  0  0  0  0  0  0  0  0  0  0  0
  1  2  1  0  0  0  0
  2  3  1  0  0  0  0
  3  4  1  0  0  0  0
  4  5  1  0  0  0  0
  5  6  1  0  0  0  0
  6  7  1  0  0  0  0
  6  8  2  0  0  0  0
M  CHG  1   1   1
M  END
> <DATABASE_ID>
DB02068

> <DATABASE_NAME>
drugbank

> <SMILES>
[NH3+]CCCCC(O)=O

> <INCHI_IDENTIFIER>
InChI=1S/C5H11NO2/c6-4-2-1-3-5(7)8/h1-4,6H2,(H,7,8)/p+1

> <INCHI_KEY>
JJMDCOVWQOJGCB-UHFFFAOYSA-O

> <FORMULA>
C5H12NO2

> <MOLECULAR_WEIGHT>
118.1543

> <EXACT_MASS>
118.086803633

> <JCHEM_ACCEPTOR_COUNT>
2

> <JCHEM_ATOM_COUNT>
20

> <JCHEM_AVERAGE_NEUTRAL_MICROSPECIES_CHARGE>
0.0008594475023577797

> <JCHEM_AVERAGE_POLARIZABILITY>
12.993218981955758

> <JCHEM_BIOAVAILABILITY>
1

> <JCHEM_DONOR_COUNT>
2

> <JCHEM_FORMAL_CHARGE>
1

> <JCHEM_GHOSE_FILTER>
0

> <JCHEM_IUPAC>
4-carboxybutan-1-aminium

> <ALOGPS_LOGP>
-2.37

> <JCHEM_LOGP>
-2.441462136430473

> <ALOGPS_LOGS>
-1.17

> <JCHEM_MDDR_LIKE_RULE>
0

> <JCHEM_NEUTRAL_CHARGE>
0

> <JCHEM_NUMBER_OF_RINGS>
0

> <JCHEM_PHYSIOLOGICAL_CHARGE>
0

> <JCHEM_PKA_STRONGEST_ACIDIC>
4.6510543313288055

> <JCHEM_PKA_STRONGEST_BASIC>
10.205972024771656

> <JCHEM_POLAR_SURFACE_AREA>
64.94

> <JCHEM_REFRACTIVITY>
41.351600000000005

> <JCHEM_ROTATABLE_BOND_COUNT>
4

> <JCHEM_RULE_OF_FIVE>
1

> <ALOGPS_SOLUBILITY>
1.03e+01 g/l

> <JCHEM_TRADITIONAL_IUPAC>
tetrahydrofolic acid

> <JCHEM_VEBER_RULE>
0

> <DRUGBANK_ID>
DB02068

> <SECONDARY_ACCESSION_NUMBERS>
EXPT01116

> <DRUG_GROUPS>
experimental

> <GENERIC_NAME>
Delta-Amino Valeric Acid

$$$$
