
  Mrv0541 05041413552D          

 24 26  0  0  0  0            999 V2000
   -7.1447    5.7750    0.0000 C   0  0  0  0  0  0  0  0  0  0  0  0
   -4.2868    3.3000    0.0000 C   0  0  0  0  0  0  0  0  0  0  0  0
   -1.4289    2.4750    0.0000 C   0  0  0  0  0  0  0  0  0  0  0  0
   -2.1434    6.1875    0.0000 C   0  0  0  0  0  0  0  0  0  0  0  0
   -2.8579    5.7750    0.0000 C   0  0  0  0  0  0  0  0  0  0  0  0
   -1.4289    3.3000    0.0000 C   0  0  0  0  0  0  0  0  0  0  0  0
   -4.2868    5.7750    0.0000 C   0  0  0  0  0  0  0  0  0  0  0  0
   -5.0013    6.1875    0.0000 C   0  0  0  0  0  0  0  0  0  0  0  0
   -2.1434    2.0625    0.0000 C   0  0  0  0  0  0  0  0  0  0  0  0
   -1.4289    5.7750    0.0000 C   0  0  0  0  0  0  0  0  0  0  0  0
   -3.5724    4.5375    0.0000 C   0  0  0  0  0  0  0  0  0  0  0  0
   -5.7158    4.9500    0.0000 C   0  0  0  0  0  0  0  0  0  0  0  0
   -2.8579    3.3000    0.0000 C   0  0  0  0  0  0  0  0  0  0  0  0
   -4.2868    4.9500    0.0000 C   0  0  0  0  0  0  0  0  0  0  0  0
   -2.8579    4.9500    0.0000 C   0  0  0  0  0  0  0  0  0  0  0  0
   -2.1434    3.7125    0.0000 C   0  0  0  0  0  0  0  0  0  0  0  0
   -5.7158    5.7750    0.0000 C   0  0  0  0  0  0  0  0  0  0  0  0
   -5.0013    4.5375    0.0000 C   0  0  0  0  0  0  0  0  0  0  0  0
   -2.1434    4.5375    0.0000 C   0  0  0  0  0  0  0  0  0  0  0  0
   -2.8579    2.4750    0.0000 N   0  0  0  0  0  0  0  0  0  0  0  0
   -1.4289    4.9500    0.0000 N   0  0  0  0  0  0  0  0  0  0  0  0
   -6.4302    6.1875    0.0000 O   0  0  0  0  0  0  0  0  0  0  0  0
   -5.0013    3.7125    0.0000 O   0  0  0  0  0  0  0  0  0  0  0  0
   -3.5724    3.7125    0.0000 H   0  0  0  0  0  0  0  0  0  0  0  0
  5  4  1  0  0  0  0
  6  3  2  0  0  0  0
  8  7  2  0  0  0  0
  9  3  1  0  0  0  0
 10  4  1  0  0  0  0
 14  7  1  0  0  0  0
 14 11  1  0  0  0  0
 15  5  1  0  0  0  0
 15 11  2  0  0  0  0
 16  6  1  0  0  0  0
 16 13  2  0  0  0  0
 17  8  1  0  0  0  0
 17 12  2  0  0  0  0
 18 12  1  0  0  0  0
 18 14  2  0  0  0  0
 19 15  1  0  0  0  0
 19 16  1  0  0  0  0
 20  9  2  0  0  0  0
 20 13  1  0  0  0  0
 21 10  1  0  0  0  0
 21 19  2  0  0  0  0
 22  1  1  0  0  0  0
 22 17  1  0  0  0  0
 23  2  1  0  0  0  0
 23 18  1  0  0  0  0
 24 11  1  0  0  0  0
M  END
> <DATABASE_ID>
DB05708

> <DATABASE_NAME>
drugbank

> <SMILES>
[H]\C(=C1\CCCN=C1C1=CN=CC=C1)C1=C(OC)C=C(OC)C=C1

> <INCHI_IDENTIFIER>
InChI=1S/C19H20N2O2/c1-22-17-8-7-14(18(12-17)23-2)11-15-5-4-10-21-19(15)16-6-3-9-20-13-16/h3,6-9,11-13H,4-5,10H2,1-2H3/b15-11+

> <INCHI_KEY>
RPYWXZCFYPVCNQ-RVDMUPIBSA-N

> <FORMULA>
C19H20N2O2

> <MOLECULAR_WEIGHT>
308.3743

> <EXACT_MASS>
308.152477894

> <JCHEM_ACCEPTOR_COUNT>
4

> <JCHEM_ATOM_COUNT>
43

> <JCHEM_AVERAGE_NEUTRAL_MICROSPECIES_CHARGE>
0.0023817277894656592

> <JCHEM_AVERAGE_POLARIZABILITY>
33.95796609325755

> <JCHEM_BIOAVAILABILITY>
1

> <JCHEM_DONOR_COUNT>
0

> <JCHEM_FORMAL_CHARGE>
0

> <JCHEM_GHOSE_FILTER>
1

> <JCHEM_IUPAC>
(3E)-3-[(2,4-dimethoxyphenyl)methylidene]-3,4,5,6-tetrahydro-2,3'-bipyridine

> <ALOGPS_LOGP>
3.57

> <JCHEM_LOGP>
2.9602342010000005

> <ALOGPS_LOGS>
-4.65

> <JCHEM_MDDR_LIKE_RULE>
0

> <JCHEM_NEUTRAL_CHARGE>
0

> <JCHEM_NUMBER_OF_RINGS>
3

> <JCHEM_PHYSIOLOGICAL_CHARGE>
0

> <JCHEM_PKA_STRONGEST_BASIC>
4.457852293435053

> <JCHEM_POLAR_SURFACE_AREA>
43.71000000000001

> <JCHEM_REFRACTIVITY>
91.82679999999999

> <JCHEM_ROTATABLE_BOND_COUNT>
4

> <JCHEM_RULE_OF_FIVE>
1

> <ALOGPS_SOLUBILITY>
6.83e-03 g/l

> <JCHEM_TRADITIONAL_IUPAC>
biotin

> <JCHEM_VEBER_RULE>
0

> <DRUGBANK_ID>
DB05708

> <DRUG_GROUPS>
investigational

> <GENERIC_NAME>
GTS-21

> <SYNONYMS>
3-(2,4-dimethoxybenzylidene)anabaseine; Dimethoxybenzylidene anabaseine; DMXB-A; DMXB-Anabaseine

$$$$
