
  Mrv0541 02231217122D          

  8  7  0  0  1  0            999 V2000
   -0.1914    0.7145    0.0000 N   0  0  0  0  0  0  0  0  0  0  0  0
    0.5230    1.1270    0.0000 C   0  0  0  0  0  0  0  0  0  0  0  0
    1.2375    0.7145    0.0000 C   0  0  0  0  0  0  0  0  0  0  0  0
    1.9520    1.1270    0.0000 C   0  0  2  0  0  0  0  0  0  0  0  0
    1.9520    1.9520    0.0000 N   0  0  0  0  0  0  0  0  0  0  0  0
    2.6664    0.7145    0.0000 C   0  0  0  0  0  0  0  0  0  0  0  0
    3.3809    1.1270    0.0000 O   0  0  0  0  0  0  0  0  0  0  0  0
    2.6664   -0.1105    0.0000 O   0  0  0  0  0  0  0  0  0  0  0  0
  1  2  1  0  0  0  0
  2  3  1  0  0  0  0
  3  4  1  0  0  0  0
  4  5  1  6  0  0  0
  4  6  1  0  0  0  0
  6  7  1  0  0  0  0
  6  8  2  0  0  0  0
M  END
> <DATABASE_ID>
DB03817

> <DATABASE_NAME>
drugbank

> <SMILES>
NCC[C@H](N)C(O)=O

> <INCHI_IDENTIFIER>
InChI=1S/C4H10N2O2/c5-2-1-3(6)4(7)8/h3H,1-2,5-6H2,(H,7,8)/t3-/m0/s1

> <INCHI_KEY>
OGNSCSPNOLGXSM-VKHMYHEASA-N

> <FORMULA>
C4H10N2O2

> <MOLECULAR_WEIGHT>
118.1344

> <EXACT_MASS>
118.074227574

> <JCHEM_ACCEPTOR_COUNT>
4

> <JCHEM_ATOM_COUNT>
18

> <JCHEM_AVERAGE_NEUTRAL_MICROSPECIES_CHARGE>
0.9010876767435544

> <JCHEM_AVERAGE_POLARIZABILITY>
11.890036673420425

> <JCHEM_BIOAVAILABILITY>
1

> <JCHEM_DONOR_COUNT>
3

> <JCHEM_FORMAL_CHARGE>
0

> <JCHEM_GHOSE_FILTER>
0

> <JCHEM_IUPAC>
(2S)-2,4-diaminobutanoic acid

> <ALOGPS_LOGP>
-3.66

> <JCHEM_LOGP>
-4.0127487706017835

> <ALOGPS_LOGS>
0.36

> <JCHEM_MDDR_LIKE_RULE>
0

> <JCHEM_NEUTRAL_CHARGE>
1

> <JCHEM_NUMBER_OF_RINGS>
0

> <JCHEM_PHYSIOLOGICAL_CHARGE>
1

> <JCHEM_PKA_STRONGEST_ACIDIC>
2.546541066724605

> <JCHEM_PKA_STRONGEST_BASIC>
9.952302620531269

> <JCHEM_POLAR_SURFACE_AREA>
89.34

> <JCHEM_REFRACTIVITY>
28.563900000000004

> <JCHEM_ROTATABLE_BOND_COUNT>
3

> <JCHEM_RULE_OF_FIVE>
1

> <ALOGPS_SOLUBILITY>
2.70e+02 g/l

> <JCHEM_TRADITIONAL_IUPAC>
biotin

> <JCHEM_VEBER_RULE>
0

> <DRUGBANK_ID>
DB03817

> <SECONDARY_ACCESSION_NUMBERS>
EXPT01102

> <DRUG_GROUPS>
experimental

> <GENERIC_NAME>
L-2,4-diaminobutyric acid

> <SYNONYMS>
(S)-2,4-Diaminobutanoic acid; alpha,gamma-Diaminobutyrate; Dbu; L-2,4-Diaminobutanoate; L-2,4-diaminobutanoic acid; L-2,4-Diaminobutyrate; L-Dbu; L-diaminobutyric acid

$$$$
