
  Mrv0541 05041406082D          

 75 78  0  0  1  0            999 V2000
   17.1473    4.9500    0.0000 C   0  0  0  0  0  0  0  0  0  0  0  0
   13.5749    3.7125    0.0000 C   0  0  0  0  0  0  0  0  0  0  0  0
   10.7171    3.7125    0.0000 C   0  0  0  0  0  0  0  0  0  0  0  0
   20.0052    4.9500    0.0000 C   0  0  0  0  0  0  0  0  0  0  0  0
    7.8592    7.0125    0.0000 C   0  0  0  0  0  0  0  0  0  0  0  0
    9.2881    6.1875    0.0000 C   0  0  0  0  0  0  0  0  0  0  0  0
   15.0039    6.1875    0.0000 C   0  0  0  0  0  0  0  0  0  0  0  0
   20.8122    3.9535    0.0000 C   0  0  0  0  0  0  0  0  0  0  0  0
   17.1473    3.3000    0.0000 C   0  0  0  0  0  0  0  0  0  0  0  0
   17.1473    2.4750    0.0000 C   0  0  0  0  0  0  0  0  0  0  0  0
    8.5737    4.9500    0.0000 C   0  0  0  0  0  0  0  0  0  0  0  0
   16.4328    3.7125    0.0000 C   0  0  0  0  0  0  0  0  0  0  0  0
    9.2881    4.5375    0.0000 C   0  0  0  0  0  0  0  0  0  0  0  0
   17.8618    2.0625    0.0000 C   0  0  0  0  0  0  0  0  0  0  0  0
   12.8605    4.9500    0.0000 C   0  0  0  0  0  0  0  0  0  0  0  0
   12.1460    4.5375    0.0000 C   0  0  0  0  0  0  0  0  0  0  0  0
    8.5737    5.7750    0.0000 C   0  0  0  0  0  0  0  0  0  0  0  0
   17.8618    7.0125    0.0000 C   0  0  0  0  0  0  0  0  0  0  0  0
   18.5762    5.7750    0.0000 C   0  0  0  0  0  0  0  0  0  0  0  0
   16.4328    7.0125    0.0000 C   0  0  0  0  0  0  0  0  0  0  0  0
   15.0039    4.5375    0.0000 C   0  0  0  0  0  0  0  0  0  0  0  0
   20.8122    3.4715    0.0000 C   0  0  0  0  0  0  0  0  0  0  0  0
   19.3012    0.5447    0.0000 C   0  0  0  0  0  0  0  0  0  0  0  0
   19.9478    1.5289    0.0000 C   0  0  0  0  0  0  0  0  0  0  0  0
    7.1447    5.7750    0.0000 C   0  0  0  0  0  0  0  0  0  0  0  0
   16.4328    4.5375    0.0000 C   0  0  2  0  0  0  0  0  0  0  0  0
   13.5749    4.5375    0.0000 C   0  0  1  0  0  0  0  0  0  0  0  0
   10.7171    4.5375    0.0000 C   0  0  1  0  0  0  0  0  0  0  0  0
   19.2907    4.5375    0.0000 C   0  0  1  0  0  0  0  0  0  0  0  0
   17.8618    6.1875    0.0000 C   0  0  1  0  0  0  0  0  0  0  0  0
   17.1473    7.4250    0.0000 C   0  0  1  0  0  0  0  0  0  0  0  0
   20.0052    3.3000    0.0000 C   0  0  0  0  0  0  0  0  0  0  0  0
   18.8782   -0.0320    0.0000 C   0  0  0  0  0  0  0  0  0  0  0  0
   20.7197    1.2375    0.0000 C   0  0  0  0  0  0  0  0  0  0  0  0
   11.4315    4.9500    0.0000 C   0  0  0  0  0  0  0  0  0  0  0  0
   18.5762    4.9500    0.0000 C   0  0  0  0  0  0  0  0  0  0  0  0
   10.0026    4.9500    0.0000 C   0  0  2  0  0  0  0  0  0  0  0  0
   14.2894    4.9500    0.0000 C   0  0  1  0  0  0  0  0  0  0  0  0
   15.7184    4.9500    0.0000 C   0  0  1  0  0  0  0  0  0  0  0  0
   17.8618    1.2375    0.0000 C   0  0  0  0  0  0  0  0  0  0  0  0
   16.4328    6.1875    0.0000 C   0  0  0  0  0  0  0  0  0  0  0  0
   19.2907    3.7125    0.0000 C   0  0  1  0  0  0  0  0  0  0  0  0
   19.7032   -0.0320    0.0000 C   0  0  0  0  0  0  0  0  0  0  0  0
   20.7197    2.0625    0.0000 C   0  0  0  0  0  0  0  0  0  0  0  0
   18.6233    0.7526    0.0000 N   0  0  0  0  0  0  0  0  0  0  0  0
   20.0052    2.4750    0.0000 N   0  0  0  0  0  0  0  0  0  0  0  0
   19.9581    0.7526    0.0000 N   0  0  0  0  0  0  0  0  0  0  0  0
    7.8592    6.1875    0.0000 N   0  0  0  0  0  0  0  0  0  0  0  0
    7.1447    4.9500    0.0000 O   0  0  0  0  0  0  0  0  0  0  0  0
   17.1473    5.7750    0.0000 O   0  0  0  0  0  0  0  0  0  0  0  0
   17.1473    8.2500    0.0000 O   0  0  0  0  0  0  0  0  0  0  0  0
   11.4315    5.7750    0.0000 O   0  0  0  0  0  0  0  0  0  0  0  0
   17.8618    4.5375    0.0000 O   0  0  0  0  0  0  0  0  0  0  0  0
   16.7684    5.4338    0.0000 O   0  0  0  0  0  0  0  0  0  0  0  0
   10.0026    5.7750    0.0000 O   0  0  0  0  0  0  0  0  0  0  0  0
   14.2894    5.7750    0.0000 O   0  0  0  0  0  0  0  0  0  0  0  0
   20.0052    4.1250    0.0000 O   0  0  0  0  0  0  0  0  0  0  0  0
   18.8158    1.3014    0.0000 O   0  0  0  0  0  0  0  0  0  0  0  0
   21.2247    2.7571    0.0000 O   0  0  0  0  0  0  0  0  0  0  0  0
   19.4322    0.8849    0.0000 O   0  0  0  0  0  0  0  0  0  0  0  0
   15.7184    5.7750    0.0000 O   0  0  0  0  0  0  0  0  0  0  0  0
   16.4328    2.0625    0.0000 H   0  0  0  0  0  0  0  0  0  0  0  0
    7.8592    4.5375    0.0000 H   0  0  0  0  0  0  0  0  0  0  0  0
   18.5762    2.4750    0.0000 H   0  0  0  0  0  0  0  0  0  0  0  0
    9.1040    6.4070    0.0000 H   0  0  0  0  0  0  0  0  0  0  0  0
   17.1473    4.1250    0.0000 H   0  0  0  0  0  0  0  0  0  0  0  0
   12.8605    4.1250    0.0000 H   0  0  0  0  0  0  0  0  0  0  0  0
   11.4315    4.1250    0.0000 H   0  0  0  0  0  0  0  0  0  0  0  0
   19.2907    5.3625    0.0000 H   0  0  0  0  0  0  0  0  0  0  0  0
   17.1473    6.6000    0.0000 H   0  0  0  0  0  0  0  0  0  0  0  0
   17.8618    7.8375    0.0000 H   0  0  0  0  0  0  0  0  0  0  0  0
   10.0026    4.1250    0.0000 H   0  0  0  0  0  0  0  0  0  0  0  0
   14.2894    4.1250    0.0000 H   0  0  0  0  0  0  0  0  0  0  0  0
   15.7184    4.1250    0.0000 H   0  0  0  0  0  0  0  0  0  0  0  0
   19.7032    4.4270    0.0000 H   0  0  0  0  0  0  0  0  0  0  0  0
 10  9  1  0  0  0  0
 12  9  1  0  0  0  0
 13 11  1  0  0  0  0
 14 10  2  0  0  0  0
 16 15  1  0  0  0  0
 17 11  2  0  0  0  0
 26  1  1  6  0  0  0
 26 12  1  0  0  0  0
 27  2  1  1  0  0  0
 27 15  1  0  0  0  0
 28  3  1  6  0  0  0
 29  4  1  6  0  0  0
 30 18  1  0  0  0  0
 30 19  1  0  0  0  0
 31 18  1  0  0  0  0
 31 20  1  0  0  0  0
 32 22  2  0  0  0  0
 33 23  2  0  0  0  0
 34 24  2  0  0  0  0
 35 16  1  0  0  0  0
 35 28  1  0  0  0  0
 36 19  1  0  0  0  0
 36 29  1  0  0  0  0
 37 13  1  0  0  0  0
 37 28  1  0  0  0  0
 38 21  1  0  0  0  0
 38 27  1  0  0  0  0
 39 21  1  6  0  0  0
 39 26  1  0  0  0  0
 40 14  1  0  0  0  0
 41 20  1  0  0  0  0
 42 29  1  0  0  0  0
 42 32  1  0  0  0  0
 43 33  1  0  0  0  0
 44 34  1  0  0  0  0
 45 33  1  0  0  0  0
 45 40  2  0  0  0  0
 46 32  1  0  0  0  0
 46 44  2  0  0  0  0
 47 34  1  0  0  0  0
 47 43  2  0  0  0  0
 48  5  1  0  0  0  0
 48 17  1  0  0  0  0
 48 25  1  0  0  0  0
 49 25  1  0  0  0  0
 30 50  1  1  0  0  0
 31 51  1  1  0  0  0
 52 35  2  0  0  0  0
 53 36  2  0  0  0  0
 54 41  2  0  0  0  0
 55  6  1  0  0  0  0
 37 55  1  6  0  0  0
 56  7  1  0  0  0  0
 38 56  1  6  0  0  0
 57  8  1  0  0  0  0
 42 57  1  6  0  0  0
 58 23  1  0  0  0  0
 58 40  1  0  0  0  0
 59 22  1  0  0  0  0
 59 44  1  0  0  0  0
 60 24  1  0  0  0  0
 60 43  1  0  0  0  0
 61 39  1  0  0  0  0
 61 41  1  0  0  0  0
 62 10  1  0  0  0  0
 63 11  1  0  0  0  0
 64 14  1  0  0  0  0
 65 17  1  0  0  0  0
 26 66  1  1  0  0  0
 27 67  1  6  0  0  0
 28 68  1  1  0  0  0
 29 69  1  1  0  0  0
 30 70  1  6  0  0  0
 31 71  1  6  0  0  0
 37 72  1  6  0  0  0
 38 73  1  6  0  0  0
 39 74  1  1  0  0  0
 42 75  1  1  0  0  0
M  END
> <DATABASE_ID>
DB03850

> <DATABASE_NAME>
drugbank

> <SMILES>
[H]\C(C[C@@]([H])(OC)[C@@]([H])(C)C(=O)CC[C@]([H])(C)[C@]([H])(C[C@]1([H])OC(=O)C[C@@]([H])(O)C[C@]([H])(O)CC(=O)[C@]([H])(C)[C@]([H])(OC)C2=COC(=N2)C2=COC(=N2)C2=COC(=N2)\C([H])=C([H])\CC[C@@]1([H])C)OC)=C(\[H])N(C)CO

> <INCHI_IDENTIFIER>
InChI=1S/C44H64N4O13/c1-26-12-9-10-14-40-45-33(23-58-40)43-47-34(24-60-43)44-46-32(22-59-44)42(57-8)29(4)36(53)19-30(50)18-31(51)20-41(54)61-39(26)21-38(56-7)27(2)15-16-35(52)28(3)37(55-6)13-11-17-48(5)25-49/h10-11,14,17,22-24,26-31,37-39,42,49-51H,9,12-13,15-16,18-21,25H2,1-8H3/b14-10+,17-11+/t26-,27+,28+,29+,30+,31+,37-,38+,39+,42+/m1/s1

> <INCHI_KEY>
VMTDLKOWOZYTPX-RZKNNNBGSA-N

> <FORMULA>
C44H64N4O13

> <MOLECULAR_WEIGHT>
856.998

> <EXACT_MASS>
856.446988154

> <JCHEM_ACCEPTOR_COUNT>
13

> <JCHEM_ATOM_COUNT>
125

> <JCHEM_AVERAGE_NEUTRAL_MICROSPECIES_CHARGE>
0.009991052945818308

> <JCHEM_AVERAGE_POLARIZABILITY>
93.29860900225253

> <JCHEM_BIOAVAILABILITY>
0

> <JCHEM_DONOR_COUNT>
3

> <JCHEM_FORMAL_CHARGE>
0

> <JCHEM_GHOSE_FILTER>
0

> <JCHEM_IUPAC>
(10S,11R,14S,16S,20S,21R,24E)-14,16-dihydroxy-20-[(2S,3S,7R,8R,10E)-11-[(hydroxymethyl)(methyl)amino]-2,8-dimethoxy-3,7-dimethyl-6-oxoundec-10-en-1-yl]-10-methoxy-11,21-dimethyl-3,7,19,27-tetraoxa-29,30,31-triazatetracyclo[24.2.1.1^{2,5}.1^{6,9}]hentriaconta-1(28),2(31),4,6(30),8,24,26(29)-heptaene-12,18-dione

> <ALOGPS_LOGP>
3.73

> <JCHEM_LOGP>
4.245222628

> <ALOGPS_LOGS>
-4.61

> <JCHEM_MDDR_LIKE_RULE>
1

> <JCHEM_NEUTRAL_CHARGE>
0

> <JCHEM_NUMBER_OF_RINGS>
4

> <JCHEM_PHYSIOLOGICAL_CHARGE>
0

> <JCHEM_PKA>
14.735625022110687

> <JCHEM_PKA_STRONGEST_ACIDIC>
13.980766792873746

> <JCHEM_PKA_STRONGEST_BASIC>
5.003977647490182

> <JCHEM_POLAR_SURFACE_AREA>
230.14999999999995

> <JCHEM_REFRACTIVITY>
244.03540000000004

> <JCHEM_ROTATABLE_BOND_COUNT>
15

> <JCHEM_RULE_OF_FIVE>
0

> <ALOGPS_SOLUBILITY>
2.13e-02 g/l

> <JCHEM_TRADITIONAL_IUPAC>
tetrahydrofolic acid

> <JCHEM_VEBER_RULE>
0

> <DRUGBANK_ID>
DB03850

> <SECONDARY_ACCESSION_NUMBERS>
EXPT01955

> <DRUG_GROUPS>
experimental

> <GENERIC_NAME>
Jaspisamide A

$$$$
