
  Mrv0541 02231218062D          

 31 34  0  0  1  0            999 V2000
    2.1587    2.5708    0.0000 O   0  0  0  0  0  0  0  0  0  0  0  0
    4.8165   -0.8250    0.0000 O   0  0  0  0  0  0  0  0  0  0  0  0
    3.3875    0.8250    0.0000 N   0  0  0  0  0  0  0  0  0  0  0  0
    5.5310    0.4125    0.0000 N   0  0  0  0  0  0  0  0  0  0  0  0
    3.3013    1.6455    0.0000 C   0  0  0  0  0  0  0  0  0  0  0  0
    2.6339    0.4895    0.0000 C   0  0  0  0  0  0  0  0  0  0  0  0
    2.4943    1.8170    0.0000 C   0  0  2  0  0  0  0  0  0  0  0  0
    2.0818    1.1026    0.0000 C   0  0  0  0  0  0  0  0  0  0  0  0
    4.1020    0.4125    0.0000 C   0  0  0  0  0  0  0  0  0  0  0  0
    4.8165    0.8250    0.0000 C   0  0  2  0  0  0  0  0  0  0  0  0
    4.8165    1.6500    0.0000 C   0  0  0  0  0  0  0  0  0  0  0  0
    5.5310   -0.4125    0.0000 C   0  0  0  0  0  0  0  0  0  0  0  0
    6.2455   -0.8250    0.0000 C   0  0  0  0  0  0  0  0  0  0  0  0
    6.2455    0.8250    0.0000 C   0  0  0  0  0  0  0  0  0  0  0  0
    4.1020    2.0625    0.0000 C   0  0  0  0  0  0  0  0  0  0  0  0
    5.5310    2.0625    0.0000 C   0  0  0  0  0  0  0  0  0  0  0  0
    6.2455   -1.6500    0.0000 C   0  0  0  0  0  0  0  0  0  0  0  0
    6.9599   -0.4125    0.0000 C   0  0  0  0  0  0  0  0  0  0  0  0
    4.1020    2.8876    0.0000 C   0  0  0  0  0  0  0  0  0  0  0  0
    5.5310    2.8876    0.0000 C   0  0  0  0  0  0  0  0  0  0  0  0
    4.8165    3.3001    0.0000 C   0  0  0  0  0  0  0  0  0  0  0  0
    6.9599   -2.0625    0.0000 C   0  0  0  0  0  0  0  0  0  0  0  0
    6.9599    0.4125    0.0000 C   0  0  0  0  0  0  0  0  0  0  0  0
    5.5310   -2.0625    0.0000 C   0  0  0  0  0  0  0  0  0  0  0  0
    7.6745   -0.8250    0.0000 C   0  0  0  0  0  0  0  0  0  0  0  0
    6.9599   -2.8876    0.0000 C   0  0  0  0  0  0  0  0  0  0  0  0
    7.6745    0.8250    0.0000 C   0  0  0  0  0  0  0  0  0  0  0  0
    5.5310   -2.8876    0.0000 C   0  0  0  0  0  0  0  0  0  0  0  0
    8.3889   -0.4125    0.0000 C   0  0  0  0  0  0  0  0  0  0  0  0
    6.2455   -3.3001    0.0000 C   0  0  0  0  0  0  0  0  0  0  0  0
    8.3889    0.4125    0.0000 C   0  0  0  0  0  0  0  0  0  0  0  0
  7  1  1  6  0  0  0
  2 12  2  0  0  0  0
  3  5  1  0  0  0  0
  3  6  1  0  0  0  0
  3  9  1  0  0  0  0
 10  4  1  6  0  0  0
  4 12  1  0  0  0  0
  4 14  1  0  0  0  0
  5  7  1  0  0  0  0
  6  8  1  0  0  0  0
  7  8  1  0  0  0  0
  9 10  1  0  0  0  0
 10 11  1  0  0  0  0
 11 15  2  0  0  0  0
 11 16  1  0  0  0  0
 12 13  1  0  0  0  0
 13 17  1  0  0  0  0
 13 18  1  0  0  0  0
 15 19  1  0  0  0  0
 16 20  2  0  0  0  0
 17 22  2  0  0  0  0
 17 24  1  0  0  0  0
 18 23  2  0  0  0  0
 18 25  1  0  0  0  0
 19 21  2  0  0  0  0
 20 21  1  0  0  0  0
 22 26  1  0  0  0  0
 23 27  1  0  0  0  0
 24 28  2  0  0  0  0
 25 29  2  0  0  0  0
 26 30  2  0  0  0  0
 27 31  2  0  0  0  0
 28 30  1  0  0  0  0
 29 31  1  0  0  0  0
M  END
> <DATABASE_ID>
DB05104

> <DATABASE_NAME>
drugbank

> <SMILES>
CN([C@H](CN1CC[C@H](O)C1)C1=CC=CC=C1)C(=O)C(C1=CC=CC=C1)C1=CC=CC=C1

> <INCHI_IDENTIFIER>
InChI=1S/C27H30N2O2/c1-28(25(21-11-5-2-6-12-21)20-29-18-17-24(30)19-29)27(31)26(22-13-7-3-8-14-22)23-15-9-4-10-16-23/h2-16,24-26,30H,17-20H2,1H3/t24-,25+/m0/s1

> <INCHI_KEY>
JHLHNYVMZCADTC-LOSJGSFVSA-N

> <FORMULA>
C27H30N2O2

> <MOLECULAR_WEIGHT>
414.5393

> <EXACT_MASS>
414.230728214

> <JCHEM_ACCEPTOR_COUNT>
3

> <JCHEM_ATOM_COUNT>
61

> <JCHEM_AVERAGE_NEUTRAL_MICROSPECIES_CHARGE>
0.9362980242552493

> <JCHEM_AVERAGE_POLARIZABILITY>
46.07079031475627

> <JCHEM_BIOAVAILABILITY>
1

> <JCHEM_DONOR_COUNT>
1

> <JCHEM_FORMAL_CHARGE>
0

> <JCHEM_GHOSE_FILTER>
1

> <JCHEM_IUPAC>
N-[(1S)-2-[(3S)-3-hydroxypyrrolidin-1-yl]-1-phenylethyl]-N-methyl-2,2-diphenylacetamide

> <ALOGPS_LOGP>
3.66

> <JCHEM_LOGP>
3.9891784373333334

> <ALOGPS_LOGS>
-4.57

> <JCHEM_MDDR_LIKE_RULE>
1

> <JCHEM_NEUTRAL_CHARGE>
1

> <JCHEM_NUMBER_OF_RINGS>
4

> <JCHEM_PHYSIOLOGICAL_CHARGE>
1

> <JCHEM_PKA_STRONGEST_ACIDIC>
14.847232339355953

> <JCHEM_PKA_STRONGEST_BASIC>
8.167258122567917

> <JCHEM_POLAR_SURFACE_AREA>
43.78

> <JCHEM_REFRACTIVITY>
124.81150000000004

> <JCHEM_ROTATABLE_BOND_COUNT>
7

> <JCHEM_RULE_OF_FIVE>
1

> <ALOGPS_SOLUBILITY>
1.12e-02 g/l

> <JCHEM_TRADITIONAL_IUPAC>
tetrahydrofolic acid

> <JCHEM_VEBER_RULE>
0

> <DRUGBANK_ID>
DB05104

> <DRUG_GROUPS>
investigational

> <GENERIC_NAME>
Asimadoline

> <SYNONYMS>
Asimadoline

$$$$
