
  Mrv0541 05061307382D          

 11 11  0  0  0  0            999 V2000
   -1.4289    2.4750    0.0000 C   0  0  0  0  0  0  0  0  0  0  0  0
    0.7145   -0.4125    0.0000 C   0  0  0  0  0  0  0  0  0  0  0  0
    1.4289    0.0000    0.0000 C   0  0  0  0  0  0  0  0  0  0  0  0
    0.0000    0.0000    0.0000 C   0  0  0  0  0  0  0  0  0  0  0  0
    1.4289    0.8250    0.0000 C   0  0  0  0  0  0  0  0  0  0  0  0
    0.0000    0.8250    0.0000 C   0  0  0  0  0  0  0  0  0  0  0  0
    0.7145    1.2375    0.0000 C   0  0  0  0  0  0  0  0  0  0  0  0
   -0.7145    1.2375    0.0000 C   0  0  0  0  0  0  0  0  0  0  0  0
    0.7145    2.0625    0.0000 O   0  0  0  0  0  0  0  0  0  0  0  0
   -1.4289    0.8250    0.0000 O   0  0  0  0  0  0  0  0  0  0  0  0
   -0.7145    2.0625    0.0000 O   0  0  0  0  0  0  0  0  0  0  0  0
  3  2  2  0  0  0  0
  4  2  1  0  0  0  0
  5  3  1  0  0  0  0
  6  4  2  0  0  0  0
  7  5  2  0  0  0  0
  7  6  1  0  0  0  0
  8  6  1  0  0  0  0
  9  7  1  0  0  0  0
 10  8  2  0  0  0  0
 11  1  1  0  0  0  0
 11  8  1  0  0  0  0
M  END
> <DATABASE_ID>
DB09543

> <DATABASE_NAME>
drugbank

> <SMILES>
COC(=O)C1=CC=CC=C1O

> <INCHI_IDENTIFIER>
InChI=1S/C8H8O3/c1-11-8(10)6-4-2-3-5-7(6)9/h2-5,9H,1H3

> <INCHI_KEY>
OSWPMRLSEDHDFF-UHFFFAOYSA-N

> <FORMULA>
C8H8O3

> <MOLECULAR_WEIGHT>
152.1473

> <EXACT_MASS>
152.047344122

> <JCHEM_ACCEPTOR_COUNT>
2

> <JCHEM_ATOM_COUNT>
19

> <JCHEM_AVERAGE_NEUTRAL_MICROSPECIES_CHARGE>
-0.0018901372033062573

> <JCHEM_AVERAGE_POLARIZABILITY>
14.982038591572135

> <JCHEM_BIOAVAILABILITY>
1

> <JCHEM_DONOR_COUNT>
1

> <JCHEM_FORMAL_CHARGE>
0

> <JCHEM_GHOSE_FILTER>
0

> <JCHEM_IUPAC>
methyl 2-hydroxybenzoate

> <ALOGPS_LOGP>
2.07

> <JCHEM_LOGP>
2.3231574583333336

> <ALOGPS_LOGS>
-1.42

> <JCHEM_MDDR_LIKE_RULE>
0

> <JCHEM_NEUTRAL_CHARGE>
0

> <JCHEM_NUMBER_OF_RINGS>
1

> <JCHEM_PHYSIOLOGICAL_CHARGE>
0

> <JCHEM_PKA_STRONGEST_ACIDIC>
9.722685015540604

> <JCHEM_PKA_STRONGEST_BASIC>
-4.287418929758234

> <JCHEM_POLAR_SURFACE_AREA>
46.53

> <JCHEM_REFRACTIVITY>
40.0642

> <JCHEM_ROTATABLE_BOND_COUNT>
2

> <JCHEM_RULE_OF_FIVE>
1

> <ALOGPS_SOLUBILITY>
5.73e+00 g/l

> <JCHEM_TRADITIONAL_IUPAC>
tetrahydrofolic acid

> <JCHEM_VEBER_RULE>
0

> <DRUGBANK_ID>
DB09543

> <DRUG_GROUPS>
approved; vet_approved

> <GENERIC_NAME>
Methyl salicylate

> <SYNONYMS>
2-(Methoxycarbonyl)phenol; 2-Carbomethoxyphenol; 2-Hydroxybenzoic acid methyl ester; Betula oil; Gaultheria oil; Methyl 2-hydroxybenzoate; Methyl o-hydroxybenzoate; Methyl salicylate; Natural wintergreen oil; Oil of wintergreen; Spicewood Oil; Sweet birch oil; Teaberry oil

> <PRODUCTS>
1st Medxpatch With Lidocaine 4%; 1st Medxpatch With Lidocaine 4%-rx; 365 Whole Foods Market Anticavity/Antigingivitis Mouthwash; 365 Whole Foods Market Antigingivitis Mouthwash; 701 Dieda Zhengtong Yaogao Medicated; AA Top Medicated; AIM Muscle Pain Relief Cream; AMPlify Relief MM; ASYSTEM Radical Relief Gel Roll-On 300mg CBD; ATOPALM Deep Penetrating Pain Relieving; AVON HeXashield Pain Relief for Muscle, Back and Joint Cream; Abejas y Viboras Roll On; Aboniki Balm - Topical Pain Relief Balm; Adazin; Advanced Antiseptic; Advanced Antiseptic Citrus; Advanced Citrus; Advanced Citrus Antiseptic; Ageless Pain Relief; Air Salonpas; Air Sinsin Pas; Air Sinsinpas-EX; Alsirub Ont; Amber Mouth Rinse; Amrutanjan Relief Pain Balm; Amrutanjan Relief Strong Pain Balm; Analgesic Balm; Anitseptic Mouth Rinse; Antiphlamine; Antiphlamine Coin Plaster; Antiphlogistine Rub A 535 Extra Strength; Antiphlogistine Rub A535; Antiseptic; Antiseptic Blue Mint; Antiseptic Blue Mint Mouthwash; Antiseptic Lil Drug Store Products; Antiseptic Mouth Rinse; Antiseptic Mouth rinse; Antiseptic Mouthrinse; Antiseptic Rinse; Antiseptic Rinse Spring Mint; Antispetic; Antispetic Mouth Rinse; Apanol Arthritis Extra Strength; Apanol Linimento Obrero; Apanol Muscle Rub; Apeaz Ultra; Aqua Blue Mouthwash; Arctic Heat; Arex Sinsin Pas; Arnica De LA Abuela; Art Of Sport Pain Relieving Ultra Strength; Arthmed Topical Analgesic; Arthricare Pain Relieving Rub Triple Medicated Gel; Arthricare for Women Nighttime; Arthritis Hot; Arthritis Pain Reliever Herbalife; Arthritis Pain Relieving Cream; Arthritis Plus Gel; Arthrocare Lotion; Arthrocare Maximum Arthritis Pain Relief; AsperFlex Advance; Aspi-Rub Pain Reliever; Assured; AthletesGel; Athletic Liniment; Atomic Balm; Atopalm Moisturizing Muscle Rub; Aurora Blue Mint; Aurora Fresh Burst; Aveda Active Composition; Axe Brand Medicated; BAROX S 60g; Back Pain Relieving Oil; Bakers Best Arthritis Pain Relief; Balm Stick; Balsamo de Ubre Mascura; Balsamo de Vaca Mascura; Balsang Pain Relief; Banalg; Barox S; Being Well Antiseptic; Bengay Arthritis Pain Relieving; Bengay Greaseless; Bengay Greaseless Pain Relieving; Bengay Pain Relieving Greaseless; Bengay Ultra Strength Non Greasy Pain Relieving; Bengay Ultra Strength Non-greasy; Berri-Freez Plus; Borasol; Bronchodex-rub; Buenos Dias de Personna citrus flavour; Buenos Dias de Personna cool mint; Buenos Dias de Personna mint; Buenos Dias de Personna original; Bumooly-S; CAREALL Muscle Rub Ultra Strength; CBD Global Freeze; CBD Heat Relief; CLM Patch; CVS Cold and Hot Pain Relieving Stick; CVS Extra Strength Cold and Hot Pain Relieving; CVS Extra Strength Pain Relief; CVS Health Cold and Hot Pain Relieving Extra Strength; CVS Health Muscle Rub Ultra Strength; CVS Health Pain Relieving; CVS Hot and Cold Balm; CVS Medicated Pain; CVS Medicated Pain Relieving; CVS Muscle Rub; Cal Mo Dol Ont; Calmadol; Calorub; Calypxo HP Pain Relief; Calypxo Pain Relief; Cam Sun (huile Therapeutique); CannaSerene Hot and Cold CBD Cream; Capasil Pain Relieving; Carboseptol; Care One Cool Heat Extra Strength; Care One Cool Heat Pain Relieving; Care One Pain Relief; Carmatis Ont; Castiva Cooling; Cbd-kings With Lidocaine 4%; Chan Yat Hing She Kun Wool Lok Medicated Oil; Cho-A Point Plaster; Cml; Coats Aloe Analgesic; Cold Spot Point Relief; Cold and Heat Pain Relieving Cream; Cold and Hot CVS; Cold and Hot Scherer Labs; Comfort EZ Extra Strength Pain Relief Patch; Comfort EZ Extra StrengthTransdermal Patch; Comfort EZ Pain Relief Patch; Cool Breeze; Cool Heat; Cool Mint Antiseptic Mouthwash; Cool Pap Cataplasma; Coral Analgesic; Coralite Muscle Joint; Coralite Muscle and Joint Pain Relief; Coralite Pain Relief; Coralite Pain Relief Stick; Cramergesic; Creations Garden Pain Relief Roll On; DFS 75mg DR/MS 25%/MENTH 6%/CAP 0.025% PAK; DINGTAI PHARMATopical Analgesic; DISCOUNT DRUG MART Original Flavor Mouthwash; DR JOE LAB PMS Menstrual Pain Relief Cream DR JOE LAB; DR JOE LAB PMS Menstrual Pain Relief Oil; DeeDol Topical Analgesic; Dendracin Neurodendraxcin; Dfs 1.5%/ms 25%/menth 6%/cap 0.025% Pak; DicloPR; Diclovix; Dieda Fengshi Gao Medicated; Discount Drug Mart Blue Mint Mouthwash; Discount Drug Mart Spring Mint Mouthwash; Dit Da Shui; DoctorRelief; Dollar General Medicated Pain Relief Patch; Dolor-parche With Lidocaine-RX; Doloracin Rx; Doloracin/l Rx With Lidocaine; Doloran; Double Prawn Rumagon; Douleurin Ice Pain Relief; Douleurin Topical Pain Relief; Dr Demand Relief Pain Relief; Dr Goldsons; Dr Sheffield Muscle Rub Cream; Dr. J.I.s Arthritis Plus Gel; Dr. JIs Arthritis Plus; Dr. Phillips Formulations Muscle Joint Relief; Dr.'s Cream; Dragon; Dragon Pain Relief; Dso Dressing; Duane Reade hot and cold balm; DynaRub; Dynarex Muscle Rub Cream; E Mei Shan Medicated; EZ-Relief; Eagle Brand Medicated Oil; Eagle Extra Strength; Eagle Medicated; Eagle Medicated Aromatic; Eagle Medicated Oil Refreshing; Earths Care Pain Relieving; Electric Medicated Balm; Equaline Muscle Rub; Equaline cool heat; Equaline muscle rub ultra strength; Equate Cool and Heat; Equate Pain Relief Patch Camphor/Menthol/Salicylate; Equate Pain Relieving; Equate Pain Relieving Ultra Strength; Equate Tartar Control Plus; Essentials Herbal Muscle Massage; ExaltHemp Hot and Cold Pain Cream; Exchange Select Cool Heat; Exigence; Exoten-C; Extra Strength; Family Care Menthol Relief; Family Care Muscle Rub; Family Care Muscle Rub Pain Reliever; Family Care Pain Relief; Family Care Thera Flex Pain; Family Dollar Antiseptic Mouth Rinse; Family Dollar Antiseptic Mouth Rinse Blue Mint; Family Dollar Antiseptic Mouth Rinse Spring Mint; Family Wellness Blue Mint; Family Wellness Green Mint; Family Wellness Original Amber; Family Wellness Pain Relieving; Family Wellness Ultra Mouthwash; Fast Relief Artrosamin; Fast Relief Reumacetin; Fenovar; Flanax; Flanax Liniment; Flanax Liniment Unit Dose Display; Flanax Pain Relief Kit; FlexSport Roll On; Flexall Plus; Flexilon; Flexitol Foot and Knee Pain Relief; Flower O Life Pain Relieving Balm; Foot Rehab Pain relief and moisturizer Mission; Foot Soak; Foot Works Arthritis Achy Foot and Muscle; Fordagel Kit; Formula45 Arthritis Blend; FourPainRX; Freezin Cold Toast; Friccilicont; GADADERM Frozen Ice Advance Pain Relief; Genorthix Pain Relieving Roll On; Genuine Efficascent; Germa Manteca Ubre Plus (RED); Germa Manteca Ubre Plus (TIN); Germa Manteca Ubre Plus (YELLOW); Germa Snake Oil Bee Venom; Giant Eagle Cool Burst Antiseptic; Giant Eagle Cool Burst Mouthwash; Giant Eagle Original Antiseptic; Giant Eagle Original Mouthwash; Giant Eagle Spring Fresh Antiseptic; Giant Eagle Spring Fresh Mouthwash; Ginsenggo; Golden Cup Balm 1950; Golden Sunshine Far Infrared COOL Herbal; Golden Sunshine Far Infrared HOT Herbal; Golden Sunshine Far Infrared Herbal; Golden Sunshine Herbal; Good Neighbor Pharmacy Cold and Hot Therapy Pain Relief Balm Extra Strength; Good Neighbor Pharmacy Muscle Rub Ultra Strength; Good Neighbor pharmacy muscle rub; Good Sense Cool Heat; Good Sense Muscle; Good Sense Ultra Strength Muscle Rub; Green Compass Reduce Topical Pain; Green Farm Potent Thermal Relief; Green MINT Mouth Rinse; Green Remedy Cooling Roll On; HEMP Cream; Hak Kwai Pain Relieving; Half and Half Balm; Handy Solutions Cool Mint Listerine Antiseptic Mouthwash; Handy Solutions Listerine Antiseptic Mouthwash; Happy Elf CBD Pain Relief Cream; Happy Elf Hemp Pain Relief Cream; Health Mart Muscle Rub; Health Mart Pain Relief; Health Mart muscle; Healthy Accents Muscle Rub; Healthy Accents muscle ultra strength; Heat Rub; Heet Liniment Liq; Hei Gui Pain Relieving; Helix Tri-Active Therapy Cream; Hemp Pain; Herb Street Sore Muscle Relief; Herbal; Herbal Balm; Herbal Heat; Herbal Pain Relieving; Herbal UTAPLAS External Analgesic Plaster; Herbal UTAPLAS.TN; Herbal Utaplas External Analgesic Plaster; Herbalgy; Hong Hoa Pain Relieving; Hot Pap Cataplasma; Hot Stuff; Hua Tuo Huo Lu Oil; Human Science Muscle Pain Relief; Human Science Pain Relief; Humco Wintergreen Oil; Huo Luo Pain Relieving; Hysan Analgesic; Hysan Hua Tuo Huo Lu; Hysan Hua Tuo Medicated; Hysan Huo Lu Medicated; Hysan Pain Reliever; Hyundai Moolpas F; Hyvee Antiseptic Blue Mint; Hyvee Antiseptic Mint; Hyvee Antiseptic Original; Hyvee Blue Mint; Hyvee Health Cool Blue Sugar Free; Hyvee Health Green Mint Sugar Free; ICE QUAKE Analgesic Cream White; Ice Blue Pain Alleviating Rub; Ice Quake Plus; Ice Quake White; IceQuake Analgestic White; Icy Hot Pain Relieving Balm; Icy Hot Pain Relieving Cream; Icy Hot Pain Relieving Stick; Imada Red Flower Analgesic; Imbue Pain Relief; Imman coolbreeze; Inarub Crm; Infraline Liq; Instaflex Extra Strength Pain Relief Cream; Instaflex Pain Relief; Jason Cooling Minerals and Tea Tree Pain Therapy; Jimin Zhuifeng Gao; Joint Maintenance Compliance Kit; Josephs Lion Pain Relieving; Jun Wai Lung Medicine Pain relieving; KELVIN PRO Pain Relief Roll On; KGS Bao Zhen Gao Medicated Plaster Extra Strength; KGS Zhitong Gao Medicated Plaster Extra Strength; KINeSYS Analgesic Sport; Kalaya Pain Relief; Kalaya Pain Relief 6X with Arnica; Kangaroo Cbd Heating Pain Relief; Katinko Pain And Itch Relieving; Kaz Inhalant; KeVUENO Pain Relieving; Keratek; Kessler Family Wellness; Kiro Rub; Kiro-rub; Knee Pain Relief Patchs; Kobi - Crm; Kofal; Kofal Fuerte; Kofal Original; Kofal T; Kofal-T Fuerte; Kofal-T Original; Koong Yick Hung Fa; Kroger Cool Mint Boost Mouth; Kung Fu Pain Relief; Kwan Loong; Kwik-moving; LBri Super Aloe Stop The Pain; LCDO. ORLANDO RIVERA ARTHRITIS Topical Analgesic; LISTERINE Original Antiseptic; LONOL Forte Gel; La Flecha Japonesa; La Vaquita; La Vaquita Extra Strength; La Vaquita New Extra; La Vaquita New Regular; LaBella Linimento Obrero; Lao Wei Wood Lock Oil; Large Medicate Relief Patches; Large Medicated Pain Relief Patches; Large Pain Relieving; Lcm; Leader Medicated Relief Patch; Leader Pain Relieving Rub Ultra; Leader Ultra Strength Muscle Rub; Leader Ultra Strength Muscle Rub Topical Analgesic; LiMetCam; Liberdol Analgesic; Liberdol Topical Analgesic; LidoPR; LidoPro; LidoPro Patch; Lidopro; Limencin; Ling Nam Hung Far; Listerine Advanced with Tartar Protection Antiseptic Citrus; Listerine Antiseptic; Listerine Cool Mint Antiseptic; Listerine FreshBurst Antiseptic; Listerine Gum Therapy Antiseptic; Listerine Naturals Antiseptic; Listerine Naturals Antiseptic - Herbal Mint; Listerine Ultraclean Antiseptic Arctic Mint; Listerine Ultraclean Antiseptic Cool Mint; Listerine Ultraclean Antiseptic Fresh Citrus; Listerine Ultraclean Arctic Mint; Listerine Ultraclean Fresh Citrus; Lmc; Lucky SuperSoft Muscle and Joint; MMM Topical Analgesic Cream; MOMR Rumaian Herbal Bandage; Magic Balm; Magic For Pain Relief; Manteca Maslac; Marathon Deep Heat Rub; Marcs Blue Mint; Marcs Original; Marcs Spring Mint; Mascura la Vaca Plus; Max Revive; Max Revive Plaster; MaxRevive Pain relieving; MaxRevive Plaster; Maximum Strength Pain Cream with Pure Hemp Extract; Maximum Strength Pain Relief Sports Cream; Mcl; Medi-derm / L With Lidocaine; Medi-derm / L With Lidocaine Rx; Medi-derm Rx; Medi-derm Topical Pain Relief; Medi-patch With Lidocaine; Medi-patch With Lidocaine Rx; Medi-sulting Topical Pain Relief; Medicated Analgesic Cream; Medicated Green Oil; Medicated Oil; Medicated Pain; Medicated Pain Relief Patch; Medicated Pain Relief Patches; Medistik Dual; Medistik Dual Hot and Cold; Medistik Professional Dual Action; Medistik analgesic; Medrox; Medrox-Rx; Meijer Cold and Hot Therapy; Meijer Extra Strength Cold And Hot TherapyPain Relieving Topical Analgesic; Meijer Muscle Ultra; Meijer Ultra Strength Pain Relieving Cream; Meijer Ultra Strength Pain Relieving Topical Analgesic; Menthocin Patch with Lidocaine; Menthocin Patch with Lidocaine - Strong; Menthol and Methyl Salicylate; Mentholatum; Mentholatum Deep Heating Rub Extra Strength; Mentholatum Pain Relief Deep Heating; Mentholatum Pain Relief Muscle Rub; Mentholatum Pain Relieving; Mentholatum Sports Pain Relief Hot; Mentholatum Sports Pain Relief Warm; Menthozen; Menthozen Cream; Methyl Salicylate; Minard's Joint Relief; Mini Pain Relief; Miracle Rub; Mlc; Mobility; Mobisyn Pain Relieving; Monkey Holding Peach Brand External Analgesic Balm; Mouth Oral Shield; Mouth Rinse; Mouthwash; Muscle; Muscle Rub; Muscle Rub CVS; Muscle Rub Cream; Muscle Rub Greaseless; Muscle Rub Maximum Strength; Muscle Rub Non Greasy Pain Relieving; Muscle Rub Premier Value; Muscle Rub Ultra Strength; Muscle Rub Ultra Strength CVS; Muscle and Joint Heat Cream; Muscle and Joint Pain Relief; Muscle and Joint pain relief GR Isolate 150 mg; Muscle and Joint pain relief GR Isolate 350 mg; Muscle and Joint pain relief GR Isolate 750 mg; Muscle rub; Muscular Balm; My Hemp MD CBD Muscle and Deep Tissue Cream; My Hemp MD CBD Muscle and Joint Cream; Médi-rub; NAMMAN MUAY Athletes Pain Relieving; NECK and LUMBAR PAIN RELIEVING BALM; NOT POT CBD ICY Cooling Pain Relief; Namman Muay Pain Relieving; Nasal Jelly Thuna's; Natralia Cramp Relief; Neck and Lumbar Pain Relieving Balm; Neotica; Neuracin Topical Gel; Neuro Max Pain and Muscle Relief Gel; Neurodexx; Neurolatore Power Formula Pain Relief; Neuroxa Kit; New Terocin; Noble Lion Medicated Balm; Novae Pain Relief Analgesic Lotion; NuDroxiPAK; NuDroxiPAK DSDR-50; NuDroxiPAK DSDR-75; NuDroxiPAK E-400; NuDroxiPAK I-800; NuDroxiPAK M-15; NuDroxiPAK N-500; NuDroxicin pain relief Roll-On; ORAL-DENT Blue Mint; Oars and Alps Muscle Recovery Balm; Obus Form Therapeutic Heat Rub; Offense Player Arthritis Pain; Offense Player Sports; Offense Player Ultra; Oil Of Wintergreen; Oil Of Wintergreen 100%; Omega Pain Relieving; Oral Care Antiseptic; Oral Dent Amber; Oral Dent Blue Mint; Oral Dent Citrus; Oral Dent Fresh Mint; Oriental Magic Oil; Original Antiseptic; Original Pain-A-Trate Pain-Relieving Cream; Osteo Bi-Flex JOINT HEALTH PAIN RELIEVING; Overtime; Overtime-HMP; Overtime-X; Overtime-hmp; OxyRub Max Pain Relief Cream, 2oz; OxyRub Pro Pain Relief Cream, 4oz; P.O.V. Blue Mint; P.O.V. Spring Mint; P.O.V. Sugarfree; PAIN Terminator Analgesic; Pain Bust R II; Pain Ease; Pain Free; Pain Goodbye Aqueous Patch; Pain Reileving Herbal Oil; Pain Relief; Pain Relief BalmPreferred Plus Ph Preferred Plus Pharmacy; Pain Relief Cream Extra Strength; Pain Relief Herbal; Pain Relief Herbal balm; Pain Relief Medicated; Pain Relief Patches; Pain Relief Patchs; Pain Relief Rub Iampur; Pain Relief Well At Walgreens; Pain ReliefPatches Patches; Pain ReliefRoll On Roll On; Pain Relieving; Pain Relieving Balm; Pain Relieving Chi Len Oil; Pain Relieving Iampur; Pain Relieving Patches; Pain Relieving Po Tong Oil; Pain Relieving Ultra Strength; Pain Relieving Warming Balm; Pain Therapy; Pain releiving Well at Walgreens; Pain-A-Trate Extra Strength Pain-Relieving; Pain-A-trate Cream; Pain-ease; Pain-oleum - Liniment; PainGo KFT; PainXIT; PainZone; Paraid Pain Relief; Pasmol Pain Relieving; Peppermint Mouth Rinse; Perform Atomic Heat; Pharmacist Choice Pain Relief Patch; Pharmacist Choice TSX Transdermal Patch; Phoenix Balm; Phytorub Ont; Plaster MandAHerbalPlaster; Poly Interferent Mouthwas; Pomada Dragon Pain Relieving; Pommade Au The Des Bois; Pommade Parnel; Power Pain Relief Stick; Precise Pain Relieving; Preferred Plus Arthritis Cream; Pro-Sero Pain Relief; Profoot; Profoot Pain Relief Patches; Proplex Greaseless Muscle Rub; Prosync Muscle Rub; Pure-Aid; Qian Li Zhui Feng Pain Relieving; Quali Cold; Quali Herbal; Quali Patch (Cold); Quali Patch Herbal Soultice; Quali Patch Warm; Quali Warm; Quality Choice Amber; Quality Choice Blue Mint; Quality Choice Sprng Mint; Quality Choice Ultra Strength Pain Relieving Cream Ultra Strength; Ramedica; Ray Dol; Re-Lieved 3 in 1 Patch; RealLief Gel - I; Red Chilli Plaster; Red Flower Oil; Reed Therapeutics Pain Relieving Therapy; Refined Gou Pi Pain Relieving Plaster; Reina Cbd Infused Topical Pain Relief; Reliaderm; Relief Assist; Relief Balm; Relief Recovery; Rematex; Revalife Pain Relief Cream; Rhemu; Ringmaster Rubbing Oil; Rinse; Rite Aid Hot and Cold Extra Strength; Rite Aid Muscle Rub Ultra Strength; Rite Aid Ultra Strength Muscle Rub; Rocainol; Rocainol TOPICAL ANALGESIC; Rock Sauce; RockSauce FIERY HOT PAIN RELIEF; Rocksauce Fire; Rocksauce Ice; Rotex; Royal Mouthwash Fresh and Clean Original Mint; Rubber Arm Muscle Rub; Rubbex Creme; Rugby Muscle Rub Cream; Rugby Pain Relieving Analgesic; SHENG CHUN HERBAL Pain Relieving; SINSINPAS Pain Relieving Patch; Salonpas; Salonpas - Pls Top; Salonpas Arthritis Pain; Salonpas DEEP RElieving TOPICAL ANALGESIC; Salonpas DEEP Relieving; Salonpas Medicated Plaster; Salonpas Pain Relief; Salonpas Pain Relieving; Salonpas pain relieving JET; Salonpas pain relieving MASSAGE; Salonpas pain relieving PATCH -L; Satogesic; Satohap; Satohap Pads; Sc Herbal Pain Relieving; Sc Pain Relief Balm; Shang Shi Zhi Tong Gao; Shang Shi Zhi Tong Pain Relieving Plaster; Shanghai Shang Shi Zhi Tong Gao Pain Relieving; Shao Lin Gao Pain Relieving Plaster; Shao Lin Pain Relief Plaster; She Xiang Zhuang Gu Gao; She Xiang Zhuang Gu Gao Regular; SheXiang ZhuangGu Gao; Sheng Chun Pain Relief; Shennong Analgesic Plaster; Shexiang Zhuanggugao; Shopko Blue Mint; Shopko Ice Mint; Shopko Spring Mint; Shu Jin Huo Luo Pain Relieving; Shuang Long Pain Relieving Oil; Signature Care Cold and Hot; Signature Care Cool Heat; Sincere Pain Relief; Sinsin Mulpas; Sinsinpas Arex Instant Pain Relief (not for Sale); Sinsinpas Arex Instant Pain Relief Small; Sinsinpas Arexgel; Sinsinpas Arexlotion; Smart Pro Medicated Analgesic Pain Relieving Cataplasm; Smart Sense Blue Mint; Smart Sense Citrus; Smart Sense Cool Heat; Smart Sense Iceberg Blue; Smart Sense Original Flavor; Smart Sense Spring Mint; SmartRx Gaba-V Kit; SmartRx Natural Pain Relief Sleeve ANKLE; SmartRx Natural Pain Relief Sleeve BACK; SmartRx Natural Pain Relief Sleeve ELBOW; SmartRx Natural Pain Relief Sleeve KNEE; SmartRx Natural Pain Relief Sleeve WRIST; SoCalm External Analgesic; Soft Mint Listerine Antiseptic; Solstice Pain Relieving; Soothee Patch; Sound Body Extra Strength Cold and Hot; Soundbody medicated patch; Sport Rub - Cream; Sportgel; Sports Balm; Strain Pain Relieving Cream; Sun Moon Star Pain Relieving; Sunmark Muscle Rub; Sunmark muscle rub; Sunset Pain Relief - Heating Relief; Sunset Pain Relief Heating Camphor and Amino Acids; Super Forte Xl10; Suppress Ointment; TENHEALER Pain Rub; TOKUHON-A External Analgesic Pain Relieving Medicated; TOKUHON-A External Pain Relieving Medicated; TRIPLE CARE plus ARNICA ANALGESIC - RECOVERY; Tartar Control; Tartar Control Plus; Tartar control; Tartar control plus; Te-Fu Recovery Massage; Ted s Pain; Teds Topical Pain Cream; Teeter ReNew Pain Relief; Teeter Renew Muscles Pain Relieving; Teeter reNEW MUSCLES Pain Relieving; Terocin; Terphouse; TerraFreeze Pain Relief; Thai Herbal Balm Lemon Grass; The Goo Medicated Pain Relief; Thera Patch; TheraCare Muscle and Join Pain Relief Cream; Theraderm Pain Relieving Patch; Theragesic Creme; Theragesic Plus; Therapatch Warm; Therapeutic Heat Lotion; Therapeutic Soothing Ice Gel; Therapy Pain; Thermacare Ultra; Thermo Rub Ont; Thuna Balsam Salve Ont; Thunas Salve for Rheumatic Pains; Tianhe Zhuanggu Gao; Tiger Balm; Tiger Balm Active Muscle; Tiger Balm Active Muscle Rub; Tiger Balm Muscle Rub Pain Relieving; Tiger Balm Pain Relieving Muscle; Tiger Balm Ultra Thin; Timing Pain Savior Cool Herbal Patch; Timing Pain Savior Fragrant Ginger Patch; Tokuhon Medicated Plaster; Top Medicated; Top Medicated Pain Relieving; TopCare Health Pain Relief; Topical Analgesic; Topical Pain Relief; Topical Pain Relief Rx; Transanosil; Transderm-IQ; Transderm-iQ; TriMotion Pain Relief; Triceptin; Triple Action Arthritis; True Pain Relief Plus; Turmeric Infused Hemp Pain Cream; Turmeric Pain Relieving Cream; US Favorite Hot Pain Relieving; Ultra Balm; Ultra Pain-A-Trate Pain-Relieving Cream; Ultra Strenght Muscle Rub; Ultra Strength Heat Rub; Ultra Strength Muscle Rub; Ultra Strength Pain Relief; Ultra Therapy Pain Relief; Ultra Vedic; Ultracin; Ultraplast Analgesic Spray; Uncle Buds; Up and Up Pain; Up and Up Pain Relief Extra Strength; Up and Up Pain Relief Ultra Strength; Up and Up Ultra Strength Pain Relieving; UtaSpray; VANTELIN COOL PAIN RELIEVING Gel Patch; VANTELIN COOL PAIN RELIEVING Gel Patch Large; VANTELIN HOT PAIN RELIEVING Gel Patch; VANTELIN HOT PAIN RELIEVING Gel Patch Large; VIVA Patch; ValleGel Prep; Valtrum Aerobic Sports; Valtrum Soothing Topical Analgesic; Valtrum Topical Analgesic Roll On; Valtrum US Aerobic Sport IMMEDIATE ACTION; Vantelin Cool Pain Relieving; Varophen; Velatrin Pain Relief; Velma Pain Relief Patch; Veneno de Abeja Aceite De Vibora Brand; VitaCin; WPR Plus; Walgreens Cool N Heat Therapy Pain Relief Stick; Walgreens Cool and Heat Muscle and Joint Relief; Walgreens Cool n Heat; Walgreens Cool n Heat Muscle and Joint Pain Relief Extra Strength; Walgreens Medicated Pain Relieving; Walgreens Muscle Rub Ulra Strength; Walgreens Pain Relieving Analgesic; Walgreens Pain Relieving Cream; Warrior Pain Relieving; Wasabi Rub; Watkins Analgesic Balm; Welby Medicated Relief Patch; Western Family Pain Relieving; White Flower Analgesic Balm; White Flower Analgesic Balm Floral Scented; White Flower Ointment; White Flower Strain Relief; Wintergreen Oil Of; Wok Lok Pain Relieving Oil; Womens Relief Balm; Womens Sports Balm; Wong To Yick External Analgesic; Wu Yang Brand Medicated; X Ray Pain Relieving; Xceptor Cbd Pain Menthol; Xceptor Pain; Xiao Zhong Gao; Xoten-C; Yao Shen Gao Pain Relieving Plaster; Yu Long You Pain Relieving; Yunnan Baiyao Arthritis Pain Relief; ZENSEZONE Arthmed Temporary Pain Relief Cream; ZHONG HUA FENG SHI DIE DA GAO External Analgesic Plaster; ZIHUA EMBROCATION Cooling Pain Relief; Zandu Balm; Zang Hong Hua Pain Relieving; Zaxs Aches and Pain; Zen Hemp Balm; Zen Sports Balm; Zenol Cool; Zenol Mild Hot; Zhenweilong Huoluo You External Analgesic; Zhong Hua Feng Shi Die Da Gao; Zhong Hua Feng Shi Die Da Gao External Analgesic Plaster; Zhuang Gu Feng Shi Pain Relieving Plaster; Zhuanggu Shexiang Zhitonggao Pain Relieving Plaster; Zihuadick Pain relieving; Ziks Arthritis Pain Relief; Zims Max Freeze Leg Cramp; Zims Max Heat; bB Medicated Pain Relieving Oil; comforte Natural Menstrual Cramp Relief Cream; smart sense Ultra Strength; soCALM Pain Relieving

$$$$
