
  Mrv0541 02231216052D          

 11 10  0  0  1  0            999 V2000
    4.6184    2.6664    0.0000 C   0  0  0  0  0  0  0  0  0  0  0  0
    4.6184    1.8414    0.0000 C   0  0  1  0  0  0  0  0  0  0  0  0
    3.9039    1.4289    0.0000 C   0  0  0  0  0  0  0  0  0  0  0  0
    3.1895    1.8414    0.0000 C   0  0  0  0  0  0  0  0  0  0  0  0
    2.4750    1.4289    0.0000 C   0  0  0  0  0  0  0  0  0  0  0  0
    1.7605    1.8414    0.0000 C   0  0  0  0  0  0  0  0  0  0  0  0
    1.0461    2.2539    0.0000 C   0  0  0  0  0  0  0  0  0  0  0  0
    1.3480    1.1270    0.0000 C   0  0  0  0  0  0  0  0  0  0  0  0
    2.1730    2.5559    0.0000 O   0  0  0  0  0  0  0  0  0  0  0  0
    5.3329    1.4289    0.0000 C   0  0  0  0  0  0  0  0  0  0  0  0
    6.0474    1.8414    0.0000 C   0  0  0  0  0  0  0  0  0  0  0  0
  2  1  1  6  0  0  0
  2  3  1  0  0  0  0
  3  4  1  0  0  0  0
  4  5  1  0  0  0  0
  5  6  1  0  0  0  0
  6  7  1  0  0  0  0
  6  8  1  0  0  0  0
  6  9  1  0  0  0  0
  2 10  1  0  0  0  0
 10 11  2  0  0  0  0
M  END
> <DATABASE_ID>
DB02273

> <DATABASE_NAME>
drugbank

> <SMILES>
C[C@@H](CCCC(C)(C)O)C=C

> <INCHI_IDENTIFIER>
InChI=1S/C10H20O/c1-5-9(2)7-6-8-10(3,4)11/h5,9,11H,1,6-8H2,2-4H3/t9-/m1/s1

> <INCHI_KEY>
XSNQECSCDATQEL-SECBINFHSA-N

> <FORMULA>
C10H20O

> <MOLECULAR_WEIGHT>
156.2652

> <EXACT_MASS>
156.151415262

> <JCHEM_ACCEPTOR_COUNT>
1

> <JCHEM_ATOM_COUNT>
31

> <JCHEM_AVERAGE_NEUTRAL_MICROSPECIES_CHARGE>
5.563209604145247e-09

> <JCHEM_AVERAGE_POLARIZABILITY>
19.924930713399462

> <JCHEM_BIOAVAILABILITY>
1

> <JCHEM_DONOR_COUNT>
1

> <JCHEM_FORMAL_CHARGE>
0

> <JCHEM_GHOSE_FILTER>
0

> <JCHEM_IUPAC>
(6S)-2,6-dimethyloct-7-en-2-ol

> <ALOGPS_LOGP>
3.30

> <JCHEM_LOGP>
2.8192107440000003

> <ALOGPS_LOGS>
-3.19

> <JCHEM_MDDR_LIKE_RULE>
0

> <JCHEM_NEUTRAL_CHARGE>
0

> <JCHEM_NUMBER_OF_RINGS>
0

> <JCHEM_PHYSIOLOGICAL_CHARGE>
0

> <JCHEM_PKA_STRONGEST_ACIDIC>
18.530762112910292

> <JCHEM_PKA_STRONGEST_BASIC>
-1.2544446518130383

> <JCHEM_POLAR_SURFACE_AREA>
20.23

> <JCHEM_REFRACTIVITY>
49.587599999999995

> <JCHEM_ROTATABLE_BOND_COUNT>
5

> <JCHEM_RULE_OF_FIVE>
1

> <ALOGPS_SOLUBILITY>
1.02e-01 g/l

> <JCHEM_TRADITIONAL_IUPAC>
biotin

> <JCHEM_VEBER_RULE>
1

> <DRUGBANK_ID>
DB02273

> <SECONDARY_ACCESSION_NUMBERS>
EXPT01192

> <DRUG_GROUPS>
experimental

> <GENERIC_NAME>
2,6-Dimethyl-7-Octen-2-Ol

$$$$
