
  Mrv0541 02231217362D          

 10  9  0  0  0  0            999 V2000
    1.7605   -1.8414    0.0000 O   0  0  0  0  0  0  0  0  0  0  0  0
    2.4750   -1.4289    0.0000 C   0  0  0  0  0  0  0  0  0  0  0  0
    3.1895   -1.8414    0.0000 C   0  0  0  0  0  0  0  0  0  0  0  0
    3.1895   -2.6664    0.0000 O   0  0  0  0  0  0  0  0  0  0  0  0
    3.9039   -1.4289    0.0000 C   0  0  0  0  0  0  0  0  0  0  0  0
    4.6184   -1.8414    0.0000 O   0  0  0  0  0  0  0  0  0  0  0  0
    5.3329   -1.4289    0.0000 P   0  0  0  0  0  0  0  0  0  0  0  0
    6.0474   -1.0164    0.0000 O   0  0  0  0  0  0  0  0  0  0  0  0
    5.7454   -2.1434    0.0000 O   0  0  0  0  0  0  0  0  0  0  0  0
    4.9204   -0.7145    0.0000 O   0  0  0  0  0  0  0  0  0  0  0  0
  1  2  1  0  0  0  0
  2  3  1  0  0  0  0
  3  4  2  0  0  0  0
  3  5  1  0  0  0  0
  5  6  1  0  0  0  0
  6  7  1  0  0  0  0
  7  8  1  0  0  0  0
  7  9  1  0  0  0  0
  7 10  2  0  0  0  0
M  END
> <DATABASE_ID>
DB04326

> <DATABASE_NAME>
drugbank

> <SMILES>
OCC(=O)COP(O)(O)=O

> <INCHI_IDENTIFIER>
InChI=1S/C3H7O6P/c4-1-3(5)2-9-10(6,7)8/h4H,1-2H2,(H2,6,7,8)

> <INCHI_KEY>
GNGACRATGGDKBX-UHFFFAOYSA-N

> <FORMULA>
C3H7O6P

> <MOLECULAR_WEIGHT>
170.0578

> <EXACT_MASS>
169.998024468

> <JCHEM_ACCEPTOR_COUNT>
5

> <JCHEM_ATOM_COUNT>
17

> <JCHEM_AVERAGE_NEUTRAL_MICROSPECIES_CHARGE>
-1.9233163864313185

> <JCHEM_AVERAGE_POLARIZABILITY>
12.641516377396067

> <JCHEM_BIOAVAILABILITY>
1

> <JCHEM_DONOR_COUNT>
3

> <JCHEM_FORMAL_CHARGE>
0

> <JCHEM_GHOSE_FILTER>
0

> <JCHEM_IUPAC>
(3-hydroxy-2-oxopropoxy)phosphonic acid

> <ALOGPS_LOGP>
-1.49

> <JCHEM_LOGP>
-1.6517823150000002

> <ALOGPS_LOGS>
-0.89

> <JCHEM_MDDR_LIKE_RULE>
0

> <JCHEM_NEUTRAL_CHARGE>
-2

> <JCHEM_NUMBER_OF_RINGS>
0

> <JCHEM_PHYSIOLOGICAL_CHARGE>
-2

> <JCHEM_PKA>
6.22037347258562

> <JCHEM_PKA_STRONGEST_ACIDIC>
1.1902795898513119

> <JCHEM_PKA_STRONGEST_BASIC>
-3.322746111264086

> <JCHEM_POLAR_SURFACE_AREA>
104.06

> <JCHEM_REFRACTIVITY>
30.472099999999998

> <JCHEM_ROTATABLE_BOND_COUNT>
4

> <JCHEM_RULE_OF_FIVE>
1

> <ALOGPS_SOLUBILITY>
2.19e+01 g/l

> <JCHEM_TRADITIONAL_IUPAC>
biotin

> <JCHEM_VEBER_RULE>
0

> <DRUGBANK_ID>
DB04326

> <SECONDARY_ACCESSION_NUMBERS>
EXPT00026; DB12496

> <DRUG_GROUPS>
investigational

> <GENERIC_NAME>
Dihydroxyacetone phosphate

> <SYNONYMS>
1-hydroxy-3-(phosphonooxy)-2-Propanone; 1-Hydroxy-3-(phosphonooxy)acetone; 1,3-Dihydroxy-2-propanone monodihydrogen phosphate; 1,3-Dihydroxy-2-propanone phosphate; 1,3-Dihydroxyacetone 1-phosphate; 3-hydroxy-2-oxopropyl phosphate; DHAP; Dihydroxyacetone monophosphate; Glycerone monophosphate; Glycerone phosphate

$$$$
