
  Mrv0541 02231216112D          

 10  9  0  0  1  0            999 V2000
    4.6184    2.6664    0.0000 N   0  0  0  0  0  0  0  0  0  0  0  0
    4.6184    1.8414    0.0000 C   0  0  1  0  0  0  0  0  0  0  0  0
    3.9039    1.4289    0.0000 C   0  0  0  0  0  0  0  0  0  0  0  0
    3.1895    1.8414    0.0000 S   0  0  0  0  0  0  0  0  0  0  0  0
    2.4750    1.4289    0.0000 C   0  0  0  0  0  0  0  0  0  0  0  0
    1.7605    1.8414    0.0000 C   0  0  0  0  0  0  0  0  0  0  0  0
    1.0461    1.4289    0.0000 O   0  0  0  0  0  0  0  0  0  0  0  0
    5.3329    1.4289    0.0000 C   0  0  0  0  0  0  0  0  0  0  0  0
    6.0474    1.8414    0.0000 O   0  0  0  0  0  0  0  0  0  0  0  0
    5.3329    0.6039    0.0000 O   0  0  0  0  0  0  0  0  0  0  0  0
  2  1  1  6  0  0  0
  2  3  1  0  0  0  0
  3  4  1  0  0  0  0
  4  5  1  0  0  0  0
  5  6  1  0  0  0  0
  6  7  1  0  0  0  0
  2  8  1  0  0  0  0
  8  9  1  0  0  0  0
  8 10  2  0  0  0  0
M  END
> <DATABASE_ID>
DB02413

> <DATABASE_NAME>
drugbank

> <SMILES>
N[C@@H](CSCCO)C(O)=O

> <INCHI_IDENTIFIER>
InChI=1S/C5H11NO3S/c6-4(5(8)9)3-10-2-1-7/h4,7H,1-3,6H2,(H,8,9)/t4-/m0/s1

> <INCHI_KEY>
MWFRVMDVLYIXJF-BYPYZUCNSA-N

> <FORMULA>
C5H11NO3S

> <MOLECULAR_WEIGHT>
165.211

> <EXACT_MASS>
165.045963913

> <JCHEM_ACCEPTOR_COUNT>
4

> <JCHEM_ATOM_COUNT>
21

> <JCHEM_AVERAGE_NEUTRAL_MICROSPECIES_CHARGE>
-0.007181872610764154

> <JCHEM_AVERAGE_POLARIZABILITY>
16.721626604682697

> <JCHEM_BIOAVAILABILITY>
1

> <JCHEM_DONOR_COUNT>
3

> <JCHEM_FORMAL_CHARGE>
0

> <JCHEM_GHOSE_FILTER>
0

> <JCHEM_IUPAC>
(2R)-2-amino-3-[(2-hydroxyethyl)sulfanyl]propanoic acid

> <ALOGPS_LOGP>
-2.65

> <JCHEM_LOGP>
-3.354975376677349

> <ALOGPS_LOGS>
-0.63

> <JCHEM_MDDR_LIKE_RULE>
0

> <JCHEM_NEUTRAL_CHARGE>
0

> <JCHEM_NUMBER_OF_RINGS>
0

> <JCHEM_PHYSIOLOGICAL_CHARGE>
0

> <JCHEM_PKA>
15.545946415076665

> <JCHEM_PKA_STRONGEST_ACIDIC>
2.2558058311420273

> <JCHEM_PKA_STRONGEST_BASIC>
9.139540673511863

> <JCHEM_POLAR_SURFACE_AREA>
83.55000000000001

> <JCHEM_REFRACTIVITY>
39.37010000000001

> <JCHEM_ROTATABLE_BOND_COUNT>
5

> <JCHEM_RULE_OF_FIVE>
1

> <ALOGPS_SOLUBILITY>
3.83e+01 g/l

> <JCHEM_TRADITIONAL_IUPAC>
biotin

> <JCHEM_VEBER_RULE>
0

> <DRUGBANK_ID>
DB02413

> <SECONDARY_ACCESSION_NUMBERS>
EXPT02417

> <DRUG_GROUPS>
experimental

> <GENERIC_NAME>
Hydroxyethylcysteine

$$$$
