
  Mrv0541 05041405552D          

 11 11  0  0  0  0            999 V2000
    0.7145   -0.4125    0.0000 C   0  0  0  0  0  0  0  0  0  0  0  0
    1.4289    0.0000    0.0000 C   0  0  0  0  0  0  0  0  0  0  0  0
   -0.0000    0.0000    0.0000 C   0  0  0  0  0  0  0  0  0  0  0  0
    1.4289    0.8250    0.0000 C   0  0  0  0  0  0  0  0  0  0  0  0
    0.0000    0.8250    0.0000 C   0  0  0  0  0  0  0  0  0  0  0  0
    0.7145    2.0625    0.0000 C   0  0  0  0  0  0  0  0  0  0  0  0
    0.7145    1.2375    0.0000 C   0  0  0  0  0  0  0  0  0  0  0  0
   -0.7145    2.8875    0.0000 O   0  0  0  0  0  0  0  0  0  0  0  0
    0.4125    3.1895    0.0000 O   0  0  0  0  0  0  0  0  0  0  0  0
   -0.4125    1.7605    0.0000 O   0  0  0  0  0  0  0  0  0  0  0  0
    0.0000    2.4750    0.0000 S   0  0  0  0  0  0  0  0  0  0  0  0
  2  1  2  0  0  0  0
  3  1  1  0  0  0  0
  4  2  1  0  0  0  0
  5  3  2  0  0  0  0
  7  4  2  0  0  0  0
  7  5  1  0  0  0  0
  7  6  1  0  0  0  0
 11  6  1  0  0  0  0
 11  8  1  0  0  0  0
 11  9  2  0  0  0  0
 11 10  2  0  0  0  0
M  END
> <DATABASE_ID>
DB03297

> <DATABASE_NAME>
drugbank

> <SMILES>
OS(=O)(=O)CC1=CC=CC=C1

> <INCHI_IDENTIFIER>
InChI=1S/C7H8O3S/c8-11(9,10)6-7-4-2-1-3-5-7/h1-5H,6H2,(H,8,9,10)

> <INCHI_KEY>
NIXKBAZVOQAHGC-UHFFFAOYSA-N

> <FORMULA>
C7H8O3S

> <MOLECULAR_WEIGHT>
172.202

> <EXACT_MASS>
172.019414812

> <JCHEM_ACCEPTOR_COUNT>
3

> <JCHEM_ATOM_COUNT>
19

> <JCHEM_AVERAGE_NEUTRAL_MICROSPECIES_CHARGE>
-0.9999999896394485

> <JCHEM_AVERAGE_POLARIZABILITY>
15.991158682834136

> <JCHEM_BIOAVAILABILITY>
1

> <JCHEM_DONOR_COUNT>
1

> <JCHEM_FORMAL_CHARGE>
0

> <JCHEM_GHOSE_FILTER>
0

> <JCHEM_IUPAC>
phenylmethanesulfonic acid

> <ALOGPS_LOGP>
-0.97

> <JCHEM_LOGP>
0.9162887659999999

> <ALOGPS_LOGS>
-1.60

> <JCHEM_MDDR_LIKE_RULE>
0

> <JCHEM_NEUTRAL_CHARGE>
-1

> <JCHEM_NUMBER_OF_RINGS>
1

> <JCHEM_PHYSIOLOGICAL_CHARGE>
-1

> <JCHEM_PKA_STRONGEST_ACIDIC>
-0.9846171218180907

> <JCHEM_POLAR_SURFACE_AREA>
54.37

> <JCHEM_REFRACTIVITY>
41.267900000000004

> <JCHEM_ROTATABLE_BOND_COUNT>
2

> <JCHEM_RULE_OF_FIVE>
1

> <ALOGPS_SOLUBILITY>
4.35e+00 g/l

> <JCHEM_TRADITIONAL_IUPAC>
tetrahydrofolic acid

> <JCHEM_VEBER_RULE>
0

> <DRUGBANK_ID>
DB03297

> <SECONDARY_ACCESSION_NUMBERS>
EXPT02622

> <DRUG_GROUPS>
experimental

> <GENERIC_NAME>
Benzylsulfonic acid

> <SYNONYMS>
alpha-Toluenesulfonic acid; Benzenemethanesulfonic acid; Benzylsulfinic acid; Phenylmethanesulfonic acid; Toluene-alpha-sulphonic acid

$$$$
