
  Mrv0541 09131211472D          

 22 22  0  0  0  0            999 V2000
   -0.7145    3.7125    0.0000 C   0  0  0  0  0  0  0  0  0  0  0  0
    0.7145    3.7125    0.0000 C   0  0  0  0  0  0  0  0  0  0  0  0
   -2.1434    2.0625    0.0000 C   0  0  0  0  0  0  0  0  0  0  0  0
   -2.8579    0.8250    0.0000 C   0  0  0  0  0  0  0  0  0  0  0  0
    2.1434   -2.8875    0.0000 C   0  0  0  0  0  0  0  0  0  0  0  0
    1.4289    0.0000    0.0000 C   0  0  0  0  0  0  0  0  0  0  0  0
    1.4289    0.8250    0.0000 C   0  0  0  0  0  0  0  0  0  0  0  0
    0.7145   -1.2375    0.0000 C   0  0  0  0  0  0  0  0  0  0  0  0
    1.4289   -1.6500    0.0000 C   0  0  0  0  0  0  0  0  0  0  0  0
    0.0000    0.0000    0.0000 C   0  0  0  0  0  0  0  0  0  0  0  0
    0.0000    3.3000    0.0000 C   0  0  0  0  0  0  0  0  0  0  0  0
   -2.1434    1.2375    0.0000 C   0  0  0  0  0  0  0  0  0  0  0  0
    0.7145   -0.4125    0.0000 C   0  0  0  0  0  0  0  0  0  0  0  0
    0.7145    1.2375    0.0000 C   0  0  0  0  0  0  0  0  0  0  0  0
    0.0000    0.8250    0.0000 C   0  0  0  0  0  0  0  0  0  0  0  0
    0.0000    2.4750    0.0000 C   0  0  0  0  0  0  0  0  0  0  0  0
   -1.4289    0.8250    0.0000 C   0  0  0  0  0  0  0  0  0  0  0  0
    1.4289   -2.4750    0.0000 N   0  0  0  0  0  0  0  0  0  0  0  0
   -0.7145    2.0625    0.0000 O   0  0  0  0  0  0  0  0  0  0  0  0
   -1.4289    0.0000    0.0000 O   0  0  0  0  0  0  0  0  0  0  0  0
    0.7145    2.0625    0.0000 O   0  0  0  0  0  0  0  0  0  0  0  0
   -0.7145    1.2375    0.0000 O   0  0  0  0  0  0  0  0  0  0  0  0
  7  6  2  0  0  0  0
  9  8  1  0  0  0  0
 11  1  1  0  0  0  0
 11  2  1  0  0  0  0
 12  3  1  0  0  0  0
 12  4  1  0  0  0  0
 13  6  1  0  0  0  0
 13  8  1  0  0  0  0
 13 10  2  0  0  0  0
 14  7  1  0  0  0  0
 15 10  1  0  0  0  0
 15 14  2  0  0  0  0
 16 11  1  0  0  0  0
 17 12  1  0  0  0  0
 18  5  1  0  0  0  0
 18  9  1  0  0  0  0
 19 16  2  0  0  0  0
 20 17  2  0  0  0  0
 21 14  1  0  0  0  0
 21 16  1  0  0  0  0
 22 15  1  0  0  0  0
 22 17  1  0  0  0  0
M  END
> <DATABASE_ID>
DB13316

> <DATABASE_NAME>
drugbank

> <SMILES>
CNCCC1=CC(OC(=O)C(C)C)=C(OC(=O)C(C)C)C=C1

> <INCHI_IDENTIFIER>
InChI=1S/C17H25NO4/c1-11(2)16(19)21-14-7-6-13(8-9-18-5)10-15(14)22-17(20)12(3)4/h6-7,10-12,18H,8-9H2,1-5H3

> <INCHI_KEY>
WDKXLLJDNUBYCY-UHFFFAOYSA-N

> <FORMULA>
C17H25NO4

> <MOLECULAR_WEIGHT>
307.3847

> <EXACT_MASS>
307.178358293

> <JCHEM_ACCEPTOR_COUNT>
3

> <JCHEM_ATOM_COUNT>
47

> <JCHEM_AVERAGE_NEUTRAL_MICROSPECIES_CHARGE>
0.9990144411140965

> <JCHEM_AVERAGE_POLARIZABILITY>
34.363647764305895

> <JCHEM_BIOAVAILABILITY>
1

> <JCHEM_DONOR_COUNT>
1

> <JCHEM_FORMAL_CHARGE>
0

> <JCHEM_GHOSE_FILTER>
1

> <JCHEM_IUPAC>
5-[2-(methylamino)ethyl]-2-[(2-methylpropanoyl)oxy]phenyl 2-methylpropanoate

> <ALOGPS_LOGP>
3.33

> <JCHEM_LOGP>
3.521822050000001

> <ALOGPS_LOGS>
-3.79

> <JCHEM_MDDR_LIKE_RULE>
0

> <JCHEM_NEUTRAL_CHARGE>
1

> <JCHEM_NUMBER_OF_RINGS>
1

> <JCHEM_PHYSIOLOGICAL_CHARGE>
1

> <JCHEM_PKA_STRONGEST_BASIC>
10.005889188215189

> <JCHEM_POLAR_SURFACE_AREA>
64.63000000000001

> <JCHEM_REFRACTIVITY>
84.7286

> <JCHEM_ROTATABLE_BOND_COUNT>
9

> <JCHEM_RULE_OF_FIVE>
1

> <ALOGPS_SOLUBILITY>
5.00e-02 g/l

> <JCHEM_TRADITIONAL_IUPAC>
biotin

> <JCHEM_VEBER_RULE>
0

> <DRUGBANK_ID>
DB13316

> <DRUG_GROUPS>
experimental

> <GENERIC_NAME>
Ibopamine

> <SYNONYMS>
Ibopamine

$$$$
