
  Mrv0541 05041406002D          

 16 17  0  0  0  0            999 V2000
    3.3523    1.1104    0.0000 C   0  0  0  0  0  0  0  0  0  0  0  0
    3.3523    1.9354    0.0000 C   0  0  0  0  0  0  0  0  0  0  0  0
    2.6378    0.6979    0.0000 C   0  0  0  0  0  0  0  0  0  0  0  0
    2.6378    2.3479    0.0000 C   0  0  0  0  0  0  0  0  0  0  0  0
    0.8838    0.0709    0.0000 C   0  0  0  0  0  0  0  0  0  0  0  0
    0.6538    1.5229    0.0000 C   0  0  0  0  0  0  0  0  0  0  0  0
    1.1387    0.8555    0.0000 C   0  0  0  0  0  0  0  0  0  0  0  0
    1.9233    1.1104    0.0000 C   0  0  0  0  0  0  0  0  0  0  0  0
    1.4358   -0.5422    0.0000 C   0  0  0  0  0  0  0  0  0  0  0  0
    1.9233    1.9354    0.0000 C   0  0  0  0  0  0  0  0  0  0  0  0
    1.1809   -1.3268    0.0000 C   0  0  0  0  0  0  0  0  0  0  0  0
    2.2428   -0.3707    0.0000 N   0  0  0  0  0  0  0  0  0  0  0  0
    1.1387    2.1904    0.0000 N   0  0  0  0  0  0  0  0  0  0  0  0
    1.7329   -1.9399    0.0000 O   0  0  0  0  0  0  0  0  0  0  0  0
    0.3739   -1.4984    0.0000 O   0  0  0  0  0  0  0  0  0  0  0  0
    2.7948   -0.9838    0.0000 H   0  0  0  0  0  0  0  0  0  0  0  0
  2  1  2  0  0  0  0
  3  1  1  0  0  0  0
  4  2  1  0  0  0  0
  7  5  1  0  0  0  0
  7  6  2  0  0  0  0
  8  3  2  0  0  0  0
  8  7  1  0  0  0  0
  9  5  1  0  0  0  0
 10  4  2  0  0  0  0
 10  8  1  0  0  0  0
 11  9  1  0  0  0  0
 12  9  2  0  0  0  0
 13  6  1  0  0  0  0
 13 10  1  0  0  0  0
 14 11  2  0  0  0  0
 15 11  1  0  0  0  0
 16 12  1  0  0  0  0
M  END
> <DATABASE_ID>
DB02988

> <DATABASE_NAME>
drugbank

> <SMILES>
[H]N=C(CC1=CNC2=CC=CC=C12)C(O)=O

> <INCHI_IDENTIFIER>
InChI=1S/C11H10N2O2/c12-9(11(14)15)5-7-6-13-10-4-2-1-3-8(7)10/h1-4,6,12-13H,5H2,(H,14,15)/b12-9-

> <INCHI_KEY>
LKYWXXAVLLVJAS-XFXZXTDPSA-N

> <FORMULA>
C11H10N2O2

> <MOLECULAR_WEIGHT>
202.2093

> <EXACT_MASS>
202.074227574

> <JCHEM_ACCEPTOR_COUNT>
3

> <JCHEM_ATOM_COUNT>
25

> <JCHEM_AVERAGE_NEUTRAL_MICROSPECIES_CHARGE>
-0.009540356107962888

> <JCHEM_AVERAGE_POLARIZABILITY>
20.2085783847913

> <JCHEM_BIOAVAILABILITY>
1

> <JCHEM_DONOR_COUNT>
3

> <JCHEM_FORMAL_CHARGE>
0

> <JCHEM_GHOSE_FILTER>
1

> <JCHEM_IUPAC>
2-imino-3-(1H-indol-3-yl)propanoic acid

> <ALOGPS_LOGP>
1.28

> <JCHEM_LOGP>
1.5429007741002643

> <ALOGPS_LOGS>
-3.22

> <JCHEM_MDDR_LIKE_RULE>
0

> <JCHEM_NEUTRAL_CHARGE>
0

> <JCHEM_NUMBER_OF_RINGS>
2

> <JCHEM_PHYSIOLOGICAL_CHARGE>
0

> <JCHEM_PKA>
15.101461463410976

> <JCHEM_PKA_STRONGEST_ACIDIC>
4.5023773501571585

> <JCHEM_PKA_STRONGEST_BASIC>
3.482992118169978

> <JCHEM_POLAR_SURFACE_AREA>
76.94

> <JCHEM_REFRACTIVITY>
66.27010000000001

> <JCHEM_ROTATABLE_BOND_COUNT>
3

> <JCHEM_RULE_OF_FIVE>
1

> <ALOGPS_SOLUBILITY>
1.22e-01 g/l

> <JCHEM_TRADITIONAL_IUPAC>
biotin

> <JCHEM_VEBER_RULE>
0

> <DRUGBANK_ID>
DB02988

> <SECONDARY_ACCESSION_NUMBERS>
EXPT01942

> <DRUG_GROUPS>
experimental

> <GENERIC_NAME>
Imino-Tryptophan

$$$$
