
  Mrv0541 02231217042D          

 16 15  0  0  1  0            999 V2000
    9.9513    1.6204    0.0000 C   0  0  0  0  0  0  0  0  0  0  0  0
    9.2368    2.0329    0.0000 C   0  0  2  0  0  0  0  0  0  0  0  0
    8.5224    1.6204    0.0000 N   0  0  0  0  0  0  0  0  0  0  0  0
    9.2368    2.8579    0.0000 C   0  0  1  0  0  0  0  0  0  0  0  0
    8.5224    3.2704    0.0000 C   0  0  0  0  0  0  0  0  0  0  0  0
    7.8079    2.8579    0.0000 C   0  0  0  0  0  0  0  0  0  0  0  0
    7.0934    3.2704    0.0000 C   0  0  0  0  0  0  0  0  0  0  0  0
    6.3789    2.8579    0.0000 C   0  0  0  0  0  0  0  0  0  0  0  0
    5.6645    3.2704    0.0000 C   0  0  0  0  0  0  0  0  0  0  0  0
    4.9500    2.8579    0.0000 C   0  0  0  0  0  0  0  0  0  0  0  0
    4.2355    3.2704    0.0000 O   0  0  0  0  0  0  0  0  0  0  0  0
    4.9500    2.0329    0.0000 O   0  0  0  0  0  0  0  0  0  0  0  0
    9.9513    3.2704    0.0000 N   0  0  0  0  0  0  0  0  0  0  0  0
   10.6658    2.8579    0.0000 C   0  0  0  0  0  0  0  0  0  0  0  0
   11.3802    3.2704    0.0000 O   0  0  0  0  0  0  0  0  0  0  0  0
   10.6658    2.0329    0.0000 O   0  0  0  0  0  0  0  0  0  0  0  0
  1  2  1  0  0  0  0
  2  3  1  6  0  0  0
  2  4  1  0  0  0  0
  4  5  1  0  0  0  0
  5  6  1  0  0  0  0
  6  7  1  0  0  0  0
  7  8  1  0  0  0  0
  8  9  1  0  0  0  0
  9 10  1  0  0  0  0
 10 11  1  0  0  0  0
 10 12  2  0  0  0  0
  4 13  1  1  0  0  0
 13 14  1  0  0  0  0
 14 15  1  0  0  0  0
 14 16  2  0  0  0  0
M  END
> <DATABASE_ID>
DB03624

> <DATABASE_NAME>
drugbank

> <SMILES>
C[C@H](N)[C@@H](CCCCCC(O)=O)NC(O)=O

> <INCHI_IDENTIFIER>
InChI=1S/C10H20N2O4/c1-7(11)8(12-10(15)16)5-3-2-4-6-9(13)14/h7-8,12H,2-6,11H2,1H3,(H,13,14)(H,15,16)/t7-,8+/m0/s1

> <INCHI_KEY>
OQNJZSIPDMTUAJ-JGVFFNPUSA-N

> <FORMULA>
C10H20N2O4

> <MOLECULAR_WEIGHT>
232.2768

> <EXACT_MASS>
232.142307138

> <JCHEM_ACCEPTOR_COUNT>
5

> <JCHEM_ATOM_COUNT>
36

> <JCHEM_AVERAGE_NEUTRAL_MICROSPECIES_CHARGE>
-0.997847166390864

> <JCHEM_AVERAGE_POLARIZABILITY>
24.62225317653803

> <JCHEM_BIOAVAILABILITY>
1

> <JCHEM_DONOR_COUNT>
4

> <JCHEM_FORMAL_CHARGE>
0

> <JCHEM_GHOSE_FILTER>
0

> <JCHEM_IUPAC>
(7R,8S)-8-amino-7-(carboxyamino)nonanoic acid

> <ALOGPS_LOGP>
-2.54

> <JCHEM_LOGP>
-1.7933115658979262

> <ALOGPS_LOGS>
-1.84

> <JCHEM_MDDR_LIKE_RULE>
0

> <JCHEM_NEUTRAL_CHARGE>
-1

> <JCHEM_NUMBER_OF_RINGS>
0

> <JCHEM_PHYSIOLOGICAL_CHARGE>
-1

> <JCHEM_PKA>
4.578240291476705

> <JCHEM_PKA_STRONGEST_ACIDIC>
3.714567872255411

> <JCHEM_PKA_STRONGEST_BASIC>
9.445176166413134

> <JCHEM_POLAR_SURFACE_AREA>
112.65

> <JCHEM_REFRACTIVITY>
57.597899999999996

> <JCHEM_ROTATABLE_BOND_COUNT>
8

> <JCHEM_RULE_OF_FIVE>
1

> <ALOGPS_SOLUBILITY>
3.33e+00 g/l

> <JCHEM_TRADITIONAL_IUPAC>
tetrahydrofolic acid

> <JCHEM_VEBER_RULE>
0

> <DRUGBANK_ID>
DB03624

> <SECONDARY_ACCESSION_NUMBERS>
EXPT01273

> <DRUG_GROUPS>
experimental

> <GENERIC_NAME>
7-(Carboxyamino)-8-Amino-Nonanoic Acid

$$$$
