
  Mrv0541 02231216162D          

  6  5  0  0  1  0            999 V2000
    2.4750   -1.4289    0.0000 O   0  0  0  0  0  0  0  0  0  0  0  0
    2.0625   -0.7145    0.0000 C   0  0  0  0  0  0  0  0  0  0  0  0
    1.2375   -0.7145    0.0000 C   0  0  1  0  0  0  0  0  0  0  0  0
    0.8250   -1.4289    0.0000 O   0  0  0  0  0  0  0  0  0  0  0  0
    0.8250    0.0000    0.0000 C   0  0  0  0  0  0  0  0  0  0  0  0
    0.0000    0.0000    0.0000 O   0  0  0  0  0  0  0  0  0  0  0  0
  1  2  1  0  0  0  0
  2  3  1  0  0  0  0
  3  4  1  1  0  0  0
  3  5  1  0  0  0  0
  5  6  2  0  0  0  0
M  END
> <DATABASE_ID>
DB02536

> <DATABASE_NAME>
drugbank

> <SMILES>
OC[C@@H](O)C=O

> <INCHI_IDENTIFIER>
InChI=1S/C3H6O3/c4-1-3(6)2-5/h1,3,5-6H,2H2/t3-/m0/s1

> <INCHI_KEY>
MNQZXJOMYWMBOU-VKHMYHEASA-N

> <FORMULA>
C3H6O3

> <MOLECULAR_WEIGHT>
90.0779

> <EXACT_MASS>
90.031694058

> <JCHEM_ACCEPTOR_COUNT>
3

> <JCHEM_ATOM_COUNT>
12

> <JCHEM_AVERAGE_NEUTRAL_MICROSPECIES_CHARGE>
-1.4479078334592137e-06

> <JCHEM_AVERAGE_POLARIZABILITY>
8.049429148957353

> <JCHEM_BIOAVAILABILITY>
1

> <JCHEM_DONOR_COUNT>
2

> <JCHEM_FORMAL_CHARGE>
0

> <JCHEM_GHOSE_FILTER>
0

> <JCHEM_IUPAC>
(2R)-2,3-dihydroxypropanal

> <ALOGPS_LOGP>
-1.63

> <JCHEM_LOGP>
-1.677355737

> <ALOGPS_LOGS>
0.96

> <JCHEM_MDDR_LIKE_RULE>
0

> <JCHEM_NEUTRAL_CHARGE>
0

> <JCHEM_NUMBER_OF_RINGS>
0

> <JCHEM_PHYSIOLOGICAL_CHARGE>
0

> <JCHEM_PKA>
15.447541009174884

> <JCHEM_PKA_STRONGEST_ACIDIC>
12.840315378273393

> <JCHEM_PKA_STRONGEST_BASIC>
-3.001809498899698

> <JCHEM_POLAR_SURFACE_AREA>
57.53

> <JCHEM_REFRACTIVITY>
19.4581

> <JCHEM_ROTATABLE_BOND_COUNT>
2

> <JCHEM_RULE_OF_FIVE>
1

> <ALOGPS_SOLUBILITY>
8.14e+02 g/l

> <JCHEM_TRADITIONAL_IUPAC>
biotin

> <JCHEM_VEBER_RULE>
0

> <DRUGBANK_ID>
DB02536

> <SECONDARY_ACCESSION_NUMBERS>
EXPT00170

> <DRUG_GROUPS>
experimental

> <GENERIC_NAME>
D-glyceraldehyde

> <SYNONYMS>
D-(+)-glyceraldehyde; D-2,3-dihydroxypropanal; D-2,3-dihydroxypropionaldehyde; D-aldotriose; D-glycerose; Triose

$$$$
