
  Mrv0541 02241221142D          

  1  0  0  0  0  0            999 V2000
    0.0000    0.0000    0.0000 Sb  0  0  0  0  0 15  0  0  0  0  0  0
M  END
> <DATABASE_ID>
DB13110

> <DATABASE_NAME>
drugbank

> <SMILES>
[Sb]

> <INCHI_IDENTIFIER>
InChI=1S/Sb

> <INCHI_KEY>
WATWJIUSRGPENY-UHFFFAOYSA-N

> <FORMULA>
Sb

> <MOLECULAR_WEIGHT>
121.76

> <EXACT_MASS>
120.903818044

> <JCHEM_ACCEPTOR_COUNT>
0

> <JCHEM_ATOM_COUNT>
1

> <JCHEM_AVERAGE_NEUTRAL_MICROSPECIES_CHARGE>
0.0

> <JCHEM_AVERAGE_POLARIZABILITY>
1.7784

> <JCHEM_BIOAVAILABILITY>
1

> <JCHEM_DONOR_COUNT>
0

> <JCHEM_FORMAL_CHARGE>
0

> <JCHEM_GHOSE_FILTER>
0

> <JCHEM_IUPAC>
antimony

> <JCHEM_LOGP>
0.0056

> <JCHEM_MDDR_LIKE_RULE>
0

> <JCHEM_NEUTRAL_CHARGE>
0

> <JCHEM_NUMBER_OF_RINGS>
0

> <JCHEM_PHYSIOLOGICAL_CHARGE>
0

> <JCHEM_POLAR_SURFACE_AREA>
0.0

> <JCHEM_REFRACTIVITY>
0.0

> <JCHEM_ROTATABLE_BOND_COUNT>
0

> <JCHEM_RULE_OF_FIVE>
1

> <JCHEM_TRADITIONAL_IUPAC>
tetrahydrofolic acid

> <JCHEM_VEBER_RULE>
1

> <DRUGBANK_ID>
DB13110

> <DRUG_GROUPS>
investigational

> <GENERIC_NAME>
Antimony

> <SYNONYMS>
antimonio

$$$$
