
  Mrv0541 02231215532D          

  7  7  0  0  0  0            999 V2000
    0.7145    2.0625    0.0000 C   0  0  0  0  0  0  0  0  0  0  0  0
    0.7145    1.2375    0.0000 C   0  0  0  0  0  0  0  0  0  0  0  0
    1.4289    0.8250    0.0000 C   0  0  0  0  0  0  0  0  0  0  0  0
    1.4289    0.0000    0.0000 C   0  0  0  0  0  0  0  0  0  0  0  0
    0.7145   -0.4125    0.0000 C   0  0  0  0  0  0  0  0  0  0  0  0
    0.0000    0.0000    0.0000 N   0  0  0  0  0  0  0  0  0  0  0  0
    0.0000    0.8250    0.0000 C   0  0  0  0  0  0  0  0  0  0  0  0
  1  2  1  0  0  0  0
  2  3  2  0  0  0  0
  3  4  1  0  0  0  0
  4  5  2  0  0  0  0
  5  6  1  0  0  0  0
  6  7  2  0  0  0  0
  2  7  1  0  0  0  0
M  END
> <DATABASE_ID>
DB01996

> <DATABASE_NAME>
drugbank

> <SMILES>
CC1=CC=CN=C1

> <INCHI_IDENTIFIER>
InChI=1S/C6H7N/c1-6-3-2-4-7-5-6/h2-5H,1H3

> <INCHI_KEY>
ITQTTZVARXURQS-UHFFFAOYSA-N

> <FORMULA>
C6H7N

> <MOLECULAR_WEIGHT>
93.1265

> <EXACT_MASS>
93.057849229

> <JCHEM_ACCEPTOR_COUNT>
1

> <JCHEM_ATOM_COUNT>
14

> <JCHEM_AVERAGE_NEUTRAL_MICROSPECIES_CHARGE>
0.04072039537451143

> <JCHEM_AVERAGE_POLARIZABILITY>
10.31154883866584

> <JCHEM_BIOAVAILABILITY>
1

> <JCHEM_DONOR_COUNT>
0

> <JCHEM_FORMAL_CHARGE>
0

> <JCHEM_GHOSE_FILTER>
0

> <JCHEM_IUPAC>
3-methylpyridine

> <ALOGPS_LOGP>
1.11

> <JCHEM_LOGP>
1.2689947783333335

> <ALOGPS_LOGS>
0.33

> <JCHEM_MDDR_LIKE_RULE>
0

> <JCHEM_NEUTRAL_CHARGE>
0

> <JCHEM_NUMBER_OF_RINGS>
1

> <JCHEM_PHYSIOLOGICAL_CHARGE>
0

> <JCHEM_PKA_STRONGEST_BASIC>
5.627866775155743

> <JCHEM_POLAR_SURFACE_AREA>
12.89

> <JCHEM_REFRACTIVITY>
28.942299999999996

> <JCHEM_ROTATABLE_BOND_COUNT>
0

> <JCHEM_RULE_OF_FIVE>
1

> <ALOGPS_SOLUBILITY>
1.97e+02 g/l

> <JCHEM_TRADITIONAL_IUPAC>
tetrahydrofolic acid

> <JCHEM_VEBER_RULE>
1

> <DRUGBANK_ID>
DB01996

> <SECONDARY_ACCESSION_NUMBERS>
EXPT00181

> <DRUG_GROUPS>
experimental

> <GENERIC_NAME>
3-Methylpyridine

$$$$
