
  Mrv0541 02231216252D          

  4  3  0  0  0  0            999 V2000
    1.2375    0.7145    0.0000 C   0  0  0  0  0  0  0  0  0  0  0  0
    0.8250    0.0000    0.0000 C   0  0  0  0  0  0  0  0  0  0  0  0
    1.2375   -0.7145    0.0000 N   0  0  0  0  0  0  0  0  0  0  0  0
    0.0000    0.0000    0.0000 O   0  0  0  0  0  0  0  0  0  0  0  0
  1  2  1  0  0  0  0
  2  3  1  0  0  0  0
  2  4  2  0  0  0  0
M  END
> <DATABASE_ID>
DB02736

> <DATABASE_NAME>
drugbank

> <SMILES>
CC(N)=O

> <INCHI_IDENTIFIER>
InChI=1S/C2H5NO/c1-2(3)4/h1H3,(H2,3,4)

> <INCHI_KEY>
DLFVBJFMPXGRIB-UHFFFAOYSA-N

> <FORMULA>
C2H5NO

> <MOLECULAR_WEIGHT>
59.0672

> <EXACT_MASS>
59.037113787

> <JCHEM_ACCEPTOR_COUNT>
1

> <JCHEM_ATOM_COUNT>
9

> <JCHEM_AVERAGE_NEUTRAL_MICROSPECIES_CHARGE>
3.757286352649179e-09

> <JCHEM_AVERAGE_POLARIZABILITY>
5.756158253961428

> <JCHEM_BIOAVAILABILITY>
1

> <JCHEM_DONOR_COUNT>
1

> <JCHEM_FORMAL_CHARGE>
0

> <JCHEM_GHOSE_FILTER>
0

> <JCHEM_IUPAC>
acetamide

> <ALOGPS_LOGP>
-1.10

> <JCHEM_LOGP>
-1.030288328

> <ALOGPS_LOGS>
0.80

> <JCHEM_MDDR_LIKE_RULE>
0

> <JCHEM_NEUTRAL_CHARGE>
0

> <JCHEM_NUMBER_OF_RINGS>
0

> <JCHEM_PHYSIOLOGICAL_CHARGE>
0

> <JCHEM_PKA_STRONGEST_ACIDIC>
16.74512898335727

> <JCHEM_PKA_STRONGEST_BASIC>
-1.4048213434597656

> <JCHEM_POLAR_SURFACE_AREA>
43.09

> <JCHEM_REFRACTIVITY>
14.4659

> <JCHEM_ROTATABLE_BOND_COUNT>
0

> <JCHEM_RULE_OF_FIVE>
1

> <ALOGPS_SOLUBILITY>
3.69e+02 g/l

> <JCHEM_TRADITIONAL_IUPAC>
tetrahydrofolic acid

> <JCHEM_VEBER_RULE>
0

> <DRUGBANK_ID>
DB02736

> <SECONDARY_ACCESSION_NUMBERS>
EXPT00414

> <DRUG_GROUPS>
experimental

> <GENERIC_NAME>
Acetamide

$$$$
