
  Mrv0541 02231215462D          

 11 10  0  0  1  0            999 V2000
    2.6664   -2.3645    0.0000 C   0  0  0  0  0  0  0  0  0  0  0  0
    1.9520   -1.9520    0.0000 C   0  0  0  0  0  0  0  0  0  0  0  0
    1.2375   -2.3645    0.0000 C   0  0  0  0  0  0  0  0  0  0  0  0
    1.9520   -1.1270    0.0000 C   0  0  1  0  0  0  0  0  0  0  0  0
    1.2375   -0.7145    0.0000 N   0  0  0  0  0  0  0  0  0  0  0  0
    1.2375    0.1105    0.0000 C   0  0  0  0  0  0  0  0  0  0  0  0
    0.5230    0.5230    0.0000 N   0  0  0  0  0  0  0  0  0  0  0  0
    1.9520    0.5230    0.0000 O   0  0  0  0  0  0  0  0  0  0  0  0
    2.6664   -0.7145    0.0000 C   0  0  0  0  0  0  0  0  0  0  0  0
    2.6664    0.1105    0.0000 O   0  0  0  0  0  0  0  0  0  0  0  0
    3.3809   -1.1270    0.0000 O   0  0  0  0  0  0  0  0  0  0  0  0
  1  2  1  0  0  0  0
  2  3  1  0  0  0  0
  2  4  1  0  0  0  0
  4  5  1  1  0  0  0
  5  6  1  0  0  0  0
  6  7  1  0  0  0  0
  6  8  2  0  0  0  0
  4  9  1  0  0  0  0
  9 10  1  0  0  0  0
  9 11  2  0  0  0  0
M  END
> <DATABASE_ID>
DB01847

> <DATABASE_NAME>
drugbank

> <SMILES>
CC(C)[C@@H](NC(N)=O)C(O)=O

> <INCHI_IDENTIFIER>
InChI=1S/C6H12N2O3/c1-3(2)4(5(9)10)8-6(7)11/h3-4H,1-2H3,(H,9,10)(H3,7,8,11)/t4-/m1/s1

> <INCHI_KEY>
JDXMIYHOSFNZKO-SCSAIBSYSA-N

> <FORMULA>
C6H12N2O3

> <MOLECULAR_WEIGHT>
160.1711

> <EXACT_MASS>
160.08479226

> <JCHEM_ACCEPTOR_COUNT>
3

> <JCHEM_ATOM_COUNT>
23

> <JCHEM_AVERAGE_NEUTRAL_MICROSPECIES_CHARGE>
-0.9989563796819814

> <JCHEM_AVERAGE_POLARIZABILITY>
15.573900487325748

> <JCHEM_BIOAVAILABILITY>
1

> <JCHEM_DONOR_COUNT>
3

> <JCHEM_FORMAL_CHARGE>
0

> <JCHEM_GHOSE_FILTER>
0

> <JCHEM_IUPAC>
(2R)-2-(carbamoylamino)-3-methylbutanoic acid

> <ALOGPS_LOGP>
-0.63

> <JCHEM_LOGP>
-0.2059150239999998

> <ALOGPS_LOGS>
-0.87

> <JCHEM_MDDR_LIKE_RULE>
0

> <JCHEM_NEUTRAL_CHARGE>
-1

> <JCHEM_NUMBER_OF_RINGS>
0

> <JCHEM_PHYSIOLOGICAL_CHARGE>
-1

> <JCHEM_PKA>
15.249284152973603

> <JCHEM_PKA_STRONGEST_ACIDIC>
4.01899833180199

> <JCHEM_PKA_STRONGEST_BASIC>
-1.9778990916798065

> <JCHEM_POLAR_SURFACE_AREA>
92.41999999999999

> <JCHEM_REFRACTIVITY>
37.613400000000006

> <JCHEM_ROTATABLE_BOND_COUNT>
3

> <JCHEM_RULE_OF_FIVE>
1

> <ALOGPS_SOLUBILITY>
2.14e+01 g/l

> <JCHEM_TRADITIONAL_IUPAC>
tetrahydrofolic acid

> <JCHEM_VEBER_RULE>
0

> <DRUGBANK_ID>
DB01847

> <SECONDARY_ACCESSION_NUMBERS>
EXPT00879

> <DRUG_GROUPS>
experimental

> <GENERIC_NAME>
N-Carbamyl-D-Valine

$$$$
