
  Mrv0541 05041403512D          

 22 22  0  0  1  0            999 V2000
    2.0198    0.8843    0.0000 C   0  0  0  0  0  0  0  0  0  0  0  0
   -0.3297   -0.8227    0.0000 C   0  0  0  0  0  0  0  0  0  0  0  0
    1.2352    0.6294    0.0000 C   0  0  2  0  0  0  0  0  0  0  0  0
    0.1553   -0.1553    0.0000 C   0  0  1  0  0  0  0  0  0  0  0  0
    0.5678    1.1143    0.0000 C   0  0  2  0  0  0  0  0  0  0  0  0
   -0.0997    0.6294    0.0000 C   0  0  2  0  0  0  0  0  0  0  0  0
    0.5678    1.9393    0.0000 O   0  0  0  0  0  0  0  0  0  0  0  0
   -0.8843    0.8843    0.0000 O   0  0  0  0  0  0  0  0  0  0  0  0
   -1.9706   -0.6502    0.0000 O   0  0  0  0  0  0  0  0  0  0  0  0
   -1.2364   -1.5569    0.0000 O   0  0  0  0  0  0  0  0  0  0  0  0
   -1.0639    0.0840    0.0000 O   0  0  0  0  0  0  0  0  0  0  0  0
    4.2022    0.8421    0.0000 O   0  0  0  0  0  0  0  0  0  0  0  0
    3.6725   -0.1974    0.0000 O   0  0  0  0  0  0  0  0  0  0  0  0
    3.1626    1.3718    0.0000 O   0  0  0  0  0  0  0  0  0  0  0  0
    2.6329    0.3323    0.0000 O   0  0  0  0  0  0  0  0  0  0  0  0
    0.9803   -0.1553    0.0000 O   0  0  0  0  0  0  0  0  0  0  0  0
   -1.1501   -0.7365    0.0000 P   0  0  0  0  0  0  0  0  0  0  0  0
    3.4175    0.5872    0.0000 P   0  0  0  0  0  0  0  0  0  0  0  0
    1.0778    1.4392    0.0000 H   0  0  0  0  0  0  0  0  0  0  0  0
   -0.6546   -0.3127    0.0000 H   0  0  0  0  0  0  0  0  0  0  0  0
    1.1304    1.7177    0.0000 H   0  0  0  0  0  0  0  0  0  0  0  0
   -0.8474    0.2807    0.0000 H   0  0  0  0  0  0  0  0  0  0  0  0
  3  1  1  1  0  0  0
  4  2  1  1  0  0  0
  5  3  1  0  0  0  0
  6  4  1  0  0  0  0
  6  5  1  0  0  0  0
  5  7  1  6  0  0  0
  6  8  1  1  0  0  0
 15  1  1  0  0  0  0
 16  3  1  0  0  0  0
 16  4  1  0  0  0  0
 17  2  1  0  0  0  0
 17  9  1  0  0  0  0
 17 10  1  0  0  0  0
 17 11  2  0  0  0  0
 18 12  1  0  0  0  0
 18 13  1  0  0  0  0
 18 14  2  0  0  0  0
 18 15  1  0  0  0  0
  3 19  1  6  0  0  0
  4 20  1  6  0  0  0
  5 21  1  1  0  0  0
  6 22  1  6  0  0  0
M  END
> <DATABASE_ID>
DB02393

> <DATABASE_NAME>
drugbank

> <SMILES>
[H][C@]1(O)[C@]([H])(O)[C@]([H])(CP(O)(O)=O)O[C@]1([H])COP(O)(O)=O

> <INCHI_IDENTIFIER>
InChI=1S/C6H14O10P2/c7-5-3(1-15-18(12,13)14)16-4(6(5)8)2-17(9,10)11/h3-8H,1-2H2,(H2,9,10,11)(H2,12,13,14)/t3-,4+,5-,6-/m1/s1

> <INCHI_KEY>
YBOWGOLYQKBCFB-JGWLITMVSA-N

> <FORMULA>
C6H14O10P2

> <MOLECULAR_WEIGHT>
308.1169

> <EXACT_MASS>
308.006219692

> <JCHEM_ACCEPTOR_COUNT>
9

> <JCHEM_ATOM_COUNT>
32

> <JCHEM_AVERAGE_NEUTRAL_MICROSPECIES_CHARGE>
-3.017977285417525

> <JCHEM_AVERAGE_POLARIZABILITY>
23.568756543131958

> <JCHEM_BIOAVAILABILITY>
1

> <JCHEM_DONOR_COUNT>
6

> <JCHEM_FORMAL_CHARGE>
0

> <JCHEM_GHOSE_FILTER>
0

> <JCHEM_IUPAC>
{[(2R,3S,4S,5R)-3,4-dihydroxy-5-(phosphonomethyl)oxolan-2-yl]methoxy}phosphonic acid

> <ALOGPS_LOGP>
-1.64

> <JCHEM_LOGP>
-3.529336245333333

> <ALOGPS_LOGS>
-1.15

> <JCHEM_MDDR_LIKE_RULE>
0

> <JCHEM_NEUTRAL_CHARGE>
-3

> <JCHEM_NUMBER_OF_RINGS>
1

> <JCHEM_PHYSIOLOGICAL_CHARGE>
-3

> <JCHEM_PKA>
1.8765468082639631

> <JCHEM_PKA_STRONGEST_ACIDIC>
1.1191532700906521

> <JCHEM_PKA_STRONGEST_BASIC>
-3.62567116003957

> <JCHEM_POLAR_SURFACE_AREA>
173.98

> <JCHEM_REFRACTIVITY>
54.8069

> <JCHEM_ROTATABLE_BOND_COUNT>
5

> <JCHEM_RULE_OF_FIVE>
0

> <ALOGPS_SOLUBILITY>
2.18e+01 g/l

> <JCHEM_TRADITIONAL_IUPAC>
biotin

> <JCHEM_VEBER_RULE>
0

> <DRUGBANK_ID>
DB02393

> <SECONDARY_ACCESSION_NUMBERS>
EXPT01415

> <DRUG_GROUPS>
experimental

> <GENERIC_NAME>
D-Gluco-2,5-Anhydro-1-Deoxy-1-Phosphonohexitol-6-Phosphate

$$$$
