
  Mrv0541 05031423382D          

 93 98  0  0  1  0            999 V2000
   -0.7145   -0.4125    0.0000 C   0  0  0  0  0  0  0  0  0  0  0  0
    0.7145    8.6625    0.0000 C   0  0  0  0  0  0  0  0  0  0  0  0
   -3.5724   -5.3625    0.0000 C   0  0  0  0  0  0  0  0  0  0  0  0
   -1.4289    2.4750    0.0000 C   0  0  0  0  0  0  0  0  0  0  0  0
   -2.1434    3.7125    0.0000 C   0  0  0  0  0  0  0  0  0  0  0  0
   -2.1434   -1.2375    0.0000 C   0  0  0  0  0  0  0  0  0  0  0  0
    2.1434    4.5375    0.0000 C   0  0  0  0  0  0  0  0  0  0  0  0
   -1.4289   -0.0000    0.0000 C   0  0  2  0  0  0  0  0  0  0  0  0
    1.4289    8.2500    0.0000 C   0  0  2  0  0  0  0  0  0  0  0  0
   -2.8579   -4.9500    0.0000 C   0  0  2  0  0  0  0  0  0  0  0  0
   -1.4289    3.3000    0.0000 C   0  0  0  0  0  0  0  0  0  0  0  0
   -0.7145    2.0625    0.0000 C   0  0  1  0  0  0  0  0  0  0  0  0
   -2.8579   -1.6500    0.0000 C   0  0  2  0  0  0  0  0  0  0  0  0
    1.4289    4.9500    0.0000 C   0  0  2  0  0  0  0  0  0  0  0  0
   -1.4289    0.8250    0.0000 C   0  0  2  0  0  0  0  0  0  0  0  0
    2.1434    8.6625    0.0000 C   0  0  2  0  0  0  0  0  0  0  0  0
   -0.0000    2.4750    0.0000 C   0  0  1  0  0  0  0  0  0  0  0  0
   -2.1434    1.2375    0.0000 C   0  0  1  0  0  0  0  0  0  0  0  0
    2.8579    8.2500    0.0000 C   0  0  1  0  0  0  0  0  0  0  0  0
   -0.0000    3.3000    0.0000 C   0  0  2  0  0  0  0  0  0  0  0  0
   -2.1434   -3.7125    0.0000 C   0  0  2  0  0  0  0  0  0  0  0  0
   -4.2868   -1.6500    0.0000 C   0  0  2  0  0  0  0  0  0  0  0  0
    0.7145    6.1875    0.0000 C   0  0  2  0  0  0  0  0  0  0  0  0
   -1.4289   -4.1250    0.0000 C   0  0  2  0  0  0  0  0  0  0  0  0
   -2.8579    0.8250    0.0000 C   0  0  2  0  0  0  0  0  0  0  0  0
    2.8579    7.4250    0.0000 C   0  0  2  0  0  0  0  0  0  0  0  0
   -4.2868   -2.4750    0.0000 C   0  0  2  0  0  0  0  0  0  0  0  0
    0.0000    5.7750    0.0000 C   0  0  2  0  0  0  0  0  0  0  0  0
   -2.8579   -4.1250    0.0000 C   0  0  2  0  0  0  0  0  0  0  0  0
   -0.7145    3.7125    0.0000 C   0  0  2  0  0  0  0  0  0  0  0  0
   -3.5724   -1.2375    0.0000 C   0  0  2  0  0  0  0  0  0  0  0  0
    1.4289    5.7750    0.0000 C   0  0  2  0  0  0  0  0  0  0  0  0
   -1.4289   -4.9500    0.0000 C   0  0  2  0  0  0  0  0  0  0  0  0
   -2.8579   -0.0000    0.0000 C   0  0  2  0  0  0  0  0  0  0  0  0
    2.1434    7.0125    0.0000 C   0  0  2  0  0  0  0  0  0  0  0  0
   -3.5724   -2.8875    0.0000 C   0  0  2  0  0  0  0  0  0  0  0  0
   -0.0000    4.9500    0.0000 C   0  0  2  0  0  0  0  0  0  0  0  0
   -0.7145    1.2375    0.0000 N   0  0  0  0  0  0  0  0  0  0  0  0
   -2.8579    3.3000    0.0000 O   0  0  0  0  0  0  0  0  0  0  0  0
   -1.4289   -1.6500    0.0000 O   0  0  0  0  0  0  0  0  0  0  0  0
    2.8579    4.9500    0.0000 O   0  0  0  0  0  0  0  0  0  0  0  0
    2.1434    9.4875    0.0000 O   0  0  0  0  0  0  0  0  0  0  0  0
    0.7145    2.0625    0.0000 O   0  0  0  0  0  0  0  0  0  0  0  0
   -2.1434    2.0625    0.0000 O   0  0  0  0  0  0  0  0  0  0  0  0
    3.5724    8.6625    0.0000 O   0  0  0  0  0  0  0  0  0  0  0  0
    0.7145    3.7125    0.0000 O   0  0  0  0  0  0  0  0  0  0  0  0
   -2.1434   -2.8875    0.0000 O   0  0  0  0  0  0  0  0  0  0  0  0
   -5.0013   -1.2375    0.0000 O   0  0  0  0  0  0  0  0  0  0  0  0
    0.7145    7.0125    0.0000 O   0  0  0  0  0  0  0  0  0  0  0  0
   -0.7145   -3.7125    0.0000 O   0  0  0  0  0  0  0  0  0  0  0  0
   -3.5724    1.2375    0.0000 O   0  0  0  0  0  0  0  0  0  0  0  0
    3.5724    7.0125    0.0000 O   0  0  0  0  0  0  0  0  0  0  0  0
   -5.0013   -2.8875    0.0000 O   0  0  0  0  0  0  0  0  0  0  0  0
   -0.7145    6.1875    0.0000 O   0  0  0  0  0  0  0  0  0  0  0  0
   -0.7145   -5.3625    0.0000 O   0  0  0  0  0  0  0  0  0  0  0  0
   -2.1434   -5.3625    0.0000 O   0  0  0  0  0  0  0  0  0  0  0  0
   -2.1434   -0.4125    0.0000 O   0  0  0  0  0  0  0  0  0  0  0  0
    1.4289    7.4250    0.0000 O   0  0  0  0  0  0  0  0  0  0  0  0
   -2.8579   -2.4750    0.0000 O   0  0  0  0  0  0  0  0  0  0  0  0
    0.7145    4.5375    0.0000 O   0  0  0  0  0  0  0  0  0  0  0  0
   -3.5724   -3.7125    0.0000 O   0  0  0  0  0  0  0  0  0  0  0  0
   -0.7145    4.5375    0.0000 O   0  0  0  0  0  0  0  0  0  0  0  0
   -3.5724   -0.4125    0.0000 O   0  0  0  0  0  0  0  0  0  0  0  0
    2.1434    6.1875    0.0000 O   0  0  0  0  0  0  0  0  0  0  0  0
   -0.8986    0.6320    0.0000 H   0  0  0  0  0  0  0  0  0  0  0  0
    1.1468    9.0252    0.0000 H   0  0  0  0  0  0  0  0  0  0  0  0
   -3.6704   -4.8067    0.0000 H   0  0  0  0  0  0  0  0  0  0  0  0
   -1.2448    1.4305    0.0000 H   0  0  0  0  0  0  0  0  0  0  0  0
   -3.1401   -0.8748    0.0000 H   0  0  0  0  0  0  0  0  0  0  0  0
    1.9592    5.5820    0.0000 H   0  0  0  0  0  0  0  0  0  0  0  0
   -0.6165    0.6817    0.0000 H   0  0  0  0  0  0  0  0  0  0  0  0
    1.6131    9.2945    0.0000 H   0  0  0  0  0  0  0  0  0  0  0  0
   -0.0000    1.6500    0.0000 H   0  0  0  0  0  0  0  0  0  0  0  0
   -1.6131    1.8695    0.0000 H   0  0  0  0  0  0  0  0  0  0  0  0
    2.8579    9.0750    0.0000 H   0  0  0  0  0  0  0  0  0  0  0  0
    0.7145    2.8875    0.0000 H   0  0  0  0  0  0  0  0  0  0  0  0
   -1.6131   -3.0805    0.0000 H   0  0  0  0  0  0  0  0  0  0  0  0
   -4.8171   -2.2820    0.0000 H   0  0  0  0  0  0  0  0  0  0  0  0
   -0.0980    6.3308    0.0000 H   0  0  0  0  0  0  0  0  0  0  0  0
   -1.1468   -3.3498    0.0000 H   0  0  0  0  0  0  0  0  0  0  0  0
   -2.8579    1.6500    0.0000 H   0  0  0  0  0  0  0  0  0  0  0  0
    3.5724    7.8375    0.0000 H   0  0  0  0  0  0  0  0  0  0  0  0
   -5.0993   -2.3317    0.0000 H   0  0  0  0  0  0  0  0  0  0  0  0
   -0.2822    6.5502    0.0000 H   0  0  0  0  0  0  0  0  0  0  0  0
   -3.6704   -4.2683    0.0000 H   0  0  0  0  0  0  0  0  0  0  0  0
   -1.4289    4.1250    0.0000 H   0  0  0  0  0  0  0  0  0  0  0  0
   -3.0421   -0.6055    0.0000 H   0  0  0  0  0  0  0  0  0  0  0  0
    2.2414    5.6317    0.0000 H   0  0  0  0  0  0  0  0  0  0  0  0
   -0.7145   -4.5375    0.0000 H   0  0  0  0  0  0  0  0  0  0  0  0
   -3.5724    0.4125    0.0000 H   0  0  0  0  0  0  0  0  0  0  0  0
    2.8579    6.6000    0.0000 H   0  0  0  0  0  0  0  0  0  0  0  0
   -4.2868   -3.3000    0.0000 H   0  0  0  0  0  0  0  0  0  0  0  0
   -0.7145    5.3625    0.0000 H   0  0  0  0  0  0  0  0  0  0  0  0
  8  1  1  1  0  0  0
  9  2  1  6  0  0  0
 10  3  1  6  0  0  0
 11  4  2  0  0  0  0
 11  5  1  0  0  0  0
 12  4  1  0  0  0  0
 13  6  1  1  0  0  0
 14  7  1  1  0  0  0
 15  8  1  0  0  0  0
 16  9  1  0  0  0  0
 17 12  1  0  0  0  0
 18 15  1  0  0  0  0
 19 16  1  0  0  0  0
 20 17  1  0  0  0  0
 24 21  1  0  0  0  0
 25 18  1  0  0  0  0
 26 19  1  0  0  0  0
 27 22  1  0  0  0  0
 28 23  1  0  0  0  0
 29 10  1  0  0  0  0
 29 21  1  0  0  0  0
 30 11  1  0  0  0  0
 30 20  1  0  0  0  0
 31 13  1  0  0  0  0
 31 22  1  0  0  0  0
 32 14  1  0  0  0  0
 32 23  1  0  0  0  0
 33 24  1  0  0  0  0
 34 25  1  0  0  0  0
 35 26  1  0  0  0  0
 36 27  1  0  0  0  0
 37 28  1  0  0  0  0
 12 38  1  1  0  0  0
 15 38  1  6  0  0  0
 39  5  1  0  0  0  0
 40  6  1  0  0  0  0
 41  7  1  0  0  0  0
 16 42  1  1  0  0  0
 17 43  1  1  0  0  0
 18 44  1  1  0  0  0
 19 45  1  6  0  0  0
 20 46  1  6  0  0  0
 21 47  1  6  0  0  0
 22 48  1  1  0  0  0
 23 49  1  1  0  0  0
 24 50  1  1  0  0  0
 25 51  1  6  0  0  0
 26 52  1  1  0  0  0
 27 53  1  6  0  0  0
 28 54  1  6  0  0  0
 33 55  1  6  0  0  0
 56 10  1  0  0  0  0
 56 33  1  0  0  0  0
 57  8  1  0  0  0  0
 57 34  1  0  0  0  0
 58  9  1  0  0  0  0
 58 35  1  0  0  0  0
 59 13  1  0  0  0  0
 59 36  1  0  0  0  0
 60 14  1  0  0  0  0
 60 37  1  0  0  0  0
 29 61  1  1  0  0  0
 36 61  1  6  0  0  0
 30 62  1  1  0  0  0
 37 62  1  6  0  0  0
 31 63  1  6  0  0  0
 34 63  1  6  0  0  0
 32 64  1  6  0  0  0
 35 64  1  1  0  0  0
  8 65  1  6  0  0  0
  9 66  1  1  0  0  0
 10 67  1  1  0  0  0
 12 68  1  6  0  0  0
 13 69  1  6  0  0  0
 14 70  1  6  0  0  0
 15 71  1  1  0  0  0
 16 72  1  6  0  0  0
 17 73  1  6  0  0  0
 18 74  1  6  0  0  0
 19 75  1  1  0  0  0
 20 76  1  1  0  0  0
 21 77  1  1  0  0  0
 22 78  1  6  0  0  0
 23 79  1  6  0  0  0
 24 80  1  6  0  0  0
 25 81  1  1  0  0  0
 26 82  1  6  0  0  0
 27 83  1  1  0  0  0
 28 84  1  1  0  0  0
 29 85  1  6  0  0  0
 30 86  1  6  0  0  0
 31 87  1  1  0  0  0
 32 88  1  1  0  0  0
 33 89  1  1  0  0  0
 34 90  1  1  0  0  0
 35 91  1  6  0  0  0
 36 92  1  1  0  0  0
 37 93  1  1  0  0  0
M  END
> <DATABASE_ID>
DB03617

> <DATABASE_NAME>
drugbank

> <SMILES>
[H][C@]1(C)O[C@]([H])(O[C@]2([H])[C@@]([H])(CO)O[C@]([H])(O[C@]3([H])C(CO)=C[C@]([H])(N[C@]4([H])[C@@]([H])(C)O[C@]([H])(O[C@]5([H])[C@@]([H])(CO)O[C@]([H])(O[C@]6([H])[C@@]([H])(C)O[C@@]([H])(O)[C@]([H])(O)[C@@]6([H])O)[C@]([H])(O)[C@@]5([H])O)[C@]([H])(O)[C@@]4([H])O)[C@]([H])(O)[C@@]3([H])O)[C@]([H])(O)[C@@]2([H])O)[C@]([H])(O)[C@@]([H])(O)[C@]1([H])O

> <INCHI_IDENTIFIER>
InChI=1S/C37H63NO26/c1-8-15(18(44)25(51)34(57-8)63-31-13(6-40)59-36(27(53)22(31)48)61-29-10(3)56-33(55)24(50)21(29)47)38-12-4-11(5-39)30(20(46)17(12)43)62-37-28(54)23(49)32(14(7-41)60-37)64-35-26(52)19(45)16(42)9(2)58-35/h4,8-10,12-55H,5-7H2,1-3H3/t8-,9-,10-,12+,13-,14-,15-,16-,17+,18+,19+,20-,21-,22-,23-,24-,25-,26-,27-,28-,29-,30-,31-,32-,33-,34-,35-,36-,37-/m1/s1

> <INCHI_KEY>
YXELUDMUQSCWQW-HCVSURSQSA-N

> <FORMULA>
C37H63NO26

> <MOLECULAR_WEIGHT>
937.8872

> <EXACT_MASS>
937.363831193

> <JCHEM_ACCEPTOR_COUNT>
27

> <JCHEM_ATOM_COUNT>
127

> <JCHEM_AVERAGE_NEUTRAL_MICROSPECIES_CHARGE>
0.6820343651682134

> <JCHEM_AVERAGE_POLARIZABILITY>
91.36515782365029

> <JCHEM_BIOAVAILABILITY>
0

> <JCHEM_DONOR_COUNT>
18

> <JCHEM_FORMAL_CHARGE>
0

> <JCHEM_GHOSE_FILTER>
0

> <JCHEM_IUPAC>
(2R,3R,4S,5S,6R)-2-{[(2R,3S,4R,5R,6S)-6-{[(1R,4S,5S,6R)-4-{[(2R,3S,4S,5R,6R)-6-{[(2R,3S,4R,5R,6R)-4,5-dihydroxy-2-(hydroxymethyl)-6-{[(2R,3S,4R,5R,6R)-4,5,6-trihydroxy-2-methyloxan-3-yl]oxy}oxan-3-yl]oxy}-4,5-dihydroxy-2-methyloxan-3-yl]amino}-5,6-dihydroxy-2-(hydroxymethyl)cyclohex-2-en-1-yl]oxy}-4,5-dihydroxy-2-(hydroxymethyl)oxan-3-yl]oxy}-6-methyloxane-3,4,5-triol

> <ALOGPS_LOGP>
-2.22

> <JCHEM_LOGP>
-9.06241021466667

> <ALOGPS_LOGS>
-1.12

> <JCHEM_MDDR_LIKE_RULE>
1

> <JCHEM_NEUTRAL_CHARGE>
1

> <JCHEM_NUMBER_OF_RINGS>
6

> <JCHEM_PHYSIOLOGICAL_CHARGE>
1

> <JCHEM_PKA>
11.82079128068993

> <JCHEM_PKA_STRONGEST_ACIDIC>
11.181603412096944

> <JCHEM_PKA_STRONGEST_BASIC>
7.331546436324363

> <JCHEM_POLAR_SURFACE_AREA>
439.01000000000016

> <JCHEM_REFRACTIVITY>
199.34160000000017

> <JCHEM_ROTATABLE_BOND_COUNT>
13

> <JCHEM_RULE_OF_FIVE>
0

> <ALOGPS_SOLUBILITY>
7.11e+01 g/l

> <JCHEM_TRADITIONAL_IUPAC>
tetrahydrofolic acid

> <JCHEM_VEBER_RULE>
0

> <DRUGBANK_ID>
DB03617

> <SECONDARY_ACCESSION_NUMBERS>
EXPT00392

> <DRUG_GROUPS>
experimental

> <GENERIC_NAME>
Modified Acarbose Hexasaccharide

$$$$
