
  Mrv0541 02231215402D          

 11 10  0  0  1  0            999 V2000
    2.6664    2.3645    0.0000 O   0  0  0  0  0  0  0  0  0  0  0  0
    1.9520    1.9520    0.0000 C   0  0  0  0  0  0  0  0  0  0  0  0
    1.9520    1.1270    0.0000 C   0  0  1  0  0  0  0  0  0  0  0  0
    1.2375    0.7145    0.0000 O   0  0  0  0  0  0  0  0  0  0  0  0
    1.2375   -0.1105    0.0000 P   0  0  0  0  0  0  0  0  0  0  0  0
    1.2375   -0.9355    0.0000 O   0  0  0  0  0  0  0  0  0  0  0  0
    0.4125   -0.1105    0.0000 O   0  0  0  0  0  0  0  0  0  0  0  0
    2.0625   -0.1105    0.0000 O   0  0  0  0  0  0  0  0  0  0  0  0
    2.6664    0.7145    0.0000 C   0  0  0  0  0  0  0  0  0  0  0  0
    3.3809    1.1270    0.0000 O   0  0  0  0  0  0  0  0  0  0  0  0
    2.6664   -0.1105    0.0000 O   0  0  0  0  0  0  0  0  0  0  0  0
  1  2  1  0  0  0  0
  2  3  1  0  0  0  0
  3  4  1  6  0  0  0
  4  5  1  0  0  0  0
  5  6  1  0  0  0  0
  5  7  1  0  0  0  0
  5  8  2  0  0  0  0
  3  9  1  0  0  0  0
  9 10  1  0  0  0  0
  9 11  2  0  0  0  0
M  END
> <DATABASE_ID>
DB01709

> <DATABASE_NAME>
drugbank

> <SMILES>
OC[C@@H](OP(O)(O)=O)C(O)=O

> <INCHI_IDENTIFIER>
InChI=1S/C3H7O7P/c4-1-2(3(5)6)10-11(7,8)9/h2,4H,1H2,(H,5,6)(H2,7,8,9)/t2-/m1/s1

> <INCHI_KEY>
GXIURPTVHJPJLF-UWTATZPHSA-N

> <FORMULA>
C3H7O7P

> <MOLECULAR_WEIGHT>
186.0572

> <EXACT_MASS>
185.99293909

> <JCHEM_ACCEPTOR_COUNT>
6

> <JCHEM_ATOM_COUNT>
18

> <JCHEM_AVERAGE_NEUTRAL_MICROSPECIES_CHARGE>
-2.8203359446165748

> <JCHEM_AVERAGE_POLARIZABILITY>
13.363889103214117

> <JCHEM_BIOAVAILABILITY>
1

> <JCHEM_DONOR_COUNT>
4

> <JCHEM_FORMAL_CHARGE>
0

> <JCHEM_GHOSE_FILTER>
0

> <JCHEM_IUPAC>
(2R)-3-hydroxy-2-(phosphonooxy)propanoic acid

> <ALOGPS_LOGP>
-2.24

> <JCHEM_LOGP>
-1.642305516

> <ALOGPS_LOGS>
-0.96

> <JCHEM_MDDR_LIKE_RULE>
0

> <JCHEM_NEUTRAL_CHARGE>
-3

> <JCHEM_NUMBER_OF_RINGS>
0

> <JCHEM_PHYSIOLOGICAL_CHARGE>
-3

> <JCHEM_PKA>
3.483549412336347

> <JCHEM_PKA_STRONGEST_ACIDIC>
0.8080623457428864

> <JCHEM_PKA_STRONGEST_BASIC>
-3.0640832510433764

> <JCHEM_POLAR_SURFACE_AREA>
124.29000000000002

> <JCHEM_REFRACTIVITY>
31.2564

> <JCHEM_ROTATABLE_BOND_COUNT>
4

> <JCHEM_RULE_OF_FIVE>
1

> <ALOGPS_SOLUBILITY>
2.03e+01 g/l

> <JCHEM_TRADITIONAL_IUPAC>
biotin

> <JCHEM_VEBER_RULE>
0

> <DRUGBANK_ID>
DB01709

> <SECONDARY_ACCESSION_NUMBERS>
EXPT00143; EXPT02490; DB03465

> <DRUG_GROUPS>
experimental

> <GENERIC_NAME>
2-phospho-D-glyceric acid

> <SYNONYMS>
2-phospho-D-glycerate; D-glycerate 2-phosphate

$$$$
