
  Mrv0541 02231216282D          

 15 15  0  0  1  0            999 V2000
    2.8579    2.4750    0.0000 C   0  0  0  0  0  0  0  0  0  0  0  0
    2.1434    2.0625    0.0000 C   0  0  0  0  0  0  0  0  0  0  0  0
    1.4289    2.4750    0.0000 O   0  0  0  0  0  0  0  0  0  0  0  0
    2.1434    1.2375    0.0000 N   0  0  0  0  0  0  0  0  0  0  0  0
    1.4289    0.8250    0.0000 C   0  0  2  0  0  0  0  0  0  0  0  0
    1.4289    0.0000    0.0000 C   0  0  1  0  0  0  0  0  0  0  0  0
    2.1434   -0.4125    0.0000 O   0  0  0  0  0  0  0  0  0  0  0  0
    0.7145   -0.4125    0.0000 C   0  0  2  0  0  0  0  0  0  0  0  0
    0.7145   -1.2375    0.0000 O   0  0  0  0  0  0  0  0  0  0  0  0
    0.0000    0.0000    0.0000 C   0  0  1  0  0  0  0  0  0  0  0  0
   -0.7145   -0.4125    0.0000 C   0  0  0  0  0  0  0  0  0  0  0  0
   -0.7145   -1.2375    0.0000 O   0  0  0  0  0  0  0  0  0  0  0  0
    0.0000    0.8250    0.0000 O   0  0  0  0  0  0  0  0  0  0  0  0
    0.7145    1.2375    0.0000 C   0  0  0  0  0  0  0  0  0  0  0  0
    0.7145    2.0625    0.0000 O   0  0  0  0  0  0  0  0  0  0  0  0
  1  2  1  0  0  0  0
  2  3  2  0  0  0  0
  2  4  1  0  0  0  0
  5  4  1  6  0  0  0
  5  6  1  0  0  0  0
  6  7  1  1  0  0  0
  6  8  1  0  0  0  0
  8  9  1  6  0  0  0
  8 10  1  0  0  0  0
 10 11  1  1  0  0  0
 11 12  1  0  0  0  0
 10 13  1  0  0  0  0
 13 14  1  0  0  0  0
  5 14  1  0  0  0  0
 14 15  2  0  0  0  0
M  END
> <DATABASE_ID>
DB02813

> <DATABASE_NAME>
drugbank

> <SMILES>
CC(=O)N[C@@H]1[C@@H](O)[C@H](O)[C@@H](CO)OC1=O

> <INCHI_IDENTIFIER>
InChI=1S/C8H13NO6/c1-3(11)9-5-7(13)6(12)4(2-10)15-8(5)14/h4-7,10,12-13H,2H2,1H3,(H,9,11)/t4-,5-,6-,7-/m1/s1

> <INCHI_KEY>
NELQYZRSPDCGRQ-DBRKOABJSA-N

> <FORMULA>
C8H13NO6

> <MOLECULAR_WEIGHT>
219.1919

> <EXACT_MASS>
219.074287153

> <JCHEM_ACCEPTOR_COUNT>
5

> <JCHEM_ATOM_COUNT>
28

> <JCHEM_AVERAGE_NEUTRAL_MICROSPECIES_CHARGE>
-2.6783140186818687e-05

> <JCHEM_AVERAGE_POLARIZABILITY>
20.28798423136665

> <JCHEM_BIOAVAILABILITY>
1

> <JCHEM_DONOR_COUNT>
4

> <JCHEM_FORMAL_CHARGE>
0

> <JCHEM_GHOSE_FILTER>
0

> <JCHEM_IUPAC>
N-[(3R,4R,5S,6R)-4,5-dihydroxy-6-(hydroxymethyl)-2-oxooxan-3-yl]acetamide

> <ALOGPS_LOGP>
-2.04

> <JCHEM_LOGP>
-3.033308379666667

> <ALOGPS_LOGS>
0.03

> <JCHEM_MDDR_LIKE_RULE>
0

> <JCHEM_NEUTRAL_CHARGE>
0

> <JCHEM_NUMBER_OF_RINGS>
1

> <JCHEM_PHYSIOLOGICAL_CHARGE>
0

> <JCHEM_PKA>
12.866534432715477

> <JCHEM_PKA_STRONGEST_ACIDIC>
11.598223801229215

> <JCHEM_PKA_STRONGEST_BASIC>
-1.8679995045102034

> <JCHEM_POLAR_SURFACE_AREA>
116.09

> <JCHEM_REFRACTIVITY>
45.880100000000006

> <JCHEM_ROTATABLE_BOND_COUNT>
2

> <JCHEM_RULE_OF_FIVE>
1

> <ALOGPS_SOLUBILITY>
2.33e+02 g/l

> <JCHEM_TRADITIONAL_IUPAC>
biotin

> <JCHEM_VEBER_RULE>
0

> <DRUGBANK_ID>
DB02813

> <SECONDARY_ACCESSION_NUMBERS>
EXPT01570

> <DRUG_GROUPS>
experimental

> <GENERIC_NAME>
2-Acetamido-2-Deoxy-D-Glucono-1,5-Lactone

$$$$
