
  Mrv0541 05031423262D          

  8  7  0  0  0  0            999 V2000
    0.7145    1.2375    0.0000 C   0  0  0  0  0  0  0  0  0  0  0  0
    0.7145    2.0625    0.0000 C   0  0  0  0  0  0  0  0  0  0  0  0
    0.0000    0.8250    0.0000 C   0  0  0  0  0  0  0  0  0  0  0  0
    1.4289    2.4750    0.0000 N   0  0  0  0  0  0  0  0  0  0  0  0
   -0.0000   -0.8250    0.0000 O   0  0  0  0  0  0  0  0  0  0  0  0
   -0.8250    0.0000    0.0000 O   0  0  0  0  0  0  0  0  0  0  0  0
    0.8250    0.0000    0.0000 O   0  0  0  0  0  0  0  0  0  0  0  0
    0.0000    0.0000    0.0000 S   0  0  0  0  0  0  0  0  0  0  0  0
  2  1  1  0  0  0  0
  3  1  1  0  0  0  0
  4  2  1  0  0  0  0
  8  3  1  0  0  0  0
  8  5  1  0  0  0  0
  8  6  2  0  0  0  0
  8  7  2  0  0  0  0
M  END
> <DATABASE_ID>
DB06527

> <DATABASE_NAME>
drugbank

> <SMILES>
NCCCS(O)(=O)=O

> <INCHI_IDENTIFIER>
InChI=1S/C3H9NO3S/c4-2-1-3-8(5,6)7/h1-4H2,(H,5,6,7)

> <INCHI_KEY>
SNKZJIOFVMKAOJ-UHFFFAOYSA-N

> <FORMULA>
C3H9NO3S

> <MOLECULAR_WEIGHT>
139.173

> <EXACT_MASS>
139.030313849

> <JCHEM_ACCEPTOR_COUNT>
4

> <JCHEM_ATOM_COUNT>
17

> <JCHEM_AVERAGE_NEUTRAL_MICROSPECIES_CHARGE>
-0.0006450492584172407

> <JCHEM_AVERAGE_POLARIZABILITY>
12.840656387901008

> <JCHEM_BIOAVAILABILITY>
1

> <JCHEM_DONOR_COUNT>
2

> <JCHEM_FORMAL_CHARGE>
0

> <JCHEM_GHOSE_FILTER>
0

> <JCHEM_IUPAC>
3-aminopropane-1-sulfonic acid

> <ALOGPS_LOGP>
-2.01

> <JCHEM_LOGP>
-2.554727512619611

> <ALOGPS_LOGS>
-0.27

> <JCHEM_MDDR_LIKE_RULE>
0

> <JCHEM_NEUTRAL_CHARGE>
0

> <JCHEM_NUMBER_OF_RINGS>
0

> <JCHEM_PHYSIOLOGICAL_CHARGE>
0

> <JCHEM_PKA_STRONGEST_ACIDIC>
-0.9934413882302816

> <JCHEM_PKA_STRONGEST_BASIC>
10.190124695691999

> <JCHEM_POLAR_SURFACE_AREA>
80.39

> <JCHEM_REFRACTIVITY>
29.470500000000005

> <JCHEM_ROTATABLE_BOND_COUNT>
3

> <JCHEM_RULE_OF_FIVE>
1

> <ALOGPS_SOLUBILITY>
7.39e+01 g/l

> <JCHEM_TRADITIONAL_IUPAC>
biotin

> <JCHEM_VEBER_RULE>
0

> <DRUGBANK_ID>
DB06527

> <DRUG_GROUPS>
investigational

> <GENERIC_NAME>
Tramiprosate

> <SYNONYMS>
Tramiprosate

> <INTERNATIONAL_BRANDS>
Alzhemed

> <SALTS>
Tramiprosate sodium

$$$$
