 
  Mrv0541 06081315102D          
 
 39 43  0  0  0  0            999 V2000
   18.6037  -16.6649    0.0000 N   0  0  0  0  0  0  0  0  0  0  0  0
   18.6037  -17.4899    0.0000 C   0  0  0  0  0  0  0  0  0  0  0  0
   19.3049  -17.9024    0.0000 C   0  0  0  0  0  0  0  0  0  0  0  0
   20.0474  -17.4899    0.0000 N   0  0  0  0  0  0  0  0  0  0  0  0
   20.0474  -16.6649    0.0000 C   0  0  0  0  0  0  0  0  0  0  0  0
   19.3049  -16.2524    0.0000 C   0  0  0  0  0  0  0  0  0  0  0  0
   20.7487  -17.9024    0.0000 C   0  0  0  0  0  0  0  0  0  0  0  0
   17.8875  -16.2553    0.0000 C   0  0  0  0  0  0  0  0  0  0  0  0
   17.1872  -16.6636    0.0000 C   0  0  0  0  0  0  0  0  0  0  0  0
   16.4822  -16.2604    0.0000 C   0  0  0  0  0  0  0  0  0  0  0  0
   15.7694  -16.6758    0.0000 C   0  0  0  0  0  0  0  0  0  0  0  0
   15.7728  -17.5008    0.0000 C   0  0  0  0  0  0  0  0  0  0  0  0
   16.4777  -17.9040    0.0000 C   0  0  0  0  0  0  0  0  0  0  0  0
   17.1905  -17.4886    0.0000 C   0  0  0  0  0  0  0  0  0  0  0  0
   16.5199  -15.4277    0.0000 C   0  0  0  0  0  0  0  0  0  0  0  0
   16.5199  -14.6027    0.0000 F   0  0  0  0  0  0  0  0  0  0  0  0
   15.6949  -15.4277    0.0000 F   0  0  0  0  0  0  0  0  0  0  0  0
   17.3449  -15.4277    0.0000 F   0  0  0  0  0  0  0  0  0  0  0  0
   15.0535  -17.9201    0.0000 N   0  0  0  0  0  0  0  0  0  0  0  0
   14.3318  -17.5077    0.0000 C   0  0  0  0  0  0  0  0  0  0  0  0
   13.6137  -17.9266    0.0000 C   0  0  0  0  0  0  0  0  0  0  0  0
   14.3284  -16.6650    0.0000 O   0  0  0  0  0  0  0  0  0  0  0  0
   12.9038  -17.5213    0.0000 C   0  0  0  0  0  0  0  0  0  0  0  0
   12.1913  -17.9372    0.0000 C   0  0  0  0  0  0  0  0  0  0  0  0
   12.1953  -18.7622    0.0000 C   0  0  0  0  0  0  0  0  0  0  0  0
   12.9052  -19.1676    0.0000 C   0  0  0  0  0  0  0  0  0  0  0  0
   13.6177  -18.7516    0.0000 C   0  0  0  0  0  0  0  0  0  0  0  0
   11.4911  -19.1735    0.0000 C   0  0  0  0  0  0  0  0  0  0  0  0
   11.4918  -17.5377    0.0000 C   0  0  0  0  0  0  0  0  0  0  0  0
   10.7773  -17.1252    0.0000 C   0  0  0  0  0  0  0  0  0  0  0  0
   10.0628  -16.7127    0.0000 C   0  0  0  0  0  0  0  0  0  0  0  0
   10.0501  -15.8813    0.0000 C   0  0  0  0  0  0  0  0  0  0  0  0
    9.2559  -15.6360    0.0000 N   0  0  0  0  0  0  0  0  0  0  0  0
    8.7771  -16.3156    0.0000 C   0  0  0  0  0  0  0  0  0  0  0  0
    9.2756  -16.9809    0.0000 N   0  0  0  0  0  0  0  0  0  0  0  0
    7.9580  -16.4138    0.0000 C   0  0  0  0  0  0  0  0  0  0  0  0
    7.6335  -17.1724    0.0000 C   0  0  0  0  0  0  0  0  0  0  0  0
    8.1319  -17.8376    0.0000 C   0  0  0  0  0  0  0  0  0  0  0  0
    8.9510  -17.7394    0.0000 N   0  0  0  0  0  0  0  0  0  0  0  0
  1  2  1  0  0  0  0
  2  3  1  0  0  0  0
  3  4  1  0  0  0  0
  4  5  1  0  0  0  0
  5  6  1  0  0  0  0
  1  6  1  0  0  0  0
  4  7  1  0  0  0  0
  1  8  1  0  0  0  0
  8  9  1  0  0  0  0
  9 10  1  0  0  0  0
 10 11  2  0  0  0  0
 11 12  1  0  0  0  0
 12 13  2  0  0  0  0
 13 14  1  0  0  0  0
  9 14  2  0  0  0  0
 10 15  1  0  0  0  0
 15 16  1  0  0  0  0
 15 17  1  0  0  0  0
 15 18  1  0  0  0  0
 12 19  1  0  0  0  0
 19 20  1  0  0  0  0
 20 21  1  0  0  0  0
 20 22  2  0  0  0  0
 21 23  2  0  0  0  0
 23 24  1  0  0  0  0
 24 25  2  0  0  0  0
 25 26  1  0  0  0  0
 26 27  2  0  0  0  0
 21 27  1  0  0  0  0
 25 28  1  0  0  0  0
 24 29  1  0  0  0  0
 29 30  3  0  0  0  0
 30 31  1  0  0  0  0
 31 32  2  0  0  0  0
 32 33  1  0  0  0  0
 33 34  2  0  0  0  0
 34 35  1  0  0  0  0
 31 35  1  0  0  0  0
 34 36  1  0  0  0  0
 36 37  2  0  0  0  0
 37 38  1  0  0  0  0
 38 39  2  0  0  0  0
 35 39  1  0  0  0  0
M  END
> <DATABASE_ID>
DB08901

> <DATABASE_NAME>
drugbank

> <SMILES>
CN1CCN(CC2=CC=C(NC(=O)C3=CC(C#CC4=CN=C5C=CC=NN45)=C(C)C=C3)C=C2C(F)(F)F)CC1

> <INCHI_IDENTIFIER>
InChI=1S/C29H27F3N6O/c1-20-5-6-22(16-21(20)8-10-25-18-33-27-4-3-11-34-38(25)27)28(39)35-24-9-7-23(26(17-24)29(30,31)32)19-37-14-12-36(2)13-15-37/h3-7,9,11,16-18H,12-15,19H2,1-2H3,(H,35,39)

> <INCHI_KEY>
PHXJVRSECIGDHY-UHFFFAOYSA-N

> <FORMULA>
C29H27F3N6O

> <MOLECULAR_WEIGHT>
532.5595

> <EXACT_MASS>
532.219844131

> <JCHEM_ACCEPTOR_COUNT>
5

> <JCHEM_ATOM_COUNT>
66

> <JCHEM_AVERAGE_NEUTRAL_MICROSPECIES_CHARGE>
0.8000231975965173

> <JCHEM_AVERAGE_POLARIZABILITY>
55.38885034438991

> <JCHEM_BIOAVAILABILITY>
1

> <JCHEM_DONOR_COUNT>
1

> <JCHEM_FORMAL_CHARGE>
0

> <JCHEM_GHOSE_FILTER>
0

> <JCHEM_IUPAC>
3-(2-{imidazo[1,2-b]pyridazin-3-yl}ethynyl)-4-methyl-N-{4-[(4-methylpiperazin-1-yl)methyl]-3-(trifluoromethyl)phenyl}benzamide

> <ALOGPS_LOGP>
3.94

> <JCHEM_LOGP>
4.965714124000001

> <ALOGPS_LOGS>
-5.26

> <JCHEM_MDDR_LIKE_RULE>
1

> <JCHEM_NEUTRAL_CHARGE>
1

> <JCHEM_NUMBER_OF_RINGS>
5

> <JCHEM_PHYSIOLOGICAL_CHARGE>
1

> <JCHEM_PKA_STRONGEST_ACIDIC>
15.371655343004843

> <JCHEM_PKA_STRONGEST_BASIC>
7.624674854002727

> <JCHEM_POLAR_SURFACE_AREA>
65.77

> <JCHEM_REFRACTIVITY>
152.62889999999996

> <JCHEM_ROTATABLE_BOND_COUNT>
7

> <JCHEM_RULE_OF_FIVE>
0

> <ALOGPS_SOLUBILITY>
2.95e-03 g/l

> <JCHEM_TRADITIONAL_IUPAC>
biotin

> <JCHEM_VEBER_RULE>
0

> <DRUGBANK_ID>
DB08901

> <SECONDARY_ACCESSION_NUMBERS>
DB06300

> <DRUG_GROUPS>
approved; investigational

> <GENERIC_NAME>
Ponatinib

> <SYNONYMS>
Ponatinib; Ponatinibum

> <PRODUCTS>
Iclusig

> <SALTS>
Ponatinib hydrochloride

$$$$
