
  Mrv0541 02231217012D          

  8  7  0  0  1  0            999 V2000
    0.1105   -2.0625    0.0000 C   0  0  0  0  0  0  0  0  0  0  0  0
    0.1105   -1.2375    0.0000 C   0  0  2  0  0  0  0  0  0  0  0  0
   -0.6039   -0.8250    0.0000 O   0  0  0  0  0  0  0  0  0  0  0  0
    0.8250   -0.8250    0.0000 C   0  0  0  0  0  0  0  0  0  0  0  0
    0.8250    0.0000    0.0000 C   0  0  0  0  0  0  0  0  0  0  0  0
    0.8250    0.8250    0.0000 C   0  0  0  0  0  0  0  0  0  0  0  0
    1.6500    0.0000    0.0000 C   0  0  0  0  0  0  0  0  0  0  0  0
    0.0000    0.0000    0.0000 O   0  0  0  0  0  0  0  0  0  0  0  0
  1  2  1  0  0  0  0
  2  3  1  6  0  0  0
  2  4  1  0  0  0  0
  4  5  1  0  0  0  0
  5  6  1  0  0  0  0
  5  7  1  0  0  0  0
  5  8  1  0  0  0  0
M  END
> <DATABASE_ID>
DB03564

> <DATABASE_NAME>
drugbank

> <SMILES>
C[C@H](O)CC(C)(C)O

> <INCHI_IDENTIFIER>
InChI=1S/C6H14O2/c1-5(7)4-6(2,3)8/h5,7-8H,4H2,1-3H3/t5-/m0/s1

> <INCHI_KEY>
SVTBMSDMJJWYQN-YFKPBYRVSA-N

> <FORMULA>
C6H14O2

> <MOLECULAR_WEIGHT>
118.1742

> <EXACT_MASS>
118.099379692

> <JCHEM_ACCEPTOR_COUNT>
2

> <JCHEM_ATOM_COUNT>
22

> <JCHEM_AVERAGE_NEUTRAL_MICROSPECIES_CHARGE>
-8.305042166874317e-09

> <JCHEM_AVERAGE_POLARIZABILITY>
13.542692927707826

> <JCHEM_BIOAVAILABILITY>
1

> <JCHEM_DONOR_COUNT>
2

> <JCHEM_FORMAL_CHARGE>
0

> <JCHEM_GHOSE_FILTER>
0

> <JCHEM_IUPAC>
(4S)-2-methylpentane-2,4-diol

> <ALOGPS_LOGP>
0.34

> <JCHEM_LOGP>
-0.03499262399999985

> <ALOGPS_LOGS>
0.14

> <JCHEM_MDDR_LIKE_RULE>
0

> <JCHEM_NEUTRAL_CHARGE>
0

> <JCHEM_NUMBER_OF_RINGS>
0

> <JCHEM_PHYSIOLOGICAL_CHARGE>
0

> <JCHEM_PKA>
15.863892389843326

> <JCHEM_PKA_STRONGEST_ACIDIC>
15.122618562424375

> <JCHEM_PKA_STRONGEST_BASIC>
-2.5485532283457237

> <JCHEM_POLAR_SURFACE_AREA>
40.46

> <JCHEM_REFRACTIVITY>
32.894800000000004

> <JCHEM_ROTATABLE_BOND_COUNT>
2

> <JCHEM_RULE_OF_FIVE>
1

> <ALOGPS_SOLUBILITY>
1.62e+02 g/l

> <JCHEM_TRADITIONAL_IUPAC>
pyruvic acid

> <JCHEM_VEBER_RULE>
0

> <DRUGBANK_ID>
DB03564

> <SECONDARY_ACCESSION_NUMBERS>
EXPT02231

> <DRUG_GROUPS>
experimental

> <GENERIC_NAME>
(4r)-2-Methylpentane-2,4-Diol

$$$$
