
  Mrv0541 02231216072D          

  4  3  0  0  0  0            999 V2000
    1.2375    0.7145    0.0000 C   0  0  0  0  0  0  0  0  0  0  0  0
    0.8250    0.0000    0.0000 C   0  0  0  0  0  0  0  0  0  0  0  0
    1.2375   -0.7145    0.0000 C   0  0  0  0  0  0  0  0  0  0  0  0
    0.0000    0.0000    0.0000 O   0  0  0  0  0  0  0  0  0  0  0  0
  1  2  1  0  0  0  0
  2  3  1  0  0  0  0
  2  4  1  0  0  0  0
M  END
> <DATABASE_ID>
DB02325

> <DATABASE_NAME>
drugbank

> <SMILES>
CC(C)O

> <INCHI_IDENTIFIER>
InChI=1S/C3H8O/c1-3(2)4/h3-4H,1-2H3

> <INCHI_KEY>
KFZMGEQAYNKOFK-UHFFFAOYSA-N

> <FORMULA>
C3H8O

> <MOLECULAR_WEIGHT>
60.095

> <EXACT_MASS>
60.057514878

> <JCHEM_ACCEPTOR_COUNT>
1

> <JCHEM_ATOM_COUNT>
12

> <JCHEM_AVERAGE_NEUTRAL_MICROSPECIES_CHARGE>
1.4972418398865822e-09

> <JCHEM_AVERAGE_POLARIZABILITY>
7.1373816572351085

> <JCHEM_BIOAVAILABILITY>
1

> <JCHEM_DONOR_COUNT>
1

> <JCHEM_FORMAL_CHARGE>
0

> <JCHEM_GHOSE_FILTER>
0

> <JCHEM_IUPAC>
propan-2-ol

> <ALOGPS_LOGP>
0.04

> <JCHEM_LOGP>
0.2548059106666668

> <ALOGPS_LOGS>
0.80

> <JCHEM_MDDR_LIKE_RULE>
0

> <JCHEM_NEUTRAL_CHARGE>
0

> <JCHEM_NUMBER_OF_RINGS>
0

> <JCHEM_PHYSIOLOGICAL_CHARGE>
0

> <JCHEM_PKA_STRONGEST_ACIDIC>
17.262586277858762

> <JCHEM_PKA_STRONGEST_BASIC>
-1.8091447620645764

> <JCHEM_POLAR_SURFACE_AREA>
20.23

> <JCHEM_REFRACTIVITY>
17.4287

> <JCHEM_ROTATABLE_BOND_COUNT>
0

> <JCHEM_RULE_OF_FIVE>
1

> <ALOGPS_SOLUBILITY>
3.78e+02 g/l

> <JCHEM_TRADITIONAL_IUPAC>
tetrahydrofolic acid

> <JCHEM_VEBER_RULE>
1

> <DRUGBANK_ID>
DB02325

> <SECONDARY_ACCESSION_NUMBERS>
EXPT01912; DB04402

> <DRUG_GROUPS>
approved; investigational

> <GENERIC_NAME>
Isopropyl alcohol

> <SYNONYMS>
2-Propanol; Alcohol isopropÃ­lico; Isopropanol; Isopropyl alcohol

> <PRODUCTS>
1 Hotel Hand Sanitizer; 1000 Wet Wipes; 108 Hand Sanitizer; 16oz Isopropyl Alcohol; 2 in 1 Hand Sanitizer/Disinfectant; 200 Wet Wipes; 25 Person ANSI; 32oz Isopropyl Alcohol; 3M DuraPrep Surgical; 3M SoluPrep; 3d Antiseptic Hand Sanitizer; 3m Soluprep Sponge; 400 Wet Wipes; 4047 Fist Aid Kit; 4048 Fist Aid Kit; 4051 First Aid Kit; 4052 First Aid Kit; 4072First Aid Kit; 4078 First Aid Kit; 4079 First Aid Kit; 4125 First Aid Kit; 4129 First Aid Kit; 4133 First Aid Kit; 4137 First Aid Kit; 4138 First Aid Kit; 4141 First Aid Kit; 4146 First Aid Kit; 4149 First Aid Kit; 4150 First Aid Kit; 4166 First Aid Kit; 4169 First Aid Kit; 4183 First Aid Kit; 4187 First Aid Kit; 4189 First Aid Kit; 4190 First Aid Kit; 4193 First Aid Kit; 4194 First Aid Kit; 4196 First Aid Kit; 4203 First Aid Kit; 4204 First Aid Kit; 4205 First Aid Kit; 4206 First Aid Kit; 4207 First Aid Kit; 4210 First Aid Kit; 4213 First Aid Kit; 4220 First Aid Kit; 4221 First Aid Kit; 4225 First Aid Kit; 4226 First Aid Kit; 4227 First Aid Kit; 4228 First Aid Kit; 4229 First Aid Kit; 4232 First Aid Kit; 4235 First Aid Kit; 4237 First Aid Kit; 4238 First Aid Kit; 4239 First Aid Kit; 4240 First Aid Kit; 4241 First Aid Kit; 4242 First Aid Kit; 4244 First Aid Kit; 4246 First Aid Kit; 4248 First Aid Kit; 4250 First Aid Kit; 4251 First Aid Kit; 4256 First Aid Kit; 4257 First Aid Kit; 4258 First Aid Kit; 4259 First Aid Kit; 4260 First Aid Kit; 4264 First Aid Kit; 4265 First Aid Kit; 4266 First Aid Kit; 4267 First Aid Kit; 4271 First Aid Kit; 4277 First Aid Kit; 4287 First Aid Kit; 4289 First Aid Kit; 4290 First Aid Kit; 4291 First Aid Kit; 4292 First Aid Kit; 4293 First Aid Kit; 4301 First Aid Kit; 4305 First Aid Kit; 4310 First Aid Kit; 4311 First Aid Kit; 4312 First Aid Kit; 4316 First Aid Kit; 4317 First Aid Kit; 4324 First Aid Kit; 4325 First Aid Kit; 4329 First Aid Kit; 4331 First Aid Kit; 4332 First Aid Kit; 4333 First Aid Kit; 4334 First Aid Kit; 4335 First Aid Kit; 4338 First Aid Kit; 4339 First Aid Kit; 4340 First Aid Kit; 4342 First Aid Kit; 4354 First Aid Kit; 4355 First Aid Kit; 4356 First Aid Kit; 4357 First Aid Kit; 4360 First Aid Kit; 4362 First Aid Kit; 4363 First Aid Kit; 4365 First Aid Kit; 4366 First Aid Kit; 4368 First Aid Kit; 4369 First Aid Kit; 4376 First Aid Kit; 4379 First Aid Kit; 4381 First Aid Kit; 4382 First Aid Kit; 4383 First Aid Kit; 4384 First Aid Kit; 4385 First Aid Kit; 4386 First Aid Kit; 4387 First Aid Kit; 4388 First Aid Kit; 4390 First Aid Kit; 4391 First Aid Kit; 4392 First Aid Kit; 4393 First Aid Kit; 4395 First Aid Kit; 4398 First Aid Kit; 4399 First Aid Kit; 4400 First Aid Kit; 50 Person ANSI; 50 percent Isopropyl alcohol; 50% Isopropyl Alcohol; 50% Isopropyl Rubbing Alcohol; 50% Isopropyl Rubbing Alcohol with Wintergreen; 50% Rubbing; 70 Isopropyl Alcohol First Aid Antiseptic; 70%; 70% Alcohol Wet Wipes; 70% Isopropanol wipes; 70% Isoproplyl Alcohol; 70% Isopropyl Alcohol; 70% Isopropyl Alcohol First Aid Antiseptic; 70% Isopropyl Alcohol PE 1L; 70% Isopropyl Alcohol Prep Pad; 70% Isopropyl Alcohol Well at Walgreens; 70% Isopropyl Alcohol With Wintergreen; 70% Isopropyl Rubbing Alcohol; 70% Isopropyl Rubbing Alcohol Wipes; 70% Isopropyl Rubbing Alcohol with Wintergreen; 70% Rubbing; 70%alcohol Wet Wipes; 71% ISOPROPYL Rubbing Alcohol; 74% Isopropyl Alcohol Hand Sanitizer Solution; 75% Alcohol Disposable Disinfectant Gel; 75% Alcohol Wipes; 75% Ethanol Disinfectant; 75% Ethanol Wash Free Hand Sanitizer Gel; 75% Isopropyl Alcohol Hygiene Wipe; 91 Percent Isopropyl alcohol; 91 Percent Pure Isopropyl Alcohol; 91%; 91% Isopropyl Alcohol; 91% Isopropyl Rubbing Alcohol; 99 PERCENT ISOPROPYL RUBBING ALCOHOL with Wintergreen Oil; 99% Isopropyl Alcohol; 99% Isopropyl Rubbing Alcohol; 99.9% Isopropyl Alcohol; A 50% ISOPROPYL Rubbing Alcohol; A2A Hand Sanitizer; ACAT SUK Kit (Accelerated COVID-19 Antibody Test Single Use Kit); ACME FIRST AID Contains 404 PIECES; ACST Kit (Antibody COVID-19 Screening Test Kit); ACT Kit (Accelerated COVID-19 Test Kit); ADCLEAN - Medical; ADCLEAN Medical Gel; AFCO 5515 Hand Sanitizer; AIM-X antibacterial hand cleansing gel; ALCOHOL PREP PAD- Isopropyl Alcohol Swab; AMSure Alcohol Prep; AQUA ZAP Alcohol based Hand sanitizer; ARC 42 Essential First Aid Items; ARC Emergency Preparedness FIRST AID Contains 202 PIECES; ARC FIRST AID Contains 1000 PIECES; ARC FIRST AID Contains 101 PIECES; ARC FIRST AID Contains 101 PIECES Hardcase; ARC FIRST AID Contains 303 PIECES; ARC FIRST AID Contains 303 PIECES HARDCASE; ARC FIRST AID Contains 404 PIECES; ARC FIRST AID Emergency Preparedness Contains 167 PIECES; ASI Chemicals Hand Sanitizer; AZ Clean and Soft Professional Leave-on Hand Sanitizer; Abbey Sullivan Hand Sanitizer; Abutol Isopropyl Rubbing Alcohol; Acetone Alcohol Prep Pads Medium; Acetone Alcohol Swabsticks Singles; Acetone Isopropyl Alcohol; Acme Home/Office/Auto Kit; Acnomel Skin Tone Cream; Acqua Di Gabrial; Action Hand Sanitizer; Acunistat-30; Acunistat-60; Acunivive 90; Adams Polishes Hand Sanitizer; Adhesive Remover Wipes; Advanced Hand Sanitizer; Advanced Protection Hand Sanitizing; Adventure First Aid .5 Tin; Adventure First Aid Water Resistant; Adventure Hand Sanitizer - Fragrance 60%; Adventure Hand Sanitizer - Unscented 60%; Adyphren Amp II Kit; Adyphren Amp Kit; Adyphren II Kit; Adyphren Kit; Aerowipe; Agropharma Isopropyl Alcohol; Aid and First Sting Relief Prep Pad; Alaska Beauty Elements Fresh Hand Sanitizer; Alchemy-Spetec Hand Sanitizer; Alcogel; Alcohol; Alcohol Cleansing; Alcohol Cleansing Pad; Alcohol Cotton Ball; Alcohol Extra-Thick; Alcohol Global Care (Isopropyl); Alcohol Hand Problend; Alcohol Hand Sanitizer Problend; Alcohol Isopropilico; Alcohol Isopropyl; Alcohol Pad; Alcohol Pads; Alcohol Prep; Alcohol Prep F400 70% Liq; Alcohol Prep Pad; Alcohol Prep Pad - Large; Alcohol Prep Pad - Medium; Alcohol Prep Pad 70 Isopropyl Alcohol; Alcohol Prep Pad Large Pad; Alcohol Prep Pad Medium; Alcohol Prep Pad Medium Bulk; Alcohol Prep Pad Medium Pad; Alcohol Prep Pad Non-Sterile; Alcohol Prep Pad Single Use; Alcohol Prep Pad Sterile; Alcohol Prep Pad with Benzocaine; Alcohol Prep Pad-Large; Alcohol Prep Pads; Alcohol Prep Pads - Non Sterile; Alcohol Prep Pads - Sterile; Alcohol Prep Pads Bulk; Alcohol Prep Pads Large Sterile; Alcohol Prep Pads Lightweight Non-Sterile; Alcohol Prep Pads Medium; Alcohol Prep Pads Medium Sterile; Alcohol Prep Pads Non Sterile Medium; Alcohol Prep Pads with Pain Relief; Alcohol Prep Swab with Pain Relief; Alcohol Prep pad; Alcohol Preps Sterile; Alcohol Rub; Alcohol Swab; Alcohol Swab Sticks; Alcohol Swab with Benzocaine; Alcohol Swabs with Benzocaine; Alcohol Swabstick; Alcohol Swabstick - Antiseptic; Alcohol Swabsticks Singles; Alcohol Wipe; Alcohol Wipes; Alcohol prep Pad; Alcohol prep pad; Alcohol sterile; Alcohol swab; Alcojel; Alcojel Gel 70%; Alcool Isopropylique A Friction; Alcool Isopropylique A Friction Rouge 70%usp; Alfa Hand Sanitizer; Alko Isol; Allout Nano; Allure Isopropyl Rubbing Alcohol; Allure Isopropyl Rubbing Alcohol With Wintergreen; Allwipes; Aloe Vera Hand Sanitizer; Alpet E-3; Alpet E3 Hand Sanitizer; Alpet E3 Hand Sanitizer Spray; AlphaProMed AlphaCol Sterile Isopropyl Alcohol Preparation Pad; American Hand sanitizer liquid; American Red Cross 50 Isopropyl Rubbing Alcohol; American Red Cross 50% Isopropyl Rubbing Alcohol; American Red Cross First Aid Kit; American Redcross 70% Isopropyl Rubbing Alcohol; American Redcross 70% Isopropyl Rubbing Alcohol With Wintergreen; American Redcross 91% Isopropyl Rubbing Alcohol With Wintergreen; American Safety First Aid Antispetic; Americas Choice Hand Sanitizer; Amg-50; Amoray 70% Isopropyl Rubbing Alcohol; Amoray 70% Isopropyl Rubbing Alcohol With Wintergreen; Amoray 99% Isopropyl Rubbing Alcohol; Amoray 99% Isopropyl Rubbing Alcohol With Wintergreen; Amoray Multipurpose Sanitizer; Anaitzer S 70% Isopropyl; Anatizer S 75% Isopropyl; And Bobs Your Uncle Hand Sanitizer; Anesthesia S/I-40; Anesthesia S/I-50; Anesthesia S/I-60; Anti Germ; Anti-bacterial Alcohol-based Hand and Skin Disinfectant; Antibac on the go; Antibac-7000; Antibacterial Hand Sanitizer; Antibacterial Wipes; Antiseptic; Antiseptic Alcohol Wipes; Antiseptic Hand Rub; Antiseptic Hand Rub Non-sterile; Antiseptic Hand Sanitizer; Antiseptic Hand Sanitizer Cdc; Antiseptic Sanitizing Wipes; Antiseptic Swab; Antiseptic Wipes; AnubisMed; Aplicare; Aplicare ExCel AP; Aplicare Isopropyl Alcohol; Appalachian Botanical; Aqua EZ Hand Sanitizer; Aqua Gel advanced formula; Aqua-ear Dps; Aramark Isopropyl; Aris Hand Sanitizer; Armor Hand Sanitizer; Artisan Hand Sanitizer; AspiCare; Assured; Assured Alcohol Cleansing Pad; Assured Shield Hand Sanitizer; Athletic Liniment; Auro Dri; Aurora Fresh; Aurora Fresh Gel; Aurora Fresh Gel 70; Aurora Fresh Gel 71; Avonex; B-12 Compliance; B-12 Kit; B-Protek; B-good Hand and Skin Disinfecting Agent; BAC Hand Sanitizer; BASF Cares Antiseptic Hand Rub; BASF Cares Hand Sanitizer; BENEMAX ADVANCED Hand Sanitizer; BG Hand Sanitizer; BGEcare ALCOHOL PREP PAD Isopropyl Alcohol Swab; BLUE ACME SLEEVE FIRST AID Contains 1000 PIECES; BOUNTY PEAU Hand Sanitizer; Baby Panda Hand Sanitizer; Baccarat Hotel Signature Scented Hand Sanitizer; Bactekill Hand Sanitizer; Bacteria-inhibiting No-Washing Hand Condensation; Bactericidal Disinfectant; Bain DEte Gallon Hand Sanitizer; Bakewell Chemical Alcohol Gel Hand Sanitizer; Bakewell Chemical Alcohol Hand Santizer; Bakewell Chemical Foaming Alcohol Hand Santizer; Bamboo sanitizing wipes; Baxedin 2% - 70%; Bay Rum Constanza; Be Well 2 ounce Hand Sanitizer 02; Beapco Hand Sanitizer; Bee Well Hand Sanitizer; Bella Vita Advanced Hand Sanitizer; Bella Vita Hand Sanitizer; BeneFIX; Benemax; Benzocaine; Benzocaine,isopropyl Alcohol; Berkley Jensen Antiseptic; Betalido Kit; Bewell Hand Sanitizer; Bh Supplies; Bhawins Isopropyl Alcohol Antiseptic 75 percent Hand sanitizer; BiOxygen Antiseptic Hand Sanitizer; BiiNi Hand Sanitizer; BioLuxe Instant Hand Sanitizer; BioPure; Biomax USA; Bioprep Liq; Biopropyl Liq 70%; Bioprotect Hand Sanitizer Isopropyl Alcohol Antiseptic 75 percent; Biotipo Pharma Medical BioClear 70% Isopropyl Alcohol; Bl; Blood Culture Prep Kit; Blue GallonHand Sanitizer; Blue Gel Hand Sanitizer; Blue Hand Sanitizer; Blutizer; BodyMed Alcohol Prep Pad; Braco Manufacturing Antiseptic Hand Wipes; Bt; Buckler Signature Hand Sanitizer; Bus and Classroom Yellow; C-tizers 99.9; C2020 Ipa Hand Senitizer; CAAT Kit (COVID-19 Antibody Accelerated Test Kit); CAS Kit (COVID-19 Antibody Screening Kit); CCS Hand Sanitizer; CDC 70i; CDC 75i; CHT Disinfect - Isopropyl Alcohol 75%; CIC Antibacterial Unscented Hand Sanitizer Gel; COVID SPANKER Hand Sanitizer; CREAMOL HAND SANITIZING WIPES 150 pcs; CREAMOL HAND SANITIZING WIPES 80 pcs; CT-Mirco Guard; CURAD Isopropyl Alcohol; CVS Alcohol Prep; CVS Alcohol Swabsticks; CVS All Purpose First Aid Kit; CVS Ear Drops for Swimmers; CVS Health Alcohol Swabsticks; CVS Health All Purpose Kit; CVS Health Healing on the Go Kit; CVS Health Home Kit; CVS Health Isopropyl Rubbing Alcohol; CVS Health Medication and Topical Refill Pouch; CVS Health Sports Kit; CVS Healthy Isopropyl Rubbing Alcohol Pads 70; CVS Pharmacy; CVS Pharmacy Toothache reliever; Cactus JuiceHand Sanitizer; Cal Stat; Cal Stat Plus Antiseptic Handrub with Enhanced Emollients; Cal-shine Antiseptic Hand Sanitizer; Camphor; Campo pharma 70 isopropyl alcohol; Canister Isopropyl Alcohol Wipes; CardinalHealth alcohol prep pads LARGE; CardinalHealth alcohol prep pads MEDIUM; Care Bus and Classroom Yellow; Care Hand; Care One 70 Isopropyl Alcohol Wipes; Care1 Isopropyl Rubbing Alcohol 72%; CareFine Alcohol Swabs 100 ct; CareFine Alcohol Swabs 200 Ct; CarePure 01; CareTouch 70% ISOPROPYL ALCOHOL WIPES; CareTouch Alcohol Prep Pad; Caribbean Mist Hand Sanitizer; Caring Alcohol Non-Sterile, Medium; Carry On Hand Sanitizer; Cavalry; Cba All-clean; Cee-Bee Hand Sanitizer; Celestolite Sanitizing Wipe; Certus Alcohol Prep; ChemBrite; ChemSanitize 700; Chg; Chlora-cleanze; ChloraPrep One-Step; Chloraprep; Chloraprep Liq 0.5%; Chloraprep Swabsticks; Chlorhexidine 0.5% Liq; Chlorhexidine Gluconate Applicator; Chlorhexidine and Isopropyl Alcohol Prep Pads; Chlorhexidine and Isopropyl Alcohol Swabsticks; ChromaSafe Hand Sanitizer; ChromaSafe Plus Hand Sanitizer; Cida-stat Foam; Cida-stat Liq; Clarity Hand Sanitizer; Clea Fantasy Alcohol Wipes; Clean; Clean 19; Clean Antiseptic Wipes Non sterile Solution Hand Sanitizer; Clean Buddies; Clean Hands 24/7; Clean Skin club Hydrating Hand Sanitizer with Aloe Vera and Hyaluronic Acid; Clean Towel 70 Isopropyl Alcohol Sanitizing Cotton; Clean Zone; Clean Zone Hand Sanitizer; Clean-O-Clean Wipes; CleanShot Gel Hand Sanitizer; CleanShot Sanitizing Alcohol Wipes; Cleand Sanitizer; Cleanse; Cleanzguard Hand Sanitizer; Cleanzguard Sanitize; Clear Lakes Products Hand Sanitizer; CleenScent Hand Sanitizer Gel; CleenScent Hand Sanitizer Non-Sterile Solution; Clenova Hand Sanitizer 75% ISA; Clenova Hand Sanitizer, 70% Isopropyl Alcohol; Clenova Sanitizer Wipes; Clenz Hand Sanitizer; Clinol SANITIZING HAND WIPES 75% ALCOHOL; Clinol Sanitizing Hand Wipes 75% Alcohol; CoSE Clean; Coachs First Aid Contains 102 Pieces; Cobra Clean Hands; Code Brown; Coghlans Survival In A Can; Colourpop Hand Sanitizer; Comfort; Compound Alcohol Hand Disinfection Gel; Cool and Cool; Copperworks Hand Sanitizer; Coralite ALCOHOL PADS; Cornells; CoroClean Hand Sanitizer; CorocClean Hand Sanitizer; Cortaren Corticosteroid/Anti-Inflammatory System; Corvexxe Antiseptic Wet Wipes; Cosco Hand Sanitizer 75%; Cosmo Instant Hand Sanitizer; Coviside Hand Sanitizer; Crane Safety Alcohol Wipes; Crane Safety Isopropyl Alcohol; Creamol Alcohol Wipes; Crew Care Anti Bacterial Hand Sanitizer IPA; Crime Scene Wipe (TM) Isopropyl Alcohol 75% Hand Sanitizing Wipeand Sanitizer; Crossco; Curad; Curad Alcohol Non-Sterile, Extra Thick; Curad Alcohol Non-Sterile, Large; Curad Alcohol Non-Sterile, Medium; Curad Alcohol Prep Pads Medium; Curad Alcohol Sterile, Large; Curad Alcohol Sterile, Thick; Curaplex Alcohol Prep Pad; Cut Care Alcohol Prep Pad; Cut Care Insect Bite Antiseptic and Pain Relieving Wipe; D-Care 100X; DAYMARK FAK-35 First Aid; DDM Ear Drops for Swimmers; DEFENSE Hand Sanitizer; DETROX - DETRODERM Gel HAND AND SKIN ANTISEPTIC; DOP Isopropyl Rubbing Alcohol 70%; DOUGLAS - HAND SANITIZER 75 percent; DUKAL Alcohol Prep Pad; DailyGard Wipes 75 Percent Isopropyl Alcohol; Damochem Antiseptic Hand Gel; Debrox Swimmers Ear; Decon-I Antiseptic Hand Sanitizer; Defense AG Disinfectant; Defense AG Hand Sanitizer; Dena-Vie First Aid Antiseptic; Derma Hands; Derma Sciences; DermoViva First Aid Antiseptic; Dermorapid: Colourless and Coloured; Detrox - Detroderm Hand and Skin Antiseptic; Dexidin 0.5 Solution; Dexlido Kit; Dexlido-M Kit; Diclo Gel 1% Pak; Dignity Health Hand Sanitizer Cal Stat Plus Antiseptic Handrub with Enhanced Emollients; Diodine; Dionis Hand Sanitizer; Dis-Mist; Disinfectant Wipes; Disinfectant hand sanitizer; Disinfecting Wipes; Disposable Hand Sanitizer; Divas; Divas Wintergreen; Doctors Optimal Formula Hand Sanitizer; Done 70 Isopropyl Alcohol; Done 70 isopropyl alcohol first aid Antiseptic; Done Hand Sanitizer Isopropyl Alcohol; Done Hand Sanitizer- Isopropyl Alcohol; Donor Prep Kit; DoubleDex Kit; Dr Lucid 70% IPA Sanitizer; Dr Lucid 91% IPA Sanitizer; Dr. Lift Isopropyl Alcohol; Dr. Odin ANTISEPTIC HAND SANITIZER; Dri-Ear Drops; Dukal Alcohol Prep Pad; Dukal Sterile Alcohol Prep Pad; Dukal Sterile Alcohol Swabstick; Dukal Sting Relief Pad; Dupont Relyon Antiseptic Hand Wipes; Dyural 40 Kit; Dyural 80 Kit; Dyural 80-LM; Dyural L Kit; Dyural LM Kit; ECHO FRESH HSG Hand Sanitizer; ECOLAB Isopropyl Alcohol; EMHS 1 Hand Sanitizer; ENT Essentials All Dry Ear Drying Drops; ENVIROSolutions Sanitizing Wipes; EPY II Kit; EPY Kit; EUZ-Clean; EUZ-Clean Hand Sanitizer; EVAXO 91% Isopropyl Alcohol; EZ Hand Sanitizer Isopropyl Alcohol; Ear Drops for Swimmers; Ear Dry Drops Well At Walgreens; Ear Dry Leader; Ear Drying; Ear Drying Agent; Easy Care First Aid Alcohol Prep Pad; Easy Care First Aid Antiseptic Wipe; Easy Care First Aid Skin Cleansing Alcohol Wipe; Easy Klean 70 Isopropyl Alcohol; Easy to break-off cleaning and disinfecting swabstick DFB-I; Easy to break-off cleaning and disinfecting swabstick YBC-I; Easy-Ceft 1g; EasyTouch Alcohol Prep Pads Nonsterile; EasyTouch Alcohol Prep Pads Sterile; Eco Chem isopropyl alcohol 70; Eco-Med Hand Sanitizer; EcoCare 350; EcoNano; Ecochoice hand sanitizer; Ecossential Antiseptic Hand Wipes; Edddies Hand Sanitizer Gel; Eddies Hand Sanitizer; El Bueno; ElaSkin Antiseptic Hand Sanitizer; Electronic Devices Disinfecting Wipes; Elegant Bakhoor Scented Hand Sanitizer; Elegant Maximum Fresh Hand Sanitizer; Energize Hand Sanitizer; EnviroClean Hand Sanitizer Gel; EnviroPure Antibacterial Hand Sanitizer Maximum Strength; Epic Scented Hand Sanitizer; Epinephrine Convenience Kit; Epinephrine Professional; Epinephrine Professional EMS; EpinephrineSnap-EMS; EpinephrineSnap-V; Equate Swimmers Instant Ear Dry; Essential Hand Sanitizer; Essentials by Savage Hand Sanitizer; Ethyl Rubbing Alcohol; Eucalyptus Hand Wipes; Evc Hand Sanitizer; Everclear Alcohol Hand Sanitizing and Surface Wipes; Evergreen LEMON SCENTED ANTIBACTERIAL CLEANING MULTI-PURPOSE WIPES; Exgerm Antiseptic Hand Sanitizer; FA Alcohol swab; FAK Care4 Bus and School Yellow ORM D; FAK Large Office First Aid kit; FIRST AID Contains 1000 PIECES; FIRST AID Contains 101 PIECES; FIRST AID Contains 101 PIECES HARDCASE; FIRST AID Contains 202 PIECES; FIRST AID Contains 303 PIECES; FIRST AID Contains 303 PIECES HARDCASE; FIRST AID Contains 404 PIECES; FLEX Liquid Hand Sanitizer; FLEX Rubbing Alcohol; FLYGIENE Alcohol Sanitizing Wipes; Falcon Hand Sanitizer; Falcon Hand Sanitizer IPA Based; Familie Hand Sanitizer; Family Wellness Sterile Alcohol; Fancy Clean antiseptic hand sanitizer; Feel Welcome Hand Sanitizer; Fercaish Instant Hand Sanitizer; Fiori Gallon Hand Sanitizer; Fiori Hand Sanitizer; Fiori Hand Sanitizer 16 oz; Fiori aloe16 oz Hand Sanitizer; First Aid Antiseptic; First Aid Antiseptic Alcohol Pads Isopropyl Alcohol 70 Rite Aid; First Aid Only Alcohol Antiseptic; First Aid Only Alcohol Antiseptic Pad; First Aid Only Alcohol Antiseptic Wipe; First Aid Only Isopropyl Alcohol; First Aid Only Sting Relief Pad; First Aid Pocket Pack - 40 Pieces; First Aid Value Pack - 77 Pieces; First street; Five Wits Green Olive Hand Sanitizer; Foam Care Chg Surgical Hand Scrub; ForPro Hand Sanitizer; Forto Isopropyl Alcohol 70%; Fossaoprin SPG2; Fossaoprin SPG4; Freeman Packing Hand Sanitizer 004; Frescosal Alcohol Wipes; Fresh Farms Deep Moisturizing Hand Sanitizer; Fresh Foam Disinfectant; Fresh Water Aromar Hand Sanitizer; Freshnails The Undernail Sanitizer; Friction Rub; Full Care Alcohol Prep Pad; Full Care Alcohol Swabsticks; GAUKE Alcohol Prep Pad; GAUKE Sting Relief Pad; GENUINE FIRST AID Emergency Preparedness Contains 167 PIECES HARDCASE; GENUINE FIRST AID Emergency Preparedness Contains 167 Pieces; GERMisept 70 Isopropyl Rubbing Alcohol Wipes; GETT Hand Sanitizer; GETT Hand Sanitizer Gel; GFA 42 Essential First Aid Items; GFA First Aid 75 Person Metal Case; GFA First Aid Kit Essentials - 33 Pieces; GHOSTMedica Hand Sanitizer; GNP Isopropyl Alcohol 50 Percent; GNP Isopropyl Alcohol 50 Percent With Wintergreen Oil; GNP Isopropyl Alcohol 70 Percent With Wintergreen Oil; GNP Isopropyl Alcohol 91 Percent; GNP Isopropyl Rubbing Alcohol 70 Percent; GOOD NEIGHBOR PHARMACY FIRST AID Contains 202 PIECES; GOOD NEIGHBOR PHARMACY Isopropyl Alcohol Wipes; GOODSENSE Alcohol; GTM Gel; Gabgerm Antisec hand sanitizer; Gabgerm Antiseptic Hand Sanitizer; Gala Hand Sanitizer; Garb2art Cosmetics Coconut Hand Sanitizer; Garb2art Cosmetics Fairy Dust Hand Sanitizer; Garb2art Cosmetics Glitter-rita Hand Sanitizer; Garb2art Cosmetics Hand Sanitizer; Garb2art Cosmetics Lavender Fizz Hand Sanitizer; Garb2art Cosmetics Peach Fizz Hand Sanitizer; Garb2art Cosmetics Pineapple Whip Hand Sanitizer; Garb2art Cosmetics Strawberry Fizz Hand Sanitizer; Garb2art Cosmetics Unicorn Fizz Hand Sanitizer; Gasco Isopropyl Alcohol; Gel Hand Sanitizer; Gel SANITIZER BY Kleerspex; Gentle Beast Antiseptic Wipes; Genuine First Aid - Auto First Aid; Genuine First Aid - Home First Aid; Genuine First Aid Alcohol Cleansing Pad; Germ Shark PX3 Thick Premium Disinfecting Alcohol Hand Wipes 70 Isopropyl Alcohol; Germ Shark Thick Premium Disinfecting Alcohol Hand Wipes 70 Isopropyl Alcohol; Germ Shark Thick Premium Disinfecting Alcohol Wipes 70 Isopropyl Alcohol; Germi-stat 0.5% Antiseptic Prep Gel; Germi-stat Prep Gel; Germicidal Disposable Wipe; Germs Out; Germstaroriginal; Gil Sani Quick; Gj Chemical Antiseptic Hand Sanitizer; Glidewell Hand Sanitizer; Global Care Alcohol Isopropyl Rubbing Alcohol; Global Care Hand Sanitizer Isopropyl Alcohol; Global Care Isopropyl Rubbing Alcohol; Global EASY PREP alcohol prep pads; Go PSP Isopropyl rubbing alcohol 91; Go PSP hand sanitizer; Gold Hand Sanitizer; Good Care Alcohol Pad; Good Care Isopropyl Alcohol; Good Neighbor Pharmacy Alcohol Antiseptic Skin Cleanser; Good Neighbor Pharmacy Emergency Preparedness and First Aid Contains 167 Pieces; GoodSense Alcohol Swabs; Green Guard Alcohol Wipes; Green Guard Isopropyl Alcohol 70%; Green Guard Sterile Alcohol Pads; Green Guard Sterile Alcohol Wipes; Grizzly Creek Naturals Hand Sanitizer; Grizzly Creek Naturals Sanitizer Huckleberry; Groundworks Hand Sanitizer; Guard Hand Sanitizer; GuardH Instant Sanitizer Wipes; GuardMed 70% Rubbing Alcohol; Guardex Hand Sanitizer Antiseptic Gel; Guardex Hand Sanitizer Antiseptic Solution; Guardex Hand Sanitizer Gel; Guardex Pharma Hand Sanitizer; Gurunanda Hand Sanitizer Grapefruit; Gurunanda Hand Sanitizer Lavender; Gurunanda Hand Sanitizer Lemon; Gurunanda Hand Sanitizer Spearmint; Gustar Clean wet tissue; Gyun e zero sterilization tissue; H-Paxin; HANDOUT protection hand sanitizer; HANSAN HAND SANITIZING Gel; HEB 70 Isopropyl Alcohol Wipes; HEB Water Drying Aid; HELIOS Hand Sanitizer; HG Hand Sanitizer; HS Hand Sanitizer Solution; HSUS Antiseptic Hand Sanitizer; HSUS Antiseptic Hand Sanitizer IPA; HUMCO 1 Percent Iodine; HUMCO Ear Drops for Swimmers; HUMCO Isopropyl Rubbing Alcohol 70%; HUMCO Isopropyl Rubbing Alcohol 70% Professional Pack; HYGEN Hand Sanitizer; Halsted Health Sterile Prep Pads; Han-I-size; Hand 2 Hand Sanitizer; Hand Gel Sanitizer; Hand Prep Antiseptic Hand Sanitizer; Hand Rub; Hand San 510; Hand Sanitiser; Hand Sanitizer; Hand Sanitizer - 70% Alcohol; Hand Sanitizer - 80% Alcohol; Hand Sanitizer - Asti; Hand Sanitizer - IPA; Hand Sanitizer - Isopropyl Alcohol Antiseptic 75 Percent; Hand Sanitizer - LavenderRosemary; Hand Sanitizer 02; Hand Sanitizer 08; Hand Sanitizer 1171; Hand Sanitizer 70%; Hand Sanitizer 75; Hand Sanitizer 890; Hand Sanitizer 9; Hand Sanitizer A1; Hand Sanitizer Antiseptic; Hand Sanitizer Antiseptic 75%; Hand Sanitizer CHRISTMAS MEMORIES; Hand Sanitizer Cedar Forest; Hand Sanitizer Cristal Prime 1 Galon; Hand Sanitizer Cristal Prime 1 liter; Hand Sanitizer Cristal Prime 100 Liters; Hand Sanitizer Cristal Prime 1000 Liters; Hand Sanitizer Cristal Prime 100ml; Hand Sanitizer Cristal Prime 220 Liters; Hand Sanitizer Cristal Prime 25000 liters; Hand Sanitizer Cristal Prime 250ml; Hand Sanitizer Cristal Prime 30ml; Hand Sanitizer Cristal Prime 5 Liters; Hand Sanitizer Cristal Prime 500ml; Hand Sanitizer Cristal Prime 60ml; Hand Sanitizer Eucalyptus; Hand Sanitizer FRESH EVERGREEN; Hand Sanitizer Fig Rhubarb; Hand Sanitizer Foam; Hand Sanitizer GINGERBREAD LATTE; Hand Sanitizer Gel; Hand Sanitizer Gel - Scented; Hand Sanitizer Gel - unscented; Hand Sanitizer Gel With Fragrance; Hand Sanitizer Gel with Fragrance; Hand Sanitizer Global Care (Isopropyl); Hand Sanitizer Golden Amber; Hand Sanitizer IPA Gel; Hand Sanitizer Isopropyl Alcohol; Hand Sanitizer Isopropyl Alcohol Antiseptic 70% Topical Gel; Hand Sanitizer Isopropyl Alcohol Antiseptic 73; Hand Sanitizer Isopropyl Alcohol Antiseptic 75; Hand Sanitizer Isopropyl Alcohol Antiseptic 75 Topical Solution; Hand Sanitizer LOL; Hand Sanitizer Lavender; Hand Sanitizer Lavender Fields; Hand Sanitizer Lemon; Hand Sanitizer Lemongrass; Hand Sanitizer Limar; Hand Sanitizer Liquid Isopropyl Alcohol Antiseptic 75%; Hand Sanitizer Liquid Isopropyl Alcohol Antiseptic 75% Topical Liquid; Hand Sanitizer Liquid with Lavender; Hand Sanitizer Liquid with Lemon; Hand Sanitizer Liquid with immunity; Hand Sanitizer Mystic Oud; Hand Sanitizer Non-sterile; Hand Sanitizer Packets; Hand Sanitizer Refreshing Scented; Hand Sanitizer Responsible; Hand Sanitizer Royal Oud; Hand Sanitizer Sachet Packet; Hand Sanitizer Saniklean; Hand Sanitizer Scented; Hand Sanitizer Solution; Hand Sanitizer Sport Pro; Hand Sanitizer Tobacco Leather; Hand Sanitizer Unscented; Hand Sanitizer Unscented Sans Parfum; Hand Sanitizer Wipes; Hand Sanitizing; Hand Sanitizing Rub; Hand Sanitizing Solution; Hand Sanitizing Wipes; Hand Sanitizing Wipes JABA; Hand Sanitizing and Moisturizing Wipes; Hand Sanitzer; Hand sanitizer; Hand-D HAND SANITIZER; Hand-I-san; HandClasp Hand Sanitizer; Handclasp Isopropyl Alcohol Antiseptic 75%; Handout Protection Hand Sanitizer; Handrub Sanitizer; Handstand Hand Sanitizer; Handy Solutions Rubbing Alcohol; Handy-san; Hanitize; Hanitizer; Hanna Isopropyl Rubbing Alcohol 70%; Harris Teeter; Health Mart Alcohol Isopropyl Rubbing 70 Percent; Health Mart Isopropyl Alcohol 91 Percent; Health Smart 50% Isopropyl Rubbing Alcohol; Health Smart 50% Isopropyl Rubbing Alcohol With Wintergreen; Health Smart 70% Isopropyl Rubbing Alcohol; Health Smart 70% Isopropyl Rubbing Alcohol With Wintergreen; HealthCare Plus; Healthcare Personnel Hand Sanitizer Isopropyl Alcohol; Healthy Hands 70 Sanitizing Gel; Healthy Hands 75; Heina 70% Isopropyl Alcohol; Helios Hand Sanitizer; Hemirus Hand Sanitizer Whips; Hemptuary Hawaii Hand Sanitizer; Hemptuary Hawaii Hand Sanitizer 16 oz; Herbal Scent Aromar Hand Sanitizer; Herclean IPA Wipes; Hibistat; Hibistat Germicidal Hand Rinse; Hocleans IPA Wipe; Holy Hands Hand Sanitizer; Honeywell Hand Sanitizer; Hosp-clean; Hs-E3; Humira; Hunca Care Stop Bac; HyVee Alcohol Prep Pads; Hydri-San IPA Antiseptic Hand Sanitizer; Hygenize Original Hand Sanitizer; Hygieni-Klean Hand Sanitizer; Hygieni-Klean Hand Sanitizer Fluid; Hygieni-Klean Hand Sanitizer Fluid Fresh; Hygieni-Klean Hand Sanitizer Fluid Healthcare Grade; Hygieni-Klean Hand Sanitizer Fluid Healthcare Grade Fresh; Hygieni-Klean Hand Sanitizer Fluid Healthcare Grade Lavender; Hygieni-Klean Hand Sanitizer Fluid Lavender; Hygieni-Klean Hand Sanitizer Gel; Hygieni-Klean Hand Sanitizer Gel Fresh; Hygieni-Klean Hand Sanitizer Gel Healthcare Grade; Hygieni-Klean Hand Sanitizer Gel Healthcare Grade Fresh; Hygieni-Klean Hand Sanitizer Gel Healthcare Grade Lavender; Hygieni-Klean Hand Sanitizer Gel Lavender; Hynaut Alcohol Prep Pad; Hyronan; I D Anti Bacterial Alcohol Based Hand Disinfectant; I D Anti Bacterial Alcohol Based Hand and Skin Disinfectant; I D Sept Anti Bacterial Alcohol Based Hand Sanitizing Wipe; I D Sept Anti Bacterial Alcohol Based Hand and Skin Disinfectant; I.V. Prep Antiseptic Wipe; I4D Hand Sanitizer; IDO Isopropyl Alcohol Pad; IES- Hand Sanitizer Blend; INTROSTEM Sanitizing Wipe; IPA Cleaning Wipe; IPA Essential Hand Sanitizer Gel; IPA Hand Sanitizer; IPA Hand Sanitizer Gel; IPA Wipes; ISOPROPYL Alcohol Wipes; Iba-cide Liquid; Ic-gel; Ido Disinfection Ethanol; Ido Disinfection Tissue; Impulse Antibacterial Hand Sanitizer; Inovaker Lab Hand Sanitizer; Insect Sting Relief Wipes; Insta Clean Antiseptic Hand Sanitizer; Insta Clean Antiseptic Hand Sanitizer Fresh Air; Insta San; Instafresh Sanitizing Hand Wipes 75% Alcohol; Instant Ear Dry Equate; Instant Hand Sanitizer; Instant Sanitizing Soft Wipes; Instant hand Sanitizer; Iris; Irving Hand Sanitizer; Iso Blu 50 percent; Iso-Blu Alcohol; Isomers Isopropyl Alcohol Antiseptic 75%; Isoppropyl Wipe 70%; Isopro First Aid; Isopropanol 99%; Isopropanol Wipes; Isopropy Alcohol Antiseptic 75% Topical Solution; Isopropyl; Isopropyl Alcohol; Isopropyl Alcohol 50 Percent; Isopropyl Alcohol 50%; Isopropyl Alcohol 70 Pad; Isopropyl Alcohol 70 Pad 10cmX15cm; Isopropyl Alcohol 70 Pad 15cmX20cm; Isopropyl Alcohol 70 Percent; Isopropyl Alcohol 70 Percent Wintergreen; Isopropyl Alcohol 70 Percent With Wintergreen Oil; Isopropyl Alcohol 70 percent; Isopropyl Alcohol 70%; Isopropyl Alcohol 70% 3x3; Isopropyl Alcohol 70% 4x4; Isopropyl Alcohol 70% v/v Prep Pad; Isopropyl Alcohol 75% Antiseptic Hand Sanitizer; Isopropyl Alcohol 91 Percent; Isopropyl Alcohol 91 percent; Isopropyl Alcohol 91%; Isopropyl Alcohol 99 Percent; Isopropyl Alcohol 99%; Isopropyl Alcohol 99% USP; Isopropyl Alcohol Antiseptic; Isopropyl Alcohol Antiseptic 75; Isopropyl Alcohol Antiseptic 75%; Isopropyl Alcohol Antiseptic 75% Topical Hand Sanitizer Non Sterile Solution; Isopropyl Alcohol Antiseptic 75% Topical Hand Sanitizer Non-Sterile Solution; Isopropyl Alcohol Antiseptic 75% Topical Solution; Isopropyl Alcohol Antiseptic 75% Topical Solution Hand Sanitizer Non-Sterile Solution; Isopropyl Alcohol Antiseptic 75% Topical Solution Hand Sanitizer Non-sterile Solution; Isopropyl Alcohol Antiseptic Germicide; Isopropyl Alcohol Antiseptic Hand Rub Non-sterile; Isopropyl Alcohol Antiseptic Hand Sanitizer Non-sterile; Isopropyl Alcohol Antiseptic Pad; Isopropyl Alcohol Cleansing Pad; Isopropyl Alcohol Hand Sanitizer; Isopropyl Alcohol Liq 99%; Isopropyl Alcohol Pad; Isopropyl Alcohol Prep Pad; Isopropyl Alcohol Prep Pad Sterile; Isopropyl Alcohol Prep Swab; Isopropyl Alcohol Sepp; Isopropyl Alcohol Surgical Scrub; Isopropyl Alcohol Swab; Isopropyl Alcohol Swabs; Isopropyl Alcohol Swabsticks; Isopropyl Alcohol Towelette; Isopropyl Alcohol Wintergreen 70 percent Wintergreen; Isopropyl Alcohol Wipes; Isopropyl Alcohol with Benzocaine; Isopropyl Alcohol with Wintergreen; Isopropyl Alcohol with Wintergreen 50%; Isopropyl Alcohol with Wintergreen 70%; Isopropyl Rubbing Alcohol; Isopropyl Rubbing Alcohol 01; Isopropyl Rubbing Alcohol 50 percent; Isopropyl Rubbing Alcohol 50 percent Wintergreen; Isopropyl Rubbing Alcohol 50%; Isopropyl Rubbing Alcohol 50% With Wintergreen; Isopropyl Rubbing Alcohol 50% with Wintergreen; Isopropyl Rubbing Alcohol 50% with Wintergreen and Glycerin; Isopropyl Rubbing Alcohol 70; Isopropyl Rubbing Alcohol 70 Percent; Isopropyl Rubbing Alcohol 70 Percent Wintergreen; Isopropyl Rubbing Alcohol 70 percent; Isopropyl Rubbing Alcohol 70 percent Wintergreen; Isopropyl Rubbing Alcohol 70%; Isopropyl Rubbing Alcohol 70% V/v; Isopropyl Rubbing Alcohol 70% With Wintergreen; Isopropyl Rubbing Alcohol 70% with Wintergreen; Isopropyl Rubbing Alcohol 90; Isopropyl Rubbing Alcohol 91 percent; Isopropyl Rubbing Alcohol 99 Percent; Isopropyl Rubbing Alcohol 99%; Isopropyl Rubbing Alcohol 99% With Wintergreen; Isopropyl Rubbing Alcohol Lil Drug Store Products; Isopropyl Rubbing Alcohol Liq 70%; Isopropyl Rubbing Alcohol Wipe; Isopropyl Rubbing Alcohol With Wintergreen; Isopropyl Rubbing Alcohol With Wintergreen Oil; Isopropyl Rubbing Alcohol with Wintergreen Oil; Isopropyl Rubbing Compound 70%; Isopropyl Rubbing Nf 70%v/v; Isopropyl Winter Green Rubbing Alcohol; Isopropyl alcohol; Isopropyl alcohol 50 percent; Isopropyl alcohol 50 percent ReadyInCase; Isopropyl alcohol 50 percent Wintergreen ReadyInCase; Isopropyl alcohol 70 percent; Isopropyl alcohol 70 percent ReadyInCase; Isopropyl alcohol 70 percent Wintergreen; Isopropyl alcohol 70 percent Wintergreen ReadyInCase; Isopropyl alcohol 75%; Isopropyl alcohol 91 percent; Isopropyl alcohol 91 percent ReadyInCase; Isopropyl alcohol Prep Pad; Isopropyl alcohol Swabstick Sterile; Isopropyl alcohol Swabsticks; Isopropyl alcohol Wintergreen 70 percent Wintergreen; Isopropyl alcohol swab; Isopropyl alcohol wipes; Isopropyl rubbing alcohol 91 percent; Itty Bitty Spider HAND SANITIZER; JSP Hand Sanitizer Gel 65% 177mL; Jet Kleen HS I-75; Jet Kleen HSG-I70; Jet Liquid Hand Sanitizer (IPA 75%); Jianze Alcohol; Jianze Alcohol Prep Pad Large; Jianze Alcohol Prep Pad Medium; Jsp; Jumbo Wipes; Juniper Clean 72% Alcohol Wipes; Juniper Clean Alcohol Swab; Juniper Clean Sterile Safety Set; Juniper Clean Super Defense Safety Set; K DEFENDER Alcohol Swab; K-Hand Sanitizer; K-Mart SmartSense First Aid Contains 101 Pieces; K-Mart SmartSense First Aid Contains 303 Pieces; K.T.S.O. Fabric and Hand Sanitizer; KMF Hand Sanitizer Cleansing Gel; Kate Naturals Advanced Hand Sanitizer; Keep Going Alcohol Prep Pad; Keep Going Sting Relief Pad; KeriCure Fabric and Hand Sanitizer; Ketorocaine L Kit; Ketorocaine LM Kit; Kiss Alcohol Prep Pads; Kiss My Face Hand Sanitizer Cleansing Alcohol Scent Free; Kit Breakroom Office First Aid; Kit Large Office First Aid; Kleen Care Hand Sanitizer; Kleen Hands; Klenlii Hand Sanii Alcohol Sanitizer; Klenz Hand Sanitizer; Korkay Sanitizer; Kryolan Hand Sanitizer; L-Topical 50% ISOPROPYL Rubbing Alcohol; LARA Hygiene Hand Skin Cleaner; LARA MED Antibacterial Hand Skin Cleaner; LARAMED Antibacterial Alcohol Wipes; LARAMED Antibacterial Hand Sanitizer Gel; LARAMED Antibacterial Hand and Skin Cleaner; LEADER Ear Drops for Swimmers; LEADER ISOPROPYL Alcohol Wipes; LORO Hand Sanitizer; LTG Alcohol Prep Pads; LUOYS Hand Sanitier; Labsco Sterile Alcohol Prep Pad; Lan Zhi Shang Disposable Hand Sanitizer Gel; Lanco 70 Isopropyl Alcohol Antiseptic; Lara Med Antibacterial Hand and Skin Cleaner; Large ANSI First Aid Kit; Lavelier Sanitizing Wipe; Lavender Verbena Aromar Hand Sanitizer; Leader Alcohol 70 Isopropyl Alcohol; Lens Cleaner; Leuprolide Acetate; Level 1 Health Hand Sanitizer Liquid Non-sterile Solution; LifEMS NALOXONE; Lights Isopropyl Alcohol Prep Pads; Liquid Hand Cleanser; Liquid Hand Sanitizer; Liquivida Hydration; Lord and Berry; Loris - I.V.; Loris 10% Povidone-Iodine and 70% Isopropyl Alcohol Solution; Loris 7.5% Povidone-Iodine and 74% Isopropyl Alcohol Solution; Loris I.V. Pro - Prefilled Applicator With Solution; Loris I.V. Pro - Sponge; Loris I.V. Pro - Swabstick; Loro Hand Sanitizer; Lorvatus PharmaPak; Ls32; Ls33; Ls9; Lt; Lupaneta Pack; Lupron Depot; Luxury Antiseptic; Luxury Antiseptic with wintergreen; MCS 70% Alcohol; MD Selections Hand Sanitizer; MED-PRIDE ISOPROPYL RUBBING ALCOHOL 70 PERCENT with Wintergreen; MEDI-FIRST First Aid Antiseptic; MEDOVE Instant Hand Sanitiser; MEDPURA Hand Sanitizer Gel; MEDPURA Hand Sanitizer Topical Solution; MG DermaSan 72; MG12 Magnificent Hand sanitizer (Lavender); MK Alcohol Prep Pads Large; MK Alcohol Prep Pads Medium; MK Alcohol Swabstick Sterile; MK Sting Relief Pads; MadeinCali Hand Sanitizer; Magical Mist Hand Sanitizer; MagneSoothe Body Balm; Magnesoothe Magnesium Oil; Mandarin Basil Aromar Hand Sanitizer; Maple Cross 75 Isopropyl Antibacterial; Marbeta 25 Kit; Marbeta L Kit; Mardex 25 Kit; Marlido 25 Kit; MaryRuth Organics Hand Sanitizing Wipes; Mas Care-pak Dexamethasone; Maxim Hand Sanitizer Alcohol; McClains Extra Strength And Moisture Hand Sanitizer Original; McKesson Alcohol Prep Pad; McKesson Medi-Pak Non-Sterile Alcohol Prep Pad; Med-Nap Sterile Alcohol Prep Pads; MedPRIDE; MedPRIDE with Wintergreen Oil; MedPride; MedPride 91% Rubbing Alcohol; MedPride 99% Rubbing Alcohol; MedPride Sterile Prep Pads; Medi-First Alcohol Wipes; Medi-First Isopropyl Alcohol; Medi-First Isopropyl Alcohol 70%; Medi-First Isopropyl Alcohol Pump; Medi-First Plus Alcohol Wipes; Medi-First Sterile Alcohol Pads; Medi-First Sting Relief; Medi-first Plus Sterile Alcohol Pads; MediChoice Alcohol Prep Pads; MediChoice Alcohol Swabstick; MediChoice Antiseptic Isopropyl Alcohol Prep Pads; MediChoice Isopropyl Rubbing Alcohol; MediFirst Isopropyl Alcohol; Medical Provider Single Use EZ Flu Shot 2013-2014; Medical Provider Single Use EZ Flu Shot 2018-2019; Medical Provider Single Use EZ Flu Shot Afluria 2016-2017; Medical Provider Single Use EZ Flu Shot Flucelvax 2014-2015 Kit; Medical Provider Single Use EZ Flu Shot Flucelvax 2015-2016; Medical Provider Single Use EZ Flu Shot Fluvirin 2014-2015; Medical Provider Single Use EZ Flu Shot Fluvirin 2015-2016; Medical Provider Single Use EZ Flu Shot Fluvirin 2016-2017; Medical Provider Single Use EZ Flu Shot Fluzone 2016-2017; Medical Provider Single Use EZ Flu Shot Kit; Medicap Hand Sanitizer; Medimaxx; Medline Alcohol Prep; Medline Alcohol Prep Medium; Medline Alcohol Prep Non-Sterile, Extra Large; Medline Alcohol Prep Non-Sterile, Large; Medline Alcohol Prep Non-Sterile, Medium; Medline Alcohol Prep Non-Sterile, Thick/Medium; Medline Alcohol Prep Sterile, Large; Medline Alcohol Prep Sterile, Medium; Medline Alcohol Swabstick Triples; Medt Pad; Meijer; Members Mark; Mg12 Magnificent Hand Sanitizer Eucalyptus; Mg12, Magnificent Hand Sanitizer (Unscented); MicroBio Solutions 80% Isopropyl Alcohol Hand Sanitizer; Mild Scent Hand Sanitizer; Mint/Eucalyptus/Lemon Hand Sanitizer Liquid; Miracle Health Gel Hand Sanitizer; Miracle Health Hand Sanitizer; Miracle Saniquick Sanitizing Wipes; Moist SURE; Moisturizing Hand Sanitizer; Moore Brand Alcohol Prep Pads; Moose; More Savings 50 Percent Isopropyl Rubbing Alcohol With Wintergreen; More Savings Rubbing Alcohol 50 Percent; Mpp Instant Hand Sanitizer; Multi Purpose Safety First Antiseptic Cleaning Wipes; Multi-Purpose Sanitizing and Cleansing Alcohol Wipes; Multi-Specialty Kit; Multi-purpose Alcohol Wipes; N.A.S.99 Nail Antiseptic Spray; NEW NB NATURALLY BOLD Natural; NISC MEGA Rubbing Alcohol; NISC Pure 50% Rubbing Alcohol; NISC Pure 50% with Wintergreen and Glycerin Rubbing Alcohol; NISC Pure 70% Rubbing Alcohol; NISC Pure 90% Rubbing Alcohol; Nasova Ear Drying Drops; NateZone Hand Sanitizer; National Guard PPE Kit; Natural Care Isopropyl Alcohol; Natural Concepts Hand Sanitizer; Natural Defense Hand Sanitizer; Natures Fusions Dragons Breath Hand Sanitizer Liquid; Naturia; Neol One; Neptune Wellness Solutions Hand Sanitizer; Neuromaquel Neuroma/Anti-Inflammatory System; Neutron NI DEFENSE Alcohol Sanitary Wipes; Next Home Hand Sanitizer Gel; Nitrotan; No Ciean Disinfection Gel; Non-proprietary name; North Alcohol Wipe; Novita 50% Isopropyl Rubbing Alcohol W/ Wintergreen; Novita 70% Isopropyl Rubbing Alcohol Wintergreen; Novita Isopropyl Alcohol 50%; Novita Isopropyl Rubbing Alcohol; NurtureFlo Gel Hand Sanitizer; NurtureFlo Gel Hand Sanitizer Ocean Breeze; NurtureFlo Non-Gel Hand Sanitizer; Nxn Hand Sanitizing Wipes 75 Percent; OASIS Antiseptic Hand Rub / Hand Sanitizer; OMNIS HEALTH Alcohol Prep Pads; OOBe Safe Hand Sanitizer; OP First Aid Series Alcohol Prep Pad; OP First Aid Series Insect Sting Relief Pad; OPI topical solution hand sanitizer Non-sterile Solution Isopropyl Alcohol Antiseptic 75%; OROGOLD Cosmetics Sanitizing Wipe; Obsess Hand Sanitizer - Unscented; OgenaSHIELD MOISTURIZING HAND SANITIZER; Ohly Hand Sanitizer; Oido Sana; Omnitrenidol; On the Geaux Hand Sanitizer; One Time Swab Sticks 70% F468; Onko Health Alcohol Antiseptic Wipe; Optimal Alcohol Prep Pad; Orbit Hand Sanitizer; Original Hand Sanitizer Gel Cedar Forest; Original Hand Sanitizer Gel Fig Rhubarb; Original Hand Sanitizer Gel Lavender; Original Hand Sanitizer Gel unscented; Original Hand Sanitizer Sport Pro; OtoVita Professional Hand Gel; P-Care 100MX; P-Care D40; P-Care D40G; P-Care D40MX; P-Care D80; P-Care D80G; P-Care D80MX; P-Care K40; P-Care K40G; P-Care K40MX; P-Care K80; P-Care K80G; P-Care K80MX; P-Care M; P-Care MG; P-Care X; PARAID Alcohol; PFP POLYClean Hand Sanitizer - Gel 70 IPA; PHx Hand Sanitizer; PREMIER Wet Wipes; PRIME Antibacterial Had Sanitizer; PRIMEST HAND SANITIZER NonSterile Isopropy Antiseptic; PROTECTOR Alcohol Prep Pad; PSP 70 Isopropyl rubbing alcohol first antiseptic; PSP 91 Isopropyl alcohol first aid antiseptic; PSP GO Isopropryl Rubbing; PSP Isopropyl Rubbing; PSP Spray-on hand sanitizer antiseptic skin cleaner; PSSI I-San; PUREXX 70% IPA Hand Sanitizer; PUREXX IPA Wipes; PUROMA IPA Hand Sanitizer Wipe; Pain Relief Alcohol Swabs; Pantero Hand Sanitizer; Pantero Hand Sanitizer 75% Isopropyl Alcohol (bulk); Paragon Hand Sanitizer 75%; Paragon Sanitizing Hand Gel 75%; Paraid Sterile Alcohol Prep Pads; Penorra SANITARY WIPES; Perfect Hand Sanitizer; Pernod Hand Sanitizer; Pete and Pedro Sanitize; Peterson Alcohol Antiseptic; Pharma C Wipes 70 Isopropyl Alcohol; Pharma C Wipes 70 Isopropyl Alcohol Wipes; Pharma care IPA Wipes; Pharma-C-Wipes Toallitas de alcohol isopropilico 70; Pharmacist Choice Alcohol Prep Pad; Pharmacist Choice Alcohol Prep Pads; Pharmacist Choice Alcohol Sterile Prep Pad; Pharmacy Prescription 70% Isopropyl Alcohol; Pharmacy Prescription 70% Isopropyl Alcohol With Wintergreen; Pharmacys Prescription; Pharmacys Prescription IPA; Pharmacys Prescription IPA Wintergreen; Pharmacys Prescription Rubbing Alcohol; Phoenix Hand Sanitizer; Physicians Care Sting Relief Pad; Physicians EZ Use B-12 Compliance; Physicians EZ Use Flu Kit; Platinum Hand Care Hand Sanitizer Gel; Platinum Hand Care Liquid Hand Sanitizer; Point Of Care L2; Point Of Care L5; Point Of Care LM 2.2; Point Of Care LM 2.5; Point Of Care LM DEP 2; Poly San Hand Sanitizer; PolySan; Potentol Hs; Pravins Curvebender; Preferred Plus Pharmacy 70% Isopropyl Alcohol Wipes; Prelidopine Pre-Operative System; Premier Pure; Premier Value; Premiere Value Ear Drops for Swimmers; Premium Disinfecting Wipes; Premium Hand Sanitizer Gel Tobacco Leather; Premium Hand Sanitizer Golden Amber; Prevail-FX One Step; Prevantics Maxi Swabstick; Prevantics Swab; Prevantics Swabstick; Prevantics swabstick; Prevent Foam Sanitizer; Prevent Rubbing Alcohol Isopropyl 70 Percent; Prevent Sanitizer; Primal Blends Advanced Moisturizing Hand Sanitizer; Primal Elements Isopropyl Alcohol; Prime; Prime Collection; Prime Hand Sanitizer; Primest Hand Sanitizer Isopropyl Antiseptic Non-Sterile Topical Solution 70; Primest Hand Sanitizer Isopropyl Antiseptic Non-Sterile Topical Solution 75; Pro Guard; Pro-Sanitize; Problend Alcohol Hand Sanitizer Gel; Proclean Hand Sanitizer; Procutane Gel; Proof Brewing Co. Hand Sanitizer; Prosera Soothing Hand Sanitizer; Protect Hand Sanitizer; Protection; Protector; Protector Gel; Prove Alcohol Prep Pads; Publix Alcohol; PurPrep; Puracy Hand Sanitizer; Pure Care -alcohol Wipes; Pure Care Household Wipes; Pure Kleen; Pure Wipes 70 Alcohol Wipes; PureGel Hand Sanitizer Gel; Purehold Antiseptic Instant Hand Sanitizer; Puremedic Health Hand Sanitizer; Purexx 75% IPA Hand Sanitizer; Purgo Hand Sanitizer; Puri-Clean Advanced Had Sanitizer; Puri-Clean Advanced Hand Sanitizer; Purifie; Purify instant Hand Sanitizer; Purifying Hand Sanitizer; Purity; Purity Sanitizing Wipes; Purlean Hand Sanitizer; Purple Mountain Clean Hand Sanitizer; Q Smart Spa Germinator Anti-bacterial; QT-San Sanitary Wipes; QUALGEN Isopropyl Alcohol Antiseptic; Quality Choice Instant Ear Dry; Quality Choice Isopropyl Alcohol Wipes; Quick-Drying Hand Sanitizer; REVIVE Hand Sanitizer - Protect; RUBBING ALCOHOL 50 PERCENT with Wintergreen; RUBBING ALCOHOL 70 PERCENT with Wintergreen; RUBBING ALCOHOL 99 PERCENT with Wintergreen; Ready America First Aid Outdoor- 107 Pieces; Ready America First Aid Pocket - 33 Pieces; Real clean hands; Recover Sanitizer Wipes, 75% IPA; Red Hat Sanitizer; Refill 4; Relax Hand Sanitizer; Relistor; Renu Advanced Hand Sanitizer; Renu Laboratories Isopropyl Alcohol 75% Hand Sanitizer; Rescue Breather Kit; Responsible PPE; Revel Instant Hand Sanitizer; Rexall Alcohol Prep; Rinseless Hand Sanitizer; Ripclear Antiseptic Hand Sanitizer; Rite Aid Isopropyl Alcohol Wipes; Rocky Research Hand Sanitizer; Roots Aromatherapy; Rose Sanitizer; Royal Alcohol Cleansing; Royal Alcohol Cleansing Pads; Royal HH Alcohol Hand Sanitizer; RoyalCare Sanitizing Wipes; Rubbing Alcohol; Rubbing Alcohol 50 Percent; Rubbing Alcohol 50 Percent With Wintergreen; Rubbing Alcohol 50%; Rubbing Alcohol 70 Percent; Rubbing Alcohol 70 Percent Isopropyl; Rubbing Alcohol 70 Percent With Wintergreen; Rubbing Alcohol 70 percent Isopropyl; Rubbing Alcohol 70%; Rubbing Alcohol 70% Isopropyl; Rubbing Alcohol 91 percent Isopropyl; Rubbing Alcohol 91 percent isopropyl; Rubbing Alcohol 99 Percent; Rubbing Compound 70%; Rubbing alcohol; Rubzan; Run Kang Alcohol Pads - MEDIUM; Rush Sanitizers; SANI SAFE Hand Sanitizer; SANIPOWER Hand Sanitizer; SCI 70 Gel Hand Sanitizer; SCI 70 Hand Sanitizer; SCI 70 Hand Sanitizer Gel; SHIELD Hand Sanitizer; SKM 70% Rubbing Alcohol; SKYMO Hand Sanitizer; SMPLY Isopropyl 50; SMPLY Isopropyl 91; SMPLY Isopropyl 99; SMPLY Isopropyl Alcohol; SP Hand Sanitizer 99; ST COVID-POD (Saliva Collection Kit); STEREZE Antiseptic Hand Sanitizer; STEREZE Antiseptic Presaturated Wipes; SWIPE Sterile Wipe; Safe Harbor 72% Alcohol Wipes; Safeguard Isopropyl Alcohol Antiseptic Hand Sanitizer; Safeton Alcohol Pad 70 Isopropyl Alcohol; Safeton Sting Relief Pad 60 Isopropyl Alcohol 6 Benzocaine; Safety First; Safety First Healthcare Hand Sanitizer Citrus Tea; Safety First Healthcare Hand Sanitizer Fresh Mint; Safety First Healthcare Hand Sanitizer Lavender; Safety First Healthcare Hand Sanitizer Melon; Safety First Healthcare Hand Sanitizer Musk; Safety First Healthcare Hand Sanitizer Peach; Safety First Healthcare Hand Sanitizer Rose; Safety First Healthcare Hand Sanitizer Sandalwood; Safety First Healthcare Hand Sanitizer Strawberry; Safety First Healthcare Hand Sanitizer Tea Tree; Salisbury Blending Hand Sanitizer; Salud Hand Sanitizer; San-EZ; Sanacare; Sandisizer 120; Sani Choice Instant Hand Sanitizer; Sani Clean Plus; Sani Hand Hand Sanitizer; Sani Wash Hand Sanitizer; Sani Wash Hand Sanitizer Gel; Sani Wipes; Sani eZe; Sani-Gel Hand Sanitizer; Sani-Spray; Sani-Ultra Wipes; Sani-tize Instant Hand Sanitizer; SaniClean; SaniClean HP Isopropyl Alcohol Antiseptic 75% Topical Solution Gel Unscented (HP2502); SaniClean HP Isopropyl Alcohol Antiseptic 75% Topical Solution Gel, Unscented (HP2515); SaniClean HP Isopropyl Alcohol Antiseptic 75% Topical Solution nscented Liquid (HP2514); SaniClean Isopropyl Alcohol 75% Topical Solution Gel, Unscented (HP2468); SaniClean Isopropyl Alcohol Antiseptic 70% Topical Solution Gel, Unscented (HP2502); SaniClean Isopropyl Alcohol Antiseptic 75% Topical Solution Gel, Unscented (HP2473); SaniDrops Hand Sanitizer 60mL; SaniPure Hand Sanitizer; Saniclean; Saniclean HP Isopropyl Alcohol Antiseptic 75% Topical Solution Gel, Lemon Scented (HP2512); Saniclean Isopropyl Alcohol Antiseptic 75% Topical Solution Gel, Citrus Floral Scented (HP2511); Sanigo Hand Sanitizer (Liquid); Sanigo Rubbing Alcohol; Sanikem Gel Plus; Sanikem Liquid; Saninta Antiseptic Wipe; Saninta Hand Sanitizing Gel; Saniquick; Saniquick Solution; Sanitary Wet Tissue; Sanitary Wipes; Sanitell INSTANT HAND SANITIZER; Sanitize 70C; Sanitize 75; Sanitize Asap Hand Sanitizer; Sanitize Away; Sanitize NT-75; Sanitizer; Sanitizer - Assainissant; Sanitizer Cleaner; Sanitizer Station Hand Sanitizer; Sanitizing Alcohol Wipes; Sanitizing Isopropyl Alcohol Wipes; Sanitizing Wipe; Sanitizing Wipes; Sanitizing wipes; Sankind Hand Sanitizer 75 % v/v Isopropyl Alcohol; Sanny Hand Sanitizer; Sanny Hand Sanitizing Wipes; Sansational Sanitizing Wipes; SantOtizer Pure I75; Sanugel HAND SANITIZER; Sanus Sterile Safety Set; Sasco Hand Sanitizer/Rub; School Health; School Health Sterile Alcohol Prep Pad; Scrub Care; Scrub-stat IV 4%; Seatex Hand Sanitizer; Secure Gel Hand Sanitizer; Secure Hand Sanitizer; Septinol; Seratin; Serene Clean and Pure Hand Sanitizer Gel; ServClean Sanitizing Wipes; Sherwin-Williams Isopropyl Alcohol Antiseptic 75% Topical Solution Hand Sanitizer; Shopko Alcohol Swabs; Shower Pouch Bamboo; Shower Pouch Cucumber; Shower Pouch Unscented; Shsnh6-3000; Shsnh6-3500; Shsnh6-3600; Shsnh6-3601; Shsnh6-3610; Shsnh6-3611; Shsnh6-3612; Sierra-San Hand Sanitizer; Signature Care Alcohol Prep Pad; Signature Care Isopropyl Alcohol Wipes; Silken Instant Hand Sanitizer; Simpa; Simple Green; Simple Sanitizer; Simply 70 IP Hand Sanitizer; Simply Sanitizer Gel; Singular Wipes fragrance free; Sis Sar; Skin Cleansing Wipe; Skintillate Hand Sanitizer; Skm 99.9% Isopropyl Alcohol; Skygel Hand Sanitizer; Skyrizi; Sm Swabalpha; Smart Sense 70% Isopropyl Rubbing Alcohol First Aid Antiseptic; Smart Sense Isopropyl Alcohol Wipes; SoCal Farmhouse Gel Hand Sanitizer; Sol-M Alcohol Swabs Large Non-Sterile; Sol-M Alcohol Swabs Large Sterile; Sol-M Alcohol Swabs Medium Non-Sterile; Sol-M Alcohol Swabs Medium Sterile; SolGreat Isopropyl Alcohol; Soluprep; Soluprep 10% Povidone Iodine + 70% Isopropyl Alcohol; Soluprep Applicator; Soluprep Qd Solution; Soluprep Qd Swab; Soluprep Qd Wipe; Soluprep Swab; Soluprep Wipe; Sooth-a-Sting; Sparitual Hand Sanitizer; Sparkle; Splash Garden French Lavender; Ssential Hand Sanitizer; Standard ANSI First Aid; Stanhexidine 2% With Isopropyl Alcohol 4%; Stanhexidine 4% With Isopropyl Alcohol 4%; Stanhexidine Aqueous 2% With 4% Isopropyl Alcohol; Stanitizer; Star Hand Sanitizer; StarCap Medical Private Limited; State Quick Defense Alcohol Sanitary Wipes; Steel City Sanitizer; Steri-stat Liq 4.0%; Steri-stat Tincture (tinted) Antis Prep Gel; Steril-Touch; Sterile Alcohol; Sterile Alcohol Prep Pad; Sterile Alcohol Prep Pads; Sterile Alcohol Prep Pads 01; Sterile Alcohol Wipe; Sterno Hand sanitizer; Sting Relief; Sting Relief Medicated Pad; Sting Relief Pad; Sting Relief Wipe; Straight Shot; StrataMedi Hand Sanitizer; Streck Antiseptic Hand Rub; Sun Wave Consumer Antiseptic Hand Sanitizer; Sunmark Isopropyl Alcohol 70 Percent With Wintergreen Oil; Sunmark Isopropyl Alcohol 91 Percent; Sunmark Isopropyl Rubbing Alcohol 70 Percent; Sunsent visage; Sunset visage; Supa Clean Disinfectant; Super Magic Man Premium Gold; Super Rub 70%; Superiorwor hand sanitizer; Superiorwor hand sanitizer with Aloe; Superiorwor hand sanitizer with aloe; Superiorwor hand sanitizer with green apple; Superiorwor liquid hand sanitizer with lemon; Supply Works LLC; Sure Comfort Alcohol Prep Pads; SurelyWell HAND SANITIZER Gel; Surtec Hand Sanitizer 2020; Suture Syringe Medic; Swabs; Swim-EAR; T Test Isopropyl Alcohol; TCI Antiseptic Hand Sanitizer; TEGO 2020 Hand Sanitizer; TNKase; TOUCHLAND Refeel KUB cartridge; TOUCHLAND kub2go Hand Sanitizer Aloe Vera; TOUCHLAND kub2go Hand Sanitizer Citrus; TOUCHLAND kub2go Hand Sanitizer Lavender; TOUCHLAND kub2go Hand Sanitizer Mint; TOUCHLAND kub2go Hand Sanitizer Neutral; TOUCHLAND kub2go Hand Sanitizer Strawberry; TOUCHLAND kub2go Hand Sanitizer Vanilla; TSC 99% Isopropyl Alcohol; TSC Rubbing Alcohol - 70% Isopropyl Alcohol; Tavos Hand Sanitizer Gel; Tavos Liquid Hand Sanitizer; Tazza Antiseptic Hand Wipes; TechKleen Hand Sanitizer; Techniseal Hand Sanitizer; Tempo Alcohol Prep Pad; Tempo Sting Relief Pad; Testone CIK; Texas Alchemist Distillers Mark 1 Hand Sanitizer; The Essence of Eva; The Green Scissor; The Green Scissor 99 Percent; The Hydrator, Ionic Alcohol; The New Parent First Aid; The Pharma-C Company 70 Isopropyl Alcohol Pads; The Pharma-C Company 70 Isopropyl Alcohol Wipes; Three Rivers Distilling Co. Hand Sanitizer; Tiger Alcohol Pad; Tinfu Isopropyl Alcohol Prep Pads; Tinted Isopropyl Alcohol; Tintura de Arnica; Tiodize Hand Sanitizer; Tissue Handzer; Tize-It; TongYi CleanGuard Disinfectant Wipes; TopCare Swimmers Ear Drops; TopCo; Topcare 70 Isopropyl Alcohol Wipes; TopiDex; Topical Hand Sanitizer; Topical Solution Hand Sanitizer; Travel Assure Advanced Hand Sanitizer; Travel Wipes; Tri-Titans Funk Fighter Hand Sanitizing Wipes; Trip Mitt; Triple Shield; U 99% Isopropyl Rubbing Alcohol; UEC Medical Insect Sting Relief; UEC Medical Sterile Alcohol Wipes; UNITED CleanPlus Sanitizing Wipe; USF Inc. Antiseptic Hand Sanitizer; UVC Ultra-Clean Ultra Hand Sanitizer; Ultimate Hand Sanitizer; Ultra-Care Alcohol Prep pad; UltraCruz Hand Sanitizing Gel; Umbiliclean; Uncle Buds Hand Sanitizer; Uncle Buds Hand Sanitizer with Hemp Oil; Unichem; United CleanPlus; Unscented Aromar Hand Sanitizer; Unscented Hand Sanitizer; Unscented Hand Sanitizer Liquid; Up and Up 70 Isopropyl Alcohol Wipes; Up and Up alcohol; Urigel Hand Sanitizer; V W; VENOFYE Sanitizing Wipe; VIDA Hand Sanitizer; VITAL Gel ANTISEPTIC HAND SANITIZER; VIVO Sanitizing Wipe; Vanitizer I-200; Vastmedic ALCOHOL PREP PADS; Venipuncture Px1; Verasteril Advanced Hand Sanitizer; Verdant Isopropyl Alcohol; Vida Mia Ear Drops for Swimmers; Vine Vera Sanitizing Wipe; Vinmar Hand Sanitizer; Vioclean Disinfectant Wipes; Viola Rouge Antiseptic Hand Rub 75 Percent; Viraguard! With Virahol (gel); Virocide Antibacterial Wipes; Virus Shield Isopropyl Alcohol Wipes; Vita Vie Isopropyl Alcohol; Vital gel Antiseptic Hand Sanitizer; Vitamin Deficiency Injectable System - B12; Vitiugen Instant Hand Sanitizer; Vivo Simple; Vopac MDS - Anti-Inflammatory Management Kit with Metered Dose Bottle; WELKIN Alcohol Prep Pads; WESTERN FAMILY Alcohol Swabs; WISE SHOPPER RUBBING ALCOHOL 50 PERCENT with Wintergreen; WM Brown x Acqua Di Gabriel; WON Hand Sanitizer; Walgreen Alcohol; Walgreens 70% Isopropyl Alcohol Wipes; Walmart; Wearable Dispenser Cartridge SCS; Wet Wipe; Wetex Alcohol Prep Pad; Wicked Cleen Hand Sanitizer; Wicked Strong Hand Sanitizer; Winner Alcohol; Winners hand Sanitizer; Winova Hand Sanitizer; Wintergreen Isopropyl Alcohol; Wipes Plus; Wipesplus Hand Sanitizing Wipes; Wise Shopper 50% Isopropyl Rubbing Alcohol W/ Wintergreen; Wise Shopper Isopropyl Alcohol 50%; Wise Shopper Rubbing Alcohol 50 Percent; Wise shield; Wish; Wish 70% Isopropyl Rubbing Alcohol; Wonvia Antibacterial Hand Disinfectant; Wonvia Antibacterial Hand Disinfectant Gel; Wonvia Antibacterial Hand Disinfectant Sanitizer; Wonvia Hand Disinfectant Gel; Wonvia Individually Wrapped Antibacterial Hand Wipes 70% Alcohol; Workforce Hand Sanitizer Gel; Workmans Friend - Superior Topical Sanitizer and Antiseptic 70 Percent; Workmans Friend Superior Isopropyl Rubbing Alcohol; XS Guard; XS Guard 70% Isopropyl; XS Wipe; Xianyou Hand Sanitizer Alcohol Wipes; Xpect Alcohol Wipes; Xpect Isopropyl Alcohol; Xyntha; YORUN Germicidal Disposable Wipes; Yacana Isopropyl Alcohol Antiseptic 70% Topical Solution; Yellow Usa Corp; Zee Insect Sting Relief Wipes; Zee Medical Clean Wipes; Zep Alpet E-3 Sanitizer; Zh Antiseptic Hand Sanitizer; Ziva Alcohol Wipes; Zolgensma; Zone Defense Foaming Hand Sanitizer; Zone Defense Hand and Surface Sanitizing Wipes; Zonsen Alcohol Prep Pad; Zonsen Sting Relief Pad; Zoya Hand Sanitizer; Zylotrol Plus; Zylotrol-L; bioLuxe Instant Hand Sanitizer; feel Welcome HAND SANITIZER; fisherbrand Alcohol Prep Pad Sterile; germstar Original unscented; haruhome Hand Sanitizer; in2itiv Hand Sanitizer 75 Isopropyl Alcohol Antiseptic; inControl alcohol; maxim 50% ISOPROPYL RUBBING ALCOHOL; maxim 50% ISOPROPYL RUBBING ALCOHOL With Wintergreen; maxim 70% ISOPROPYL RUBBING ALCOHOL; maxim 70% ISOPROPYL RUBBING ALCOHOL With Wintergreen; new life Rubbing Isopropyl Alcohol 70% First Aid and Antiseptic; pip Alcohol Prep Pads; sunmark Isopropyl Rubbing Alcohol

> <INTERNATIONAL_BRANDS>
Isopro

$$$$
