
  Mrv0541 02231216242D          

 34 37  0  0  1  0            999 V2000
    4.1960   -5.8286    0.0000 N   0  0  0  0  0  0  0  0  0  0  0  0
    3.3890   -6.0001    0.0000 C   0  0  0  0  0  0  0  0  0  0  0  0
    2.8370   -5.3870    0.0000 N   0  0  0  0  0  0  0  0  0  0  0  0
    2.0300   -5.5585    0.0000 C   0  0  0  0  0  0  0  0  0  0  0  0
    1.4780   -4.9454    0.0000 C   0  0  0  0  0  0  0  0  0  0  0  0
    1.7329   -4.1608    0.0000 C   0  0  0  0  0  0  0  0  0  0  0  0
    2.5399   -3.9893    0.0000 C   0  0  0  0  0  0  0  0  0  0  0  0
    3.0919   -4.6024    0.0000 C   0  0  0  0  0  0  0  0  0  0  0  0
    1.1809   -3.5477    0.0000 C   0  0  0  0  0  0  0  0  0  0  0  0
    1.4358   -2.7631    0.0000 N   0  0  0  0  0  0  0  0  0  0  0  0
    0.8838   -2.1500    0.0000 C   0  0  0  0  0  0  0  0  0  0  0  0
    0.0768   -2.3215    0.0000 O   0  0  0  0  0  0  0  0  0  0  0  0
    1.1387   -1.3654    0.0000 C   0  0  2  0  0  0  0  0  0  0  0  0
    0.6538   -0.6979    0.0000 C   0  0  0  0  0  0  0  0  0  0  0  0
    1.1387   -0.0305    0.0000 C   0  0  0  0  0  0  0  0  0  0  0  0
    1.9233   -0.2854    0.0000 C   0  0  1  0  0  0  0  0  0  0  0  0
    2.6378    0.1271    0.0000 C   0  0  0  0  0  0  0  0  0  0  0  0
    3.3523   -0.2854    0.0000 N   0  0  0  0  0  0  0  0  0  0  0  0
    3.3523   -1.1104    0.0000 C   0  0  0  0  0  0  0  0  0  0  0  0
    2.6378   -1.5229    0.0000 C   0  0  0  0  0  0  0  0  0  0  0  0
    2.6378   -2.3479    0.0000 O   0  0  0  0  0  0  0  0  0  0  0  0
    1.9233   -1.1104    0.0000 N   0  0  0  0  0  0  0  0  0  0  0  0
    4.0668    0.1271    0.0000 S   0  0  0  0  0  0  0  0  0  0  0  0
    3.6543    0.8415    0.0000 O   0  0  0  0  0  0  0  0  0  0  0  0
    4.4793   -0.5874    0.0000 O   0  0  0  0  0  0  0  0  0  0  0  0
    4.7812    0.5396    0.0000 C   0  0  0  0  0  0  0  0  0  0  0  0
    5.4957    0.1271    0.0000 C   0  0  0  0  0  0  0  0  0  0  0  0
    6.2102    0.5396    0.0000 C   0  0  0  0  0  0  0  0  0  0  0  0
    6.9246    0.1271    0.0000 C   0  0  0  0  0  0  0  0  0  0  0  0
    6.9246   -0.6979    0.0000 C   0  0  0  0  0  0  0  0  0  0  0  0
    6.2102   -1.1104    0.0000 C   0  0  0  0  0  0  0  0  0  0  0  0
    5.4957   -0.6979    0.0000 C   0  0  0  0  0  0  0  0  0  0  0  0
    3.1341   -6.7847    0.0000 N   0  0  0  0  0  0  0  0  0  0  0  0
    3.6861   -7.3978    0.0000 O   0  0  0  0  0  0  0  0  0  0  0  0
  1  2  1  0  0  0  0
  2  3  1  0  0  0  0
  3  4  1  0  0  0  0
  4  5  1  0  0  0  0
  5  6  1  0  0  0  0
  6  7  1  0  0  0  0
  7  8  1  0  0  0  0
  3  8  1  0  0  0  0
  6  9  1  0  0  0  0
  9 10  1  0  0  0  0
 10 11  1  0  0  0  0
 11 12  2  0  0  0  0
 13 11  1  6  0  0  0
 13 14  1  0  0  0  0
 14 15  1  0  0  0  0
 15 16  1  0  0  0  0
 16 17  1  0  0  0  0
 17 18  1  0  0  0  0
 18 19  1  0  0  0  0
 19 20  1  0  0  0  0
 20 21  2  0  0  0  0
 20 22  1  0  0  0  0
 13 22  1  0  0  0  0
 16 22  1  1  0  0  0
 18 23  1  0  0  0  0
 23 24  2  0  0  0  0
 23 25  2  0  0  0  0
 23 26  1  0  0  0  0
 26 27  1  0  0  0  0
 27 28  2  0  0  0  0
 28 29  1  0  0  0  0
 29 30  2  0  0  0  0
 30 31  1  0  0  0  0
 31 32  2  0  0  0  0
 27 32  1  0  0  0  0
  2 33  2  0  0  0  0
 33 34  1  0  0  0  0
M  END
> <DATABASE_ID>
DB02723

> <DATABASE_NAME>
drugbank

> <SMILES>
O\N=C(/N)N1CCC(CC1)CNC(=O)[C@@H]1CC[C@H]2CN(CC(=O)N12)S(=O)(=O)CC1=CC=CC=C1

> <INCHI_IDENTIFIER>
InChI=1S/C22H32N6O5S/c23-22(25-31)26-10-8-16(9-11-26)12-24-21(30)19-7-6-18-13-27(14-20(29)28(18)19)34(32,33)15-17-4-2-1-3-5-17/h1-5,16,18-19,31H,6-15H2,(H2,23,25)(H,24,30)/t18-,19-/m0/s1

> <INCHI_KEY>
DHTSUHWLPAEEQB-OALUTQOASA-N

> <FORMULA>
C22H32N6O5S

> <MOLECULAR_WEIGHT>
492.592

> <EXACT_MASS>
492.215488854

> <JCHEM_ACCEPTOR_COUNT>
8

> <JCHEM_ATOM_COUNT>
66

> <JCHEM_AVERAGE_NEUTRAL_MICROSPECIES_CHARGE>
0.6588416236891982

> <JCHEM_AVERAGE_POLARIZABILITY>
50.40123175030897

> <JCHEM_BIOAVAILABILITY>
1

> <JCHEM_DONOR_COUNT>
3

> <JCHEM_FORMAL_CHARGE>
0

> <JCHEM_GHOSE_FILTER>
0

> <JCHEM_IUPAC>
(6S,8aS)-N-({1-[(E)-N'-hydroxycarbamimidoyl]piperidin-4-yl}methyl)-4-oxo-2-phenylmethanesulfonyl-octahydropyrrolo[1,2-a]pyrazine-6-carboxamide

> <ALOGPS_LOGP>
-0.02

> <JCHEM_LOGP>
-1.0953274499999996

> <ALOGPS_LOGS>
-2.67

> <JCHEM_MDDR_LIKE_RULE>
0

> <JCHEM_NEUTRAL_CHARGE>
1

> <JCHEM_NUMBER_OF_RINGS>
4

> <JCHEM_PHYSIOLOGICAL_CHARGE>
1

> <JCHEM_PKA>
15.022924423182793

> <JCHEM_PKA_STRONGEST_ACIDIC>
13.146958591992194

> <JCHEM_PKA_STRONGEST_BASIC>
7.28579517491615

> <JCHEM_POLAR_SURFACE_AREA>
148.63999999999996

> <JCHEM_REFRACTIVITY>
125.6467

> <JCHEM_ROTATABLE_BOND_COUNT>
5

> <JCHEM_RULE_OF_FIVE>
1

> <ALOGPS_SOLUBILITY>
1.06e+00 g/l

> <JCHEM_TRADITIONAL_IUPAC>
tetrahydrofolic acid

> <JCHEM_VEBER_RULE>
0

> <DRUGBANK_ID>
DB02723

> <SECONDARY_ACCESSION_NUMBERS>
EXPT00716

> <DRUG_GROUPS>
experimental

> <GENERIC_NAME>
4-Oxo-2-Phenylmethanesulfonyl-Octahydro-Pyrrolo[1,2-a]Pyrazine-6-Carboxylic Acid [1-(N-Hydroxycarbamimidoyl)-Piperidin-4-Ylmethyl]-Amide

$$$$
