
  Mrv0541 02231216092D          

 15 14  0  0  1  0            999 V2000
    9.9513    4.0954    0.0000 C   0  0  0  0  0  0  0  0  0  0  0  0
    9.9513    3.2704    0.0000 C   0  0  1  0  0  0  0  0  0  0  0  0
    9.2368    2.8579    0.0000 N   0  0  0  0  0  0  0  0  0  0  0  0
    8.5224    3.2704    0.0000 C   0  0  0  0  0  0  0  0  0  0  0  0
    7.8079    2.8579    0.0000 C   0  0  0  0  0  0  0  0  0  0  0  0
    7.0934    3.2704    0.0000 C   0  0  0  0  0  0  0  0  0  0  0  0
    6.3789    2.8579    0.0000 C   0  0  0  0  0  0  0  0  0  0  0  0
    5.6645    3.2704    0.0000 C   0  0  2  0  0  0  0  0  0  0  0  0
    5.6645    4.0954    0.0000 N   0  0  0  0  0  0  0  0  0  0  0  0
    4.9500    2.8579    0.0000 C   0  0  0  0  0  0  0  0  0  0  0  0
    4.2355    3.2704    0.0000 O   0  0  0  0  0  0  0  0  0  0  0  0
    4.9500    2.0329    0.0000 O   0  0  0  0  0  0  0  0  0  0  0  0
   10.6658    2.8579    0.0000 C   0  0  0  0  0  0  0  0  0  0  0  0
   11.3802    3.2704    0.0000 O   0  0  0  0  0  0  0  0  0  0  0  0
   10.6658    2.0329    0.0000 O   0  0  0  0  0  0  0  0  0  0  0  0
  2  1  1  6  0  0  0
  2  3  1  0  0  0  0
  3  4  1  0  0  0  0
  4  5  1  0  0  0  0
  5  6  1  0  0  0  0
  6  7  1  0  0  0  0
  7  8  1  0  0  0  0
  8  9  1  1  0  0  0
  8 10  1  0  0  0  0
 10 11  1  0  0  0  0
 10 12  2  0  0  0  0
  2 13  1  0  0  0  0
 13 14  1  0  0  0  0
 13 15  2  0  0  0  0
M  END
> <DATABASE_ID>
DB02370

> <DATABASE_NAME>
drugbank

> <SMILES>
C[C@@H](NCCCC[C@H](N)C(O)=O)C(O)=O

> <INCHI_IDENTIFIER>
InChI=1S/C9H18N2O4/c1-6(8(12)13)11-5-3-2-4-7(10)9(14)15/h6-7,11H,2-5,10H2,1H3,(H,12,13)(H,14,15)/t6-,7+/m1/s1

> <INCHI_KEY>
XCYPSOHOIAZISD-RQJHMYQMSA-N

> <FORMULA>
C9H18N2O4

> <MOLECULAR_WEIGHT>
218.2502

> <EXACT_MASS>
218.126657074

> <JCHEM_ACCEPTOR_COUNT>
6

> <JCHEM_ATOM_COUNT>
33

> <JCHEM_AVERAGE_NEUTRAL_MICROSPECIES_CHARGE>
-0.0034050598642471064

> <JCHEM_AVERAGE_POLARIZABILITY>
22.995835414350474

> <JCHEM_BIOAVAILABILITY>
1

> <JCHEM_DONOR_COUNT>
4

> <JCHEM_FORMAL_CHARGE>
0

> <JCHEM_GHOSE_FILTER>
0

> <JCHEM_IUPAC>
(2S)-2-amino-6-{[(1R)-1-carboxyethyl]amino}hexanoic acid

> <ALOGPS_LOGP>
-2.54

> <JCHEM_LOGP>
-4.964955333600096

> <ALOGPS_LOGS>
-1.18

> <JCHEM_MDDR_LIKE_RULE>
0

> <JCHEM_NEUTRAL_CHARGE>
0

> <JCHEM_NUMBER_OF_RINGS>
0

> <JCHEM_PHYSIOLOGICAL_CHARGE>
0

> <JCHEM_PKA>
2.563977383464328

> <JCHEM_PKA_STRONGEST_ACIDIC>
1.6608359987284407

> <JCHEM_PKA_STRONGEST_BASIC>
10.679503560662862

> <JCHEM_POLAR_SURFACE_AREA>
112.65

> <JCHEM_REFRACTIVITY>
53.162600000000005

> <JCHEM_ROTATABLE_BOND_COUNT>
8

> <JCHEM_RULE_OF_FIVE>
1

> <ALOGPS_SOLUBILITY>
1.43e+01 g/l

> <JCHEM_TRADITIONAL_IUPAC>
biotin

> <JCHEM_VEBER_RULE>
0

> <DRUGBANK_ID>
DB02370

> <SECONDARY_ACCESSION_NUMBERS>
EXPT02135

> <DRUG_GROUPS>
experimental

> <GENERIC_NAME>
Nz-(1-Carboxyethyl)-Lysine

$$$$
