
  Mrv0541 05041402142D          

 18 20  0  0  0  0            999 V2000
    0.0000    4.9500    0.0000 C   0  0  0  0  0  0  0  0  0  0  0  0
   -0.7145    4.5375    0.0000 C   0  0  0  0  0  0  0  0  0  0  0  0
    0.7145    4.5375    0.0000 C   0  0  0  0  0  0  0  0  0  0  0  0
    0.7145    1.2375    0.0000 C   0  0  0  0  0  0  0  0  0  0  0  0
    1.4289    0.8250    0.0000 C   0  0  0  0  0  0  0  0  0  0  0  0
    3.5724    1.2375    0.0000 C   0  0  0  0  0  0  0  0  0  0  0  0
    3.5724    2.0625    0.0000 C   0  0  0  0  0  0  0  0  0  0  0  0
   -0.7145    3.7125    0.0000 C   0  0  0  0  0  0  0  0  0  0  0  0
    0.7145    3.7125    0.0000 C   0  0  0  0  0  0  0  0  0  0  0  0
    1.4289    2.4750    0.0000 C   0  0  0  0  0  0  0  0  0  0  0  0
    0.7145    2.0625    0.0000 C   0  0  0  0  0  0  0  0  0  0  0  0
    2.1434    1.2375    0.0000 C   0  0  0  0  0  0  0  0  0  0  0  0
    2.1434    2.0625    0.0000 C   0  0  0  0  0  0  0  0  0  0  0  0
    0.0000    2.4750    0.0000 C   0  0  0  0  0  0  0  0  0  0  0  0
    2.8579    0.8250    0.0000 N   0  0  0  0  0  0  0  0  0  0  0  0
    2.8579    2.4750    0.0000 N   0  0  0  0  0  0  0  0  0  0  0  0
    0.0000    3.3000    0.0000 N   0  0  0  0  0  0  0  0  0  0  0  0
   -0.7145    2.0625    0.0000 O   0  0  0  0  0  0  0  0  0  0  0  0
  2  1  1  0  0  0  0
  3  1  1  0  0  0  0
  5  4  2  0  0  0  0
  7  6  1  0  0  0  0
  8  2  1  0  0  0  0
  9  3  1  0  0  0  0
 11  4  1  0  0  0  0
 11 10  2  0  0  0  0
 12  5  1  0  0  0  0
 13 10  1  0  0  0  0
 13 12  2  0  0  0  0
 14 11  1  0  0  0  0
 15  6  2  0  0  0  0
 15 12  1  0  0  0  0
 16  7  2  0  0  0  0
 16 13  1  0  0  0  0
 17  8  1  0  0  0  0
 17  9  1  0  0  0  0
 17 14  1  0  0  0  0
 18 14  2  0  0  0  0
M  END
> <DATABASE_ID>
DB06247

> <DATABASE_NAME>
drugbank

> <SMILES>
O=C(N1CCCCC1)C1=CC2=C(C=C1)N=CC=N2

> <INCHI_IDENTIFIER>
InChI=1S/C14H15N3O/c18-14(17-8-2-1-3-9-17)11-4-5-12-13(10-11)16-7-6-15-12/h4-7,10H,1-3,8-9H2

> <INCHI_KEY>
ANDGGVOPIJEHOF-UHFFFAOYSA-N

> <FORMULA>
C14H15N3O

> <MOLECULAR_WEIGHT>
241.2884

> <EXACT_MASS>
241.121512117

> <JCHEM_ACCEPTOR_COUNT>
3

> <JCHEM_ATOM_COUNT>
33

> <JCHEM_AVERAGE_NEUTRAL_MICROSPECIES_CHARGE>
1.239189310477609e-06

> <JCHEM_AVERAGE_POLARIZABILITY>
26.12696655498546

> <JCHEM_BIOAVAILABILITY>
1

> <JCHEM_DONOR_COUNT>
0

> <JCHEM_FORMAL_CHARGE>
0

> <JCHEM_GHOSE_FILTER>
1

> <JCHEM_IUPAC>
6-(piperidine-1-carbonyl)quinoxaline

> <ALOGPS_LOGP>
1.56

> <JCHEM_LOGP>
1.4474369273333334

> <ALOGPS_LOGS>
-2.46

> <JCHEM_MDDR_LIKE_RULE>
0

> <JCHEM_NEUTRAL_CHARGE>
0

> <JCHEM_NUMBER_OF_RINGS>
3

> <JCHEM_PHYSIOLOGICAL_CHARGE>
0

> <JCHEM_PKA_STRONGEST_BASIC>
1.1262504140133083

> <JCHEM_POLAR_SURFACE_AREA>
46.09

> <JCHEM_REFRACTIVITY>
68.46419999999999

> <JCHEM_ROTATABLE_BOND_COUNT>
1

> <JCHEM_RULE_OF_FIVE>
1

> <ALOGPS_SOLUBILITY>
8.31e-01 g/l

> <JCHEM_TRADITIONAL_IUPAC>
biotin

> <JCHEM_VEBER_RULE>
0

> <DRUGBANK_ID>
DB06247

> <DRUG_GROUPS>
investigational

> <GENERIC_NAME>
CX516

> <INTERNATIONAL_BRANDS>
Ampalex

$$$$
