
  Mrv0541 02241214382D          

  5  3  0  0  0  0            999 V2000
   -1.2828   -1.1224    0.0000 Mg  0  2  0  0  0  0  0  0  0  0  0  0
    0.5610   -0.0798    0.0000 O   0  0  0  0  0  0  0  0  0  0  0  0
    0.5610    0.7214    0.0000 C   0  0  0  0  0  0  0  0  0  0  0  0
    1.2828    1.1224    0.0000 O   0  5  0  0  0  0  0  0  0  0  0  0
   -0.1600    1.1224    0.0000 O   0  5  0  0  0  0  0  0  0  0  0  0
  2  3  2  0  0  0  0
  3  4  1  0  0  0  0
  3  5  1  0  0  0  0
M  CHG  3   1   2   4  -1   5  -1
M  END
> <DATABASE_ID>
DB09481

> <DATABASE_NAME>
drugbank

> <SMILES>
[Mg++].[O-]C([O-])=O

> <INCHI_IDENTIFIER>
InChI=1S/CH2O3.Mg/c2-1(3)4;/h(H2,2,3,4);/q;+2/p-2

> <INCHI_KEY>
ZLNQQNXFFQJAID-UHFFFAOYSA-L

> <FORMULA>
CMgO3

> <MOLECULAR_WEIGHT>
84.314

> <EXACT_MASS>
83.969785764

> <JCHEM_ACCEPTOR_COUNT>
3

> <JCHEM_ATOM_COUNT>
5

> <JCHEM_AVERAGE_NEUTRAL_MICROSPECIES_CHARGE>
-1.0006337308913795

> <JCHEM_AVERAGE_POLARIZABILITY>
3.5154502773846943

> <JCHEM_BIOAVAILABILITY>
1

> <JCHEM_DONOR_COUNT>
0

> <JCHEM_FORMAL_CHARGE>
0

> <JCHEM_GHOSE_FILTER>
0

> <JCHEM_IUPAC>
magnesium(2+) carbonate

> <ALOGPS_LOGP>
0.52

> <JCHEM_LOGP>
0.25005136566666664

> <ALOGPS_LOGS>
0.21

> <JCHEM_MDDR_LIKE_RULE>
0

> <JCHEM_NEUTRAL_CHARGE>
-1

> <JCHEM_NUMBER_OF_RINGS>
0

> <JCHEM_PHYSIOLOGICAL_CHARGE>
-1

> <JCHEM_PKA>
10.322599505540001

> <JCHEM_PKA_STRONGEST_ACIDIC>
3.501076428435099

> <JCHEM_POLAR_SURFACE_AREA>
63.19

> <JCHEM_REFRACTIVITY>
31.172400000000003

> <JCHEM_ROTATABLE_BOND_COUNT>
0

> <JCHEM_RULE_OF_FIVE>
1

> <ALOGPS_SOLUBILITY>
2.26e+02 g/l

> <JCHEM_TRADITIONAL_IUPAC>
tetrahydrofolic acid

> <JCHEM_VEBER_RULE>
0

> <DRUGBANK_ID>
DB09481

> <DRUG_GROUPS>
approved; investigational

> <GENERIC_NAME>
Magnesium carbonate

> <SYNONYMS>
Magnesio carbonato

> <PRODUCTS>
Acid Gone Antacid; Acid Gone Antacid Extra Strength; Aluminum hydroxide and Magnesium carbonate; Antacid; Antacid - Tab; Antacid Extra Strength; Aspirin Plus Stomach Guard Ext.stgth.caplet; Aspirin Plus Stomach Guard Extra Strength; Aspirin Plus Stomach Guard Tab; Aspirin With Stomach Guard; Aspirin With Stomach Guard Extra Strength - Tab; Bem Bio Antiperspirant floral; Bem Bio Antiperspirant forest trails; Bem Bio Antiperspirant original; Bem Bio Antiperspirant sea breeze; Bem Bio Antiperspirant unscented; Buffered Vitamin C Plus Magnesium; Buffered Vitamin C Powder With Ca Mg and K; Buffered Vitamin C Pwr W Cal-mag-potassium; CVS Health Extra Strength Antacid; CVS Health Extra Strength Heartburn Relief Antacid Original Flavor; Cal Mag Tab; Calcium & Magnesium Tablets; Calcium Et Magnesium Tab; Calcium and Magnesium Tab; Calmax; Cepasium Tab 100mg; Dol Mite Tab; Dolomite 1280mg; Equate antacid extra strength; Estomarol; Extra Strength Antacid; Extra Strength Antacid Original Flavor; Extra Strength Heartburn Relief; Extra Strength Heartburn Relief Antacid; FAST ACTING Heartburn Relief; Flexadyn Tab; Foamcoat Antacid; GOOD NEIGHBOR PHARMACY Antacid Extra Strength; Gavis-care Antacid; Gaviscon; Gaviscon Extra Strength; Gaviscon Heartburn Relief Liquid; Gaviscon Heartburn Relief Tablets; HEB Extra Strength Cherry Flavor; HEB Extra Strength Cool Mint; HEB Extra Strength Original Flavor; Heartburn Relief; Humco Dewees Carminative; Inon; Isotonix Advanced B-complex Vitamins With Potassium and Magnesium; Isotonix Vitamin B-folic Acid-mineral Supple; Kroger Extra Strength; Maalox Antacid Caplets; Maalox Hrf Suspension; Mag/cal 1:1 Capsules W Vitamin D; MagneBind 300; MagneBind 400 Rx; Magnesium Comprime Tab; Meijer Extra Strength Original Flavor; Multi-min Electro C Pow Plus B2; Natura Magnesium Plus Vitamin C; Premier Value Extra Strength Original Flavor; Renacidin; Riginic Antacid Liquid; Rite Aid Extra Strength; Rx Act Antacid Extra Strength; SohMed Acid Reducer; Stomachin Antacid; Sunmark antacid extra strength; Tri-buffered Asa Tab; Vita - Gl Capsules; Vital Be-100; Walgreens Fast Acting Heartburn Relief Extra Strength; equate Extra Strength Antacid; leader Antacid Extra Strength

> <SALTS>
Magnesium carbonate basic

$$$$
