
  Mrv0541 02241213272D          

 30 34  0  0  0  0            999 V2000
    2.7323    0.0000    0.0000 C   0  0  0  0  0  0  0  0  0  0  0  0
    2.7323   -0.8197    0.0000 C   0  0  0  0  0  0  0  0  0  0  0  0
    2.0205   -1.2367    0.0000 C   0  0  0  0  0  0  0  0  0  0  0  0
    2.0205   -2.0565    0.0000 C   0  0  0  0  0  0  0  0  0  0  0  0
    2.7323   -2.4735    0.0000 C   0  0  0  0  0  0  0  0  0  0  0  0
    3.4514   -2.0565    0.0000 C   0  0  0  0  0  0  0  0  0  0  0  0
    3.4514   -1.2367    0.0000 C   0  0  0  0  0  0  0  0  0  0  0  0
    4.2351   -0.9779    0.0000 N   0  0  0  0  0  0  0  0  0  0  0  0
    4.7169   -1.6466    0.0000 C   0  0  0  0  0  0  0  0  0  0  0  0
    4.2351   -2.3153    0.0000 N   0  0  0  0  0  0  0  0  0  0  0  0
    5.5438   -1.6466    0.0000 C   0  0  0  0  0  0  0  0  0  0  0  0
    5.9537   -2.3585    0.0000 C   0  0  0  0  0  0  0  0  0  0  0  0
    6.7805   -2.3585    0.0000 C   0  0  0  0  0  0  0  0  0  0  0  0
    7.1904   -1.6466    0.0000 C   0  0  0  0  0  0  0  0  0  0  0  0
    6.7805   -0.9347    0.0000 N   0  0  0  0  0  0  0  0  0  0  0  0
    5.9537   -0.9347    0.0000 C   0  0  0  0  0  0  0  0  0  0  0  0
    5.5438   -0.2157    0.0000 O   0  0  0  0  0  0  0  0  0  0  0  0
    5.5438   -3.0775    0.0000 N   0  0  0  0  0  0  0  0  0  0  0  0
    5.9537   -3.7894    0.0000 C   0  0  0  0  0  0  0  0  0  0  0  0
    5.5438   -4.5012    0.0000 C   0  0  0  0  0  0  0  0  0  0  0  0
    4.7169   -4.5012    0.0000 C   0  0  0  0  0  0  0  0  0  0  0  0
    4.3071   -5.2202    0.0000 C   0  0  0  0  0  0  0  0  0  0  0  0
    4.7169   -5.9321    0.0000 C   0  0  0  0  0  0  0  0  0  0  0  0
    5.5438   -5.9321    0.0000 C   0  0  0  0  0  0  0  0  0  0  0  0
    5.9537   -5.2202    0.0000 N   0  0  0  0  0  0  0  0  0  0  0  0
    1.3087   -2.4735    0.0000 N   0  0  0  0  0  0  0  0  0  0  0  0
    0.5537   -2.1356    0.0000 C   0  0  0  0  0  0  0  0  0  0  0  0
    0.0000   -2.7467    0.0000 C   0  0  0  0  0  0  0  0  0  0  0  0
    0.4098   -3.4658    0.0000 N   0  0  0  0  0  0  0  0  0  0  0  0
    1.2224   -3.2932    0.0000 C   0  0  0  0  0  0  0  0  0  0  0  0
  1  2  1  0  0  0  0
  2  3  2  0  0  0  0
  2  7  1  0  0  0  0
  3  4  1  0  0  0  0
  4  5  2  0  0  0  0
  4 26  1  0  0  0  0
  5  6  1  0  0  0  0
  6  7  2  0  0  0  0
  6 10  1  0  0  0  0
  7  8  1  0  0  0  0
  8  9  2  0  0  0  0
  9 10  1  0  0  0  0
  9 11  1  0  0  0  0
 11 12  2  0  0  0  0
 11 16  1  0  0  0  0
 12 13  1  0  0  0  0
 12 18  1  0  0  0  0
 13 14  2  0  0  0  0
 14 15  1  0  0  0  0
 15 16  1  0  0  0  0
 16 17  2  0  0  0  0
 18 19  1  0  0  0  0
 19 20  1  0  0  0  0
 20 21  1  0  0  0  0
 20 25  2  0  0  0  0
 21 22  2  0  0  0  0
 22 23  1  0  0  0  0
 23 24  2  0  0  0  0
 24 25  1  0  0  0  0
 26 27  1  0  0  0  0
 26 30  1  0  0  0  0
 27 28  2  0  0  0  0
 28 29  1  0  0  0  0
 29 30  2  0  0  0  0
M  END
> <DATABASE_ID>
DB07474

> <DATABASE_NAME>
drugbank

> <SMILES>
CC1=CC(=CC2=C1N=C(N2)C1=C(NCC2=NC=CC=C2)C=CNC1=O)N1C=CN=C1

> <INCHI_IDENTIFIER>
InChI=1S/C22H19N7O/c1-14-10-16(29-9-8-23-13-29)11-18-20(14)28-21(27-18)19-17(5-7-25-22(19)30)26-12-15-4-2-3-6-24-15/h2-11,13H,12H2,1H3,(H,27,28)(H2,25,26,30)

> <INCHI_KEY>
GLTRPHMPCVLOJS-UHFFFAOYSA-N

> <FORMULA>
C22H19N7O

> <MOLECULAR_WEIGHT>
397.4326

> <EXACT_MASS>
397.165108265

> <JCHEM_ACCEPTOR_COUNT>
5

> <JCHEM_ATOM_COUNT>
49

> <JCHEM_AVERAGE_NEUTRAL_MICROSPECIES_CHARGE>
0.09136305587108083

> <JCHEM_AVERAGE_POLARIZABILITY>
42.73430154244941

> <JCHEM_BIOAVAILABILITY>
1

> <JCHEM_DONOR_COUNT>
3

> <JCHEM_FORMAL_CHARGE>
0

> <JCHEM_GHOSE_FILTER>
1

> <JCHEM_IUPAC>
3-[6-(1H-imidazol-1-yl)-4-methyl-1H-1,3-benzodiazol-2-yl]-4-{[(pyridin-2-yl)methyl]amino}-1,2-dihydropyridin-2-one

> <ALOGPS_LOGP>
1.79

> <JCHEM_LOGP>
1.6099971453333333

> <ALOGPS_LOGS>
-4.12

> <JCHEM_MDDR_LIKE_RULE>
0

> <JCHEM_NEUTRAL_CHARGE>
0

> <JCHEM_NUMBER_OF_RINGS>
5

> <JCHEM_PHYSIOLOGICAL_CHARGE>
0

> <JCHEM_PKA>
11.11823697107677

> <JCHEM_PKA_STRONGEST_ACIDIC>
8.96988979675783

> <JCHEM_PKA_STRONGEST_BASIC>
6.054286717330199

> <JCHEM_POLAR_SURFACE_AREA>
100.52

> <JCHEM_REFRACTIVITY>
124.1326

> <JCHEM_ROTATABLE_BOND_COUNT>
5

> <JCHEM_RULE_OF_FIVE>
1

> <ALOGPS_SOLUBILITY>
3.02e-02 g/l

> <JCHEM_TRADITIONAL_IUPAC>
biotin

> <JCHEM_VEBER_RULE>
0

> <DRUGBANK_ID>
DB07474

> <DRUG_GROUPS>
experimental

> <GENERIC_NAME>
3-[5-(1H-IMIDAZOL-1-YL)-7-METHYL-1H-BENZIMIDAZOL-2-YL]-4-[(PYRIDIN-2-YLMETHYL)AMINO]PYRIDIN-2(1H)-ONE

$$$$
