
  Mrv0541 02231217222D          

 34 38  0  0  0  0            999 V2000
   -4.1491  -10.3213    0.0000 C   0  0  0  0  0  0  0  0  0  0  0  0
   -4.1492   -9.4963    0.0000 N   0  0  0  0  0  0  0  0  0  0  0  0
   -4.8637   -9.0838    0.0000 C   0  0  0  0  0  0  0  0  0  0  0  0
   -3.4347   -9.0837    0.0000 C   0  0  0  0  0  0  0  0  0  0  0  0
   -2.7202   -9.4962    0.0000 C   0  0  0  0  0  0  0  0  0  0  0  0
   -2.0058   -9.0837    0.0000 C   0  0  0  0  0  0  0  0  0  0  0  0
   -2.0058   -8.2587    0.0000 C   0  0  0  0  0  0  0  0  0  0  0  0
   -2.7203   -7.8462    0.0000 C   0  0  0  0  0  0  0  0  0  0  0  0
   -3.4348   -8.2587    0.0000 C   0  0  0  0  0  0  0  0  0  0  0  0
   -4.1493   -7.8463    0.0000 C   0  0  0  0  0  0  0  0  0  0  0  0
   -4.1493   -7.0213    0.0000 C   0  0  0  0  0  0  0  0  0  0  0  0
   -3.4349   -6.6087    0.0000 C   0  0  0  0  0  0  0  0  0  0  0  0
   -2.7204   -7.0212    0.0000 C   0  0  0  0  0  0  0  0  0  0  0  0
   -2.0059   -6.6087    0.0000 S   0  0  0  0  0  0  0  0  0  0  0  0
   -1.5934   -7.3231    0.0000 O   0  0  0  0  0  0  0  0  0  0  0  0
   -2.4185   -5.8942    0.0000 O   0  0  0  0  0  0  0  0  0  0  0  0
   -1.2915   -6.1961    0.0000 N   0  0  0  0  0  0  0  0  0  0  0  0
   -1.2915   -5.3711    0.0000 C   0  0  0  0  0  0  0  0  0  0  0  0
   -0.5771   -4.9586    0.0000 C   0  0  0  0  0  0  0  0  0  0  0  0
   -0.5771   -4.1336    0.0000 C   0  0  0  0  0  0  0  0  0  0  0  0
    0.1373   -3.7210    0.0000 C   0  0  0  0  0  0  0  0  0  0  0  0
    0.1373   -2.8960    0.0000 N   0  0  0  0  0  0  0  0  0  0  0  0
    0.8517   -2.4835    0.0000 C   0  0  0  0  0  0  0  0  0  0  0  0
    1.5662   -2.8960    0.0000 O   0  0  0  0  0  0  0  0  0  0  0  0
    0.8517   -1.6585    0.0000 C   0  0  2  0  0  0  0  0  0  0  0  0
    0.1163   -2.0322    0.0000 C   0  0  0  0  0  0  0  0  0  0  0  0
    0.5657   -1.2419    0.0000 C   0  0  1  0  0  0  0  0  0  0  0  0
    1.3012   -1.6156    0.0000 C   0  0  0  0  0  0  0  0  0  0  0  0
    2.0368   -1.2419    0.0000 C   0  0  2  0  0  0  0  0  0  0  0  0
    2.0368   -0.4945    0.0000 C   0  0  0  0  0  0  0  0  0  0  0  0
    1.3012   -0.1208    0.0000 C   0  0  2  0  0  0  0  0  0  0  0  0
    0.5657   -0.4945    0.0000 C   0  0  0  0  0  0  0  0  0  0  0  0
    0.8517   -0.9111    0.0000 C   0  0  0  0  0  0  0  0  0  0  0  0
    1.5873   -2.0322    0.0000 C   0  0  0  0  0  0  0  0  0  0  0  0
  1  2  1  0  0  0  0
  2  3  1  0  0  0  0
  2  4  1  0  0  0  0
  4  5  2  0  0  0  0
  5  6  1  0  0  0  0
  6  7  2  0  0  0  0
  7  8  1  0  0  0  0
  8  9  2  0  0  0  0
  4  9  1  0  0  0  0
  9 10  1  0  0  0  0
 10 11  2  0  0  0  0
 11 12  1  0  0  0  0
 12 13  2  0  0  0  0
  8 13  1  0  0  0  0
 13 14  1  0  0  0  0
 14 15  2  0  0  0  0
 14 16  2  0  0  0  0
 14 17  1  0  0  0  0
 17 18  1  0  0  0  0
 18 19  1  0  0  0  0
 19 20  1  0  0  0  0
 20 21  1  0  0  0  0
 21 22  1  0  0  0  0
 22 23  1  0  0  0  0
 23 24  2  0  0  0  0
 25 23  1  6  0  0  0
 25 26  1  0  0  0  0
 27 26  1  6  0  0  0
 27 28  1  0  0  0  0
 29 28  1  1  0  0  0
 25 34  1  0  0  0  0
 31 30  1  1  0  0  0
 31 32  1  0  0  0  0
 29 34  1  0  0  0  0
 31 33  1  0  0  0  0
 25 33  1  0  0  0  0
 27 32  1  0  0  0  0
 29 30  1  0  0  0  0
M  END
> <DATABASE_ID>
DB04032

> <DATABASE_NAME>
drugbank

> <SMILES>
CN(C)C1=CC=CC2=C1C=CC=C2S(=O)(=O)NCCCCNC(=O)C12CC3CC(CC(C3)C1)C2

> <INCHI_IDENTIFIER>
InChI=1S/C27H37N3O3S/c1-30(2)24-9-5-8-23-22(24)7-6-10-25(23)34(32,33)29-12-4-3-11-28-26(31)27-16-19-13-20(17-27)15-21(14-19)18-27/h5-10,19-21,29H,3-4,11-18H2,1-2H3,(H,28,31)/t19-,20+,21-,27-

> <INCHI_KEY>
RCSLIFYNVZXHOC-PHWDIDRRSA-N

> <FORMULA>
C27H37N3O3S

> <MOLECULAR_WEIGHT>
483.666

> <EXACT_MASS>
483.255562755

> <JCHEM_ACCEPTOR_COUNT>
4

> <JCHEM_ATOM_COUNT>
71

> <JCHEM_AVERAGE_NEUTRAL_MICROSPECIES_CHARGE>
0.0030174284136463294

> <JCHEM_AVERAGE_POLARIZABILITY>
55.05860526831291

> <JCHEM_BIOAVAILABILITY>
1

> <JCHEM_DONOR_COUNT>
2

> <JCHEM_FORMAL_CHARGE>
0

> <JCHEM_GHOSE_FILTER>
0

> <JCHEM_IUPAC>
(3R,5S,7s)-N-{4-[5-(dimethylamino)naphthalene-1-sulfonamido]butyl}adamantane-1-carboxamide

> <ALOGPS_LOGP>
4.03

> <JCHEM_LOGP>
4.1027804743333345

> <ALOGPS_LOGS>
-5.53

> <JCHEM_MDDR_LIKE_RULE>
1

> <JCHEM_NEUTRAL_CHARGE>
0

> <JCHEM_NUMBER_OF_RINGS>
5

> <JCHEM_PHYSIOLOGICAL_CHARGE>
0

> <JCHEM_PKA>
15.356868450494492

> <JCHEM_PKA_STRONGEST_ACIDIC>
9.913939422710316

> <JCHEM_PKA_STRONGEST_BASIC>
4.62870819686039

> <JCHEM_POLAR_SURFACE_AREA>
78.51

> <JCHEM_REFRACTIVITY>
136.63959999999997

> <JCHEM_ROTATABLE_BOND_COUNT>
8

> <JCHEM_RULE_OF_FIVE>
1

> <ALOGPS_SOLUBILITY>
1.43e-03 g/l

> <JCHEM_TRADITIONAL_IUPAC>
tetrahydrofolic acid

> <JCHEM_VEBER_RULE>
0

> <DRUGBANK_ID>
DB04032

> <SECONDARY_ACCESSION_NUMBERS>
EXPT01125

> <DRUG_GROUPS>
experimental

> <GENERIC_NAME>
Adamantane-1-Carboxylic Acid-5-Dimethylamino-Naphthalene-1-Sulfonylamino-Butyl-Amide

$$$$
