
  Mrv0541 02231216162D          

 10  9  0  0  1  0            999 V2000
    3.1895    2.6664    0.0000 C   0  0  0  0  0  0  0  0  0  0  0  0
    3.1895    1.8414    0.0000 C   0  0  2  0  0  0  0  0  0  0  0  0
    2.4750    1.4289    0.0000 C   0  0  0  0  0  0  0  0  0  0  0  0
    1.7605    1.8414    0.0000 F   0  0  0  0  0  0  0  0  0  0  0  0
    3.9039    1.4289    0.0000 C   0  0  0  0  0  0  0  0  0  0  0  0
    4.6184    1.8414    0.0000 C   0  0  2  0  0  0  0  0  0  0  0  0
    4.6184    2.6664    0.0000 N   0  0  0  0  0  0  0  0  0  0  0  0
    5.3329    1.4289    0.0000 C   0  0  0  0  0  0  0  0  0  0  0  0
    6.0474    1.8414    0.0000 O   0  0  0  0  0  0  0  0  0  0  0  0
    5.3329    0.6039    0.0000 O   0  0  0  0  0  0  0  0  0  0  0  0
  2  1  1  1  0  0  0
  2  3  1  0  0  0  0
  3  4  1  0  0  0  0
  2  5  1  0  0  0  0
  5  6  1  0  0  0  0
  6  7  1  6  0  0  0
  6  8  1  0  0  0  0
  8  9  1  0  0  0  0
  8 10  2  0  0  0  0
M  END
> <DATABASE_ID>
DB02542

> <DATABASE_NAME>
drugbank

> <SMILES>
C[C@H](CF)C[C@H](N)C(O)=O

> <INCHI_IDENTIFIER>
InChI=1S/C6H12FNO2/c1-4(3-7)2-5(8)6(9)10/h4-5H,2-3,8H2,1H3,(H,9,10)/t4-,5-/m0/s1

> <INCHI_KEY>
FHOARJRQRXAPOF-WHFBIAKZSA-N

> <FORMULA>
C6H12FNO2

> <MOLECULAR_WEIGHT>
149.1634

> <EXACT_MASS>
149.085206838

> <JCHEM_ACCEPTOR_COUNT>
3

> <JCHEM_ATOM_COUNT>
22

> <JCHEM_AVERAGE_NEUTRAL_MICROSPECIES_CHARGE>
-0.003006128700628885

> <JCHEM_AVERAGE_POLARIZABILITY>
14.416600418552614

> <JCHEM_BIOAVAILABILITY>
1

> <JCHEM_DONOR_COUNT>
2

> <JCHEM_FORMAL_CHARGE>
0

> <JCHEM_GHOSE_FILTER>
0

> <JCHEM_IUPAC>
(2S,4S)-2-amino-5-fluoro-4-methylpentanoic acid

> <ALOGPS_LOGP>
-2.36

> <JCHEM_LOGP>
-2.0543140695515367

> <ALOGPS_LOGS>
-0.38

> <JCHEM_MDDR_LIKE_RULE>
0

> <JCHEM_NEUTRAL_CHARGE>
0

> <JCHEM_NUMBER_OF_RINGS>
0

> <JCHEM_PHYSIOLOGICAL_CHARGE>
0

> <JCHEM_PKA_STRONGEST_ACIDIC>
2.521230696066259

> <JCHEM_PKA_STRONGEST_BASIC>
9.515903621251839

> <JCHEM_POLAR_SURFACE_AREA>
63.32

> <JCHEM_REFRACTIVITY>
34.33050000000001

> <JCHEM_ROTATABLE_BOND_COUNT>
4

> <JCHEM_RULE_OF_FIVE>
1

> <ALOGPS_SOLUBILITY>
6.20e+01 g/l

> <JCHEM_TRADITIONAL_IUPAC>
biotin

> <JCHEM_VEBER_RULE>
0

> <DRUGBANK_ID>
DB02542

> <SECONDARY_ACCESSION_NUMBERS>
EXPT02018

> <DRUG_GROUPS>
experimental

> <GENERIC_NAME>
(4s)-5-Fluoro-L-Leucine

$$$$
