
  Mrv0541 05031423412D          

 16 16  0  0  1  0            999 V2000
    1.4289   -0.0000    0.0000 C   0  0  0  0  0  0  0  0  0  0  0  0
    2.1434    1.2375    0.0000 C   0  0  0  0  0  0  0  0  0  0  0  0
    1.4289    0.8250    0.0000 C   0  0  0  0  0  0  0  0  0  0  0  0
    0.7145   -0.4125    0.0000 C   0  0  1  0  0  0  0  0  0  0  0  0
    0.7145    1.2375    0.0000 C   0  0  2  0  0  0  0  0  0  0  0  0
    0.0000   -0.0000    0.0000 C   0  0  1  0  0  0  0  0  0  0  0  0
    0.0000    0.8250    0.0000 C   0  0  1  0  0  0  0  0  0  0  0  0
    0.7145   -1.2375    0.0000 N   0  0  0  0  0  0  0  0  0  0  0  0
    2.1434    2.0625    0.0000 O   0  0  0  0  0  0  0  0  0  0  0  0
    0.7145    2.0625    0.0000 O   0  0  0  0  0  0  0  0  0  0  0  0
   -0.7145   -0.4125    0.0000 O   0  0  0  0  0  0  0  0  0  0  0  0
   -0.7145    1.2375    0.0000 O   0  0  0  0  0  0  0  0  0  0  0  0
    1.4289   -0.8250    0.0000 H   0  0  0  0  0  0  0  0  0  0  0  0
    1.4289    1.6500    0.0000 H   0  0  0  0  0  0  0  0  0  0  0  0
    0.0000   -0.8250    0.0000 H   0  0  0  0  0  0  0  0  0  0  0  0
    0.0000    1.6500    0.0000 H   0  0  0  0  0  0  0  0  0  0  0  0
  3  1  2  0  0  0  0
  3  2  1  0  0  0  0
  4  1  1  0  0  0  0
  5  3  1  0  0  0  0
  6  4  1  0  0  0  0
  7  5  1  0  0  0  0
  7  6  1  0  0  0  0
  4  8  1  6  0  0  0
  9  2  1  0  0  0  0
  5 10  1  6  0  0  0
  6 11  1  6  0  0  0
  7 12  1  1  0  0  0
  4 13  1  1  0  0  0
  5 14  1  1  0  0  0
  6 15  1  1  0  0  0
  7 16  1  6  0  0  0
M  END
> <DATABASE_ID>
DB02120

> <DATABASE_NAME>
drugbank

> <SMILES>
[H][C@]1(N)C=C(CO)[C@@]([H])(O)[C@]([H])(O)[C@@]1([H])O

> <INCHI_IDENTIFIER>
InChI=1S/C7H13NO4/c8-4-1-3(2-9)5(10)7(12)6(4)11/h1,4-7,9-12H,2,8H2/t4-,5+,6-,7-/m0/s1

> <INCHI_KEY>
XPHOBMULWMGEBA-VZFHVOOUSA-N

> <FORMULA>
C7H13NO4

> <MOLECULAR_WEIGHT>
175.1824

> <EXACT_MASS>
175.084457909

> <JCHEM_ACCEPTOR_COUNT>
5

> <JCHEM_ATOM_COUNT>
25

> <JCHEM_AVERAGE_NEUTRAL_MICROSPECIES_CHARGE>
0.9527274254034158

> <JCHEM_AVERAGE_POLARIZABILITY>
16.942657206023192

> <JCHEM_BIOAVAILABILITY>
1

> <JCHEM_DONOR_COUNT>
5

> <JCHEM_FORMAL_CHARGE>
0

> <JCHEM_GHOSE_FILTER>
0

> <JCHEM_IUPAC>
(1S,2S,3R,6S)-6-amino-4-(hydroxymethyl)cyclohex-4-ene-1,2,3-triol

> <ALOGPS_LOGP>
-2.34

> <JCHEM_LOGP>
-3.138415776333333

> <ALOGPS_LOGS>
0.29

> <JCHEM_MDDR_LIKE_RULE>
0

> <JCHEM_NEUTRAL_CHARGE>
1

> <JCHEM_NUMBER_OF_RINGS>
1

> <JCHEM_PHYSIOLOGICAL_CHARGE>
1

> <JCHEM_PKA>
13.90601491264494

> <JCHEM_PKA_STRONGEST_ACIDIC>
12.83233827360179

> <JCHEM_PKA_STRONGEST_BASIC>
8.304374878755935

> <JCHEM_POLAR_SURFACE_AREA>
106.94000000000001

> <JCHEM_REFRACTIVITY>
41.882799999999996

> <JCHEM_ROTATABLE_BOND_COUNT>
1

> <JCHEM_RULE_OF_FIVE>
1

> <ALOGPS_SOLUBILITY>
3.42e+02 g/l

> <JCHEM_TRADITIONAL_IUPAC>
biotin

> <JCHEM_VEBER_RULE>
0

> <DRUGBANK_ID>
DB02120

> <SECONDARY_ACCESSION_NUMBERS>
EXPT00413

> <DRUG_GROUPS>
experimental

> <GENERIC_NAME>
6-Amino-4-Hydroxymethyl-Cyclohex-4-Ene-1,2,3-Triol

$$$$
