
  Mrv0541 02231216292D          

 63 70  0  0  1  0            999 V2000
    1.5167    1.2650    0.0000 C   0  0  0  0  0  0  0  0  0  0  0  0
    1.6353    0.4486    0.0000 C   0  0  1  0  0  0  0  0  0  0  0  0
    0.8109    0.4160    0.0000 C   0  0  0  0  0  0  0  0  0  0  0  0
    0.3705    1.1136    0.0000 C   0  0  0  0  0  0  0  0  0  0  0  0
   -0.4539    1.0810    0.0000 O   0  0  0  0  0  0  0  0  0  0  0  0
    0.7545    1.8438    0.0000 O   0  0  0  0  0  0  0  0  0  0  0  0
    2.4348    0.6519    0.0000 C   0  0  0  0  0  0  0  0  0  0  0  0
    2.9554    1.5893    0.0000 C   0  0  0  0  0  0  0  0  0  0  0  0
    3.6697    2.0020    0.0000 C   0  0  0  0  0  0  0  0  0  0  0  0
    3.9753    2.7684    0.0000 C   0  0  0  0  0  0  0  0  0  0  0  0
    3.5348    3.4660    0.0000 C   0  0  0  0  0  0  0  0  0  0  0  0
    2.7105    3.4334    0.0000 C   0  0  0  0  0  0  0  0  0  0  0  0
    2.2701    4.1310    0.0000 C   0  0  0  0  0  0  0  0  0  0  0  0
    1.4457    4.0984    0.0000 O   0  0  0  0  0  0  0  0  0  0  0  0
    2.6540    4.8612    0.0000 O   0  0  0  0  0  0  0  0  0  0  0  0
    4.7985    2.7146    0.0000 C   0  0  2  0  0  0  0  0  0  0  0  0
    4.7659    3.5390    0.0000 C   0  0  0  0  0  0  0  0  0  0  0  0
    5.6149    2.8332    0.0000 C   0  0  0  0  0  0  0  0  0  0  0  0
    5.9205    3.5995    0.0000 C   0  0  0  0  0  0  0  0  0  0  0  0
    5.4095    4.2473    0.0000 O   0  0  0  0  0  0  0  0  0  0  0  0
    6.7369    3.7181    0.0000 O   0  0  0  0  0  0  0  0  0  0  0  0
    5.0018    1.9151    0.0000 C   0  0  0  0  0  0  0  0  0  0  0  0
    5.9392    1.3945    0.0000 C   0  0  0  0  0  0  0  0  0  0  0  0
    6.3519    0.6802    0.0000 C   0  0  0  0  0  0  0  0  0  0  0  0
    7.1183    0.3746    0.0000 C   0  0  0  0  0  0  0  0  0  0  0  0
    7.8159    0.8150    0.0000 C   0  0  0  0  0  0  0  0  0  0  0  0
    7.7833    1.6394    0.0000 C   0  0  0  0  0  0  0  0  0  0  0  0
    7.0531    2.0233    0.0000 O   0  0  0  0  0  0  0  0  0  0  0  0
    8.4809    2.0798    0.0000 O   0  0  0  0  0  0  0  0  0  0  0  0
    7.0645   -0.4486    0.0000 C   0  0  0  0  0  0  0  0  0  0  0  0
    7.6989   -0.9760    0.0000 C   0  0  0  0  0  0  0  0  0  0  0  0
    8.4729   -0.6903    0.0000 C   0  0  0  0  0  0  0  0  0  0  0  0
    9.1073   -1.2176    0.0000 C   0  0  0  0  0  0  0  0  0  0  0  0
    9.8812   -0.9319    0.0000 O   0  0  0  0  0  0  0  0  0  0  0  0
    8.9678   -2.0308    0.0000 O   0  0  0  0  0  0  0  0  0  0  0  0
    6.2649   -0.6519    0.0000 C   0  0  0  0  0  0  0  0  0  0  0  0
    5.7444   -1.5893    0.0000 C   0  0  0  0  0  0  0  0  0  0  0  0
    5.0300   -2.0020    0.0000 C   0  0  0  0  0  0  0  0  0  0  0  0
    4.3956   -1.4746    0.0000 N   0  0  0  0  0  0  0  0  0  0  0  0
    3.6980   -1.9151    0.0000 C   0  0  0  0  0  0  0  0  0  0  0  0
    2.7605   -1.3945    0.0000 C   0  0  0  0  0  0  0  0  0  0  0  0
    2.3479   -0.6802    0.0000 C   0  0  0  0  0  0  0  0  0  0  0  0
    2.8752   -0.0457    0.0000 N   0  0  1  0  0  0  0  0  0  0  0  0
    4.3499    0.0000    0.0000 Fe  0  0  1  0  0  0  0  0  0  0  0  0
    4.3042    1.4746    0.0000 N   0  0  2  0  0  0  0  0  0  0  0  0
    5.8245    0.0457    0.0000 N   0  0  0  0  0  0  0  0  0  0  0  0
    1.5815   -0.3746    0.0000 C   0  0  0  0  0  0  0  0  0  0  0  0
    0.8839   -0.8150    0.0000 C   0  0  0  0  0  0  0  0  0  0  0  0
    0.1537   -0.4311    0.0000 C   0  0  0  0  0  0  0  0  0  0  0  0
   -0.5439   -0.8715    0.0000 C   0  0  0  0  0  0  0  0  0  0  0  0
   -0.5113   -1.6958    0.0000 O   0  0  0  0  0  0  0  0  0  0  0  0
   -1.2741   -0.4875    0.0000 O   0  0  0  0  0  0  0  0  0  0  0  0
    3.9013   -2.7146    0.0000 C   0  0  0  0  0  0  0  0  0  0  0  0
    3.3739   -3.3490    0.0000 C   0  0  0  0  0  0  0  0  0  0  0  0
    3.6596   -4.1230    0.0000 C   0  0  0  0  0  0  0  0  0  0  0  0
    4.4727   -4.2625    0.0000 O   0  0  0  0  0  0  0  0  0  0  0  0
    3.1322   -4.7574    0.0000 O   0  0  0  0  0  0  0  0  0  0  0  0
    4.7245   -2.7684    0.0000 C   0  0  0  0  0  0  0  0  0  0  0  0
    5.1649   -3.4660    0.0000 C   0  0  0  0  0  0  0  0  0  0  0  0
    5.9893   -3.4334    0.0000 C   0  0  0  0  0  0  0  0  0  0  0  0
    6.3732   -2.7032    0.0000 C   0  0  0  0  0  0  0  0  0  0  0  0
    5.9328   -2.0056    0.0000 O   0  0  0  0  0  0  0  0  0  0  0  0
    7.1976   -2.6706    0.0000 O   0  0  0  0  0  0  0  0  0  0  0  0
  2  1  1  1  0  0  0
  2  3  1  6  0  0  0
  3  4  1  0  0  0  0
  4  5  1  0  0  0  0
  4  6  2  0  0  0  0
  2  7  1  0  0  0  0
  7  8  2  0  0  0  0
  8  9  1  0  0  0  0
  9 10  2  0  0  0  0
 10 11  1  0  0  0  0
 11 12  1  0  0  0  0
 12 13  1  0  0  0  0
 13 14  1  0  0  0  0
 13 15  2  0  0  0  0
 10 16  1  0  0  0  0
 16 17  1  1  0  0  0
 16 18  1  6  0  0  0
 18 19  1  0  0  0  0
 19 20  1  0  0  0  0
 19 21  2  0  0  0  0
 16 22  1  0  0  0  0
 22 23  2  0  0  0  0
 23 24  1  0  0  0  0
 24 25  2  0  0  0  0
 25 26  1  0  0  0  0
 26 27  1  0  0  0  0
 27 28  1  0  0  0  0
 27 29  2  0  0  0  0
 25 30  1  0  0  0  0
 30 31  1  0  0  0  0
 31 32  1  0  0  0  0
 32 33  1  0  0  0  0
 33 34  1  0  0  0  0
 33 35  2  0  0  0  0
 30 36  2  0  0  0  0
 36 37  1  0  0  0  0
 37 38  2  0  0  0  0
 38 39  1  0  0  0  0
 39 40  1  0  0  0  0
 40 41  2  0  0  0  0
 41 42  1  0  0  0  0
 42 43  1  0  0  0  0
 43  7  1  6  0  0  0
 43 44  1  0  0  0  0
 44 39  1  1  0  0  0
 44 45  1  0  0  0  0
  9 45  1  0  0  0  0
 45 22  1  6  0  0  0
 44 46  1  0  0  0  0
 24 46  1  0  0  0  0
 36 46  1  0  0  0  0
 42 47  2  0  0  0  0
  2 47  1  0  0  0  0
 47 48  1  0  0  0  0
 48 49  1  0  0  0  0
 49 50  1  0  0  0  0
 50 51  1  0  0  0  0
 50 52  2  0  0  0  0
 40 53  1  0  0  0  0
 53 54  1  0  0  0  0
 54 55  1  0  0  0  0
 55 56  1  0  0  0  0
 55 57  2  0  0  0  0
 53 58  2  0  0  0  0
 38 58  1  0  0  0  0
 58 59  1  0  0  0  0
 59 60  1  0  0  0  0
 60 61  1  0  0  0  0
 61 62  1  0  0  0  0
 61 63  2  0  0  0  0
M  END
> <DATABASE_ID>
DB02832

> <DATABASE_NAME>
drugbank

> <SMILES>
C[C@@]1(CC(O)=O)C2=CC3=C(CC(O)=O)C(CCC(O)=O)=C4C=C5N6C(=CC7=C(CCC(O)=O)[C@](C)(CC(O)=O)C8=CC(N2[Fe@]6(N34)N78)=C1CCC(O)=O)C(CC(O)=O)=C5CCC(O)=O

> <INCHI_IDENTIFIER>
InChI=1S/C42H42N4O16.Fe/c1-41(17-39(59)60)23(5-9-35(51)52)29-14-27-21(11-37(55)56)19(3-7-33(47)48)25(43-27)13-26-20(4-8-34(49)50)22(12-38(57)58)28(44-26)15-31-42(2,18-40(61)62)24(6-10-36(53)54)30(46-31)16-32(41)45-29;/h13-16H,3-12,17-18H2,1-2H3,(H,47,48)(H,49,50)(H,51,52)(H,53,54)(H,55,56)(H,57,58)(H,59,60)(H,61,62);/q-4;+4/b25-13-,27-14-,31-15-,32-16-;/t41-,42-;/m0./s1

> <INCHI_KEY>
PGYXHNRRBJLFEV-NBUGCWMUSA-N

> <FORMULA>
C42H42FeN4O16

> <MOLECULAR_WEIGHT>
914.645

> <EXACT_MASS>
914.194523449

> <JCHEM_ACCEPTOR_COUNT>
19

> <JCHEM_ATOM_COUNT>
105

> <JCHEM_AVERAGE_NEUTRAL_MICROSPECIES_CHARGE>
-6.976182903016331

> <JCHEM_AVERAGE_POLARIZABILITY>
91.46173605504721

> <JCHEM_BIOAVAILABILITY>
0

> <JCHEM_DONOR_COUNT>
8

> <JCHEM_FORMAL_CHARGE>
0

> <JCHEM_GHOSE_FILTER>
0

> <JCHEM_IUPAC>
3-[(1R,5S,10S)-9,15,19-tris(2-carboxyethyl)-5,10,14,20-tetrakis(carboxymethyl)-5,10-dimethyl-2,22,23,25-tetraaza-1-ferraoctacyclo[11.9.1.1^{1,8}.1^{3,21}.0^{2,6}.0^{16,23}.0^{18,22}.0^{11,25}]pentacosa-3,6,8,11,13,15,17,19,21(24)-nonaen-4-yl]propanoic acid

> <ALOGPS_LOGP>
1.54

> <JCHEM_LOGP>
-0.6053999999999996

> <ALOGPS_LOGS>
-3.49

> <JCHEM_MDDR_LIKE_RULE>
1

> <JCHEM_NEUTRAL_CHARGE>
-7

> <JCHEM_NUMBER_OF_RINGS>
8

> <JCHEM_PHYSIOLOGICAL_CHARGE>
-7

> <JCHEM_PKA>
2.9931050581552507

> <JCHEM_PKA_STRONGEST_ACIDIC>
2.6229413672126696

> <JCHEM_POLAR_SURFACE_AREA>
313.05

> <JCHEM_REFRACTIVITY>
218.9521000000001

> <JCHEM_ROTATABLE_BOND_COUNT>
20

> <JCHEM_RULE_OF_FIVE>
0

> <ALOGPS_SOLUBILITY>
2.96e-01 g/l

> <JCHEM_TRADITIONAL_IUPAC>
tetrahydrofolic acid

> <JCHEM_VEBER_RULE>
0

> <DRUGBANK_ID>
DB02832

> <SECONDARY_ACCESSION_NUMBERS>
EXPT02954

> <DRUG_GROUPS>
experimental

> <GENERIC_NAME>
Siroheme

$$$$
