
  Mrv0541 05041408532D          

 21 20  0  0  1  0            999 V2000
    2.2836    2.1434    0.0000 C   0  0  0  0  0  0  0  0  0  0  0  0
    9.4283    0.4934    0.0000 C   0  0  0  0  0  0  0  0  0  0  0  0
    8.6033    1.3184    0.0000 C   0  0  0  0  0  0  0  0  0  0  0  0
   10.2533    1.3184    0.0000 C   0  0  0  0  0  0  0  0  0  0  0  0
    2.9980    2.5559    0.0000 C   0  0  0  0  0  0  0  0  0  0  0  0
    3.7125    2.1434    0.0000 C   0  0  0  0  0  0  0  0  0  0  0  0
    4.4270    2.5559    0.0000 C   0  0  0  0  0  0  0  0  0  0  0  0
    5.1414    2.1434    0.0000 C   0  0  0  0  0  0  0  0  0  0  0  0
    5.8559    2.5559    0.0000 C   0  0  0  0  0  0  0  0  0  0  0  0
    6.5704    2.1434    0.0000 C   0  0  0  0  0  0  0  0  0  0  0  0
    8.7138    3.3809    0.0000 C   0  0  0  0  0  0  0  0  0  0  0  0
    9.4283    2.1434    0.0000 C   0  0  0  0  0  0  0  0  0  0  0  0
    8.7138    2.5559    0.0000 C   0  0  2  0  0  0  0  0  0  0  0  0
    9.4283    3.7934    0.0000 C   0  0  0  0  0  0  0  0  0  0  0  0
    7.2849    2.5559    0.0000 C   0  0  0  0  0  0  0  0  0  0  0  0
    9.4283    1.3184    0.0000 N   0  3  0  0  0  0  0  0  0  0  0  0
    9.4283    4.6184    0.0000 O   0  0  0  0  0  0  0  0  0  0  0  0
   10.1427    3.3809    0.0000 O   0  0  0  0  0  0  0  0  0  0  0  0
    7.2849    3.3809    0.0000 O   0  0  0  0  0  0  0  0  0  0  0  0
    7.9993    2.1434    0.0000 O   0  0  0  0  0  0  0  0  0  0  0  0
    9.4283    2.9684    0.0000 H   0  0  0  0  0  0  0  0  0  0  0  0
  5  1  1  0  0  0  0
  6  5  1  0  0  0  0
  7  6  1  0  0  0  0
  8  7  1  0  0  0  0
  9  8  1  0  0  0  0
 10  9  1  0  0  0  0
 13 11  1  0  0  0  0
 13 12  1  0  0  0  0
 14 11  1  0  0  0  0
 15 10  1  0  0  0  0
 16  2  1  0  0  0  0
 16  3  1  0  0  0  0
 16  4  1  0  0  0  0
 16 12  1  0  0  0  0
 17 14  2  0  0  0  0
 18 14  1  0  0  0  0
 19 15  2  0  0  0  0
 13 20  1  1  0  0  0
 20 15  1  0  0  0  0
 13 21  1  1  0  0  0
M  CHG  1  16   1
M  END
> <DATABASE_ID>
DB03832

> <DATABASE_NAME>
drugbank

> <SMILES>
[H][C@@](CC(O)=O)(C[N+](C)(C)C)OC(=O)CCCCCCC

> <INCHI_IDENTIFIER>
InChI=1S/C15H29NO4/c1-5-6-7-8-9-10-15(19)20-13(11-14(17)18)12-16(2,3)4/h13H,5-12H2,1-4H3/p+1/t13-/m1/s1

> <INCHI_KEY>
CXTATJFJDMJMIY-CYBMUJFWSA-O

> <FORMULA>
C15H30NO4

> <MOLECULAR_WEIGHT>
288.403

> <EXACT_MASS>
288.217483453

> <JCHEM_ACCEPTOR_COUNT>
3

> <JCHEM_ATOM_COUNT>
50

> <JCHEM_AVERAGE_NEUTRAL_MICROSPECIES_CHARGE>
0.0016445576129590078

> <JCHEM_AVERAGE_POLARIZABILITY>
33.75388134582042

> <JCHEM_BIOAVAILABILITY>
1

> <JCHEM_DONOR_COUNT>
1

> <JCHEM_FORMAL_CHARGE>
1

> <JCHEM_GHOSE_FILTER>
0

> <JCHEM_IUPAC>
[(2R)-3-carboxy-2-(octanoyloxy)propyl]trimethylazanium

> <ALOGPS_LOGP>
-0.65

> <JCHEM_LOGP>
-1.5230014658050801

> <ALOGPS_LOGS>
-4.71

> <JCHEM_MDDR_LIKE_RULE>
0

> <JCHEM_NEUTRAL_CHARGE>
0

> <JCHEM_NUMBER_OF_RINGS>
0

> <JCHEM_PHYSIOLOGICAL_CHARGE>
0

> <JCHEM_PKA_STRONGEST_ACIDIC>
4.216763902737658

> <JCHEM_PKA_STRONGEST_BASIC>
-7.057186892022269

> <JCHEM_POLAR_SURFACE_AREA>
63.599999999999994

> <JCHEM_REFRACTIVITY>
89.43159999999999

> <JCHEM_ROTATABLE_BOND_COUNT>
12

> <JCHEM_RULE_OF_FIVE>
1

> <ALOGPS_SOLUBILITY>
6.34e-03 g/l

> <JCHEM_TRADITIONAL_IUPAC>
tetrahydrofolic acid

> <JCHEM_VEBER_RULE>
0

> <DRUGBANK_ID>
DB03832

> <SECONDARY_ACCESSION_NUMBERS>
EXPT02414

> <DRUG_GROUPS>
experimental

> <GENERIC_NAME>
3-Carboxy-N,N,N-Trimethyl-2-(Octanoyloxy)Propan-1-Aminium

$$$$
