
  Mrv0541 02241219032D          

 43 47  0  0  0  0            999 V2000
    1.0725    0.9880    0.0000 O   0  0  0  0  0  0  0  0  0  0  0  0
    1.7860    0.5756    0.0000 C   0  0  1  0  0  0  0  0  0  0  0  0
    1.7860   -0.2494    0.0000 C   0  0  0  0  0  0  0  0  0  0  0  0
    1.0725   -0.6618    0.0000 C   0  0  0  0  0  0  0  0  0  0  0  0
    0.3575   -0.2494    0.0000 C   0  0  0  0  0  0  0  0  0  0  0  0
    0.3575    0.5756    0.0000 C   0  0  0  0  0  0  0  0  0  0  0  0
   -0.3575    0.9880    0.0000 C   0  0  0  0  0  0  0  0  0  0  0  0
   -1.0710    0.5756    0.0000 C   0  0  0  0  0  0  0  0  0  0  0  0
   -1.0710   -0.2494    0.0000 C   0  0  0  0  0  0  0  0  0  0  0  0
   -0.3575   -0.6618    0.0000 C   0  0  0  0  0  0  0  0  0  0  0  0
   -0.3575   -1.4868    0.0000 O   0  0  0  0  0  0  0  0  0  0  0  0
    1.0725   -1.4868    0.0000 O   0  0  0  0  0  0  0  0  0  0  0  0
   -1.7859    0.9880    0.0000 O   0  0  0  0  0  0  0  0  0  0  0  0
   -2.5009    0.5756    0.0000 C   0  0  2  0  0  0  0  0  0  0  0  0
   -2.5009   -0.2494    0.0000 O   0  0  0  0  0  0  0  0  0  0  0  0
   -3.2145   -0.6618    0.0000 C   0  0  2  0  0  0  0  0  0  0  0  0
   -3.2145   -1.4868    0.0000 C   0  0  0  0  0  0  0  0  0  0  0  0
   -3.9294   -1.8992    0.0000 O   0  0  0  0  0  0  0  0  0  0  0  0
   -3.9294   -2.7242    0.0000 C   0  0  1  0  0  0  0  0  0  0  0  0
   -4.6430   -3.1366    0.0000 C   0  0  2  0  0  0  0  0  0  0  0  0
   -5.3580   -2.7242    0.0000 O   0  0  0  0  0  0  0  0  0  0  0  0
   -3.2145    0.9880    0.0000 C   0  0  1  0  0  0  0  0  0  0  0  0
   -3.9294    0.5756    0.0000 C   0  0  2  0  0  0  0  0  0  0  0  0
   -3.9294   -0.2494    0.0000 C   0  0  2  0  0  0  0  0  0  0  0  0
   -4.6430   -0.6618    0.0000 O   0  0  0  0  0  0  0  0  0  0  0  0
   -3.2145   -3.1366    0.0000 O   0  0  0  0  0  0  0  0  0  0  0  0
   -3.2145   -3.9616    0.0000 C   0  0  1  0  0  0  0  0  0  0  0  0
   -2.5009   -4.3740    0.0000 C   0  0  0  0  0  0  0  0  0  0  0  0
   -4.6430   -3.9616    0.0000 C   0  0  1  0  0  0  0  0  0  0  0  0
   -3.9294   -4.3740    0.0000 C   0  0  1  0  0  0  0  0  0  0  0  0
   -3.9294   -5.1990    0.0000 O   0  0  0  0  0  0  0  0  0  0  0  0
   -4.6430    0.9880    0.0000 O   0  0  0  0  0  0  0  0  0  0  0  0
    5.3580    1.8130    0.0000 C   0  0  0  0  0  0  0  0  0  0  0  0
    4.6445    2.2254    0.0000 O   0  0  0  0  0  0  0  0  0  0  0  0
    3.9295    1.8130    0.0000 C   0  0  0  0  0  0  0  0  0  0  0  0
    3.9295    0.9880    0.0000 C   0  0  0  0  0  0  0  0  0  0  0  0
    3.2146    0.5756    0.0000 C   0  0  0  0  0  0  0  0  0  0  0  0
    2.5010    0.9880    0.0000 C   0  0  0  0  0  0  0  0  0  0  0  0
    2.5010    1.8130    0.0000 C   0  0  0  0  0  0  0  0  0  0  0  0
    3.2146    2.2254    0.0000 C   0  0  0  0  0  0  0  0  0  0  0  0
    3.2146    3.0504    0.0000 O   0  0  0  0  0  0  0  0  0  0  0  0
   -5.3576   -4.3740    0.0000 O   0  0  0  0  0  0  0  0  0  0  0  0
   -3.2142    1.8130    0.0000 O   0  0  0  0  0  0  0  0  0  0  0  0
  1  2  1  0  0  0  0
  1  6  1  0  0  0  0
  2  3  1  0  0  0  0
  2 38  1  6  0  0  0
  3  4  1  0  0  0  0
  4  5  1  0  0  0  0
  4 12  2  0  0  0  0
  5  6  2  0  0  0  0
  5 10  1  0  0  0  0
  6  7  1  0  0  0  0
  7  8  2  0  0  0  0
  8  9  1  0  0  0  0
  8 13  1  0  0  0  0
  9 10  2  0  0  0  0
 10 11  1  0  0  0  0
 14 15  1  0  0  0  0
 14 22  1  0  0  0  0
 15 16  1  0  0  0  0
 16 17  1  6  0  0  0
 16 24  1  0  0  0  0
 17 18  1  0  0  0  0
 19 20  1  0  0  0  0
 19 26  1  0  0  0  0
 20 21  1  1  0  0  0
 20 29  1  0  0  0  0
 22 23  1  0  0  0  0
 23 24  1  0  0  0  0
 23 32  1  6  0  0  0
 24 25  1  1  0  0  0
 26 27  1  0  0  0  0
 27 28  1  1  0  0  0
 27 30  1  0  0  0  0
 29 30  1  0  0  0  0
 30 31  1  6  0  0  0
 33 34  1  0  0  0  0
 34 35  1  0  0  0  0
 35 36  2  0  0  0  0
 35 40  1  0  0  0  0
 36 37  1  0  0  0  0
 37 38  2  0  0  0  0
 38 39  1  0  0  0  0
 39 40  2  0  0  0  0
 40 41  1  0  0  0  0
 29 42  1  1  0  0  0
 19 18  1  6  0  0  0
 22 43  1  1  0  0  0
 14 13  1  6  0  0  0
M  END
> <DATABASE_ID>
DB04703

> <DATABASE_NAME>
drugbank

> <SMILES>
COC1=CC=C(C=C1O)[C@@H]1CC(=O)C2=C(O1)C=C(O[C@@H]1O[C@H](CO[C@@H]3O[C@@H](C)[C@H](O)[C@@H](O)[C@H]3O)[C@@H](O)[C@H](O)[C@H]1O)C=C2O

> <INCHI_IDENTIFIER>
InChI=1S/C28H34O15/c1-10-21(32)23(34)25(36)27(40-10)39-9-19-22(33)24(35)26(37)28(43-19)41-12-6-14(30)20-15(31)8-17(42-18(20)7-12)11-3-4-16(38-2)13(29)5-11/h3-7,10,17,19,21-30,32-37H,8-9H2,1-2H3/t10-,17-,19+,21-,22+,23+,24-,25+,26+,27+,28+/m0/s1

> <INCHI_KEY>
QUQPHWDTPGMPEX-QJBIFVCTSA-N

> <FORMULA>
C28H34O15

> <MOLECULAR_WEIGHT>
610.5606

> <EXACT_MASS>
610.189770418

> <JCHEM_ACCEPTOR_COUNT>
15

> <JCHEM_ATOM_COUNT>
77

> <JCHEM_AVERAGE_NEUTRAL_MICROSPECIES_CHARGE>
-0.02562739736358735

> <JCHEM_AVERAGE_POLARIZABILITY>
58.869181646947794

> <JCHEM_BIOAVAILABILITY>
0

> <JCHEM_DONOR_COUNT>
8

> <JCHEM_FORMAL_CHARGE>
0

> <JCHEM_GHOSE_FILTER>
0

> <JCHEM_IUPAC>
(2S)-5-hydroxy-2-(3-hydroxy-4-methoxyphenyl)-7-{[(2S,3R,4S,5S,6R)-3,4,5-trihydroxy-6-({[(2R,3R,4R,5R,6S)-3,4,5-trihydroxy-6-methyloxan-2-yl]oxy}methyl)oxan-2-yl]oxy}-3,4-dihydro-2H-1-benzopyran-4-one

> <ALOGPS_LOGP>
-0.27

> <JCHEM_LOGP>
-0.31455698766666607

> <ALOGPS_LOGS>
-2.36

> <JCHEM_MDDR_LIKE_RULE>
1

> <JCHEM_NEUTRAL_CHARGE>
0

> <JCHEM_NUMBER_OF_RINGS>
5

> <JCHEM_PHYSIOLOGICAL_CHARGE>
0

> <JCHEM_PKA>
9.819837030926854

> <JCHEM_PKA_STRONGEST_ACIDIC>
8.609445995469539

> <JCHEM_PKA_STRONGEST_BASIC>
-3.612182351683661

> <JCHEM_POLAR_SURFACE_AREA>
234.28999999999996

> <JCHEM_REFRACTIVITY>
140.76700000000002

> <JCHEM_ROTATABLE_BOND_COUNT>
7

> <JCHEM_RULE_OF_FIVE>
0

> <ALOGPS_SOLUBILITY>
2.69e+00 g/l

> <JCHEM_TRADITIONAL_IUPAC>
tetrahydrofolic acid

> <JCHEM_VEBER_RULE>
0

> <DRUGBANK_ID>
DB04703

> <DRUG_GROUPS>
approved; investigational

> <GENERIC_NAME>
Hesperidin

> <SYNONYMS>
(S)-(âˆ’)-hesperidin; Cirantin; Ciratin; Hesperetin 7-O-rutinoside; Hesperidin; Hesperidina; Hesperidoside

> <PRODUCTS>
Cilobana Cpa Tab; Rose Hips 500plus Nu Life; Special C

$$$$
