 
  Mrv0541 07171209582D          
 
 48 50  0  0  1  0            999 V2000
   12.6750   -8.3538    0.0000 N   0  0  0  0  0  0  0  0  0  0  0  0
   12.3338   -9.7864    0.0000 C   0  0  2  0  0  0  0  0  0  0  0  0
   11.2348   -8.3538    0.0000 C   0  0  0  0  0  0  0  0  0  0  0  0
   12.6787   -7.5239    0.0000 C   0  0  0  0  0  0  0  0  0  0  0  0
   11.6518   -9.2937    0.0000 O   0  0  0  0  0  0  0  0  0  0  0  0
   12.0838  -10.5633    0.0000 C   0  0  1  0  0  0  0  0  0  0  0  0
   11.2348   -7.5239    0.0000 C   0  0  0  0  0  0  0  0  0  0  0  0
   10.5110   -8.7782    0.0000 N   0  0  0  0  0  0  0  0  0  0  0  0
   11.9587   -7.1032    0.0000 N   0  0  0  0  0  0  0  0  0  0  0  0
   10.9809   -9.7750    0.0000 C   0  0  1  0  0  0  0  0  0  0  0  0
   11.2424  -10.5633    0.0000 C   0  0  1  0  0  0  0  0  0  0  0  0
   12.5235  -11.1359    0.0000 O   0  0  0  0  0  0  0  0  0  0  0  0
   10.5110   -7.1108    0.0000 C   0  0  0  0  0  0  0  0  0  0  0  0
    9.7984   -8.3538    0.0000 C   0  0  0  0  0  0  0  0  0  0  0  0
   10.2116   -9.5324    0.0000 C   0  0  0  0  0  0  0  0  0  0  0  0
   10.8218  -11.1545    0.0000 O   0  0  0  0  0  0  0  0  0  0  0  0
    9.7984   -7.5239    0.0000 N   0  0  0  0  0  0  0  0  0  0  0  0
   10.5110   -6.3299    0.0000 N   0  0  0  0  0  0  0  0  0  0  0  0
    9.1275  -10.1121    0.0000 O   0  0  0  0  0  0  0  0  0  0  0  0
    9.9463  -11.1469    0.0000 P   0  0  0  0  0  0  0  0  0  0  0  0
    7.7673  -10.0819    0.0000 P   0  0  0  0  0  0  0  0  0  0  0  0
    9.9616  -10.3171    0.0000 O   0  0  0  0  0  0  0  0  0  0  0  0
    9.1844  -11.1206    0.0000 O   0  0  0  0  0  0  0  0  0  0  0  0
    9.9840  -11.9769    0.0000 O   0  0  0  0  0  0  0  0  0  0  0  0
    7.7673  -11.8706    0.0000 O   0  0  0  0  0  0  0  0  0  0  0  0
    7.7748   -9.2029    0.0000 O   0  0  0  0  0  0  0  0  0  0  0  0
    6.9863  -10.1121    0.0000 O   0  0  0  0  0  0  0  0  0  0  0  0
    7.7709  -13.5985    0.0000 P   0  0  0  0  0  0  0  0  0  0  0  0
    8.6313  -13.5796    0.0000 O   0  0  0  0  0  0  0  0  0  0  0  0
    7.8049  -14.5724    0.0000 O   0  0  0  0  0  0  0  0  0  0  0  0
    6.9448  -13.5833    0.0000 O   0  0  0  0  0  0  0  0  0  0  0  0
    9.3399  -13.1702    0.0000 C   0  0  0  0  0  0  0  0  0  0  0  0
   10.0562  -13.5796    0.0000 C   0  0  0  0  0  0  0  0  0  0  0  0
   10.7687  -13.1702    0.0000 C   0  0  2  0  0  0  0  0  0  0  0  0
   10.0448  -14.3147    0.0000 C   0  0  0  0  0  0  0  0  0  0  0  0
   10.0373  -12.7759    0.0000 C   0  0  0  0  0  0  0  0  0  0  0  0
   11.4850  -13.5796    0.0000 C   0  0  0  0  0  0  0  0  0  0  0  0
   10.7687  -12.3440    0.0000 O   0  0  0  0  0  0  0  0  0  0  0  0
   12.1974  -13.1702    0.0000 N   0  0  0  0  0  0  0  0  0  0  0  0
   11.4850  -14.3605    0.0000 O   0  0  0  0  0  0  0  0  0  0  0  0
   12.9099  -13.5796    0.0000 C   0  0  0  0  0  0  0  0  0  0  0  0
   13.6262  -13.1702    0.0000 C   0  0  0  0  0  0  0  0  0  0  0  0
   14.3387  -13.5796    0.0000 C   0  0  0  0  0  0  0  0  0  0  0  0
   15.0512  -13.1702    0.0000 N   0  0  0  0  0  0  0  0  0  0  0  0
   14.3387  -14.4057    0.0000 O   0  0  0  0  0  0  0  0  0  0  0  0
   15.7675  -13.5796    0.0000 C   0  0  0  0  0  0  0  0  0  0  0  0
   16.4799  -13.1665    0.0000 C   0  0  0  0  0  0  0  0  0  0  0  0
   17.1923  -13.5796    0.0000 S   0  0  0  0  0  0  0  0  0  0  0  0
  2  1  1  1  0  0  0
  1  3  1  0  0  0  0
  1  4  1  0  0  0  0
  2  5  1  0  0  0  0
  2  6  1  0  0  0  0
  3  7  2  0  0  0  0
  3  8  1  0  0  0  0
  4  9  2  0  0  0  0
  5 10  1  0  0  0  0
  6 11  1  0  0  0  0
  6 12  1  6  0  0  0
  7 13  1  0  0  0  0
  8 14  2  0  0  0  0
 10 15  1  1  0  0  0
 11 16  1  6  0  0  0
 13 17  2  0  0  0  0
 13 18  1  0  0  0  0
 15 19  1  0  0  0  0
 16 20  1  0  0  0  0
 19 21  1  0  0  0  0
 20 22  1  0  0  0  0
 20 23  1  0  0  0  0
 20 24  2  0  0  0  0
 21 25  1  0  0  0  0
 21 26  1  0  0  0  0
 21 27  2  0  0  0  0
 25 28  1  0  0  0  0
 28 29  1  0  0  0  0
 28 30  1  0  0  0  0
 28 31  2  0  0  0  0
 29 32  1  0  0  0  0
 32 33  1  0  0  0  0
 33 34  1  0  0  0  0
 33 35  1  0  0  0  0
 33 36  1  0  0  0  0
 34 37  1  0  0  0  0
 34 38  1  1  0  0  0
 37 39  1  0  0  0  0
 37 40  2  0  0  0  0
 39 41  1  0  0  0  0
 41 42  1  0  0  0  0
 42 43  1  0  0  0  0
 43 44  1  0  0  0  0
 43 45  2  0  0  0  0
 44 46  1  0  0  0  0
 46 47  1  0  0  0  0
 47 48  1  0  0  0  0
  7  9  1  0  0  0  0
 10 11  1  0  0  0  0
 14 17  1  0  0  0  0
M  END
> <DATABASE_ID>
DB01992

> <DATABASE_NAME>
drugbank

> <SMILES>
CC(C)(COP(O)(=O)OP(O)(=O)OC[C@H]1O[C@H]([C@H](O)[C@@H]1OP(O)(O)=O)N1C=NC2=C1N=CN=C2N)[C@@H](O)C(=O)NCCC(=O)NCCS

> <INCHI_IDENTIFIER>
InChI=1S/C21H36N7O16P3S/c1-21(2,16(31)19(32)24-4-3-12(29)23-5-6-48)8-41-47(38,39)44-46(36,37)40-7-11-15(43-45(33,34)35)14(30)20(42-11)28-10-27-13-17(22)25-9-26-18(13)28/h9-11,14-16,20,30-31,48H,3-8H2,1-2H3,(H,23,29)(H,24,32)(H,36,37)(H,38,39)(H2,22,25,26)(H2,33,34,35)/t11-,14-,15-,16+,20-/m1/s1

> <INCHI_KEY>
RGJOEKWQDUBAIZ-IBOSZNHHSA-N

> <FORMULA>
C21H36N7O16P3S

> <MOLECULAR_WEIGHT>
767.534

> <EXACT_MASS>
767.115208365

> <JCHEM_ACCEPTOR_COUNT>
16

> <JCHEM_ATOM_COUNT>
84

> <JCHEM_AVERAGE_NEUTRAL_MICROSPECIES_CHARGE>
-3.9560344732451553

> <JCHEM_AVERAGE_POLARIZABILITY>
66.0794773227341

> <JCHEM_BIOAVAILABILITY>
0

> <JCHEM_DONOR_COUNT>
10

> <JCHEM_FORMAL_CHARGE>
0

> <JCHEM_GHOSE_FILTER>
0

> <JCHEM_IUPAC>
{[(2R,3S,4R,5R)-5-(6-amino-9H-purin-9-yl)-4-hydroxy-2-({[hydroxy({hydroxy[(3R)-3-hydroxy-2,2-dimethyl-3-({2-[(2-sulfanylethyl)carbamoyl]ethyl}carbamoyl)propoxy]phosphoryl}oxy)phosphoryl]oxy}methyl)oxolan-3-yl]oxy}phosphonic acid

> <ALOGPS_LOGP>
-0.61

> <JCHEM_LOGP>
-5.906345024107867

> <ALOGPS_LOGS>
-2.22

> <JCHEM_MDDR_LIKE_RULE>
1

> <JCHEM_NEUTRAL_CHARGE>
-4

> <JCHEM_NUMBER_OF_RINGS>
3

> <JCHEM_PHYSIOLOGICAL_CHARGE>
-4

> <JCHEM_PKA>
0.9219272969273867

> <JCHEM_PKA_STRONGEST_ACIDIC>
0.8257565643203355

> <JCHEM_PKA_STRONGEST_BASIC>
4.88705067749789

> <JCHEM_POLAR_SURFACE_AREA>
346.5599999999999

> <JCHEM_REFRACTIVITY>
162.7402

> <JCHEM_ROTATABLE_BOND_COUNT>
18

> <JCHEM_RULE_OF_FIVE>
0

> <ALOGPS_SOLUBILITY>
4.64e+00 g/l

> <JCHEM_TRADITIONAL_IUPAC>
tetrahydrofolic acid

> <JCHEM_VEBER_RULE>
0

> <DRUGBANK_ID>
DB01992

> <SECONDARY_ACCESSION_NUMBERS>
EXPT00991

> <DRUG_GROUPS>
investigational; nutraceutical

> <GENERIC_NAME>
Coenzyme A

> <SYNONYMS>
3'-phosphoadenosine-(5')diphospho(4')pantatheine; CoA; CoA-SH; CoASH; HSCoA

$$$$
