
  Mrv0541 02231216152D          

 44 48  0  0  0  0            999 V2000
   -7.2514    7.2402    0.0000 C   0  0  0  0  0  0  0  0  0  0  0  0
   -6.5369    6.8277    0.0000 C   0  0  0  0  0  0  0  0  0  0  0  0
   -5.8225    7.2402    0.0000 C   0  0  0  0  0  0  0  0  0  0  0  0
   -5.1080    6.8277    0.0000 C   0  0  0  0  0  0  0  0  0  0  0  0
   -4.3935    7.2402    0.0000 C   0  0  0  0  0  0  0  0  0  0  0  0
   -3.6791    6.8277    0.0000 C   0  0  0  0  0  0  0  0  0  0  0  0
   -2.9646    7.2402    0.0000 C   0  0  0  0  0  0  0  0  0  0  0  0
   -2.2501    6.8277    0.0000 C   0  0  0  0  0  0  0  0  0  0  0  0
   -2.2501    6.0027    0.0000 C   0  0  0  0  0  0  0  0  0  0  0  0
   -2.9646    5.5902    0.0000 C   0  0  0  0  0  0  0  0  0  0  0  0
   -3.6791    6.0027    0.0000 C   0  0  0  0  0  0  0  0  0  0  0  0
   -1.5356    5.5902    0.0000 C   0  0  0  0  0  0  0  0  0  0  0  0
   -1.5356    4.7652    0.0000 O   0  0  0  0  0  0  0  0  0  0  0  0
   -0.8212    6.0027    0.0000 N   0  0  0  0  0  0  0  0  0  0  0  0
   -0.8212    6.8277    0.0000 C   0  0  0  0  0  0  0  0  0  0  0  0
   -0.1067    7.2402    0.0000 C   0  0  0  0  0  0  0  0  0  0  0  0
   -0.1067    8.0652    0.0000 C   0  0  0  0  0  0  0  0  0  0  0  0
    0.6078    8.4777    0.0000 C   0  0  0  0  0  0  0  0  0  0  0  0
    1.3222    8.0652    0.0000 C   0  0  0  0  0  0  0  0  0  0  0  0
    1.3222    7.2402    0.0000 C   0  0  0  0  0  0  0  0  0  0  0  0
    0.6078    6.8277    0.0000 C   0  0  0  0  0  0  0  0  0  0  0  0
    2.0367    8.4777    0.0000 C   0  0  0  0  0  0  0  0  0  0  0  0
    2.0367    9.3027    0.0000 C   0  0  0  0  0  0  0  0  0  0  0  0
    2.7512    9.7152    0.0000 C   0  0  0  0  0  0  0  0  0  0  0  0
    3.4656    9.3027    0.0000 C   0  0  0  0  0  0  0  0  0  0  0  0
    4.1801    9.7152    0.0000 C   0  0  0  0  0  0  0  0  0  0  0  0
    4.1801   10.5402    0.0000 C   0  0  0  0  0  0  0  0  0  0  0  0
    3.4656   10.9527    0.0000 O   0  0  0  0  0  0  0  0  0  0  0  0
    4.8946   10.9527    0.0000 O   0  0  0  0  0  0  0  0  0  0  0  0
    4.8946   11.7777    0.0000 C   0  0  0  0  0  0  0  0  0  0  0  0
    3.4656    8.4777    0.0000 C   0  0  0  0  0  0  0  0  0  0  0  0
    2.7512    8.0652    0.0000 C   0  0  0  0  0  0  0  0  0  0  0  0
   -0.1067    5.5902    0.0000 C   0  0  0  0  0  0  0  0  0  0  0  0
    0.6078    6.0027    0.0000 C   0  0  0  0  0  0  0  0  0  0  0  0
    1.3222    5.5902    0.0000 C   0  0  0  0  0  0  0  0  0  0  0  0
    1.3222    4.7652    0.0000 N   0  0  0  0  0  0  0  0  0  0  0  0
    0.6078    4.3527    0.0000 C   0  0  0  0  0  0  0  0  0  0  0  0
   -0.1067    4.7652    0.0000 C   0  0  0  0  0  0  0  0  0  0  0  0
    2.0367    4.3527    0.0000 C   0  0  0  0  0  0  0  0  0  0  0  0
    2.0367    3.5277    0.0000 C   0  0  0  0  0  0  0  0  0  0  0  0
    2.7041    3.0428    0.0000 N   0  0  0  0  0  0  0  0  0  0  0  0
    2.4492    2.2581    0.0000 C   0  0  0  0  0  0  0  0  0  0  0  0
    1.6242    2.2581    0.0000 C   0  0  0  0  0  0  0  0  0  0  0  0
    1.3693    3.0428    0.0000 N   0  0  0  0  0  0  0  0  0  0  0  0
  1  2  1  0  0  0  0
  2  3  1  0  0  0  0
  3  4  1  0  0  0  0
  4  5  1  0  0  0  0
  5  6  1  0  0  0  0
  6  7  2  0  0  0  0
  7  8  1  0  0  0  0
  8  9  2  0  0  0  0
  9 10  1  0  0  0  0
 10 11  2  0  0  0  0
  6 11  1  0  0  0  0
  9 12  1  0  0  0  0
 12 13  2  0  0  0  0
 12 14  1  0  0  0  0
 14 15  1  0  0  0  0
 15 16  1  0  0  0  0
 16 17  2  0  0  0  0
 17 18  1  0  0  0  0
 18 19  2  0  0  0  0
 19 20  1  0  0  0  0
 20 21  2  0  0  0  0
 16 21  1  0  0  0  0
 19 22  1  0  0  0  0
 22 23  2  0  0  0  0
 23 24  1  0  0  0  0
 24 25  2  0  0  0  0
 25 26  1  0  0  0  0
 26 27  1  0  0  0  0
 27 28  2  0  0  0  0
 27 29  1  0  0  0  0
 29 30  1  0  0  0  0
 25 31  1  0  0  0  0
 31 32  2  0  0  0  0
 22 32  1  0  0  0  0
 14 33  1  0  0  0  0
 33 34  1  0  0  0  0
 34 35  1  0  0  0  0
 35 36  1  0  0  0  0
 36 37  1  0  0  0  0
 37 38  1  0  0  0  0
 33 38  1  0  0  0  0
 36 39  1  0  0  0  0
 39 40  1  0  0  0  0
 40 41  2  0  0  0  0
 41 42  1  0  0  0  0
 42 43  2  0  0  0  0
 43 44  1  0  0  0  0
 40 44  1  0  0  0  0
M  END
> <DATABASE_ID>
DB02505

> <DATABASE_NAME>
drugbank

> <SMILES>
CCCCCC1=CC=C(C=C1)C(=O)N(CC1=CC=C(C=C1)C1=CC=C(CC(=O)OC)C=C1)C1CCN(CC2=NC=CN2)CC1

> <INCHI_IDENTIFIER>
InChI=1S/C37H44N4O3/c1-3-4-5-6-28-7-17-33(18-8-28)37(43)41(34-19-23-40(24-20-34)27-35-38-21-22-39-35)26-30-11-15-32(16-12-30)31-13-9-29(10-14-31)25-36(42)44-2/h7-18,21-22,34H,3-6,19-20,23-27H2,1-2H3,(H,38,39)

> <INCHI_KEY>
JJVQUUYZGJWBPW-UHFFFAOYSA-N

> <FORMULA>
C37H44N4O3

> <MOLECULAR_WEIGHT>
592.7703

> <EXACT_MASS>
592.341341294

> <JCHEM_ACCEPTOR_COUNT>
4

> <JCHEM_ATOM_COUNT>
88

> <JCHEM_AVERAGE_NEUTRAL_MICROSPECIES_CHARGE>
0.2770857661494519

> <JCHEM_AVERAGE_POLARIZABILITY>
69.34985396046031

> <JCHEM_BIOAVAILABILITY>
0

> <JCHEM_DONOR_COUNT>
1

> <JCHEM_FORMAL_CHARGE>
0

> <JCHEM_GHOSE_FILTER>
0

> <JCHEM_IUPAC>
methyl 2-{4'-[(N-{1-[(1H-imidazol-2-yl)methyl]piperidin-4-yl}-1-(4-pentylphenyl)formamido)methyl]-[1,1'-biphenyl]-4-yl}acetate

> <ALOGPS_LOGP>
6.70

> <JCHEM_LOGP>
6.424250788999999

> <ALOGPS_LOGS>
-6.14

> <JCHEM_MDDR_LIKE_RULE>
1

> <JCHEM_NEUTRAL_CHARGE>
0

> <JCHEM_NUMBER_OF_RINGS>
5

> <JCHEM_PHYSIOLOGICAL_CHARGE>
0

> <JCHEM_PKA_STRONGEST_ACIDIC>
12.618488696658446

> <JCHEM_PKA_STRONGEST_BASIC>
6.582304927724423

> <JCHEM_POLAR_SURFACE_AREA>
78.53

> <JCHEM_REFRACTIVITY>
176.54599999999996

> <JCHEM_ROTATABLE_BOND_COUNT>
14

> <JCHEM_RULE_OF_FIVE>
0

> <ALOGPS_SOLUBILITY>
4.26e-04 g/l

> <JCHEM_TRADITIONAL_IUPAC>
biotin

> <JCHEM_VEBER_RULE>
0

> <DRUGBANK_ID>
DB02505

> <SECONDARY_ACCESSION_NUMBERS>
EXPT01851

> <DRUG_GROUPS>
experimental

> <GENERIC_NAME>
N-(R-Carboxy-Ethyl)-Alpha-(S)-(2-Phenylethyl)

$$$$
