
  Mrv0541 02231216222D          

  3  2  0  0  0  0            999 V2000
    1.6500    0.0000    0.0000 N   0  0  0  0  0  0  0  0  0  0  0  0
    2.4750    0.0000    0.0000 C   0  0  0  0  0  0  0  0  0  0  0  0
    3.3000    0.0000    0.0000 N   0  0  0  0  0  0  0  0  0  0  0  0
  1  2  1  0  0  0  0
  2  3  3  0  0  0  0
M  END
> <DATABASE_ID>
DB02679

> <DATABASE_NAME>
drugbank

> <SMILES>
NC#N

> <INCHI_IDENTIFIER>
InChI=1S/CH2N2/c2-1-3/h2H2

> <INCHI_KEY>
XZMCDFZZKTWFGF-UHFFFAOYSA-N

> <FORMULA>
CH2N2

> <MOLECULAR_WEIGHT>
42.04

> <EXACT_MASS>
42.021798074

> <JCHEM_ACCEPTOR_COUNT>
2

> <JCHEM_ATOM_COUNT>
5

> <JCHEM_AVERAGE_NEUTRAL_MICROSPECIES_CHARGE>
-1.8512327651990935e-12

> <JCHEM_AVERAGE_POLARIZABILITY>
3.6757436941852086

> <JCHEM_BIOAVAILABILITY>
1

> <JCHEM_DONOR_COUNT>
1

> <JCHEM_FORMAL_CHARGE>
0

> <JCHEM_GHOSE_FILTER>
0

> <JCHEM_IUPAC>
aminoformonitrile

> <ALOGPS_LOGP>
-0.86

> <JCHEM_LOGP>
-0.6449423693333334

> <ALOGPS_LOGS>
-0.19

> <JCHEM_MDDR_LIKE_RULE>
0

> <JCHEM_NEUTRAL_CHARGE>
0

> <JCHEM_NUMBER_OF_RINGS>
0

> <JCHEM_PHYSIOLOGICAL_CHARGE>
0

> <JCHEM_PKA_STRONGEST_ACIDIC>
10.868942949009032

> <JCHEM_POLAR_SURFACE_AREA>
49.81

> <JCHEM_REFRACTIVITY>
10.8777

> <JCHEM_ROTATABLE_BOND_COUNT>
0

> <JCHEM_RULE_OF_FIVE>
1

> <ALOGPS_SOLUBILITY>
2.74e+01 g/l

> <JCHEM_TRADITIONAL_IUPAC>
tetrahydrofolic acid

> <JCHEM_VEBER_RULE>
0

> <DRUGBANK_ID>
DB02679

> <SECONDARY_ACCESSION_NUMBERS>
EXPT00971

> <DRUG_GROUPS>
experimental

> <GENERIC_NAME>
Cyanamide

> <SYNONYMS>
Cyanamide

$$$$
