
  Mrv0541 02231216282D          

 11 11  0  0  1  0            999 V2000
   -0.7145    3.7125    0.0000 O   0  0  0  0  0  0  0  0  0  0  0  0
    0.0000    3.3000    0.0000 C   0  0  0  0  0  0  0  0  0  0  0  0
    0.0000    2.4750    0.0000 C   0  0  1  0  0  0  0  0  0  0  0  0
   -0.7145    2.0625    0.0000 O   0  0  0  0  0  0  0  0  0  0  0  0
    0.7145    2.0625    0.0000 C   0  0  0  0  0  0  0  0  0  0  0  0
    0.7145    1.2375    0.0000 C   0  0  0  0  0  0  0  0  0  0  0  0
    1.4289    0.8250    0.0000 C   0  0  0  0  0  0  0  0  0  0  0  0
    1.4289    0.0000    0.0000 C   0  0  0  0  0  0  0  0  0  0  0  0
    0.7145   -0.4125    0.0000 C   0  0  0  0  0  0  0  0  0  0  0  0
    0.0000    0.0000    0.0000 C   0  0  0  0  0  0  0  0  0  0  0  0
    0.0000    0.8250    0.0000 C   0  0  0  0  0  0  0  0  0  0  0  0
  1  2  1  0  0  0  0
  2  3  1  0  0  0  0
  3  4  1  6  0  0  0
  3  5  1  0  0  0  0
  5  6  1  0  0  0  0
  6  7  2  0  0  0  0
  7  8  1  0  0  0  0
  8  9  2  0  0  0  0
  9 10  1  0  0  0  0
 10 11  2  0  0  0  0
  6 11  1  0  0  0  0
M  END
> <DATABASE_ID>
DB02803

> <DATABASE_NAME>
drugbank

> <SMILES>
OC[C@@H](O)CC1=CC=CC=C1

> <INCHI_IDENTIFIER>
InChI=1S/C9H12O2/c10-7-9(11)6-8-4-2-1-3-5-8/h1-5,9-11H,6-7H2/t9-/m0/s1

> <INCHI_KEY>
JHWQMXKQJVAWKI-VIFPVBQESA-N

> <FORMULA>
C9H12O2

> <MOLECULAR_WEIGHT>
152.1904

> <EXACT_MASS>
152.083729628

> <JCHEM_ACCEPTOR_COUNT>
2

> <JCHEM_ATOM_COUNT>
23

> <JCHEM_AVERAGE_NEUTRAL_MICROSPECIES_CHARGE>
-6.538959849597922e-08

> <JCHEM_AVERAGE_POLARIZABILITY>
16.69591284506076

> <JCHEM_BIOAVAILABILITY>
1

> <JCHEM_DONOR_COUNT>
2

> <JCHEM_FORMAL_CHARGE>
0

> <JCHEM_GHOSE_FILTER>
0

> <JCHEM_IUPAC>
(2S)-3-phenylpropane-1,2-diol

> <ALOGPS_LOGP>
0.74

> <JCHEM_LOGP>
0.8642223116666665

> <ALOGPS_LOGS>
-0.75

> <JCHEM_MDDR_LIKE_RULE>
0

> <JCHEM_NEUTRAL_CHARGE>
0

> <JCHEM_NUMBER_OF_RINGS>
1

> <JCHEM_PHYSIOLOGICAL_CHARGE>
0

> <JCHEM_PKA>
15.752913057948561

> <JCHEM_PKA_STRONGEST_ACIDIC>
14.195508062097375

> <JCHEM_PKA_STRONGEST_BASIC>
-2.940644413922091

> <JCHEM_POLAR_SURFACE_AREA>
40.46

> <JCHEM_REFRACTIVITY>
43.59140000000001

> <JCHEM_ROTATABLE_BOND_COUNT>
3

> <JCHEM_RULE_OF_FIVE>
1

> <ALOGPS_SOLUBILITY>
2.71e+01 g/l

> <JCHEM_TRADITIONAL_IUPAC>
tetrahydrofolic acid

> <JCHEM_VEBER_RULE>
0

> <DRUGBANK_ID>
DB02803

> <SECONDARY_ACCESSION_NUMBERS>
EXPT02644

> <DRUG_GROUPS>
experimental

> <GENERIC_NAME>
3-Phenyl-1,2-Propandiol

$$$$
