
  Mrv0541 04191212142D          
 
 31 32  0  0  1  0            999 V2000
   -0.2169    0.6674    0.0000 C   0  0  2  0  0  0  0  0  0  0  0  0
    0.5678    0.4125    0.0000 C   0  0  1  0  0  0  0  0  0  0  0  0
    0.5678   -0.4125    0.0000 C   0  0  2  0  0  0  0  0  0  0  0  0
   -0.7018    0.0000    0.0000 C   0  0  0  0  0  0  0  0  0  0  0  0
   -0.2169   -0.6674    0.0000 C   0  0  1  0  0  0  0  0  0  0  0  0
    1.2822   -0.8250    0.0000 C   0  0  0  0  0  0  0  0  0  0  0  0
    1.9967    0.4125    0.0000 C   0  0  0  0  0  0  0  0  0  0  0  0
    1.2822    0.8250    0.0000 C   0  0  0  0  0  0  0  0  0  0  0  0
   -0.4718    1.4521    0.0000 O   0  0  0  0  0  0  0  0  0  0  0  0
   -0.4718   -1.4521    0.0000 O   0  0  0  0  0  0  0  0  0  0  0  0
    3.4256    2.0625    0.0000 C   0  0  0  0  0  0  0  0  0  0  0  0
    2.7112    1.6500    0.0000 C   0  0  0  0  0  0  0  0  0  0  0  0
    4.8546    2.0625    0.0000 C   0  0  0  0  0  0  0  0  0  0  0  0
    4.1401    1.6500    0.0000 C   0  0  0  0  0  0  0  0  0  0  0  0
    6.2835    2.0625    0.0000 C   0  0  0  0  0  0  0  0  0  0  0  0
    5.5691    1.6500    0.0000 O   0  0  0  0  0  0  0  0  0  0  0  0
    6.9980    1.6500    0.0000 C   0  0  0  0  0  0  0  0  0  0  0  0
    4.8546    2.8875    0.0000 O   0  0  0  0  0  0  0  0  0  0  0  0
    6.2835    2.8875    0.0000 C   0  0  0  0  0  0  0  0  0  0  0  0
    1.9967   -0.4125    0.0000 C   0  0  0  0  0  0  0  0  0  0  0  0
    2.7112   -0.8250    0.0000 C   0  0  1  0  0  0  0  0  0  0  0  0
    2.7112   -1.6500    0.0000 O   0  0  0  0  0  0  0  0  0  0  0  0
    4.1401   -0.8250    0.0000 C   0  0  0  0  0  0  0  0  0  0  0  0
    4.8546   -0.4125    0.0000 C   0  0  0  0  0  0  0  0  0  0  0  0
    5.5691   -0.8250    0.0000 C   0  0  0  0  0  0  0  0  0  0  0  0
    6.2835   -0.4125    0.0000 C   0  0  0  0  0  0  0  0  0  0  0  0
    6.2835    0.4125    0.0000 C   0  0  0  0  0  0  0  0  0  0  0  0
    5.5691    0.8250    0.0000 C   0  0  0  0  0  0  0  0  0  0  0  0
    3.4256   -0.4125    0.0000 C   0  0  0  0  0  0  0  0  0  0  0  0
    2.7112    0.8250    0.0000 C   0  0  0  0  0  0  0  0  0  0  0  0
    4.8546    0.4125    0.0000 C   0  0  0  0  0  0  0  0  0  0  0  0
  1  9  1  6  0  0  0
  2  1  1  0  0  0  0
  2  8  1  6  0  0  0
  3  2  1  0  0  0  0
  3  6  1  1  0  0  0
  1  4  1  0  0  0  0
  4  5  1  0  0  0  0
  3  5  1  0  0  0  0
  5 10  1  6  0  0  0
  6 20  1  0  0  0  0
  7  8  1  0  0  0  0
  7 30  2  0  0  0  0
 11 12  1  0  0  0  0
 11 14  1  0  0  0  0
 30 12  1  0  0  0  0
 13 14  1  0  0  0  0
 13 16  1  0  0  0  0
 13 18  2  0  0  0  0
 15 16  1  0  0  0  0
 15 17  1  0  0  0  0
 15 19  1  0  0  0  0
 20 21  1  0  0  0  0
 21 29  1  0  0  0  0
 21 22  1  6  0  0  0
 29 23  1  0  0  0  0
 23 24  1  0  0  0  0
 24 25  2  0  0  0  0
 24 31  1  0  0  0  0
 25 26  1  0  0  0  0
 26 27  2  0  0  0  0
 27 28  1  0  0  0  0
 28 31  2  0  0  0  0
M  END
> <DATABASE_ID>
DB00654

> <DATABASE_NAME>
drugbank

> <SMILES>
CC(C)OC(=O)CCC\C=C/C[C@H]1[C@@H](O)C[C@@H](O)[C@@H]1CC[C@@H](O)CCC1=CC=CC=C1

> <INCHI_IDENTIFIER>
InChI=1S/C26H40O5/c1-19(2)31-26(30)13-9-4-3-8-12-22-23(25(29)18-24(22)28)17-16-21(27)15-14-20-10-6-5-7-11-20/h3,5-8,10-11,19,21-25,27-29H,4,9,12-18H2,1-2H3/b8-3-/t21-,22+,23+,24-,25+/m0/s1

> <INCHI_KEY>
GGXICVAJURFBLW-CEYXHVGTSA-N

> <FORMULA>
C26H40O5

> <MOLECULAR_WEIGHT>
432.5928

> <EXACT_MASS>
432.28757439

> <JCHEM_ACCEPTOR_COUNT>
4

> <JCHEM_ATOM_COUNT>
71

> <JCHEM_AVERAGE_NEUTRAL_MICROSPECIES_CHARGE>
-4.54438444716288e-08

> <JCHEM_AVERAGE_POLARIZABILITY>
50.901717094564084

> <JCHEM_BIOAVAILABILITY>
1

> <JCHEM_DONOR_COUNT>
3

> <JCHEM_FORMAL_CHARGE>
0

> <JCHEM_GHOSE_FILTER>
0

> <JCHEM_IUPAC>
propan-2-yl (5Z)-7-[(1R,2R,3R,5S)-3,5-dihydroxy-2-[(3R)-3-hydroxy-5-phenylpentyl]cyclopentyl]hept-5-enoate

> <ALOGPS_LOGP>
4.16

> <JCHEM_LOGP>
3.9810122920000004

> <ALOGPS_LOGS>
-4.53

> <JCHEM_MDDR_LIKE_RULE>
0

> <JCHEM_NEUTRAL_CHARGE>
0

> <JCHEM_NUMBER_OF_RINGS>
2

> <JCHEM_PHYSIOLOGICAL_CHARGE>
0

> <JCHEM_PKA>
15.030507756558752

> <JCHEM_PKA_STRONGEST_ACIDIC>
14.468506924942973

> <JCHEM_PKA_STRONGEST_BASIC>
-2.6894106134355082

> <JCHEM_POLAR_SURFACE_AREA>
86.99

> <JCHEM_REFRACTIVITY>
124.3376

> <JCHEM_ROTATABLE_BOND_COUNT>
14

> <JCHEM_RULE_OF_FIVE>
1

> <ALOGPS_SOLUBILITY>
1.29e-02 g/l

> <JCHEM_TRADITIONAL_IUPAC>
biotin

> <JCHEM_VEBER_RULE>
0

> <DRUGBANK_ID>
DB00654

> <SECONDARY_ACCESSION_NUMBERS>
APRD01065

> <DRUG_GROUPS>
approved; investigational

> <GENERIC_NAME>
Latanoprost

> <SYNONYMS>
isopropyl (Z)-7-((1R,2R,3R,5S)-3,5-dihydroxy-2-((3R)-3-hydroxy-5-phenylpentyl)cyclopentyl)-5-heptenoate; Latanoprost; Latanoprostum; propan-2-yl (5Z)-7-{(1R,2R,3R,5S)-3,5-dihydroxy-2-[(3R)-3-hydroxy-5-phenylpentyl]cyclopentyl}hept-5-enoate

> <PRODUCTS>
Act Latanoprost/timolol; Apo-latanoprost; Apo-latanoprost-timop; Bl Latanoprost; Gd-latanoprost; Gd-latanoprost/timolol; Jamp Latanoprost; Jamp-latanoprost/timolol; Latanoprost; Latanoprost Ophthalmic Solution; Latanoprost PF; Latanoprost and Timolol Ophthalmic Solution; M-latanoprost; M-latanoprost-timolol; Med-latanoprost; Med-latanoprost-timolol; Mint-latanoprost; Mint-latanoprost/timolol; Monoprost; Mylan-latanoprost/timolol; PMS-latanoprost; PMS-latanoprost-timolol; Riva-latanoprost; Riva-latanoprost/timolol; Rocklatan; Roclanda; Sandoz Latanoprost; Sandoz Latanoprost/timolol; Taro-latanoprost; Teva-latanoprost; Teva-latanoprost/timolol; Tim-Brim-Dor-Lat; Tim-Dor-Lat; Tim-Lat -PF; Xalacom; Xalatan; Xelpros

> <INTERNATIONAL_BRANDS>
Arulatan; Gaap; Gaap Ofteno; Gaax; Glaucogesic; Glaumax; Glauprost; Hysite; Iopize; Ioprost; Ioptame; Klonaprost; Lanoprost; Lanotan; Laprost; Latacris; Latalux; Latan-Ophtal; Lataneau

$$$$
