
  Mrv0541 02241218422D          

 26 27  0  0  0  0            999 V2000
    3.5195   -6.0490    0.0000 C   0  0  0  0  0  0  0  0  0  0  0  0
    2.8050   -6.4615    0.0000 C   0  0  0  0  0  0  0  0  0  0  0  0
    2.8050   -7.2865    0.0000 C   0  0  0  0  0  0  0  0  0  0  0  0
    3.5195   -7.6990    0.0000 C   0  0  0  0  0  0  0  0  0  0  0  0
    4.2340   -7.2865    0.0000 C   0  0  0  0  0  0  0  0  0  0  0  0
    4.2340   -6.4615    0.0000 C   0  0  0  0  0  0  0  0  0  0  0  0
    4.9484   -6.0490    0.0000 C   0  0  0  0  0  0  0  0  0  0  0  0
    5.6629   -6.4615    0.0000 C   0  0  2  0  0  0  0  0  0  0  0  0
    6.3774   -6.0490    0.0000 C   0  0  1  0  0  0  0  0  0  0  0  0
    7.0918   -6.4615    0.0000 C   0  0  0  0  0  0  0  0  0  0  0  0
    7.8063   -6.0490    0.0000 C   0  0  0  0  0  0  0  0  0  0  0  0
    8.5208   -4.8115    0.0000 C   0  0  0  0  0  0  0  0  0  0  0  0
    7.8063   -5.2240    0.0000 C   0  0  0  0  0  0  0  0  0  0  0  0
    8.5208   -6.4615    0.0000 C   0  0  0  0  0  0  0  0  0  0  0  0
    9.2353   -6.0490    0.0000 C   0  0  0  0  0  0  0  0  0  0  0  0
    9.2353   -5.2240    0.0000 C   0  0  0  0  0  0  0  0  0  0  0  0
    8.5208   -3.9865    0.0000 O   0  0  0  0  0  0  0  0  0  0  0  0
    9.2353   -3.5740    0.0000 C   0  0  0  0  0  0  0  0  0  0  0  0
    9.9497   -4.8115    0.0000 O   0  0  0  0  0  0  0  0  0  0  0  0
    6.3774   -5.2240    0.0000 C   0  0  0  0  0  0  0  0  0  0  0  0
    7.0919   -4.8115    0.0000 O   0  0  0  0  0  0  0  0  0  0  0  0
    5.6629   -7.2865    0.0000 C   0  0  0  0  0  0  0  0  0  0  0  0
    4.9484   -7.6990    0.0000 O   0  0  0  0  0  0  0  0  0  0  0  0
    3.5195   -8.5240    0.0000 O   0  0  0  0  0  0  0  0  0  0  0  0
    2.8050   -8.9365    0.0000 C   0  0  0  0  0  0  0  0  0  0  0  0
    2.0906   -7.6990    0.0000 O   0  0  0  0  0  0  0  0  0  0  0  0
  1  2  2  0  0  0  0
  2  3  1  0  0  0  0
  3  4  2  0  0  0  0
  4  5  1  0  0  0  0
  5  6  2  0  0  0  0
  1  6  1  0  0  0  0
  6  7  1  0  0  0  0
  7  8  1  0  0  0  0
  8  9  1  0  0  0  0
  9 10  1  0  0  0  0
 10 11  1  0  0  0  0
 13 11  2  0  0  0  0
 11 14  1  0  0  0  0
 12 13  1  0  0  0  0
 14 15  2  0  0  0  0
 15 16  1  0  0  0  0
 12 16  2  0  0  0  0
 12 17  1  0  0  0  0
 17 18  1  0  0  0  0
 16 19  1  0  0  0  0
  9 20  1  6  0  0  0
 20 21  1  0  0  0  0
  8 22  1  6  0  0  0
 22 23  1  0  0  0  0
  4 24  1  0  0  0  0
 24 25  1  0  0  0  0
  3 26  1  0  0  0  0
M  END
> <DATABASE_ID>
DB12179

> <DATABASE_NAME>
drugbank

> <SMILES>
COC1=C(O)C=CC(C[C@@H](CO)[C@H](CO)CC2=CC(OC)=C(O)C=C2)=C1

> <INCHI_IDENTIFIER>
InChI=1S/C20H26O6/c1-25-19-9-13(3-5-17(19)23)7-15(11-21)16(12-22)8-14-4-6-18(24)20(10-14)26-2/h3-6,9-10,15-16,21-24H,7-8,11-12H2,1-2H3/t15-,16-/m0/s1

> <INCHI_KEY>
PUETUDUXMCLALY-HOTGVXAUSA-N

> <FORMULA>
C20H26O6

> <MOLECULAR_WEIGHT>
362.4168

> <EXACT_MASS>
362.172938564

> <JCHEM_ACCEPTOR_COUNT>
6

> <JCHEM_ATOM_COUNT>
52

> <JCHEM_AVERAGE_NEUTRAL_MICROSPECIES_CHARGE>
-0.0016311814029786964

> <JCHEM_AVERAGE_POLARIZABILITY>
38.593055680652554

> <JCHEM_BIOAVAILABILITY>
1

> <JCHEM_DONOR_COUNT>
4

> <JCHEM_FORMAL_CHARGE>
0

> <JCHEM_GHOSE_FILTER>
1

> <JCHEM_IUPAC>
(2R,3R)-2,3-bis[(4-hydroxy-3-methoxyphenyl)methyl]butane-1,4-diol

> <ALOGPS_LOGP>
2.05

> <JCHEM_LOGP>
2.332861082666667

> <ALOGPS_LOGS>
-4.48

> <JCHEM_MDDR_LIKE_RULE>
0

> <JCHEM_NEUTRAL_CHARGE>
0

> <JCHEM_NUMBER_OF_RINGS>
2

> <JCHEM_PHYSIOLOGICAL_CHARGE>
0

> <JCHEM_PKA>
10.565252733196138

> <JCHEM_PKA_STRONGEST_ACIDIC>
9.963198441804694

> <JCHEM_PKA_STRONGEST_BASIC>
-2.6032091933503647

> <JCHEM_POLAR_SURFACE_AREA>
99.38000000000001

> <JCHEM_REFRACTIVITY>
99.28699999999999

> <JCHEM_ROTATABLE_BOND_COUNT>
9

> <JCHEM_RULE_OF_FIVE>
1

> <ALOGPS_SOLUBILITY>
1.20e-02 g/l

> <JCHEM_TRADITIONAL_IUPAC>
biotin

> <JCHEM_VEBER_RULE>
0

> <DRUGBANK_ID>
DB12179

> <DRUG_GROUPS>
investigational

> <GENERIC_NAME>
Secoisolariciresinol

$$$$
