
  Mrv0541 02231217422D          

 13 14  0  0  0  0            999 V2000
    3.9934    2.4750    0.0000 O   0  5  0  0  0  0  0  0  0  0  0  0
    3.2789    2.0625    0.0000 N   0  3  0  0  0  0  0  0  0  0  0  0
    2.5645    2.4750    0.0000 O   0  0  0  0  0  0  0  0  0  0  0  0
    3.2789    1.2375    0.0000 C   0  0  0  0  0  0  0  0  0  0  0  0
    3.9934    0.8250    0.0000 C   0  0  0  0  0  0  0  0  0  0  0  0
    3.9934    0.0000    0.0000 C   0  0  0  0  0  0  0  0  0  0  0  0
    3.2789   -0.4125    0.0000 C   0  0  0  0  0  0  0  0  0  0  0  0
    2.5645    0.0000    0.0000 C   0  0  0  0  0  0  0  0  0  0  0  0
    2.5645    0.8250    0.0000 C   0  0  0  0  0  0  0  0  0  0  0  0
    1.7798    1.0799    0.0000 C   0  0  0  0  0  0  0  0  0  0  0  0
    1.2949    0.4125    0.0000 C   0  0  0  0  0  0  0  0  0  0  0  0
    1.7798   -0.2549    0.0000 C   0  0  0  0  0  0  0  0  0  0  0  0
    1.5249   -1.0396    0.0000 O   0  0  0  0  0  0  0  0  0  0  0  0
  1  2  1  0  0  0  0
  2  3  2  0  0  0  0
  2  4  1  0  0  0  0
  4  5  2  0  0  0  0
  5  6  1  0  0  0  0
  6  7  2  0  0  0  0
  7  8  1  0  0  0  0
  8  9  2  0  0  0  0
  4  9  1  0  0  0  0
  9 10  1  0  0  0  0
 10 11  2  0  0  0  0
 11 12  1  0  0  0  0
  8 12  1  0  0  0  0
 12 13  2  0  0  0  0
M  CHG  2   1  -1   2   1
M  END
> <DATABASE_ID>
DB04479

> <DATABASE_NAME>
drugbank

> <SMILES>
[O-][N+](=O)C1=CC=CC2=C1C=CC2=O

> <INCHI_IDENTIFIER>
InChI=1S/C9H5NO3/c11-9-5-4-6-7(9)2-1-3-8(6)10(12)13/h1-5H

> <INCHI_KEY>
UUNZJPCKMDLQPO-UHFFFAOYSA-N

> <FORMULA>
C9H5NO3

> <MOLECULAR_WEIGHT>
175.1409

> <EXACT_MASS>
175.026943031

> <JCHEM_ACCEPTOR_COUNT>
3

> <JCHEM_ATOM_COUNT>
18

> <JCHEM_AVERAGE_NEUTRAL_MICROSPECIES_CHARGE>
0.0

> <JCHEM_AVERAGE_POLARIZABILITY>
15.860893737539381

> <JCHEM_BIOAVAILABILITY>
1

> <JCHEM_DONOR_COUNT>
0

> <JCHEM_FORMAL_CHARGE>
0

> <JCHEM_GHOSE_FILTER>
0

> <JCHEM_IUPAC>
4-nitro-1H-inden-1-one

> <ALOGPS_LOGP>
1.52

> <JCHEM_LOGP>
1.857063682333333

> <ALOGPS_LOGS>
-2.64

> <JCHEM_MDDR_LIKE_RULE>
0

> <JCHEM_NEUTRAL_CHARGE>
0

> <JCHEM_NUMBER_OF_RINGS>
2

> <JCHEM_PHYSIOLOGICAL_CHARGE>
0

> <JCHEM_PKA_STRONGEST_BASIC>
-7.375583607970379

> <JCHEM_POLAR_SURFACE_AREA>
60.21

> <JCHEM_REFRACTIVITY>
47.1395

> <JCHEM_ROTATABLE_BOND_COUNT>
1

> <JCHEM_RULE_OF_FIVE>
1

> <ALOGPS_SOLUBILITY>
4.02e-01 g/l

> <JCHEM_TRADITIONAL_IUPAC>
tetrahydrofolic acid

> <JCHEM_VEBER_RULE>
0

> <DRUGBANK_ID>
DB04479

> <SECONDARY_ACCESSION_NUMBERS>
EXPT02349

> <DRUG_GROUPS>
experimental

> <GENERIC_NAME>
4-Nitro-Inden-1-One

$$$$
