
  Mrv0541 05031423382D          

 18 18  0  0  1  0            999 V2000
    2.0198    0.8843    0.0000 C   0  0  0  0  0  0  0  0  0  0  0  0
    1.2352    0.6294    0.0000 C   0  0  2  0  0  0  0  0  0  0  0  0
    0.5678    1.1143    0.0000 C   0  0  2  0  0  0  0  0  0  0  0  0
   -0.0997    0.6294    0.0000 C   0  0  1  0  0  0  0  0  0  0  0  0
    0.1553   -0.1553    0.0000 C   0  0  2  0  0  0  0  0  0  0  0  0
    0.5678    1.9393    0.0000 O   0  0  0  0  0  0  0  0  0  0  0  0
   -0.8843    0.8843    0.0000 O   0  0  0  0  0  0  0  0  0  0  0  0
   -0.3297   -0.8227    0.0000 O   0  0  0  0  0  0  0  0  0  0  0  0
    4.2022    0.8421    0.0000 O   0  0  0  0  0  0  0  0  0  0  0  0
    3.6725   -0.1974    0.0000 O   0  0  0  0  0  0  0  0  0  0  0  0
    3.1626    1.3718    0.0000 O   0  0  0  0  0  0  0  0  0  0  0  0
    2.6329    0.3323    0.0000 O   0  0  0  0  0  0  0  0  0  0  0  0
    0.9803   -0.1553    0.0000 O   0  0  0  0  0  0  0  0  0  0  0  0
    3.4175    0.5872    0.0000 P   0  0  0  0  0  0  0  0  0  0  0  0
    1.0778    1.4392    0.0000 H   0  0  0  0  0  0  0  0  0  0  0  0
    1.1304    1.7177    0.0000 H   0  0  0  0  0  0  0  0  0  0  0  0
   -0.2287    1.4442    0.0000 H   0  0  0  0  0  0  0  0  0  0  0  0
   -0.6596   -0.0262    0.0000 H   0  0  0  0  0  0  0  0  0  0  0  0
  2  1  1  1  0  0  0
  3  2  1  0  0  0  0
  4  3  1  0  0  0  0
  5  4  1  0  0  0  0
  3  6  1  6  0  0  0
  4  7  1  1  0  0  0
  5  8  1  1  0  0  0
 12  1  1  0  0  0  0
 13  2  1  0  0  0  0
 13  5  1  0  0  0  0
 14  9  1  0  0  0  0
 14 10  1  0  0  0  0
 14 11  2  0  0  0  0
 14 12  1  0  0  0  0
  2 15  1  6  0  0  0
  3 16  1  1  0  0  0
  4 17  1  6  0  0  0
  5 18  1  6  0  0  0
M  END
> <DATABASE_ID>
DB04127

> <DATABASE_NAME>
drugbank

> <SMILES>
[H][C@@]1(O)O[C@]([H])(COP(O)(O)=O)[C@@]([H])(O)[C@]1([H])O

> <INCHI_IDENTIFIER>
InChI=1S/C5H11O8P/c6-3-2(1-12-14(9,10)11)13-5(8)4(3)7/h2-8H,1H2,(H2,9,10,11)/t2-,3-,4+,5-/m1/s1

> <INCHI_KEY>
KTVPXOYAKDPRHY-SQOUGZDYSA-N

> <FORMULA>
C5H11O8P

> <MOLECULAR_WEIGHT>
230.1098

> <EXACT_MASS>
230.01915384

> <JCHEM_ACCEPTOR_COUNT>
7

> <JCHEM_ATOM_COUNT>
25

> <JCHEM_AVERAGE_NEUTRAL_MICROSPECIES_CHARGE>
-1.9186532079554481

> <JCHEM_AVERAGE_POLARIZABILITY>
18.185189212110437

> <JCHEM_BIOAVAILABILITY>
1

> <JCHEM_DONOR_COUNT>
5

> <JCHEM_FORMAL_CHARGE>
0

> <JCHEM_GHOSE_FILTER>
0

> <JCHEM_IUPAC>
{[(2R,3S,4S,5R)-3,4,5-trihydroxyoxolan-2-yl]methoxy}phosphonic acid

> <ALOGPS_LOGP>
-2.07

> <JCHEM_LOGP>
-2.425770307333333

> <ALOGPS_LOGS>
-0.84

> <JCHEM_MDDR_LIKE_RULE>
0

> <JCHEM_NEUTRAL_CHARGE>
-2

> <JCHEM_NUMBER_OF_RINGS>
1

> <JCHEM_PHYSIOLOGICAL_CHARGE>
-2

> <JCHEM_PKA>
6.248502666590342

> <JCHEM_PKA_STRONGEST_ACIDIC>
1.222686661213393

> <JCHEM_PKA_STRONGEST_BASIC>
-3.6800845195803054

> <JCHEM_POLAR_SURFACE_AREA>
136.68

> <JCHEM_REFRACTIVITY>
40.8338

> <JCHEM_ROTATABLE_BOND_COUNT>
3

> <JCHEM_RULE_OF_FIVE>
1

> <ALOGPS_SOLUBILITY>
3.36e+01 g/l

> <JCHEM_TRADITIONAL_IUPAC>
biotin

> <JCHEM_VEBER_RULE>
0

> <DRUGBANK_ID>
DB04127

> <SECONDARY_ACCESSION_NUMBERS>
EXPT00395

> <DRUG_GROUPS>
experimental

> <GENERIC_NAME>
beta-D-arabinofuranose 5-phosphate

> <SYNONYMS>
5-O-phosphono-β-D-arabinofuranose; β-D-arabinofuranose 5-phosphate

$$$$
