
  Mrv0541 05041400132D          

  9  8  0  0  1  0            999 V2000
    1.2375    0.7145    0.0000 C   0  0  0  0  0  0  0  0  0  0  0  0
    0.5230    1.1270    0.0000 C   0  0  0  0  0  0  0  0  0  0  0  0
    1.9520    1.1270    0.0000 C   0  0  2  0  0  0  0  0  0  0  0  0
    2.6664    0.7145    0.0000 C   0  0  0  0  0  0  0  0  0  0  0  0
    1.9520    1.9520    0.0000 N   0  0  0  0  0  0  0  0  0  0  0  0
   -0.1914    0.7145    0.0000 O   0  0  0  0  0  0  0  0  0  0  0  0
    3.3809    1.1270    0.0000 O   0  0  0  0  0  0  0  0  0  0  0  0
    2.6664   -0.1105    0.0000 O   0  0  0  0  0  0  0  0  0  0  0  0
    1.9520    0.3020    0.0000 H   0  0  0  0  0  0  0  0  0  0  0  0
  2  1  1  0  0  0  0
  3  1  1  0  0  0  0
  4  3  1  0  0  0  0
  3  5  1  6  0  0  0
  6  2  2  0  0  0  0
  7  4  2  0  0  0  0
  8  4  1  0  0  0  0
  3  9  1  6  0  0  0
M  END
> <DATABASE_ID>
DB04498

> <DATABASE_NAME>
drugbank

> <SMILES>
[H][C@@](N)(CC=O)C(O)=O

> <INCHI_IDENTIFIER>
InChI=1S/C4H7NO3/c5-3(1-2-6)4(7)8/h2-3H,1,5H2,(H,7,8)/t3-/m1/s1

> <INCHI_KEY>
HOSWPDPVFBCLSY-GSVOUGTGSA-N

> <FORMULA>
C4H7NO3

> <MOLECULAR_WEIGHT>
117.1033

> <EXACT_MASS>
117.042593095

> <JCHEM_ACCEPTOR_COUNT>
4

> <JCHEM_ATOM_COUNT>
15

> <JCHEM_AVERAGE_NEUTRAL_MICROSPECIES_CHARGE>
-0.010251142979414984

> <JCHEM_AVERAGE_POLARIZABILITY>
10.509102480842383

> <JCHEM_BIOAVAILABILITY>
1

> <JCHEM_DONOR_COUNT>
2

> <JCHEM_FORMAL_CHARGE>
0

> <JCHEM_GHOSE_FILTER>
0

> <JCHEM_IUPAC>
(2R)-2-amino-4-oxobutanoic acid

> <ALOGPS_LOGP>
-2.73

> <JCHEM_LOGP>
-3.6413990293074563

> <ALOGPS_LOGS>
0.28

> <JCHEM_MDDR_LIKE_RULE>
0

> <JCHEM_NEUTRAL_CHARGE>
0

> <JCHEM_NUMBER_OF_RINGS>
0

> <JCHEM_PHYSIOLOGICAL_CHARGE>
0

> <JCHEM_PKA>
17.217439408131533

> <JCHEM_PKA_STRONGEST_ACIDIC>
1.950886233406892

> <JCHEM_PKA_STRONGEST_BASIC>
8.984374398760513

> <JCHEM_POLAR_SURFACE_AREA>
80.39

> <JCHEM_REFRACTIVITY>
25.607300000000002

> <JCHEM_ROTATABLE_BOND_COUNT>
3

> <JCHEM_RULE_OF_FIVE>
1

> <ALOGPS_SOLUBILITY>
2.25e+02 g/l

> <JCHEM_TRADITIONAL_IUPAC>
tetrahydrofolic acid

> <JCHEM_VEBER_RULE>
0

> <DRUGBANK_ID>
DB04498

> <SECONDARY_ACCESSION_NUMBERS>
EXPT00566

> <DRUG_GROUPS>
experimental

> <GENERIC_NAME>
Aspartate Semialdehyde

$$$$
