
  Mrv0541 02231217312D          

  7  6  0  0  1  0            999 V2000
    2.0625    0.7145    0.0000 N   0  0  0  0  0  0  0  0  0  0  0  0
    1.2375    0.7145    0.0000 C   0  0  1  0  0  0  0  0  0  0  0  0
    0.8250    1.4289    0.0000 C   0  0  0  0  0  0  0  0  0  0  0  0
    0.4125    2.1434    0.0000 C   0  0  0  0  0  0  0  0  0  0  0  0
    0.8250    0.0000    0.0000 C   0  0  0  0  0  0  0  0  0  0  0  0
    1.2375   -0.7145    0.0000 O   0  0  0  0  0  0  0  0  0  0  0  0
    0.0000    0.0000    0.0000 O   0  0  0  0  0  0  0  0  0  0  0  0
  2  1  1  6  0  0  0
  2  3  1  0  0  0  0
  3  4  3  0  0  0  0
  2  5  1  0  0  0  0
  5  6  1  0  0  0  0
  5  7  2  0  0  0  0
M  END
> <DATABASE_ID>
DB04217

> <DATABASE_NAME>
drugbank

> <SMILES>
N[C@@H](C#C)C(O)=O

> <INCHI_IDENTIFIER>
InChI=1S/C4H5NO2/c1-2-3(5)4(6)7/h1,3H,5H2,(H,6,7)/t3-/m0/s1

> <INCHI_KEY>
DSUAJFIEKRKPEE-VKHMYHEASA-N

> <FORMULA>
C4H5NO2

> <MOLECULAR_WEIGHT>
99.088

> <EXACT_MASS>
99.032028409

> <JCHEM_ACCEPTOR_COUNT>
3

> <JCHEM_ATOM_COUNT>
12

> <JCHEM_AVERAGE_NEUTRAL_MICROSPECIES_CHARGE>
-0.04795385747373526

> <JCHEM_AVERAGE_POLARIZABILITY>
9.09145559970404

> <JCHEM_BIOAVAILABILITY>
1

> <JCHEM_DONOR_COUNT>
2

> <JCHEM_FORMAL_CHARGE>
0

> <JCHEM_GHOSE_FILTER>
0

> <JCHEM_IUPAC>
(2S)-2-aminobut-3-ynoic acid

> <ALOGPS_LOGP>
-2.22

> <JCHEM_LOGP>
-2.968635151702308

> <ALOGPS_LOGS>
-1.82

> <JCHEM_MDDR_LIKE_RULE>
0

> <JCHEM_NEUTRAL_CHARGE>
0

> <JCHEM_NUMBER_OF_RINGS>
0

> <JCHEM_PHYSIOLOGICAL_CHARGE>
0

> <JCHEM_PKA_STRONGEST_ACIDIC>
1.6608693300611785

> <JCHEM_PKA_STRONGEST_BASIC>
8.297800559022395

> <JCHEM_POLAR_SURFACE_AREA>
63.32

> <JCHEM_REFRACTIVITY>
23.3289

> <JCHEM_ROTATABLE_BOND_COUNT>
1

> <JCHEM_RULE_OF_FIVE>
1

> <ALOGPS_SOLUBILITY>
1.50e+00 g/l

> <JCHEM_TRADITIONAL_IUPAC>
biotin

> <JCHEM_VEBER_RULE>
0

> <DRUGBANK_ID>
DB04217

> <SECONDARY_ACCESSION_NUMBERS>
EXPT02057

> <DRUG_GROUPS>
experimental

> <GENERIC_NAME>
L-2-amino-3-butynoic acid

> <SYNONYMS>
(2S)-2-Amino-3-butynoic acid

$$$$
