
  Mrv0541 08091208242D          

 54 55  0  0  0  0            999 V2000
   13.5749   19.3875    0.0000 C   0  0  0  0  0  0  0  0  0  0  0  0
   14.2894   18.1500    0.0000 C   0  0  0  0  0  0  0  0  0  0  0  0
   12.8605   15.6750    0.0000 C   0  0  0  0  0  0  0  0  0  0  0  0
   11.4315   13.2000    0.0000 C   0  0  0  0  0  0  0  0  0  0  0  0
   10.0026   10.7250    0.0000 C   0  0  0  0  0  0  0  0  0  0  0  0
    8.5737    8.2500    0.0000 C   0  0  0  0  0  0  0  0  0  0  0  0
    7.1447    5.7750    0.0000 C   0  0  0  0  0  0  0  0  0  0  0  0
    5.7158    3.3000    0.0000 C   0  0  0  0  0  0  0  0  0  0  0  0
    4.2868    0.8250    0.0000 C   0  0  0  0  0  0  0  0  0  0  0  0
    0.7145    1.2375    0.0000 C   0  0  0  0  0  0  0  0  0  0  0  0
    0.7145    2.0625    0.0000 C   0  0  0  0  0  0  0  0  0  0  0  0
   12.8605   17.3250    0.0000 C   0  0  0  0  0  0  0  0  0  0  0  0
   11.4315   14.8500    0.0000 C   0  0  0  0  0  0  0  0  0  0  0  0
   10.0026   12.3750    0.0000 C   0  0  0  0  0  0  0  0  0  0  0  0
    8.5737    9.9000    0.0000 C   0  0  0  0  0  0  0  0  0  0  0  0
    7.1447    7.4250    0.0000 C   0  0  0  0  0  0  0  0  0  0  0  0
    5.7158    4.9500    0.0000 C   0  0  0  0  0  0  0  0  0  0  0  0
   12.8605   18.1500    0.0000 C   0  0  0  0  0  0  0  0  0  0  0  0
   12.1460   16.9125    0.0000 C   0  0  0  0  0  0  0  0  0  0  0  0
   11.4315   15.6750    0.0000 C   0  0  0  0  0  0  0  0  0  0  0  0
   10.7171   14.4375    0.0000 C   0  0  0  0  0  0  0  0  0  0  0  0
   10.0026   13.2000    0.0000 C   0  0  0  0  0  0  0  0  0  0  0  0
    9.2881   11.9625    0.0000 C   0  0  0  0  0  0  0  0  0  0  0  0
    8.5737   10.7250    0.0000 C   0  0  0  0  0  0  0  0  0  0  0  0
    7.8592    9.4875    0.0000 C   0  0  0  0  0  0  0  0  0  0  0  0
    7.1447    8.2500    0.0000 C   0  0  0  0  0  0  0  0  0  0  0  0
    6.4302    7.0125    0.0000 C   0  0  0  0  0  0  0  0  0  0  0  0
    5.7158    5.7750    0.0000 C   0  0  0  0  0  0  0  0  0  0  0  0
    5.0013    4.5375    0.0000 C   0  0  0  0  0  0  0  0  0  0  0  0
    1.4289    0.8250    0.0000 C   0  0  0  0  0  0  0  0  0  0  0  0
    1.4289    2.4750    0.0000 C   0  0  0  0  0  0  0  0  0  0  0  0
    4.2868    3.3000    0.0000 C   0  0  0  0  0  0  0  0  0  0  0  0
    4.2868    2.4750    0.0000 C   0  0  0  0  0  0  0  0  0  0  0  0
   13.5749   18.5625    0.0000 C   0  0  0  0  0  0  0  0  0  0  0  0
   12.1460   16.0875    0.0000 C   0  0  0  0  0  0  0  0  0  0  0  0
   10.7171   13.6125    0.0000 C   0  0  0  0  0  0  0  0  0  0  0  0
    9.2881   11.1375    0.0000 C   0  0  0  0  0  0  0  0  0  0  0  0
    7.8592    8.6625    0.0000 C   0  0  0  0  0  0  0  0  0  0  0  0
    6.4302    6.1875    0.0000 C   0  0  0  0  0  0  0  0  0  0  0  0
    5.0013    3.7125    0.0000 C   0  0  0  0  0  0  0  0  0  0  0  0
    3.5724    1.2375    0.0000 C   0  0  0  0  0  0  0  0  0  0  0  0
    3.5724    2.0625    0.0000 C   0  0  0  0  0  0  0  0  0  0  0  0
    2.1434    1.2375    0.0000 C   0  0  0  0  0  0  0  0  0  0  0  0
    2.1434    2.0625    0.0000 C   0  0  0  0  0  0  0  0  0  0  0  0
    2.8579    0.8250    0.0000 C   0  0  0  0  0  0  0  0  0  0  0  0
    2.8579    2.4750    0.0000 C   0  0  0  0  0  0  0  0  0  0  0  0
    2.8579    0.0000    0.0000 O   0  0  0  0  0  0  0  0  0  0  0  0
    2.8579    3.3000    0.0000 O   0  0  0  0  0  0  0  0  0  0  0  0
   10.7171   16.0875    0.0000 H   0  0  0  0  0  0  0  0  0  0  0  0
    9.2881   13.6125    0.0000 H   0  0  0  0  0  0  0  0  0  0  0  0
    7.8592   11.1375    0.0000 H   0  0  0  0  0  0  0  0  0  0  0  0
    6.4302    8.6625    0.0000 H   0  0  0  0  0  0  0  0  0  0  0  0
    5.0013    6.1875    0.0000 H   0  0  0  0  0  0  0  0  0  0  0  0
    3.5724    3.7125    0.0000 H   0  0  0  0  0  0  0  0  0  0  0  0
 11 10  2  0  0  0  0
 18 12  1  0  0  0  0
 19 12  1  0  0  0  0
 20 13  1  0  0  0  0
 21 13  1  0  0  0  0
 22 14  1  0  0  0  0
 23 14  1  0  0  0  0
 24 15  1  0  0  0  0
 25 15  1  0  0  0  0
 26 16  1  0  0  0  0
 27 16  1  0  0  0  0
 28 17  1  0  0  0  0
 29 17  1  0  0  0  0
 30 10  1  0  0  0  0
 31 11  1  0  0  0  0
 33 32  1  0  0  0  0
 34  1  1  0  0  0  0
 34  2  1  0  0  0  0
 34 18  2  0  0  0  0
 35  3  1  0  0  0  0
 35 19  1  0  0  0  0
 35 20  2  0  0  0  0
 36  4  1  0  0  0  0
 36 21  1  0  0  0  0
 36 22  2  0  0  0  0
 37  5  1  0  0  0  0
 37 23  1  0  0  0  0
 37 24  2  0  0  0  0
 38  6  1  0  0  0  0
 38 25  1  0  0  0  0
 38 26  2  0  0  0  0
 39  7  1  0  0  0  0
 39 27  1  0  0  0  0
 39 28  2  0  0  0  0
 40  8  1  0  0  0  0
 40 29  1  0  0  0  0
 40 32  2  0  0  0  0
 41  9  1  0  0  0  0
 42 33  1  0  0  0  0
 42 41  2  0  0  0  0
 43 30  2  0  0  0  0
 44 31  2  0  0  0  0
 44 43  1  0  0  0  0
 45 41  1  0  0  0  0
 45 43  1  0  0  0  0
 46 42  1  0  0  0  0
 46 44  1  0  0  0  0
 47 45  2  0  0  0  0
 48 46  2  0  0  0  0
 49 20  1  0  0  0  0
 50 22  1  0  0  0  0
 51 24  1  0  0  0  0
 52 26  1  0  0  0  0
 53 28  1  0  0  0  0
 54 32  1  0  0  0  0
M  END
> <DATABASE_ID>
DB13075

> <DATABASE_NAME>
drugbank

> <SMILES>
[H]\C(CC\C(C)=C(/[H])CC\C(C)=C(/[H])CC\C(C)=C(/[H])CC\C(C)=C(/[H])CC\C(C)=C(/[H])CC1=C(C)C(=O)C2=CC=CC=C2C1=O)=C(\C)CCC=C(C)C

> <INCHI_IDENTIFIER>
InChI=1S/C46H64O2/c1-34(2)18-12-19-35(3)20-13-21-36(4)22-14-23-37(5)24-15-25-38(6)26-16-27-39(7)28-17-29-40(8)32-33-42-41(9)45(47)43-30-10-11-31-44(43)46(42)48/h10-11,18,20,22,24,26,28,30-32H,12-17,19,21,23,25,27,29,33H2,1-9H3/b35-20+,36-22+,37-24+,38-26+,39-28+,40-32+

> <INCHI_KEY>
RAKQPZMEYJZGPI-LJWNYQGCSA-N

> <FORMULA>
C46H64O2

> <MOLECULAR_WEIGHT>
648.9992

> <EXACT_MASS>
648.490631292

> <JCHEM_ACCEPTOR_COUNT>
2

> <JCHEM_ATOM_COUNT>
112

> <JCHEM_AVERAGE_NEUTRAL_MICROSPECIES_CHARGE>
-2.711093928641291e-12

> <JCHEM_AVERAGE_POLARIZABILITY>
83.23594007412197

> <JCHEM_BIOAVAILABILITY>
0

> <JCHEM_DONOR_COUNT>
0

> <JCHEM_FORMAL_CHARGE>
0

> <JCHEM_GHOSE_FILTER>
0

> <JCHEM_IUPAC>
2-[(2E,6E,10E,14E,18E,22E)-3,7,11,15,19,23,27-heptamethyloctacosa-2,6,10,14,18,22,26-heptaen-1-yl]-3-methyl-1,4-dihydronaphthalene-1,4-dione

> <ALOGPS_LOGP>
9.58

> <JCHEM_LOGP>
13.458850189333333

> <ALOGPS_LOGS>
-6.45

> <JCHEM_MDDR_LIKE_RULE>
0

> <JCHEM_NEUTRAL_CHARGE>
0

> <JCHEM_NUMBER_OF_RINGS>
2

> <JCHEM_PHYSIOLOGICAL_CHARGE>
0

> <JCHEM_PKA_STRONGEST_BASIC>
-7.224343414413889

> <JCHEM_POLAR_SURFACE_AREA>
34.14

> <JCHEM_REFRACTIVITY>
216.91459999999998

> <JCHEM_ROTATABLE_BOND_COUNT>
20

> <JCHEM_RULE_OF_FIVE>
0

> <ALOGPS_SOLUBILITY>
2.29e-04 g/l

> <JCHEM_TRADITIONAL_IUPAC>
tetrahydrofolic acid

> <JCHEM_VEBER_RULE>
0

> <DRUGBANK_ID>
DB13075

> <DRUG_GROUPS>
investigational

> <GENERIC_NAME>
Menaquinone 7

> <SYNONYMS>
Menaquinone-7

> <PRODUCTS>
YYUX Organic Liquid Vitamin D3 plus K2 Drops; algeaSAN pro; algeaSAN reg

$$$$
