
  Mrv0541 05061306252D          

  6  5  0  0  0  0            999 V2000
    2.4750   -1.4289    0.0000 C   0  0  0  0  0  0  0  0  0  0  0  0
    2.4750    0.0000    0.0000 C   0  0  0  0  0  0  0  0  0  0  0  0
    1.2375   -0.7145    0.0000 C   0  0  0  0  0  0  0  0  0  0  0  0
    0.8250    0.0000    0.0000 C   0  0  0  0  0  0  0  0  0  0  0  0
    2.0625   -0.7145    0.0000 N   0  0  0  0  0  0  0  0  0  0  0  0
    0.0000    0.0000    0.0000 O   0  0  0  0  0  0  0  0  0  0  0  0
  4  3  1  0  0  0  0
  5  1  1  0  0  0  0
  5  2  1  0  0  0  0
  5  3  1  0  0  0  0
  6  4  1  0  0  0  0
M  END
> <DATABASE_ID>
DB13352

> <DATABASE_NAME>
drugbank

> <SMILES>
CN(C)CCO

> <INCHI_IDENTIFIER>
InChI=1S/C4H11NO/c1-5(2)3-4-6/h6H,3-4H2,1-2H3

> <INCHI_KEY>
UEEJHVSXFDXPFK-UHFFFAOYSA-N

> <FORMULA>
C4H11NO

> <MOLECULAR_WEIGHT>
89.1362

> <EXACT_MASS>
89.084063979

> <JCHEM_ACCEPTOR_COUNT>
2

> <JCHEM_ATOM_COUNT>
17

> <JCHEM_AVERAGE_NEUTRAL_MICROSPECIES_CHARGE>
0.9907273895606494

> <JCHEM_AVERAGE_POLARIZABILITY>
10.496441263044256

> <JCHEM_BIOAVAILABILITY>
1

> <JCHEM_DONOR_COUNT>
1

> <JCHEM_FORMAL_CHARGE>
0

> <JCHEM_GHOSE_FILTER>
0

> <JCHEM_IUPAC>
2-(dimethylamino)ethan-1-ol

> <ALOGPS_LOGP>
-0.46

> <JCHEM_LOGP>
-0.4999325463333331

> <ALOGPS_LOGS>
1.20

> <JCHEM_MDDR_LIKE_RULE>
0

> <JCHEM_NEUTRAL_CHARGE>
1

> <JCHEM_NUMBER_OF_RINGS>
0

> <JCHEM_PHYSIOLOGICAL_CHARGE>
1

> <JCHEM_PKA_STRONGEST_ACIDIC>
15.594407934501303

> <JCHEM_PKA_STRONGEST_BASIC>
9.028747302274892

> <JCHEM_POLAR_SURFACE_AREA>
23.47

> <JCHEM_REFRACTIVITY>
26.280399999999997

> <JCHEM_ROTATABLE_BOND_COUNT>
2

> <JCHEM_RULE_OF_FIVE>
1

> <ALOGPS_SOLUBILITY>
1.40e+03 g/l

> <JCHEM_TRADITIONAL_IUPAC>
tetrahydrofolic acid

> <JCHEM_VEBER_RULE>
1

> <DRUGBANK_ID>
DB13352

> <DRUG_GROUPS>
experimental

> <GENERIC_NAME>
Deanol

> <SYNONYMS>
2-(dimethylamino)ethanol; Dimethylethanolamine

$$$$
