
  Mrv0541 05031420532D          

 23 25  0  0  1  0            999 V2000
   -0.5683   -1.4940    0.0000 C   0  0  0  0  0  0  0  0  0  0  0  0
    3.3523    1.1104    0.0000 C   0  0  0  0  0  0  0  0  0  0  0  0
    0.6538    1.5229    0.0000 C   0  0  0  0  0  0  0  0  0  0  0  0
    0.0992   -1.0091    0.0000 C   0  0  2  0  0  0  0  0  0  0  0  0
    1.3687   -0.5966    0.0000 C   0  0  2  0  0  0  0  0  0  0  0  0
    1.9233    1.9354    0.0000 C   0  0  0  0  0  0  0  0  0  0  0  0
    0.8838   -1.2640    0.0000 C   0  0  2  0  0  0  0  0  0  0  0  0
    2.6378    2.3479    0.0000 C   0  0  0  0  0  0  0  0  0  0  0  0
    1.9233    1.1104    0.0000 C   0  0  0  0  0  0  0  0  0  0  0  0
    0.8838    0.0709    0.0000 C   0  0  2  0  0  0  0  0  0  0  0  0
    2.1937   -0.5966    0.0000 N   0  0  0  0  0  0  0  0  0  0  0  0
    2.6378    3.1729    0.0000 N   0  0  0  0  0  0  0  0  0  0  0  0
    3.3523    1.9354    0.0000 N   0  0  0  0  0  0  0  0  0  0  0  0
    2.6378    0.6979    0.0000 N   0  0  0  0  0  0  0  0  0  0  0  0
    1.1387    2.1904    0.0000 N   0  0  0  0  0  0  0  0  0  0  0  0
    1.1387    0.8555    0.0000 N   0  0  0  0  0  0  0  0  0  0  0  0
   -0.4820   -2.3145    0.0000 O   0  0  0  0  0  0  0  0  0  0  0  0
    1.1387   -2.0486    0.0000 O   0  0  0  0  0  0  0  0  0  0  0  0
    0.0992   -0.1841    0.0000 O   0  0  0  0  0  0  0  0  0  0  0  0
    0.4991   -1.7306    0.0000 H   0  0  0  0  0  0  0  0  0  0  0  0
    1.7432   -1.3316    0.0000 H   0  0  0  0  0  0  0  0  0  0  0  0
    0.5351   -2.0117    0.0000 H   0  0  0  0  0  0  0  0  0  0  0  0
    1.6986    0.1999    0.0000 H   0  0  0  0  0  0  0  0  0  0  0  0
  4  1  1  1  0  0  0
  7  4  1  0  0  0  0
  7  5  1  0  0  0  0
  8  6  2  0  0  0  0
  9  6  1  0  0  0  0
 10  5  1  0  0  0  0
  5 11  1  6  0  0  0
 12  8  1  0  0  0  0
 13  2  2  0  0  0  0
 13  8  1  0  0  0  0
 14  2  1  0  0  0  0
 14  9  2  0  0  0  0
 15  3  2  0  0  0  0
 15  6  1  0  0  0  0
 16  3  1  0  0  0  0
 16  9  1  0  0  0  0
 10 16  1  1  0  0  0
 17  1  1  0  0  0  0
  7 18  1  6  0  0  0
 19  4  1  0  0  0  0
 19 10  1  0  0  0  0
  4 20  1  6  0  0  0
  5 21  1  1  0  0  0
  7 22  1  1  0  0  0
 10 23  1  6  0  0  0
M  END
> <DATABASE_ID>
DB04102

> <DATABASE_NAME>
drugbank

> <SMILES>
[H][C@]1(CO)O[C@@]([H])(N2C=NC3=C(N)N=CN=C23)[C@]([H])(N)[C@]1([H])O

> <INCHI_IDENTIFIER>
InChI=1S/C10H14N6O3/c11-5-7(18)4(1-17)19-10(5)16-3-15-6-8(12)13-2-14-9(6)16/h2-5,7,10,17-18H,1,11H2,(H2,12,13,14)/t4-,5-,7-,10-/m1/s1

> <INCHI_KEY>
CQKMBZHLOYVGHW-QYYRPYCUSA-N

> <FORMULA>
C10H14N6O3

> <MOLECULAR_WEIGHT>
266.2566

> <EXACT_MASS>
266.112738344

> <JCHEM_ACCEPTOR_COUNT>
8

> <JCHEM_ATOM_COUNT>
33

> <JCHEM_AVERAGE_NEUTRAL_MICROSPECIES_CHARGE>
0.9657573057819373

> <JCHEM_AVERAGE_POLARIZABILITY>
25.54976395827824

> <JCHEM_BIOAVAILABILITY>
1

> <JCHEM_DONOR_COUNT>
4

> <JCHEM_FORMAL_CHARGE>
0

> <JCHEM_GHOSE_FILTER>
0

> <JCHEM_IUPAC>
(2R,3S,4R,5R)-4-amino-5-(6-amino-9H-purin-9-yl)-2-(hydroxymethyl)oxolan-3-ol

> <ALOGPS_LOGP>
-1.42

> <JCHEM_LOGP>
-2.197845668333333

> <ALOGPS_LOGS>
-1.42

> <JCHEM_MDDR_LIKE_RULE>
0

> <JCHEM_NEUTRAL_CHARGE>
1

> <JCHEM_NUMBER_OF_RINGS>
3

> <JCHEM_PHYSIOLOGICAL_CHARGE>
1

> <JCHEM_PKA>
14.713701139056203

> <JCHEM_PKA_STRONGEST_ACIDIC>
13.375615624380817

> <JCHEM_PKA_STRONGEST_BASIC>
8.351501553545223

> <JCHEM_POLAR_SURFACE_AREA>
145.33

> <JCHEM_REFRACTIVITY>
64.8531

> <JCHEM_ROTATABLE_BOND_COUNT>
2

> <JCHEM_RULE_OF_FIVE>
1

> <ALOGPS_SOLUBILITY>
1.00e+01 g/l

> <JCHEM_TRADITIONAL_IUPAC>
tetrahydrofolic acid

> <JCHEM_VEBER_RULE>
0

> <DRUGBANK_ID>
DB04102

> <SECONDARY_ACCESSION_NUMBERS>
EXPT00101

> <DRUG_GROUPS>
experimental

> <GENERIC_NAME>
2-Amino-Adenosine

$$$$
