
  Mrv0541 02231216422D          

 11 11  0  0  0  0            999 V2000
    0.7145   -1.2375    0.0000 C   0  0  0  0  0  0  0  0  0  0  0  0
    0.7145   -0.4125    0.0000 C   0  0  0  0  0  0  0  0  0  0  0  0
    0.0000    0.0000    0.0000 C   0  0  0  0  0  0  0  0  0  0  0  0
    0.0000    0.8250    0.0000 C   0  0  0  0  0  0  0  0  0  0  0  0
    0.7145    1.2375    0.0000 C   0  0  0  0  0  0  0  0  0  0  0  0
    1.4289    0.8250    0.0000 C   0  0  0  0  0  0  0  0  0  0  0  0
    1.4289    0.0000    0.0000 C   0  0  0  0  0  0  0  0  0  0  0  0
    0.7145    2.0625    0.0000 S   0  0  0  0  0  0  0  0  0  0  0  0
    0.7145    2.8875    0.0000 O   0  0  0  0  0  0  0  0  0  0  0  0
    1.5395    2.0625    0.0000 O   0  0  0  0  0  0  0  0  0  0  0  0
   -0.1105    2.0625    0.0000 O   0  0  0  0  0  0  0  0  0  0  0  0
  1  2  1  0  0  0  0
  2  3  2  0  0  0  0
  3  4  1  0  0  0  0
  4  5  2  0  0  0  0
  5  6  1  0  0  0  0
  6  7  2  0  0  0  0
  2  7  1  0  0  0  0
  5  8  1  0  0  0  0
  8  9  1  0  0  0  0
  8 10  2  0  0  0  0
  8 11  2  0  0  0  0
M  END
> <DATABASE_ID>
DB03120

> <DATABASE_NAME>
drugbank

> <SMILES>
CC1=CC=C(C=C1)S(O)(=O)=O

> <INCHI_IDENTIFIER>
InChI=1S/C7H8O3S/c1-6-2-4-7(5-3-6)11(8,9)10/h2-5H,1H3,(H,8,9,10)

> <INCHI_KEY>
JOXIMZWYDAKGHI-UHFFFAOYSA-N

> <FORMULA>
C7H8O3S

> <MOLECULAR_WEIGHT>
172.202

> <EXACT_MASS>
172.019414812

> <JCHEM_ACCEPTOR_COUNT>
3

> <JCHEM_ATOM_COUNT>
19

> <JCHEM_AVERAGE_NEUTRAL_MICROSPECIES_CHARGE>
-0.999999999271026

> <JCHEM_AVERAGE_POLARIZABILITY>
16.54787015323985

> <JCHEM_BIOAVAILABILITY>
1

> <JCHEM_DONOR_COUNT>
1

> <JCHEM_FORMAL_CHARGE>
0

> <JCHEM_GHOSE_FILTER>
0

> <JCHEM_IUPAC>
4-methylbenzene-1-sulfonic acid

> <ALOGPS_LOGP>
-0.88

> <JCHEM_LOGP>
1.6675739219999997

> <ALOGPS_LOGS>
-1.87

> <JCHEM_MDDR_LIKE_RULE>
0

> <JCHEM_NEUTRAL_CHARGE>
-1

> <JCHEM_NUMBER_OF_RINGS>
1

> <JCHEM_PHYSIOLOGICAL_CHARGE>
-1

> <JCHEM_PKA_STRONGEST_ACIDIC>
-2.1372879562372247

> <JCHEM_POLAR_SURFACE_AREA>
54.37

> <JCHEM_REFRACTIVITY>
41.7217

> <JCHEM_ROTATABLE_BOND_COUNT>
1

> <JCHEM_RULE_OF_FIVE>
1

> <ALOGPS_SOLUBILITY>
2.30e+00 g/l

> <JCHEM_TRADITIONAL_IUPAC>
biotin

> <JCHEM_VEBER_RULE>
0

> <DRUGBANK_ID>
DB03120

> <SECONDARY_ACCESSION_NUMBERS>
EXPT03125

> <DRUG_GROUPS>
experimental

> <GENERIC_NAME>
p-Toluenesulfonic acid

> <SYNONYMS>
4-toluenesulfonic acid; p-methylbenzenesulfonic acid; p-methylphenylsulfonic acid; p-toluenesulfonic acid; p-toluenesulphonic acid; p-tolylsulfonic acid; para-toluene sulfonate; toluene-4-sulfonic acid; Tosic acid; Tosylic acid

$$$$
