
  Mrv0541 05041408582D          

 72 78  0  0  1  0            999 V2000
    7.4190   -3.9989    0.0000 C   0  0  0  0  0  0  0  0  0  0  0  0
    7.0065   -7.5712    0.0000 C   0  0  0  0  0  0  0  0  0  0  0  0
   15.2506   -0.6944    0.0000 C   0  0  0  0  0  0  0  0  0  0  0  0
   14.6694   -1.9998    0.0000 C   0  0  0  0  0  0  0  0  0  0  0  0
   11.8272   -2.2985    0.0000 C   0  0  0  0  0  0  0  0  0  0  0  0
    3.2940   -4.8239    0.0000 C   0  0  0  0  0  0  0  0  0  0  0  0
   12.1497    1.4683    0.0000 C   0  0  0  0  0  0  0  0  0  0  0  0
   11.4822    0.9834    0.0000 C   0  0  0  0  0  0  0  0  0  0  0  0
    8.2440   -6.8568    0.0000 C   0  0  0  0  0  0  0  0  0  0  0  0
    8.6565   -6.1423    0.0000 C   0  0  0  0  0  0  0  0  0  0  0  0
    4.1190   -5.4278    0.0000 C   0  0  0  0  0  0  0  0  0  0  0  0
    4.5315   -6.1423    0.0000 C   0  0  0  0  0  0  0  0  0  0  0  0
   14.4107    0.4617    0.0000 C   0  0  0  0  0  0  0  0  0  0  0  0
    9.9664   -6.8097    0.0000 C   0  0  0  0  0  0  0  0  0  0  0  0
   12.1721   -5.5804    0.0000 C   0  0  0  0  0  0  0  0  0  0  0  0
   12.9033    1.1328    0.0000 C   0  0  0  0  0  0  0  0  0  0  0  0
   13.6570    0.7972    0.0000 C   0  0  0  0  0  0  0  0  0  0  0  0
   10.7510   -6.5548    0.0000 C   0  0  0  0  0  0  0  0  0  0  0  0
   11.5047   -6.0654    0.0000 C   0  0  0  0  0  0  0  0  0  0  0  0
   11.5685    0.1629    0.0000 C   0  0  0  0  0  0  0  0  0  0  0  0
    7.4190   -5.4278    0.0000 C   0  0  0  0  0  0  0  0  0  0  0  0
   13.2483   -2.1491    0.0000 C   0  0  0  0  0  0  0  0  0  0  0  0
    6.1815   -4.7134    0.0000 C   0  0  0  0  0  0  0  0  0  0  0  0
    4.1190   -3.9989    0.0000 C   0  0  0  0  0  0  0  0  0  0  0  0
    7.0065   -4.7134    0.0000 C   0  0  0  0  0  0  0  0  0  0  0  0
    7.4190   -6.8568    0.0000 C   0  0  2  0  0  0  0  0  0  0  0  0
   14.4969   -0.3588    0.0000 C   0  0  2  0  0  0  0  0  0  0  0  0
   13.9157   -1.6642    0.0000 C   0  0  1  0  0  0  0  0  0  0  0  0
   11.9134   -3.1190    0.0000 C   0  0  0  0  0  0  0  0  0  0  0  0
    9.4815   -6.1423    0.0000 C   0  0  1  0  0  0  0  0  0  0  0  0
    4.5315   -4.7134    0.0000 C   0  0  1  0  0  0  0  0  0  0  0  0
   13.3345   -2.9696    0.0000 C   0  0  1  0  0  0  0  0  0  0  0  0
   12.0859   -4.7599    0.0000 C   0  0  2  0  0  0  0  0  0  0  0  0
    7.0065   -6.1423    0.0000 C   0  0  1  0  0  0  0  0  0  0  0  0
    5.3565   -6.1423    0.0000 C   0  0  2  0  0  0  0  0  0  0  0  0
   11.2460   -3.6039    0.0000 C   0  0  2  0  0  0  0  0  0  0  0  0
   13.8295   -0.8437    0.0000 C   0  0  1  0  0  0  0  0  0  0  0  0
   12.6671   -3.4545    0.0000 C   0  0  1  0  0  0  0  0  0  0  0  0
   11.3322   -4.4244    0.0000 C   0  0  2  0  0  0  0  0  0  0  0  0
    2.4690   -3.9989    0.0000 C   0  0  0  0  0  0  0  0  0  0  0  0
    3.2940   -3.9989    0.0000 C   0  0  1  0  0  0  0  0  0  0  0  0
   12.9896    0.3123    0.0000 C   0  0  2  0  0  0  0  0  0  0  0  0
   10.7510   -5.7298    0.0000 C   0  0  1  0  0  0  0  0  0  0  0  0
    5.7690   -5.4278    0.0000 C   0  0  1  0  0  0  0  0  0  0  0  0
   14.0882   -3.3052    0.0000 O   0  0  0  0  0  0  0  0  0  0  0  0
    5.7690   -6.8568    0.0000 O   0  0  0  0  0  0  0  0  0  0  0  0
   10.4923   -3.2684    0.0000 O   0  0  0  0  0  0  0  0  0  0  0  0
    2.0565   -4.7134    0.0000 O   0  0  0  0  0  0  0  0  0  0  0  0
    2.0565   -3.2844    0.0000 O   0  0  0  0  0  0  0  0  0  0  0  0
    3.2940   -3.1739    0.0000 O   0  0  0  0  0  0  0  0  0  0  0  0
   12.3221   -0.1726    0.0000 O   0  0  0  0  0  0  0  0  0  0  0  0
   12.7533   -4.2750    0.0000 O   0  0  0  0  0  0  0  0  0  0  0  0
    9.9664   -5.4749    0.0000 O   0  0  0  0  0  0  0  0  0  0  0  0
    5.3565   -4.7134    0.0000 O   0  0  0  0  0  0  0  0  0  0  0  0
    6.1815   -6.1423    0.0000 O   0  0  0  0  0  0  0  0  0  0  0  0
   13.0758   -0.5082    0.0000 O   0  0  0  0  0  0  0  0  0  0  0  0
   10.6648   -4.9093    0.0000 O   0  0  0  0  0  0  0  0  0  0  0  0
    8.6565   -7.5712    0.0000 H   0  0  0  0  0  0  0  0  0  0  0  0
    8.2440   -5.4278    0.0000 H   0  0  0  0  0  0  0  0  0  0  0  0
    7.8315   -7.5712    0.0000 H   0  0  0  0  0  0  0  0  0  0  0  0
   15.1644    0.1261    0.0000 H   0  0  0  0  0  0  0  0  0  0  0  0
   14.0020   -2.4847    0.0000 H   0  0  0  0  0  0  0  0  0  0  0  0
    9.1069   -6.8774    0.0000 H   0  0  0  0  0  0  0  0  0  0  0  0
    3.7065   -4.7134    0.0000 H   0  0  0  0  0  0  0  0  0  0  0  0
   12.5115   -2.9121    0.0000 H   0  0  0  0  0  0  0  0  0  0  0  0
   12.8396   -5.0955    0.0000 H   0  0  0  0  0  0  0  0  0  0  0  0
    7.8315   -6.1423    0.0000 H   0  0  0  0  0  0  0  0  0  0  0  0
    4.9440   -6.8568    0.0000 H   0  0  0  0  0  0  0  0  0  0  0  0
   11.1597   -2.7834    0.0000 H   0  0  0  0  0  0  0  0  0  0  0  0
   14.5832   -1.1793    0.0000 H   0  0  0  0  0  0  0  0  0  0  0  0
   12.3054   -2.7130    0.0000 H   0  0  0  0  0  0  0  0  0  0  0  0
   10.5785   -4.0888    0.0000 H   0  0  0  0  0  0  0  0  0  0  0  0
  8  7  1  0  0  0  0
 10  9  2  0  0  0  0
 12 11  1  0  0  0  0
 16  7  1  0  0  0  0
 17 13  1  0  0  0  0
 18 14  1  0  0  0  0
 19 15  1  0  0  0  0
 20  8  1  0  0  0  0
 25  1  1  0  0  0  0
 25 21  1  0  0  0  0
 25 23  2  0  0  0  0
 26  2  1  1  0  0  0
 26  9  1  0  0  0  0
 27  3  1  1  0  0  0
 27 13  1  0  0  0  0
 28  4  1  1  0  0  0
 28 22  1  0  0  0  0
 29  5  2  0  0  0  0
 30 10  1  6  0  0  0
 30 14  1  0  0  0  0
 31 11  1  0  0  0  0
 31 24  1  1  0  0  0
 32 22  1  0  0  0  0
 33 15  1  0  0  0  0
 34 21  1  0  0  0  0
 34 26  1  1  0  0  0
 35 12  1  0  0  0  0
 36 29  1  0  0  0  0
 37 27  1  0  0  0  0
 37 28  1  1  0  0  0
 38 29  1  0  0  0  0
 38 32  1  1  0  0  0
 39 33  1  0  0  0  0
 39 36  1  0  0  0  0
 41  6  1  1  0  0  0
 41 24  1  0  0  0  0
 41 40  1  0  0  0  0
 42 16  1  0  0  0  0
 42 17  1  0  0  0  0
 43 18  1  0  0  0  0
 43 19  1  0  0  0  0
 44 23  1  0  0  0  0
 44 35  1  0  0  0  0
 32 45  1  1  0  0  0
 35 46  1  6  0  0  0
 36 47  1  6  0  0  0
 48 40  2  0  0  0  0
 49 40  1  0  0  0  0
 41 50  1  1  0  0  0
 51 20  1  0  0  0  0
 42 51  1  6  0  0  0
 52 33  1  0  0  0  0
 52 38  1  0  0  0  0
 53 30  1  0  0  0  0
 43 53  1  6  0  0  0
 54 31  1  0  0  0  0
 44 54  1  6  0  0  0
 55 34  1  0  0  0  0
 55 44  1  0  0  0  0
 56 37  1  0  0  0  0
 56 42  1  0  0  0  0
 57 39  1  0  0  0  0
 57 43  1  0  0  0  0
 58  9  1  0  0  0  0
 59 10  1  0  0  0  0
 26 60  1  6  0  0  0
 27 61  1  6  0  0  0
 28 62  1  6  0  0  0
 30 63  1  1  0  0  0
 31 64  1  6  0  0  0
 32 65  1  1  0  0  0
 33 66  1  1  0  0  0
 34 67  1  6  0  0  0
 35 68  1  1  0  0  0
 36 69  1  1  0  0  0
 37 70  1  6  0  0  0
 38 71  1  6  0  0  0
 39 72  1  6  0  0  0
M  END
> <DATABASE_ID>
DB02169

> <DATABASE_NAME>
drugbank

> <SMILES>
[H]\C(=C(\[H])[C@@]1([H])CC[C@@]2(CC[C@@]3([H])O[C@@]([H])(C(=C)[C@@]([H])(O)[C@]3([H])O2)[C@@]([H])(O)C[C@]([H])(C)[C@@]2([H])O[C@@]3(CCCCO3)CC[C@@]2([H])C)O1)[C@@]([H])(C)[C@]1([H])CC(C)=C[C@@]2(O[C@]([H])(C[C@@](C)(O)C(O)=O)CC[C@@]2([H])O)O1

> <INCHI_IDENTIFIER>
InChI=1S/C44H68O13/c1-25-21-34(55-44(23-25)35(46)12-11-31(54-44)24-41(6,50)40(48)49)26(2)9-10-30-14-18-43(53-30)19-15-33-39(57-43)36(47)29(5)38(52-33)32(45)22-28(4)37-27(3)13-17-42(56-37)16-7-8-20-51-42/h9-10,23,26-28,30-39,45-47,50H,5,7-8,11-22,24H2,1-4,6H3,(H,48,49)/b10-9+/t26-,27-,28+,30+,31+,32+,33-,34+,35-,36-,37+,38+,39-,41-,42+,43-,44-/m1/s1

> <INCHI_KEY>
QNDVLZJODHBUFM-WFXQOWMNSA-N

> <FORMULA>
C44H68O13

> <MOLECULAR_WEIGHT>
805.0029

> <EXACT_MASS>
804.465992262

> <JCHEM_ACCEPTOR_COUNT>
13

> <JCHEM_ATOM_COUNT>
125

> <JCHEM_AVERAGE_NEUTRAL_MICROSPECIES_CHARGE>
-0.9994241529518969

> <JCHEM_AVERAGE_POLARIZABILITY>
88.63677870419656

> <JCHEM_BIOAVAILABILITY>
0

> <JCHEM_DONOR_COUNT>
5

> <JCHEM_FORMAL_CHARGE>
0

> <JCHEM_GHOSE_FILTER>
0

> <JCHEM_IUPAC>
(2R)-3-[(2S,5R,6R,8S)-8-[(2R,3E)-4-[(2R,4'aR,5R,6'S,8'R,8'aS)-8'-hydroxy-6'-[(1S,3S)-1-hydroxy-3-[(2S,3R,6S)-3-methyl-1,7-dioxaspiro[5.5]undecan-2-yl]butyl]-7'-methylidene-hexahydro-3'H-spiro[oxolane-2,2'-pyrano[3,2-b]pyran]-5-yl]but-3-en-2-yl]-5-hydroxy-10-methyl-1,7-dioxaspiro[5.5]undec-10-en-2-yl]-2-hydroxy-2-methylpropanoic acid

> <ALOGPS_LOGP>
2.73

> <JCHEM_LOGP>
5.134746159333332

> <ALOGPS_LOGS>
-5.26

> <JCHEM_MDDR_LIKE_RULE>
1

> <JCHEM_NEUTRAL_CHARGE>
-1

> <JCHEM_NUMBER_OF_RINGS>
7

> <JCHEM_PHYSIOLOGICAL_CHARGE>
-1

> <JCHEM_PKA>
12.930482613594505

> <JCHEM_PKA_STRONGEST_ACIDIC>
3.7619459573873675

> <JCHEM_PKA_STRONGEST_BASIC>
-3.185891878291254

> <JCHEM_POLAR_SURFACE_AREA>
182.82999999999996

> <JCHEM_REFRACTIVITY>
210.78060000000002

> <JCHEM_ROTATABLE_BOND_COUNT>
10

> <JCHEM_RULE_OF_FIVE>
0

> <ALOGPS_SOLUBILITY>
4.42e-03 g/l

> <JCHEM_TRADITIONAL_IUPAC>
biotin

> <JCHEM_VEBER_RULE>
0

> <DRUGBANK_ID>
DB02169

> <SECONDARY_ACCESSION_NUMBERS>
EXPT02429

> <DRUG_GROUPS>
experimental

> <GENERIC_NAME>
9,10-Deepithio-9,10-Didehydroacanthifolicin

$$$$
