
  Mrv0541 05041411022D          

 16 15  0  0  1  0            999 V2000
    1.9520   -1.7309    0.0000 C   0  0  0  0  0  0  0  0  0  0  0  0
   -0.6039    0.0000    0.0000 C   0  0  0  0  0  0  0  0  0  0  0  0
    1.5395   -1.0164    0.0000 C   0  0  0  0  0  0  0  0  0  0  0  0
    0.1105    0.4125    0.0000 C   0  0  0  0  0  0  0  0  0  0  0  0
    1.5395    1.8414    0.0000 C   0  0  0  0  0  0  0  0  0  0  0  0
    1.1270    2.5559    0.0000 C   0  0  1  0  0  0  0  0  0  0  0  0
    1.5395    3.2704    0.0000 C   0  0  0  0  0  0  0  0  0  0  0  0
    0.3020    2.5559    0.0000 N   0  0  0  0  0  0  0  0  0  0  0  0
    1.1270    3.9849    0.0000 O   0  0  0  0  0  0  0  0  0  0  0  0
    2.3645    3.2704    0.0000 O   0  0  0  0  0  0  0  0  0  0  0  0
    2.2539    0.8250    0.0000 O   0  0  0  0  0  0  0  0  0  0  0  0
    1.9520   -0.3020    0.0000 O   0  0  0  0  0  0  0  0  0  0  0  0
    0.8250    0.0000    0.0000 O   0  0  0  0  0  0  0  0  0  0  0  0
    1.1270    1.1270    0.0000 O   0  0  0  0  0  0  0  0  0  0  0  0
    1.5395    0.4125    0.0000 P   0  0  0  0  0  0  0  0  0  0  0  0
    1.9520    2.5559    0.0000 H   0  0  0  0  0  0  0  0  0  0  0  0
  3  1  1  0  0  0  0
  4  2  1  0  0  0  0
  6  5  1  0  0  0  0
  7  6  1  0  0  0  0
  6  8  1  1  0  0  0
  9  7  2  0  0  0  0
 10  7  1  0  0  0  0
 12  3  1  0  0  0  0
 13  4  1  0  0  0  0
 14  5  1  0  0  0  0
 15 11  2  0  0  0  0
 15 12  1  0  0  0  0
 15 13  1  0  0  0  0
 15 14  1  0  0  0  0
  6 16  1  1  0  0  0
M  END
> <DATABASE_ID>
DB02364

> <DATABASE_NAME>
drugbank

> <SMILES>
[H][C@](N)(COP(=O)(OCC)OCC)C(O)=O

> <INCHI_IDENTIFIER>
InChI=1S/C7H16NO6P/c1-3-12-15(11,13-4-2)14-5-6(8)7(9)10/h6H,3-5,8H2,1-2H3,(H,9,10)/t6-/m0/s1

> <INCHI_KEY>
MOFCKRBDMJNCOC-LURJTMIESA-N

> <FORMULA>
C7H16NO6P

> <MOLECULAR_WEIGHT>
241.1788

> <EXACT_MASS>
241.071523761

> <JCHEM_ACCEPTOR_COUNT>
4

> <JCHEM_ATOM_COUNT>
31

> <JCHEM_AVERAGE_NEUTRAL_MICROSPECIES_CHARGE>
-0.00451813267337986

> <JCHEM_AVERAGE_POLARIZABILITY>
21.982363843330113

> <JCHEM_BIOAVAILABILITY>
1

> <JCHEM_DONOR_COUNT>
2

> <JCHEM_FORMAL_CHARGE>
0

> <JCHEM_GHOSE_FILTER>
0

> <JCHEM_IUPAC>
(2S)-2-amino-3-[(diethoxyphosphoryl)oxy]propanoic acid

> <ALOGPS_LOGP>
-1.36

> <JCHEM_LOGP>
-2.5419743240293733

> <ALOGPS_LOGS>
-0.84

> <JCHEM_MDDR_LIKE_RULE>
0

> <JCHEM_NEUTRAL_CHARGE>
0

> <JCHEM_NUMBER_OF_RINGS>
0

> <JCHEM_PHYSIOLOGICAL_CHARGE>
0

> <JCHEM_PKA_STRONGEST_ACIDIC>
2.187055762912153

> <JCHEM_PKA_STRONGEST_BASIC>
9.341594257788488

> <JCHEM_POLAR_SURFACE_AREA>
108.08000000000003

> <JCHEM_REFRACTIVITY>
51.3757

> <JCHEM_ROTATABLE_BOND_COUNT>
8

> <JCHEM_RULE_OF_FIVE>
1

> <ALOGPS_SOLUBILITY>
3.50e+01 g/l

> <JCHEM_TRADITIONAL_IUPAC>
biotin

> <JCHEM_VEBER_RULE>
0

> <DRUGBANK_ID>
DB02364

> <SECONDARY_ACCESSION_NUMBERS>
EXPT02876

> <DRUG_GROUPS>
experimental

> <GENERIC_NAME>
2-Amino-3-(Diethoxy-Phosphoryloxy)-Propionic Acid

$$$$
