
  Mrv0541 02231217512D          

 55 58  0  0  1  0            999 V2000
   -4.9294   -7.5662    0.0000 N   0  0  0  0  0  0  0  0  0  0  0  0
   -5.6439   -7.1537    0.0000 C   0  0  0  0  0  0  0  0  0  0  0  0
   -6.3584   -7.5662    0.0000 O   0  0  0  0  0  0  0  0  0  0  0  0
   -5.6439   -6.3287    0.0000 C   0  0  2  0  0  0  0  0  0  0  0  0
   -6.3584   -5.9162    0.0000 C   0  0  0  0  0  0  0  0  0  0  0  0
   -7.0728   -6.3287    0.0000 C   0  0  0  0  0  0  0  0  0  0  0  0
   -7.7873   -5.9162    0.0000 C   0  0  0  0  0  0  0  0  0  0  0  0
   -8.5018   -6.3287    0.0000 C   0  0  0  0  0  0  0  0  0  0  0  0
   -8.5018   -7.1537    0.0000 N   0  0  0  0  0  0  0  0  0  0  0  0
   -9.2162   -7.5662    0.0000 C   0  0  0  0  0  0  0  0  0  0  0  0
   -9.9307   -7.1537    0.0000 N   0  0  0  0  0  0  0  0  0  0  0  0
   -9.2162   -8.3912    0.0000 N   0  0  0  0  0  0  0  0  0  0  0  0
   -4.9294   -5.9162    0.0000 N   0  0  0  0  0  0  0  0  0  0  0  0
   -4.2150   -6.3287    0.0000 C   0  0  0  0  0  0  0  0  0  0  0  0
   -4.2150   -7.1537    0.0000 O   0  0  0  0  0  0  0  0  0  0  0  0
   -3.5005   -5.9162    0.0000 C   0  0  1  0  0  0  0  0  0  0  0  0
   -3.5005   -5.0912    0.0000 C   0  0  0  0  0  0  0  0  0  0  0  0
   -4.2150   -4.6787    0.0000 C   0  0  0  0  0  0  0  0  0  0  0  0
   -4.9294   -5.0912    0.0000 C   0  0  0  0  0  0  0  0  0  0  0  0
   -5.6439   -4.6787    0.0000 C   0  0  0  0  0  0  0  0  0  0  0  0
   -5.6439   -3.8537    0.0000 C   0  0  0  0  0  0  0  0  0  0  0  0
   -6.3584   -3.4412    0.0000 O   0  0  0  0  0  0  0  0  0  0  0  0
   -4.9294   -3.4412    0.0000 C   0  0  0  0  0  0  0  0  0  0  0  0
   -4.2150   -3.8537    0.0000 C   0  0  0  0  0  0  0  0  0  0  0  0
   -2.7860   -6.3287    0.0000 N   0  0  0  0  0  0  0  0  0  0  0  0
   -2.0715   -5.9162    0.0000 C   0  0  0  0  0  0  0  0  0  0  0  0
   -2.0715   -5.0912    0.0000 O   0  0  0  0  0  0  0  0  0  0  0  0
   -1.3571   -6.3287    0.0000 C   0  0  2  0  0  0  0  0  0  0  0  0
   -1.1435   -7.1256    0.0000 C   0  0  0  0  0  0  0  0  0  0  0  0
   -0.3467   -6.9121    0.0000 C   0  0  0  0  0  0  0  0  0  0  0  0
   -0.5602   -6.1152    0.0000 N   0  0  0  0  0  0  0  0  0  0  0  0
   -0.1477   -5.4008    0.0000 C   0  0  0  0  0  0  0  0  0  0  0  0
   -0.5602   -4.6863    0.0000 O   0  0  0  0  0  0  0  0  0  0  0  0
    0.6773   -5.4008    0.0000 C   0  0  1  0  0  0  0  0  0  0  0  0
    1.0898   -4.6863    0.0000 C   0  0  0  0  0  0  0  0  0  0  0  0
    0.6773   -3.9718    0.0000 C   0  0  0  0  0  0  0  0  0  0  0  0
   -0.1477   -3.9718    0.0000 C   0  0  0  0  0  0  0  0  0  0  0  0
   -0.5602   -3.2573    0.0000 C   0  0  0  0  0  0  0  0  0  0  0  0
   -0.1477   -2.5429    0.0000 C   0  0  0  0  0  0  0  0  0  0  0  0
    0.6773   -2.5429    0.0000 C   0  0  0  0  0  0  0  0  0  0  0  0
    1.0898   -3.2573    0.0000 C   0  0  0  0  0  0  0  0  0  0  0  0
    1.0898   -6.1152    0.0000 N   0  0  0  0  0  0  0  0  0  0  0  0
    1.9148   -6.1152    0.0000 C   0  0  0  0  0  0  0  0  0  0  0  0
    2.3273   -6.8297    0.0000 O   0  0  0  0  0  0  0  0  0  0  0  0
    2.3273   -5.4008    0.0000 C   0  0  2  0  0  0  0  0  0  0  0  0
    1.9148   -4.6863    0.0000 C   0  0  0  0  0  0  0  0  0  0  0  0
    2.3273   -3.9718    0.0000 C   0  0  0  0  0  0  0  0  0  0  0  0
    3.1523   -3.9718    0.0000 C   0  0  1  0  0  0  0  0  0  0  0  0
    3.5648   -4.6863    0.0000 C   0  0  0  0  0  0  0  0  0  0  0  0
    3.1523   -5.4008    0.0000 C   0  0  0  0  0  0  0  0  0  0  0  0
    3.5648   -3.2573    0.0000 C   0  0  0  0  0  0  0  0  0  0  0  0
    4.3898   -3.2573    0.0000 N   0  0  0  0  0  0  0  0  0  0  0  0
    4.8023   -2.5429    0.0000 C   0  0  0  0  0  0  0  0  0  0  0  0
    4.3898   -1.8284    0.0000 N   0  0  0  0  0  0  0  0  0  0  0  0
    5.6273   -2.5429    0.0000 N   0  0  0  0  0  0  0  0  0  0  0  0
  1  2  1  0  0  0  0
  2  3  2  0  0  0  0
  2  4  1  0  0  0  0
  4  5  1  0  0  0  0
  5  6  1  0  0  0  0
  6  7  1  0  0  0  0
  7  8  1  0  0  0  0
  8  9  1  0  0  0  0
  9 10  2  0  0  0  0
 10 11  1  0  0  0  0
 10 12  1  0  0  0  0
  4 13  1  6  0  0  0
 13 14  1  0  0  0  0
 14 15  2  0  0  0  0
 14 16  1  0  0  0  0
 16 17  1  0  0  0  0
 17 18  1  0  0  0  0
 18 19  2  0  0  0  0
 19 20  1  0  0  0  0
 20 21  2  0  0  0  0
 21 22  1  0  0  0  0
 21 23  1  0  0  0  0
 23 24  2  0  0  0  0
 18 24  1  0  0  0  0
 16 25  1  1  0  0  0
 25 26  1  0  0  0  0
 26 27  2  0  0  0  0
 28 26  1  1  0  0  0
 28 29  1  0  0  0  0
 29 30  1  0  0  0  0
 30 31  1  0  0  0  0
 28 31  1  0  0  0  0
 31 32  1  0  0  0  0
 32 33  2  0  0  0  0
 32 34  1  0  0  0  0
 34 35  1  0  0  0  0
 35 36  1  0  0  0  0
 36 37  1  0  0  0  0
 37 38  1  0  0  0  0
 38 39  1  0  0  0  0
 39 40  1  0  0  0  0
 40 41  1  0  0  0  0
 36 41  1  0  0  0  0
 34 42  1  1  0  0  0
 42 43  1  0  0  0  0
 43 44  2  0  0  0  0
 45 43  1  6  0  0  0
 45 46  1  0  0  0  0
 46 47  1  0  0  0  0
 47 48  1  0  0  0  0
 48 49  1  0  0  0  0
 49 50  1  0  0  0  0
 45 50  1  0  0  0  0
 48 51  1  6  0  0  0
 51 52  1  0  0  0  0
 52 53  2  0  0  0  0
 53 54  1  0  0  0  0
 53 55  1  0  0  0  0
M  END
> <DATABASE_ID>
DB04697

> <DATABASE_NAME>
drugbank

> <SMILES>
NC(N)=NCCCC[C@H](NC(=O)[C@@H](CC1=CC=C(O)C=C1)NC(=O)[C@@H]1CCN1C(=O)[C@@H](CC1CCCCC1)NC(=O)[C@@H]1CC[C@H](CN=C(N)N)CC1)C(N)=O

> <INCHI_IDENTIFIER>
InChI=1S/C38H61N11O6/c39-32(51)28(8-4-5-18-44-37(40)41)46-34(53)29(20-24-11-15-27(50)16-12-24)47-35(54)31-17-19-49(31)36(55)30(21-23-6-2-1-3-7-23)48-33(52)26-13-9-25(10-14-26)22-45-38(42)43/h11-12,15-16,23,25-26,28-31,50H,1-10,13-14,17-22H2,(H2,39,51)(H,46,53)(H,47,54)(H,48,52)(H4,40,41,44)(H4,42,43,45)/t25-,26+,28-,29+,30+,31-/m0/s1

> <INCHI_KEY>
PCCHJIAHIWBHDQ-CNXMXSPQSA-N

> <FORMULA>
C38H61N11O6

> <MOLECULAR_WEIGHT>
767.961

> <EXACT_MASS>
767.480628739

> <JCHEM_ACCEPTOR_COUNT>
12

> <JCHEM_ATOM_COUNT>
116

> <JCHEM_AVERAGE_NEUTRAL_MICROSPECIES_CHARGE>
1.9967422675066875

> <JCHEM_AVERAGE_POLARIZABILITY>
83.40514039032107

> <JCHEM_BIOAVAILABILITY>
0

> <JCHEM_DONOR_COUNT>
9

> <JCHEM_FORMAL_CHARGE>
0

> <JCHEM_GHOSE_FILTER>
0

> <JCHEM_IUPAC>
(1s,4s)-N-[(2R)-1-[(2S)-2-{[(1R)-1-{[(1S)-1-carbamoyl-5-[(diaminomethylidene)amino]pentyl]carbamoyl}-2-(4-hydroxyphenyl)ethyl]carbamoyl}azetidin-1-yl]-3-cyclohexyl-1-oxopropan-2-yl]-4-{[(diaminomethylidene)amino]methyl}cyclohexane-1-carboxamide

> <ALOGPS_LOGP>
1.19

> <JCHEM_LOGP>
-0.8346442206859795

> <ALOGPS_LOGS>
-4.72

> <JCHEM_MDDR_LIKE_RULE>
1

> <JCHEM_NEUTRAL_CHARGE>
2

> <JCHEM_NUMBER_OF_RINGS>
4

> <JCHEM_PHYSIOLOGICAL_CHARGE>
2

> <JCHEM_PKA>
12.226133360921022

> <JCHEM_PKA_STRONGEST_ACIDIC>
9.4965177414659

> <JCHEM_PKA_STRONGEST_BASIC>
11.793107377519917

> <JCHEM_POLAR_SURFACE_AREA>
299.72999999999996

> <JCHEM_REFRACTIVITY>
206.3901

> <JCHEM_ROTATABLE_BOND_COUNT>
19

> <JCHEM_RULE_OF_FIVE>
0

> <ALOGPS_SOLUBILITY>
1.47e-02 g/l

> <JCHEM_TRADITIONAL_IUPAC>
tetrahydrofolic acid

> <JCHEM_VEBER_RULE>
0

> <DRUGBANK_ID>
DB04697

> <DRUG_GROUPS>
experimental

> <GENERIC_NAME>
TRANS-4-(GUANIDINOMETHYL)-CYCLOHEXANE-L-YL-D-3-CYCLOHEXYLALANYL-L-AZETIDINE-2-YL-D-TYROSINYL-L-HOMOARGININAMIDE

$$$$
