
  Mrv0541 05041401332D          

 11 10  0  0  1  0            999 V2000
    1.9224    1.0164    0.0000 C   0  0  0  0  0  0  0  0  0  0  0  0
    1.2079    2.2539    0.0000 C   0  0  0  0  0  0  0  0  0  0  0  0
   -0.2211    1.4289    0.0000 C   0  0  0  0  0  0  0  0  0  0  0  0
   -0.9355    1.0164    0.0000 C   0  0  1  0  0  0  0  0  0  0  0  0
   -1.6500    1.4289    0.0000 C   0  0  0  0  0  0  0  0  0  0  0  0
    1.2079    1.4289    0.0000 As  0  0  0  0  0  0  0  0  0  0  0  0
   -0.9355    0.1914    0.0000 N   0  0  0  0  0  0  0  0  0  0  0  0
   -2.3645    1.0164    0.0000 O   0  0  0  0  0  0  0  0  0  0  0  0
   -1.6500    2.2539    0.0000 O   0  0  0  0  0  0  0  0  0  0  0  0
    0.4934    1.0164    0.0000 S   0  0  0  0  0  0  0  0  0  0  0  0
   -0.9355    1.8414    0.0000 H   0  0  0  0  0  0  0  0  0  0  0  0
  4  3  1  0  0  0  0
  5  4  1  0  0  0  0
  6  1  1  0  0  0  0
  6  2  1  0  0  0  0
  4  7  1  1  0  0  0
  8  5  2  0  0  0  0
  9  5  1  0  0  0  0
 10  3  1  0  0  0  0
 10  6  1  0  0  0  0
  4 11  1  1  0  0  0
M  END
> <DATABASE_ID>
DB03963

> <DATABASE_NAME>
drugbank

> <SMILES>
[H][C@](N)(CS[As](C)C)C(O)=O

> <INCHI_IDENTIFIER>
InChI=1S/C5H12AsNO2S/c1-6(2)10-3-4(7)5(8)9/h4H,3,7H2,1-2H3,(H,8,9)/t4-/m0/s1

> <INCHI_KEY>
UKLXSOVDMSQHMM-BYPYZUCNSA-N

> <FORMULA>
C5H12AsNO2S

> <MOLECULAR_WEIGHT>
225.141

> <EXACT_MASS>
224.98047074

> <JCHEM_ACCEPTOR_COUNT>
3

> <JCHEM_ATOM_COUNT>
22

> <JCHEM_AVERAGE_NEUTRAL_MICROSPECIES_CHARGE>
-0.007248468800810648

> <JCHEM_AVERAGE_POLARIZABILITY>
18.606716909469228

> <JCHEM_BIOAVAILABILITY>
1

> <JCHEM_DONOR_COUNT>
2

> <JCHEM_FORMAL_CHARGE>
0

> <JCHEM_GHOSE_FILTER>
0

> <JCHEM_IUPAC>
(2R)-2-amino-3-[(dimethylarsanyl)sulfanyl]propanoic acid

> <ALOGPS_LOGP>
-2.07

> <JCHEM_LOGP>
-2.3207213793186217

> <ALOGPS_LOGS>
-1.47

> <JCHEM_MDDR_LIKE_RULE>
0

> <JCHEM_NEUTRAL_CHARGE>
0

> <JCHEM_NUMBER_OF_RINGS>
0

> <JCHEM_PHYSIOLOGICAL_CHARGE>
0

> <JCHEM_PKA_STRONGEST_ACIDIC>
1.9483779252394962

> <JCHEM_PKA_STRONGEST_BASIC>
9.136061213347793

> <JCHEM_POLAR_SURFACE_AREA>
63.32000000000001

> <JCHEM_REFRACTIVITY>
38.996100000000006

> <JCHEM_ROTATABLE_BOND_COUNT>
4

> <JCHEM_RULE_OF_FIVE>
1

> <ALOGPS_SOLUBILITY>
7.58e+00 g/l

> <JCHEM_TRADITIONAL_IUPAC>
biotin

> <JCHEM_VEBER_RULE>
0

> <DRUGBANK_ID>
DB03963

> <SECONDARY_ACCESSION_NUMBERS>
EXPT00832

> <DRUG_GROUPS>
experimental

> <GENERIC_NAME>
S-(Dimethylarsenic)Cysteine

$$$$
