
  Mrv0541 02231216092D          

 14 13  0  0  0  0            999 V2000
    1.0461   -1.4289    0.0000 O   0  0  0  0  0  0  0  0  0  0  0  0
    1.7605   -1.0164    0.0000 C   0  0  0  0  0  0  0  0  0  0  0  0
    2.4750   -1.4289    0.0000 C   0  0  0  0  0  0  0  0  0  0  0  0
    2.0625   -2.1434    0.0000 C   0  0  0  0  0  0  0  0  0  0  0  0
    2.4750   -2.8579    0.0000 O   0  0  0  0  0  0  0  0  0  0  0  0
    2.8875   -0.7145    0.0000 C   0  0  0  0  0  0  0  0  0  0  0  0
    3.7125   -0.7145    0.0000 O   0  0  0  0  0  0  0  0  0  0  0  0
    3.1895   -1.8414    0.0000 N   0  0  0  0  0  0  0  0  0  0  0  0
    3.9039   -1.4289    0.0000 C   0  0  0  0  0  0  0  0  0  0  0  0
    4.6184   -1.8414    0.0000 C   0  0  0  0  0  0  0  0  0  0  0  0
    5.3329   -1.4289    0.0000 S   0  0  0  0  0  0  0  0  0  0  0  0
    6.0474   -1.0164    0.0000 O   0  0  0  0  0  0  0  0  0  0  0  0
    4.9204   -0.7145    0.0000 O   0  0  0  0  0  0  0  0  0  0  0  0
    5.7454   -2.1434    0.0000 O   0  0  0  0  0  0  0  0  0  0  0  0
  1  2  1  0  0  0  0
  2  3  1  0  0  0  0
  3  4  1  0  0  0  0
  4  5  1  0  0  0  0
  3  6  1  0  0  0  0
  6  7  1  0  0  0  0
  3  8  1  0  0  0  0
  8  9  1  0  0  0  0
  9 10  1  0  0  0  0
 10 11  1  0  0  0  0
 11 12  1  0  0  0  0
 11 13  2  0  0  0  0
 11 14  2  0  0  0  0
M  END
> <DATABASE_ID>
DB02371

> <DATABASE_NAME>
drugbank

> <SMILES>
OCC(CO)(CO)NCCS(O)(=O)=O

> <INCHI_IDENTIFIER>
InChI=1S/C6H15NO6S/c8-3-6(4-9,5-10)7-1-2-14(11,12)13/h7-10H,1-5H2,(H,11,12,13)

> <INCHI_KEY>
JOCBASBOOFNAJA-UHFFFAOYSA-N

> <FORMULA>
C6H15NO6S

> <MOLECULAR_WEIGHT>
229.251

> <EXACT_MASS>
229.062007907

> <JCHEM_ACCEPTOR_COUNT>
7

> <JCHEM_ATOM_COUNT>
29

> <JCHEM_AVERAGE_NEUTRAL_MICROSPECIES_CHARGE>
-0.08042348244141806

> <JCHEM_AVERAGE_POLARIZABILITY>
21.219814129173315

> <JCHEM_BIOAVAILABILITY>
1

> <JCHEM_DONOR_COUNT>
5

> <JCHEM_FORMAL_CHARGE>
0

> <JCHEM_GHOSE_FILTER>
0

> <JCHEM_IUPAC>
2-{[1,3-dihydroxy-2-(hydroxymethyl)propan-2-yl]amino}ethane-1-sulfonic acid

> <ALOGPS_LOGP>
-2.33

> <JCHEM_LOGP>
-4.477794652018752

> <ALOGPS_LOGS>
-0.98

> <JCHEM_MDDR_LIKE_RULE>
0

> <JCHEM_NEUTRAL_CHARGE>
0

> <JCHEM_NUMBER_OF_RINGS>
0

> <JCHEM_PHYSIOLOGICAL_CHARGE>
0

> <JCHEM_PKA>
14.15741686022528

> <JCHEM_PKA_STRONGEST_ACIDIC>
-1.5262479191795773

> <JCHEM_PKA_STRONGEST_BASIC>
8.058197403816658

> <JCHEM_POLAR_SURFACE_AREA>
127.09

> <JCHEM_REFRACTIVITY>
47.816399999999994

> <JCHEM_ROTATABLE_BOND_COUNT>
7

> <JCHEM_RULE_OF_FIVE>
1

> <ALOGPS_SOLUBILITY>
2.40e+01 g/l

> <JCHEM_TRADITIONAL_IUPAC>
tetrahydrofolic acid

> <JCHEM_VEBER_RULE>
0

> <DRUGBANK_ID>
DB02371

> <SECONDARY_ACCESSION_NUMBERS>
EXPT02328

> <DRUG_GROUPS>
experimental

> <GENERIC_NAME>
2-(2-Hydroxy-1,1-Dihydroxymethyl-Ethylamino)-Ethanesulfonic Acid

$$$$
