
  Mrv0541 05041402302D          

 29 30  0  0  1  0            999 V2000
   -0.7145   -3.7125    0.0000 C   0  0  0  0  0  0  0  0  0  0  0  0
   -0.7145   -2.8875    0.0000 C   0  0  0  0  0  0  0  0  0  0  0  0
    0.7145   -2.8875    0.0000 C   0  0  0  0  0  0  0  0  0  0  0  0
   -1.4289   -4.1250    0.0000 C   0  0  0  0  0  0  0  0  0  0  0  0
    0.0000   -2.4750    0.0000 C   0  0  0  0  0  0  0  0  0  0  0  0
   -1.4289   -2.4750    0.0000 C   0  0  1  0  0  0  0  0  0  0  0  0
   -2.1434   -3.7125    0.0000 C   0  0  2  0  0  0  0  0  0  0  0  0
    0.0000   -1.6500    0.0000 C   0  0  0  0  0  0  0  0  0  0  0  0
   -1.4289   -1.6500    0.0000 C   0  0  1  0  0  0  0  0  0  0  0  0
   -2.8579   -4.1250    0.0000 C   0  0  1  0  0  0  0  0  0  0  0  0
   -0.7145   -1.2375    0.0000 C   0  0  1  0  0  0  0  0  0  0  0  0
   -2.8579   -4.9500    0.0000 C   0  0  2  0  0  0  0  0  0  0  0  0
   -2.1434   -5.3625    0.0000 C   0  0  1  0  0  0  0  0  0  0  0  0
   -2.1434   -2.8875    0.0000 N   0  0  0  0  0  0  0  0  0  0  0  0
    1.4289   -2.4750    0.0000 O   0  0  0  0  0  0  0  0  0  0  0  0
    0.7145   -1.2375    0.0000 O   0  0  0  0  0  0  0  0  0  0  0  0
   -2.1434   -1.2375    0.0000 O   0  0  0  0  0  0  0  0  0  0  0  0
   -3.5724   -3.7125    0.0000 O   0  0  0  0  0  0  0  0  0  0  0  0
   -0.7145   -0.4125    0.0000 O   0  0  0  0  0  0  0  0  0  0  0  0
   -3.5724   -5.3625    0.0000 O   0  0  0  0  0  0  0  0  0  0  0  0
   -2.1434   -6.1875    0.0000 O   0  0  0  0  0  0  0  0  0  0  0  0
   -1.4289   -4.9500    0.0000 O   0  0  0  0  0  0  0  0  0  0  0  0
   -1.1468   -3.2502    0.0000 H   0  0  0  0  0  0  0  0  0  0  0  0
   -1.3309   -3.5692    0.0000 H   0  0  0  0  0  0  0  0  0  0  0  0
   -2.1434   -2.0625    0.0000 H   0  0  0  0  0  0  0  0  0  0  0  0
   -2.8579   -3.3000    0.0000 H   0  0  0  0  0  0  0  0  0  0  0  0
    0.0000   -0.8250    0.0000 H   0  0  0  0  0  0  0  0  0  0  0  0
   -3.5724   -4.5375    0.0000 H   0  0  0  0  0  0  0  0  0  0  0  0
   -2.8579   -5.7750    0.0000 H   0  0  0  0  0  0  0  0  0  0  0  0
  4  1  2  0  0  0  0
  5  2  2  0  0  0  0
  5  3  1  0  0  0  0
  6  2  1  0  0  0  0
  7  4  1  0  0  0  0
  8  5  1  0  0  0  0
  9  6  1  0  0  0  0
 10  7  1  0  0  0  0
 11  8  1  0  0  0  0
 11  9  1  0  0  0  0
 12 10  1  0  0  0  0
 13 12  1  0  0  0  0
  6 14  1  6  0  0  0
  7 14  1  6  0  0  0
 15  3  2  0  0  0  0
 16  8  2  0  0  0  0
  9 17  1  6  0  0  0
 10 18  1  1  0  0  0
 11 19  1  1  0  0  0
 12 20  1  6  0  0  0
 13 21  1  6  0  0  0
 22  4  1  0  0  0  0
 22 13  1  0  0  0  0
  6 23  1  1  0  0  0
  7 24  1  1  0  0  0
  9 25  1  1  0  0  0
 10 26  1  6  0  0  0
 11 27  1  6  0  0  0
 12 28  1  1  0  0  0
 13 29  1  1  0  0  0
M  END
> <DATABASE_ID>
DB04164

> <DATABASE_NAME>
drugbank

> <SMILES>
[H][C@]1(O)OC(=C)[C@@]([H])(N[C@@]2([H])C=C(C=O)C(=O)[C@]([H])(O)[C@@]2([H])O)[C@]([H])(O)[C@@]1([H])O

> <INCHI_IDENTIFIER>
InChI=1S/C13H17NO8/c1-4-7(10(18)12(20)13(21)22-4)14-6-2-5(3-15)8(16)11(19)9(6)17/h2-3,6-7,9-14,17-21H,1H2/t6-,7+,9-,10-,11-,12+,13-/m0/s1

> <INCHI_KEY>
ZGWNRGISVMYHTF-KKXLKBQTSA-N

> <FORMULA>
C13H17NO8

> <MOLECULAR_WEIGHT>
315.276

> <EXACT_MASS>
315.095416525

> <JCHEM_ACCEPTOR_COUNT>
9

> <JCHEM_ATOM_COUNT>
39

> <JCHEM_AVERAGE_NEUTRAL_MICROSPECIES_CHARGE>
0.0645522403297018

> <JCHEM_AVERAGE_POLARIZABILITY>
29.330403822410815

> <JCHEM_BIOAVAILABILITY>
1

> <JCHEM_DONOR_COUNT>
6

> <JCHEM_FORMAL_CHARGE>
0

> <JCHEM_GHOSE_FILTER>
0

> <JCHEM_IUPAC>
(3S,4S,5R)-4,5-dihydroxy-6-oxo-3-{[(3S,4S,5R,6S)-4,5,6-trihydroxy-2-methylideneoxan-3-yl]amino}cyclohex-1-ene-1-carbaldehyde

> <ALOGPS_LOGP>
-1.43

> <JCHEM_LOGP>
-3.1880438726666664

> <ALOGPS_LOGS>
-0.57

> <JCHEM_MDDR_LIKE_RULE>
0

> <JCHEM_NEUTRAL_CHARGE>
0

> <JCHEM_NUMBER_OF_RINGS>
2

> <JCHEM_PHYSIOLOGICAL_CHARGE>
0

> <JCHEM_PKA>
12.265365604089808

> <JCHEM_PKA_STRONGEST_ACIDIC>
11.218888885948205

> <JCHEM_PKA_STRONGEST_BASIC>
5.839374745094368

> <JCHEM_POLAR_SURFACE_AREA>
156.55

> <JCHEM_REFRACTIVITY>
71.4452

> <JCHEM_ROTATABLE_BOND_COUNT>
3

> <JCHEM_RULE_OF_FIVE>
0

> <ALOGPS_SOLUBILITY>
8.50e+01 g/l

> <JCHEM_TRADITIONAL_IUPAC>
tetrahydrofolic acid

> <JCHEM_VEBER_RULE>
0

> <DRUGBANK_ID>
DB04164

> <SECONDARY_ACCESSION_NUMBERS>
EXPT01105

> <DRUG_GROUPS>
experimental

> <GENERIC_NAME>
1,4-Deoxy-4-((5-Hydroxymethyl-2,3,4-Trihydroxycyclohex-5-Enyl)Amino)Fructose

$$$$
