
  Mrv0541 02231216592D          

 21 23  0  0  1  0            999 V2000
    1.5666   -2.3201    0.0000 O   0  0  0  0  0  0  0  0  0  0  0  0
    1.0146   -1.7070    0.0000 C   0  0  0  0  0  0  0  0  0  0  0  0
    1.2695   -0.9224    0.0000 C   0  0  2  0  0  0  0  0  0  0  0  0
    0.7846   -0.2549    0.0000 O   0  0  0  0  0  0  0  0  0  0  0  0
    1.2695    0.4125    0.0000 C   0  0  2  0  0  0  0  0  0  0  0  0
    2.0542    0.1576    0.0000 C   0  0  1  0  0  0  0  0  0  0  0  0
    2.8388    0.4125    0.0000 O   0  0  0  0  0  0  0  0  0  0  0  0
    3.3237   -0.2549    0.0000 V   0  0  0  0  0  0  0  0  0  0  0  0
    3.6983    0.4801    0.0000 O   0  0  0  0  0  0  0  0  0  0  0  0
    4.1487   -0.2549    0.0000 O   0  0  0  0  0  0  0  0  0  0  0  0
    3.6983   -0.9900    0.0000 O   0  0  0  0  0  0  0  0  0  0  0  0
    2.8388   -0.9224    0.0000 O   0  0  0  0  0  0  0  0  0  0  0  0
    2.0542   -0.6674    0.0000 C   0  0  2  0  0  0  0  0  0  0  0  0
    1.0146    1.1971    0.0000 N   0  0  0  0  0  0  0  0  0  0  0  0
    0.2076    1.3686    0.0000 C   0  0  0  0  0  0  0  0  0  0  0  0
   -0.0473    2.1533    0.0000 C   0  0  0  0  0  0  0  0  0  0  0  0
    0.5047    2.7664    0.0000 C   0  0  0  0  0  0  0  0  0  0  0  0
    0.2498    3.5510    0.0000 O   0  0  0  0  0  0  0  0  0  0  0  0
    1.3117    2.5948    0.0000 N   0  0  0  0  0  0  0  0  0  0  0  0
    1.5666    1.8102    0.0000 C   0  0  0  0  0  0  0  0  0  0  0  0
    2.3736    1.6387    0.0000 O   0  0  0  0  0  0  0  0  0  0  0  0
  1  2  1  0  0  0  0
  3  2  1  6  0  0  0
  3  4  1  0  0  0  0
  4  5  1  0  0  0  0
  5  6  1  0  0  0  0
  6  7  1  1  0  0  0
  7  8  1  0  0  0  0
  8  9  1  0  0  0  0
  8 10  1  0  0  0  0
  8 11  2  0  0  0  0
  8 12  1  0  0  0  0
 13 12  1  6  0  0  0
  3 13  1  0  0  0  0
  6 13  1  0  0  0  0
  5 14  1  1  0  0  0
 14 15  1  0  0  0  0
 15 16  2  0  0  0  0
 16 17  1  0  0  0  0
 17 18  2  0  0  0  0
 17 19  1  0  0  0  0
 19 20  1  0  0  0  0
 14 20  1  0  0  0  0
 20 21  2  0  0  0  0
M  END
> <DATABASE_ID>
DB03512

> <DATABASE_NAME>
drugbank

> <SMILES>
OC[C@@H]1O[C@H]([C@H]2O[V](O)(O)(=O)O[C@H]12)N1C=CC(=O)NC1=O

> <INCHI_IDENTIFIER>
InChI=1S/C9H10N2O6.2H2O.O.V/c12-3-4-6(14)7(15)8(17-4)11-2-1-5(13)10-9(11)16;;;;/h1-2,4,6-8,12H,3H2,(H,10,13,16);2*1H2;;/q-2;;;;+4/p-2/t4-,6+,7-,8+;;;;/m0..../s1

> <INCHI_KEY>
JSPAHXDHRUTBDP-VKTKOMAXSA-L

> <FORMULA>
C9H12N2O9V

> <MOLECULAR_WEIGHT>
343.1411

> <EXACT_MASS>
342.998243667

> <JCHEM_ACCEPTOR_COUNT>
7

> <JCHEM_ATOM_COUNT>
33

> <JCHEM_AVERAGE_NEUTRAL_MICROSPECIES_CHARGE>
-1.0944839055791455

> <JCHEM_AVERAGE_POLARIZABILITY>
26.892570040125698

> <JCHEM_BIOAVAILABILITY>
1

> <JCHEM_DONOR_COUNT>
4

> <JCHEM_FORMAL_CHARGE>
0

> <JCHEM_GHOSE_FILTER>
0

> <JCHEM_IUPAC>
1-[(3aS,4R,6S,6aR)-2,2-dihydroxy-6-(hydroxymethyl)-2-oxo-tetrahydrofuro[3,4-d]1,3-dioxa-2-vanadacyclopentan-4-yl]-1,2,3,4-tetrahydropyrimidine-2,4-dione

> <ALOGPS_LOGP>
-2.01

> <JCHEM_LOGP>
-2.1005

> <ALOGPS_LOGS>
-1.40

> <JCHEM_MDDR_LIKE_RULE>
0

> <JCHEM_NEUTRAL_CHARGE>
-1

> <JCHEM_NUMBER_OF_RINGS>
3

> <JCHEM_PHYSIOLOGICAL_CHARGE>
-1

> <JCHEM_PKA>
8.284093014146483

> <JCHEM_PKA_STRONGEST_ACIDIC>
2.6989700059002297

> <JCHEM_PKA_STRONGEST_BASIC>
-2.9789813985263747

> <JCHEM_POLAR_SURFACE_AREA>
154.85999999999999

> <JCHEM_REFRACTIVITY>
56.7089

> <JCHEM_ROTATABLE_BOND_COUNT>
2

> <JCHEM_RULE_OF_FIVE>
1

> <ALOGPS_SOLUBILITY>
1.37e+01 g/l

> <JCHEM_TRADITIONAL_IUPAC>
tetrahydrofolic acid

> <JCHEM_VEBER_RULE>
0

> <DRUGBANK_ID>
DB03512

> <SECONDARY_ACCESSION_NUMBERS>
EXPT03211

> <DRUG_GROUPS>
experimental

> <GENERIC_NAME>
Uridine-2',3'-vanadate

$$$$
