
  Mrv0541 05041409252D          

 22 22  0  0  1  0            999 V2000
    0.7145    2.0625    0.0000 C   0  0  0  0  0  0  0  0  0  0  0  0
    3.5724   -1.2375    0.0000 C   0  0  0  0  0  0  0  0  0  0  0  0
   -0.0000    0.0000    0.0000 C   0  0  0  0  0  0  0  0  0  0  0  0
    2.1434   -0.4125    0.0000 C   0  0  0  0  0  0  0  0  0  0  0  0
    0.7145   -1.2375    0.0000 C   0  0  0  0  0  0  0  0  0  0  0  0
    0.7145    1.2375    0.0000 C   0  0  0  0  0  0  0  0  0  0  0  0
    3.5724   -0.4125    0.0000 C   0  0  1  0  0  0  0  0  0  0  0  0
    0.7145   -0.4125    0.0000 C   0  0  0  0  0  0  0  0  0  0  0  0
    1.4289    0.0000    0.0000 C   0  0  0  0  0  0  0  0  0  0  0  0
    1.4289    0.8250    0.0000 C   0  0  0  0  0  0  0  0  0  0  0  0
    4.2868    0.0000    0.0000 C   0  0  0  0  0  0  0  0  0  0  0  0
    0.0000    0.8250    0.0000 N   0  0  0  0  0  0  0  0  0  0  0  0
    2.8579    0.0000    0.0000 N   0  0  0  0  0  0  0  0  0  0  0  0
    2.1434    1.2375    0.0000 O   0  0  0  0  0  0  0  0  0  0  0  0
    5.0013   -0.4125    0.0000 O   0  0  0  0  0  0  0  0  0  0  0  0
    4.2868    0.8250    0.0000 O   0  0  0  0  0  0  0  0  0  0  0  0
   -0.0000   -3.3000    0.0000 O   0  0  0  0  0  0  0  0  0  0  0  0
   -0.8250   -2.4750    0.0000 O   0  0  0  0  0  0  0  0  0  0  0  0
    0.8250   -2.4750    0.0000 O   0  0  0  0  0  0  0  0  0  0  0  0
   -0.0000   -1.6500    0.0000 O   0  0  0  0  0  0  0  0  0  0  0  0
   -0.0000   -2.4750    0.0000 P   0  0  0  0  0  0  0  0  0  0  0  0
    4.2868   -0.8250    0.0000 H   0  0  0  0  0  0  0  0  0  0  0  0
  6  1  1  0  0  0  0
  7  2  1  6  0  0  0
  8  3  1  0  0  0  0
  8  5  1  0  0  0  0
  9  4  1  0  0  0  0
  9  8  2  0  0  0  0
 10  6  2  0  0  0  0
 10  9  1  0  0  0  0
 11  7  1  0  0  0  0
 12  3  2  0  0  0  0
 12  6  1  0  0  0  0
 13  4  1  0  0  0  0
 13  7  1  0  0  0  0
 14 10  1  0  0  0  0
 15 11  2  0  0  0  0
 16 11  1  0  0  0  0
 20  5  1  0  0  0  0
 21 17  1  0  0  0  0
 21 18  1  0  0  0  0
 21 19  2  0  0  0  0
 21 20  1  0  0  0  0
  7 22  1  1  0  0  0
M  END
> <DATABASE_ID>
DB04467

> <DATABASE_NAME>
drugbank

> <SMILES>
[H][C@@](C)(NCC1=C(COP(O)(O)=O)C=NC(C)=C1O)C(O)=O

> <INCHI_IDENTIFIER>
InChI=1S/C11H17N2O7P/c1-6-10(14)9(4-13-7(2)11(15)16)8(3-12-6)5-20-21(17,18)19/h3,7,13-14H,4-5H2,1-2H3,(H,15,16)(H2,17,18,19)/t7-/m0/s1

> <INCHI_KEY>
WACJCHFWJNNBPR-ZETCQYMHSA-N

> <FORMULA>
C11H17N2O7P

> <MOLECULAR_WEIGHT>
320.2356

> <EXACT_MASS>
320.07733742

> <JCHEM_ACCEPTOR_COUNT>
8

> <JCHEM_ATOM_COUNT>
38

> <JCHEM_AVERAGE_NEUTRAL_MICROSPECIES_CHARGE>
-1.9768010839503942

> <JCHEM_AVERAGE_POLARIZABILITY>
28.863954074331197

> <JCHEM_BIOAVAILABILITY>
1

> <JCHEM_DONOR_COUNT>
5

> <JCHEM_FORMAL_CHARGE>
0

> <JCHEM_GHOSE_FILTER>
0

> <JCHEM_IUPAC>
(2S)-2-[({3-hydroxy-2-methyl-5-[(phosphonooxy)methyl]pyridin-4-yl}methyl)amino]propanoic acid

> <ALOGPS_LOGP>
-1.70

> <JCHEM_LOGP>
-4.247970809025923

> <ALOGPS_LOGS>
-2.33

> <JCHEM_MDDR_LIKE_RULE>
0

> <JCHEM_NEUTRAL_CHARGE>
-2

> <JCHEM_NUMBER_OF_RINGS>
1

> <JCHEM_PHYSIOLOGICAL_CHARGE>
-2

> <JCHEM_PKA>
1.9533961536616524

> <JCHEM_PKA_STRONGEST_ACIDIC>
1.025214245007707

> <JCHEM_PKA_STRONGEST_BASIC>
9.578358197544208

> <JCHEM_POLAR_SURFACE_AREA>
149.21

> <JCHEM_REFRACTIVITY>
71.9888

> <JCHEM_ROTATABLE_BOND_COUNT>
7

> <JCHEM_RULE_OF_FIVE>
1

> <ALOGPS_SOLUBILITY>
1.48e+00 g/l

> <JCHEM_TRADITIONAL_IUPAC>
tetrahydrofolic acid

> <JCHEM_VEBER_RULE>
0

> <DRUGBANK_ID>
DB04467

> <SECONDARY_ACCESSION_NUMBERS>
EXPT02532; EXPT02529; EXPT02635

> <DRUG_GROUPS>
experimental

> <GENERIC_NAME>
N-(5'-phosphopyridoxyl)-L-alanine

$$$$
