
  Mrv0541 07041311582D          

 11 11  0  0  0  0            999 V2000
    0.0000   -2.4750    0.0000 C   0  0  0  0  0  0  0  0  0  0  0  0
    1.4289    0.0000    0.0000 C   0  0  0  0  0  0  0  0  0  0  0  0
    0.0000    0.0000    0.0000 C   0  0  0  0  0  0  0  0  0  0  0  0
    1.4289    0.8250    0.0000 C   0  0  0  0  0  0  0  0  0  0  0  0
    0.0000    0.8250    0.0000 C   0  0  0  0  0  0  0  0  0  0  0  0
    0.7145   -1.2375    0.0000 C   0  0  0  0  0  0  0  0  0  0  0  0
    0.0000   -1.6500    0.0000 C   0  0  0  0  0  0  0  0  0  0  0  0
    0.7145   -0.4125    0.0000 C   0  0  0  0  0  0  0  0  0  0  0  0
    0.7145    1.2375    0.0000 C   0  0  0  0  0  0  0  0  0  0  0  0
   -0.7145   -1.2375    0.0000 N   0  0  0  0  0  0  0  0  0  0  0  0
    0.7145    2.0625    0.0000 O   0  0  0  0  0  0  0  0  0  0  0  0
  4  2  1  0  0  0  0
  5  3  2  0  0  0  0
  7  1  1  0  0  0  0
  7  6  1  0  0  0  0
  8  2  2  0  0  0  0
  8  3  1  0  0  0  0
  8  6  1  0  0  0  0
  9  4  2  0  0  0  0
  9  5  1  0  0  0  0
 10  7  1  0  0  0  0
 11  9  1  0  0  0  0
M  END
> <DATABASE_ID>
DB09352

> <DATABASE_NAME>
drugbank

> <SMILES>
CC(N)CC1=CC=C(O)C=C1

> <INCHI_IDENTIFIER>
InChI=1S/C9H13NO/c1-7(10)6-8-2-4-9(11)5-3-8/h2-5,7,11H,6,10H2,1H3

> <INCHI_KEY>
GIKNHHRFLCDOEU-UHFFFAOYSA-N

> <FORMULA>
C9H13NO

> <MOLECULAR_WEIGHT>
151.2056

> <EXACT_MASS>
151.099714043

> <JCHEM_ACCEPTOR_COUNT>
2

> <JCHEM_ATOM_COUNT>
24

> <JCHEM_AVERAGE_NEUTRAL_MICROSPECIES_CHARGE>
0.9976940170236843

> <JCHEM_AVERAGE_POLARIZABILITY>
17.174183578813274

> <JCHEM_BIOAVAILABILITY>
1

> <JCHEM_DONOR_COUNT>
2

> <JCHEM_FORMAL_CHARGE>
0

> <JCHEM_GHOSE_FILTER>
0

> <JCHEM_IUPAC>
4-(2-aminopropyl)phenol

> <ALOGPS_LOGP>
0.58

> <JCHEM_LOGP>
0.9999057544542304

> <ALOGPS_LOGS>
-1.68

> <JCHEM_MDDR_LIKE_RULE>
0

> <JCHEM_NEUTRAL_CHARGE>
1

> <JCHEM_NUMBER_OF_RINGS>
1

> <JCHEM_PHYSIOLOGICAL_CHARGE>
1

> <JCHEM_PKA_STRONGEST_ACIDIC>
10.483153849232233

> <JCHEM_PKA_STRONGEST_BASIC>
9.800952802472459

> <JCHEM_POLAR_SURFACE_AREA>
46.25

> <JCHEM_REFRACTIVITY>
45.686099999999996

> <JCHEM_ROTATABLE_BOND_COUNT>
2

> <JCHEM_RULE_OF_FIVE>
1

> <ALOGPS_SOLUBILITY>
3.13e+00 g/l

> <JCHEM_TRADITIONAL_IUPAC>
biotin

> <JCHEM_VEBER_RULE>
0

> <DRUGBANK_ID>
DB09352

> <DRUG_GROUPS>
approved

> <GENERIC_NAME>
Hydroxyamphetamine

> <SYNONYMS>
4-(2-aminopropyl)phenol; 4-hydroxyamphetamine; dl-4-hydroxyamphetamine; dl-p-hydroxyamphetamine; Hydroxyamphetamine; p-hydroxyamphetamine

> <PRODUCTS>
Paremyd

> <SALTS>
Hydroxyamfetamine hydrobromide

$$$$
