
  Mrv0541 02231217492D          

 10  9  0  0  1  0            999 V2000
    2.9980    2.5559    0.0000 N   0  0  0  0  0  0  0  0  0  0  0  0
    3.7125    2.1434    0.0000 C   0  0  0  0  0  0  0  0  0  0  0  0
    4.4270    2.5559    0.0000 C   0  0  0  0  0  0  0  0  0  0  0  0
    5.1414    2.1434    0.0000 C   0  0  0  0  0  0  0  0  0  0  0  0
    5.8559    2.5559    0.0000 S   0  0  0  0  0  0  0  0  0  0  0  0
    6.5704    2.1434    0.0000 C   0  0  0  0  0  0  0  0  0  0  0  0
    7.2849    2.5559    0.0000 C   0  0  2  0  0  0  0  0  0  0  0  0
    7.2849    3.3809    0.0000 N   0  0  0  0  0  0  0  0  0  0  0  0
    7.9993    2.1434    0.0000 C   0  0  0  0  0  0  0  0  0  0  0  0
    8.7138    2.5559    0.0000 O   0  0  0  0  0  0  0  0  0  0  0  0
  1  2  1  0  0  0  0
  2  3  1  0  0  0  0
  3  4  1  0  0  0  0
  4  5  1  0  0  0  0
  5  6  1  0  0  0  0
  6  7  1  0  0  0  0
  7  8  1  6  0  0  0
  7  9  1  0  0  0  0
  9 10  1  0  0  0  0
M  END
> <DATABASE_ID>
DB04648

> <DATABASE_NAME>
drugbank

> <SMILES>
NCCCSC[C@H](N)CO

> <INCHI_IDENTIFIER>
InChI=1S/C6H16N2OS/c7-2-1-3-10-5-6(8)4-9/h6,9H,1-5,7-8H2/t6-/m1/s1

> <INCHI_KEY>
RYOVYWMBACBGOD-ZCFIWIBFSA-N

> <FORMULA>
C6H16N2OS

> <MOLECULAR_WEIGHT>
164.269

> <EXACT_MASS>
164.098333834

> <JCHEM_ACCEPTOR_COUNT>
3

> <JCHEM_ATOM_COUNT>
26

> <JCHEM_AVERAGE_NEUTRAL_MICROSPECIES_CHARGE>
1.9949869161161604

> <JCHEM_AVERAGE_POLARIZABILITY>
19.219286212913037

> <JCHEM_BIOAVAILABILITY>
1

> <JCHEM_DONOR_COUNT>
3

> <JCHEM_FORMAL_CHARGE>
0

> <JCHEM_GHOSE_FILTER>
0

> <JCHEM_IUPAC>
(2R)-2-amino-3-[(3-aminopropyl)sulfanyl]propan-1-ol

> <ALOGPS_LOGP>
-1.17

> <JCHEM_LOGP>
-1.3042267073333333

> <ALOGPS_LOGS>
-0.72

> <JCHEM_MDDR_LIKE_RULE>
0

> <JCHEM_NEUTRAL_CHARGE>
2

> <JCHEM_NUMBER_OF_RINGS>
0

> <JCHEM_PHYSIOLOGICAL_CHARGE>
2

> <JCHEM_PKA_STRONGEST_ACIDIC>
15.100487865027512

> <JCHEM_PKA_STRONGEST_BASIC>
10.252076693177587

> <JCHEM_POLAR_SURFACE_AREA>
72.27

> <JCHEM_REFRACTIVITY>
45.8716

> <JCHEM_ROTATABLE_BOND_COUNT>
6

> <JCHEM_RULE_OF_FIVE>
1

> <ALOGPS_SOLUBILITY>
3.11e+01 g/l

> <JCHEM_TRADITIONAL_IUPAC>
tetrahydrofolic acid

> <JCHEM_VEBER_RULE>
0

> <DRUGBANK_ID>
DB04648

> <DRUG_GROUPS>
experimental

> <GENERIC_NAME>
S-propylamine-L-cysteine

$$$$
