
  Mrv0541 02231218162D          

 29 32  0  0  1  0            999 V2000
    3.0790    0.4125    0.0000 O   0  0  0  0  0  0  0  0  0  0  0  0
    5.2223   -0.8250    0.0000 O   0  0  0  0  0  0  0  0  0  0  0  0
    3.7934   -0.8250    0.0000 N   0  0  0  0  0  0  0  0  0  0  0  0
    4.5079    2.0625    0.0000 N   0  0  0  0  0  0  0  0  0  0  0  0
    3.7934   -1.6500    0.0000 C   0  0  0  0  0  0  0  0  0  0  0  0
    4.5079   -2.0625    0.0000 C   0  0  0  0  0  0  0  0  0  0  0  0
    3.0790   -2.0625    0.0000 C   0  0  0  0  0  0  0  0  0  0  0  0
    4.5079    0.4125    0.0000 C   0  0  0  0  0  0  0  0  0  0  0  0
    4.5079   -0.4125    0.0000 C   0  0  0  0  0  0  0  0  0  0  0  0
    5.2223    0.8250    0.0000 C   0  0  0  0  0  0  0  0  0  0  0  0
    4.5079   -2.8875    0.0000 C   0  0  0  0  0  0  0  0  0  0  0  0
    3.7934    0.8250    0.0000 C   0  0  0  0  0  0  0  0  0  0  0  0
    5.2223    1.6500    0.0000 C   0  0  0  0  0  0  0  0  0  0  0  0
    3.7934    1.6500    0.0000 C   0  0  0  0  0  0  0  0  0  0  0  0
    2.3644   -1.6500    0.0000 C   0  0  0  0  0  0  0  0  0  0  0  0
    3.0790   -2.8875    0.0000 C   0  0  0  0  0  0  0  0  0  0  0  0
    5.9599    0.3839    0.0000 C   0  0  0  0  0  0  0  0  0  0  0  0
    3.0790    2.0625    0.0000 C   0  0  0  0  0  0  0  0  0  0  0  0
    5.9599    2.0911    0.0000 C   0  0  0  0  0  0  0  0  0  0  0  0
    1.6500   -2.0625    0.0000 C   0  0  0  0  0  0  0  0  0  0  0  0
    2.3644   -3.3000    0.0000 C   0  0  0  0  0  0  0  0  0  0  0  0
    6.7073    0.8078    0.0000 C   0  0  0  0  0  0  0  0  0  0  0  0
    1.6500   -2.8875    0.0000 C   0  0  0  0  0  0  0  0  0  0  0  0
    6.7073    1.6672    0.0000 C   0  0  0  0  0  0  0  0  0  0  0  0
    3.0790    2.8875    0.0000 C   0  0  0  0  0  0  0  0  0  0  0  0
    2.3644    1.6500    0.0000 C   0  0  0  0  0  0  0  0  0  0  0  0
    2.3644    3.3000    0.0000 C   0  0  0  0  0  0  0  0  0  0  0  0
    1.6500    2.0625    0.0000 C   0  0  0  0  0  0  0  0  0  0  0  0
    1.6500    2.8875    0.0000 C   0  0  0  0  0  0  0  0  0  0  0  0
  1 12  1  0  0  0  0
  2  9  2  0  0  0  0
  3  5  1  0  0  0  0
  3  9  1  0  0  0  0
  4 13  1  0  0  0  0
  4 14  2  0  0  0  0
  5  6  1  0  0  0  0
  5  7  1  0  0  0  0
  6 11  1  0  0  0  0
  7 15  2  0  0  0  0
  7 16  1  0  0  0  0
  8  9  1  0  0  0  0
  8 10  1  0  0  0  0
  8 12  2  0  0  0  0
 10 13  1  0  0  0  0
 10 17  2  0  0  0  0
 12 14  1  0  0  0  0
 13 19  2  0  0  0  0
 14 18  1  0  0  0  0
 15 20  1  0  0  0  0
 16 21  2  0  0  0  0
 17 22  1  0  0  0  0
 18 25  2  0  0  0  0
 18 26  1  0  0  0  0
 19 24  1  0  0  0  0
 20 23  2  0  0  0  0
 21 23  1  0  0  0  0
 22 24  2  0  0  0  0
 25 27  1  0  0  0  0
 26 28  2  0  0  0  0
 27 29  2  0  0  0  0
 28 29  1  0  0  0  0
M  END
> <DATABASE_ID>
DB06429

> <DATABASE_NAME>
drugbank

> <SMILES>
CCC(NC(=O)C1=C(O)C(=NC2=CC=CC=C12)C1=CC=CC=C1)C1=CC=CC=C1

> <INCHI_IDENTIFIER>
InChI=1S/C25H22N2O2/c1-2-20(17-11-5-3-6-12-17)27-25(29)22-19-15-9-10-16-21(19)26-23(24(22)28)18-13-7-4-8-14-18/h3-16,20,28H,2H2,1H3,(H,27,29)

> <INCHI_KEY>
BIAVGWDGIJKWRM-UHFFFAOYSA-N

> <FORMULA>
C25H22N2O2

> <MOLECULAR_WEIGHT>
382.4544

> <EXACT_MASS>
382.168127958

> <JCHEM_ACCEPTOR_COUNT>
3

> <JCHEM_ATOM_COUNT>
51

> <JCHEM_AVERAGE_NEUTRAL_MICROSPECIES_CHARGE>
-0.08455403903309476

> <JCHEM_AVERAGE_POLARIZABILITY>
42.550416112408605

> <JCHEM_BIOAVAILABILITY>
1

> <JCHEM_DONOR_COUNT>
2

> <JCHEM_FORMAL_CHARGE>
0

> <JCHEM_GHOSE_FILTER>
0

> <JCHEM_IUPAC>
3-hydroxy-2-phenyl-N-(1-phenylpropyl)quinoline-4-carboxamide

> <ALOGPS_LOGP>
4.98

> <JCHEM_LOGP>
6.248297734333334

> <ALOGPS_LOGS>
-5.48

> <JCHEM_MDDR_LIKE_RULE>
0

> <JCHEM_NEUTRAL_CHARGE>
0

> <JCHEM_NUMBER_OF_RINGS>
4

> <JCHEM_PHYSIOLOGICAL_CHARGE>
0

> <JCHEM_PKA>
15.515713643190228

> <JCHEM_PKA_STRONGEST_ACIDIC>
8.034209261080731

> <JCHEM_PKA_STRONGEST_BASIC>
2.7280671718323735

> <JCHEM_POLAR_SURFACE_AREA>
62.22

> <JCHEM_REFRACTIVITY>
114.25490000000005

> <JCHEM_ROTATABLE_BOND_COUNT>
5

> <JCHEM_RULE_OF_FIVE>
0

> <ALOGPS_SOLUBILITY>
1.27e-03 g/l

> <JCHEM_TRADITIONAL_IUPAC>
biotin

> <JCHEM_VEBER_RULE>
0

> <DRUGBANK_ID>
DB06429

> <DRUG_GROUPS>
investigational

> <GENERIC_NAME>
Talnetant

> <SYNONYMS>
Talnetant

> <SALTS>
Talnetant hydrochloride

$$$$
