
  Mrv0541 02231216122D          

  8  8  0  0  0  0            999 V2000
    0.0000    2.4750    0.0000 N   0  3  0  0  0  0  0  0  0  0  0  0
    0.7145    2.0625    0.0000 C   0  0  0  0  0  0  0  0  0  0  0  0
    0.7145    1.2375    0.0000 C   0  0  0  0  0  0  0  0  0  0  0  0
    1.4289    0.8250    0.0000 C   0  0  0  0  0  0  0  0  0  0  0  0
    1.4289    0.0000    0.0000 C   0  0  0  0  0  0  0  0  0  0  0  0
    0.7145   -0.4125    0.0000 C   0  0  0  0  0  0  0  0  0  0  0  0
    0.0000    0.0000    0.0000 C   0  0  0  0  0  0  0  0  0  0  0  0
    0.0000    0.8250    0.0000 C   0  0  0  0  0  0  0  0  0  0  0  0
  1  2  1  0  0  0  0
  2  3  1  0  0  0  0
  3  4  1  0  0  0  0
  4  5  1  0  0  0  0
  5  6  1  0  0  0  0
  6  7  1  0  0  0  0
  7  8  1  0  0  0  0
  3  8  1  0  0  0  0
M  CHG  1   1   1
M  END
> <DATABASE_ID>
DB02435

> <DATABASE_NAME>
drugbank

> <SMILES>
[NH3+]CC1CCCCC1

> <INCHI_IDENTIFIER>
InChI=1S/C7H15N/c8-6-7-4-2-1-3-5-7/h7H,1-6,8H2/p+1

> <INCHI_KEY>
AVKNGPAMCBSNSO-UHFFFAOYSA-O

> <FORMULA>
C7H16N

> <MOLECULAR_WEIGHT>
114.2086

> <EXACT_MASS>
114.128274517

> <JCHEM_ACCEPTOR_COUNT>
0

> <JCHEM_ATOM_COUNT>
24

> <JCHEM_AVERAGE_NEUTRAL_MICROSPECIES_CHARGE>
0.9993981150254291

> <JCHEM_AVERAGE_POLARIZABILITY>
14.736596696363808

> <JCHEM_BIOAVAILABILITY>
1

> <JCHEM_DONOR_COUNT>
1

> <JCHEM_FORMAL_CHARGE>
1

> <JCHEM_GHOSE_FILTER>
0

> <JCHEM_IUPAC>
cyclohexylmethanaminium

> <ALOGPS_LOGP>
-0.73

> <JCHEM_LOGP>
1.4888244030000002

> <ALOGPS_LOGS>
-3.99

> <JCHEM_MDDR_LIKE_RULE>
0

> <JCHEM_NEUTRAL_CHARGE>
1

> <JCHEM_NUMBER_OF_RINGS>
1

> <JCHEM_PHYSIOLOGICAL_CHARGE>
1

> <JCHEM_PKA_STRONGEST_BASIC>
10.220225024227824

> <JCHEM_POLAR_SURFACE_AREA>
27.64

> <JCHEM_REFRACTIVITY>
46.956599999999995

> <JCHEM_ROTATABLE_BOND_COUNT>
1

> <JCHEM_RULE_OF_FIVE>
1

> <ALOGPS_SOLUBILITY>
1.52e-02 g/l

> <JCHEM_TRADITIONAL_IUPAC>
biotin

> <JCHEM_VEBER_RULE>
1

> <DRUGBANK_ID>
DB02435

> <SECONDARY_ACCESSION_NUMBERS>
EXPT00505

> <DRUG_GROUPS>
experimental

> <GENERIC_NAME>
Aminomethylcyclohexane

$$$$
