
  Mrv0541 05041412512D          

 10  9  0  0  1  0            999 V2000
    1.7605    1.8414    0.0000 C   0  0  0  0  0  0  0  0  0  0  0  0
    2.4750    1.4289    0.0000 C   0  0  0  0  0  0  0  0  0  0  0  0
    3.9039    1.4289    0.0000 C   0  0  0  0  0  0  0  0  0  0  0  0
    4.6184    1.8414    0.0000 C   0  0  0  0  0  0  0  0  0  0  0  0
    3.1895    1.8414    0.0000 C   0  0  2  0  0  0  0  0  0  0  0  0
    5.3329    1.4289    0.0000 C   0  0  0  0  0  0  0  0  0  0  0  0
    3.1895    2.6664    0.0000 N   0  0  0  0  0  0  0  0  0  0  0  0
    6.0474    1.8414    0.0000 O   0  0  0  0  0  0  0  0  0  0  0  0
    5.3329    0.6039    0.0000 O   0  0  0  0  0  0  0  0  0  0  0  0
    3.1895    1.0164    0.0000 H   0  0  0  0  0  0  0  0  0  0  0  0
  2  1  1  0  0  0  0
  4  3  1  0  0  0  0
  5  2  1  0  0  0  0
  5  3  1  0  0  0  0
  6  4  1  0  0  0  0
  5  7  1  6  0  0  0
  8  6  2  0  0  0  0
  9  6  1  0  0  0  0
  5 10  1  6  0  0  0
M  END
> <DATABASE_ID>
DB04235

> <DATABASE_NAME>
drugbank

> <SMILES>
[H][C@@](N)(CC)CCC(O)=O

> <INCHI_IDENTIFIER>
InChI=1S/C6H13NO2/c1-2-5(7)3-4-6(8)9/h5H,2-4,7H2,1H3,(H,8,9)/t5-/m1/s1

> <INCHI_KEY>
ROFNJLCLYMMXCT-RXMQYKEDSA-N

> <FORMULA>
C6H13NO2

> <MOLECULAR_WEIGHT>
131.1729

> <EXACT_MASS>
131.094628665

> <JCHEM_ACCEPTOR_COUNT>
3

> <JCHEM_ATOM_COUNT>
22

> <JCHEM_AVERAGE_NEUTRAL_MICROSPECIES_CHARGE>
0.0017934989773780163

> <JCHEM_AVERAGE_POLARIZABILITY>
14.509833336354607

> <JCHEM_BIOAVAILABILITY>
1

> <JCHEM_DONOR_COUNT>
2

> <JCHEM_FORMAL_CHARGE>
0

> <JCHEM_GHOSE_FILTER>
0

> <JCHEM_IUPAC>
(4R)-4-aminohexanoic acid

> <ALOGPS_LOGP>
-1.88

> <JCHEM_LOGP>
-1.9467085114758358

> <ALOGPS_LOGS>
-0.09

> <JCHEM_MDDR_LIKE_RULE>
0

> <JCHEM_NEUTRAL_CHARGE>
0

> <JCHEM_NUMBER_OF_RINGS>
0

> <JCHEM_PHYSIOLOGICAL_CHARGE>
0

> <JCHEM_PKA_STRONGEST_ACIDIC>
4.699982253279385

> <JCHEM_PKA_STRONGEST_BASIC>
10.472673568937424

> <JCHEM_POLAR_SURFACE_AREA>
63.32000000000001

> <JCHEM_REFRACTIVITY>
34.4006

> <JCHEM_ROTATABLE_BOND_COUNT>
4

> <JCHEM_RULE_OF_FIVE>
1

> <ALOGPS_SOLUBILITY>
1.05e+02 g/l

> <JCHEM_TRADITIONAL_IUPAC>
tetrahydrofolic acid

> <JCHEM_VEBER_RULE>
0

> <DRUGBANK_ID>
DB04235

> <SECONDARY_ACCESSION_NUMBERS>
EXPT03223

> <DRUG_GROUPS>
experimental

> <GENERIC_NAME>
4-Amino Hexanoic Acid

$$$$
