 
  Mrv0541 06101314442D          
 
 37 41  0  0  1  0            999 V2000
    8.9513  -14.3137    0.0000 C   0  0  0  0  0  0  0  0  0  0  0  0
    8.9513  -15.1387    0.0000 C   0  0  0  0  0  0  0  0  0  0  0  0
    9.6657  -15.5512    0.0000 C   0  0  0  0  0  0  0  0  0  0  0  0
   10.3802  -15.1387    0.0000 C   0  0  0  0  0  0  0  0  0  0  0  0
   10.3802  -14.3137    0.0000 C   0  0  0  0  0  0  0  0  0  0  0  0
    9.6657  -13.9012    0.0000 C   0  0  0  0  0  0  0  0  0  0  0  0
   11.0947  -13.9012    0.0000 C   0  0  0  0  0  0  0  0  0  0  0  0
   11.0947  -13.0762    0.0000 C   0  0  0  0  0  0  0  0  0  0  0  0
   10.3802  -12.6637    0.0000 C   0  0  0  0  0  0  0  0  0  0  0  0
    9.6657  -13.0762    0.0000 N   0  0  0  0  0  0  0  0  0  0  0  0
   11.8103  -12.6630    0.0000 C   0  0  2  0  0  0  0  0  0  0  0  0
   12.5154  -13.0702    0.0000 C   0  0  1  0  0  0  0  0  0  0  0  0
   11.8103  -11.8389    0.0000 C   0  0  0  0  0  0  0  0  0  0  0  0
   10.3802  -11.8389    0.0000 O   0  0  0  0  0  0  0  0  0  0  0  0
    9.6768  -11.4327    0.0000 C   0  0  0  0  0  0  0  0  0  0  0  0
   13.2148  -12.6665    0.0000 C   0  0  0  0  0  0  0  0  0  0  0  0
   12.5155  -13.9011    0.0000 C   0  0  0  0  0  0  0  0  0  0  0  0
   13.9169  -13.0720    0.0000 C   0  0  0  0  0  0  0  0  0  0  0  0
   14.6178  -12.6673    0.0000 N   0  0  0  0  0  0  0  0  0  0  0  0
   15.3192  -13.0724    0.0000 C   0  0  0  0  0  0  0  0  0  0  0  0
   14.6179  -11.8389    0.0000 C   0  0  0  0  0  0  0  0  0  0  0  0
   11.7885  -14.3210    0.0000 C   0  0  0  0  0  0  0  0  0  0  0  0
   11.7887  -15.1460    0.0000 C   0  0  0  0  0  0  0  0  0  0  0  0
   12.5033  -15.5583    0.0000 C   0  0  0  0  0  0  0  0  0  0  0  0
   13.2302  -15.1384    0.0000 C   0  0  0  0  0  0  0  0  0  0  0  0
   13.2301  -14.3134    0.0000 C   0  0  0  0  0  0  0  0  0  0  0  0
   13.9448  -15.5507    0.0000 C   0  0  0  0  0  0  0  0  0  0  0  0
   14.6592  -15.1380    0.0000 C   0  0  0  0  0  0  0  0  0  0  0  0
   14.6590  -14.3130    0.0000 C   0  0  0  0  0  0  0  0  0  0  0  0
   13.9444  -13.9007    0.0000 C   0  0  0  0  0  0  0  0  0  0  0  0
   12.5152  -11.4318    0.0000 C   0  0  0  0  0  0  0  0  0  0  0  0
   12.5151  -10.6068    0.0000 C   0  0  0  0  0  0  0  0  0  0  0  0
   11.8006  -10.1944    0.0000 C   0  0  0  0  0  0  0  0  0  0  0  0
   11.0958  -10.6014    0.0000 C   0  0  0  0  0  0  0  0  0  0  0  0
   11.0958  -11.4264    0.0000 C   0  0  0  0  0  0  0  0  0  0  0  0
   13.2299  -13.4827    0.0000 O   0  0  0  0  0  0  0  0  0  0  0  0
    9.6657  -16.3761    0.0000 Br  0  0  0  0  0  0  0  0  0  0  0  0
  1  2  2  0  0  0  0
  2  3  1  0  0  0  0
  3  4  2  0  0  0  0
  4  5  1  0  0  0  0
  5  6  2  0  0  0  0
  1  6  1  0  0  0  0
  5  7  1  0  0  0  0
  7  8  2  0  0  0  0
  8  9  1  0  0  0  0
  9 10  2  0  0  0  0
  6 10  1  0  0  0  0
  8 11  1  0  0  0  0
 11 12  1  0  0  0  0
 11 13  1  1  0  0  0
  9 14  1  0  0  0  0
 14 15  1  0  0  0  0
 12 16  1  0  0  0  0
 12 17  1  0  0  0  0
 16 18  1  0  0  0  0
 18 19  1  0  0  0  0
 19 20  1  0  0  0  0
 19 21  1  0  0  0  0
 17 22  2  0  0  0  0
 22 23  1  0  0  0  0
 23 24  2  0  0  0  0
 24 25  1  0  0  0  0
 25 26  2  0  0  0  0
 17 26  1  0  0  0  0
 25 27  1  0  0  0  0
 27 28  2  0  0  0  0
 28 29  1  0  0  0  0
 29 30  2  0  0  0  0
 26 30  1  0  0  0  0
 13 31  2  0  0  0  0
 31 32  1  0  0  0  0
 32 33  2  0  0  0  0
 33 34  1  0  0  0  0
 34 35  2  0  0  0  0
 13 35  1  0  0  0  0
 12 36  1  6  0  0  0
  3 37  1  0  0  0  0
M  END
> <DATABASE_ID>
DB08903

> <DATABASE_NAME>
drugbank

> <SMILES>
COC1=NC2=C(C=C(Br)C=C2)C=C1[C@@H](C1=CC=CC=C1)[C@@](O)(CCN(C)C)C1=CC=CC2=C1C=CC=C2

> <INCHI_IDENTIFIER>
InChI=1S/C32H31BrN2O2/c1-35(2)19-18-32(36,28-15-9-13-22-10-7-8-14-26(22)28)30(23-11-5-4-6-12-23)27-21-24-20-25(33)16-17-29(24)34-31(27)37-3/h4-17,20-21,30,36H,18-19H2,1-3H3/t30-,32-/m1/s1

> <INCHI_KEY>
QUIJNHUBAXPXFS-XLJNKUFUSA-N

> <FORMULA>
C32H31BrN2O2

> <MOLECULAR_WEIGHT>
555.505

> <EXACT_MASS>
554.156890893

> <JCHEM_ACCEPTOR_COUNT>
4

> <JCHEM_ATOM_COUNT>
68

> <JCHEM_AVERAGE_NEUTRAL_MICROSPECIES_CHARGE>
0.9879533360747259

> <JCHEM_AVERAGE_POLARIZABILITY>
57.29096930280779

> <JCHEM_BIOAVAILABILITY>
0

> <JCHEM_DONOR_COUNT>
1

> <JCHEM_FORMAL_CHARGE>
0

> <JCHEM_GHOSE_FILTER>
0

> <JCHEM_IUPAC>
(1R,2S)-1-(6-bromo-2-methoxyquinolin-3-yl)-4-(dimethylamino)-2-(naphthalen-1-yl)-1-phenylbutan-2-ol

> <ALOGPS_LOGP>
6.37

> <JCHEM_LOGP>
7.132617516666667

> <ALOGPS_LOGS>
-6.46

> <JCHEM_MDDR_LIKE_RULE>
1

> <JCHEM_NEUTRAL_CHARGE>
1

> <JCHEM_NUMBER_OF_RINGS>
5

> <JCHEM_PHYSIOLOGICAL_CHARGE>
1

> <JCHEM_PKA_STRONGEST_ACIDIC>
13.606678891558918

> <JCHEM_PKA_STRONGEST_BASIC>
8.913742207428536

> <JCHEM_POLAR_SURFACE_AREA>
45.59

> <JCHEM_REFRACTIVITY>
154.02339999999998

> <JCHEM_ROTATABLE_BOND_COUNT>
8

> <JCHEM_RULE_OF_FIVE>
0

> <ALOGPS_SOLUBILITY>
1.93e-04 g/l

> <JCHEM_TRADITIONAL_IUPAC>
biotin

> <JCHEM_VEBER_RULE>
0

> <DRUGBANK_ID>
DB08903

> <DRUG_GROUPS>
approved

> <GENERIC_NAME>
Bedaquiline

> <SYNONYMS>
1-(6-Bromo-2-methoxy-quinolin-3-yl)-4-dimethylamino-2-naphthalen-1-yl-1-phenyl-butan-2-ol; Bedaquilina; Bedaquiline; BÃ©daquiline; Bedaquilinum

> <PRODUCTS>
Sirturo

> <SALTS>
Bedaquiline fumarate

$$$$
