
  Mrv0541 02241204202D          

  1  0  0  0  0  0            999 V2000
    0.0000    0.0000    0.0000 F   0  0  0  0  0  0  0  0  0  0  0  0
M  END
> <DATABASE_ID>
DB11072

> <DATABASE_NAME>
drugbank

> <SMILES>
F

> <INCHI_IDENTIFIER>
InChI=1S/FH/h1H

> <INCHI_KEY>
KRHYYFGTRYWZRS-UHFFFAOYSA-N

> <FORMULA>
FH

> <MOLECULAR_WEIGHT>
20.0063

> <EXACT_MASS>
20.006228237

> <JCHEM_ACCEPTOR_COUNT>
0

> <JCHEM_ATOM_COUNT>
2

> <JCHEM_AVERAGE_NEUTRAL_MICROSPECIES_CHARGE>
-0.9998521110355639

> <JCHEM_AVERAGE_POLARIZABILITY>
0.7916237815811438

> <JCHEM_BIOAVAILABILITY>
1

> <JCHEM_DONOR_COUNT>
0

> <JCHEM_FORMAL_CHARGE>
0

> <JCHEM_GHOSE_FILTER>
0

> <JCHEM_IUPAC>
hydrogen fluoride

> <JCHEM_LOGP>
0.14883863966666666

> <JCHEM_MDDR_LIKE_RULE>
0

> <JCHEM_NEUTRAL_CHARGE>
-1

> <JCHEM_NUMBER_OF_RINGS>
0

> <JCHEM_PHYSIOLOGICAL_CHARGE>
-1

> <JCHEM_PKA_STRONGEST_ACIDIC>
3.1699999999999995

> <JCHEM_POLAR_SURFACE_AREA>
0.0

> <JCHEM_REFRACTIVITY>
1.6725

> <JCHEM_ROTATABLE_BOND_COUNT>
0

> <JCHEM_RULE_OF_FIVE>
1

> <JCHEM_TRADITIONAL_IUPAC>
biotin

> <JCHEM_VEBER_RULE>
1

> <DRUGBANK_ID>
DB11072

> <DRUG_GROUPS>
approved; investigational

> <GENERIC_NAME>
Hydrogen fluoride

> <SYNONYMS>
fluorure d'hydrogÃ¨ne; Fluorwasserstoff; Hydrofluoric acid; Hydrogen fluoride, anhydrous; Hydrogenfluorid

> <PRODUCTS>
Acidulated Phosphate Fluoride Oral Solution; All Solutions Acidulated Phosphate Fluoride Foam; Alpha-Pro; Butler Protect One Minute Apf Fluoride Gel; Denti-Care Topical Fluoride Foam Bubble Gum; Denti-Care Topical Fluoride Foam Grape; Denti-Care Topical Fluoride Foam Orange; Denti-Care Topical Fluoride Foam Raspberry; Denti-Care Topical Sodium Fluoride Strawberry; Henry Schein Minute Topical Fluoride Gel; Henry Schein Minute Topical Foam Fluoride; Henry Schein Topical Fluoride Cream; Oral-B Minute-Foam Orang-A-Tangy; Pascal Puff; Pdf Gel 1.24%; Perfect Choice; Perfect Choice 0.717% Root and Dentin Desens; Phocal Apf; Pro-dentx Comfort Dentin Desensitizer; Thixotropic Acidulated Phos. Fluor. Top. Gel; Topical Fluoride Foam Bubble Gum Flavour; Topical Fluoride Foam Bumble Bee Bubble Gum; Topical Fluoride Foam Koala Berry Flavour; Topical Fluoride Foam Tyranna Grape Flavour; Topical Fluoride Foam Witchy Candy Mint

$$$$
