
  Mrv0541 05031423372D          

 52 56  0  0  1  0            999 V2000
   -2.1434   -1.2375    0.0000 C   0  0  0  0  0  0  0  0  0  0  0  0
   -2.1434    3.7125    0.0000 C   0  0  0  0  0  0  0  0  0  0  0  0
   -3.5724   -0.4125    0.0000 C   0  0  0  0  0  0  0  0  0  0  0  0
   -6.4302    2.0625    0.0000 C   0  0  0  0  0  0  0  0  0  0  0  0
  -12.1460   -1.2375    0.0000 C   0  0  0  0  0  0  0  0  0  0  0  0
   -2.1434   -0.4125    0.0000 C   0  0  0  0  0  0  0  0  0  0  0  0
   -5.7158    3.3000    0.0000 C   0  0  0  0  0  0  0  0  0  0  0  0
   -7.8592   -1.2375    0.0000 C   0  0  0  0  0  0  0  0  0  0  0  0
   -5.0013    3.7125    0.0000 C   0  0  0  0  0  0  0  0  0  0  0  0
  -10.0026   -0.0000    0.0000 C   0  0  0  0  0  0  0  0  0  0  0  0
   -5.7158    0.8250    0.0000 C   0  0  0  0  0  0  0  0  0  0  0  0
   -8.5737   -1.6500    0.0000 C   0  0  0  0  0  0  0  0  0  0  0  0
   -5.0013    1.2375    0.0000 C   0  0  0  0  0  0  0  0  0  0  0  0
  -10.7171   -0.4125    0.0000 C   0  0  0  0  0  0  0  0  0  0  0  0
   -3.5724    3.7125    0.0000 C   0  0  0  0  0  0  0  0  0  0  0  0
   -2.8579    2.4750    0.0000 C   0  0  0  0  0  0  0  0  0  0  0  0
   -8.5737   -0.0000    0.0000 C   0  0  0  0  0  0  0  0  0  0  0  0
   -5.0013   -0.4125    0.0000 C   0  0  0  0  0  0  0  0  0  0  0  0
   -5.7158   -1.6500    0.0000 C   0  0  0  0  0  0  0  0  0  0  0  0
   -7.1447   -0.0000    0.0000 C   0  0  0  0  0  0  0  0  0  0  0  0
  -10.0026   -2.4750    0.0000 C   0  0  0  0  0  0  0  0  0  0  0  0
   -2.8579    3.3000    0.0000 C   0  0  1  0  0  0  0  0  0  0  0  0
   -2.8579   -0.0000    0.0000 C   0  0  1  0  0  0  0  0  0  0  0  0
   -5.7158    2.4750    0.0000 C   0  0  1  0  0  0  0  0  0  0  0  0
   -7.8592   -0.4125    0.0000 C   0  0  0  0  0  0  0  0  0  0  0  0
   -9.2881   -0.4125    0.0000 C   0  0  0  0  0  0  0  0  0  0  0  0
   -4.2868    3.3000    0.0000 C   0  0  0  0  0  0  0  0  0  0  0  0
   -5.7158   -0.0000    0.0000 C   0  0  1  0  0  0  0  0  0  0  0  0
   -5.0013   -1.2375    0.0000 C   0  0  2  0  0  0  0  0  0  0  0  0
   -5.0013    2.0625    0.0000 C   0  0  1  0  0  0  0  0  0  0  0  0
   -9.2881   -1.2375    0.0000 C   0  0  0  0  0  0  0  0  0  0  0  0
  -10.0026   -1.6500    0.0000 C   0  0  0  0  0  0  0  0  0  0  0  0
  -10.7171   -1.2375    0.0000 C   0  0  0  0  0  0  0  0  0  0  0  0
   -3.5724    2.0625    0.0000 C   0  0  1  0  0  0  0  0  0  0  0  0
   -6.4302   -1.2375    0.0000 C   0  0  0  0  0  0  0  0  0  0  0  0
   -4.2868    2.4750    0.0000 C   0  0  1  0  0  0  0  0  0  0  0  0
   -2.8579    0.8250    0.0000 C   0  0  0  0  0  0  0  0  0  0  0  0
   -6.4302   -0.4125    0.0000 N   0  0  0  0  0  0  0  0  0  0  0  0
  -10.7171   -2.8875    0.0000 O   0  0  0  0  0  0  0  0  0  0  0  0
   -4.2868   -1.6500    0.0000 O   0  0  0  0  0  0  0  0  0  0  0  0
   -7.1447   -1.6500    0.0000 O   0  0  0  0  0  0  0  0  0  0  0  0
   -2.1434    1.2375    0.0000 O   0  0  0  0  0  0  0  0  0  0  0  0
  -11.4315   -1.6500    0.0000 O   0  0  0  0  0  0  0  0  0  0  0  0
   -3.5724    1.2375    0.0000 O   0  0  0  0  0  0  0  0  0  0  0  0
   -2.8579    4.1250    0.0000 H   0  0  0  0  0  0  0  0  0  0  0  0
   -2.8579   -0.8250    0.0000 H   0  0  0  0  0  0  0  0  0  0  0  0
   -6.4302    2.8875    0.0000 H   0  0  0  0  0  0  0  0  0  0  0  0
   -5.0013    0.4125    0.0000 H   0  0  0  0  0  0  0  0  0  0  0  0
   -4.2868   -0.8250    0.0000 H   0  0  0  0  0  0  0  0  0  0  0  0
   -5.7158    1.6500    0.0000 H   0  0  0  0  0  0  0  0  0  0  0  0
   -2.8579    1.6500    0.0000 H   0  0  0  0  0  0  0  0  0  0  0  0
   -4.2868    1.6500    0.0000 H   0  0  0  0  0  0  0  0  0  0  0  0
  6  1  1  0  0  0  0
  9  7  2  0  0  0  0
 12  8  2  0  0  0  0
 13 11  1  0  0  0  0
 14 10  2  0  0  0  0
 22  2  1  6  0  0  0
 22 15  1  0  0  0  0
 22 16  1  0  0  0  0
 23  3  1  6  0  0  0
 23  6  1  0  0  0  0
 24  4  1  1  0  0  0
 24  7  1  0  0  0  0
 25  8  1  0  0  0  0
 25 17  2  0  0  0  0
 25 20  1  0  0  0  0
 26 10  1  0  0  0  0
 26 17  1  0  0  0  0
 27  9  1  0  0  0  0
 27 15  2  0  0  0  0
 28 11  1  1  0  0  0
 28 18  1  0  0  0  0
 29 18  1  0  0  0  0
 29 19  1  0  0  0  0
 30 13  1  1  0  0  0
 30 24  1  0  0  0  0
 31 12  1  0  0  0  0
 31 26  2  0  0  0  0
 32 21  1  0  0  0  0
 32 31  1  0  0  0  0
 33 14  1  0  0  0  0
 33 32  2  0  0  0  0
 34 16  1  0  0  0  0
 35 19  1  0  0  0  0
 36 27  1  0  0  0  0
 36 30  1  0  0  0  0
 36 34  1  0  0  0  0
 37 23  1  0  0  0  0
 38 20  1  0  0  0  0
 38 28  1  0  0  0  0
 38 35  1  0  0  0  0
 39 21  1  0  0  0  0
 29 40  1  1  0  0  0
 41 35  2  0  0  0  0
 42 37  2  0  0  0  0
 43  5  1  0  0  0  0
 43 33  1  0  0  0  0
 34 44  1  6  0  0  0
 44 37  1  0  0  0  0
 22 45  1  1  0  0  0
 23 46  1  1  0  0  0
 24 47  1  6  0  0  0
 28 48  1  6  0  0  0
 29 49  1  6  0  0  0
 30 50  1  6  0  0  0
 34 51  1  1  0  0  0
 36 52  1  1  0  0  0
M  END
> <DATABASE_ID>
DB03932

> <DATABASE_NAME>
drugbank

> <SMILES>
[H][C@](C)(CC)C(=O)O[C@@]1([H])C[C@@]([H])(C)C=C2C=C[C@]([H])(C)[C@]([H])(CC[C@@]3([H])C[C@@]([H])(O)CC(=O)N3CC3=CC4=C(C=C3)C(CO)=C(OC)C=C4)[C@@]12[H]

> <INCHI_IDENTIFIER>
InChI=1S/C37H49NO6/c1-6-23(3)37(42)44-34-16-22(2)15-27-9-7-24(4)30(36(27)34)13-11-28-18-29(40)19-35(41)38(28)20-25-8-12-31-26(17-25)10-14-33(43-5)32(31)21-39/h7-10,12,14-15,17,22-24,28-30,34,36,39-40H,6,11,13,16,18-21H2,1-5H3/t22-,23-,24-,28-,29+,30-,34-,36-/m0/s1

> <INCHI_KEY>
WPVRNXUYVXQXPY-YFAYRSKXSA-N

> <FORMULA>
C37H49NO6

> <MOLECULAR_WEIGHT>
603.7881

> <EXACT_MASS>
603.355988305

> <JCHEM_ACCEPTOR_COUNT>
5

> <JCHEM_ATOM_COUNT>
93

> <JCHEM_AVERAGE_NEUTRAL_MICROSPECIES_CHARGE>
-2.6726568039699504e-08

> <JCHEM_AVERAGE_POLARIZABILITY>
68.05190759967209

> <JCHEM_BIOAVAILABILITY>
0

> <JCHEM_DONOR_COUNT>
2

> <JCHEM_FORMAL_CHARGE>
0

> <JCHEM_GHOSE_FILTER>
0

> <JCHEM_IUPAC>
(1S,3R,7S,8S,8aR)-8-{2-[(2S,4R)-4-hydroxy-1-{[5-(hydroxymethyl)-6-methoxynaphthalen-2-yl]methyl}-6-oxopiperidin-2-yl]ethyl}-3,7-dimethyl-1,2,3,7,8,8a-hexahydronaphthalen-1-yl (2S)-2-methylbutanoate

> <ALOGPS_LOGP>
5.51

> <JCHEM_LOGP>
5.185631216999999

> <ALOGPS_LOGS>
-5.60

> <JCHEM_MDDR_LIKE_RULE>
1

> <JCHEM_NEUTRAL_CHARGE>
0

> <JCHEM_NUMBER_OF_RINGS>
5

> <JCHEM_PHYSIOLOGICAL_CHARGE>
0

> <JCHEM_PKA>
15.228075967256425

> <JCHEM_PKA_STRONGEST_ACIDIC>
14.616740028707483

> <JCHEM_PKA_STRONGEST_BASIC>
-1.4917497846221552

> <JCHEM_POLAR_SURFACE_AREA>
96.30000000000001

> <JCHEM_REFRACTIVITY>
174.37080000000006

> <JCHEM_ROTATABLE_BOND_COUNT>
11

> <JCHEM_RULE_OF_FIVE>
0

> <ALOGPS_SOLUBILITY>
1.52e-03 g/l

> <JCHEM_TRADITIONAL_IUPAC>
tetrahydrofolic acid

> <JCHEM_VEBER_RULE>
0

> <DRUGBANK_ID>
DB03932

> <SECONDARY_ACCESSION_NUMBERS>
EXPT00387

> <DRUG_GROUPS>
experimental

> <GENERIC_NAME>
LFA703

$$$$
