
  Mrv0541 05041401032D          

 21 20  0  0  0  0            999 V2000
    4.9500    6.9829    0.0000 C   0  0  0  0  0  0  0  0  0  0  0  0
    4.2355    6.5704    0.0000 C   0  0  0  0  0  0  0  0  0  0  0  0
    4.2355    5.7454    0.0000 C   0  0  0  0  0  0  0  0  0  0  0  0
    3.5211    5.3329    0.0000 C   0  0  0  0  0  0  0  0  0  0  0  0
    3.5211    4.5079    0.0000 C   0  0  0  0  0  0  0  0  0  0  0  0
    4.2355    4.0954    0.0000 C   0  0  0  0  0  0  0  0  0  0  0  0
    4.2355    3.2704    0.0000 C   0  0  0  0  0  0  0  0  0  0  0  0
    4.9500    2.8579    0.0000 C   0  0  0  0  0  0  0  0  0  0  0  0
    5.6645    3.2704    0.0000 C   0  0  0  0  0  0  0  0  0  0  0  0
    6.3789    2.8579    0.0000 C   0  0  0  0  0  0  0  0  0  0  0  0
    7.0934    3.2704    0.0000 C   0  0  0  0  0  0  0  0  0  0  0  0
    7.8079    2.8579    0.0000 C   0  0  0  0  0  0  0  0  0  0  0  0
    8.5224    3.2704    0.0000 C   0  0  0  0  0  0  0  0  0  0  0  0
    9.2368    2.8579    0.0000 C   0  0  0  0  0  0  0  0  0  0  0  0
    9.9513    3.2704    0.0000 C   0  0  0  0  0  0  0  0  0  0  0  0
   10.6658    2.8579    0.0000 C   0  0  0  0  0  0  0  0  0  0  0  0
   11.3802    3.2704    0.0000 O   0  0  0  0  0  0  0  0  0  0  0  0
    2.8066    5.7454    0.0000 H   0  0  0  0  0  0  0  0  0  0  0  0
    2.8066    4.0954    0.0000 H   0  0  0  0  0  0  0  0  0  0  0  0
    4.9500    4.5079    0.0000 H   0  0  0  0  0  0  0  0  0  0  0  0
    3.5211    2.8579    0.0000 H   0  0  0  0  0  0  0  0  0  0  0  0
  2  1  1  0  0  0  0
  3  2  1  0  0  0  0
  4  3  1  0  0  0  0
  5  4  2  0  0  0  0
  6  5  1  0  0  0  0
  7  6  2  0  0  0  0
  8  7  1  0  0  0  0
  9  8  1  0  0  0  0
 10  9  1  0  0  0  0
 11 10  1  0  0  0  0
 12 11  1  0  0  0  0
 13 12  1  0  0  0  0
 14 13  1  0  0  0  0
 15 14  1  0  0  0  0
 16 15  1  0  0  0  0
 17 16  1  0  0  0  0
 18  4  1  0  0  0  0
 19  5  1  0  0  0  0
 20  6  1  0  0  0  0
 21  7  1  0  0  0  0
M  END
> <DATABASE_ID>
DB02982

> <DATABASE_NAME>
drugbank

> <SMILES>
[H]\C(CCC)=C(/[H])\C(\[H])=C(/[H])CCCCCCCCCO

> <INCHI_IDENTIFIER>
InChI=1S/C16H30O/c1-2-3-4-5-6-7-8-9-10-11-12-13-14-15-16-17/h4-7,17H,2-3,8-16H2,1H3/b5-4-,7-6+

> <INCHI_KEY>
CIVIWCVVOFNUST-SCFJQAPRSA-N

> <FORMULA>
C16H30O

> <MOLECULAR_WEIGHT>
238.4088

> <EXACT_MASS>
238.229665582

> <JCHEM_ACCEPTOR_COUNT>
1

> <JCHEM_ATOM_COUNT>
47

> <JCHEM_AVERAGE_NEUTRAL_MICROSPECIES_CHARGE>
8.747455040604531e-10

> <JCHEM_AVERAGE_POLARIZABILITY>
32.544067482426485

> <JCHEM_BIOAVAILABILITY>
0

> <JCHEM_DONOR_COUNT>
1

> <JCHEM_FORMAL_CHARGE>
0

> <JCHEM_GHOSE_FILTER>
1

> <JCHEM_IUPAC>
(10E,12Z)-hexadeca-10,12-dien-1-ol

> <ALOGPS_LOGP>
6.38

> <JCHEM_LOGP>
5.416302612666667

> <ALOGPS_LOGS>
-6.05

> <JCHEM_MDDR_LIKE_RULE>
0

> <JCHEM_NEUTRAL_CHARGE>
0

> <JCHEM_NUMBER_OF_RINGS>
0

> <JCHEM_PHYSIOLOGICAL_CHARGE>
0

> <JCHEM_PKA_STRONGEST_ACIDIC>
16.84394282199214

> <JCHEM_PKA_STRONGEST_BASIC>
-1.9922594096606376

> <JCHEM_POLAR_SURFACE_AREA>
20.23

> <JCHEM_REFRACTIVITY>
79.58009999999999

> <JCHEM_ROTATABLE_BOND_COUNT>
12

> <JCHEM_RULE_OF_FIVE>
0

> <ALOGPS_SOLUBILITY>
2.10e-04 g/l

> <JCHEM_TRADITIONAL_IUPAC>
tetrahydrofolic acid

> <JCHEM_VEBER_RULE>
0

> <DRUGBANK_ID>
DB02982

> <SECONDARY_ACCESSION_NUMBERS>
EXPT00738

> <DRUG_GROUPS>
experimental

> <GENERIC_NAME>
Bombykol

$$$$
