
  Mrv0541 09041213052D          

 25 24  0  0  0  0            999 V2000
    4.7586    3.5724    0.0000 C   0  0  0  0  0  0  0  0  0  0  0  0
    5.4730    3.9849    0.0000 C   0  0  0  0  0  0  0  0  0  0  0  0
    6.1875    3.5724    0.0000 C   0  0  0  0  0  0  0  0  0  0  0  0
    6.9020    3.9849    0.0000 C   0  0  0  0  0  0  0  0  0  0  0  0
    7.6164    3.5724    0.0000 C   0  0  0  0  0  0  0  0  0  0  0  0
    8.3309    3.9849    0.0000 C   0  0  0  0  0  0  0  0  0  0  0  0
    9.0454    3.5724    0.0000 C   0  0  0  0  0  0  0  0  0  0  0  0
    9.7599    3.9849    0.0000 C   0  0  0  0  0  0  0  0  0  0  0  0
   10.4743    3.5724    0.0000 C   0  0  0  0  0  0  0  0  0  0  0  0
   11.1888    3.9849    0.0000 C   0  0  0  0  0  0  0  0  0  0  0  0
   11.9033    3.5724    0.0000 C   0  0  0  0  0  0  0  0  0  0  0  0
   12.6177    3.9849    0.0000 C   0  0  0  0  0  0  0  0  0  0  0  0
   13.3322    3.5724    0.0000 C   0  0  0  0  0  0  0  0  0  0  0  0
   14.0467    3.9849    0.0000 C   0  0  0  0  0  0  0  0  0  0  0  0
   14.7612    3.5724    0.0000 C   0  0  0  0  0  0  0  0  0  0  0  0
   16.1901    5.2224    0.0000 C   0  0  0  0  0  0  0  0  0  0  0  0
   15.4756    4.8099    0.0000 C   0  0  1  0  0  0  0  0  0  0  0  0
   15.4756    3.9849    0.0000 C   0  0  2  0  0  0  0  0  0  0  0  0
   14.7612    5.2224    0.0000 N   0  0  0  0  0  0  0  0  0  0  0  0
   16.1901    6.0474    0.0000 O   0  0  0  0  0  0  0  0  0  0  0  0
   16.1901    3.5724    0.0000 O   0  0  0  0  0  0  0  0  0  0  0  0
   14.0467    4.8099    0.0000 H   0  0  0  0  0  0  0  0  0  0  0  0
   14.7612    2.7474    0.0000 H   0  0  0  0  0  0  0  0  0  0  0  0
   16.1901    4.3974    0.0000 H   0  0  0  0  0  0  0  0  0  0  0  0
   14.7612    4.3974    0.0000 H   0  0  0  0  0  0  0  0  0  0  0  0
  2  1  1  0  0  0  0
  3  2  1  0  0  0  0
  4  3  1  0  0  0  0
  5  4  1  0  0  0  0
  6  5  1  0  0  0  0
  7  6  1  0  0  0  0
  8  7  1  0  0  0  0
  9  8  1  0  0  0  0
 10  9  1  0  0  0  0
 11 10  1  0  0  0  0
 12 11  1  0  0  0  0
 13 12  1  0  0  0  0
 14 13  1  0  0  0  0
 15 14  2  0  0  0  0
 17 16  1  0  0  0  0
 18 15  1  0  0  0  0
 18 17  1  0  0  0  0
 17 19  1  6  0  0  0
 20 16  1  0  0  0  0
 18 21  1  1  0  0  0
 22 14  1  0  0  0  0
 23 15  1  0  0  0  0
 17 24  1  6  0  0  0
 18 25  1  1  0  0  0
M  END
> <DATABASE_ID>
DB03203

> <DATABASE_NAME>
drugbank

> <SMILES>
[H]\C(CCCCCCCCCCCCC)=C(\[H])[C@@]([H])(O)[C@@]([H])(N)CO

> <INCHI_IDENTIFIER>
InChI=1S/C18H37NO2/c1-2-3-4-5-6-7-8-9-10-11-12-13-14-15-18(21)17(19)16-20/h14-15,17-18,20-21H,2-13,16,19H2,1H3/b15-14+/t17-,18+/m0/s1

> <INCHI_KEY>
WWUZIQQURGPMPG-KRWOKUGFSA-N

> <FORMULA>
C18H37NO2

> <MOLECULAR_WEIGHT>
299.4919

> <EXACT_MASS>
299.282429433

> <JCHEM_ACCEPTOR_COUNT>
3

> <JCHEM_ATOM_COUNT>
58

> <JCHEM_AVERAGE_NEUTRAL_MICROSPECIES_CHARGE>
0.9942035113764703

> <JCHEM_AVERAGE_POLARIZABILITY>
39.37106203313908

> <JCHEM_BIOAVAILABILITY>
1

> <JCHEM_DONOR_COUNT>
3

> <JCHEM_FORMAL_CHARGE>
0

> <JCHEM_GHOSE_FILTER>
1

> <JCHEM_IUPAC>
(2S,3R,4E)-2-aminooctadec-4-ene-1,3-diol

> <ALOGPS_LOGP>
5.15

> <JCHEM_LOGP>
4.5665800486666654

> <ALOGPS_LOGS>
-4.89

> <JCHEM_MDDR_LIKE_RULE>
0

> <JCHEM_NEUTRAL_CHARGE>
1

> <JCHEM_NUMBER_OF_RINGS>
0

> <JCHEM_PHYSIOLOGICAL_CHARGE>
1

> <JCHEM_PKA>
15.190394596992869

> <JCHEM_PKA_STRONGEST_ACIDIC>
14.116140546669913

> <JCHEM_PKA_STRONGEST_BASIC>
9.234294901231742

> <JCHEM_POLAR_SURFACE_AREA>
66.48

> <JCHEM_REFRACTIVITY>
91.89199999999998

> <JCHEM_ROTATABLE_BOND_COUNT>
15

> <JCHEM_RULE_OF_FIVE>
1

> <ALOGPS_SOLUBILITY>
3.90e-03 g/l

> <JCHEM_TRADITIONAL_IUPAC>
tetrahydrofolic acid

> <JCHEM_VEBER_RULE>
0

> <DRUGBANK_ID>
DB03203

> <SECONDARY_ACCESSION_NUMBERS>
EXPT02945

> <DRUG_GROUPS>
experimental

> <GENERIC_NAME>
Sphingosine

$$$$
