
  Mrv0541 09131211522D          

 25 28  0  0  0  0            999 V2000
   -2.1434   -0.4125    0.0000 C   0  0  0  0  0  0  0  0  0  0  0  0
   -0.7145   -0.4125    0.0000 C   0  0  0  0  0  0  0  0  0  0  0  0
   -1.4289    0.8250    0.0000 C   0  0  0  0  0  0  0  0  0  0  0  0
    0.0000    0.0000    0.0000 C   0  0  0  0  0  0  0  0  0  0  0  0
   -0.7145    1.2375    0.0000 C   0  0  0  0  0  0  0  0  0  0  0  0
    2.8579    0.0000    0.0000 C   0  0  0  0  0  0  0  0  0  0  0  0
    2.1434   -0.4125    0.0000 C   0  0  0  0  0  0  0  0  0  0  0  0
    1.4289    2.4750    0.0000 C   0  0  0  0  0  0  0  0  0  0  0  0
    3.5724    1.2375    0.0000 C   0  0  0  0  0  0  0  0  0  0  0  0
    2.1434    2.0625    0.0000 C   0  0  0  0  0  0  0  0  0  0  0  0
    3.5724    2.0625    0.0000 C   0  0  0  0  0  0  0  0  0  0  0  0
    0.7145    2.0625    0.0000 C   0  0  0  0  0  0  0  0  0  0  0  0
    2.1434    1.2375    0.0000 C   0  0  0  0  0  0  0  0  0  0  0  0
    0.7145    1.2375    0.0000 C   0  0  0  0  0  0  0  0  0  0  0  0
    2.8579    2.4750    0.0000 C   0  0  0  0  0  0  0  0  0  0  0  0
    1.4289    0.8250    0.0000 C   0  0  0  0  0  0  0  0  0  0  0  0
    4.2868    2.4750    0.0000 C   0  0  0  0  0  0  0  0  0  0  0  0
    0.0000    2.4750    0.0000 F   0  0  0  0  0  0  0  0  0  0  0  0
   -1.4289    0.0000    0.0000 N   0  0  0  0  0  0  0  0  0  0  0  0
    0.0000    0.8250    0.0000 N   0  0  0  0  0  0  0  0  0  0  0  0
    2.8579    0.8250    0.0000 N   0  0  0  0  0  0  0  0  0  0  0  0
    2.8579    3.3000    0.0000 O   0  0  0  0  0  0  0  0  0  0  0  0
    4.2868    3.3000    0.0000 O   0  0  0  0  0  0  0  0  0  0  0  0
    5.0013    2.0625    0.0000 O   0  0  0  0  0  0  0  0  0  0  0  0
    1.4289    0.0000    0.0000 S   0  0  0  0  0  0  0  0  0  0  0  0
  4  2  1  0  0  0  0
  5  3  1  0  0  0  0
  7  6  1  0  0  0  0
 10  8  2  0  0  0  0
 11  9  2  0  0  0  0
 12  8  1  0  0  0  0
 13 10  1  0  0  0  0
 14 12  2  0  0  0  0
 15 10  1  0  0  0  0
 15 11  1  0  0  0  0
 16 13  2  0  0  0  0
 16 14  1  0  0  0  0
 17 11  1  0  0  0  0
 18 12  1  0  0  0  0
 19  1  1  0  0  0  0
 19  2  1  0  0  0  0
 19  3  1  0  0  0  0
 20  4  1  0  0  0  0
 20  5  1  0  0  0  0
 20 14  1  0  0  0  0
 21  6  1  0  0  0  0
 21  9  1  0  0  0  0
 21 13  1  0  0  0  0
 22 15  2  0  0  0  0
 23 17  2  0  0  0  0
 24 17  1  0  0  0  0
 25  7  1  0  0  0  0
 25 16  1  0  0  0  0
M  END
> <DATABASE_ID>
DB13772

> <DATABASE_NAME>
drugbank

> <SMILES>
CN1CCN(CC1)C1=C(F)C=C2C(=O)C(=CN3CCSC1=C23)C(O)=O

> <INCHI_IDENTIFIER>
InChI=1S/C17H18FN3O3S/c1-19-2-4-20(5-3-19)14-12(18)8-10-13-16(14)25-7-6-21(13)9-11(15(10)22)17(23)24/h8-9H,2-7H2,1H3,(H,23,24)

> <INCHI_KEY>
NJCJBUHJQLFDSW-UHFFFAOYSA-N

> <FORMULA>
C17H18FN3O3S

> <MOLECULAR_WEIGHT>
363.407

> <EXACT_MASS>
363.105290352

> <JCHEM_ACCEPTOR_COUNT>
6

> <JCHEM_ATOM_COUNT>
43

> <JCHEM_AVERAGE_NEUTRAL_MICROSPECIES_CHARGE>
-0.6770761930439353

> <JCHEM_AVERAGE_POLARIZABILITY>
36.41625478914933

> <JCHEM_BIOAVAILABILITY>
1

> <JCHEM_DONOR_COUNT>
1

> <JCHEM_FORMAL_CHARGE>
0

> <JCHEM_GHOSE_FILTER>
1

> <JCHEM_IUPAC>
7-fluoro-6-(4-methylpiperazin-1-yl)-10-oxo-4-thia-1-azatricyclo[7.3.1.0^{5,13}]trideca-5(13),6,8,11-tetraene-11-carboxylic acid

> <ALOGPS_LOGP>
0.13

> <JCHEM_LOGP>
0.30425411425446575

> <ALOGPS_LOGS>
-2.58

> <JCHEM_MDDR_LIKE_RULE>
0

> <JCHEM_NEUTRAL_CHARGE>
-1

> <JCHEM_NUMBER_OF_RINGS>
4

> <JCHEM_PHYSIOLOGICAL_CHARGE>
-1

> <JCHEM_PKA_STRONGEST_ACIDIC>
5.328685190546734

> <JCHEM_PKA_STRONGEST_BASIC>
6.573215730285173

> <JCHEM_POLAR_SURFACE_AREA>
64.09

> <JCHEM_REFRACTIVITY>
97.01599999999996

> <JCHEM_ROTATABLE_BOND_COUNT>
2

> <JCHEM_RULE_OF_FIVE>
1

> <ALOGPS_SOLUBILITY>
9.60e-01 g/l

> <JCHEM_TRADITIONAL_IUPAC>
tetrahydrofolic acid

> <JCHEM_VEBER_RULE>
0

> <DRUGBANK_ID>
DB13772

> <DRUG_GROUPS>
experimental

> <GENERIC_NAME>
Rufloxacin

> <SYNONYMS>
Rufloxacin

> <SALTS>
Rufloxacin hydrochloride

$$$$
