
  Mrv0541 02231217052D          

 13 13  0  0  0  0            999 V2000
    2.8579    3.3000    0.0000 C   0  0  0  0  0  0  0  0  0  0  0  0
    2.8579    2.4750    0.0000 C   0  0  0  0  0  0  0  0  0  0  0  0
    2.1434    2.0625    0.0000 N   0  0  0  0  0  0  0  0  0  0  0  0
    1.4289    2.4750    0.0000 C   0  0  0  0  0  0  0  0  0  0  0  0
    2.1434    1.2375    0.0000 C   0  0  0  0  0  0  0  0  0  0  0  0
    1.4289    0.8250    0.0000 C   0  0  0  0  0  0  0  0  0  0  0  0
    1.4289    0.0000    0.0000 C   0  0  0  0  0  0  0  0  0  0  0  0
    0.7145   -0.4125    0.0000 N   0  0  0  0  0  0  0  0  0  0  0  0
    0.0000    0.0000    0.0000 C   0  0  0  0  0  0  0  0  0  0  0  0
   -0.7145   -0.4125    0.0000 C   0  0  0  0  0  0  0  0  0  0  0  0
    0.0000    0.8250    0.0000 N   0  0  0  0  0  0  0  0  0  0  0  0
    0.7145    1.2375    0.0000 C   0  0  0  0  0  0  0  0  0  0  0  0
    0.7145    2.0625    0.0000 N   0  0  0  0  0  0  0  0  0  0  0  0
  1  2  1  0  0  0  0
  2  3  1  0  0  0  0
  3  4  1  0  0  0  0
  3  5  1  0  0  0  0
  5  6  1  0  0  0  0
  6  7  2  0  0  0  0
  7  8  1  0  0  0  0
  8  9  2  0  0  0  0
  9 10  1  0  0  0  0
  9 11  1  0  0  0  0
 11 12  2  0  0  0  0
  6 12  1  0  0  0  0
 12 13  1  0  0  0  0
M  END
> <DATABASE_ID>
DB03653

> <DATABASE_NAME>
drugbank

> <SMILES>
CCN(C)CC1=CN=C(C)N=C1N

> <INCHI_IDENTIFIER>
InChI=1S/C9H16N4/c1-4-13(3)6-8-5-11-7(2)12-9(8)10/h5H,4,6H2,1-3H3,(H2,10,11,12)

> <INCHI_KEY>
UMZINNCUCWRLDQ-UHFFFAOYSA-N

> <FORMULA>
C9H16N4

> <MOLECULAR_WEIGHT>
180.2501

> <EXACT_MASS>
180.137496532

> <JCHEM_ACCEPTOR_COUNT>
4

> <JCHEM_ATOM_COUNT>
29

> <JCHEM_AVERAGE_NEUTRAL_MICROSPECIES_CHARGE>
0.7839753423323222

> <JCHEM_AVERAGE_POLARIZABILITY>
20.493492210951565

> <JCHEM_BIOAVAILABILITY>
1

> <JCHEM_DONOR_COUNT>
1

> <JCHEM_FORMAL_CHARGE>
0

> <JCHEM_GHOSE_FILTER>
1

> <JCHEM_IUPAC>
5-{[ethyl(methyl)amino]methyl}-2-methylpyrimidin-4-amine

> <ALOGPS_LOGP>
0.46

> <JCHEM_LOGP>
0.6821498326666667

> <ALOGPS_LOGS>
-1.49

> <JCHEM_MDDR_LIKE_RULE>
0

> <JCHEM_NEUTRAL_CHARGE>
1

> <JCHEM_NUMBER_OF_RINGS>
1

> <JCHEM_PHYSIOLOGICAL_CHARGE>
1

> <JCHEM_PKA_STRONGEST_BASIC>
7.497652565411838

> <JCHEM_POLAR_SURFACE_AREA>
55.040000000000006

> <JCHEM_REFRACTIVITY>
55.6519

> <JCHEM_ROTATABLE_BOND_COUNT>
3

> <JCHEM_RULE_OF_FIVE>
1

> <ALOGPS_SOLUBILITY>
5.86e+00 g/l

> <JCHEM_TRADITIONAL_IUPAC>
tetrahydrofolic acid

> <JCHEM_VEBER_RULE>
0

> <DRUGBANK_ID>
DB03653

> <SECONDARY_ACCESSION_NUMBERS>
EXPT03273

> <DRUG_GROUPS>
experimental

> <GENERIC_NAME>
5-{[Ethyl(Methyl)Amino]Methyl}-2-Methyl-5,6-Dihydropyrimidin-4-Amine

$$$$
