
  Mrv0541 02241212462D          

 10 10  0  0  0  0            999 V2000
   -0.7145    3.7125    0.0000 C   0  0  0  0  0  0  0  0  0  0  0  0
    0.0000    3.3000    0.0000 N   0  0  0  0  0  0  0  0  0  0  0  0
    0.0000    2.4750    0.0000 C   0  0  0  0  0  0  0  0  0  0  0  0
    0.7145    2.0625    0.0000 C   0  0  0  0  0  0  0  0  0  0  0  0
    0.7145    1.2375    0.0000 C   0  0  0  0  0  0  0  0  0  0  0  0
    1.4289    0.8250    0.0000 C   0  0  0  0  0  0  0  0  0  0  0  0
    1.4289    0.0000    0.0000 C   0  0  0  0  0  0  0  0  0  0  0  0
    0.7145   -0.4125    0.0000 C   0  0  0  0  0  0  0  0  0  0  0  0
    0.0000    0.0000    0.0000 C   0  0  0  0  0  0  0  0  0  0  0  0
    0.0000    0.8250    0.0000 N   0  0  0  0  0  0  0  0  0  0  0  0
  1  2  1  0  0  0  0
  2  3  1  0  0  0  0
  3  4  1  0  0  0  0
  4  5  1  0  0  0  0
  5  6  2  0  0  0  0
  6  7  1  0  0  0  0
  7  8  2  0  0  0  0
  8  9  1  0  0  0  0
  9 10  2  0  0  0  0
  5 10  1  0  0  0  0
M  END
> <DATABASE_ID>
DB06698

> <DATABASE_NAME>
drugbank

> <SMILES>
CNCCC1=CC=CC=N1

> <INCHI_IDENTIFIER>
InChI=1S/C8H12N2/c1-9-7-5-8-4-2-3-6-10-8/h2-4,6,9H,5,7H2,1H3

> <INCHI_KEY>
UUQMNUMQCIQDMZ-UHFFFAOYSA-N

> <FORMULA>
C8H12N2

> <MOLECULAR_WEIGHT>
136.1943

> <EXACT_MASS>
136.100048394

> <JCHEM_ACCEPTOR_COUNT>
2

> <JCHEM_ATOM_COUNT>
22

> <JCHEM_AVERAGE_NEUTRAL_MICROSPECIES_CHARGE>
0.9990495844843749

> <JCHEM_AVERAGE_POLARIZABILITY>
15.847728326464626

> <JCHEM_BIOAVAILABILITY>
1

> <JCHEM_DONOR_COUNT>
1

> <JCHEM_FORMAL_CHARGE>
0

> <JCHEM_GHOSE_FILTER>
0

> <JCHEM_IUPAC>
methyl[2-(pyridin-2-yl)ethyl]amine

> <ALOGPS_LOGP>
0.59

> <JCHEM_LOGP>
0.6324068453333336

> <ALOGPS_LOGS>
-0.44

> <JCHEM_MDDR_LIKE_RULE>
0

> <JCHEM_NEUTRAL_CHARGE>
1

> <JCHEM_NUMBER_OF_RINGS>
1

> <JCHEM_PHYSIOLOGICAL_CHARGE>
1

> <JCHEM_PKA_STRONGEST_BASIC>
9.769621036671913

> <JCHEM_POLAR_SURFACE_AREA>
24.92

> <JCHEM_REFRACTIVITY>
41.326299999999996

> <JCHEM_ROTATABLE_BOND_COUNT>
3

> <JCHEM_RULE_OF_FIVE>
1

> <ALOGPS_SOLUBILITY>
4.93e+01 g/l

> <JCHEM_TRADITIONAL_IUPAC>
tetrahydrofolic acid

> <JCHEM_VEBER_RULE>
1

> <DRUGBANK_ID>
DB06698

> <DRUG_GROUPS>
approved; investigational

> <GENERIC_NAME>
Betahistine

> <SYNONYMS>
[2-(2-pyridyl)ethyl]methylamine; 2-(β-methylaminoethyl)pyridine; 2-[2-(methylamino)ethyl]pyridine; Betahistina; Bétahistine; Betahistine; Betahistinum; N-methyl-2-(2-pyridinyl)ethanamine; N-methyl-2-pyridineethanamine

> <PRODUCTS>
Act Betahistine; Apo-betahistine; Auro-betahistine; Betahistine; M-betahistine; PMS-betahistine; Serc; Serc - Tab 4mg; Serc 4mg; Serc 8 mg; Teva-betahistine

> <SALTS>
Betahistine hydrochloride; Betahistine maleate; Betahistine mesylate

$$$$
