
  Mrv0541 02241217292D          

  4  2  0  0  0  0            999 V2000
   -0.7107   -0.6274    0.0000 Na  0  3  0  0  0  0  0  0  0  0  0  0
    0.7107    0.2089    0.0000 O   0  0  0  0  0  0  0  0  0  0  0  0
    0.0411    0.6274    0.0000 Cl  0  0  0  0  0  0  0  0  0  0  0  0
   -0.7107    0.2089    0.0000 O   0  5  0  0  0  0  0  0  0  0  0  0
  2  3  2  0  0  0  0
  3  4  1  0  0  0  0
M  CHG  2   1   1   4  -1
M  END
> <DATABASE_ID>
DB13210

> <DATABASE_NAME>
drugbank

> <SMILES>
[Na+].[O-][Cl]=O

> <INCHI_IDENTIFIER>
InChI=1S/ClHO2.Na/c2-1-3;/h(H,2,3);/q;+1/p-1

> <INCHI_KEY>
UKLNMMHNWFDKNT-UHFFFAOYSA-M

> <FORMULA>
ClNaO2

> <MOLECULAR_WEIGHT>
90.442

> <EXACT_MASS>
89.948451626

> <JCHEM_ACCEPTOR_COUNT>
2

> <JCHEM_ATOM_COUNT>
4

> <JCHEM_AVERAGE_NEUTRAL_MICROSPECIES_CHARGE>
-0.9999999999973107

> <JCHEM_AVERAGE_POLARIZABILITY>
3.912824005288485

> <JCHEM_BIOAVAILABILITY>
1

> <JCHEM_DONOR_COUNT>
0

> <JCHEM_FORMAL_CHARGE>
0

> <JCHEM_GHOSE_FILTER>
0

> <JCHEM_IUPAC>
sodium chlorite

> <ALOGPS_LOGP>
-0.91

> <JCHEM_LOGP>
0.17957803266666666

> <ALOGPS_LOGS>
0.70

> <JCHEM_MDDR_LIKE_RULE>
0

> <JCHEM_NEUTRAL_CHARGE>
-1

> <JCHEM_NUMBER_OF_RINGS>
0

> <JCHEM_PHYSIOLOGICAL_CHARGE>
-1

> <JCHEM_PKA_STRONGEST_ACIDIC>
-4.570353886854154

> <JCHEM_POLAR_SURFACE_AREA>
40.129999999999995

> <JCHEM_REFRACTIVITY>
9.0221

> <JCHEM_ROTATABLE_BOND_COUNT>
0

> <JCHEM_RULE_OF_FIVE>
1

> <ALOGPS_SOLUBILITY>
4.53e+02 g/l

> <JCHEM_TRADITIONAL_IUPAC>
biotin

> <JCHEM_VEBER_RULE>
0

> <DRUGBANK_ID>
DB13210

> <DRUG_GROUPS>
experimental

> <GENERIC_NAME>
Sodium chlorite

> <PRODUCTS>
Av-1000; Av100; B100; Bt100s; Cloon Stick; D.PRO Pack Solid; Defender Signature; Defenderstick; Doctor GuardStick; Dr. Guard Pack Solid; Dr. Guard Special Car Edition; Dr. Guard Special Car Edition Refill Stick; Dr. Guard Stick; EASYSTICK Dr.k shield; EasyStick; Easystick; NARYN CARE Stick; PURE O2 Pack-Solid; Pube Chlorine Dioxide Disinfection; Pure O2stick; Puristic; Qve - S; SUEROLYTE Oral Electrolyte Solution Apple Flavor; SUEROLYTE Oral Electrolyte Solution Bubbe Gum Flavor; SUEROLYTE Oral Electrolyte Solution Cherry Flavor; SUEROLYTE Oral Electrolyte Solution Coconut Flavor; SUEROLYTE Oral Electrolyte Solution Grape Flavor; SUEROLYTE Oral Electrolyte Solution Horchate Flavor; SUEROLYTE Oral Electrolyte Solution Lemon-Lime Flavor; SUEROLYTE Oral Electrolyte Solution Mango Flavor; SUEROLYTE Oral Electrolyte Solution Orange Flavor; SUEROLYTE Oral Electrolyte Solution Peach Flavor; SUEROLYTE Oral Electrolyte Solution Pineapple Flavor; SUEROLYTE Oral Electrolyte Solution Strawberry Banana Flavor; SUEROLYTE Oral Electrolyte Solution Tropical Fruits Flavor; SUEROLYTE Oral Electrolyte Solution Unflavored Flavor; Sharkboby; Sharkbody; V Doctor pure chlorine dioxide; Virus Barrier Plus; iSTICK

$$$$
