
  Mrv0541 02231216392D          

  8  7  0  0  1  0            999 V2000
    1.9520    1.9520    0.0000 N   0  0  0  0  0  0  0  0  0  0  0  0
    1.9520    1.1270    0.0000 C   0  0  1  0  0  0  0  0  0  0  0  0
    1.2375    0.7145    0.0000 C   0  0  0  0  0  0  0  0  0  0  0  0
    0.5230    1.1270    0.0000 S   0  0  0  0  0  0  0  0  0  0  0  0
   -0.1914    0.7145    0.0000 Se  0  0  0  0  0  0  0  0  0  0  0  0
    2.6664    0.7145    0.0000 C   0  0  0  0  0  0  0  0  0  0  0  0
    3.3809    1.1270    0.0000 O   0  0  0  0  0  0  0  0  0  0  0  0
    2.6664   -0.1105    0.0000 O   0  0  0  0  0  0  0  0  0  0  0  0
  2  1  1  6  0  0  0
  2  3  1  0  0  0  0
  3  4  1  0  0  0  0
  4  5  1  0  0  0  0
  2  6  1  0  0  0  0
  6  7  1  0  0  0  0
  6  8  2  0  0  0  0
M  END
> <DATABASE_ID>
DB03049

> <DATABASE_NAME>
drugbank

> <SMILES>
N[C@@H](CS[SeH])C(O)=O

> <INCHI_IDENTIFIER>
InChI=1S/C3H7NO2SSe/c4-2(1-7-8)3(5)6/h2,8H,1,4H2,(H,5,6)/t2-/m0/s1

> <INCHI_KEY>
KRUPEGHZMWTFPP-REOHCLBHSA-N

> <FORMULA>
C3H7NO2SSe

> <MOLECULAR_WEIGHT>
200.12

> <EXACT_MASS>
200.936270991

> <JCHEM_ACCEPTOR_COUNT>
4

> <JCHEM_ATOM_COUNT>
15

> <JCHEM_AVERAGE_NEUTRAL_MICROSPECIES_CHARGE>
-0.015882813974184007

> <JCHEM_AVERAGE_POLARIZABILITY>
14.00173023197983

> <JCHEM_BIOAVAILABILITY>
1

> <JCHEM_DONOR_COUNT>
3

> <JCHEM_FORMAL_CHARGE>
0

> <JCHEM_GHOSE_FILTER>
0

> <JCHEM_IUPAC>
(2R)-2-amino-3-(selanylsulfanyl)propanoic acid

> <ALOGPS_LOGP>
-2.89

> <JCHEM_LOGP>
-3.6527050701156636

> <ALOGPS_LOGS>
-0.54

> <JCHEM_MDDR_LIKE_RULE>
0

> <JCHEM_NEUTRAL_CHARGE>
0

> <JCHEM_NUMBER_OF_RINGS>
0

> <JCHEM_PHYSIOLOGICAL_CHARGE>
0

> <JCHEM_PKA>
9.60439361159743

> <JCHEM_PKA_STRONGEST_ACIDIC>
1.1709678795727343

> <JCHEM_PKA_STRONGEST_BASIC>
8.901310581792055

> <JCHEM_POLAR_SURFACE_AREA>
63.32

> <JCHEM_REFRACTIVITY>
41.35080000000001

> <JCHEM_ROTATABLE_BOND_COUNT>
3

> <JCHEM_RULE_OF_FIVE>
1

> <ALOGPS_SOLUBILITY>
5.75e+01 g/l

> <JCHEM_TRADITIONAL_IUPAC>
tetrahydrofolic acid

> <JCHEM_VEBER_RULE>
0

> <DRUGBANK_ID>
DB03049

> <SECONDARY_ACCESSION_NUMBERS>
EXPT01043

> <DRUG_GROUPS>
experimental

> <GENERIC_NAME>
S-Selanyl Cysteine

$$$$
