
  Mrv0541 05041412362D          

 44 46  0  0  1  0            999 V2000
    0.0000    8.2500    0.0000 C   0  0  0  0  0  0  0  0  0  0  0  0
    0.7145    9.4875    0.0000 C   0  0  0  0  0  0  0  0  0  0  0  0
    4.2868    8.2500    0.0000 C   0  0  0  0  0  0  0  0  0  0  0  0
    3.5724    9.4875    0.0000 C   0  0  0  0  0  0  0  0  0  0  0  0
    2.8579    5.7750    0.0000 C   0  0  0  0  0  0  0  0  0  0  0  0
    1.4289    5.7750    0.0000 C   0  0  0  0  0  0  0  0  0  0  0  0
    2.8579    3.3000    0.0000 C   0  0  0  0  0  0  0  0  0  0  0  0
    2.8579    4.1250    0.0000 C   0  0  0  0  0  0  0  0  0  0  0  0
    3.5724    2.8875    0.0000 C   0  0  0  0  0  0  0  0  0  0  0  0
    7.8592    7.8375    0.0000 C   0  0  0  0  0  0  0  0  0  0  0  0
    8.5737    8.2500    0.0000 C   0  0  0  0  0  0  0  0  0  0  0  0
    6.4302    7.0125    0.0000 C   0  0  0  0  0  0  0  0  0  0  0  0
    7.1447    5.7750    0.0000 C   0  0  0  0  0  0  0  0  0  0  0  0
    5.7158    6.6000    0.0000 C   0  0  0  0  0  0  0  0  0  0  0  0
    6.4302    5.3625    0.0000 C   0  0  0  0  0  0  0  0  0  0  0  0
    4.2868    4.1250    0.0000 C   0  0  0  0  0  0  0  0  0  0  0  0
    3.5724    5.3625    0.0000 C   0  0  0  0  0  0  0  0  0  0  0  0
    2.1434    8.6625    0.0000 C   0  0  0  0  0  0  0  0  0  0  0  0
    1.4289    7.4250    0.0000 C   0  0  0  0  0  0  0  0  0  0  0  0
    0.7145    8.6625    0.0000 C   0  0  0  0  0  0  0  0  0  0  0  0
    3.5724    8.6625    0.0000 C   0  0  0  0  0  0  0  0  0  0  0  0
    2.1434    6.1875    0.0000 C   0  0  0  0  0  0  0  0  0  0  0  0
    3.5724    4.5375    0.0000 C   0  0  0  0  0  0  0  0  0  0  0  0
    4.2868    3.3000    0.0000 C   0  0  0  0  0  0  0  0  0  0  0  0
    1.4289    8.2500    0.0000 C   0  0  0  0  0  0  0  0  0  0  0  0
    2.8579    8.2500    0.0000 C   0  0  0  0  0  0  0  0  0  0  0  0
    2.1434    7.0125    0.0000 C   0  0  0  0  0  0  0  0  0  0  0  0
    4.2868    5.7750    0.0000 C   0  0  1  0  0  0  0  0  0  0  0  0
    7.8592    7.0125    0.0000 C   0  0  0  0  0  0  0  0  0  0  0  0
    2.8579    7.4250    0.0000 C   0  0  0  0  0  0  0  0  0  0  0  0
    5.0013    2.8875    0.0000 C   0  0  0  0  0  0  0  0  0  0  0  0
    5.0013    5.3625    0.0000 C   0  0  0  0  0  0  0  0  0  0  0  0
    8.5737    9.0750    0.0000 N   0  0  0  0  0  0  0  0  0  0  0  0
    5.7158    3.3000    0.0000 N   0  0  0  0  0  0  0  0  0  0  0  0
    5.0013    2.0625    0.0000 N   0  0  0  0  0  0  0  0  0  0  0  0
    4.2868    6.6000    0.0000 N   0  0  0  0  0  0  0  0  0  0  0  0
    7.1447    6.6000    0.0000 N   0  0  0  0  0  0  0  0  0  0  0  0
    5.7158    5.7750    0.0000 N   0  0  0  0  0  0  0  0  0  0  0  0
    8.5737    6.6000    0.0000 O   0  0  0  0  0  0  0  0  0  0  0  0
    5.0013    4.5375    0.0000 O   0  0  0  0  0  0  0  0  0  0  0  0
    3.1599    6.2980    0.0000 O   0  0  0  0  0  0  0  0  0  0  0  0
    3.9849    7.7270    0.0000 O   0  0  0  0  0  0  0  0  0  0  0  0
    3.5724    7.0125    0.0000 S   0  0  0  0  0  0  0  0  0  0  0  0
    4.2868    4.9500    0.0000 H   0  0  0  0  0  0  0  0  0  0  0  0
  8  7  2  0  0  0  0
  9  7  1  0  0  0  0
 11 10  1  0  0  0  0
 14 12  1  0  0  0  0
 15 13  1  0  0  0  0
 20  1  1  0  0  0  0
 20  2  1  0  0  0  0
 21  3  1  0  0  0  0
 21  4  1  0  0  0  0
 22  5  1  0  0  0  0
 22  6  1  0  0  0  0
 23  8  1  0  0  0  0
 23 16  2  0  0  0  0
 23 17  1  0  0  0  0
 24  9  2  0  0  0  0
 24 16  1  0  0  0  0
 25 18  2  0  0  0  0
 25 19  1  0  0  0  0
 25 20  1  0  0  0  0
 26 18  1  0  0  0  0
 26 21  1  0  0  0  0
 27 19  2  0  0  0  0
 27 22  1  0  0  0  0
 28 17  1  0  0  0  0
 29 10  1  0  0  0  0
 30 26  2  0  0  0  0
 30 27  1  0  0  0  0
 31 24  1  0  0  0  0
 32 28  1  0  0  0  0
 33 11  1  0  0  0  0
 34 31  2  0  0  0  0
 35 31  1  0  0  0  0
 28 36  1  1  0  0  0
 37 12  1  0  0  0  0
 37 13  1  0  0  0  0
 37 29  1  0  0  0  0
 38 14  1  0  0  0  0
 38 15  1  0  0  0  0
 38 32  1  0  0  0  0
 39 29  2  0  0  0  0
 40 32  2  0  0  0  0
 43 30  1  0  0  0  0
 43 36  1  0  0  0  0
 43 41  2  0  0  0  0
 43 42  2  0  0  0  0
 28 44  1  1  0  0  0
M  END
> <DATABASE_ID>
DB04172

> <DATABASE_NAME>
drugbank

> <SMILES>
[H][C@@](CC1=CC(=CC=C1)C(N)=N)(NS(=O)(=O)C1=C(C=C(C=C1C(C)C)C(C)C)C(C)C)C(=O)N1CCN(CC1)C(=O)CCN

> <INCHI_IDENTIFIER>
InChI=1S/C32H48N6O4S/c1-20(2)25-18-26(21(3)4)30(27(19-25)22(5)6)43(41,42)36-28(17-23-8-7-9-24(16-23)31(34)35)32(40)38-14-12-37(13-15-38)29(39)10-11-33/h7-9,16,18-22,28,36H,10-15,17,33H2,1-6H3,(H3,34,35)/t28-/m0/s1

> <INCHI_KEY>
WATXEHGLYJKXOF-NDEPHWFRSA-N

> <FORMULA>
C32H48N6O4S

> <MOLECULAR_WEIGHT>
612.826

> <EXACT_MASS>
612.345774744

> <JCHEM_ACCEPTOR_COUNT>
7

> <JCHEM_ATOM_COUNT>
91

> <JCHEM_AVERAGE_NEUTRAL_MICROSPECIES_CHARGE>
1.9919487798490287

> <JCHEM_AVERAGE_POLARIZABILITY>
68.11869728695405

> <JCHEM_BIOAVAILABILITY>
0

> <JCHEM_DONOR_COUNT>
4

> <JCHEM_FORMAL_CHARGE>
0

> <JCHEM_GHOSE_FILTER>
0

> <JCHEM_IUPAC>
3-[(2S)-3-[4-(3-aminopropanoyl)piperazin-1-yl]-3-oxo-2-[2,4,6-tris(propan-2-yl)benzenesulfonamido]propyl]benzene-1-carboximidamide

> <ALOGPS_LOGP>
2.15

> <JCHEM_LOGP>
2.7717281325716563

> <ALOGPS_LOGS>
-4.85

> <JCHEM_MDDR_LIKE_RULE>
1

> <JCHEM_NEUTRAL_CHARGE>
2

> <JCHEM_NUMBER_OF_RINGS>
3

> <JCHEM_PHYSIOLOGICAL_CHARGE>
2

> <JCHEM_PKA>
15.529635636016831

> <JCHEM_PKA_STRONGEST_ACIDIC>
10.563455561731342

> <JCHEM_PKA_STRONGEST_BASIC>
11.5148370462669

> <JCHEM_POLAR_SURFACE_AREA>
162.67999999999998

> <JCHEM_REFRACTIVITY>
182.55100000000002

> <JCHEM_ROTATABLE_BOND_COUNT>
11

> <JCHEM_RULE_OF_FIVE>
0

> <ALOGPS_SOLUBILITY>
8.71e-03 g/l

> <JCHEM_TRADITIONAL_IUPAC>
tetrahydrofolic acid

> <JCHEM_VEBER_RULE>
0

> <DRUGBANK_ID>
DB04172

> <SECONDARY_ACCESSION_NUMBERS>
EXPT03181

> <DRUG_GROUPS>
experimental

> <GENERIC_NAME>
[2,4,6-Triisopropyl-Phenylsulfonyl-L-[3-Amidino-Phenylalanine]]-Piperazine-N'-Beta-Alanine

$$$$
