
  Mrv1909 05201915232D          

 36 41  0  0  1  0            999 V2000
   -1.2654    4.6668    0.0000 O   0  0  0  0  0  0  0  0  0  0  0  0
   -0.5510    4.2543    0.0000 C   0  0  0  0  0  0  0  0  0  0  0  0
    0.1635    4.6668    0.0000 O   0  0  0  0  0  0  0  0  0  0  0  0
   -0.5510    3.4293    0.0000 C   0  0  0  0  0  0  0  0  0  0  0  0
    0.1635    3.0168    0.0000 C   0  0  0  0  0  0  0  0  0  0  0  0
    0.1635    2.1918    0.0000 C   0  0  0  0  0  0  0  0  0  0  0  0
   -0.5510    1.7793    0.0000 C   0  0  0  0  0  0  0  0  0  0  0  0
   -0.5510    0.9543    0.0000 C   0  0  0  0  0  0  0  0  0  0  0  0
    0.1635    0.5418    0.0000 N   0  0  0  0  0  0  0  0  0  0  0  0
    0.1635   -0.2832    0.0000 C   0  0  0  0  0  0  0  0  0  0  0  0
    0.8780   -0.6957    0.0000 C   0  0  2  0  0  0  0  0  0  0  0  0
    0.6717    0.1293    0.0000 C   0  0  0  0  0  0  0  0  0  0  0  0
    0.8780    0.9543    0.0000 C   0  0  1  0  0  0  0  0  0  0  0  0
    1.5925    0.5418    0.0000 C   0  0  0  0  0  0  0  0  0  0  0  0
    1.5925   -0.2832    0.0000 N   0  0  0  0  0  0  0  0  0  0  0  0
    2.3069   -0.6957    0.0000 C   0  0  0  0  0  0  0  0  0  0  0  0
    2.3069   -1.5207    0.0000 C   0  0  0  0  0  0  0  0  0  0  0  0
    3.0214   -1.9332    0.0000 C   0  0  0  0  0  0  0  0  0  0  0  0
    3.0214   -2.7582    0.0000 C   0  0  0  0  0  0  0  0  0  0  0  0
    2.3069   -3.1707    0.0000 C   0  0  0  0  0  0  0  0  0  0  0  0
    2.3069   -3.9957    0.0000 O   0  0  0  0  0  0  0  0  0  0  0  0
    1.5925   -4.4082    0.0000 C   0  0  0  0  0  0  0  0  0  0  0  0
    1.5925   -5.2332    0.0000 C   0  0  0  0  0  0  0  0  0  0  0  0
    0.8780   -5.6457    0.0000 C   0  0  0  0  0  0  0  0  0  0  0  0
    0.1635   -5.2332    0.0000 C   0  0  0  0  0  0  0  0  0  0  0  0
    0.1635   -4.4082    0.0000 C   0  0  0  0  0  0  0  0  0  0  0  0
    0.8780   -3.9957    0.0000 C   0  0  0  0  0  0  0  0  0  0  0  0
   -0.5510   -5.6457    0.0000 C   0  0  0  0  0  0  0  0  0  0  0  0
   -0.6372   -6.4662    0.0000 N   0  0  0  0  0  0  0  0  0  0  0  0
   -1.4442   -6.6377    0.0000 C   0  0  0  0  0  0  0  0  0  0  0  0
   -1.8567   -5.9233    0.0000 C   0  0  0  0  0  0  0  0  0  0  0  0
   -1.3046   -5.3102    0.0000 O   0  0  0  0  0  0  0  0  0  0  0  0
    1.5925   -2.7582    0.0000 C   0  0  0  0  0  0  0  0  0  0  0  0
    1.5925   -1.9332    0.0000 C   0  0  0  0  0  0  0  0  0  0  0  0
   -1.2654    2.1918    0.0000 C   0  0  0  0  0  0  0  0  0  0  0  0
   -1.2654    3.0168    0.0000 C   0  0  0  0  0  0  0  0  0  0  0  0
  1  2  1  0  0  0  0
  2  3  2  0  0  0  0
  2  4  1  0  0  0  0
  4  5  2  0  0  0  0
  5  6  1  0  0  0  0
  6  7  2  0  0  0  0
  7  8  1  0  0  0  0
  8  9  1  0  0  0  0
  9 10  1  0  0  0  0
 11 10  1  0  0  0  0
 11 12  1  1  0  0  0
 13 12  1  1  0  0  0
 13  9  1  0  0  0  0
 13 14  1  0  0  0  0
 14 15  1  0  0  0  0
 11 15  1  0  0  0  0
 15 16  1  0  0  0  0
 16 17  1  0  0  0  0
 17 18  2  0  0  0  0
 18 19  1  0  0  0  0
 19 20  2  0  0  0  0
 20 21  1  0  0  0  0
 21 22  1  0  0  0  0
 22 23  2  0  0  0  0
 23 24  1  0  0  0  0
 24 25  2  0  0  0  0
 25 26  1  0  0  0  0
 26 27  2  0  0  0  0
 22 27  1  0  0  0  0
 25 28  1  0  0  0  0
 28 29  2  0  0  0  0
 29 30  1  0  0  0  0
 30 31  2  0  0  0  0
 31 32  1  0  0  0  0
 28 32  1  0  0  0  0
 20 33  1  0  0  0  0
 33 34  2  0  0  0  0
 17 34  1  0  0  0  0
  7 35  1  0  0  0  0
 35 36  2  0  0  0  0
  4 36  1  0  0  0  0
M  END
> <DATABASE_ID>
DB15385

> <DATABASE_NAME>
drugbank

> <SMILES>
OC(=O)C1=CC=C(CN2C[C@@H]3C[C@H]2CN3CC2=CC=C(OC3=CC=C(C=C3)C3=NC=CO3)C=C2)C=C1

> <INCHI_IDENTIFIER>
InChI=1S/C29H27N3O4/c33-29(34)23-5-1-20(2-6-23)16-31-18-25-15-24(31)19-32(25)17-21-3-9-26(10-4-21)36-27-11-7-22(8-12-27)28-30-13-14-35-28/h1-14,24-25H,15-19H2,(H,33,34)/t24-,25-/m0/s1

> <INCHI_KEY>
GERJIEKMNDGSCS-DQEYMECFSA-N

> <FORMULA>
C29H27N3O4

> <MOLECULAR_WEIGHT>
481.552

> <EXACT_MASS>
481.200156361

> <JCHEM_ACCEPTOR_COUNT>
5

> <JCHEM_ATOM_COUNT>
63

> <JCHEM_AVERAGE_POLARIZABILITY>
51.78156481867185

> <JCHEM_BIOAVAILABILITY>
1

> <JCHEM_DONOR_COUNT>
1

> <JCHEM_FORMAL_CHARGE>
0

> <JCHEM_GHOSE_FILTER>
0

> <JCHEM_IUPAC>
4-{[(1S,4S)-5-({4-[4-(1,3-oxazol-2-yl)phenoxy]phenyl}methyl)-2,5-diazabicyclo[2.2.1]heptan-2-yl]methyl}benzoic acid

> <ALOGPS_LOGP>
4.29

> <JCHEM_LOGP>
1.9063799724652188

> <ALOGPS_LOGS>
-4.02

> <JCHEM_MDDR_LIKE_RULE>
1

> <JCHEM_NUMBER_OF_RINGS>
6

> <JCHEM_PHYSIOLOGICAL_CHARGE>
0

> <JCHEM_PKA_STRONGEST_ACIDIC>
3.7845889714788075

> <JCHEM_PKA_STRONGEST_BASIC>
8.039920068358997

> <JCHEM_POLAR_SURFACE_AREA>
79.04

> <JCHEM_REFRACTIVITY>
146.80819999999997

> <JCHEM_ROTATABLE_BOND_COUNT>
8

> <JCHEM_RULE_OF_FIVE>
1

> <ALOGPS_SOLUBILITY>
4.63e-02 g/l

> <JCHEM_TRADITIONAL_IUPAC>
(2R)-14-fluoro-2-methyl-6,9,10,19-tetraazapentacyclo[14.2.1.0^{2,6}.0^{8,18}.0^{12,17}]nonadeca-1(18),8,12(17),13,15-pentaen-11-one

> <JCHEM_VEBER_RULE>
0

> <DRUGBANK_ID>
DB15385

> <DRUG_GROUPS>
investigational

> <GENERIC_NAME>
Acebilustat

> <SYNONYMS>
Acebilustat

$$$$
