
  Mrv1909 05092101372D          

 88 87  0  0  1  0            999 V2000
   -5.0014   -0.2062    0.0000 C   0  0  0  0  0  0  0  0  0  0  0  0
   -4.2868    0.2062    0.0000 C   0  0  0  0  0  0  0  0  0  0  0  0
   -3.5724   -0.2062    0.0000 C   0  0  0  0  0  0  0  0  0  0  0  0
   -2.8579    0.2062    0.0000 S   0  0  0  0  0  0  0  0  0  0  0  0
   -2.1435   -0.2062    0.0000 C   0  0  0  0  0  0  0  0  0  0  0  0
   -1.4290    0.2062    0.0000 C   0  0  1  0  0  0  0  0  0  0  0  0
   -0.7145   -0.2062    0.0000 C   0  0  0  0  0  0  0  0  0  0  0  0
    0.0000    0.2062    0.0000 N   0  0  0  0  0  0  0  0  0  0  0  0
    0.7145   -0.2062    0.0000 C   0  0  2  0  0  0  0  0  0  0  0  0
    1.4290    0.2062    0.0000 C   0  0  0  0  0  0  0  0  0  0  0  0
    2.1435   -0.2062    0.0000 N   0  0  0  0  0  0  0  0  0  0  0  0
    2.8579    0.2062    0.0000 C   0  0  2  0  0  0  0  0  0  0  0  0
    3.5724   -0.2062    0.0000 C   0  0  0  0  0  0  0  0  0  0  0  0
    4.2869    0.2062    0.0000 N   0  0  0  0  0  0  0  0  0  0  0  0
    5.0014   -0.2062    0.0000 C   0  0  2  0  0  0  0  0  0  0  0  0
    5.7160    0.2062    0.0000 C   0  0  0  0  0  0  0  0  0  0  0  0
    6.4304   -0.2062    0.0000 N   0  0  0  0  0  0  0  0  0  0  0  0
    7.1450    0.2062    0.0000 C   0  0  2  0  0  0  0  0  0  0  0  0
    7.8595   -0.2062    0.0000 C   0  0  0  0  0  0  0  0  0  0  0  0
    8.5739    0.2062    0.0000 N   0  0  0  0  0  0  0  0  0  0  0  0
    9.2884   -0.2062    0.0000 C   0  0  2  0  0  0  0  0  0  0  0  0
   10.0029    0.2062    0.0000 C   0  0  0  0  0  0  0  0  0  0  0  0
   10.7174   -0.2062    0.0000 O   0  0  0  0  0  0  0  0  0  0  0  0
   -5.0014   -1.0312    0.0000 O   0  0  0  0  0  0  0  0  0  0  0  0
   -5.7159   -1.4437    0.0000 C   0  0  0  0  0  0  0  0  0  0  0  0
   -5.7159   -2.2688    0.0000 C   0  0  0  0  0  0  0  0  0  0  0  0
   -6.4304   -2.6813    0.0000 C   0  0  0  0  0  0  0  0  0  0  0  0
   -6.4304   -3.5063    0.0000 C   0  0  0  0  0  0  0  0  0  0  0  0
   -7.1449   -3.9188    0.0000 C   0  0  0  0  0  0  0  0  0  0  0  0
   -7.1449   -4.7439    0.0000 C   0  0  0  0  0  0  0  0  0  0  0  0
   -7.8595   -5.1564    0.0000 C   0  0  0  0  0  0  0  0  0  0  0  0
   -7.8595   -5.9814    0.0000 C   0  0  0  0  0  0  0  0  0  0  0  0
   -8.5739   -6.3939    0.0000 C   0  0  0  0  0  0  0  0  0  0  0  0
   -8.5739   -7.2189    0.0000 C   0  0  0  0  0  0  0  0  0  0  0  0
   -9.2884   -7.6315    0.0000 C   0  0  0  0  0  0  0  0  0  0  0  0
   -9.2884   -8.4565    0.0000 C   0  0  0  0  0  0  0  0  0  0  0  0
  -10.0029   -8.8690    0.0000 C   0  0  0  0  0  0  0  0  0  0  0  0
  -10.0029   -9.6940    0.0000 C   0  0  0  0  0  0  0  0  0  0  0  0
  -10.7174  -10.1065    0.0000 C   0  0  0  0  0  0  0  0  0  0  0  0
  -10.7174  -10.9316    0.0000 C   0  0  0  0  0  0  0  0  0  0  0  0
   -6.4304   -1.0312    0.0000 O   0  0  0  0  0  0  0  0  0  0  0  0
   -4.2868    1.0312    0.0000 O   0  0  0  0  0  0  0  0  0  0  0  0
   -3.5724    1.4439    0.0000 C   0  0  0  0  0  0  0  0  0  0  0  0
   -3.5724    2.2689    0.0000 C   0  0  0  0  0  0  0  0  0  0  0  0
   -2.8579    2.6813    0.0000 C   0  0  0  0  0  0  0  0  0  0  0  0
   -2.8579    3.5063    0.0000 C   0  0  0  0  0  0  0  0  0  0  0  0
   -2.1435    3.9189    0.0000 C   0  0  0  0  0  0  0  0  0  0  0  0
   -2.1435    4.7440    0.0000 C   0  0  0  0  0  0  0  0  0  0  0  0
   -1.4290    5.1564    0.0000 C   0  0  0  0  0  0  0  0  0  0  0  0
   -1.4290    5.9814    0.0000 C   0  0  0  0  0  0  0  0  0  0  0  0
   -0.7145    6.3940    0.0000 C   0  0  0  0  0  0  0  0  0  0  0  0
   -0.7145    7.2190    0.0000 C   0  0  0  0  0  0  0  0  0  0  0  0
    0.0000    7.6315    0.0000 C   0  0  0  0  0  0  0  0  0  0  0  0
    0.0000    8.4565    0.0000 C   0  0  0  0  0  0  0  0  0  0  0  0
    0.7145    8.8691    0.0000 C   0  0  0  0  0  0  0  0  0  0  0  0
    0.7145    9.6941    0.0000 C   0  0  0  0  0  0  0  0  0  0  0  0
    1.4290   10.1065    0.0000 C   0  0  0  0  0  0  0  0  0  0  0  0
    1.4290   10.9316    0.0000 C   0  0  0  0  0  0  0  0  0  0  0  0
   -2.8579    1.0312    0.0000 O   0  0  0  0  0  0  0  0  0  0  0  0
   -0.7145   -1.0312    0.0000 O   0  0  0  0  0  0  0  0  0  0  0  0
   -1.4290    1.0312    0.0000 N   0  0  0  0  0  0  0  0  0  0  0  0
    0.7145   -1.0312    0.0000 C   0  0  0  0  0  0  0  0  0  0  0  0
    1.4290   -1.4437    0.0000 O   0  0  0  0  0  0  0  0  0  0  0  0
    1.4290    1.0312    0.0000 O   0  0  0  0  0  0  0  0  0  0  0  0
    2.8579    1.0312    0.0000 C   0  0  0  0  0  0  0  0  0  0  0  0
    3.5724    1.4439    0.0000 C   0  0  0  0  0  0  0  0  0  0  0  0
    3.5724    2.2689    0.0000 C   0  0  0  0  0  0  0  0  0  0  0  0
    4.2869    2.6813    0.0000 C   0  0  0  0  0  0  0  0  0  0  0  0
    4.2869    3.5063    0.0000 N   0  0  0  0  0  0  0  0  0  0  0  0
    3.5724   -1.0312    0.0000 O   0  0  0  0  0  0  0  0  0  0  0  0
    5.0014   -1.0312    0.0000 C   0  0  0  0  0  0  0  0  0  0  0  0
    5.7160   -1.4437    0.0000 C   0  0  0  0  0  0  0  0  0  0  0  0
    5.7160   -2.2688    0.0000 C   0  0  0  0  0  0  0  0  0  0  0  0
    6.4304   -2.6813    0.0000 C   0  0  0  0  0  0  0  0  0  0  0  0
    6.4304   -3.5063    0.0000 N   0  0  0  0  0  0  0  0  0  0  0  0
    5.7160    1.0312    0.0000 O   0  0  0  0  0  0  0  0  0  0  0  0
    7.1450    1.0312    0.0000 C   0  0  0  0  0  0  0  0  0  0  0  0
    7.8595    1.4439    0.0000 C   0  0  0  0  0  0  0  0  0  0  0  0
    7.8595    2.2689    0.0000 C   0  0  0  0  0  0  0  0  0  0  0  0
    8.5739    2.6813    0.0000 C   0  0  0  0  0  0  0  0  0  0  0  0
    8.5739    3.5063    0.0000 N   0  0  0  0  0  0  0  0  0  0  0  0
    7.8595   -1.0312    0.0000 O   0  0  0  0  0  0  0  0  0  0  0  0
    9.2884   -1.0312    0.0000 C   0  0  0  0  0  0  0  0  0  0  0  0
   10.0029   -1.4437    0.0000 C   0  0  0  0  0  0  0  0  0  0  0  0
   10.0029   -2.2688    0.0000 C   0  0  0  0  0  0  0  0  0  0  0  0
   10.7174   -2.6813    0.0000 C   0  0  0  0  0  0  0  0  0  0  0  0
   10.7174   -3.5063    0.0000 N   0  0  0  0  0  0  0  0  0  0  0  0
   10.0029    1.0312    0.0000 O   0  0  0  0  0  0  0  0  0  0  0  0
  1  2  1  0  0  0  0
  2  3  1  0  0  0  0
  3  4  1  0  0  0  0
  4  5  1  0  0  0  0
  5  6  1  0  0  0  0
  6  7  1  0  0  0  0
  7  8  1  0  0  0  0
  8  9  1  0  0  0  0
  9 10  1  0  0  0  0
 10 11  1  0  0  0  0
 11 12  1  0  0  0  0
 12 13  1  0  0  0  0
 13 14  1  0  0  0  0
 14 15  1  0  0  0  0
 15 16  1  0  0  0  0
 16 17  1  0  0  0  0
 17 18  1  0  0  0  0
 18 19  1  0  0  0  0
 19 20  1  0  0  0  0
 20 21  1  0  0  0  0
 21 22  1  0  0  0  0
 22 23  1  0  0  0  0
  1 24  1  0  0  0  0
 24 25  1  0  0  0  0
 25 26  1  0  0  0  0
 26 27  1  0  0  0  0
 27 28  1  0  0  0  0
 28 29  1  0  0  0  0
 29 30  1  0  0  0  0
 30 31  1  0  0  0  0
 31 32  1  0  0  0  0
 32 33  1  0  0  0  0
 33 34  1  0  0  0  0
 34 35  1  0  0  0  0
 35 36  1  0  0  0  0
 36 37  1  0  0  0  0
 37 38  1  0  0  0  0
 38 39  1  0  0  0  0
 39 40  1  0  0  0  0
 25 41  2  0  0  0  0
  2 42  1  0  0  0  0
 42 43  1  0  0  0  0
 43 44  1  0  0  0  0
 44 45  1  0  0  0  0
 45 46  1  0  0  0  0
 46 47  1  0  0  0  0
 47 48  1  0  0  0  0
 48 49  1  0  0  0  0
 49 50  1  0  0  0  0
 50 51  1  0  0  0  0
 51 52  1  0  0  0  0
 52 53  1  0  0  0  0
 53 54  1  0  0  0  0
 54 55  1  0  0  0  0
 55 56  1  0  0  0  0
 56 57  1  0  0  0  0
 57 58  1  0  0  0  0
 43 59  2  0  0  0  0
  7 60  2  0  0  0  0
  6 61  1  6  0  0  0
  9 62  1  6  0  0  0
 62 63  1  0  0  0  0
 10 64  2  0  0  0  0
 12 65  1  1  0  0  0
 65 66  1  0  0  0  0
 66 67  1  0  0  0  0
 67 68  1  0  0  0  0
 68 69  1  0  0  0  0
 13 70  2  0  0  0  0
 15 71  1  6  0  0  0
 71 72  1  0  0  0  0
 72 73  1  0  0  0  0
 73 74  1  0  0  0  0
 74 75  1  0  0  0  0
 16 76  2  0  0  0  0
 18 77  1  1  0  0  0
 77 78  1  0  0  0  0
 78 79  1  0  0  0  0
 79 80  1  0  0  0  0
 80 81  1  0  0  0  0
 19 82  2  0  0  0  0
 21 83  1  6  0  0  0
 83 84  1  0  0  0  0
 84 85  1  0  0  0  0
 85 86  1  0  0  0  0
 86 87  1  0  0  0  0
 22 88  2  0  0  0  0
M  END
> <DATABASE_ID>
DB16474

> <DATABASE_NAME>
drugbank

> <SMILES>
CCCCCCCCCCCCCCCC(=O)OCC(CSC[C@H](N)C(=O)N[C@@H](CO)C(=O)N[C@@H](CCCCN)C(=O)N[C@@H](CCCCN)C(=O)N[C@@H](CCCCN)C(=O)N[C@@H](CCCCN)C(O)=O)OC(=O)CCCCCCCCCCCCCCC

> <INCHI_IDENTIFIER>
InChI=1S/C65H126N10O12S/c1-3-5-7-9-11-13-15-17-19-21-23-25-27-41-58(77)86-48-51(87-59(78)42-28-26-24-22-20-18-16-14-12-10-8-6-4-2)49-88-50-52(70)60(79)75-57(47-76)64(83)73-54(38-30-34-44-67)62(81)71-53(37-29-33-43-66)61(80)72-55(39-31-35-45-68)63(82)74-56(65(84)85)40-32-36-46-69/h51-57,76H,3-50,66-70H2,1-2H3,(H,71,81)(H,72,80)(H,73,83)(H,74,82)(H,75,79)(H,84,85)/t51?,52-,53-,54-,55-,56-,57-/m0/s1

> <INCHI_KEY>
LJUIOEFZFQRWJG-KKIBDXJDSA-N

> <FORMULA>
C65H126N10O12S

> <MOLECULAR_WEIGHT>
1271.84

> <EXACT_MASS>
1270.927740711

> <JCHEM_ACCEPTOR_COUNT>
15

> <JCHEM_ATOM_COUNT>
214

> <JCHEM_AVERAGE_NEUTRAL_MICROSPECIES_CHARGE>
5.001810752143308

> <JCHEM_AVERAGE_POLARIZABILITY>
151.15523172140752

> <JCHEM_BIOAVAILABILITY>
0

> <JCHEM_DONOR_COUNT>
12

> <JCHEM_FORMAL_CHARGE>
0

> <JCHEM_GHOSE_FILTER>
0

> <JCHEM_IUPAC>
(2S)-6-amino-2-[(2S)-6-amino-2-[(2S)-6-amino-2-[(2S)-6-amino-2-[(2S)-2-[(2R)-2-amino-3-{[2,3-bis(hexadecanoyloxy)propyl]sulfanyl}propanamido]-3-hydroxypropanamido]hexanamido]hexanamido]hexanamido]hexanoic acid

> <ALOGPS_LOGP>
1.46

> <JCHEM_LOGP>
5.1131046542122025

> <ALOGPS_LOGS>
-5.94

> <JCHEM_MDDR_LIKE_RULE>
0

> <JCHEM_NEUTRAL_CHARGE>
4

> <JCHEM_NUMBER_OF_RINGS>
0

> <JCHEM_PHYSIOLOGICAL_CHARGE>
4

> <JCHEM_PKA>
11.775366731476383

> <JCHEM_PKA_STRONGEST_ACIDIC>
3.591491391874993

> <JCHEM_PKA_STRONGEST_BASIC>
10.776760104051483

> <JCHEM_POLAR_SURFACE_AREA>
385.72999999999996

> <JCHEM_REFRACTIVITY>
349.7949000000001

> <JCHEM_ROTATABLE_BOND_COUNT>
65

> <JCHEM_RULE_OF_FIVE>
0

> <ALOGPS_SOLUBILITY>
1.45e-03 g/l

> <JCHEM_TRADITIONAL_IUPAC>
Pam2CSK4

> <JCHEM_VEBER_RULE>
0

> <DRUGBANK_ID>
DB16474

> <DRUG_GROUPS>
investigational

> <GENERIC_NAME>
Pam2csk4

> <SYNONYMS>
Pam2; Pam2CSK4; Pam2CSK4 acetate

$$$$
