
  Mrv1718006281811392D          

119112  0  0  0  0            999 V2000
  -25.5597    1.8562    0.0000 C   0  0  0  0  0  0  0  0  0  0  0  0
  -24.8452    1.4437    0.0000 C   0  0  0  0  0  0  0  0  0  0  0  0
  -24.1307    1.8562    0.0000 C   0  0  0  0  0  0  0  0  0  0  0  0
  -23.4163    1.4437    0.0000 C   0  0  0  0  0  0  0  0  0  0  0  0
  -22.7018    1.8562    0.0000 C   0  0  0  0  0  0  0  0  0  0  0  0
  -21.9873    1.4437    0.0000 C   0  0  0  0  0  0  0  0  0  0  0  0
  -21.2728    1.8562    0.0000 C   0  0  0  0  0  0  0  0  0  0  0  0
  -20.5584    1.4437    0.0000 C   0  0  0  0  0  0  0  0  0  0  0  0
  -19.8439    1.8562    0.0000 C   0  0  0  0  0  0  0  0  0  0  0  0
  -19.1294    1.4437    0.0000 C   0  0  0  0  0  0  0  0  0  0  0  0
  -18.4150    1.8562    0.0000 C   0  0  0  0  0  0  0  0  0  0  0  0
  -17.7005    1.4437    0.0000 C   0  0  0  0  0  0  0  0  0  0  0  0
  -16.9860    1.8562    0.0000 C   0  0  0  0  0  0  0  0  0  0  0  0
  -16.2715    1.4437    0.0000 C   0  0  0  0  0  0  0  0  0  0  0  0
  -15.5571    1.8562    0.0000 C   0  0  0  0  0  0  0  0  0  0  0  0
  -14.8426    1.4437    0.0000 C   0  0  0  0  0  0  0  0  0  0  0  0
  -14.1281    1.8562    0.0000 C   0  0  0  0  0  0  0  0  0  0  0  0
  -10.5558    1.4437    0.0000 C   0  0  0  0  0  0  0  0  0  0  0  0
  -11.9847    1.4437    0.0000 C   0  0  0  0  0  0  0  0  0  0  0  0
  -11.2702    1.8562    0.0000 C   0  0  2  0  0  0  0  0  0  0  0  0
  -13.4137    1.4437    0.0000 C   0  0  0  0  0  0  0  0  0  0  0  0
   -9.8413    1.8562    0.0000 O   0  0  0  0  0  0  0  0  0  0  0  0
  -11.2702    2.6812    0.0000 O   0  0  0  0  0  0  0  0  0  0  0  0
  -13.4137    0.6187    0.0000 O   0  0  0  0  0  0  0  0  0  0  0  0
  -12.6992    1.8562    0.0000 O   0  0  0  0  0  0  0  0  0  0  0  0
  -25.4089   -1.7287    0.0000 C   0  0  0  0  0  0  0  0  0  0  0  0
  -24.6945   -2.1412    0.0000 C   0  0  0  0  0  0  0  0  0  0  0  0
  -23.9800   -1.7287    0.0000 C   0  0  0  0  0  0  0  0  0  0  0  0
  -23.2655   -2.1412    0.0000 C   0  0  0  0  0  0  0  0  0  0  0  0
  -22.5511   -1.7287    0.0000 C   0  0  0  0  0  0  0  0  0  0  0  0
  -21.8366   -2.1412    0.0000 C   0  0  0  0  0  0  0  0  0  0  0  0
  -21.1221   -1.7287    0.0000 C   0  0  0  0  0  0  0  0  0  0  0  0
  -20.4077   -2.1412    0.0000 C   0  0  0  0  0  0  0  0  0  0  0  0
  -19.6932   -1.7287    0.0000 C   0  0  0  0  0  0  0  0  0  0  0  0
  -18.9787   -2.1412    0.0000 C   0  0  0  0  0  0  0  0  0  0  0  0
  -18.2642   -1.7287    0.0000 C   0  0  0  0  0  0  0  0  0  0  0  0
  -17.5498   -2.1412    0.0000 C   0  0  0  0  0  0  0  0  0  0  0  0
  -16.8353   -1.7287    0.0000 C   0  0  0  0  0  0  0  0  0  0  0  0
  -16.1208   -2.1412    0.0000 C   0  0  0  0  0  0  0  0  0  0  0  0
  -15.4064   -1.7287    0.0000 C   0  0  0  0  0  0  0  0  0  0  0  0
  -14.6919   -2.1412    0.0000 C   0  0  0  0  0  0  0  0  0  0  0  0
  -13.9774   -1.7287    0.0000 C   0  0  0  0  0  0  0  0  0  0  0  0
  -10.4051   -2.1412    0.0000 C   0  0  0  0  0  0  0  0  0  0  0  0
  -11.8340   -2.1412    0.0000 C   0  0  0  0  0  0  0  0  0  0  0  0
  -11.1195   -1.7287    0.0000 C   0  0  1  0  0  0  0  0  0  0  0  0
  -13.2629   -2.1412    0.0000 C   0  0  0  0  0  0  0  0  0  0  0  0
   -9.6906   -1.7287    0.0000 O   0  0  0  0  0  0  0  0  0  0  0  0
  -11.1195   -0.9037    0.0000 O   0  0  0  0  0  0  0  0  0  0  0  0
  -13.2629   -2.9662    0.0000 O   0  0  0  0  0  0  0  0  0  0  0  0
  -12.5485   -1.7287    0.0000 O   0  0  0  0  0  0  0  0  0  0  0  0
  -25.4782   -7.0520    0.0000 C   0  0  0  0  0  0  0  0  0  0  0  0
  -24.7650   -6.6372    0.0000 C   0  0  0  0  0  0  0  0  0  0  0  0
  -24.0493   -7.0474    0.0000 C   0  0  0  0  0  0  0  0  0  0  0  0
  -23.3361   -6.6326    0.0000 C   0  0  0  0  0  0  0  0  0  0  0  0
  -22.6203   -7.0429    0.0000 C   0  0  0  0  0  0  0  0  0  0  0  0
  -21.9072   -6.6281    0.0000 C   0  0  0  0  0  0  0  0  0  0  0  0
  -21.1914   -7.0383    0.0000 C   0  0  0  0  0  0  0  0  0  0  0  0
  -20.4782   -6.6235    0.0000 C   0  0  0  0  0  0  0  0  0  0  0  0
  -19.7624   -7.0338    0.0000 C   0  0  0  0  0  0  0  0  0  0  0  0
  -19.0493   -6.6190    0.0000 C   0  0  0  0  0  0  0  0  0  0  0  0
  -18.3335   -7.0292    0.0000 C   0  0  0  0  0  0  0  0  0  0  0  0
  -17.6204   -6.6144    0.0000 C   0  0  0  0  0  0  0  0  0  0  0  0
  -16.9046   -7.0247    0.0000 C   0  0  0  0  0  0  0  0  0  0  0  0
  -16.1914   -6.6099    0.0000 C   0  0  0  0  0  0  0  0  0  0  0  0
  -15.4756   -7.0201    0.0000 C   0  0  0  0  0  0  0  0  0  0  0  0
  -14.7625   -6.6053    0.0000 C   0  0  0  0  0  0  0  0  0  0  0  0
  -14.0467   -7.0156    0.0000 C   0  0  0  0  0  0  0  0  0  0  0  0
  -11.1888   -7.0065    0.0000 C   0  0  0  0  0  0  0  0  0  0  0  0
  -11.9072   -5.7712    0.0000 C   0  0  0  0  0  0  0  0  0  0  0  0
  -11.9046   -6.5962    0.0000 C   0  0  0  0  0  0  0  0  0  0  0  0
  -13.3336   -6.6008    0.0000 C   0  0  0  0  0  0  0  0  0  0  0  0
  -10.4757   -6.5917    0.0000 O   0  0  0  0  0  0  0  0  0  0  0  0
  -11.1941   -5.3565    0.0000 O   0  0  0  0  0  0  0  0  0  0  0  0
  -13.3362   -5.7758    0.0000 O   0  0  0  0  0  0  0  0  0  0  0  0
  -12.6178   -7.0110    0.0000 O   0  0  0  0  0  0  0  0  0  0  0  0
  -25.9099  -13.2132    0.0000 C   0  0  0  0  0  0  0  0  0  0  0  0
  -25.1954  -13.6257    0.0000 C   0  0  0  0  0  0  0  0  0  0  0  0
  -24.4810  -13.2132    0.0000 C   0  0  0  0  0  0  0  0  0  0  0  0
  -23.7665  -13.6257    0.0000 C   0  0  0  0  0  0  0  0  0  0  0  0
  -23.0520  -13.2132    0.0000 C   0  0  0  0  0  0  0  0  0  0  0  0
  -22.3376  -13.6257    0.0000 C   0  0  0  0  0  0  0  0  0  0  0  0
  -21.6231  -13.2132    0.0000 C   0  0  0  0  0  0  0  0  0  0  0  0
  -20.9086  -13.6257    0.0000 C   0  0  0  0  0  0  0  0  0  0  0  0
  -20.1941  -13.2132    0.0000 C   0  0  0  0  0  0  0  0  0  0  0  0
  -19.4797  -13.6257    0.0000 C   0  0  0  0  0  0  0  0  0  0  0  0
  -18.7652  -13.2132    0.0000 C   0  0  0  0  0  0  0  0  0  0  0  0
  -18.0507  -13.6257    0.0000 C   0  0  0  0  0  0  0  0  0  0  0  0
  -17.3363  -13.2132    0.0000 C   0  0  0  0  0  0  0  0  0  0  0  0
  -16.6218  -13.6257    0.0000 C   0  0  0  0  0  0  0  0  0  0  0  0
  -15.9073  -13.2132    0.0000 C   0  0  0  0  0  0  0  0  0  0  0  0
  -15.1929  -13.6257    0.0000 C   0  0  0  0  0  0  0  0  0  0  0  0
  -14.4784  -13.2132    0.0000 C   0  0  0  0  0  0  0  0  0  0  0  0
  -13.7639  -13.6257    0.0000 C   0  0  0  0  0  0  0  0  0  0  0  0
  -13.7639  -14.4507    0.0000 O   0  0  0  0  0  0  0  0  0  0  0  0
  -13.0494  -13.2132    0.0000 O   0  5  0  0  0  0  0  0  0  0  0  0
  -25.6705   -9.6959    0.0000 C   0  0  0  0  0  0  0  0  0  0  0  0
  -24.9560  -10.1084    0.0000 C   0  0  0  0  0  0  0  0  0  0  0  0
  -24.2415   -9.6959    0.0000 C   0  0  0  0  0  0  0  0  0  0  0  0
  -23.5271  -10.1084    0.0000 C   0  0  0  0  0  0  0  0  0  0  0  0
  -22.8126   -9.6959    0.0000 C   0  0  0  0  0  0  0  0  0  0  0  0
  -22.0981  -10.1084    0.0000 C   0  0  0  0  0  0  0  0  0  0  0  0
  -21.3836   -9.6959    0.0000 C   0  0  0  0  0  0  0  0  0  0  0  0
  -20.6692  -10.1084    0.0000 C   0  0  0  0  0  0  0  0  0  0  0  0
  -19.9547   -9.6959    0.0000 C   0  0  0  0  0  0  0  0  0  0  0  0
  -19.2402  -10.1084    0.0000 C   0  0  0  0  0  0  0  0  0  0  0  0
  -18.5258   -9.6959    0.0000 C   0  0  0  0  0  0  0  0  0  0  0  0
  -17.8113  -10.1084    0.0000 C   0  0  0  0  0  0  0  0  0  0  0  0
  -17.0968   -9.6959    0.0000 C   0  0  0  0  0  0  0  0  0  0  0  0
  -16.3823  -10.1084    0.0000 C   0  0  0  0  0  0  0  0  0  0  0  0
  -15.6679   -9.6959    0.0000 C   0  0  0  0  0  0  0  0  0  0  0  0
  -14.9534  -10.1084    0.0000 C   0  0  0  0  0  0  0  0  0  0  0  0
  -14.2389   -9.6959    0.0000 C   0  0  0  0  0  0  0  0  0  0  0  0
  -13.5245  -10.1084    0.0000 C   0  0  0  0  0  0  0  0  0  0  0  0
  -13.5245  -10.9334    0.0000 O   0  0  0  0  0  0  0  0  0  0  0  0
  -12.8100   -9.6959    0.0000 O   0  5  0  0  0  0  0  0  0  0  0  0
  -11.3204  -10.0951    0.0000 K   0  3  0  0  0  0  0  0  0  0  0  0
  -11.2162  -13.5447    0.0000 Na  0  3  0  0  0  0  0  0  0  0  0  0
  -11.2702    1.0312    0.0000 H   0  0  0  0  0  0  0  0  0  0  0  0
  -11.1195   -2.5537    0.0000 H   0  0  0  0  0  0  0  0  0  0  0  0
  2  1  1  0  0  0  0
  3  2  1  0  0  0  0
  4  3  1  0  0  0  0
  5  4  1  0  0  0  0
  6  5  1  0  0  0  0
  7  6  1  0  0  0  0
  8  7  1  0  0  0  0
  9  8  1  0  0  0  0
 10  9  1  0  0  0  0
 11 10  1  0  0  0  0
 12 11  1  0  0  0  0
 13 12  1  0  0  0  0
 14 13  1  0  0  0  0
 15 14  1  0  0  0  0
 16 15  1  0  0  0  0
 17 16  1  0  0  0  0
 20 18  1  0  0  0  0
 20 19  1  0  0  0  0
 21 17  1  0  0  0  0
 22 18  1  0  0  0  0
 20 23  1  0  0  0  0
 24 21  2  0  0  0  0
 25 19  1  0  0  0  0
 25 21  1  0  0  0  0
 27 26  1  0  0  0  0
 28 27  1  0  0  0  0
 29 28  1  0  0  0  0
 30 29  1  0  0  0  0
 31 30  1  0  0  0  0
 32 31  1  0  0  0  0
 33 32  1  0  0  0  0
 34 33  1  0  0  0  0
 35 34  1  0  0  0  0
 36 35  1  0  0  0  0
 37 36  1  0  0  0  0
 38 37  1  0  0  0  0
 39 38  1  0  0  0  0
 40 39  1  0  0  0  0
 41 40  1  0  0  0  0
 42 41  1  0  0  0  0
 45 43  1  0  0  0  0
 45 44  1  0  0  0  0
 46 42  1  0  0  0  0
 47 43  1  0  0  0  0
 45 48  1  0  0  0  0
 49 46  2  0  0  0  0
 50 44  1  0  0  0  0
 50 46  1  0  0  0  0
 52 51  1  0  0  0  0
 53 52  1  0  0  0  0
 54 53  1  0  0  0  0
 55 54  1  0  0  0  0
 56 55  1  0  0  0  0
 57 56  1  0  0  0  0
 58 57  1  0  0  0  0
 59 58  1  0  0  0  0
 60 59  1  0  0  0  0
 61 60  1  0  0  0  0
 62 61  1  0  0  0  0
 63 62  1  0  0  0  0
 64 63  1  0  0  0  0
 65 64  1  0  0  0  0
 66 65  1  0  0  0  0
 67 66  1  0  0  0  0
 70 68  1  0  0  0  0
 70 69  1  0  0  0  0
 71 67  1  0  0  0  0
 72 68  1  0  0  0  0
 73 69  1  0  0  0  0
 74 71  2  0  0  0  0
 75 70  1  0  0  0  0
 75 71  1  0  0  0  0
 77 76  1  0  0  0  0
 78 77  1  0  0  0  0
 79 78  1  0  0  0  0
 80 79  1  0  0  0  0
 81 80  1  0  0  0  0
 82 81  1  0  0  0  0
 83 82  1  0  0  0  0
 84 83  1  0  0  0  0
 85 84  1  0  0  0  0
 86 85  1  0  0  0  0
 87 86  1  0  0  0  0
 88 87  1  0  0  0  0
 89 88  1  0  0  0  0
 90 89  1  0  0  0  0
 91 90  1  0  0  0  0
 92 91  1  0  0  0  0
 93 92  1  0  0  0  0
 94 93  2  0  0  0  0
 95 93  1  0  0  0  0
 97 96  1  0  0  0  0
 98 97  1  0  0  0  0
 99 98  1  0  0  0  0
100 99  1  0  0  0  0
101100  1  0  0  0  0
102101  1  0  0  0  0
103102  1  0  0  0  0
104103  1  0  0  0  0
105104  1  0  0  0  0
106105  1  0  0  0  0
107106  1  0  0  0  0
108107  1  0  0  0  0
109108  1  0  0  0  0
110109  1  0  0  0  0
111110  1  0  0  0  0
112111  1  0  0  0  0
113112  1  0  0  0  0
114113  2  0  0  0  0
115113  1  0  0  0  0
 20118  1  1  0  0  0
 45119  1  6  0  0  0
M  CHG  4  95  -1 115  -1 116   1 117   1
M  END
> <DATABASE_ID>
DB14149

> <DATABASE_NAME>
drugbank

> <SMILES>
[Na+].[K+].CCCCCCCCCCCCCCCCCC([O-])=O.CCCCCCCCCCCCCCCCCC([O-])=O.CCCCCCCCCCCCCCCCCC(=O)OC(CO)CO.[H][C@](O)(CO)COC(=O)CCCCCCCCCCCCCCCCC.[H][C@@](O)(CO)COC(=O)CCCCCCCCCCCCCCCCC

> <INCHI_IDENTIFIER>
InChI=1S/3C21H42O4.2C18H36O2.K.Na/c2*1-2-3-4-5-6-7-8-9-10-11-12-13-14-15-16-17-21(24)25-19-20(23)18-22;1-2-3-4-5-6-7-8-9-10-11-12-13-14-15-16-17-21(24)25-20(18-22)19-23;2*1-2-3-4-5-6-7-8-9-10-11-12-13-14-15-16-17-18(19)20;;/h3*20,22-23H,2-19H2,1H3;2*2-17H2,1H3,(H,19,20);;/q;;;;;2*+1/p-2/t2*20-;;;;;/m10...../s1

> <INCHI_KEY>
JOMMDNSKWDWPIA-YJTCMNCISA-L

> <FORMULA>
C99H196KNaO16

> <MOLECULAR_WEIGHT>
1704.729

> <EXACT_MASS>
1703.405816

> <JCHEM_ACCEPTOR_COUNT>
3

> <JCHEM_ATOM_COUNT>
313

> <JCHEM_AVERAGE_POLARIZABILITY>
46.625830449300736

> <JCHEM_BIOAVAILABILITY>
0

> <JCHEM_DONOR_COUNT>
2

> <JCHEM_FORMAL_CHARGE>
0

> <JCHEM_GHOSE_FILTER>
0

> <JCHEM_IUPAC>
potassium sodium (2R)-2,3-dihydroxypropyl octadecanoate (2S)-2,3-dihydroxypropyl octadecanoate 1,3-dihydroxypropan-2-yl octadecanoate dioctadecanoate

> <ALOGPS_LOGP>
6.73

> <JCHEM_LOGP>
5.971177209666667

> <ALOGPS_LOGS>
-5.52

> <JCHEM_MDDR_LIKE_RULE>
0

> <JCHEM_NUMBER_OF_RINGS>
0

> <JCHEM_PHYSIOLOGICAL_CHARGE>
0

> <JCHEM_PKA>
15.561713304317518

> <JCHEM_PKA_STRONGEST_ACIDIC>
13.619245765321082

> <JCHEM_PKA_STRONGEST_BASIC>
-2.968684336972288

> <JCHEM_POLAR_SURFACE_AREA>
66.76

> <JCHEM_REFRACTIVITY>
103.30949999999999

> <JCHEM_ROTATABLE_BOND_COUNT>
92

> <JCHEM_RULE_OF_FIVE>
0

> <ALOGPS_SOLUBILITY>
1.08e-03 g/l

> <JCHEM_TRADITIONAL_IUPAC>
potassium sodium (2R)-2,3-dihydroxypropyl octadecanoate (2S)-2,3-dihydroxypropyl octadecanoate 1,3-dihydroxypropan-2-yl octadecanoate bis(n-octadecanoate)

> <JCHEM_VEBER_RULE>
0

> <DRUGBANK_ID>
DB14149

> <DRUG_GROUPS>
experimental

> <GENERIC_NAME>
Glyceryl stearate SE

> <SYNONYMS>
Glyceryl monostearate SE; Glyceryl monostearate self-emulsifying; Self-emulsifying glyceryl monostearate

> <PRODUCTS>
Fluidbase Aha 10

$$$$
