
  Mrv1652310211600032D          

 58 67  0  0  1  0            999 V2000
   17.8854    1.0775    0.0000 C   0  0  0  0  0  0  0  0  0  0  0  0
   17.2723    1.6296    0.0000 C   0  0  0  0  0  0  0  0  0  0  0  0
   17.3585    2.4501    0.0000 C   0  0  0  0  0  0  0  0  0  0  0  0
   16.6049    2.7856    0.0000 N   0  0  0  0  0  0  0  0  0  0  0  0
   16.0528    2.1725    0.0000 C   0  0  0  0  0  0  0  0  0  0  0  0
   16.4653    1.4580    0.0000 C   0  0  0  0  0  0  0  0  0  0  0  0
   16.0528    0.7436    0.0000 C   0  0  0  0  0  0  0  0  0  0  0  0
   15.2278    0.7436    0.0000 C   0  0  0  0  0  0  0  0  0  0  0  0
   14.8153    1.4580    0.0000 C   0  0  0  0  0  0  0  0  0  0  0  0
   15.2278    2.1725    0.0000 C   0  0  0  0  0  0  0  0  0  0  0  0
   14.8153    2.8870    0.0000 O   0  0  0  0  0  0  0  0  0  0  0  0
   14.9729   -0.0410    0.0000 N   0  0  0  0  0  0  0  0  0  0  0  0
   15.6403   -0.5260    0.0000 C   0  0  0  0  0  0  0  0  0  0  0  0
   16.3078   -0.0410    0.0000 C   0  0  1  0  0  0  0  0  0  0  0  0
   17.0924   -0.2960    0.0000 C   0  0  0  0  0  0  0  0  0  0  0  0
   17.7055    0.2561    0.0000 Cl  0  0  0  0  0  0  0  0  0  0  0  0
   14.1883   -0.2960    0.0000 C   0  0  0  0  0  0  0  0  0  0  0  0
   14.0167   -1.1030    0.0000 O   0  0  0  0  0  0  0  0  0  0  0  0
   13.5752    0.2561    0.0000 C   0  0  0  0  0  0  0  0  0  0  0  0
   12.7682    0.0845    0.0000 C   0  0  0  0  0  0  0  0  0  0  0  0
   12.3557    0.7990    0.0000 C   0  0  0  0  0  0  0  0  0  0  0  0
   11.5487    0.9705    0.0000 C   0  0  0  0  0  0  0  0  0  0  0  0
   11.2938    1.7551    0.0000 C   0  0  0  0  0  0  0  0  0  0  0  0
   11.8458    2.3682    0.0000 C   0  0  0  0  0  0  0  0  0  0  0  0
   12.6528    2.1967    0.0000 C   0  0  0  0  0  0  0  0  0  0  0  0
   12.9077    1.4121    0.0000 C   0  0  0  0  0  0  0  0  0  0  0  0
   13.6614    1.0765    0.0000 N   0  0  0  0  0  0  0  0  0  0  0  0
   10.4868    1.9267    0.0000 N   0  0  0  0  0  0  0  0  0  0  0  0
    9.9348    1.3136    0.0000 C   0  0  0  0  0  0  0  0  0  0  0  0
   10.1897    0.5290    0.0000 O   0  0  0  0  0  0  0  0  0  0  0  0
    9.1278    1.4851    0.0000 N   0  0  0  0  0  0  0  0  0  0  0  0
    8.5758    0.8720    0.0000 C   0  0  0  0  0  0  0  0  0  0  0  0
    8.8307    0.0874    0.0000 C   0  0  0  0  0  0  0  0  0  0  0  0
    8.2787   -0.5257    0.0000 C   0  0  0  0  0  0  0  0  0  0  0  0
    7.4717   -0.3542    0.0000 C   0  0  0  0  0  0  0  0  0  0  0  0
    7.2168    0.4304    0.0000 C   0  0  0  0  0  0  0  0  0  0  0  0
    7.7688    1.0435    0.0000 C   0  0  0  0  0  0  0  0  0  0  0  0
    6.3918    0.4304    0.0000 C   0  0  0  0  0  0  0  0  0  0  0  0
    6.1368   -0.3542    0.0000 C   0  0  0  0  0  0  0  0  0  0  0  0
    6.8043   -0.8391    0.0000 N   0  0  0  0  0  0  0  0  0  0  0  0
    5.3522   -0.6091    0.0000 C   0  0  0  0  0  0  0  0  0  0  0  0
    5.1807   -1.4161    0.0000 O   0  0  0  0  0  0  0  0  0  0  0  0
    4.7391   -0.0571    0.0000 N   0  0  0  0  0  0  0  0  0  0  0  0
    4.8253    0.7634    0.0000 C   0  0  0  0  0  0  0  0  0  0  0  0
    4.0717    1.0990    0.0000 C   0  0  2  0  0  0  0  0  0  0  0  0
    3.5196    0.4859    0.0000 C   0  0  0  0  0  0  0  0  0  0  0  0
    3.9321   -0.2286    0.0000 C   0  0  0  0  0  0  0  0  0  0  0  0
    3.5196   -0.9431    0.0000 C   0  0  0  0  0  0  0  0  0  0  0  0
    2.6946   -0.9431    0.0000 C   0  0  0  0  0  0  0  0  0  0  0  0
    2.2821   -0.2286    0.0000 C   0  0  0  0  0  0  0  0  0  0  0  0
    2.6946    0.4859    0.0000 C   0  0  0  0  0  0  0  0  0  0  0  0
    2.1426    1.0990    0.0000 C   0  0  0  0  0  0  0  0  0  0  0  0
    1.3889    0.7634    0.0000 C   0  0  0  0  0  0  0  0  0  0  0  0
    1.4752   -0.0571    0.0000 N   0  0  0  0  0  0  0  0  0  0  0  0
    2.3141    1.9059    0.0000 C   0  0  0  0  0  0  0  0  0  0  0  0
    2.2821   -1.6576    0.0000 O   0  0  0  0  0  0  0  0  0  0  0  0
    3.9001    1.9059    0.0000 C   0  0  0  0  0  0  0  0  0  0  0  0
    3.1155    2.1609    0.0000 Cl  0  0  0  0  0  0  0  0  0  0  0  0
  1  2  1  0  0  0  0
  2  3  2  0  0  0  0
  3  4  1  0  0  0  0
  4  5  1  0  0  0  0
  5  6  1  0  0  0  0
  2  6  1  0  0  0  0
  6  7  2  0  0  0  0
  7  8  1  0  0  0  0
  8  9  2  0  0  0  0
  9 10  1  0  0  0  0
  5 10  2  0  0  0  0
 10 11  1  0  0  0  0
  8 12  1  0  0  0  0
 12 13  1  0  0  0  0
 13 14  1  0  0  0  0
  7 14  1  0  0  0  0
 14 15  1  6  0  0  0
 15 16  1  0  0  0  0
 12 17  1  0  0  0  0
 17 18  2  0  0  0  0
 17 19  1  0  0  0  0
 19 20  2  0  0  0  0
 20 21  1  0  0  0  0
 21 22  2  0  0  0  0
 22 23  1  0  0  0  0
 23 24  2  0  0  0  0
 24 25  1  0  0  0  0
 25 26  2  0  0  0  0
 21 26  1  0  0  0  0
 26 27  1  0  0  0  0
 19 27  1  0  0  0  0
 23 28  1  0  0  0  0
 28 29  1  0  0  0  0
 29 30  2  0  0  0  0
 29 31  1  0  0  0  0
 31 32  1  0  0  0  0
 32 33  2  0  0  0  0
 33 34  1  0  0  0  0
 34 35  2  0  0  0  0
 35 36  1  0  0  0  0
 36 37  2  0  0  0  0
 32 37  1  0  0  0  0
 36 38  1  0  0  0  0
 38 39  2  0  0  0  0
 39 40  1  0  0  0  0
 35 40  1  0  0  0  0
 39 41  1  0  0  0  0
 41 42  2  0  0  0  0
 41 43  1  0  0  0  0
 43 44  1  0  0  0  0
 44 45  1  0  0  0  0
 45 46  1  0  0  0  0
 46 47  1  0  0  0  0
 43 47  1  0  0  0  0
 47 48  2  0  0  0  0
 48 49  1  0  0  0  0
 49 50  2  0  0  0  0
 50 51  1  0  0  0  0
 46 51  2  0  0  0  0
 51 52  1  0  0  0  0
 52 53  2  0  0  0  0
 53 54  1  0  0  0  0
 50 54  1  0  0  0  0
 52 55  1  0  0  0  0
 49 56  1  0  0  0  0
 45 57  1  6  0  0  0
 57 58  1  0  0  0  0
M  END
> <DATABASE_ID>
DB12352

> <DATABASE_NAME>
drugbank

> <SMILES>
CC1=CNC2=C(O)C=C3N(C[C@@H](CCl)C3=C12)C(=O)C1=CC2=CC(NC(=O)NC3=CC=C4NC(=CC4=C3)C(=O)N3C[C@@H](CCl)C4=C5C(C)=CNC5=C(O)C=C34)=CC=C2N1

> <INCHI_IDENTIFIER>
InChI=1S/C43H36Cl2N8O5/c1-19-15-46-39-33(54)11-31-37(35(19)39)23(13-44)17-52(31)41(56)29-9-21-7-25(3-5-27(21)50-29)48-43(58)49-26-4-6-28-22(8-26)10-30(51-28)42(57)53-18-24(14-45)38-32(53)12-34(55)40-36(38)20(2)16-47-40/h3-12,15-16,23-24,46-47,50-51,54-55H,13-14,17-18H2,1-2H3,(H2,48,49,58)/t23-,24-/m1/s1

> <INCHI_KEY>
FONKWHRXTPJODV-DNQXCXABSA-N

> <FORMULA>
C43H36Cl2N8O5

> <MOLECULAR_WEIGHT>
815.71

> <EXACT_MASS>
814.2185717

> <JCHEM_ACCEPTOR_COUNT>
5

> <JCHEM_ATOM_COUNT>
94

> <JCHEM_AVERAGE_POLARIZABILITY>
86.54700185882382

> <JCHEM_BIOAVAILABILITY>
0

> <JCHEM_DONOR_COUNT>
8

> <JCHEM_FORMAL_CHARGE>
0

> <JCHEM_GHOSE_FILTER>
0

> <JCHEM_IUPAC>
1,3-bis({2-[(1S)-1-(chloromethyl)-5-hydroxy-8-methyl-1H,2H,3H,6H-pyrrolo[3,2-e]indole-3-carbonyl]-1H-indol-5-yl})urea

> <ALOGPS_LOGP>
5.62

> <JCHEM_LOGP>
6.413981862333332

> <ALOGPS_LOGS>
-5.31

> <JCHEM_MDDR_LIKE_RULE>
1

> <JCHEM_NUMBER_OF_RINGS>
10

> <JCHEM_PHYSIOLOGICAL_CHARGE>
0

> <JCHEM_PKA>
9.043549091780791

> <JCHEM_PKA_STRONGEST_ACIDIC>
8.443185986588738

> <JCHEM_PKA_STRONGEST_BASIC>
-6.286749890269189

> <JCHEM_POLAR_SURFACE_AREA>
185.36999999999998

> <JCHEM_REFRACTIVITY>
226.82099999999997

> <JCHEM_ROTATABLE_BOND_COUNT>
6

> <JCHEM_RULE_OF_FIVE>
0

> <ALOGPS_SOLUBILITY>
3.98e-03 g/l

> <JCHEM_TRADITIONAL_IUPAC>
1,3-bis({2-[(1S)-1-(chloromethyl)-5-hydroxy-8-methyl-1H,2H,6H-pyrrolo[3,2-e]indole-3-carbonyl]-1H-indol-5-yl})urea

> <JCHEM_VEBER_RULE>
0

> <DRUGBANK_ID>
DB12352

> <DRUG_GROUPS>
investigational

> <GENERIC_NAME>
Bizelesin

> <SYNONYMS>
Bizelesin

$$$$
