
  Mrv1718007201817472D          

  1  0  0  0  0  0            999 V2000
    0.0000    0.0000    0.0000 Tl  0  3  0  0  0  0  0  0  0  0  0  0
M  CHG  1   1   1
M  ISO  1   1 201
M  END
> <DATABASE_ID>
DB14576

> <DATABASE_NAME>
drugbank

> <SMILES>
[201Tl+]

> <INCHI_IDENTIFIER>
InChI=1S/Tl/q+1/i1-3

> <INCHI_KEY>
ZLUSCZLCHQSJRU-OIOBTWANSA-N

> <FORMULA>
Tl

> <MOLECULAR_WEIGHT>
200.9703

> <EXACT_MASS>
200.97025519

> <JCHEM_ACCEPTOR_COUNT>
0

> <JCHEM_ATOM_COUNT>
1

> <JCHEM_AVERAGE_POLARIZABILITY>
1.7784

> <JCHEM_BIOAVAILABILITY>
1

> <JCHEM_DONOR_COUNT>
0

> <JCHEM_FORMAL_CHARGE>
1

> <JCHEM_GHOSE_FILTER>
0

> <JCHEM_IUPAC>
lambda1-(201Tl)thallanylium

> <JCHEM_LOGP>
0.029999999999999995

> <JCHEM_MDDR_LIKE_RULE>
0

> <JCHEM_NUMBER_OF_RINGS>
0

> <JCHEM_PHYSIOLOGICAL_CHARGE>
1

> <JCHEM_PKA>
13.8

> <JCHEM_PKA_STRONGEST_ACIDIC>
6.9

> <JCHEM_POLAR_SURFACE_AREA>
0.0

> <JCHEM_REFRACTIVITY>
0.0

> <JCHEM_ROTATABLE_BOND_COUNT>
0

> <JCHEM_RULE_OF_FIVE>
1

> <JCHEM_TRADITIONAL_IUPAC>
lambda1-(201Tl)thallanylium

> <JCHEM_VEBER_RULE>
1

> <DRUGBANK_ID>
DB14576

> <DRUG_GROUPS>
experimental

> <GENERIC_NAME>
Thallous cation Tl-201

> <SYNONYMS>
Thallium cation Tl-201; Thallium cation Tl-201 (1+); Thallous ion Tl-201

$$$$
