
  Mrv1909 10091922072D          

 28 30  0  0  0  0            999 V2000
    2.4242   -2.4525    0.0000 C   0  0  0  0  0  0  0  0  0  0  0  0
    1.6131   -2.3015    0.0000 O   0  0  0  0  0  0  0  0  0  0  0  0
    1.3384   -1.5236    0.0000 C   0  0  0  0  0  0  0  0  0  0  0  0
    1.8746   -0.8968    0.0000 C   0  0  0  0  0  0  0  0  0  0  0  0
    2.6856   -1.0478    0.0000 O   0  0  0  0  0  0  0  0  0  0  0  0
    3.2220   -0.4209    0.0000 C   0  0  0  0  0  0  0  0  0  0  0  0
    1.5999   -0.1189    0.0000 C   0  0  0  0  0  0  0  0  0  0  0  0
    0.7888    0.0321    0.0000 C   0  0  0  0  0  0  0  0  0  0  0  0
    0.2524   -0.5947    0.0000 C   0  0  0  0  0  0  0  0  0  0  0  0
    0.5273   -1.3725    0.0000 C   0  0  0  0  0  0  0  0  0  0  0  0
   -0.0089   -1.9994    0.0000 O   0  0  0  0  0  0  0  0  0  0  0  0
    0.2657   -2.7773    0.0000 C   0  0  0  0  0  0  0  0  0  0  0  0
   -0.5719   -0.5663    0.0000 C   0  0  0  0  0  0  0  0  0  0  0  0
   -0.7832   -1.3637    0.0000 C   0  0  0  0  0  0  0  0  0  0  0  0
   -1.5384   -1.6958    0.0000 C   0  0  0  0  0  0  0  0  0  0  0  0
   -2.2689   -1.3124    0.0000 C   0  0  0  0  0  0  0  0  0  0  0  0
   -2.4245   -0.5024    0.0000 C   0  0  0  0  0  0  0  0  0  0  0  0
   -3.2219   -0.2912    0.0000 O   0  0  0  0  0  0  0  0  0  0  0  0
   -1.8883    0.1244    0.0000 C   0  0  0  0  0  0  0  0  0  0  0  0
   -1.0638    0.0960    0.0000 C   0  0  0  0  0  0  0  0  0  0  0  0
   -0.8526    0.8936    0.0000 C   0  0  0  0  0  0  0  0  0  0  0  0
   -0.0973    1.2257    0.0000 C   0  0  0  0  0  0  0  0  0  0  0  0
    0.6330    0.8423    0.0000 C   0  0  0  0  0  0  0  0  0  0  0  0
   -1.4795    1.4298    0.0000 N   0  0  0  0  0  0  0  0  0  0  0  0
   -1.3284    2.2409    0.0000 C   0  0  0  0  0  0  0  0  0  0  0  0
   -1.9553    2.7773    0.0000 O   0  0  0  0  0  0  0  0  0  0  0  0
   -0.5505    2.5157    0.0000 C   0  0  0  0  0  0  0  0  0  0  0  0
   -2.9310   -1.8043    0.0000 O   0  0  0  0  0  0  0  0  0  0  0  0
  1  2  1  0  0  0  0
  2  3  1  0  0  0  0
  3  4  2  0  0  0  0
  4  5  1  0  0  0  0
  5  6  1  0  0  0  0
  4  7  1  0  0  0  0
  7  8  2  0  0  0  0
  8  9  1  0  0  0  0
  9 10  2  0  0  0  0
  3 10  1  0  0  0  0
 10 11  1  0  0  0  0
 11 12  1  0  0  0  0
  9 13  1  0  0  0  0
 13 14  2  0  0  0  0
 14 15  1  0  0  0  0
 15 16  2  0  0  0  0
 16 17  1  0  0  0  0
 17 18  2  0  0  0  0
 17 19  1  0  0  0  0
 19 20  2  0  0  0  0
 13 20  1  0  0  0  0
 20 21  1  0  0  0  0
 21 22  1  0  0  0  0
 22 23  1  0  0  0  0
  8 23  1  0  0  0  0
 21 24  1  0  0  0  0
 24 25  1  0  0  0  0
 25 26  2  0  0  0  0
 25 27  1  0  0  0  0
 16 28  1  0  0  0  0
M  END
> <DATABASE_ID>
DB15534

> <DATABASE_NAME>
drugbank

> <SMILES>
COC1=C(OC)C(OC)=C2C(CCC(NC(C)=O)C3=CC(=O)C(O)=CC=C23)=C1

> <INCHI_IDENTIFIER>
InChI=1S/C21H23NO6/c1-11(23)22-15-7-5-12-9-18(26-2)20(27-3)21(28-4)19(12)13-6-8-16(24)17(25)10-14(13)15/h6,8-10,15H,5,7H2,1-4H3,(H,22,23)(H,24,25)

> <INCHI_KEY>
PRGILOMAMBLWNG-UHFFFAOYSA-N

> <FORMULA>
C21H23NO6

> <MOLECULAR_WEIGHT>
385.416

> <EXACT_MASS>
385.152537465

> <JCHEM_ACCEPTOR_COUNT>
6

> <JCHEM_ATOM_COUNT>
51

> <JCHEM_AVERAGE_POLARIZABILITY>
40.15870170149402

> <JCHEM_BIOAVAILABILITY>
1

> <JCHEM_DONOR_COUNT>
2

> <JCHEM_FORMAL_CHARGE>
0

> <JCHEM_GHOSE_FILTER>
1

> <JCHEM_IUPAC>
N-{14-hydroxy-3,4,5-trimethoxy-13-oxotricyclo[9.5.0.0^{2,7}]hexadeca-1(16),2,4,6,11,14-hexaen-10-yl}acetamide

> <ALOGPS_LOGP>
0.98

> <JCHEM_LOGP>
1.3491611809999997

> <ALOGPS_LOGS>
-3.76

> <JCHEM_MDDR_LIKE_RULE>
0

> <JCHEM_NUMBER_OF_RINGS>
3

> <JCHEM_PHYSIOLOGICAL_CHARGE>
0

> <JCHEM_PKA>
15.138486913796614

> <JCHEM_PKA_STRONGEST_ACIDIC>
10.526461463208085

> <JCHEM_PKA_STRONGEST_BASIC>
-1.1577773807922767

> <JCHEM_POLAR_SURFACE_AREA>
94.09000000000002

> <JCHEM_REFRACTIVITY>
106.6244

> <JCHEM_ROTATABLE_BOND_COUNT>
4

> <JCHEM_RULE_OF_FIVE>
1

> <ALOGPS_SOLUBILITY>
6.71e-02 g/l

> <JCHEM_TRADITIONAL_IUPAC>
3-methyl-[1,2,4]triazino[3,4-a]phthalazin-4-one

> <JCHEM_VEBER_RULE>
0

> <DRUGBANK_ID>
DB15534

> <DRUG_GROUPS>
approved; experimental

> <GENERIC_NAME>
Colchiceine

> <SYNONYMS>
O-Demethylcolchicine; O10-Demethylcolchicine

> <PRODUCTS>
Colchicine

$$$$
