
  Mrv1652309121720472D          

 11 11  0  0  0  0            999 V2000
    0.7145   -0.4125    0.0000 C   0  0  0  0  0  0  0  0  0  0  0  0
    1.4289    0.0000    0.0000 C   0  0  0  0  0  0  0  0  0  0  0  0
   -0.0000    0.0000    0.0000 C   0  0  0  0  0  0  0  0  0  0  0  0
    1.4289    0.8250    0.0000 C   0  0  0  0  0  0  0  0  0  0  0  0
    0.0000    0.8250    0.0000 C   0  0  0  0  0  0  0  0  0  0  0  0
    0.7145    1.2375    0.0000 C   0  0  0  0  0  0  0  0  0  0  0  0
    0.7145    2.0625    0.0000 C   0  0  0  0  0  0  0  0  0  0  0  0
    1.4289    2.4750    0.0000 C   0  0  0  0  0  0  0  0  0  0  0  0
    0.0000    2.4750    0.0000 O   0  0  0  0  0  0  0  0  0  0  0  0
    1.4289    3.3000    0.0000 O   0  0  0  0  0  0  0  0  0  0  0  0
    2.1434    2.0625    0.0000 O   0  0  0  0  0  0  0  0  0  0  0  0
  2  1  2  0  0  0  0
  3  1  1  0  0  0  0
  4  2  1  0  0  0  0
  5  3  2  0  0  0  0
  6  4  2  0  0  0  0
  6  5  1  0  0  0  0
  7  6  1  0  0  0  0
  8  7  1  0  0  0  0
  9  7  1  0  0  0  0
 10  8  2  0  0  0  0
 11  8  1  0  0  0  0
M  END
> <DATABASE_ID>
DB13218

> <DATABASE_NAME>
drugbank

> <SMILES>
OC(C(O)=O)C1=CC=CC=C1

> <INCHI_IDENTIFIER>
InChI=1S/C8H8O3/c9-7(8(10)11)6-4-2-1-3-5-6/h1-5,7,9H,(H,10,11)

> <INCHI_KEY>
IWYDHOAUDWTVEP-UHFFFAOYSA-N

> <FORMULA>
C8H8O3

> <MOLECULAR_WEIGHT>
152.149

> <EXACT_MASS>
152.047344118

> <JCHEM_ACCEPTOR_COUNT>
3

> <JCHEM_ATOM_COUNT>
19

> <JCHEM_AVERAGE_POLARIZABILITY>
14.658273906433223

> <JCHEM_BIOAVAILABILITY>
1

> <JCHEM_DONOR_COUNT>
2

> <JCHEM_FORMAL_CHARGE>
0

> <JCHEM_GHOSE_FILTER>
0

> <JCHEM_IUPAC>
2-hydroxy-2-phenylacetic acid

> <ALOGPS_LOGP>
0.66

> <JCHEM_LOGP>
0.8958356446666668

> <ALOGPS_LOGS>
-0.96

> <JCHEM_MDDR_LIKE_RULE>
0

> <JCHEM_NUMBER_OF_RINGS>
1

> <JCHEM_PHYSIOLOGICAL_CHARGE>
-1

> <JCHEM_PKA>
13.568490699995834

> <JCHEM_PKA_STRONGEST_ACIDIC>
3.751233575646761

> <JCHEM_PKA_STRONGEST_BASIC>
-4.110158859648652

> <JCHEM_POLAR_SURFACE_AREA>
57.53

> <JCHEM_REFRACTIVITY>
38.7038

> <JCHEM_ROTATABLE_BOND_COUNT>
2

> <JCHEM_RULE_OF_FIVE>
1

> <ALOGPS_SOLUBILITY>
1.68e+01 g/l

> <JCHEM_TRADITIONAL_IUPAC>
mandelic acid

> <JCHEM_VEBER_RULE>
0

> <DRUGBANK_ID>
DB13218

> <DRUG_GROUPS>
approved

> <GENERIC_NAME>
Mandelic acid

$$$$
