
  Mrv1909 12152020022D          

 30 32  0  0  0  0            999 V2000
    2.8579   -0.0000    0.0000 C   0  0  0  0  0  0  0  0  0  0  0  0
    2.1434   -0.4125    0.0000 C   0  0  0  0  0  0  0  0  0  0  0  0
    2.1434   -1.2375    0.0000 C   0  0  0  0  0  0  0  0  0  0  0  0
    2.8579   -1.6500    0.0000 C   0  0  0  0  0  0  0  0  0  0  0  0
    3.5724   -1.2375    0.0000 C   0  0  0  0  0  0  0  0  0  0  0  0
    2.8579   -2.4750    0.0000 C   0  0  0  0  0  0  0  0  0  0  0  0
    2.1434   -2.8875    0.0000 C   0  0  0  0  0  0  0  0  0  0  0  0
    2.1434   -3.7125    0.0000 C   0  0  0  0  0  0  0  0  0  0  0  0
    1.4289   -4.1250    0.0000 O   0  0  0  0  0  0  0  0  0  0  0  0
    2.8579   -4.1250    0.0000 N   0  0  0  0  0  0  0  0  0  0  0  0
    2.8579   -4.9500    0.0000 C   0  0  0  0  0  0  0  0  0  0  0  0
    3.1401   -5.7252    0.0000 C   0  0  0  0  0  0  0  0  0  0  0  0
    2.6098   -6.3572    0.0000 C   0  0  0  0  0  0  0  0  0  0  0  0
    1.7973   -6.2140    0.0000 C   0  0  0  0  0  0  0  0  0  0  0  0
    1.5151   -5.4387    0.0000 C   0  0  0  0  0  0  0  0  0  0  0  0
    2.0454   -4.8067    0.0000 C   0  0  0  0  0  0  0  0  0  0  0  0
    3.6704   -4.8067    0.0000 C   0  0  0  0  0  0  0  0  0  0  0  0
    4.2007   -5.4387    0.0000 O   0  0  0  0  0  0  0  0  0  0  0  0
    3.9525   -4.0315    0.0000 O   0  0  0  0  0  0  0  0  0  0  0  0
    1.4289   -2.4750    0.0000 C   0  0  0  0  0  0  0  0  0  0  0  0
    0.7145   -2.8875    0.0000 O   0  0  0  0  0  0  0  0  0  0  0  0
    1.4289   -1.6500    0.0000 N   0  0  0  0  0  0  0  0  0  0  0  0
    0.7145   -1.2375    0.0000 C   0  0  0  0  0  0  0  0  0  0  0  0
    0.7145   -0.4125    0.0000 C   0  0  0  0  0  0  0  0  0  0  0  0
    0.0000    0.0000    0.0000 C   0  0  0  0  0  0  0  0  0  0  0  0
    0.0000    0.8250    0.0000 C   0  0  0  0  0  0  0  0  0  0  0  0
    0.7145    1.2375    0.0000 C   0  0  0  0  0  0  0  0  0  0  0  0
    0.7145    2.0625    0.0000 F   0  0  0  0  0  0  0  0  0  0  0  0
    1.4289    0.8250    0.0000 C   0  0  0  0  0  0  0  0  0  0  0  0
    1.4289    0.0000    0.0000 C   0  0  0  0  0  0  0  0  0  0  0  0
  1  2  1  0  0  0  0
  2  3  1  0  0  0  0
  3  4  2  0  0  0  0
  4  5  1  0  0  0  0
  4  6  1  0  0  0  0
  6  7  2  0  0  0  0
  7  8  1  0  0  0  0
  8  9  2  0  0  0  0
  8 10  1  0  0  0  0
 10 11  1  0  0  0  0
 11 12  1  0  0  0  0
 12 13  1  0  0  0  0
 13 14  1  0  0  0  0
 14 15  1  0  0  0  0
 15 16  1  0  0  0  0
 11 16  1  0  0  0  0
 11 17  1  0  0  0  0
 17 18  1  0  0  0  0
 17 19  2  0  0  0  0
  7 20  1  0  0  0  0
 20 21  2  0  0  0  0
 20 22  1  0  0  0  0
  3 22  1  0  0  0  0
 22 23  1  0  0  0  0
 23 24  1  0  0  0  0
 24 25  2  0  0  0  0
 25 26  1  0  0  0  0
 26 27  2  0  0  0  0
 27 28  1  0  0  0  0
 27 29  1  0  0  0  0
 29 30  2  0  0  0  0
 24 30  1  0  0  0  0
M  END
> <DATABASE_ID>
DB16321

> <DATABASE_NAME>
drugbank

> <SMILES>
CCC1=C(C)C=C(C(=O)NC2(CCCCC2)C(O)=O)C(=O)N1CC1=CC=C(F)C=C1

> <INCHI_IDENTIFIER>
InChI=1S/C23H27FN2O4/c1-3-19-15(2)13-18(20(27)25-23(22(29)30)11-5-4-6-12-23)21(28)26(19)14-16-7-9-17(24)10-8-16/h7-10,13H,3-6,11-12,14H2,1-2H3,(H,25,27)(H,29,30)

> <INCHI_KEY>
JIYXOJFSPOFZPY-UHFFFAOYSA-N

> <FORMULA>
C23H27FN2O4

> <MOLECULAR_WEIGHT>
414.477

> <EXACT_MASS>
414.19548552

> <JCHEM_ACCEPTOR_COUNT>
4

> <JCHEM_ATOM_COUNT>
57

> <JCHEM_AVERAGE_NEUTRAL_MICROSPECIES_CHARGE>
-0.9994650649284517

> <JCHEM_AVERAGE_POLARIZABILITY>
43.315944119544305

> <JCHEM_BIOAVAILABILITY>
1

> <JCHEM_DONOR_COUNT>
2

> <JCHEM_FORMAL_CHARGE>
0

> <JCHEM_GHOSE_FILTER>
1

> <JCHEM_IUPAC>
1-{6-ethyl-1-[(4-fluorophenyl)methyl]-5-methyl-2-oxo-1,2-dihydropyridine-3-amido}cyclohexane-1-carboxylic acid

> <ALOGPS_LOGP>
3.25

> <JCHEM_LOGP>
3.585046926666667

> <ALOGPS_LOGS>
-4.50

> <JCHEM_MDDR_LIKE_RULE>
1

> <JCHEM_NEUTRAL_CHARGE>
-1

> <JCHEM_NUMBER_OF_RINGS>
3

> <JCHEM_PHYSIOLOGICAL_CHARGE>
-1

> <JCHEM_PKA>
12.937401256837946

> <JCHEM_PKA_STRONGEST_ACIDIC>
3.729471805933026

> <JCHEM_PKA_STRONGEST_BASIC>
-0.47096918969228796

> <JCHEM_POLAR_SURFACE_AREA>
86.71

> <JCHEM_REFRACTIVITY>
112.32789999999999

> <JCHEM_ROTATABLE_BOND_COUNT>
6

> <JCHEM_RULE_OF_FIVE>
1

> <ALOGPS_SOLUBILITY>
1.30e-02 g/l

> <JCHEM_TRADITIONAL_IUPAC>
revaprazan

> <JCHEM_VEBER_RULE>
0

> <DRUGBANK_ID>
DB16321

> <DRUG_GROUPS>
investigational

> <GENERIC_NAME>
S-777469

$$$$
