
  Mrv1909 12142018152D          

 54 58  0  0  0  0            999 V2000
   -2.0457   -1.8620    0.0000 C   0  0  0  0  0  0  0  0  0  0  0  0
   -2.7675   -1.4547    0.0000 C   0  0  0  0  0  0  0  0  0  0  0  0
   -2.0457   -2.7023    0.0000 C   0  0  0  0  0  0  0  0  0  0  0  0
   -1.4386   -1.3251    0.0000 C   0  0  0  0  0  0  0  0  0  0  0  0
   -2.5825   -0.6404    0.0000 N   0  0  0  0  0  0  0  0  0  0  0  0
   -3.4784   -1.8620    0.0000 C   0  0  0  0  0  0  0  0  0  0  0  0
   -2.7675   -3.1095    0.0000 C   0  0  0  0  0  0  0  0  0  0  0  0
   -1.3349   -3.1095    0.0000 C   0  0  0  0  0  0  0  0  0  0  0  0
   -1.7755   -0.5737    0.0000 C   0  0  0  0  0  0  0  0  0  0  0  0
   -0.7278   -0.9069    0.0000 C   0  0  0  0  0  0  0  0  0  0  0  0
   -0.9463   -1.9953    0.0000 C   0  0  0  0  0  0  0  0  0  0  0  0
   -3.1414   -0.0370    0.0000 C   0  0  0  0  0  0  0  0  0  0  0  0
   -3.4784   -2.7023    0.0000 C   0  0  0  0  0  0  0  0  0  0  0  0
   -2.7675   -3.9350    0.0000 C   0  0  0  0  0  0  0  0  0  0  0  0
   -1.3349   -3.9350    0.0000 C   0  0  0  0  0  0  0  0  0  0  0  0
   -1.3720    0.1369    0.0000 C   0  0  0  0  0  0  0  0  0  0  0  0
   -3.9484   -0.2184    0.0000 C   0  0  0  0  0  0  0  0  0  0  0  0
   -2.0457   -4.3533    0.0000 C   0  0  0  0  0  0  0  0  0  0  0  0
   -0.5317    0.1369    0.0000 C   0  0  0  0  0  0  0  0  0  0  0  0
   -4.5111    0.3850    0.0000 C   0  0  0  0  0  0  0  0  0  0  0  0
   -0.1133    0.8477    0.0000 C   0  0  0  0  0  0  0  0  0  0  0  0
   -5.3181    0.2184    0.0000 C   0  0  0  0  0  0  0  0  0  0  0  0
    0.6936    0.8477    0.0000 C   0  0  0  0  0  0  0  0  0  0  0  0
   -5.8660    0.8218    0.0000 S   0  0  0  0  0  0  0  0  0  0  0  0
    1.0971    1.5733    0.0000 C   0  0  0  0  0  0  0  0  0  0  0  0
   -6.2838    1.5325    0.0000 O   0  5  0  0  0  0  0  0  0  0  0  0
   -5.1960    1.3326    0.0000 O   0  0  0  0  0  0  0  0  0  0  0  0
   -6.5870    0.4478    0.0000 O   0  0  0  0  0  0  0  0  0  0  0  0
    1.9373    1.5733    0.0000 C   0  0  0  0  0  0  0  0  0  0  0  0
    2.3409    2.2767    0.0000 C   0  0  0  0  0  0  0  0  0  0  0  0
    3.1627    2.2767    0.0000 C   0  0  0  0  0  0  0  0  0  0  0  0
    3.6477    1.6177    0.0000 N   0  3  0  0  0  0  0  0  0  0  0  0
    3.6477    2.9429    0.0000 C   0  0  0  0  0  0  0  0  0  0  0  0
    4.4251    1.8693    0.0000 C   0  0  0  0  0  0  0  0  0  0  0  0
    3.3923    0.8218    0.0000 C   0  0  0  0  0  0  0  0  0  0  0  0
    4.4251    2.6876    0.0000 C   0  0  0  0  0  0  0  0  0  0  0  0
    2.9443    3.3575    0.0000 C   0  0  0  0  0  0  0  0  0  0  0  0
    3.9919    3.7129    0.0000 C   0  0  0  0  0  0  0  0  0  0  0  0
    5.1470    1.4547    0.0000 C   0  0  0  0  0  0  0  0  0  0  0  0
    3.9550    0.2184    0.0000 C   0  0  0  0  0  0  0  0  0  0  0  0
    5.1470    3.1095    0.0000 C   0  0  0  0  0  0  0  0  0  0  0  0
    5.8614    1.8693    0.0000 C   0  0  0  0  0  0  0  0  0  0  0  0
    3.6959   -0.5588    0.0000 C   0  0  0  0  0  0  0  0  0  0  0  0
    5.8614    2.6876    0.0000 C   0  0  0  0  0  0  0  0  0  0  0  0
    5.1470    3.9239    0.0000 C   0  0  0  0  0  0  0  0  0  0  0  0
    4.2511   -1.1772    0.0000 C   0  0  0  0  0  0  0  0  0  0  0  0
    6.5870    3.1095    0.0000 C   0  0  0  0  0  0  0  0  0  0  0  0
    5.8614    4.3533    0.0000 C   0  0  0  0  0  0  0  0  0  0  0  0
    3.9957   -1.9545    0.0000 S   0  0  0  0  0  0  0  0  0  0  0  0
    6.5870    3.9239    0.0000 C   0  0  0  0  0  0  0  0  0  0  0  0
    3.2294   -1.6472    0.0000 O   0  0  0  0  0  0  0  0  0  0  0  0
    4.6804   -2.4099    0.0000 O   0  0  0  0  0  0  0  0  0  0  0  0
    3.6995   -2.8800    0.0000 O   0  5  0  0  0  0  0  0  0  0  0  0
   -6.4041    2.5800    0.0000 Na  0  3  0  0  0  0  0  0  0  0  0  0
  1  2  1  0  0  0  0
  1  3  2  0  0  0  0
  1  4  1  0  0  0  0
  2  5  1  0  0  0  0
  2  6  2  0  0  0  0
  3  7  1  0  0  0  0
  3  8  1  0  0  0  0
  4  9  1  0  0  0  0
  4 10  1  0  0  0  0
  4 11  1  0  0  0  0
  5 12  1  0  0  0  0
  6 13  1  0  0  0  0
  7 14  1  0  0  0  0
  8 15  2  0  0  0  0
  9 16  2  0  0  0  0
 12 17  1  0  0  0  0
 14 18  2  0  0  0  0
 16 19  1  0  0  0  0
 17 20  1  0  0  0  0
 19 21  2  0  0  0  0
 20 22  1  0  0  0  0
 21 23  1  0  0  0  0
 22 24  1  0  0  0  0
 23 25  2  0  0  0  0
 24 26  1  0  0  0  0
 24 27  2  0  0  0  0
 24 28  2  0  0  0  0
 25 29  1  0  0  0  0
 29 30  2  0  0  0  0
 30 31  1  0  0  0  0
 31 32  2  0  0  0  0
 31 33  1  0  0  0  0
 32 34  1  0  0  0  0
 32 35  1  0  0  0  0
 33 36  1  0  0  0  0
 33 37  1  0  0  0  0
 33 38  1  0  0  0  0
 34 39  2  0  0  0  0
 35 40  1  0  0  0  0
 36 41  2  0  0  0  0
 39 42  1  0  0  0  0
 40 43  1  0  0  0  0
 41 44  1  0  0  0  0
 41 45  1  0  0  0  0
 43 46  1  0  0  0  0
 44 47  1  0  0  0  0
 45 48  2  0  0  0  0
 46 49  1  0  0  0  0
 47 50  2  0  0  0  0
 49 51  2  0  0  0  0
 49 52  2  0  0  0  0
 49 53  1  0  0  0  0
  5  9  1  0  0  0  0
  7 13  2  0  0  0  0
 15 18  1  0  0  0  0
 34 36  1  0  0  0  0
 42 44  2  0  0  0  0
 48 50  1  0  0  0  0
M  CHG  4  26  -1  32   1  53  -1  54   1
M  END
> <DATABASE_ID>
DB16024

> <DATABASE_NAME>
drugbank

> <SMILES>
[Na+].CC1(C)\C(=C/C=C/C=C/C=C/C2=[N+](CCCCS([O-])(=O)=O)C3=CC=C4C=CC=CC4=C3C2(C)C)N(CCCCS([O-])(=O)=O)C2=CC=C3C=CC=CC3=C12

> <INCHI_IDENTIFIER>
InChI=1S/C43H48N2O6S2.Na/c1-42(2)38(44(28-14-16-30-52(46,47)48)36-26-24-32-18-10-12-20-34(32)40(36)42)22-8-6-5-7-9-23-39-43(3,4)41-35-21-13-11-19-33(35)25-27-37(41)45(39)29-15-17-31-53(49,50)51;/h5-13,18-27H,14-17,28-31H2,1-4H3,(H-,46,47,48,49,50,51);/q;+1/p-1

> <INCHI_KEY>
MOFVSTNWEDAEEK-UHFFFAOYSA-M

> <FORMULA>
C43H47N2NaO6S2

> <MOLECULAR_WEIGHT>
774.97

> <EXACT_MASS>
774.27732387

> <JCHEM_ACCEPTOR_COUNT>
7

> <JCHEM_ATOM_COUNT>
101

> <JCHEM_AVERAGE_NEUTRAL_MICROSPECIES_CHARGE>
-0.9999547722190611

> <JCHEM_AVERAGE_POLARIZABILITY>
86.31202883643246

> <JCHEM_BIOAVAILABILITY>
0

> <JCHEM_DONOR_COUNT>
0

> <JCHEM_FORMAL_CHARGE>
0

> <JCHEM_GHOSE_FILTER>
0

> <JCHEM_IUPAC>
sodium 2-[(1E,3E,5E)-7-[(2E)-1,1-dimethyl-3-(4-sulfonatobutyl)-1H,2H,3H-benzo[e]indol-2-ylidene]hepta-1,3,5-trien-1-yl]-1,1-dimethyl-3-(4-sulfonatobutyl)-1H-benzo[e]indol-3-ium

> <ALOGPS_LOGP>
4.17

> <JCHEM_LOGP>
6.053551064213667

> <ALOGPS_LOGS>
-8.27

> <JCHEM_MDDR_LIKE_RULE>
1

> <JCHEM_NEUTRAL_CHARGE>
-1

> <JCHEM_NUMBER_OF_RINGS>
6

> <JCHEM_PHYSIOLOGICAL_CHARGE>
-1

> <JCHEM_PKA>
-0.30677117147386584

> <JCHEM_PKA_STRONGEST_ACIDIC>
-0.9356999106150525

> <JCHEM_PKA_STRONGEST_BASIC>
2.655314695548304

> <JCHEM_POLAR_SURFACE_AREA>
120.65

> <JCHEM_REFRACTIVITY>
228.88309999999998

> <JCHEM_ROTATABLE_BOND_COUNT>
14

> <JCHEM_RULE_OF_FIVE>
0

> <ALOGPS_SOLUBILITY>
4.42e-06 g/l

> <JCHEM_TRADITIONAL_IUPAC>
monophosphothiamine

> <JCHEM_VEBER_RULE>
0

> <DRUGBANK_ID>
DB16024

> <DRUG_GROUPS>
approved; experimental

> <GENERIC_NAME>
Indocyanine green

> <SYNONYMS>
Indocyanine green

> <PRODUCTS>
IC-Green; Indocyanine Green for Injection Kit; Indocyanine Green for Injection, USP; Spy Agent Green; Spy Agent Green Kit for Advanced Imaging Modality (aim) and Pinpoint; Spy Agent Green Kit for Spy Elite; Spy Agent Green Kit for Spy-phi; Spy Agent Green Lymphatics Kit for Advanced Imaging Modality (aim) and Pinpoint

$$$$
