
  Mrv1572010231512302D          

 45 49  0  0  0  0            999 V2000
   -3.1853    0.8125    0.0000 P   0  0  0  0  0  0  0  0  0  0  0  0
   -3.1853   -0.0161    0.0000 O   0  0  0  0  0  0  0  0  0  0  0  0
   -3.8955    1.2213    0.0000 O   0  0  0  0  0  0  0  0  0  0  0  0
   -3.1853    1.6411    0.0000 O   0  0  0  0  0  0  0  0  0  0  0  0
    0.3766    1.2213    0.0000 O   0  0  0  0  0  0  0  0  0  0  0  0
   -0.3336   -0.0161    0.0000 O   0  0  0  0  0  0  0  0  0  0  0  0
   -0.3336   -2.5019    0.0000 O   0  5  0  0  0  0  0  0  0  0  0  0
    0.4950   -1.1783    0.0000 O   0  0  0  0  0  0  0  0  0  0  0  0
   -1.7432    2.4697    0.0000 N   0  0  0  0  0  0  0  0  0  0  0  0
   -0.3336   -1.6733    0.0000 N   0  3  0  0  0  0  0  0  0  0  0  0
    2.5290    0.8554    0.0000 N   0  0  0  0  0  0  0  0  0  0  0  0
   -2.4859    1.2213    0.0000 C   0  0  0  0  0  0  0  0  0  0  0  0
   -1.7432    0.8125    0.0000 C   0  0  0  0  0  0  0  0  0  0  0  0
   -1.0330    1.2213    0.0000 C   0  0  0  0  0  0  0  0  0  0  0  0
   -2.4859    2.0501    0.0000 C   0  0  0  0  0  0  0  0  0  0  0  0
   -1.7432   -0.0161    0.0000 C   0  0  0  0  0  0  0  0  0  0  0  0
   -1.0330    2.0501    0.0000 C   0  0  0  0  0  0  0  0  0  0  0  0
   -0.3336    0.8125    0.0000 C   0  0  0  0  0  0  0  0  0  0  0  0
   -4.6381   -0.0161    0.0000 C   0  0  0  0  0  0  0  0  0  0  0  0
   -1.0330   -0.4358    0.0000 C   0  0  0  0  0  0  0  0  0  0  0  0
   -3.9279   -0.4358    0.0000 C   0  0  0  0  0  0  0  0  0  0  0  0
   -4.6381    0.8125    0.0000 C   0  0  0  0  0  0  0  0  0  0  0  0
   -2.4859   -0.4358    0.0000 C   0  0  0  0  0  0  0  0  0  0  0  0
   -3.1853    2.4697    0.0000 C   0  0  0  0  0  0  0  0  0  0  0  0
   -1.0330   -1.2644    0.0000 C   0  0  0  0  0  0  0  0  0  0  0  0
   -0.3336    2.5019    0.0000 C   0  0  0  0  0  0  0  0  0  0  0  0
   -2.4859   -1.2644    0.0000 C   0  0  0  0  0  0  0  0  0  0  0  0
   -1.7432   -1.6733    0.0000 C   0  0  0  0  0  0  0  0  0  0  0  0
   -5.3806   -0.4358    0.0000 C   0  0  0  0  0  0  0  0  0  0  0  0
   -5.3376    0.3927    0.0000 C   0  0  0  0  0  0  0  0  0  0  0  0
    1.1192    0.8125    0.0000 C   0  0  0  0  0  0  0  0  0  0  0  0
    1.8186    1.2644    0.0000 C   0  0  0  0  0  0  0  0  0  0  0  0
    2.5290    0.0268    0.0000 C   0  0  0  0  0  0  0  0  0  0  0  0
    3.2715    1.2213    0.0000 C   0  0  0  0  0  0  0  0  0  0  0  0
    3.9710    0.8554    0.0000 C   0  0  0  0  0  0  0  0  0  0  0  0
    3.2284   -0.3928    0.0000 C   0  0  0  0  0  0  0  0  0  0  0  0
    1.8186   -0.3928    0.0000 C   0  0  0  0  0  0  0  0  0  0  0  0
    4.6813    1.2213    0.0000 C   0  0  0  0  0  0  0  0  0  0  0  0
    3.9710    0.0268    0.0000 C   0  0  0  0  0  0  0  0  0  0  0  0
    3.2284   -1.2214    0.0000 C   0  0  0  0  0  0  0  0  0  0  0  0
    1.8186   -1.2214    0.0000 C   0  0  0  0  0  0  0  0  0  0  0  0
    2.5290   -1.6303    0.0000 C   0  0  0  0  0  0  0  0  0  0  0  0
    5.3806    0.8125    0.0000 C   0  0  0  0  0  0  0  0  0  0  0  0
    4.6813   -0.3928    0.0000 C   0  0  0  0  0  0  0  0  0  0  0  0
    5.3806    0.0268    0.0000 C   0  0  0  0  0  0  0  0  0  0  0  0
  1  2  1  0  0  0  0
  1  3  1  0  0  0  0
  1  4  2  0  0  0  0
  1 12  1  0  0  0  0
  2 21  1  0  0  0  0
  3 22  1  0  0  0  0
  5 18  1  0  0  0  0
  5 31  1  0  0  0  0
  6 18  2  0  0  0  0
  7 10  1  0  0  0  0
  8 10  2  0  0  0  0
  9 15  1  0  0  0  0
  9 17  1  0  0  0  0
 10 25  1  0  0  0  0
 11 32  1  0  0  0  0
 11 33  1  0  0  0  0
 11 34  1  0  0  0  0
 12 13  1  0  0  0  0
 12 15  2  0  0  0  0
 13 14  1  0  0  0  0
 13 16  1  0  0  0  0
 14 17  2  0  0  0  0
 14 18  1  0  0  0  0
 15 24  1  0  0  0  0
 16 20  1  0  0  0  0
 16 23  2  0  0  0  0
 17 26  1  0  0  0  0
 19 21  1  0  0  0  0
 19 22  1  0  0  0  0
 19 29  1  0  0  0  0
 19 30  1  0  0  0  0
 20 25  2  0  0  0  0
 23 27  1  0  0  0  0
 25 28  1  0  0  0  0
 27 28  2  0  0  0  0
 31 32  1  0  0  0  0
 33 36  2  0  0  0  0
 33 37  1  0  0  0  0
 34 35  1  0  0  0  0
 35 38  2  0  0  0  0
 35 39  1  0  0  0  0
 36 40  1  0  0  0  0
 37 41  2  0  0  0  0
 38 43  1  0  0  0  0
 39 44  2  0  0  0  0
 40 42  2  0  0  0  0
 41 42  1  0  0  0  0
 43 45  2  0  0  0  0
 44 45  1  0  0  0  0
M  CHG  2   7  -1  10   1
M  END
> <DATABASE_ID>
DB09235

> <DATABASE_NAME>
drugbank

> <SMILES>
CC1=C(C(C2=CC=CC(=C2)[N+]([O-])=O)C(=C(C)N1)P1(=O)OCC(C)(C)CO1)C(=O)OCCN(CC1=CC=CC=C1)C1=CC=CC=C1

> <INCHI_IDENTIFIER>
InChI=1S/C34H38N3O7P/c1-24-30(33(38)42-19-18-36(28-15-9-6-10-16-28)21-26-12-7-5-8-13-26)31(27-14-11-17-29(20-27)37(39)40)32(25(2)35-24)45(41)43-22-34(3,4)23-44-45/h5-17,20,31,35H,18-19,21-23H2,1-4H3

> <INCHI_KEY>
NSVFSAJIGAJDMR-UHFFFAOYSA-N

> <FORMULA>
C34H38N3O7P

> <MOLECULAR_WEIGHT>
631.666

> <EXACT_MASS>
631.244737574

> <JCHEM_ACCEPTOR_COUNT>
6

> <JCHEM_ATOM_COUNT>
83

> <JCHEM_AVERAGE_POLARIZABILITY>
64.96417822259099

> <JCHEM_BIOAVAILABILITY>
0

> <JCHEM_DONOR_COUNT>
1

> <JCHEM_FORMAL_CHARGE>
0

> <JCHEM_GHOSE_FILTER>
0

> <JCHEM_IUPAC>
2-[benzyl(phenyl)amino]ethyl 5-(5,5-dimethyl-2-oxo-1,3,2λ⁵-dioxaphosphinan-2-yl)-2,6-dimethyl-4-(3-nitrophenyl)-1,4-dihydropyridine-3-carboxylate

> <ALOGPS_LOGP>
5.35

> <JCHEM_LOGP>
5.443370372000003

> <ALOGPS_LOGS>
-6.41

> <JCHEM_MDDR_LIKE_RULE>
1

> <JCHEM_NUMBER_OF_RINGS>
5

> <JCHEM_PHYSIOLOGICAL_CHARGE>
0

> <JCHEM_PKA_STRONGEST_ACIDIC>
19.490358417518895

> <JCHEM_PKA_STRONGEST_BASIC>
2.3323812981454655

> <JCHEM_POLAR_SURFACE_AREA>
120.24000000000001

> <JCHEM_REFRACTIVITY>
175.4000999999999

> <JCHEM_ROTATABLE_BOND_COUNT>
11

> <JCHEM_RULE_OF_FIVE>
0

> <ALOGPS_SOLUBILITY>
2.48e-04 g/l

> <JCHEM_TRADITIONAL_IUPAC>
efonidipine

> <JCHEM_VEBER_RULE>
0

> <DRUGBANK_ID>
DB09235

> <DRUG_GROUPS>
experimental

> <GENERIC_NAME>
Efonidipine

> <SYNONYMS>
Efonidipine

> <INTERNATIONAL_BRANDS>
Landel; NZ-105; Selefodipine

> <SALTS>
Efonidipine hydrochloride

$$$$
