
  Mrv1902 04231922112D          

 49 52  0  0  0  0            999 V2000
    0.1307   -1.4494    0.0000 C   0  0  0  0  0  0  0  0  0  0  0  0
   -0.6488   -1.7195    0.0000 C   0  0  1  0  0  0  0  0  0  0  0  0
   -1.1465   -1.0615    0.0000 C   0  0  1  0  0  0  0  0  0  0  0  0
   -0.6746   -0.3848    0.0000 C   0  0  0  0  0  0  0  0  0  0  0  0
    0.1147   -0.6246    0.0000 N   0  0  0  0  0  0  0  0  0  0  0  0
    0.7727   -0.1269    0.0000 C   0  0  0  0  0  0  0  0  0  0  0  0
    0.6706    0.6917    0.0000 O   0  0  0  0  0  0  0  0  0  0  0  0
    1.5327   -0.4478    0.0000 C   0  0  0  0  0  0  0  0  0  0  0  0
    2.1906    0.0498    0.0000 C   0  0  0  0  0  0  0  0  0  0  0  0
    2.8486    0.5476    0.0000 C   0  0  0  0  0  0  0  0  0  0  0  0
    1.6929    0.7078    0.0000 C   0  0  0  0  0  0  0  0  0  0  0  0
    2.6884   -0.6080    0.0000 C   0  0  0  0  0  0  0  0  0  0  0  0
    1.6348   -1.2665    0.0000 N   0  0  0  0  0  0  0  0  0  0  0  0
    2.3948   -1.5874    0.0000 C   0  0  0  0  0  0  0  0  0  0  0  0
    3.0527   -1.0897    0.0000 O   0  0  0  0  0  0  0  0  0  0  0  0
    2.4968   -2.4061    0.0000 N   0  0  0  0  0  0  0  0  0  0  0  0
    1.8389   -2.9038    0.0000 C   0  0  0  0  0  0  0  0  0  0  0  0
    1.3908   -3.5965    0.0000 C   0  0  0  0  0  0  0  0  0  0  0  0
    0.5669   -3.5549    0.0000 C   0  0  0  0  0  0  0  0  0  0  0  0
    0.1910   -2.8205    0.0000 C   0  0  0  0  0  0  0  0  0  0  0  0
    0.6390   -2.1278    0.0000 C   0  0  0  0  0  0  0  0  0  0  0  0
    1.4630   -2.1694    0.0000 C   0  0  0  0  0  0  0  0  0  0  0  0
    2.4433   -3.4653    0.0000 C   0  0  0  0  0  0  0  0  0  0  0  0
    3.2318   -3.2226    0.0000 S   0  0  0  0  0  0  0  0  0  0  0  0
    2.9891   -2.4341    0.0000 O   0  0  0  0  0  0  0  0  0  0  0  0
    3.4745   -4.0111    0.0000 O   0  0  0  0  0  0  0  0  0  0  0  0
    4.0203   -2.9800    0.0000 C   0  0  0  0  0  0  0  0  0  0  0  0
    4.8088   -2.7373    0.0000 C   0  0  0  0  0  0  0  0  0  0  0  0
    3.7776   -2.1915    0.0000 C   0  0  0  0  0  0  0  0  0  0  0  0
    4.2630   -3.7685    0.0000 C   0  0  0  0  0  0  0  0  0  0  0  0
   -0.9446    0.3946    0.0000 C   0  0  0  0  0  0  0  0  0  0  0  0
   -0.4045    1.0183    0.0000 O   0  0  0  0  0  0  0  0  0  0  0  0
   -1.7548    0.5505    0.0000 N   0  0  0  0  0  0  0  0  0  0  0  0
   -2.0248    1.3301    0.0000 C   0  0  0  0  0  0  0  0  0  0  0  0
   -2.8349    1.4860    0.0000 C   0  0  0  0  0  0  0  0  0  0  0  0
   -3.3750    0.8623    0.0000 O   0  0  0  0  0  0  0  0  0  0  0  0
   -3.1050    2.2655    0.0000 C   0  0  0  0  0  0  0  0  0  0  0  0
   -2.5649    2.8892    0.0000 O   0  0  0  0  0  0  0  0  0  0  0  0
   -3.9151    2.4214    0.0000 N   0  0  0  0  0  0  0  0  0  0  0  0
   -4.1852    3.2010    0.0000 C   0  0  0  0  0  0  0  0  0  0  0  0
   -4.8088    3.7411    0.0000 C   0  0  0  0  0  0  0  0  0  0  0  0
   -4.0292    4.0111    0.0000 C   0  0  0  0  0  0  0  0  0  0  0  0
   -1.4847    1.9537    0.0000 C   0  0  0  0  0  0  0  0  0  0  0  0
   -0.6746    1.7978    0.0000 C   0  0  0  0  0  0  0  0  0  0  0  0
   -0.1345    2.4214    0.0000 C   0  0  0  0  0  0  0  0  0  0  0  0
    0.6755    2.2655    0.0000 C   0  0  0  0  0  0  0  0  0  0  0  0
   -1.4675   -1.8215    0.0000 C   0  0  1  0  0  0  0  0  0  0  0  0
   -2.2919   -1.8519    0.0000 C   0  0  0  0  0  0  0  0  0  0  0  0
   -1.7209   -2.6066    0.0000 C   0  0  0  0  0  0  0  0  0  0  0  0
  2  1  1  6  0  0  0
  2  3  1  0  0  0  0
  3  4  1  0  0  0  0
  4  5  1  0  0  0  0
  1  5  1  0  0  0  0
  5  6  1  0  0  0  0
  6  7  2  0  0  0  0
  6  8  1  0  0  0  0
  8  9  1  0  0  0  0
  9 10  1  0  0  0  0
  9 11  1  0  0  0  0
  9 12  1  0  0  0  0
  8 13  1  0  0  0  0
 13 14  1  0  0  0  0
 14 15  2  0  0  0  0
 14 16  1  0  0  0  0
 16 17  1  0  0  0  0
 17 18  1  0  0  0  0
 18 19  1  0  0  0  0
 19 20  1  0  0  0  0
 20 21  1  0  0  0  0
 21 22  1  0  0  0  0
 17 22  1  0  0  0  0
 17 23  1  0  0  0  0
 23 24  1  0  0  0  0
 24 25  2  0  0  0  0
 24 26  2  0  0  0  0
 24 27  1  0  0  0  0
 27 28  1  0  0  0  0
 27 29  1  0  0  0  0
 27 30  1  0  0  0  0
  4 31  1  0  0  0  0
 31 32  2  0  0  0  0
 31 33  1  0  0  0  0
 33 34  1  0  0  0  0
 34 35  1  0  0  0  0
 35 36  2  0  0  0  0
 35 37  1  0  0  0  0
 37 38  2  0  0  0  0
 37 39  1  0  0  0  0
 39 40  1  0  0  0  0
 40 41  1  0  0  0  0
 41 42  1  0  0  0  0
 40 42  1  0  0  0  0
 34 43  1  0  0  0  0
 43 44  1  0  0  0  0
 44 45  1  0  0  0  0
 45 46  1  0  0  0  0
  3 47  1  6  0  0  0
  2 47  1  0  0  0  0
 47 48  1  6  0  0  0
 47 49  1  1  0  0  0
M  END
> <DATABASE_ID>
DB14760

> <DATABASE_NAME>
drugbank

> <SMILES>
CCCCC(NC(=O)C1[C@@H]2[C@H](CN1C(=O)C(NC(=O)NC1(CS(=O)(=O)C(C)(C)C)CCCCC1)C(C)(C)C)C2(C)C)C(=O)C(=O)NC1CC1

> <INCHI_IDENTIFIER>
InChI=1S/C36H61N5O7S/c1-10-11-15-24(27(42)30(44)37-22-16-17-22)38-29(43)26-25-23(35(25,8)9)20-41(26)31(45)28(33(2,3)4)39-32(46)40-36(18-13-12-14-19-36)21-49(47,48)34(5,6)7/h22-26,28H,10-21H2,1-9H3,(H,37,44)(H,38,43)(H2,39,40,46)/t23-,24?,25-,26?,28?/m0/s1

> <INCHI_KEY>
RICZEKWVNZFTNZ-IOBYQIKSSA-N

> <FORMULA>
C36H61N5O7S

> <MOLECULAR_WEIGHT>
707.97

> <EXACT_MASS>
707.429170498

> <JCHEM_ACCEPTOR_COUNT>
7

> <JCHEM_ATOM_COUNT>
110

> <JCHEM_AVERAGE_POLARIZABILITY>
76.76168516303642

> <JCHEM_BIOAVAILABILITY>
0

> <JCHEM_DONOR_COUNT>
4

> <JCHEM_FORMAL_CHARGE>
0

> <JCHEM_GHOSE_FILTER>
0

> <JCHEM_IUPAC>
N-cyclopropyl-3-{[(1R,5S)-3-{3,3-dimethyl-2-[({1-[(2-methylpropane-2-sulfonyl)methyl]cyclohexyl}carbamoyl)amino]butanoyl}-6,6-dimethyl-3-azabicyclo[3.1.0]hexan-2-yl]formamido}-2-oxoheptanamide

> <ALOGPS_LOGP>
3.44

> <JCHEM_LOGP>
3.500543234333331

> <ALOGPS_LOGS>
-4.87

> <JCHEM_MDDR_LIKE_RULE>
1

> <JCHEM_NUMBER_OF_RINGS>
4

> <JCHEM_PHYSIOLOGICAL_CHARGE>
0

> <JCHEM_PKA>
12.887807693383673

> <JCHEM_PKA_STRONGEST_ACIDIC>
12.316819771036807

> <JCHEM_PKA_STRONGEST_BASIC>
-0.4051174328350259

> <JCHEM_POLAR_SURFACE_AREA>
170.85

> <JCHEM_REFRACTIVITY>
186.28570000000005

> <JCHEM_ROTATABLE_BOND_COUNT>
15

> <JCHEM_RULE_OF_FIVE>
0

> <ALOGPS_SOLUBILITY>
9.64e-03 g/l

> <JCHEM_TRADITIONAL_IUPAC>
narlaprevir

> <JCHEM_VEBER_RULE>
0

> <DRUGBANK_ID>
DB14760

> <DRUG_GROUPS>
experimental

> <GENERIC_NAME>
Narlaprevir

> <SYNONYMS>
Narlaprevir

$$$$
