
  Mrv1652310211601082D          

 38 41  0  0  1  0            999 V2000
   10.0026   -2.4750    0.0000 C   0  0  0  0  0  0  0  0  0  0  0  0
    9.2881   -2.8875    0.0000 C   0  0  0  0  0  0  0  0  0  0  0  0
    9.2881   -3.7125    0.0000 O   0  0  0  0  0  0  0  0  0  0  0  0
    8.5737   -2.4750    0.0000 O   0  0  0  0  0  0  0  0  0  0  0  0
    8.5737   -1.6500    0.0000 C   0  0  2  0  0  0  0  0  0  0  0  0
    9.2881   -1.2375    0.0000 C   0  0  0  0  0  0  0  0  0  0  0  0
    9.2881   -0.4125    0.0000 C   0  0  1  0  0  0  0  0  0  0  0  0
    8.5737    0.0000    0.0000 C   0  0  1  0  0  0  0  0  0  0  0  0
    8.7452    0.8070    0.0000 C   0  0  0  0  0  0  0  0  0  0  0  0
    9.5657    0.8932    0.0000 C   0  0  0  0  0  0  0  0  0  0  0  0
    9.9012    0.1395    0.0000 C   0  0  0  0  0  0  0  0  0  0  0  0
   10.7082   -0.0320    0.0000 O   0  0  0  0  0  0  0  0  0  0  0  0
    7.8592   -0.4125    0.0000 C   0  0  0  0  0  0  0  0  0  0  0  0
    7.8592   -1.2375    0.0000 C   0  0  0  0  0  0  0  0  0  0  0  0
    7.1447   -1.6500    0.0000 C   0  0  1  0  0  0  0  0  0  0  0  0
    7.1447   -2.4750    0.0000 C   0  0  2  0  0  0  0  0  0  0  0  0
    6.4302   -2.8875    0.0000 O   0  0  0  0  0  0  0  0  0  0  0  0
    5.7158   -2.4750    0.0000 C   0  0  0  0  0  0  0  0  0  0  0  0
    5.0013   -2.8875    0.0000 O   0  0  0  0  0  0  0  0  0  0  0  0
    5.7158   -1.6500    0.0000 C   0  0  0  0  0  0  0  0  0  0  0  0
    5.0013   -1.2375    0.0000 C   0  0  0  0  0  0  0  0  0  0  0  0
    5.0013   -0.4125    0.0000 N   0  0  0  0  0  0  0  0  0  0  0  0
    4.2868    0.0000    0.0000 C   0  0  0  0  0  0  0  0  0  0  0  0
    4.2868    0.8250    0.0000 C   0  0  0  0  0  0  0  0  0  0  0  0
    3.5724    1.2375    0.0000 C   0  0  0  0  0  0  0  0  0  0  0  0
    5.7158    0.0000    0.0000 C   0  0  0  0  0  0  0  0  0  0  0  0
    5.7158    0.8250    0.0000 C   0  0  0  0  0  0  0  0  0  0  0  0
    5.0013    1.2375    0.0000 C   0  0  0  0  0  0  0  0  0  0  0  0
    6.4302   -1.2375    0.0000 C   0  0  0  0  0  0  0  0  0  0  0  0
    6.4302   -0.4125    0.0000 C   0  0  0  0  0  0  0  0  0  0  0  0
    7.1447    0.0000    0.0000 C   0  0  0  0  0  0  0  0  0  0  0  0
    7.1447    0.8250    0.0000 O   0  0  0  0  0  0  0  0  0  0  0  0
    6.0947    0.3412    0.0000 O   0  0  0  0  0  0  0  0  0  0  0  0
    7.8592   -2.8875    0.0000 C   0  0  0  0  0  0  0  0  0  0  0  0
    7.8592   -3.7125    0.0000 O   0  0  0  0  0  0  0  0  0  0  0  0
    7.1447   -4.1250    0.0000 C   0  0  0  0  0  0  0  0  0  0  0  0
    7.8592   -2.0625    0.0000 C   0  0  0  0  0  0  0  0  0  0  0  0
   10.0418   -0.7481    0.0000 C   0  0  0  0  0  0  0  0  0  0  0  0
  1  2  1  0  0  0  0
  2  3  2  0  0  0  0
  2  4  1  0  0  0  0
  5  4  1  1  0  0  0
  5  6  1  0  0  0  0
  6  7  1  0  0  0  0
  7  8  1  0  0  0  0
  8  9  1  6  0  0  0
  9 10  1  0  0  0  0
 10 11  1  0  0  0  0
  7 11  1  0  0  0  0
 11 12  2  0  0  0  0
  8 13  1  0  0  0  0
 13 14  2  0  0  0  0
  5 14  1  0  0  0  0
 14 15  1  0  0  0  0
 15 16  1  0  0  0  0
 16 17  1  0  0  0  0
 17 18  1  0  0  0  0
 18 19  2  0  0  0  0
 18 20  1  0  0  0  0
 20 21  2  0  0  0  0
 21 22  1  0  0  0  0
 22 23  1  0  0  0  0
 23 24  1  0  0  0  0
 24 25  2  0  0  0  0
 22 26  1  0  0  0  0
 26 27  1  0  0  0  0
 27 28  2  0  0  0  0
 20 29  1  0  0  0  0
 15 29  1  0  0  0  0
 29 30  2  0  0  0  0
 30 31  1  0  0  0  0
 13 31  1  0  0  0  0
 31 32  2  0  0  0  0
 30 33  1  0  0  0  0
 16 34  1  1  0  0  0
 34 35  1  0  0  0  0
 35 36  1  0  0  0  0
 15 37  1  6  0  0  0
  7 38  1  6  0  0  0
M  END
> <DATABASE_ID>
DB12601

> <DATABASE_NAME>
drugbank

> <SMILES>
COC[C@H]1OC(=O)\C(=C\N(CC=C)CC=C)C2=C(O)C(=O)C3=C([C@@H](C[C@@]4(C)[C@H]3CCC4=O)OC(C)=O)[C@@]12C

> <INCHI_IDENTIFIER>
InChI=1S/C29H35NO8/c1-7-11-30(12-8-2)14-17-23-26(34)25(33)22-18-9-10-20(32)28(18,4)13-19(37-16(3)31)24(22)29(23,5)21(15-36-6)38-27(17)35/h7-8,14,18-19,21,34H,1-2,9-13,15H2,3-6H3/b17-14+/t18-,19+,21+,28-,29-/m0/s1

> <INCHI_KEY>
QIUASFSNWYMDFS-NILGECQDSA-N

> <FORMULA>
C29H35NO8

> <MOLECULAR_WEIGHT>
525.598

> <EXACT_MASS>
525.236267091

> <JCHEM_ACCEPTOR_COUNT>
7

> <JCHEM_ATOM_COUNT>
73

> <JCHEM_AVERAGE_POLARIZABILITY>
54.56900145683146

> <JCHEM_BIOAVAILABILITY>
1

> <JCHEM_DONOR_COUNT>
1

> <JCHEM_FORMAL_CHARGE>
0

> <JCHEM_GHOSE_FILTER>
0

> <JCHEM_IUPAC>
(2R,3S,6E,11R,15S,17R)-6-{[bis(prop-2-en-1-yl)amino]methylidene}-8-hydroxy-3-(methoxymethyl)-2,15-dimethyl-5,9,14-trioxo-4-oxatetracyclo[8.7.0.0^{2,7}.0^{11,15}]heptadeca-1(10),7-dien-17-yl acetate

> <ALOGPS_LOGP>
2.76

> <JCHEM_LOGP>
2.513887303999999

> <ALOGPS_LOGS>
-4.29

> <JCHEM_MDDR_LIKE_RULE>
1

> <JCHEM_NUMBER_OF_RINGS>
4

> <JCHEM_PHYSIOLOGICAL_CHARGE>
0

> <JCHEM_PKA>
19.708467705198835

> <JCHEM_PKA_STRONGEST_ACIDIC>
8.489856708941462

> <JCHEM_PKA_STRONGEST_BASIC>
-2.7581267023797547

> <JCHEM_POLAR_SURFACE_AREA>
119.44000000000003

> <JCHEM_REFRACTIVITY>
141.1477

> <JCHEM_ROTATABLE_BOND_COUNT>
9

> <JCHEM_RULE_OF_FIVE>
0

> <ALOGPS_SOLUBILITY>
2.67e-02 g/l

> <JCHEM_TRADITIONAL_IUPAC>
(2R,3S,6E,11R,15S,17R)-6-{[bis(prop-2-en-1-yl)amino]methylidene}-8-hydroxy-3-(methoxymethyl)-2,15-dimethyl-5,9,14-trioxo-4-oxatetracyclo[8.7.0.0^{2,7}.0^{11,15}]heptadeca-1(10),7-dien-17-yl acetate

> <JCHEM_VEBER_RULE>
0

> <DRUGBANK_ID>
DB12601

> <DRUG_GROUPS>
investigational

> <GENERIC_NAME>
Sonolisib

> <SYNONYMS>
Sonolisib

$$$$
