
  Mrv1652306231722472D          

 10  9  0  0  0  0            999 V2000
    0.4125    3.5724    0.0000 C   0  0  0  0  0  0  0  0  0  0  0  0
    0.8250    2.8579    0.0000 N   0  3  0  0  0  0  0  0  0  0  0  0
    0.1105    2.4454    0.0000 C   0  0  0  0  0  0  0  0  0  0  0  0
    1.5395    3.2704    0.0000 C   0  0  0  0  0  0  0  0  0  0  0  0
    1.2375    2.1434    0.0000 N   0  0  0  0  0  0  0  0  0  0  0  0
    0.8250    1.4289    0.0000 C   0  0  0  0  0  0  0  0  0  0  0  0
    1.2375    0.7145    0.0000 C   0  0  0  0  0  0  0  0  0  0  0  0
    0.8250    0.0000    0.0000 C   0  0  0  0  0  0  0  0  0  0  0  0
    1.2375   -0.7145    0.0000 O   0  0  0  0  0  0  0  0  0  0  0  0
    0.0000    0.0000    0.0000 O   0  5  0  0  0  0  0  0  0  0  0  0
  1  2  1  0  0  0  0
  2  3  1  0  0  0  0
  2  4  1  0  0  0  0
  2  5  1  0  0  0  0
  5  6  1  0  0  0  0
  6  7  1  0  0  0  0
  7  8  1  0  0  0  0
  8  9  2  0  0  0  0
  8 10  1  0  0  0  0
M  CHG  2   2   1  10  -1
M  END
> <DATABASE_ID>
DB13723

> <DATABASE_NAME>
drugbank

> <SMILES>
C[N+](C)(C)NCCC([O-])=O

> <INCHI_IDENTIFIER>
InChI=1S/C6H14N2O2/c1-8(2,3)7-5-4-6(9)10/h7H,4-5H2,1-3H3

> <INCHI_KEY>
PVBQYTCFVWZSJK-UHFFFAOYSA-N

> <FORMULA>
C6H14N2O2

> <MOLECULAR_WEIGHT>
146.19

> <EXACT_MASS>
146.105527699

> <JCHEM_ACCEPTOR_COUNT>
3

> <JCHEM_ATOM_COUNT>
24

> <JCHEM_AVERAGE_POLARIZABILITY>
15.61739062376122

> <JCHEM_BIOAVAILABILITY>
1

> <JCHEM_DONOR_COUNT>
1

> <JCHEM_FORMAL_CHARGE>
0

> <JCHEM_GHOSE_FILTER>
0

> <JCHEM_IUPAC>
3-(2,2,2-trimethylhydrazin-2-ium-1-yl)propanoate

> <ALOGPS_LOGP>
-2.65

> <JCHEM_LOGP>
-1.374387106471746

> <ALOGPS_LOGS>
-0.99

> <JCHEM_MDDR_LIKE_RULE>
0

> <JCHEM_NUMBER_OF_RINGS>
0

> <JCHEM_PHYSIOLOGICAL_CHARGE>
1

> <JCHEM_PKA_STRONGEST_ACIDIC>
4.13850892746921

> <JCHEM_POLAR_SURFACE_AREA>
52.16

> <JCHEM_REFRACTIVITY>
61.82280000000001

> <JCHEM_ROTATABLE_BOND_COUNT>
4

> <JCHEM_RULE_OF_FIVE>
1

> <ALOGPS_SOLUBILITY>
2.02e+01 g/l

> <JCHEM_TRADITIONAL_IUPAC>
3-(2,2,2-trimethylhydrazin-2-ium-1-yl)propanoate

> <JCHEM_VEBER_RULE>
0

> <DRUGBANK_ID>
DB13723

> <DRUG_GROUPS>
experimental

> <GENERIC_NAME>
Meldonium

> <SYNONYMS>
Meldonium

$$$$
