
  Mrv1652309121709232D          

 17 17  0  0  0  0            999 V2000
    1.2822    3.1768    0.0000 C   0  0  0  0  0  0  0  0  0  0  0  0
    1.2822    2.3518    0.0000 C   0  0  0  0  0  0  0  0  0  0  0  0
    0.5678    1.9393    0.0000 C   0  0  0  0  0  0  0  0  0  0  0  0
    0.5678    1.1143    0.0000 C   0  0  0  0  0  0  0  0  0  0  0  0
    1.2352    0.6294    0.0000 C   0  0  0  0  0  0  0  0  0  0  0  0
    0.9803   -0.1553    0.0000 C   0  0  0  0  0  0  0  0  0  0  0  0
    0.1553   -0.1553    0.0000 C   0  0  0  0  0  0  0  0  0  0  0  0
   -0.0997    0.6294    0.0000 O   0  0  0  0  0  0  0  0  0  0  0  0
   -0.3297   -0.8227    0.0000 C   0  0  0  0  0  0  0  0  0  0  0  0
    0.0059   -1.5764    0.0000 C   0  0  0  0  0  0  0  0  0  0  0  0
   -0.4790   -2.2438    0.0000 C   0  0  0  0  0  0  0  0  0  0  0  0
   -0.1435   -2.9975    0.0000 O   0  0  0  0  0  0  0  0  0  0  0  0
   -1.2995   -2.1576    0.0000 O   0  0  0  0  0  0  0  0  0  0  0  0
    1.4652   -0.8227    0.0000 C   0  0  0  0  0  0  0  0  0  0  0  0
    1.1296   -1.5764    0.0000 O   0  0  0  0  0  0  0  0  0  0  0  0
    2.2857   -0.7365    0.0000 O   0  0  0  0  0  0  0  0  0  0  0  0
    2.0198    0.8843    0.0000 C   0  0  0  0  0  0  0  0  0  0  0  0
  1  2  1  0  0  0  0
  2  3  1  0  0  0  0
  3  4  1  0  0  0  0
  4  5  2  0  0  0  0
  5  6  1  0  0  0  0
  6  7  2  0  0  0  0
  7  8  1  0  0  0  0
  4  8  1  0  0  0  0
  7  9  1  0  0  0  0
  9 10  1  0  0  0  0
 10 11  1  0  0  0  0
 11 12  2  0  0  0  0
 11 13  1  0  0  0  0
  6 14  1  0  0  0  0
 14 15  2  0  0  0  0
 14 16  1  0  0  0  0
  5 17  1  0  0  0  0
M  END
> <DATABASE_ID>
DB07517

> <DATABASE_NAME>
drugbank

> <SMILES>
CCCC1=C(C)C(C(O)=O)=C(CCC(O)=O)O1

> <INCHI_IDENTIFIER>
InChI=1S/C12H16O5/c1-3-4-8-7(2)11(12(15)16)9(17-8)5-6-10(13)14/h3-6H2,1-2H3,(H,13,14)(H,15,16)

> <INCHI_KEY>
WMCQWXZMVIETAO-UHFFFAOYSA-N

> <FORMULA>
C12H16O5

> <MOLECULAR_WEIGHT>
240.2524

> <EXACT_MASS>
240.099773622

> <JCHEM_ACCEPTOR_COUNT>
4

> <JCHEM_ATOM_COUNT>
33

> <JCHEM_AVERAGE_POLARIZABILITY>
25.26012299065896

> <JCHEM_BIOAVAILABILITY>
1

> <JCHEM_DONOR_COUNT>
2

> <JCHEM_FORMAL_CHARGE>
0

> <JCHEM_GHOSE_FILTER>
1

> <JCHEM_IUPAC>
2-(2-carboxyethyl)-4-methyl-5-propylfuran-3-carboxylic acid

> <ALOGPS_LOGP>
1.68

> <JCHEM_LOGP>
2.2975586346666668

> <ALOGPS_LOGS>
-3.04

> <JCHEM_MDDR_LIKE_RULE>
0

> <JCHEM_NUMBER_OF_RINGS>
1

> <JCHEM_PHYSIOLOGICAL_CHARGE>
-2

> <JCHEM_PKA>
4.784928733133732

> <JCHEM_PKA_STRONGEST_ACIDIC>
3.8672044770544063

> <JCHEM_PKA_STRONGEST_BASIC>
-2.9255026501474064

> <JCHEM_POLAR_SURFACE_AREA>
87.74

> <JCHEM_REFRACTIVITY>
61.083600000000004

> <JCHEM_ROTATABLE_BOND_COUNT>
6

> <JCHEM_RULE_OF_FIVE>
1

> <ALOGPS_SOLUBILITY>
2.17e-01 g/l

> <JCHEM_TRADITIONAL_IUPAC>
2-(2-carboxyethyl)-4-methyl-5-propylfuran-3-carboxylic acid

> <JCHEM_VEBER_RULE>
0

> <DRUGBANK_ID>
DB07517

> <DRUG_GROUPS>
experimental

> <GENERIC_NAME>
3-CARBOXY-4-METHYL-5-PROPYL-2-FURANPROPIONIC

$$$$
