
  Mrv1909 12152018142D          

 35 38  0  0  0  0            999 V2000
    5.2520   -0.3020    0.0000 C   0  0  0  0  0  0  0  0  0  0  0  0
    4.8395    0.4125    0.0000 O   0  0  0  0  0  0  0  0  0  0  0  0
    4.0145    0.4125    0.0000 C   0  0  0  0  0  0  0  0  0  0  0  0
    3.6020    1.1270    0.0000 C   0  0  0  0  0  0  0  0  0  0  0  0
    4.0145    1.8414    0.0000 O   0  0  0  0  0  0  0  0  0  0  0  0
    3.6020    2.5559    0.0000 C   0  0  0  0  0  0  0  0  0  0  0  0
    2.7770    1.1270    0.0000 C   0  0  0  0  0  0  0  0  0  0  0  0
    2.3645    0.4125    0.0000 C   0  0  0  0  0  0  0  0  0  0  0  0
    2.7770   -0.3020    0.0000 C   0  0  0  0  0  0  0  0  0  0  0  0
    2.3645   -1.0164    0.0000 C   0  0  0  0  0  0  0  0  0  0  0  0
    1.5395   -1.0164    0.0000 C   0  0  0  0  0  0  0  0  0  0  0  0
    1.1270   -0.3020    0.0000 N   0  0  0  0  0  0  0  0  0  0  0  0
    0.3020   -0.3020    0.0000 C   0  0  0  0  0  0  0  0  0  0  0  0
   -0.1105   -1.0164    0.0000 O   0  0  0  0  0  0  0  0  0  0  0  0
   -0.1105    0.4125    0.0000 N   0  0  0  0  0  0  0  0  0  0  0  0
   -0.9355    0.4125    0.0000 C   0  0  0  0  0  0  0  0  0  0  0  0
   -1.3480    1.1270    0.0000 C   0  0  0  0  0  0  0  0  0  0  0  0
   -2.1730    1.1270    0.0000 N   0  0  0  0  0  0  0  0  0  0  0  0
   -2.5855    1.8414    0.0000 C   0  0  0  0  0  0  0  0  0  0  0  0
   -3.4105    1.8414    0.0000 N   0  0  0  0  0  0  0  0  0  0  0  0
   -2.1730    2.5559    0.0000 O   0  0  0  0  0  0  0  0  0  0  0  0
    0.3020    1.1270    0.0000 C   0  0  0  0  0  0  0  0  0  0  0  0
    1.1270    1.1270    0.0000 C   0  0  0  0  0  0  0  0  0  0  0  0
    1.5395    0.4125    0.0000 C   0  0  0  0  0  0  0  0  0  0  0  0
   -0.1105    1.8414    0.0000 N   0  0  0  0  0  0  0  0  0  0  0  0
    0.3020    2.5559    0.0000 C   0  0  0  0  0  0  0  0  0  0  0  0
   -0.1105    3.2704    0.0000 C   0  0  0  0  0  0  0  0  0  0  0  0
   -0.9355    3.2704    0.0000 C   0  0  0  0  0  0  0  0  0  0  0  0
    0.3020    3.9849    0.0000 C   0  0  0  0  0  0  0  0  0  0  0  0
    1.1270    3.9849    0.0000 C   0  0  0  0  0  0  0  0  0  0  0  0
    1.5395    4.6993    0.0000 C   0  0  0  0  0  0  0  0  0  0  0  0
    1.5395    3.2704    0.0000 C   0  0  0  0  0  0  0  0  0  0  0  0
    1.1270    2.5559    0.0000 C   0  0  0  0  0  0  0  0  0  0  0  0
    1.5395    1.8414    0.0000 C   0  0  0  0  0  0  0  0  0  0  0  0
    3.6020   -0.3020    0.0000 C   0  0  0  0  0  0  0  0  0  0  0  0
  1  2  1  0  0  0  0
  2  3  1  0  0  0  0
  3  4  2  0  0  0  0
  4  5  1  0  0  0  0
  5  6  1  0  0  0  0
  4  7  1  0  0  0  0
  7  8  2  0  0  0  0
  8  9  1  0  0  0  0
  9 10  1  0  0  0  0
 10 11  1  0  0  0  0
 11 12  1  0  0  0  0
 12 13  1  0  0  0  0
 13 14  2  0  0  0  0
 13 15  1  0  0  0  0
 15 16  1  0  0  0  0
 16 17  1  0  0  0  0
 17 18  1  0  0  0  0
 18 19  1  0  0  0  0
 19 20  1  0  0  0  0
 19 21  2  0  0  0  0
 15 22  1  0  0  0  0
 22 23  1  0  0  0  0
 23 24  2  0  0  0  0
  8 24  1  0  0  0  0
 12 24  1  0  0  0  0
 22 25  2  0  0  0  0
 25 26  1  0  0  0  0
 26 27  2  0  0  0  0
 27 28  1  0  0  0  0
 27 29  1  0  0  0  0
 29 30  2  0  0  0  0
 30 31  1  0  0  0  0
 30 32  1  0  0  0  0
 32 33  2  0  0  0  0
 26 33  1  0  0  0  0
 33 34  1  0  0  0  0
  9 35  2  0  0  0  0
  3 35  1  0  0  0  0
M  END
> <DATABASE_ID>
DB16157

> <DATABASE_NAME>
drugbank

> <SMILES>
COC1=C(OC)C=C2C(CCN3C(=O)N(CCNC(N)=O)\C(C=C23)=N\C2=C(C)C=C(C)C=C2C)=C1

> <INCHI_IDENTIFIER>
InChI=1S/C26H31N5O4/c1-15-10-16(2)24(17(3)11-15)29-23-14-20-19-13-22(35-5)21(34-4)12-18(19)6-8-30(20)26(33)31(23)9-7-28-25(27)32/h10-14H,6-9H2,1-5H3,(H3,27,28,32)/b29-23+

> <INCHI_KEY>
CSOBIBXVIYAXFM-BYNJWEBRSA-N

> <FORMULA>
C26H31N5O4

> <MOLECULAR_WEIGHT>
477.565

> <EXACT_MASS>
477.237604498

> <JCHEM_ACCEPTOR_COUNT>
5

> <JCHEM_ATOM_COUNT>
66

> <JCHEM_AVERAGE_NEUTRAL_MICROSPECIES_CHARGE>
0.01651679177669932

> <JCHEM_AVERAGE_POLARIZABILITY>
52.809144100351276

> <JCHEM_BIOAVAILABILITY>
1

> <JCHEM_DONOR_COUNT>
2

> <JCHEM_FORMAL_CHARGE>
0

> <JCHEM_GHOSE_FILTER>
0

> <JCHEM_IUPAC>
{2-[(2E)-9,10-dimethoxy-4-oxo-2-[(2,4,6-trimethylphenyl)imino]-2H,3H,4H,6H,7H-pyrimido[4,3-a]isoquinolin-3-yl]ethyl}urea

> <ALOGPS_LOGP>
3.12

> <JCHEM_LOGP>
3.266718309

> <ALOGPS_LOGS>
-4.34

> <JCHEM_MDDR_LIKE_RULE>
1

> <JCHEM_NEUTRAL_CHARGE>
0

> <JCHEM_NUMBER_OF_RINGS>
4

> <JCHEM_PHYSIOLOGICAL_CHARGE>
0

> <JCHEM_PKA_STRONGEST_ACIDIC>
14.742443894104605

> <JCHEM_PKA_STRONGEST_BASIC>
5.225159227412862

> <JCHEM_POLAR_SURFACE_AREA>
109.49

> <JCHEM_REFRACTIVITY>
137.62129999999996

> <JCHEM_ROTATABLE_BOND_COUNT>
6

> <JCHEM_RULE_OF_FIVE>
1

> <ALOGPS_SOLUBILITY>
2.18e-02 g/l

> <JCHEM_TRADITIONAL_IUPAC>
2-methoxy-4-[(1E)-3-[4-(nitrooxy)butoxy]-3-oxoprop-1-en-1-yl]phenyl (4R)-4-[(1R,3aS,3bR,4S,5aS,7R,9aS,9bS,11aR)-4,7-dihydroxy-9a,11a-dimethyl-tetradecahydro-1H-cyclopenta[a]phenanthren-1-yl]pentanoate

> <JCHEM_VEBER_RULE>
0

> <DRUGBANK_ID>
DB16157

> <DRUG_GROUPS>
investigational

> <GENERIC_NAME>
Ensifentrine

> <SYNONYMS>
Ensifentrine

$$$$
