
  Mrv1652306231722442D          

 10  9  0  0  0  0            999 V2000
    0.8250    2.8579    0.0000 C   0  0  0  0  0  0  0  0  0  0  0  0
    0.4125    2.1434    0.0000 C   0  0  0  0  0  0  0  0  0  0  0  0
    0.8250    1.4289    0.0000 C   0  0  0  0  0  0  0  0  0  0  0  0
    0.1105    1.0164    0.0000 C   0  0  0  0  0  0  0  0  0  0  0  0
    1.5395    1.8414    0.0000 C   0  0  0  0  0  0  0  0  0  0  0  0
    2.2539    1.4289    0.0000 C   0  0  0  0  0  0  0  0  0  0  0  0
    1.2375    0.7145    0.0000 O   0  0  0  0  0  0  0  0  0  0  0  0
    0.8250    0.0000    0.0000 C   0  0  0  0  0  0  0  0  0  0  0  0
    1.2375   -0.7145    0.0000 O   0  0  0  0  0  0  0  0  0  0  0  0
    0.0000    0.0000    0.0000 N   0  0  0  0  0  0  0  0  0  0  0  0
  1  2  1  0  0  0  0
  2  3  1  0  0  0  0
  3  4  1  0  0  0  0
  3  5  1  0  0  0  0
  5  6  1  0  0  0  0
  3  7  1  0  0  0  0
  7  8  1  0  0  0  0
  8  9  2  0  0  0  0
  8 10  1  0  0  0  0
M  END
> <DATABASE_ID>
DB13572

> <DATABASE_NAME>
drugbank

> <SMILES>
CCC(C)(CC)OC(N)=O

> <INCHI_IDENTIFIER>
InChI=1S/C7H15NO2/c1-4-7(3,5-2)10-6(8)9/h4-5H2,1-3H3,(H2,8,9)

> <INCHI_KEY>
SLWGJZPKHAXZQL-UHFFFAOYSA-N

> <FORMULA>
C7H15NO2

> <MOLECULAR_WEIGHT>
145.202

> <EXACT_MASS>
145.110278727

> <JCHEM_ACCEPTOR_COUNT>
1

> <JCHEM_ATOM_COUNT>
25

> <JCHEM_AVERAGE_POLARIZABILITY>
16.060505045185963

> <JCHEM_BIOAVAILABILITY>
1

> <JCHEM_DONOR_COUNT>
1

> <JCHEM_FORMAL_CHARGE>
0

> <JCHEM_GHOSE_FILTER>
0

> <JCHEM_IUPAC>
3-methylpentan-3-yl carbamate

> <ALOGPS_LOGP>
1.66

> <JCHEM_LOGP>
1.6880072456666668

> <ALOGPS_LOGS>
-1.24

> <JCHEM_MDDR_LIKE_RULE>
0

> <JCHEM_NUMBER_OF_RINGS>
0

> <JCHEM_PHYSIOLOGICAL_CHARGE>
0

> <JCHEM_PKA_STRONGEST_ACIDIC>
15.928084112624283

> <JCHEM_POLAR_SURFACE_AREA>
52.32

> <JCHEM_REFRACTIVITY>
38.9431

> <JCHEM_ROTATABLE_BOND_COUNT>
4

> <JCHEM_RULE_OF_FIVE>
1

> <ALOGPS_SOLUBILITY>
8.38e+00 g/l

> <JCHEM_TRADITIONAL_IUPAC>
3-methyl-3-pentanol carbamate

> <JCHEM_VEBER_RULE>
0

> <DRUGBANK_ID>
DB13572

> <DRUG_GROUPS>
experimental

> <GENERIC_NAME>
Emylcamate

> <SYNONYMS>
Emylcamate

$$$$
