
  Mrv1572004221606552D          

 21 23  0  0  0  0            999 V2000
   -1.8212   -0.6979    0.0000 C   0  0  0  0  0  0  0  0  0  0  0  0
   -1.4087   -1.4124    0.0000 C   0  0  0  0  0  0  0  0  0  0  0  0
   -1.4087    0.0165    0.0000 C   0  0  0  0  0  0  0  0  0  0  0  0
   -0.5837   -1.4124    0.0000 C   0  0  0  0  0  0  0  0  0  0  0  0
   -0.5837    0.0165    0.0000 C   0  0  0  0  0  0  0  0  0  0  0  0
    2.6378    0.1271    0.0000 C   0  0  0  0  0  0  0  0  0  0  0  0
    2.6378   -1.5229    0.0000 C   0  0  0  0  0  0  0  0  0  0  0  0
    1.1387   -0.0305    0.0000 C   0  0  0  0  0  0  0  0  0  0  0  0
    1.9233   -0.2854    0.0000 C   0  0  0  0  0  0  0  0  0  0  0  0
   -0.1712   -0.6979    0.0000 C   0  0  0  0  0  0  0  0  0  0  0  0
    1.9233   -1.1104    0.0000 C   0  0  0  0  0  0  0  0  0  0  0  0
    3.3523   -0.2854    0.0000 C   0  0  0  0  0  0  0  0  0  0  0  0
    3.3523   -1.1104    0.0000 C   0  0  0  0  0  0  0  0  0  0  0  0
    1.1387   -1.3654    0.0000 C   0  0  0  0  0  0  0  0  0  0  0  0
    4.0668    0.1271    0.0000 Cl  0  0  0  0  0  0  0  0  0  0  0  0
    4.7812   -1.9354    0.0000 N   0  0  0  0  0  0  0  0  0  0  0  0
    0.6538   -0.6979    0.0000 N   0  0  0  0  0  0  0  0  0  0  0  0
    0.8838   -2.1500    0.0000 O   0  0  0  0  0  0  0  0  0  0  0  0
    3.6543   -2.2374    0.0000 O   0  0  0  0  0  0  0  0  0  0  0  0
    4.4793   -0.8085    0.0000 O   0  0  0  0  0  0  0  0  0  0  0  0
    4.0668   -1.5229    0.0000 S   0  0  0  0  0  0  0  0  0  0  0  0
  2  1  1  0  0  0  0
  3  1  1  0  0  0  0
  4  2  1  0  0  0  0
  5  3  1  0  0  0  0
  9  6  2  0  0  0  0
  9  8  1  0  0  0  0
 10  4  1  0  0  0  0
 10  5  1  0  0  0  0
 11  7  2  0  0  0  0
 11  9  1  0  0  0  0
 12  6  1  0  0  0  0
 13  7  1  0  0  0  0
 13 12  2  0  0  0  0
 14 11  1  0  0  0  0
 15 12  1  0  0  0  0
 17  8  1  0  0  0  0
 17 10  1  0  0  0  0
 17 14  1  0  0  0  0
 18 14  2  0  0  0  0
 21 13  1  0  0  0  0
 21 16  1  0  0  0  0
 21 19  2  0  0  0  0
 21 20  2  0  0  0  0
M  END
> <DATABASE_ID>
DB13617

> <DATABASE_NAME>
drugbank

> <SMILES>
NS(=O)(=O)C1=C(Cl)C=C2CN(C3CCCCC3)C(=O)C2=C1

> <INCHI_IDENTIFIER>
InChI=1S/C14H17ClN2O3S/c15-12-6-9-8-17(10-4-2-1-3-5-10)14(18)11(9)7-13(12)21(16,19)20/h6-7,10H,1-5,8H2,(H2,16,19,20)

> <INCHI_KEY>
VPMWFZKOWULPGT-UHFFFAOYSA-N

> <FORMULA>
C14H17ClN2O3S

> <MOLECULAR_WEIGHT>
328.81

> <EXACT_MASS>
328.0648413

> <JCHEM_ACCEPTOR_COUNT>
3

> <JCHEM_ATOM_COUNT>
38

> <JCHEM_AVERAGE_POLARIZABILITY>
33.364874790170774

> <JCHEM_BIOAVAILABILITY>
1

> <JCHEM_DONOR_COUNT>
1

> <JCHEM_FORMAL_CHARGE>
0

> <JCHEM_GHOSE_FILTER>
1

> <JCHEM_IUPAC>
6-chloro-2-cyclohexyl-3-oxo-2,3-dihydro-1H-isoindole-5-sulfonamide

> <ALOGPS_LOGP>
2.61

> <JCHEM_LOGP>
2.0318115206666665

> <ALOGPS_LOGS>
-3.61

> <JCHEM_MDDR_LIKE_RULE>
0

> <JCHEM_NUMBER_OF_RINGS>
3

> <JCHEM_PHYSIOLOGICAL_CHARGE>
0

> <JCHEM_PKA>
13.53117345817942

> <JCHEM_PKA_STRONGEST_ACIDIC>
8.845770212745945

> <JCHEM_PKA_STRONGEST_BASIC>
-1.2409771667996066

> <JCHEM_POLAR_SURFACE_AREA>
80.47

> <JCHEM_REFRACTIVITY>
81.46129999999998

> <JCHEM_ROTATABLE_BOND_COUNT>
2

> <JCHEM_RULE_OF_FIVE>
1

> <ALOGPS_SOLUBILITY>
8.03e-02 g/l

> <JCHEM_TRADITIONAL_IUPAC>
clorexolone

> <JCHEM_VEBER_RULE>
0

> <DRUGBANK_ID>
DB13617

> <DRUG_GROUPS>
experimental

> <GENERIC_NAME>
Clorexolone

> <SYNONYMS>
Clorexolone

$$$$
