
  Mrv1572001271616342D          

 84 89  0  0  1  0            999 V2000
   -2.9215   -2.6062    0.0000 C   0  0  0  0  0  0  0  0  0  0  0  0
   -5.6395   -3.4893    0.0000 C   0  0  0  0  0  0  0  0  0  0  0  0
    4.4024   -0.8018    0.0000 C   0  0  0  0  0  0  0  0  0  0  0  0
    3.1649    1.3416    0.0000 C   0  0  0  0  0  0  0  0  0  0  0  0
    6.8774    0.6272    0.0000 C   0  0  0  0  0  0  0  0  0  0  0  0
   -5.6444    1.3017    0.0000 C   0  0  0  0  0  0  0  0  0  0  0  0
    0.4863    0.4177    0.0000 C   0  0  0  0  0  0  0  0  0  0  0  0
   -1.7233    0.5866    0.0000 C   0  0  0  0  0  0  0  0  0  0  0  0
   -6.0708   -2.4789    0.0000 C   0  0  0  0  0  0  0  0  0  0  0  0
   -4.6320    4.0987    0.0000 C   0  0  0  0  0  0  0  0  0  0  0  0
    6.8774    2.0561    0.0000 C   0  0  0  0  0  0  0  0  0  0  0  0
   -6.2256    2.6071    0.0000 C   0  0  0  0  0  0  0  0  0  0  0  0
    4.8149    2.7706    0.0000 C   0  0  0  0  0  0  0  0  0  0  0  0
   -0.5751   -1.1900    0.0000 C   0  0  0  0  0  0  0  0  0  0  0  0
   -1.3821   -1.0185    0.0000 C   0  0  0  0  0  0  0  0  0  0  0  0
    0.6579   -1.2143    0.0000 C   0  0  0  0  0  0  0  0  0  0  0  0
    1.4425   -1.4692    0.0000 C   0  0  0  0  0  0  0  0  0  0  0  0
   -4.2805   -3.0478    0.0000 C   0  0  0  0  0  0  0  0  0  0  0  0
   -3.6029   -0.2300    0.0000 C   0  0  0  0  0  0  0  0  0  0  0  0
   -3.3834    2.3084    0.0000 C   0  0  0  0  0  0  0  0  0  0  0  0
    2.3399   -1.5162    0.0000 C   0  0  0  0  0  0  0  0  0  0  0  0
    5.4967   -0.8998    0.0000 C   0  0  0  0  0  0  0  0  0  0  0  0
   -3.7284   -2.4347    0.0000 C   0  0  1  0  0  0  0  0  0  0  0  0
   -5.0874   -2.8762    0.0000 C   0  0  2  0  0  0  0  0  0  0  0  0
    3.5774   -0.8018    0.0000 C   0  0  2  0  0  0  0  0  0  0  0  0
    3.5774    0.6272    0.0000 C   0  0  2  0  0  0  0  0  0  0  0  0
    6.0524    0.6272    0.0000 C   0  0  1  0  0  0  0  0  0  0  0  0
   -4.8907    1.6373    0.0000 C   0  0  1  0  0  0  0  0  0  0  0  0
    3.1649   -1.5162    0.0000 C   0  0  1  0  0  0  0  0  0  0  0  0
   -4.0508    2.7933    0.0000 C   0  0  1  0  0  0  0  0  0  0  0  0
   -3.4313   -1.0369    0.0000 C   0  0  2  0  0  0  0  0  0  0  0  0
   -2.8884    0.1825    0.0000 C   0  0  1  0  0  0  0  0  0  0  0  0
   -0.1626   -0.4755    0.0000 C   0  0  2  0  0  0  0  0  0  0  0  0
    6.1286   -1.4301    0.0000 C   0  0  0  0  0  0  0  0  0  0  0  0
   -3.4696    1.4879    0.0000 C   0  0  2  0  0  0  0  0  0  0  0  0
   -3.9834   -1.6500    0.0000 C   0  0  1  0  0  0  0  0  0  0  0  0
    3.1649   -0.0873    0.0000 C   0  0  1  0  0  0  0  0  0  0  0  0
    4.4024    0.6272    0.0000 C   0  0  1  0  0  0  0  0  0  0  0  0
    5.6399    1.3416    0.0000 C   0  0  1  0  0  0  0  0  0  0  0  0
   -4.8045    2.4578    0.0000 C   0  0  1  0  0  0  0  0  0  0  0  0
    4.8149    1.3416    0.0000 C   0  0  1  0  0  0  0  0  0  0  0  0
   -2.2753   -0.3695    0.0000 C   0  0  2  0  0  0  0  0  0  0  0  0
    0.6579   -0.3893    0.0000 C   0  0  2  0  0  0  0  0  0  0  0  0
   -1.4683   -0.1980    0.0000 C   0  0  2  0  0  0  0  0  0  0  0  0
   -5.3424   -2.0916    0.0000 C   0  0  2  0  0  0  0  0  0  0  0  0
    1.9274   -0.8018    0.0000 C   0  0  1  0  0  0  0  0  0  0  0  0
    5.6399   -0.0873    0.0000 C   0  0  1  0  0  0  0  0  0  0  0  0
    3.5774   -2.2307    0.0000 O   0  0  0  0  0  0  0  0  0  0  0  0
    6.9039   -1.1479    0.0000 O   0  0  0  0  0  0  0  0  0  0  0  0
    5.9854   -2.2425    0.0000 O   0  0  0  0  0  0  0  0  0  0  0  0
   -5.8503   -1.4415    0.0000 O   0  0  0  0  0  0  0  0  0  0  0  0
    6.4152   -0.3695    0.0000 O   0  0  0  0  0  0  0  0  0  0  0  0
   -3.9646    3.6138    0.0000 O   0  0  0  0  0  0  0  0  0  0  0  0
    6.0524    2.0561    0.0000 O   0  0  0  0  0  0  0  0  0  0  0  0
   -5.4719    2.9427    0.0000 O   0  0  0  0  0  0  0  0  0  0  0  0
    4.4024    2.0561    0.0000 O   0  0  0  0  0  0  0  0  0  0  0  0
   -4.2233    1.1524    0.0000 O   0  0  0  0  0  0  0  0  0  0  0  0
   -2.8022    1.0030    0.0000 O   0  0  0  0  0  0  0  0  0  0  0  0
   -2.6108   -1.1232    0.0000 O   0  0  0  0  0  0  0  0  0  0  0  0
   -0.7146    0.1376    0.0000 O   0  0  0  0  0  0  0  0  0  0  0  0
   -4.7903   -1.4785    0.0000 O   0  0  0  0  0  0  0  0  0  0  0  0
    2.3399   -0.0873    0.0000 O   0  0  0  0  0  0  0  0  0  0  0  0
    4.8149   -0.0873    0.0000 O   0  0  0  0  0  0  0  0  0  0  0  0
    1.4425   -0.1343    0.0000 O   0  0  0  0  0  0  0  0  0  0  0  0
    9.2610    0.0000    0.0000 N   0  0  0  0  0  0  0  0  0  0  0  0
   -3.1764   -1.8216    0.0000 H   0  0  0  0  0  0  0  0  0  0  0  0
   -5.8944   -2.7047    0.0000 H   0  0  0  0  0  0  0  0  0  0  0  0
    3.9899   -1.5162    0.0000 H   0  0  0  0  0  0  0  0  0  0  0  0
    2.7524    0.6272    0.0000 H   0  0  0  0  0  0  0  0  0  0  0  0
    6.4649    1.3416    0.0000 H   0  0  0  0  0  0  0  0  0  0  0  0
   -5.5581    2.1222    0.0000 H   0  0  0  0  0  0  0  0  0  0  0  0
    2.7524   -2.2307    0.0000 H   0  0  0  0  0  0  0  0  0  0  0  0
   -4.7182    3.2783    0.0000 H   0  0  0  0  0  0  0  0  0  0  0  0
   -4.2282   -0.8234    0.0000 H   0  0  0  0  0  0  0  0  0  0  0  0
   -2.1182    0.4782    0.0000 H   0  0  0  0  0  0  0  0  0  0  0  0
    0.1330    0.2947    0.0000 H   0  0  0  0  0  0  0  0  0  0  0  0
   -3.5558    0.6675    0.0000 H   0  0  0  0  0  0  0  0  0  0  0  0
   -4.5354   -2.2631    0.0000 H   0  0  0  0  0  0  0  0  0  0  0  0
    3.9899   -0.0873    0.0000 H   0  0  0  0  0  0  0  0  0  0  0  0
    3.9899    1.3416    0.0000 H   0  0  0  0  0  0  0  0  0  0  0  0
    5.2274    2.0561    0.0000 H   0  0  0  0  0  0  0  0  0  0  0  0
   -4.1370    1.9729    0.0000 H   0  0  0  0  0  0  0  0  0  0  0  0
    5.2274    0.6272    0.0000 H   0  0  0  0  0  0  0  0  0  0  0  0
   -1.7561   -1.0106    0.0000 H   0  0  0  0  0  0  0  0  0  0  0  0
 15 14  1  0  0  0  0
 17 16  1  0  0  0  0
 23  1  1  1  0  0  0
 23 18  1  0  0  0  0
 24  2  1  1  0  0  0
 24 18  1  0  0  0  0
 25  3  1  6  0  0  0
 26  4  1  1  0  0  0
 27  5  1  6  0  0  0
 28  6  1  1  0  0  0
 29 21  1  0  0  0  0
 29 25  1  0  0  0  0
 30 20  1  0  0  0  0
 31 19  1  0  0  0  0
 32 19  1  0  0  0  0
 33 14  1  0  0  0  0
 34 22  1  0  0  0  0
 35 20  1  0  0  0  0
 36 23  1  0  0  0  0
 31 36  1  1  0  0  0
 37 25  1  0  0  0  0
 37 26  1  6  0  0  0
 38 26  1  1  0  0  0
 39 27  1  0  0  0  0
 40 28  1  0  0  0  0
 40 30  1  0  0  0  0
 41 38  1  0  0  0  0
 41 39  1  0  0  0  0
 42 32  1  0  0  0  0
 43  7  1  6  0  0  0
 43 16  1  0  0  0  0
 33 43  1  1  0  0  0
 44  8  1  6  0  0  0
 44 15  1  0  0  0  0
 42 44  1  6  0  0  0
 45  9  1  6  0  0  0
 45 24  1  0  0  0  0
 46 17  1  0  0  0  0
 46 21  1  0  0  0  0
 47 22  1  1  0  0  0
 47 27  1  0  0  0  0
 29 48  1  1  0  0  0
 49 34  2  0  0  0  0
 50 34  1  0  0  0  0
 45 51  1  1  0  0  0
 47 52  1  6  0  0  0
 53 10  1  0  0  0  0
 30 53  1  1  0  0  0
 54 11  1  0  0  0  0
 39 54  1  1  0  0  0
 55 12  1  0  0  0  0
 40 55  1  1  0  0  0
 56 13  1  0  0  0  0
 41 56  1  1  0  0  0
 57 28  1  0  0  0  0
 57 35  1  0  0  0  0
 32 58  1  6  0  0  0
 35 58  1  1  0  0  0
 59 31  1  0  0  0  0
 59 42  1  0  0  0  0
 60 33  1  0  0  0  0
 60 44  1  0  0  0  0
 61 36  1  0  0  0  0
 61 45  1  0  0  0  0
 62 37  1  0  0  0  0
 62 46  1  0  0  0  0
 63 38  1  0  0  0  0
 63 47  1  0  0  0  0
 64 43  1  0  0  0  0
 46 64  1  1  0  0  0
 23 66  1  6  0  0  0
 24 67  1  6  0  0  0
 25 68  1  1  0  0  0
 26 69  1  6  0  0  0
 27 70  1  1  0  0  0
 28 71  1  6  0  0  0
 29 72  1  6  0  0  0
 30 73  1  6  0  0  0
 31 74  1  6  0  0  0
 32 75  1  1  0  0  0
 33 76  1  6  0  0  0
 35 77  1  6  0  0  0
 36 78  1  1  0  0  0
 37 79  1  1  0  0  0
 38 80  1  6  0  0  0
 39 81  1  6  0  0  0
 40 82  1  1  0  0  0
 41 83  1  1  0  0  0
 42 84  1  1  0  0  0
M  END
> <DATABASE_ID>
DB11525

> <DATABASE_NAME>
drugbank

> <SMILES>
N.[H][C@@](C)([C@@]1([H])O[C@@]2(CC[C@](C)(O2)[C@@]2([H])CC[C@](C)(O2)[C@]2([H])O[C@]([H])(C[C@]2([H])O[C@]2([H])C[C@]([H])(OC)[C@@]([H])(OC)[C@]([H])(C)O2)[C@@]2([H])O[C@](C)(O)[C@]([H])(C)C[C@]2([H])C)C[C@]([H])(O)[C@@]1([H])C)[C@]1([H])O[C@](O)(CC(O)=O)[C@@]([H])(C)[C@]([H])(OC)[C@@]1([H])OC

> <INCHI_IDENTIFIER>
InChI=1S/C47H80O17.H3N/c1-23-18-24(2)45(9,51)61-36(23)31-19-32(58-35-20-30(53-10)40(55-12)28(6)57-35)42(59-31)44(8)15-14-33(60-44)43(7)16-17-46(64-43)21-29(48)25(3)37(62-46)26(4)38-41(56-13)39(54-11)27(5)47(52,63-38)22-34(49)50;/h23-33,35-42,48,51-52H,14-22H2,1-13H3,(H,49,50);1H3/t23-,24+,25+,26+,27-,28-,29-,30-,31+,32-,33+,35+,36-,37-,38-,39-,40-,41-,42+,43-,44-,45-,46+,47+;/m0./s1

> <INCHI_KEY>
WQGJEAMPBSZCIF-HKSLRPGUSA-N

> <FORMULA>
C47H83NO17

> <MOLECULAR_WEIGHT>
934.171

> <EXACT_MASS>
933.566100217

> <JCHEM_ACCEPTOR_COUNT>
17

> <JCHEM_ATOM_COUNT>
148

> <JCHEM_AVERAGE_POLARIZABILITY>
99.84102070877819

> <JCHEM_BIOAVAILABILITY>
0

> <JCHEM_DONOR_COUNT>
4

> <JCHEM_FORMAL_CHARGE>
0

> <JCHEM_GHOSE_FILTER>
0

> <JCHEM_IUPAC>
2-[(2R,3S,4S,5R,6S)-6-[(1R)-1-[(2S,5R,7S,8R,9S)-2-[(2S,2'R,3'S,5R,5'R)-3'-{[(2R,4S,5S,6S)-4,5-dimethoxy-6-methyloxan-2-yl]oxy}-5'-[(2S,3S,5R,6S)-6-hydroxy-3,5,6-trimethyloxan-2-yl]-2-methyl-[2,2'-bioxolane]-5-yl]-9-hydroxy-2,8-dimethyl-1,6-dioxaspiro[4.5]decan-7-yl]ethyl]-2-hydroxy-4,5-dimethoxy-3-methyloxan-2-yl]acetic acid amine

> <ALOGPS_LOGP>
2.22

> <JCHEM_LOGP>
4.773507452666665

> <ALOGPS_LOGS>
-4.77

> <JCHEM_MDDR_LIKE_RULE>
1

> <JCHEM_NUMBER_OF_RINGS>
7

> <JCHEM_PHYSIOLOGICAL_CHARGE>
-1

> <JCHEM_PKA>
11.601708936684355

> <JCHEM_PKA_STRONGEST_ACIDIC>
4.007434245318878

> <JCHEM_PKA_STRONGEST_BASIC>
-2.9289581892304097

> <JCHEM_POLAR_SURFACE_AREA>
208.74999999999994

> <JCHEM_REFRACTIVITY>
227.28170000000003

> <JCHEM_ROTATABLE_BOND_COUNT>
13

> <JCHEM_RULE_OF_FIVE>
0

> <ALOGPS_SOLUBILITY>
1.57e-02 g/l

> <JCHEM_TRADITIONAL_IUPAC>
[(2R,3S,4S,5R,6S)-6-[(1R)-1-[(2S,5R,7S,8R,9S)-2-[(2S,2'R,3'S,5R,5'R)-3'-{[(2R,4S,5S,6S)-4,5-dimethoxy-6-methyloxan-2-yl]oxy}-5'-[(2S,3S,5R,6S)-6-hydroxy-3,5,6-trimethyloxan-2-yl]-2-methyl-[2,2'-bioxolane]-5-yl]-9-hydroxy-2,8-dimethyl-1,6-dioxaspiro[4.5]decan-7-yl]ethyl]-2-hydroxy-4,5-dimethoxy-3-methyloxan-2-yl]acetic acid amine

> <JCHEM_VEBER_RULE>
0

> <DRUGBANK_ID>
DB11525

> <DRUG_GROUPS>
vet_approved

> <GENERIC_NAME>
Maduramicin

> <SYNONYMS>
Maduramicin

> <SALTS>
Maduramicin ammonium

$$$$
