
  Mrv1572004221603042D          

 17 17  0  0  0  0            999 V2000
   -3.5724    3.7125    0.0000 C   0  0  0  0  0  0  0  0  0  0  0  0
    3.5724    3.7125    0.0000 C   0  0  0  0  0  0  0  0  0  0  0  0
    0.7145    5.3625    0.0000 C   0  0  0  0  0  0  0  0  0  0  0  0
    2.1434    6.1875    0.0000 C   0  0  0  0  0  0  0  0  0  0  0  0
   -2.8579    4.1250    0.0000 C   0  0  0  0  0  0  0  0  0  0  0  0
   -2.1434    3.7125    0.0000 C   0  0  0  0  0  0  0  0  0  0  0  0
   -1.4289    4.1250    0.0000 C   0  0  0  0  0  0  0  0  0  0  0  0
   -0.7145    3.7125    0.0000 C   0  0  0  0  0  0  0  0  0  0  0  0
    0.0000    4.1250    0.0000 C   0  0  0  0  0  0  0  0  0  0  0  0
    2.1434    3.7125    0.0000 C   0  0  0  0  0  0  0  0  0  0  0  0
    2.8579    4.1250    0.0000 C   0  0  0  0  0  0  0  0  0  0  0  0
    1.4289    4.9500    0.0000 C   0  0  0  0  0  0  0  0  0  0  0  0
    2.1434    5.3625    0.0000 C   0  0  0  0  0  0  0  0  0  0  0  0
    1.4289    4.1250    0.0000 C   0  0  0  0  0  0  0  0  0  0  0  0
    2.8579    4.9500    0.0000 C   0  0  0  0  0  0  0  0  0  0  0  0
    3.5724    5.3625    0.0000 O   0  0  0  0  0  0  0  0  0  0  0  0
    0.7145    3.7125    0.0000 O   0  0  0  0  0  0  0  0  0  0  0  0
  5  1  1  0  0  0  0
  6  5  1  0  0  0  0
  7  6  1  0  0  0  0
  8  7  1  0  0  0  0
  9  8  1  0  0  0  0
 11  2  1  0  0  0  0
 11 10  1  0  0  0  0
 12  3  1  0  0  0  0
 13  4  1  0  0  0  0
 13 12  2  0  0  0  0
 14 10  2  0  0  0  0
 14 12  1  0  0  0  0
 15 11  2  0  0  0  0
 15 13  1  0  0  0  0
 16 15  1  0  0  0  0
 17  9  1  0  0  0  0
 17 14  1  0  0  0  0
M  END
> <DATABASE_ID>
DB12162

> <DATABASE_NAME>
drugbank

> <SMILES>
CCCCCCOC1=CC(C)=C(O)C(C)=C1C

> <INCHI_IDENTIFIER>
InChI=1S/C15H24O2/c1-5-6-7-8-9-17-14-10-11(2)15(16)13(4)12(14)3/h10,16H,5-9H2,1-4H3

> <INCHI_KEY>
ATMNQRRJNBCQJO-UHFFFAOYSA-N

> <FORMULA>
C15H24O2

> <MOLECULAR_WEIGHT>
236.355

> <EXACT_MASS>
236.177630013

> <JCHEM_ACCEPTOR_COUNT>
2

> <JCHEM_ATOM_COUNT>
41

> <JCHEM_AVERAGE_POLARIZABILITY>
29.373719805892296

> <JCHEM_BIOAVAILABILITY>
1

> <JCHEM_DONOR_COUNT>
1

> <JCHEM_FORMAL_CHARGE>
0

> <JCHEM_GHOSE_FILTER>
1

> <JCHEM_IUPAC>
4-(hexyloxy)-2,3,6-trimethylphenol

> <ALOGPS_LOGP>
4.60

> <JCHEM_LOGP>
5.265309741333333

> <ALOGPS_LOGS>
-3.72

> <JCHEM_MDDR_LIKE_RULE>
0

> <JCHEM_NUMBER_OF_RINGS>
1

> <JCHEM_PHYSIOLOGICAL_CHARGE>
0

> <JCHEM_PKA_STRONGEST_ACIDIC>
10.754615823467843

> <JCHEM_PKA_STRONGEST_BASIC>
-4.823289025604564

> <JCHEM_POLAR_SURFACE_AREA>
29.46

> <JCHEM_REFRACTIVITY>
72.7013

> <JCHEM_ROTATABLE_BOND_COUNT>
6

> <JCHEM_RULE_OF_FIVE>
0

> <ALOGPS_SOLUBILITY>
4.45e-02 g/l

> <JCHEM_TRADITIONAL_IUPAC>
4-(hexyloxy)-2,3,6-trimethylphenol

> <JCHEM_VEBER_RULE>
1

> <DRUGBANK_ID>
DB12162

> <DRUG_GROUPS>
investigational

> <GENERIC_NAME>
HX-1171

$$$$
