
  Mrv1909 02212118292D          

  8  7  0  0  0  0            999 V2000
    0.0000   -0.8250    0.0000 C   0  0  0  0  0  0  0  0  0  0  0  0
   -0.7145   -0.4125    0.0000 C   0  0  0  0  0  0  0  0  0  0  0  0
    0.7145   -0.4125    0.0000 O   0  0  0  0  0  0  0  0  0  0  0  0
    0.0000   -1.6500    0.0000 O   0  0  0  0  0  0  0  0  0  0  0  0
   -0.7145    0.4125    0.0000 C   0  0  0  0  0  0  0  0  0  0  0  0
    0.0000    0.8250    0.0000 C   0  0  0  0  0  0  0  0  0  0  0  0
    0.7145    0.4125    0.0000 O   0  0  0  0  0  0  0  0  0  0  0  0
    0.0000    1.6500    0.0000 O   0  0  0  0  0  0  0  0  0  0  0  0
  1  2  1  0  0  0  0
  1  3  1  0  0  0  0
  1  4  2  0  0  0  0
  2  5  2  0  0  0  0
  5  6  1  0  0  0  0
  6  7  1  0  0  0  0
  6  8  2  0  0  0  0
M  END
> <DATABASE_ID>
DB04299

> <DATABASE_NAME>
drugbank

> <SMILES>
OC(=O)\C=C/C(O)=O

> <INCHI_IDENTIFIER>
InChI=1S/C4H4O4/c5-3(6)1-2-4(7)8/h1-2H,(H,5,6)(H,7,8)/b2-1-

> <INCHI_KEY>
VZCYOOQTPOCHFL-UPHRSURJSA-N

> <FORMULA>
C4H4O4

> <MOLECULAR_WEIGHT>
116.0722

> <EXACT_MASS>
116.010958616

> <JCHEM_ACCEPTOR_COUNT>
4

> <JCHEM_ATOM_COUNT>
12

> <JCHEM_AVERAGE_NEUTRAL_MICROSPECIES_CHARGE>
-1.9743910065498849

> <JCHEM_AVERAGE_POLARIZABILITY>
9.189331551052174

> <JCHEM_BIOAVAILABILITY>
1

> <JCHEM_DONOR_COUNT>
2

> <JCHEM_FORMAL_CHARGE>
0

> <JCHEM_GHOSE_FILTER>
0

> <JCHEM_IUPAC>
(2Z)-but-2-enedioic acid

> <JCHEM_LOGP>
-0.040914331333333324

> <JCHEM_MDDR_LIKE_RULE>
0

> <JCHEM_NEUTRAL_CHARGE>
-2

> <JCHEM_NUMBER_OF_RINGS>
0

> <JCHEM_PHYSIOLOGICAL_CHARGE>
-2

> <JCHEM_PKA>
5.72044089354492

> <JCHEM_PKA_STRONGEST_ACIDIC>
2.853688175816198

> <JCHEM_POLAR_SURFACE_AREA>
74.6

> <JCHEM_REFRACTIVITY>
24.606999999999996

> <JCHEM_ROTATABLE_BOND_COUNT>
2

> <JCHEM_RULE_OF_FIVE>
1

> <JCHEM_TRADITIONAL_IUPAC>
N-demethyldiltiazem

> <JCHEM_VEBER_RULE>
0

> <DRUGBANK_ID>
DB04299

> <SECONDARY_ACCESSION_NUMBERS>
EXPT02106

> <DRUG_GROUPS>
experimental

> <GENERIC_NAME>
Maleic acid

> <SYNONYMS>
(Z)-2-butenedioic acid; (Z)-butenedioic acid; cis-1,2-ethylenedicarboxylic acid; cis-but-2-enedioic acid; cis-Butenedioic acid; Maleic acid; Toxilic acid

$$$$
