
  Mrv1909 11271922012D          

 93100  0  0  0  0            999 V2000
    2.3831   -1.7304    0.0000 C   0  0  0  0  0  0  0  0  0  0  0  0
    2.2652   -0.9138    0.0000 C   0  0  2  0  0  0  0  0  0  0  0  0
    1.4992   -0.6076    0.0000 C   0  0  0  0  0  0  0  0  0  0  0  0
    0.8509   -1.1180    0.0000 N   0  0  0  0  0  0  0  0  0  0  0  0
    0.0849   -0.8118    0.0000 C   0  0  0  0  0  0  0  0  0  0  0  0
   -0.0329    0.0047    0.0000 O   0  0  0  0  0  0  0  0  0  0  0  0
   -0.5632   -1.3221    0.0000 C   0  0  0  0  0  0  0  0  0  0  0  0
   -1.3293   -1.0159    0.0000 C   0  0  0  0  0  0  0  0  0  0  0  0
   -1.4472   -0.1994    0.0000 C   0  0  2  0  0  0  0  0  0  0  0  0
   -0.6228   -0.1675    0.0000 C   0  0  0  0  0  0  0  0  0  0  0  0
   -1.3927    0.6237    0.0000 C   0  0  1  0  0  0  0  0  0  0  0  0
   -0.6947    1.0636    0.0000 C   0  0  0  0  0  0  0  0  0  0  0  0
    0.0351    0.6789    0.0000 C   0  0  0  0  0  0  0  0  0  0  0  0
    0.7331    1.1187    0.0000 N   0  0  0  0  0  0  0  0  0  0  0  0
    0.3201   -0.0952    0.0000 O   0  0  0  0  0  0  0  0  0  0  0  0
   -2.1588    0.9300    0.0000 C   0  0  1  0  0  0  0  0  0  0  0  0
   -2.6867    0.2961    0.0000 N   0  0  0  0  0  0  0  0  0  0  0  0
   -2.2469   -0.4019    0.0000 C   0  0  0  0  0  0  0  0  0  0  0  0
   -2.7933   -1.3143    0.0000 C   0  0  0  0  0  0  0  0  0  0  0  0
   -2.2343   -1.9211    0.0000 C   0  0  0  0  0  0  0  0  0  0  0  0
   -3.5334   -1.6787    0.0000 C   0  0  0  0  0  0  0  0  0  0  0  0
   -4.1087   -1.0874    0.0000 N   0  0  0  0  0  0  0  0  0  0  0  0
   -4.8489   -1.4518    0.0000 C   0  0  0  0  0  0  0  0  0  0  0  0
   -5.6992   -0.8131    0.0000 C   0  0  0  0  0  0  0  0  0  0  0  0
   -5.9842   -0.0388    0.0000 C   0  0  0  0  0  0  0  0  0  0  0  0
   -5.3360    0.4713    0.0000 N   0  0  0  0  0  0  0  0  0  0  0  0
   -5.6211    1.2456    0.0000 C   0  0  0  0  0  0  0  0  0  0  0  0
   -4.8969    2.0244    0.0000 C   0  0  0  0  0  0  0  0  0  0  0  0
   -5.3175    2.7342    0.0000 C   0  0  0  0  0  0  0  0  0  0  0  0
   -4.0972    2.2270    0.0000 C   0  0  0  0  0  0  0  0  0  0  0  0
   -3.5693    2.8610    0.0000 C   0  0  1  0  0  0  0  0  0  0  0  0
   -3.7718    3.6607    0.0000 C   0  0  0  0  0  0  0  0  0  0  0  0
   -4.5657    3.8852    0.0000 C   0  0  0  0  0  0  0  0  0  0  0  0
   -4.7683    4.6850    0.0000 C   0  0  0  0  0  0  0  0  0  0  0  0
   -4.1769    5.2603    0.0000 N   0  0  0  0  0  0  0  0  0  0  0  0
   -5.5621    4.9094    0.0000 O   0  0  0  0  0  0  0  0  0  0  0  0
   -2.8032    2.5547    0.0000 C   0  0  2  0  0  0  0  0  0  0  0  0
   -1.9902    2.4145    0.0000 C   0  0  0  0  0  0  0  0  0  0  0  0
   -2.5787    3.3487    0.0000 C   0  0  0  0  0  0  0  0  0  0  0  0
   -1.7790    3.5513    0.0000 C   0  0  0  0  0  0  0  0  0  0  0  0
   -1.5545    4.3452    0.0000 N   0  0  0  0  0  0  0  0  0  0  0  0
   -1.2037    2.9600    0.0000 O   0  0  0  0  0  0  0  0  0  0  0  0
   -2.8577    1.7316    0.0000 C   0  0  2  0  0  0  0  0  0  0  0  0
   -2.0760    1.9954    0.0000 C   0  0  0  0  0  0  0  0  0  0  0  0
   -3.6574    1.5291    0.0000 N   0  0  0  0  0  0  0  0  0  0  0  0
   -3.9636    0.7630    0.0000 Co  0  3  0  0  0  0  0  0  0  0  0  0
   -3.4533    0.1147    0.0000 C   0  0  0  0  0  0  0  0  0  0  0  0
   -2.9429   -0.5334    0.0000 N   0  0  0  0  0  0  0  0  0  0  0  0
   -6.4455    1.2138    0.0000 C   0  0  1  0  0  0  0  0  0  0  0  0
   -6.3910    2.0370    0.0000 C   0  0  0  0  0  0  0  0  0  0  0  0
   -7.2585    1.3540    0.0000 C   0  0  0  0  0  0  0  0  0  0  0  0
   -7.5435    2.1282    0.0000 C   0  0  0  0  0  0  0  0  0  0  0  0
   -8.3565    2.2684    0.0000 N   0  0  0  0  0  0  0  0  0  0  0  0
   -7.0156    2.7621    0.0000 O   0  0  0  0  0  0  0  0  0  0  0  0
   -6.6699    0.4199    0.0000 C   0  0  2  0  0  0  0  0  0  0  0  0
   -7.4441    0.1347    0.0000 C   0  0  0  0  0  0  0  0  0  0  0  0
   -7.5843   -0.6781    0.0000 C   0  0  0  0  0  0  0  0  0  0  0  0
   -8.3585   -0.9632    0.0000 C   0  0  0  0  0  0  0  0  0  0  0  0
   -8.4988   -1.7762    0.0000 N   0  0  0  0  0  0  0  0  0  0  0  0
   -8.9925   -0.4353    0.0000 O   0  0  0  0  0  0  0  0  0  0  0  0
   -4.7310   -2.2684    0.0000 C   0  0  0  0  0  0  0  0  0  0  0  0
   -4.7855   -3.0916    0.0000 C   0  0  0  0  0  0  0  0  0  0  0  0
   -5.5554   -2.3001    0.0000 C   0  0  0  0  0  0  0  0  0  0  0  0
   -3.9180   -2.4086    0.0000 C   0  0  2  0  0  0  0  0  0  0  0  0
   -3.5536   -3.1488    0.0000 C   0  0  0  0  0  0  0  0  0  0  0  0
   -4.0124   -3.8344    0.0000 C   0  0  0  0  0  0  0  0  0  0  0  0
   -3.6480   -4.5746    0.0000 C   0  0  0  0  0  0  0  0  0  0  0  0
   -2.8248   -4.6291    0.0000 N   0  0  0  0  0  0  0  0  0  0  0  0
   -4.1068   -5.2603    0.0000 O   0  0  0  0  0  0  0  0  0  0  0  0
    2.9134   -0.4035    0.0000 O   0  0  0  0  0  0  0  0  0  0  0  0
    3.6795   -0.7097    0.0000 P   0  0  0  0  0  0  0  0  0  0  0  0
    3.9857    0.0563    0.0000 O   0  5  0  0  0  0  0  0  0  0  0  0
    3.3733   -1.4758    0.0000 O   0  0  0  0  0  0  0  0  0  0  0  0
    4.4456   -1.0159    0.0000 O   0  0  0  0  0  0  0  0  0  0  0  0
    5.0938   -0.5056    0.0000 C   0  0  2  0  0  0  0  0  0  0  0  0
    5.8877   -0.7300    0.0000 C   0  0  1  0  0  0  0  0  0  0  0  0
    6.1727   -1.5042    0.0000 C   0  0  0  0  0  0  0  0  0  0  0  0
    6.9857   -1.6444    0.0000 O   0  0  0  0  0  0  0  0  0  0  0  0
    6.3465   -0.0443    0.0000 O   0  0  0  0  0  0  0  0  0  0  0  0
    5.8361    0.6038    0.0000 C   0  0  1  0  0  0  0  0  0  0  0  0
    5.0619    0.3187    0.0000 C   0  0  2  0  0  0  0  0  0  0  0  0
    4.3763    0.7776    0.0000 O   0  0  0  0  0  0  0  0  0  0  0  0
    6.0606    1.3978    0.0000 N   0  0  0  0  0  0  0  0  0  0  0  0
    5.5502    2.0460    0.0000 C   0  0  0  0  0  0  0  0  0  0  0  0
    6.0090    2.7316    0.0000 N   0  0  0  0  0  0  0  0  0  0  0  0
    6.8029    2.5071    0.0000 C   0  0  0  0  0  0  0  0  0  0  0  0
    7.5009    2.9469    0.0000 C   0  0  0  0  0  0  0  0  0  0  0  0
    8.2308    2.5623    0.0000 C   0  0  0  0  0  0  0  0  0  0  0  0
    8.9288    3.0022    0.0000 C   0  0  0  0  0  0  0  0  0  0  0  0
    8.2627    1.7380    0.0000 C   0  0  0  0  0  0  0  0  0  0  0  0
    8.9925    1.3534    0.0000 C   0  0  0  0  0  0  0  0  0  0  0  0
    7.5646    1.2982    0.0000 C   0  0  0  0  0  0  0  0  0  0  0  0
    6.8348    1.6827    0.0000 C   0  0  0  0  0  0  0  0  0  0  0  0
  2  1  1  6  0  0  0
  2  3  1  0  0  0  0
  3  4  1  0  0  0  0
  4  5  1  0  0  0  0
  5  6  2  0  0  0  0
  5  7  1  0  0  0  0
  7  8  1  0  0  0  0
  9  8  1  1  0  0  0
  9 10  1  6  0  0  0
  9 11  1  0  0  0  0
 11 12  1  6  0  0  0
 12 13  1  0  0  0  0
 13 14  1  0  0  0  0
 13 15  2  0  0  0  0
 11 16  1  0  0  0  0
 16 17  1  1  0  0  0
 17 18  2  0  0  0  0
  9 18  1  0  0  0  0
 18 19  1  0  0  0  0
 19 20  1  0  0  0  0
 19 21  2  0  0  0  0
 21 22  1  0  0  0  0
 22 23  2  0  0  0  0
 23 24  1  0  0  0  0
 24 25  2  0  0  0  0
 25 26  1  0  0  0  0
 26 27  2  0  0  0  0
 27 28  1  0  0  0  0
 28 29  1  0  0  0  0
 28 30  2  0  0  0  0
 30 31  1  0  0  0  0
 31 32  1  1  0  0  0
 32 33  1  0  0  0  0
 33 34  1  0  0  0  0
 34 35  1  0  0  0  0
 34 36  2  0  0  0  0
 31 37  1  0  0  0  0
 37 38  1  1  0  0  0
 37 39  1  6  0  0  0
 39 40  1  0  0  0  0
 40 41  1  0  0  0  0
 40 42  2  0  0  0  0
 37 43  1  0  0  0  0
 16 43  1  0  0  0  0
 43 44  1  1  0  0  0
 43 45  1  0  0  0  0
 30 45  1  0  0  0  0
 45 46  1  0  0  0  0
 46 47  1  0  0  0  0
 47 48  3  0  0  0  0
 27 49  1  0  0  0  0
 49 50  1  1  0  0  0
 49 51  1  6  0  0  0
 51 52  1  0  0  0  0
 52 53  1  0  0  0  0
 52 54  2  0  0  0  0
 49 55  1  0  0  0  0
 25 55  1  0  0  0  0
 55 56  1  1  0  0  0
 56 57  1  0  0  0  0
 57 58  1  0  0  0  0
 58 59  1  0  0  0  0
 58 60  2  0  0  0  0
 23 61  1  0  0  0  0
 61 62  1  0  0  0  0
 61 63  1  0  0  0  0
 61 64  1  0  0  0  0
 21 64  1  0  0  0  0
 64 65  1  1  0  0  0
 65 66  1  0  0  0  0
 66 67  1  0  0  0  0
 67 68  1  0  0  0  0
 67 69  2  0  0  0  0
  2 70  1  0  0  0  0
 70 71  1  0  0  0  0
 71 72  1  0  0  0  0
 71 73  2  0  0  0  0
 71 74  1  0  0  0  0
 75 74  1  1  0  0  0
 75 76  1  0  0  0  0
 76 77  1  6  0  0  0
 77 78  1  0  0  0  0
 76 79  1  0  0  0  0
 79 80  1  0  0  0  0
 80 81  1  0  0  0  0
 75 81  1  0  0  0  0
 81 82  1  1  0  0  0
 80 83  1  1  0  0  0
 83 84  1  0  0  0  0
 84 85  2  0  0  0  0
 85 86  1  0  0  0  0
 86 87  1  0  0  0  0
 87 88  2  0  0  0  0
 88 89  1  0  0  0  0
 88 90  1  0  0  0  0
 90 91  1  0  0  0  0
 90 92  2  0  0  0  0
 92 93  1  0  0  0  0
 83 93  1  0  0  0  0
 86 93  2  0  0  0  0
M  CHG  2  46   1  72  -1
M  END
> <DATABASE_ID>
DB00115

> <DATABASE_NAME>
drugbank

> <SMILES>
C[C@H](CNC(=O)CC[C@]1(C)[C@@H](CC(N)=O)[C@H]2N=C1\C(C)=C1/N=C(/C=C3\N=C(\C(\C)=C4\[C@@H](CCC(N)=O)[C@](C)(CC(N)=O)[C@@]2(C)N4[Co+]C#N)[C@@](C)(CC(N)=O)[C@@H]3CCC(N)=O)C(C)(C)[C@@H]1CCC(N)=O)OP([O-])(=O)O[C@@H]1[C@@H](CO)O[C@@H]([C@@H]1O)N1C=NC2=C1C=C(C)C(C)=C2

> <INCHI_IDENTIFIER>
InChI=1S/C62H90N13O14P.CN.Co/c1-29-20-39-40(21-30(29)2)75(28-70-39)57-52(84)53(41(27-76)87-57)89-90(85,86)88-31(3)26-69-49(83)18-19-59(8)37(22-46(66)80)56-62(11)61(10,25-48(68)82)36(14-17-45(65)79)51(74-62)33(5)55-60(9,24-47(67)81)34(12-15-43(63)77)38(71-55)23-42-58(6,7)35(13-16-44(64)78)50(72-42)32(4)54(59)73-56;1-2;/h20-21,23,28,31,34-37,41,52-53,56-57,76,84H,12-19,22,24-27H2,1-11H3,(H15,63,64,65,66,67,68,69,71,72,73,74,77,78,79,80,81,82,83,85,86);;/q;;+2/p-2/t31-,34-,35-,36-,37+,41-,52-,53-,56-,57+,59-,60+,61+,62+;;/m1../s1

> <INCHI_KEY>
RMRCNWBMXRMIRW-WZHZPDAFSA-L

> <FORMULA>
C63H88CoN14O14P

> <MOLECULAR_WEIGHT>
1355.3652

> <EXACT_MASS>
1354.5674053

> <JCHEM_ACCEPTOR_COUNT>
18

> <JCHEM_ATOM_COUNT>
181

> <JCHEM_AVERAGE_POLARIZABILITY>
138.78970476424402

> <JCHEM_BIOAVAILABILITY>
0

> <JCHEM_DONOR_COUNT>
9

> <JCHEM_FORMAL_CHARGE>
0

> <JCHEM_GHOSE_FILTER>
0

> <JCHEM_IUPAC>
cyano[(1R,2R,3R,4R,6Z,8S,11Z,13S,14S,16Z,18S,19S)-8,13,18-tris(2-carbamoylethyl)-3,14,19-tris(carbamoylmethyl)-4-(2-{[(2R)-2-{[(2R,3S,4R,5S)-5-(5,6-dimethyl-1H-1,3-benzodiazol-1-yl)-4-hydroxy-2-(hydroxymethyl)oxolan-3-yl phosphonato]oxy}propyl]carbamoyl}ethyl)-1,4,6,9,9,14,16,19-octamethyl-20,21,22,23-tetraazapentacyclo[15.2.1.1^{2,5}.1^{7,10}.1^{12,15}]tricosa-5(23),6,10(22),11,15(21),16-hexaen-20-yl]cobaltylium

> <ALOGPS_LOGP>
2.66

> <JCHEM_LOGP>
-3.237631304949767

> <ALOGPS_LOGS>
-4.84

> <JCHEM_MDDR_LIKE_RULE>
1

> <JCHEM_NUMBER_OF_RINGS>
8

> <JCHEM_PHYSIOLOGICAL_CHARGE>
3

> <JCHEM_PKA>
12.585167125902856

> <JCHEM_PKA_STRONGEST_ACIDIC>
1.8166316704374712

> <JCHEM_PKA_STRONGEST_BASIC>
8.68313736073737

> <JCHEM_POLAR_SURFACE_AREA>
477.85

> <JCHEM_REFRACTIVITY>
337.4833

> <JCHEM_ROTATABLE_BOND_COUNT>
27

> <JCHEM_RULE_OF_FIVE>
0

> <ALOGPS_SOLUBILITY>
2.02e-02 g/l

> <JCHEM_TRADITIONAL_IUPAC>
racemiccalcium pantothenate

> <JCHEM_VEBER_RULE>
0

> <DRUGBANK_ID>
DB00115

> <SECONDARY_ACCESSION_NUMBERS>
NUTR00004; APRD00326; EXPT00965

> <DRUG_GROUPS>
approved; nutraceutical

> <GENERIC_NAME>
Cyanocobalamin

> <SYNONYMS>
Cianocobalamina; Cyanocob(III)alamin; Cyanocobalamin; Cyanocobalamine; Cyanocobalaminum; Vitamin B12; Vitamin B12 complex; Vitamin B12 NOS

> <PRODUCTS>
24 Multivitamins + Minerals; 50 Plus; 50 Plus Multiple Vitamins & Minerals; Active FE; Active OB; Adeks - Dps; Adeks Tablets; Adult Formula 50+; Adult Infuvite Multiple Vitamins; Advanced B & T Formula; Aj-cyanocobalamin; Alkadrenergy Tablets; Allbee C 800 Tab; Alphaligo; Alsimine W Vitamins A D; Am Caps; American Eagle Energizer Plus Vitamin Supplement Drink; American Plus Energy & Vitamin Drink; Amerix Multivitamin; Animal Shapes; Animal Shapes w/Iron Chewtabs; Animi-3; Animi-3 with Vitamin D; Av-VITE FB; Av-VITE FB Forte; Avon Nutrivance Vitamin E Plus; Avon Vitadvance Multi-kids Complete; B - 12; B 50 Capsules; B C Antistress Cap; B Complex 25mg Vitamin Supplement; B Complex 50 Vitamin Cap; B Complex 50+ Caplet; B Complex Plus C 300mg Tab; B Complex Tablets; B Complex W C Forte Cap; B Complex W C and B12 Inj; B Complex W Vit C W Non-med Yeast&liver Tab; B Complex W Vitamin C Fortis Cap; B Complex With C 300mg; B Complex With C 550mg; B Compound 50mg Tab; B Plus C 300 mg; B Stress C + Iron & Vite; B Virol; B Vitamin Compound With B12 Thunas; B With C 500 Cap; B-100 Caps; B-100 Complex Tablets; B-100 Hi Potency B Vitamins Tab; B-12 1000 Inj 1000mcg/ml; B-12 1000mcg Continuous Released Tab; B-12 Compliance; B-12 Kit; B-50 Complex; B-50 Complex Tab; B-50 Hi Potency B Vitamins Tab; B-Serene Rx; B-complex; B-complex 100; B-complex 50; B-complex Tab; B-complex Tablets; B-complex With Vitamin C, Biotin, Folic Acid; B-complex-50 Tab; B-plex; B-plus - Tab; B.E.T. Complex; B12 1000mcg; B12 250mcg Cyanocobalamin; B12 Inject Kit; B50 B Complex Tab; B50 Complex; B6, B12 & Folic Acid; B6, B12 & Folic Acid Multi-vitamin Tablets; BP Vit 3; Bacmin; Bal-Care DHA; Bal-Care DHA Essential; Balanced B 125 Srt; Balanced B-100 B-complex Vitamins Tab; Balanced B-50 B-complex Vitamins Tab; Balanced B-50 B-complex Vitamins, Timed Rele; Balanced B-50 Complex; Balanced B-complex Vit + Vit C&e Tab; Balanced B100; Balanced B50 Complex; Bear Essentials; Bedoz 1000inj; Beminal Fortis Elx; Beminal With C Fortis Cap; Bev 29 Tab; Bev B-150; BiferaRx; Bio-b12; BioFerr 90; Biovim Tab; Body Rox; Bugs Bunny Chew Multi Vit Plus Iron; Bugs Bunny and Friends Multiple Vitamins; C-B Complex; C-Nate DHA; C-force; C. Vit-min Formula; C.E.b12 Complex Pwr; C.R.D.-force; Calcium Folic Acid Plus D Chewable; CaloMist; Carbassist Tablets; Card-floe II Tab; Cardiotek-RX; Cataplex B12 Tab 6mcg; Cavan Alpha; Cavan Folate DHA; Cavan Folate OB; Cavan Heme OB; Cavan Prenatal; Cavan X; Cavan-EC SOD DHA; Cda-21 Vitamins With Non-medicinal Probiotic Complex; Cedevita Plus Vitamin Supplement; Cedevita Sugar-free Vitamin Supplement; Central-vite 18 Essential; Centratex; Century Complete; Chela Iron Plus C,b Complex; Chela-chromium 200; Chew.multiple Vits.with Extra C for Children; Chewable Adult Multivitamins With Minerals; Chewable Children's Complete Multivitamins With Essential Minerals; Chewable Multiple Vit Plus Iron for Children; Chewable Multiple Vitamins Plus Extra C; Chewable Multiple Vitamins Plus Iron Tab; Chewable Multiple Vitamins Tab; Chewable Multiple Vitamins for Children; Chewable Multivitamins; Chewable Multivitamins Plus Iron; Children Choice Multivit Chewable Tab; Children Choice Multivitamin W Iron Chew Tab; Children's Chew Multi & Min Tab; Children's Chewable Multi Vit W Iron; Children's Chewable Multi Vitamins; Children's Chewable Multi Vitamins With Iron Tablets; Children's Chewable Multi-vitamin; Children's Chewable Multi-vitamin Complete With Minerals; Children's Chewable Multiple Vit.plus Iron; Children's Chewable Multiple Vitamins (chewable Tablets); Children's Chewable Multiple Vitamins - Tab; Children's Chewable Multiple Vitamins With Extra Vitamin C (chewable Tablets); Children's Chewable Multiple Vitamins With Iron Tablets (chewable Tablets); Children's Chewable Multivitamin Complete With Minerals; Children's Chewable Multivitamin and Multimineral; Children's Chewable Multivitamins With Minerals; Children's Chewable Multivitamins and Minerals; Children's Chewable Tab; Children's Chewable Vit and Min Tab; Children's Chewable With Iron; Children's Multivitamins; Children's Multivitamins With Iron; Children's Vitamins Chewable; Children's Vitamins W Iron Chewable; Childrens Chew Multi Vitamin Tab; Childrens Chewab Vitamin W Chel Minerals; Childrens Chewable Multiple Vitamins; Childrens Chewable Multiple Vitamins Plus Fe; Childrens Chewable Multiple Vitamins Tab; Childrens Chewable Multiple Vitamins W.iron; Childrens Chewable Multivitamins; Childrens Chewable Multivitamins W Iron; Childrens Chewable Tab; Childrens Chewable Vitamin Tab; Childrens Chewable Vitamins; Childrens Chewable Vitamins W Iron; Childrens Multiple Vit and Min Chew Tab; Choice OB DHA; Chromagen; CitraNatal Bloom; CitraNatal Bloom DHA; Classic Swiss One 10 Multivitamin and Mineral Tab; Cobex Inj 1000mcg/ml; Coco12; Complete Mega B; Complete Multivitamins and Minerals for Children; Complete Natal DHA; Complete One A Day Tab; Complete One-A-day - Tab; Complete-RF Prenatal; CompleteNate Chewable; Complex-75; Complexe B 75mg; Complexe B Compose 75; Complexe B-75; Concept DHA; Concept OB; Cool B; Corvita; Corvita 150; Corvite; Corvite 150; Corvite FE; Corvite Free; Crystalline Vitamin B12-liq Im Sc 1000mcg/ml; Cyancobalamin; Cyanocobalamin; Cyanocobalamin Injection USP; Cyanocobalamin Injection USP 1000mcg/ml; Cyanocobalamin Injection, USP; Cyanocobalamine; DaVITE; Daily Balance Tab; Daily Energy Brand B-complex; Daily Supplement Packs; Daily-Vite; Dalivit; Davimet; Deriton; Derma-force; Dexifol; Dia-vite; Diacomp - Cap; Diaplex; Divista; Doctor's Choice Brand for Men; Dodex Injectable; Dothelle DHA; Duet DHA; Duet DHA 400; Duet DHA 400 ec; Duet DHA Balanced; DuetDHA Balanced; DuetDHA Complete; Dynam Ampoule Et Tablet; E.S.T. Complex; Earthpals Children's Chewables Multi-vitamin & Mineral Tablets; Edge OB; Efferlife Multivitamins and Minerals; Elite OB Prenatal Multivitamin; Ellis Tonic; Energy 80 Prolonged Release Tab; Enrich Core Pack - Children Vitamin and Mineral Supplement; Envirocomplex; Enviroflex - Tab; Escavite; Escavite Lq; Essential B Tablets; Essential Vitamins and Minerals; Everyday Multiple Vitamins; Everyday Multiple Vitamins With Iron; Extra Once A Day; Extra P.N. Vitamin-mineral Drink Mix; Ez-flex; FE C Tab Plus; FaBB; FeRiva; FeRiva 21 7; FeRiva FA; FeRivaFA; Fem - Control; Fem Time Tab; Feminex 300 Tab; Feminique W Iron and Calcium Tab; Femitab Tab; Ferotrin; FerraPlus 90; Ferralet 90; Ferrex 150 Forte; Ferrex 150 Forte Plus; Ferrex 28; FerroGels Forte; Fib-C Melts; Fibrik; Fizz Multivitamins for Kids W C Loz; Flexadyn Tab; Flinstones Multiple Plus Iron; Flintstones Multiple Vitamins; Flintstones Multiple Vitamins Plus Iron; Flintstones Multiple Vitamins Tab; Flintstones W Extra C Tab; Floravit - Syr; Floriva; Floriva Plus; Focalgin DSS; FolaGent DHA; FolaMax; FolaMed DHA; Folastin; Folbic; Folcaps; Folet DHA; Folet One; Folgard; Folic Acid Plus; Folic Acid With Vitamin B12 and Vitamin C; Folic Acid-b12 Tab; Folic-K; Folica BE; Folica-V; Foliflex; Folitin-Z; Folivane-OB; Folivane-Plus with Ascorbic Acid Precursors; Foltabs 800; Foltrate; Foltx; Folvite-FE; For Kids Only Chewable Multivit. Plus Iron; For Kids Only Chewable Multivitamins; For Kids Only Chewable Multivitamins - Tab; For Men; For-2; Formula Ch. Les.; Formula Cn; Formula Cp Cap; Formula D.S.; Formula F L W; Formula Gly; Formula Hh; Formula Int; Formula Lf; Formula O.C.; Formula Pro-B; Formula Statin Support; Forphyll 3mcg; Fortamines 10 Capsules; Fortamines-10 Comprimes; Fortaplex Inj; Fortiplex; Forty Plus Vitamin Supplement; Fusion Activator Formula Tab; Fusion Plus; G.A.S. Complex; Gestamine Comprimes; Gesticare DHA; Glyco Lite Ect; Glyco Plus Ect; Glyco-aide Tab; Golf Vitamin and Mineral Supplement; Grand Master Formula Tab; Great Day/am Formula Tab; Gsf Tab 24mcg; H. Formula - Tab; H.W. Children's Chewable Multi Vit & Mineral; Harvest Of Values All B Complex Tab; Hemarexin Tab; Hematogen; Hematogen FA; Hematogen Forte; HemeNatal OB; HemeNatal OB plus DHA; Hemetab; Hemocyte Plus; Heparos Ampoules Buvables; Hi Potency B Complex W Chelated Minerals; Hi Potency B52 B Complex Tab; Hi Potency Balanced B-100 Complex - Tab; Hi Potency Multi Tab; Hi Potency Stress B Tension With C; High Potency Multivitamins & Minerals Caplets; High Potency Vitamin B Complex + C Tab; Hill.vite; Homosismin; Homosistrol Capsules; Homosistrox Capsules; Hormodausse Plus Calc Et D Tab; Hsn Formula; Hypo Vites Tab; Hyporyl - Tab; INATAL Ultra; Iberet 500; Inatal Advance; Infuvite Adult Multiple Vitamins; Innersource Tab; Insur-all Vitamin Supplement; Iron; Iron 25mg With Vit B-cmplx, Vit C, Cu & Mo; Iron Aspartate Glycinate and Polysaccharide Complex, Ascorbic Calcium, Vitamin B12, Folic Acid, Calcium Threonate and Succinic Acid; Iron Aspartate, Glycinate, Ascorbic Calcium, Vitamin B12, Calcium Threonate and Succinic Acid; Iron Fumarate and Aspartate, Glycinate, Ascorbic Calcium, Vitamin B12, Folic Acid, Calcium Threonate and Succinic Acid; Iron Plus Manganese, B12, Folic Acid & C; Iron Plus Tab; Iron Polysaccharides Folic Acid DHA; Iron Vitamins B6,b12,c,folic Acid Tab; Iron With Vitamins Tab; Iron, Vit & Min Supp; Irospan 24/6; Isotonix Advanced B-complex Vitamins With Potassium and Magnesium; Isotonix Multitech Vitamin Mineral Supplemen; Isotonix Vitamin B-folic Acid-mineral Supple; Jamp-cyanocobalamin; K.L. Vitamin-mineral; Kanga Sport Vitamins B & C Plus Minerals; Kanga-B Vitamin B Group + C; Kanga-V Multivitamins & Minerals; Kanga-kid Multi-vitamin & Mineral; Kanga-kid Vitamins & Iron; Kc Vitamin and Mineral Supplement; Kid's Choice Children's Chewable Vitamins - Tab; Kids Stuff Tablets; Kids Stuff With Iron Tablets; Kindervites; L Fac Tab; L-Methyl MC; L-Methyl-MC; L.C. Supplement; L.I.P. Complex; Leritone Antistress; Leritone Junior; Levomefolate Calcium, Cyanocobalamin and Pyridoxine Hydrochloride; Lipo-B-C Tab; Lipovitan; Liqui B Complex; Liqui B Complex Plus; Liqui Infant Vitamins; Liqui Vita; Liquid B Complex 50; Livron Plus Ampoule; Livron Plus Tab; Low Potency B Complex Tab; Luna Vitamin and Mineral Bar for Women; Lustime Angel; Lustime Unicorn; Lutime; Lysamine Diet Supp Amp-tab; M-Natal Plus; M.V.I. 12; M.V.I. Adult; M.V.I. Paediatric; M.V.I. Pediatric; M.V.I.-12; MVC-Fluoride; MYNEPHROCAPS DIALYSIS/STRESS Vitamin Supplement; Magnum-75 Vitamin and Mineral Supplement; Maintain Multiple Vitamin & Minerals; Maltlevol 12 Liq; Mangadyn; Marnatal F; Master Key Multi Vitamin Multi Mineral Formula 2; Materna; Materna - Tab; Materna-tab; MaxFe; Maxi 10 Tab; Maximum Once A Day; Maxine Vitamin and Mineral Supplement; Maxum Multi-vite; Mega 13 Multivitamin Formula; Mega Balance; Mega Capsules; Mega Plex III - Pck; Mega Plex IV - Pck; Mega Vitaminerals; Mega-vim 75 With Beta-carotene - Tablets; Megavite Rx; Men's; Men's 50+; Men's Multi Master Formula; Menocal Tab; Meplex T 750; Mi-Omega NF; Milltrium Senior Vitamin and Mineral Supplement; Mini-B Tab; Moms Choice Rx; Mor-vites Tab; Mr. Tumee Multi-vitamin; Multi #2; Multi - N.T.O.x Formula - Tab; Multi 12 Injection; Multi B; Multi Enfants Tab; Multi Flow Tablets; Multi II IV Vi Tab; Multi Nt-OX; Multi Plex I - Tab; Multi Plex II - Tab; Multi Pro; Multi Rol; Multi Spectrum - Tablet; Multi Tabs; Multi Vitamin & Minerals; Multi Vitamin - Mineral; Multi Vitamin Drops with Fluoride; Multi Vitamin Plus Iron; Multi Vitamin and Fluoride; Multi Vitamin with Fluoride; Multi Vitamin-mineral Formula; Multi Vitamines - Liq; Multi Vitamins & Minerals; Multi Vite Liq Adult; Multi Vite Liq Junior; Multi-11; Multi-12 Pediatric; Multi-12/k1 Pediatric; Multi-Nate 30; Multi-Vit with Fluoride; Multi-Vitamin; Multi-Vitamin Fluoride; Multi-Vitamin Fluoride Drops; Multi-Vitamin With Fluoride; Multi-Vitamin with Fluoride; Multi-actin; Multi-force for Adults Tab; Multi-force for Women Tab; Multi-kid; Multi-phyto Capsules; Multi-vitamin Dietary Supplement; Multi-vitamines Enfants Comprime; Multi-vitamins; Multi-vitamins With Minerals; MultiVitamin with Fluoride; MultiVitamin with Fluoride Chewable; MultiVitamin with Fluoride Drops; Multicaps; Multinate DHA; Multinate DHA Extra; Multipack II; Multiple Vit Plus Iron Tab; Multiple Vitamin Plus Minerals Tab; Multiple Vitamin Tab; Multiple Vitamins; Multiple Vitamins & Minerals Tablets; Multiple Vitamins - Tablet; Multiple Vitamins Childrens Chewable; Multiple Vitamins Plus Iron - Tab; Multiple Vitamins Plus Iron Tab; Multiple Vitamins Plus Iron for Women; Multiple Vitamins Tab; Multiple Vitamins W Iron Tab; Multiple Vitamins W Minerals Tab; Multiple Vitamins With Iron; Multiple Vitamins With Iron Tablets; Multiple Vitamins With Minerals Tablets; Multiple Vitamins and Minerals; Multiple Vitamins and Minerals Capsules; Multiple Vitamins and Minerals Tab; Multisol; Multitabs; Multitam; Multivit Et Fer Ampoules Et Comprimes; Multivit with Fluoride; Multivit-liq; Multivitamin; Multivitamin & Minerals (iron Free); Multivitamin & Multimineral; Multivitamin Drops with Fluoride; Multivitamin with Fluoride; Multivitamin with fluoride; Multivitamine; Multivitamines Et Mineraux; Multivitamines Et Mineraux Junior Regulier; Multivitamines Et Mineraux Reguliers / Regular Multivitamins and Minerals; Multivitamines Plus Fer Pour Enfants (chewable Tablets); Multivitamines Pour Enfants (chewable Tablets); Multivitamins; Multivitamins W Iron; Multivitamins W Minerals Extra Strength; Multivitamins and Minerals - Complete; Multivitamins and Minerals Tablets; Multivitamins and Minerals With Betacarotene Tablets; Multivitamins and Minerals for Men; Multivitamins and Minerals for Women; Multivitamins and Minerals for Young Men; Multivitamins and Minerals for Young Women; Multivitamins and Multiminerals Formula Regular Tablet; Multivitamins for Children; Multra Plex; Multra With Iron; Mvc; Mvc 9 Plus 3 Inj; Mvc 9+4 Inj; Mycelized Childrens Multi-vitamin Liq; Myferon 150 Forte; Myhephron Dialysis and Stress Supplement; N.E.U. Complex; N.U.T. Complex; NEONATAL Complete; NESTABS ABC Prenatal Multi-vitamin/Mineral Supplement with DHA/EPA; NESTABS DHA Prenatal Multi-vitamin/Mineral Supplement with DHA/EPA; NESTABS Prenatal Multi-vitamin/Mineral Supplement; Nascobal; Nata Komplete; NataChew; NataFort; Natal-V RX Multi-vitamin/Multi-mineral; Natalvirt FLT; Natavite; Natural Source Spectrum With Beta Carotene; Neo Bex Elixir; Neomultivite; Neonatal DHA; Neonatal Fe; Neonatal Plus Vitamin; Neonatal Vitamin; Neonatal19; Nephrocaps; Nephrocaps-QT; Nestabs ONE; NeuroBion; Neutral C + Coenzyme Q10 Plus Vitamins & Minerals; New Chapter's D'adamo 4 Your Type Multiple for Type O; Niferex; Niron Komplete; Nitro Vites - Tab; Niva-Fol; Niva-Plus; NovaMV Multivitamin; Novel Vita; Nrg Plus Liq; NuFera; Numark Multivitamins; Nutra Boost; Nutra-clear; Nutri-Tab OB; Nutri-Tab OB plus DHA; Nutrifer Plus Tablets; Nutrilite Double X; Nutrol-B-complex; O-Cal FA multivitamin; O-Cal Prenatal Vitamin; OB Complete 400; OB Complete DHA; OB Complete Gold; OB Complete Petite; OB Complete Prenatal; Oligofer Liq; Olympian Multi Vit Plus Minerals Tab; Omega-3 Rx Complete; Onccor; Oncovite; One A Day Advance Adults; One A Day Advance Adults 50+; One A Day Advance Fem; One A Day Multiple Vit W Minerals; One A Day Tab; One Daily VITES; One Daily Vitamin and Mineral Dietary Supplement; One Per Day Vitamin and Mineral Dietary Supplement; One Tablet Daily Mens Formula; One-A-day Advance Fem - Tablets; One-A-day Advance Men's; Only One - Tablet; Orange Flavored Crystal Chews Tab; Orti B; Osteo-force; P.N. Vitamin-mineral Drink; P.N.P. Vitamin Drink; P.R.O. Complex; PM Caps; PNV Ferrous Fumarate Docusate Folic Acid; PNV Prenatal Plus Multivitamin; PNV Prenatal Vitamin; PNV Prenatal Vitamin Plus Vitamin A; PNV Tabs 20-1; PNV Tabs 29-1; PNV-First; PNV-Omega; PNV-Select; PR Natal 400; PR Natal 400 ec; PR Natal 430; PR Natal 430 ec; PRENATE Enhance; PRENATE Restore; PROTECT IRON Liquid; Paire OB Plus DHA; Palm Springs Multvit and Min Tab; Paramettes Adults; Paramettes Multivits Plus Iron Tab (teens); Paramettes Syrup; Pediatric Infuvite Multiple Vitamins; Pediatric Infuvite Multiple Vitamins for Infusion; Phosthenine Vitamines Et Fer (ampoules Buvable); Physicians EZ Use B-12 Compliance; Phytofortis + Calcium A-D; Phytoplex B Liq; Phytopure; Phytovim Cap; Ply Vi Sol Chewable Tab; Pnv-OB-dha; Pnv-VP-U; Pnv-dha; Poly Vi Flor Chewable Tab; Poly-Vi-Flor; Poly-Vi-Flor Gummies; Poly-Vi-Sol; Poly-Vitamin with Fluoride; Poly-Vite Pediatric Oral Solution; Poly-Vite/Iron Oral Solution; Polymine Avec Zinc Et Cuivre; Pour Ma Santé; Pre-Tabs DHA Prenatal Multi-vitamin/Mineral Supplement with DHA/EPA; PreGen DHA; PreGenna; PreNatal 19; PreNatal Vitamins Plus; PrePLUS; PreQue 10; PreTAB; Prefera OB plus DHA; PreferaOB; PreferaOB ONE; PreferaOB One; PreferaOB plus DHA; Pregvit; Pregvit Folic 4; Pregvit Folic 5; Premium Prenatal; Premium Prenatal - Tablets; Prena1; Prena1 Plus; Prenara; Prenatabs FA; Prenatal; Prenatal Formula Tab; Prenatal Mega Antioxidant; Prenatal Plus; Prenatal Plus Iron; Prenatal Plus Multivitamin Plus DHA MiniCaps; Prenatal Plus Vitamins; Prenatal Supplement - Tab; Prenatal Vi-min; Prenatal Vitamin and Mineral Supplement; Prenatal Vitamin and Mineral Supplement -tab; Prenatal Vitamin and Mineral Supplement Tab; Prenatal Vitamins Plus; Prenatal Vitamins Plus Low Iron; Prenatal Vitamins and Minerals Tablets; Prenatal and Post Partum Supplement; Prenatal, DHA; Prenate AM; Prenate Chewable; Prenate DHA; Prenate Elite; Prenate Essential; Prenate Mini; Prenate Pixie; Prenate Star; Prenatrix; Prenatryl; Prenatvite; Prenatvite Complete; Prenatvite Plus; Preplus; Pretrate; Prevital Tab; Prim - Royal P.M.T.; Pro Enz Tab; Pro Hers Vanilla; Pro His Mint; Pro Pcos Citrus; ProFola; Prometa; Protect Plus SO 60; Provida DHA; Provida OB; PureFe OB Plus; PureFe Plus; PureVit DualFe Plus; Puro Sang Tab 1mcg; Q.T. #4 Vitamin and Mineral Dietary Supplement; Q.T. Vitamin and Mineral Drink Mix; Quflora FE; Quflora FE Pediatric Drops; Quflora Gummies; Quflora Pediatric; Quflora Pediatric Drops; RE FAC-x; RE Nata; RE Nata OB; RE Prenatal Multivitamin with Iron; Re Kar C Plus; Reaphirm Plant Source DHA; Recal D; Red American Eagle Vitamin Supplement Drink; Reebok; Relnate DHA; Remedient; RenaPlex; RenaPlex-D; Renal Caps Dialysis/Stress Vitamin Supplement; Renate; Renate DHA; Reno Caps; Replavite; Revit Multi-vitamins and Minerals; Revit Plus Cap; Revitalize Multi-vitamin and Mineral Complex; Revitex Ampoules Et Comprimes; Revival 1 Tab; Ribotin-E; Right Choice A.M. Multi Formula - Caplet; Rocky Mountain Multiple Vit and Min Mega Tab; Rogenic; Rubion 1000; Rubramin 1000mcg/ml; Rubramin PC; Rulavite DHA; Scheinpharm B12 Injection; Se-Care Conceive; Se-Natal; Se-Natal 19; Se-Natal 19 Chewable; Se-Natal One; Se-Plete DHA; Se-Tan PLUS; Se-Vate 21/7; Senior Multi One; SetonET; SetonET-EC; Sibergin B - Cap; Somarexin and C 1000; Sopalamine 3b Plus; Sopalamine/3b Plus C; Sopalamine/3b Tab; Spark Cap; Spd Tab; Spectrum 2 Cap; Spectrum Performa Multivitamins and Minerals Tablets; Stress B Capsules With Vitamin C; Stress B Complex With C and E Tab; Stress B Complex With C, E & Iron; Stress B Complex With C, E and Iron Tab; Stress B Complex With C,e, Zinc and Copper; Stress B With 1000 Mg Vitamin C; Stress B&c Tab; Stress B-complex Plus Iron With Vitamins C&e; Stress Complex 600 Avec Vit E Cuivre Zinc; Stress Ctr Srt; Stress Formula; Stress Formula + Iron; Stress Formula B-comp + 500mg Vit C Tab; Stress Formula Multi-B Comp + 500mg Vit C Cap; Stress Formula Multivitamin Tablets USP; Stress Formula Tab; Stress Formula Vit B With C Complex; Stress Forte Plus Lipotropic Factors; Stress Tab; Stress Tab With Iron and Vitamin E; Stress Tab With Zinc, Copper and Vitamin E; Stress Vitamin B With C Complex Tablets; Stressmates; Stresstabs + Zinc-copper; Strovite Forte Caplet; Strovite One Caplets; Sun-rype Vitaburst; Super B Compound W 500mg Vit C; Super B12 + Folic Acid; Super Charged Energy; Super Daily No 2; Super Kids Chewable Multivitamin Multimineral (chewable Tablets); Super Multi; Super Pantoplex; Super Stress Capsules; Super Stress Mega B Plus 1000mg Vit C Tab; Super Vita Vim Multivitamins and Minerals; Super Vita-vim With Beta-carotene - Tab; Super Vitalex Ampoule Buvable; Super-pote Vitamin Supplement; Supravite 10ml Ampoule; Supravite Bouteille 250ml; Supravite C 1000; Supravite Stress Avec Vit E; Supravite Stress Avec Vit E Cuivre Et Zinc; Supravite Stress Avec Vit E Et Fer; Surbex 500 Filmtab; Surbex-500 With Iron; Surbex-500 With Zinc; Sveets; Swical-energy 3e Age; Swical-energy-2; Swiss One; Swiss One Multi Vit & Chel Min Tab; Swiss One Multivitamin and Mineral Caplet; Swiss One Timed Release Tab; T.R.I. B-plex Src; TL Gard Rx; TL-Care DHA; TL-Fluorivite; TL-Folate; TL-Icon; Taliment; Taliva; Tandem OB; Tandem Plus; Tar-end; Taron Forte; Taron-C DHA; Tendera-OB; Thrivite 19; Thrivite Rx; Time Release B 100 Compound - Tablet; Timed Release B Complex 100 Srt; Timed Release B-complex 100; Timed Release B-complex 50; Timed Release Vita-vim Srt; Tini-cal Ampoules; Tl-hem 150; Toni Com Liq; Tonicol Et A-D-C Ampoules/comprimes; Total Living Concepts Formula One - Tab; Totalvit Plus; Tozal; Trace Minerals Et/and B12 Tab; TriAdvance; TriStart DHA; Tricare Prenatal; Tricare Prenatal 2-part Daily Prenatal Vitamin System; Tricare Prenatal Compleat; Tricare Prenatal DHA One; Tricare Prenatal DHA One Rx Multivitamin; Tricare Prenatal DHA One With Folate; Tricare Prenatal Quick Dissolve; Tricon; Trigels-F Forte; Trinatal GT; Trinatal Rx 1; Trinatal Ultra; TriphroCaps; Triveen-Duo DHA; Twin G.F. Powder; Twin G.F. Powder Vanilla Flavor; Twin Opti Pwr; Udamin Sp; Ultimate OB DHA; Ultimate Tab; Ultra Enerforce; Usana Megavitamin Tablets - Tab; V & M Vitamin and Mineral Supplement; V-Natal; VIL-Rx; VITAFOL Gummies; VP-HEME One; VP-Iron-C Plus; VP-Vite Rx; Vasculine; Vc II; Vege 1 Daily Tab; Vege Swiss One Multivitamin W Chel Mins Tab; Vena-Bal DHA; Venexa; Venexa FE; Ventrixyl; Ventrixyl Fe; Viamon Ampoules Et Comprimes; Vigem 12 Liquid; Vimeral Tab; Vinate AZ; Virt Nate; Virt Vite GT; Virt-Advance; Virt-Bal DHA Plus; Virt-C DHA; Virt-Caps; Virt-Gard; Virt-Nate; Virt-Nate DHA; Virt-PN; Virt-PN DHA; Virt-PN Plus; Virt-Pn; Virt-Pn DHA; Virt-Vite; Virt-Vite Forte; Virt-Vite Plus; Vit B Complex Ctr; Vit B Complex Plus Vit C 550mg; Vit B12 Ctr Srt 1200mcg; Vit B12 Tab 500mcg; Vita B + C 500 Tab; Vita B Complex Tab; Vita Balance 2000; Vita Day Tab; Vita Plex Tab; Vita Vim Multivitamins and Minerals Tab; Vita Vim With Beta Carotene-caplet; Vita-B; Vita-B-75 Cap; Vita-folic-B Caps; Vita-vim - Tab; Vita-vim With Beta-carotene - Tab; Vita-worth B-complex Tablets; VitaPhil Aide; VitaXyme; Vitabanks Vitamin Tab; Vitachrom Gc; Vitaday Junior Tab; Vitaday Tab; Vitafer - Liq; Vitaflex Dietary Suplement; Vitafol; Vitafol Caplet; Vitafol Fe Plus; Vitafol Nano; Vitafol OB Caplet; Vitafol One; Vitafol Plus; Vitafol Ultra; Vitafol-OB Plus DHA Prenatal Supplement Plus DHA; Vital Be-100; Vitalife - Capsule; Vitamin & Mineral Formula 1 Dietary Supplement; Vitamin B + C Cap; Vitamin B 12 Tab 25mcg; Vitamin B Complex + C 300mg Cap; Vitamin B Complex + C 600mg Tab; Vitamin B Complex 100 Tab; Vitamin B Complex 50; Vitamin B Complex Plus 300mg Vitamin C; Vitamin B Complex Suppl; Vitamin B Complex Tab; Vitamin B Complex W C 300mg Tab; Vitamin B Complex W C Tab; Vitamin B Compound Tab; Vitamin B Compound W C Tab 500mg; Vitamin B Compound W Vit C 250mg Tab; Vitamin B Compound With Vitamin C Fortis Capsule Dtc; Vitamin B Tablets; Vitamin B-12 500 Mcg - Tablets; Vitamin B-12 Tablet; Vitamin B-12 With Folic Acid Tablets; Vitamin B12; Vitamin B12 (cyanocobalamin) 1000mcg Caplet; Vitamin B12 100 Mcg; Vitamin B12 100 Mcg Tablets; Vitamin B12 1000 Mcg; Vitamin B12 100mcg; Vitamin B12 250mcg; Vitamin B12 250mcg Tablets; Vitamin B12 500 Mcg; Vitamin B12 500mcg; Vitamin B12 50mcg Tab; Vitamin B12 Cap 500mcg USP; Vitamin B12 Cyanocobalamin Injection, USP 1000 Mcg/ml; Vitamin B12 Cyanocobalamine 500 Mcg; Vitamin B12 Inj 1000mcg/ml; Vitamin B12 Inj 100mcg/ml; Vitamin B12 Plus Tablets W Folic Acid; Vitamin B12 Srt 1000mcg; Vitamin B12 Tab 100mcg; Vitamin B12 Tab 250mcg; Vitamin B12 Tab 25mcg; Vitamin B12 Tab 500mcg; Vitamin B12 Tab 5mcg; Vitamin B12 Tablets 250mcg; Vitamin B12-folic Acid; Vitamin B6 & B12 With Folic Acid; Vitamin Deficiency Injectable System - B12; Vitamin Deficiency System; Vitamine 110 Liq; Vitamine B-12 Tab 100mcg; Vitamine B12 25 Mcg - Tablet; Vitamine B12 250mcg; Vitamine B12 Tab 25mcg; Vitamine B12 Tab 3mcg Chewable; Vitamine Du Groupe B Plus Fer - Liq; Vitamines Et Mineraux; Vitamines Et Mineraux Comprimes; Vitamines Et Mineraux Enfants 970; Vitaphil 90 DHA; Vitaphil DHA; Vitaplex; Vitazyme; Vitogen B Stress C Vit E Zinc & Cop; Vitogen B Stress C600; Vitramyn; Vitranol; Vitranol Fe; Vitrexate; Vitrexate FE; Vitrexyl; Vitrexyl plus Iron; Viva CT Prenatal; Viva Kids - Tab; Vol-Care Rx; Vol-Nate; Vol-Plus; Vol-Tab Rx; Vp-heme Ob; Vp-heme Ob DHA; Vp-pnv-dha; Vtb Vitamin and Mineral Supplement; Vyo Cylate - Pwr; Vyqua; Wellness Formula; WesCap-C-DHA; WesCap-PN DHA; WesCaps; WesNate DHA; WesTab Mini; WesTab Plus; WestGel DHA; Women's Change Formula; Women's Formula; Z Bec Tab; Zatean-Pn; Zatean-Pn DHA; Zatean-Pn Plus; Zeldana; Zintrexyl-C; Zoo Chews; Zoo Chews Plus Iron; ahoSAN; bioJET; hormaSAN forte; iFerex 150 Forte; tensioSAN; vitaMedMD One Rx; vitaMedMD Rx Plus

> <INTERNATIONAL_BRANDS>
Bedodeka; Bedoz; Berubigen; Betalin; Cobione; Cobolin-M; Crystamine; Cyanoject; Cyomin; Cytakon; Cytamen; Dicopac; Neuroforte-R; Primabalt; Vitabee 12

$$$$
