
  Mrv1652306131722022D          

 19 20  0  0  0  0            999 V2000
    0.6538   -0.6979    0.0000 C   0  0  0  0  0  0  0  0  0  0  0  0
    1.1387   -0.0305    0.0000 N   0  0  0  0  0  0  0  0  0  0  0  0
    1.9233   -0.2854    0.0000 C   0  0  0  0  0  0  0  0  0  0  0  0
    2.6378    0.1271    0.0000 C   0  0  0  0  0  0  0  0  0  0  0  0
    3.3523   -0.2854    0.0000 N   0  0  0  0  0  0  0  0  0  0  0  0
    3.3523   -1.1104    0.0000 C   0  0  0  0  0  0  0  0  0  0  0  0
    2.6378   -1.5229    0.0000 N   0  0  0  0  0  0  0  0  0  0  0  0
    1.9233   -1.1104    0.0000 C   0  0  0  0  0  0  0  0  0  0  0  0
    1.1387   -1.3654    0.0000 N   0  0  0  0  0  0  0  0  0  0  0  0
    0.8838   -2.1500    0.0000 C   0  0  0  0  0  0  0  0  0  0  0  0
    0.0768   -2.3215    0.0000 C   0  0  0  0  0  0  0  0  0  0  0  0
   -0.1781   -3.1062    0.0000 O   0  0  0  0  0  0  0  0  0  0  0  0
   -0.9851   -3.2777    0.0000 C   0  0  0  0  0  0  0  0  0  0  0  0
   -1.2400   -4.0623    0.0000 P   0  0  0  0  0  0  0  0  0  0  0  0
   -1.4950   -4.8469    0.0000 O   0  0  0  0  0  0  0  0  0  0  0  0
   -2.0247   -3.8074    0.0000 O   0  0  0  0  0  0  0  0  0  0  0  0
   -0.4554   -4.3172    0.0000 O   0  0  0  0  0  0  0  0  0  0  0  0
    4.0668   -1.5229    0.0000 N   0  0  0  0  0  0  0  0  0  0  0  0
    2.6378    0.9521    0.0000 N   0  0  0  0  0  0  0  0  0  0  0  0
  1  2  2  0  0  0  0
  2  3  1  0  0  0  0
  3  4  2  0  0  0  0
  4  5  1  0  0  0  0
  5  6  2  0  0  0  0
  6  7  1  0  0  0  0
  7  8  2  0  0  0  0
  3  8  1  0  0  0  0
  8  9  1  0  0  0  0
  1  9  1  0  0  0  0
  9 10  1  0  0  0  0
 10 11  1  0  0  0  0
 11 12  1  0  0  0  0
 12 13  1  0  0  0  0
 13 14  1  0  0  0  0
 14 15  2  0  0  0  0
 14 16  1  0  0  0  0
 14 17  1  0  0  0  0
  6 18  1  0  0  0  0
  4 19  1  0  0  0  0
M  END
> <DATABASE_ID>
DB08843

> <DATABASE_NAME>
drugbank

> <SMILES>
NC1=NC(N)=C2N=CN(CCOCP(O)(O)=O)C2=N1

> <INCHI_IDENTIFIER>
InChI=1S/C8H13N6O4P/c9-6-5-7(13-8(10)12-6)14(3-11-5)1-2-18-4-19(15,16)17/h3H,1-2,4H2,(H2,15,16,17)(H4,9,10,12,13)

> <INCHI_KEY>
XHXFQGAZAVKMFF-UHFFFAOYSA-N

> <FORMULA>
C8H13N6O4P

> <MOLECULAR_WEIGHT>
288.204

> <EXACT_MASS>
288.073589921

> <JCHEM_ACCEPTOR_COUNT>
9

> <JCHEM_ATOM_COUNT>
32

> <JCHEM_AVERAGE_POLARIZABILITY>
25.059186729933646

> <JCHEM_BIOAVAILABILITY>
1

> <JCHEM_DONOR_COUNT>
4

> <JCHEM_FORMAL_CHARGE>
0

> <JCHEM_GHOSE_FILTER>
0

> <JCHEM_IUPAC>
{[2-(2,6-diamino-9H-purin-9-yl)ethoxy]methyl}phosphonic acid

> <ALOGPS_LOGP>
-2.01

> <JCHEM_LOGP>
-4.74620358618081

> <ALOGPS_LOGS>
-2.17

> <JCHEM_MDDR_LIKE_RULE>
0

> <JCHEM_NUMBER_OF_RINGS>
2

> <JCHEM_PHYSIOLOGICAL_CHARGE>
-1

> <JCHEM_PKA>
7.910736289316652

> <JCHEM_PKA_STRONGEST_ACIDIC>
1.3647945946445081

> <JCHEM_PKA_STRONGEST_BASIC>
6.016881529653592

> <JCHEM_POLAR_SURFACE_AREA>
162.40000000000003

> <JCHEM_REFRACTIVITY>
67.7626

> <JCHEM_ROTATABLE_BOND_COUNT>
5

> <JCHEM_RULE_OF_FIVE>
1

> <ALOGPS_SOLUBILITY>
1.94e+00 g/l

> <JCHEM_TRADITIONAL_IUPAC>
[2-(2,6-diaminopurin-9-yl)ethoxy]methylphosphonic acid

> <JCHEM_VEBER_RULE>
0

> <DRUGBANK_ID>
DB08843

> <DRUG_GROUPS>
investigational

> <GENERIC_NAME>
GS 0573

> <SYNONYMS>
9-(2-phosphonylmethoxyethyl)-2,6-diaminopurine

$$$$
