
  Mrv1652310211603512D          

 32 32  0  0  1  0            999 V2000
    0.7145   -0.4125    0.0000 C   0  0  0  0  0  0  0  0  0  0  0  0
    0.0000    0.0000    0.0000 C   0  0  0  0  0  0  0  0  0  0  0  0
    0.0000    0.8250    0.0000 C   0  0  0  0  0  0  0  0  0  0  0  0
    0.7145    1.2375    0.0000 C   0  0  0  0  0  0  0  0  0  0  0  0
    1.4289    0.8250    0.0000 C   0  0  0  0  0  0  0  0  0  0  0  0
    1.4289    0.0000    0.0000 C   0  0  0  0  0  0  0  0  0  0  0  0
    2.1434   -0.4125    0.0000 N   0  0  0  0  0  0  0  0  0  0  0  0
    2.8579    0.0000    0.0000 C   0  0  0  0  0  0  0  0  0  0  0  0
    2.8579    0.8250    0.0000 O   0  0  0  0  0  0  0  0  0  0  0  0
    3.5724   -0.4125    0.0000 N   0  0  0  0  0  0  0  0  0  0  0  0
    4.2868    0.0000    0.0000 C   0  0  0  0  0  0  0  0  0  0  0  0
    5.0013   -0.4125    0.0000 C   0  0  0  0  0  0  0  0  0  0  0  0
    5.7158    0.0000    0.0000 C   0  0  0  0  0  0  0  0  0  0  0  0
    6.4302   -0.4125    0.0000 C   0  0  0  0  0  0  0  0  0  0  0  0
    7.1447    0.0000    0.0000 C   0  0  1  0  0  0  0  0  0  0  0  0
    7.1447    0.8250    0.0000 C   0  0  0  0  0  0  0  0  0  0  0  0
    7.8592    1.2375    0.0000 O   0  0  0  0  0  0  0  0  0  0  0  0
    6.4302    1.2375    0.0000 O   0  0  0  0  0  0  0  0  0  0  0  0
    7.8592   -0.4125    0.0000 N   0  0  0  0  0  0  0  0  0  0  0  0
    8.5737    0.0000    0.0000 C   0  0  0  0  0  0  0  0  0  0  0  0
    8.5737    0.8250    0.0000 O   0  0  0  0  0  0  0  0  0  0  0  0
    9.2881   -0.4125    0.0000 N   0  0  0  0  0  0  0  0  0  0  0  0
   10.0026    0.0000    0.0000 C   0  0  1  0  0  0  0  0  0  0  0  0
   10.7171   -0.4125    0.0000 C   0  0  0  0  0  0  0  0  0  0  0  0
   11.4315    0.0000    0.0000 C   0  0  0  0  0  0  0  0  0  0  0  0
   12.1460   -0.4125    0.0000 C   0  0  0  0  0  0  0  0  0  0  0  0
   12.8605    0.0000    0.0000 O   0  0  0  0  0  0  0  0  0  0  0  0
   12.1460   -1.2375    0.0000 O   0  0  0  0  0  0  0  0  0  0  0  0
   10.0026    0.8250    0.0000 C   0  0  0  0  0  0  0  0  0  0  0  0
   10.7171    1.2375    0.0000 O   0  0  0  0  0  0  0  0  0  0  0  0
    9.2881    1.2375    0.0000 O   0  0  0  0  0  0  0  0  0  0  0  0
   -0.7145    1.2375    0.0000 I   0  0  0  0  0  0  0  0  0  0  0  0
  1  2  2  0  0  0  0
  2  3  1  0  0  0  0
  3  4  2  0  0  0  0
  4  5  1  0  0  0  0
  5  6  2  0  0  0  0
  1  6  1  0  0  0  0
  6  7  1  0  0  0  0
  7  8  1  0  0  0  0
  8  9  2  0  0  0  0
  8 10  1  0  0  0  0
 10 11  1  0  0  0  0
 11 12  1  0  0  0  0
 12 13  1  0  0  0  0
 13 14  1  0  0  0  0
 14 15  1  0  0  0  0
 15 16  1  0  0  0  0
 16 17  2  0  0  0  0
 16 18  1  0  0  0  0
 15 19  1  1  0  0  0
 19 20  1  0  0  0  0
 20 21  2  0  0  0  0
 20 22  1  0  0  0  0
 23 22  1  6  0  0  0
 23 24  1  0  0  0  0
 24 25  1  0  0  0  0
 25 26  1  0  0  0  0
 26 27  2  0  0  0  0
 26 28  1  0  0  0  0
 23 29  1  0  0  0  0
 29 30  2  0  0  0  0
 29 31  1  0  0  0  0
  3 32  1  0  0  0  0
M  ISO  1  32 123
M  END
> <DATABASE_ID>
DB12994

> <DATABASE_NAME>
drugbank

> <SMILES>
OC(=O)CC[C@H](NC(=O)N[C@@H](CCCCNC(=O)NC1=CC=C([123I])C=C1)C(O)=O)C(O)=O

> <INCHI_IDENTIFIER>
InChI=1S/C19H25IN4O8/c20-11-4-6-12(7-5-11)22-18(31)21-10-2-1-3-13(16(27)28)23-19(32)24-14(17(29)30)8-9-15(25)26/h4-7,13-14H,1-3,8-10H2,(H,25,26)(H,27,28)(H,29,30)(H2,21,22,31)(H2,23,24,32)/t13-,14-/m0/s1/i20-4

> <INCHI_KEY>
LFEGKCKGGNXWDV-NKNRFTOXSA-N

> <FORMULA>
C19H25IN4O8

> <MOLECULAR_WEIGHT>
560.335

> <EXACT_MASS>
560.072836725

> <JCHEM_ACCEPTOR_COUNT>
8

> <JCHEM_ATOM_COUNT>
57

> <JCHEM_AVERAGE_POLARIZABILITY>
49.20055142823444

> <JCHEM_BIOAVAILABILITY>
0

> <JCHEM_DONOR_COUNT>
7

> <JCHEM_FORMAL_CHARGE>
0

> <JCHEM_GHOSE_FILTER>
0

> <JCHEM_IUPAC>
(2S)-2-({[(1S)-1-carboxy-5-({[4-(¹²³I)iodophenyl]carbamoyl}amino)pentyl]carbamoyl}amino)pentanedioic acid

> <ALOGPS_LOGP>
1.03

> <JCHEM_LOGP>
1.3474520366666662

> <ALOGPS_LOGS>
-3.75

> <JCHEM_MDDR_LIKE_RULE>
0

> <JCHEM_NUMBER_OF_RINGS>
1

> <JCHEM_PHYSIOLOGICAL_CHARGE>
-3

> <JCHEM_PKA>
3.677562025802341

> <JCHEM_PKA_STRONGEST_ACIDIC>
3.089107426836065

> <JCHEM_POLAR_SURFACE_AREA>
194.15999999999997

> <JCHEM_REFRACTIVITY>
120.13369999999998

> <JCHEM_ROTATABLE_BOND_COUNT>
13

> <JCHEM_RULE_OF_FIVE>
0

> <ALOGPS_SOLUBILITY>
1.01e-01 g/l

> <JCHEM_TRADITIONAL_IUPAC>
(2S)-2-({[(1S)-1-carboxy-5-({[4-(¹²³I)iodophenyl]carbamoyl}amino)pentyl]carbamoyl}amino)pentanedioic acid

> <JCHEM_VEBER_RULE>
0

> <DRUGBANK_ID>
DB12994

> <DRUG_GROUPS>
investigational

> <GENERIC_NAME>
MIP-1095 I-123

$$$$
