
  Mrv1909 12152018032D          

 24 28  0  0  0  0            999 V2000
   -2.1434    1.2375    0.0000 O   0  0  0  0  0  0  0  0  0  0  0  0
   -1.4289    0.8250    0.0000 C   0  0  0  0  0  0  0  0  0  0  0  0
   -1.4289   -0.0000    0.0000 N   0  0  0  0  0  0  0  0  0  0  0  0
   -0.7145   -0.4125    0.0000 N   0  0  0  0  0  0  0  0  0  0  0  0
   -0.0000   -0.0000    0.0000 C   0  0  0  0  0  0  0  0  0  0  0  0
    0.7145   -0.4125    0.0000 N   0  0  0  0  0  0  0  0  0  0  0  0
    1.4289   -0.0000    0.0000 C   0  0  0  0  0  0  0  0  0  0  0  0
    2.1434   -0.4125    0.0000 C   0  0  0  0  0  0  0  0  0  0  0  0
    2.1434   -1.2375    0.0000 N   0  0  0  0  0  0  0  0  0  0  0  0
    1.4760   -1.7224    0.0000 C   0  0  0  0  0  0  0  0  0  0  0  0
    1.7309   -2.5070    0.0000 C   0  0  0  0  0  0  0  0  0  0  0  0
    2.5559   -2.5070    0.0000 C   0  0  0  0  0  0  0  0  0  0  0  0
    2.8109   -1.7224    0.0000 C   0  0  0  0  0  0  0  0  0  0  0  0
    2.9684   -3.2215    0.0000 C   0  0  0  0  0  0  0  0  0  0  0  0
    2.5559   -3.9360    0.0000 C   0  0  0  0  0  0  0  0  0  0  0  0
    1.7309   -3.9360    0.0000 C   0  0  0  0  0  0  0  0  0  0  0  0
    1.3184   -3.2215    0.0000 C   0  0  0  0  0  0  0  0  0  0  0  0
    1.4289    0.8250    0.0000 N   0  0  0  0  0  0  0  0  0  0  0  0
    0.7145    1.2375    0.0000 C   0  0  0  0  0  0  0  0  0  0  0  0
    0.0000    0.8250    0.0000 C   0  0  0  0  0  0  0  0  0  0  0  0
   -0.7145    1.2375    0.0000 C   0  0  0  0  0  0  0  0  0  0  0  0
   -0.7145    2.0625    0.0000 C   0  0  0  0  0  0  0  0  0  0  0  0
    0.0000    2.4750    0.0000 C   0  0  0  0  0  0  0  0  0  0  0  0
    0.7145    2.0625    0.0000 C   0  0  0  0  0  0  0  0  0  0  0  0
  1  2  2  0  0  0  0
  2  3  1  0  0  0  0
  3  4  1  0  0  0  0
  4  5  2  0  0  0  0
  5  6  1  0  0  0  0
  6  7  1  0  0  0  0
  7  8  1  0  0  0  0
  8  9  1  0  0  0  0
  9 10  1  0  0  0  0
 10 11  1  0  0  0  0
 11 12  2  0  0  0  0
 12 13  1  0  0  0  0
  9 13  1  0  0  0  0
 12 14  1  0  0  0  0
 14 15  2  0  0  0  0
 15 16  1  0  0  0  0
 16 17  2  0  0  0  0
 11 17  1  0  0  0  0
  7 18  2  0  0  0  0
 18 19  1  0  0  0  0
 19 20  2  0  0  0  0
  5 20  1  0  0  0  0
 20 21  1  0  0  0  0
  2 21  1  0  0  0  0
 21 22  2  0  0  0  0
 22 23  1  0  0  0  0
 23 24  2  0  0  0  0
 19 24  1  0  0  0  0
M  END
> <DATABASE_ID>
DB16063

> <DATABASE_NAME>
drugbank

> <SMILES>
O=C1NN=C2NC(CN3CC4=C(C3)C=CC=C4)=NC3=C2C1=CC=C3

> <INCHI_IDENTIFIER>
InChI=1S/C18H15N5O/c24-18-13-6-3-7-14-16(13)17(21-22-18)20-15(19-14)10-23-8-11-4-1-2-5-12(11)9-23/h1-7H,8-10H2,(H,22,24)(H,19,20,21)

> <INCHI_KEY>
JLFSBHQQXIAQEC-UHFFFAOYSA-N

> <FORMULA>
C18H15N5O

> <MOLECULAR_WEIGHT>
317.352

> <EXACT_MASS>
317.127660123

> <JCHEM_ACCEPTOR_COUNT>
5

> <JCHEM_ATOM_COUNT>
39

> <JCHEM_AVERAGE_NEUTRAL_MICROSPECIES_CHARGE>
0.010096626225768946

> <JCHEM_AVERAGE_POLARIZABILITY>
33.445623098025486

> <JCHEM_BIOAVAILABILITY>
1

> <JCHEM_DONOR_COUNT>
2

> <JCHEM_FORMAL_CHARGE>
0

> <JCHEM_GHOSE_FILTER>
1

> <JCHEM_IUPAC>
11-[(2,3-dihydro-1H-isoindol-2-yl)methyl]-2,3,10,12-tetraazatricyclo[7.3.1.0^{5,13}]trideca-1,5,7,9(13),10-pentaen-4-one

> <ALOGPS_LOGP>
1.56

> <JCHEM_LOGP>
1.683446842

> <ALOGPS_LOGS>
-3.05

> <JCHEM_MDDR_LIKE_RULE>
0

> <JCHEM_NEUTRAL_CHARGE>
0

> <JCHEM_NUMBER_OF_RINGS>
5

> <JCHEM_PHYSIOLOGICAL_CHARGE>
0

> <JCHEM_PKA>
18.509379926113496

> <JCHEM_PKA_STRONGEST_ACIDIC>
9.472157677434073

> <JCHEM_PKA_STRONGEST_BASIC>
5.139176532389035

> <JCHEM_POLAR_SURFACE_AREA>
69.09

> <JCHEM_REFRACTIVITY>
93.5216

> <JCHEM_ROTATABLE_BOND_COUNT>
2

> <JCHEM_RULE_OF_FIVE>
1

> <ALOGPS_SOLUBILITY>
2.84e-01 g/l

> <JCHEM_TRADITIONAL_IUPAC>
5-({4-[2-(3-methoxyphenyl)-2-oxoethoxy]phenyl}methyl)-1,3-thiazolidine-2,4-dione

> <JCHEM_VEBER_RULE>
0

> <DRUGBANK_ID>
DB16063

> <DRUG_GROUPS>
investigational

> <GENERIC_NAME>
2X-121

$$$$
