
  Mrv1652306231722482D          

 29 32  0  0  1  0            999 V2000
   -3.5635   -2.4430    0.0000 C   0  0  0  0  0  0  0  0  0  0  0  0
   -3.5635   -1.6180    0.0000 C   0  0  2  0  0  0  0  0  0  0  0  0
   -2.8490   -1.2055    0.0000 C   0  0  0  0  0  0  0  0  0  0  0  0
   -2.1345   -1.6180    0.0000 C   0  0  0  0  0  0  0  0  0  0  0  0
   -1.4201   -1.2055    0.0000 C   0  0  0  0  0  0  0  0  0  0  0  0
   -0.7056   -1.6180    0.0000 C   0  0  0  0  0  0  0  0  0  0  0  0
    0.0089   -1.2055    0.0000 C   0  0  0  0  0  0  0  0  0  0  0  0
   -0.7056   -2.4430    0.0000 C   0  0  0  0  0  0  0  0  0  0  0  0
   -4.2780   -1.2055    0.0000 C   0  0  1  0  0  0  0  0  0  0  0  0
   -4.3642   -0.3850    0.0000 C   0  0  0  0  0  0  0  0  0  0  0  0
   -5.1712   -0.2135    0.0000 C   0  0  0  0  0  0  0  0  0  0  0  0
   -5.5837   -0.9280    0.0000 C   0  0  2  0  0  0  0  0  0  0  0  0
   -5.0316   -1.5411    0.0000 C   0  0  2  0  0  0  0  0  0  0  0  0
   -5.2866   -2.3257    0.0000 C   0  0  0  0  0  0  0  0  0  0  0  0
   -6.0935   -2.4972    0.0000 C   0  0  0  0  0  0  0  0  0  0  0  0
   -6.6456   -1.8841    0.0000 C   0  0  1  0  0  0  0  0  0  0  0  0
   -6.3906   -1.0995    0.0000 C   0  0  1  0  0  0  0  0  0  0  0  0
   -6.9427   -0.4864    0.0000 C   0  0  0  0  0  0  0  0  0  0  0  0
   -7.7496   -0.6579    0.0000 C   0  0  0  0  0  0  0  0  0  0  0  0
   -8.0046   -1.4426    0.0000 C   0  0  0  0  0  0  0  0  0  0  0  0
   -7.4525   -2.0556    0.0000 C   0  0  2  0  0  0  0  0  0  0  0  0
   -7.7075   -2.8403    0.0000 C   0  0  0  0  0  0  0  0  0  0  0  0
   -8.5145   -3.0118    0.0000 C   0  0  0  0  0  0  0  0  0  0  0  0
   -9.0665   -2.3987    0.0000 C   0  0  1  0  0  0  0  0  0  0  0  0
   -8.8115   -1.6141    0.0000 C   0  0  0  0  0  0  0  0  0  0  0  0
   -9.8735   -2.5702    0.0000 O   0  0  0  0  0  0  0  0  0  0  0  0
   -6.9005   -2.6687    0.0000 C   0  0  0  0  0  0  0  0  0  0  0  0
   -7.1554   -3.4534    0.0000 I   0  0  0  0  0  0  0  0  0  0  0  0
   -4.4185   -2.0931    0.0000 C   0  0  0  0  0  0  0  0  0  0  0  0
  2  1  1  1  0  0  0
  2  3  1  0  0  0  0
  3  4  1  0  0  0  0
  4  5  1  0  0  0  0
  5  6  1  0  0  0  0
  6  7  1  0  0  0  0
  6  8  1  0  0  0  0
  9  2  1  6  0  0  0
  9 10  1  0  0  0  0
 10 11  1  0  0  0  0
 12 11  1  6  0  0  0
 12 13  1  0  0  0  0
  9 13  1  0  0  0  0
 13 14  1  0  0  0  0
 14 15  1  0  0  0  0
 16 15  1  6  0  0  0
 16 17  1  0  0  0  0
 12 17  1  0  0  0  0
 17 18  1  1  0  0  0
 18 19  1  0  0  0  0
 19 20  2  0  0  0  0
 20 21  1  0  0  0  0
 16 21  1  0  0  0  0
 21 22  1  0  0  0  0
 22 23  1  0  0  0  0
 23 24  1  0  0  0  0
 24 25  1  0  0  0  0
 20 25  1  0  0  0  0
 24 26  1  6  0  0  0
 21 27  1  6  0  0  0
 27 28  1  0  0  0  0
 13 29  1  6  0  0  0
M  ISO  1  28 131
M  END
> <DATABASE_ID>
DB13797

> <DATABASE_NAME>
drugbank

> <SMILES>
CC(C)CCC[C@@H](C)[C@H]1CC[C@H]2[C@@H]3CC=C4C[C@@H](O)CC[C@]4(C[131I])[C@H]3CC[C@]12C

> <INCHI_IDENTIFIER>
InChI=1S/C27H45IO/c1-18(2)6-5-7-19(3)23-10-11-24-22-9-8-20-16-21(29)12-15-27(20,17-28)25(22)13-14-26(23,24)4/h8,18-19,21-25,29H,5-7,9-17H2,1-4H3/t19-,21+,22+,23-,24+,25+,26-,27-/m1/s1/i28+4

> <INCHI_KEY>
FIOAEFCJGZJUPW-ODFYUTSGSA-N

> <FORMULA>
C27H45IO

> <MOLECULAR_WEIGHT>
516.562

> <EXACT_MASS>
516.253165237

> <JCHEM_ACCEPTOR_COUNT>
1

> <JCHEM_ATOM_COUNT>
74

> <JCHEM_AVERAGE_POLARIZABILITY>
55.13845652308777

> <JCHEM_BIOAVAILABILITY>
0

> <JCHEM_DONOR_COUNT>
1

> <JCHEM_FORMAL_CHARGE>
0

> <JCHEM_GHOSE_FILTER>
0

> <JCHEM_IUPAC>
(1S,2S,5S,10S,11S,14R,15R)-2-[(¹³¹I)iodomethyl]-15-methyl-14-[(2R)-6-methylheptan-2-yl]tetracyclo[8.7.0.0^{2,7}.0^{11,15}]heptadec-7-en-5-ol

> <ALOGPS_LOGP>
6.85

> <JCHEM_LOGP>
7.802482717

> <ALOGPS_LOGS>
-7.11

> <JCHEM_MDDR_LIKE_RULE>
1

> <JCHEM_NUMBER_OF_RINGS>
4

> <JCHEM_PHYSIOLOGICAL_CHARGE>
0

> <JCHEM_PKA_STRONGEST_ACIDIC>
18.204245566013483

> <JCHEM_PKA_STRONGEST_BASIC>
-1.3972629894257018

> <JCHEM_POLAR_SURFACE_AREA>
20.23

> <JCHEM_REFRACTIVITY>
133.67439999999996

> <JCHEM_ROTATABLE_BOND_COUNT>
6

> <JCHEM_RULE_OF_FIVE>
0

> <ALOGPS_SOLUBILITY>
3.97e-05 g/l

> <JCHEM_TRADITIONAL_IUPAC>
(1S,2S,5S,10S,11S,14R,15R)-2-[(¹³¹I)iodomethyl]-15-methyl-14-[(2R)-6-methylheptan-2-yl]tetracyclo[8.7.0.0^{2,7}.0^{11,15}]heptadec-7-en-5-ol

> <JCHEM_VEBER_RULE>
1

> <DRUGBANK_ID>
DB13797

> <DRUG_GROUPS>
experimental

> <GENERIC_NAME>
Iodocholesterol (131I)

> <SYNONYMS>
Iodocholesterol (131I); Iodocholesterol i-131

$$$$
