
  Mrv1909 02062022412D          

 40 43  0  0  0  0            999 V2000
   -2.3805   -1.1587    0.0000 C   0  0  0  0  0  0  0  0  0  0  0  0
   -3.0949   -1.5712    0.0000 C   0  0  0  0  0  0  0  0  0  0  0  0
   -0.9515   -2.8087    0.0000 C   0  0  0  0  0  0  0  0  0  0  0  0
   -0.2371   -2.3962    0.0000 C   0  0  0  0  0  0  0  0  0  0  0  0
   -1.6660   -1.5712    0.0000 C   0  0  2  0  0  0  0  0  0  0  0  0
   -0.2371    0.0787    0.0000 C   0  0  0  0  0  0  0  0  0  0  0  0
    1.2619   -1.4136    0.0000 C   0  0  0  0  0  0  0  0  0  0  0  0
   -1.6660   -0.7462    0.0000 C   0  0  0  0  0  0  0  0  0  0  0  0
   -0.9515   -1.1587    0.0000 C   0  0  1  0  0  0  0  0  0  0  0  0
   -0.9515   -1.9837    0.0000 H   0  0  0  0  0  0  0  0  0  0  0  0
   -0.2371   -1.5712    0.0000 C   0  0  1  0  0  0  0  0  0  0  0  0
    0.4773   -1.1587    0.0000 C   0  0  2  0  0  0  0  0  0  0  0  0
    0.4773   -0.3337    0.0000 C   0  0  2  0  0  0  0  0  0  0  0  0
   -0.2371   -0.7462    0.0000 C   0  0  0  0  0  0  0  0  0  0  0  0
    0.4773    0.4913    0.0000 H   0  0  0  0  0  0  0  0  0  0  0  0
    0.4773   -1.9837    0.0000 C   0  0  0  0  0  0  0  0  0  0  0  0
   -1.6660   -2.3962    0.0000 C   0  0  2  0  0  0  0  0  0  0  0  0
   -1.6660   -3.2212    0.0000 H   0  0  0  0  0  0  0  0  0  0  0  0
   -3.0949   -2.3962    0.0000 C   0  0  1  0  0  0  0  0  0  0  0  0
   -3.8094   -2.8087    0.0000 O   0  0  0  0  0  0  0  0  0  0  0  0
   -2.3805   -2.8087    0.0000 C   0  0  1  0  0  0  0  0  0  0  0  0
   -2.3805   -3.6337    0.0000 C   0  0  0  0  0  0  0  0  0  0  0  0
    1.7469   -0.7462    0.0000 C   0  0  2  0  0  0  0  0  0  0  0  0
    2.5719   -0.7462    0.0000 O   0  0  0  0  0  0  0  0  0  0  0  0
    3.8094   -1.4607    0.0000 C   0  0  0  0  0  0  0  0  0  0  0  0
    2.9844   -1.4607    0.0000 C   0  0  0  0  0  0  0  0  0  0  0  0
    2.5719   -2.1751    0.0000 O   0  0  0  0  0  0  0  0  0  0  0  0
    1.2619   -0.0788    0.0000 C   0  0  0  0  0  0  0  0  0  0  0  0
   -0.9515   -0.3337    0.0000 C   0  0  2  0  0  0  0  0  0  0  0  0
    1.2619    0.7461    0.0000 C   0  0  0  0  0  0  0  0  0  0  0  0
    1.9764    1.9837    0.0000 O   0  0  0  0  0  0  0  0  0  0  0  0
    1.9764    1.1587    0.0000 C   0  0  0  0  0  0  0  0  0  0  0  0
    2.6908    0.7461    0.0000 O   0  0  0  0  0  0  0  0  0  0  0  0
    0.5474    1.1587    0.0000 C   0  0  0  0  0  0  0  0  0  0  0  0
    0.5474    1.9837    0.0000 C   0  0  0  0  0  0  0  0  0  0  0  0
    1.2619    2.3962    0.0000 C   0  0  0  0  0  0  0  0  0  0  0  0
    0.5474    3.6337    0.0000 C   0  0  0  0  0  0  0  0  0  0  0  0
    1.2619    3.2212    0.0000 C   0  0  0  0  0  0  0  0  0  0  0  0
    1.9763    3.6337    0.0000 C   0  0  0  0  0  0  0  0  0  0  0  0
   -1.6660    0.0787    0.0000 O   0  0  0  0  0  0  0  0  0  0  0  0
 12 13  1  0  0  0  0
 13 28  1  0  0  0  0
 13  6  1  0  0  0  0
 12 11  1  0  0  0  0
 12  7  1  0  0  0  0
  9 29  1  0  0  0  0
  9  5  1  0  0  0  0
 11  9  1  0  0  0  0
 11  4  1  0  0  0  0
  5 17  1  0  0  0  0
  5  8  1  1  0  0  0
  5  1  1  0  0  0  0
 23 28  1  0  0  0  0
 29  6  1  0  0  0  0
 23  7  1  0  0  0  0
  3  4  1  0  0  0  0
 17 21  1  0  0  0  0
 17  3  1  0  0  0  0
  2  1  1  0  0  0  0
 19 21  1  0  0  0  0
 19  2  1  0  0  0  0
  9 10  1  1  0  0  0
 11 14  1  6  0  0  0
 12 16  1  1  0  0  0
 13 15  1  6  0  0  0
 17 18  1  6  0  0  0
 19 20  1  6  0  0  0
 21 22  1  6  0  0  0
 23 24  1  1  0  0  0
 24 26  1  0  0  0  0
 26 25  1  0  0  0  0
 26 27  2  0  0  0  0
 28 30  2  0  0  0  0
 30 34  1  0  0  0  0
 30 32  1  0  0  0  0
 32 31  2  0  0  0  0
 32 33  1  0  0  0  0
 34 35  1  0  0  0  0
 35 36  1  0  0  0  0
 36 38  2  0  0  0  0
 38 37  1  0  0  0  0
 38 39  1  0  0  0  0
 29 40  1  6  0  0  0
M  END
> <DATABASE_ID>
DB02703

> <DATABASE_NAME>
drugbank

> <SMILES>
[H][C@@]12C[C@@H](O)[C@@]3([H])[C@@]4(C)CC[C@@H](O)[C@@H](C)[C@]4([H])CC[C@]3(C)[C@@]1(C)C[C@H](OC(C)=O)\C2=C(\CCC=C(C)C)C(O)=O

> <INCHI_IDENTIFIER>
InChI=1S/C31H48O6/c1-17(2)9-8-10-20(28(35)36)26-22-15-24(34)27-29(5)13-12-23(33)18(3)21(29)11-14-30(27,6)31(22,7)16-25(26)37-19(4)32/h9,18,21-25,27,33-34H,8,10-16H2,1-7H3,(H,35,36)/b26-20-/t18-,21-,22-,23+,24+,25-,27-,29-,30-,31-/m0/s1

> <INCHI_KEY>
IECPWNUMDGFDKC-MZJAQBGESA-N

> <FORMULA>
C31H48O6

> <MOLECULAR_WEIGHT>
516.7092

> <EXACT_MASS>
516.345089268

> <JCHEM_ACCEPTOR_COUNT>
5

> <JCHEM_ATOM_COUNT>
85

> <JCHEM_AVERAGE_NEUTRAL_MICROSPECIES_CHARGE>
-0.9971558830783126

> <JCHEM_AVERAGE_POLARIZABILITY>
59.7645621351772

> <JCHEM_BIOAVAILABILITY>
1

> <JCHEM_DONOR_COUNT>
3

> <JCHEM_FORMAL_CHARGE>
0

> <JCHEM_GHOSE_FILTER>
0

> <JCHEM_IUPAC>
2-[(1Z,2S,3aS,3bS,5aS,6S,7R,9aS,9bS,10R,11aR)-2-(acetyloxy)-7,10-dihydroxy-3a,3b,6,9a-tetramethyl-hexadecahydro-1H-cyclopenta[a]phenanthren-1-ylidene]-6-methylhept-5-enoic acid

> <ALOGPS_LOGP>
4.97

> <JCHEM_LOGP>
4.4219138163333325

> <ALOGPS_LOGS>
-5.00

> <JCHEM_MDDR_LIKE_RULE>
1

> <JCHEM_NEUTRAL_CHARGE>
-1

> <JCHEM_NUMBER_OF_RINGS>
4

> <JCHEM_PHYSIOLOGICAL_CHARGE>
-1

> <JCHEM_PKA>
18.892605767976843

> <JCHEM_PKA_STRONGEST_ACIDIC>
4.455184945090332

> <JCHEM_PKA_STRONGEST_BASIC>
-0.20032296332015048

> <JCHEM_POLAR_SURFACE_AREA>
104.06

> <JCHEM_REFRACTIVITY>
144.1233

> <JCHEM_ROTATABLE_BOND_COUNT>
6

> <JCHEM_RULE_OF_FIVE>
0

> <ALOGPS_SOLUBILITY>
5.21e-03 g/l

> <JCHEM_TRADITIONAL_IUPAC>
cefazolin sodium

> <JCHEM_VEBER_RULE>
0

> <DRUGBANK_ID>
DB02703

> <SECONDARY_ACCESSION_NUMBERS>
EXPT01507

> <DRUG_GROUPS>
approved; investigational

> <GENERIC_NAME>
Fusidic acid

> <SYNONYMS>
Acide fusidique; Acido fusidico; Acidum fusidicum; Fucidate; Fucidin acid; Fusidate; Fusidic acid; Fusidine; Ramycin

> <PRODUCTS>
Fucibet; Fucidin; Fucidin Cream 2%; Fucidin Film Coated Tab 250mg; Fucidin H; Fucidin Intertulle 2%; Fucidin Leo Injection Kit; Fucidin Leo Sus 246mg/5ml; Fucidin Ointment 2%; Fucithalmic; Taro-fusidic Acid

> <INTERNATIONAL_BRANDS>
Fucidine; Fudic; Taksta

> <SALTS>
Fucidate sodium; Fusidic acid hemihydrate

$$$$
