
  Mrv1909 12102019322D          

  1  0  0  0  0  0            999 V2000
    0.0000    0.0000    0.0000 C   0  0  0  0  0  0  0  0  0  0  0  0
M  END
> <DATABASE_ID>
DB15994

> <DATABASE_NAME>
drugbank

> <SMILES>
C

> <INCHI_IDENTIFIER>
InChI=1S/CH4/h1H4

> <INCHI_KEY>
VNWKTOKETHGBQD-UHFFFAOYSA-N

> <FORMULA>
CH4

> <MOLECULAR_WEIGHT>
16.0425

> <EXACT_MASS>
16.031300128

> <JCHEM_ACCEPTOR_COUNT>
0

> <JCHEM_ATOM_COUNT>
5

> <JCHEM_AVERAGE_NEUTRAL_MICROSPECIES_CHARGE>
0.0

> <JCHEM_AVERAGE_POLARIZABILITY>
2.5910020514760492

> <JCHEM_BIOAVAILABILITY>
1

> <JCHEM_DONOR_COUNT>
0

> <JCHEM_FORMAL_CHARGE>
0

> <JCHEM_GHOSE_FILTER>
0

> <JCHEM_IUPAC>
methane

> <ALOGPS_LOGP>
-1.31

> <JCHEM_LOGP>
1.0809229439999999

> <ALOGPS_LOGS>
1.08

> <JCHEM_MDDR_LIKE_RULE>
0

> <JCHEM_NEUTRAL_CHARGE>
0

> <JCHEM_NUMBER_OF_RINGS>
0

> <JCHEM_PHYSIOLOGICAL_CHARGE>
0

> <JCHEM_POLAR_SURFACE_AREA>
0.0

> <JCHEM_REFRACTIVITY>
6.3468

> <JCHEM_ROTATABLE_BOND_COUNT>
0

> <JCHEM_RULE_OF_FIVE>
1

> <ALOGPS_SOLUBILITY>
0.00e+00 g/l

> <JCHEM_TRADITIONAL_IUPAC>
L-arginine; L-aspartic acid

> <JCHEM_VEBER_RULE>
1

> <DRUGBANK_ID>
DB15994

> <DRUG_GROUPS>
experimental

> <GENERIC_NAME>
Methane

$$$$
