
  Mrv1652310201622402D          

 28 29  0  0  1  0            999 V2000
    0.6000   -2.1769    0.0000 C   0  0  0  0  0  0  0  0  0  0  0  0
    1.3926   -1.9481    0.0000 C   0  0  0  0  0  0  0  0  0  0  0  0
    1.9871   -2.5201    0.0000 N   0  0  0  0  0  0  0  0  0  0  0  0
    2.7797   -2.2913    0.0000 C   0  0  0  0  0  0  0  0  0  0  0  0
    3.3742   -2.8633    0.0000 C   0  0  0  0  0  0  0  0  0  0  0  0
    4.1668   -2.6345    0.0000 C   0  0  0  0  0  0  0  0  0  0  0  0
    4.3650   -1.8337    0.0000 C   0  0  0  0  0  0  0  0  0  0  0  0
    3.7705   -1.2617    0.0000 C   0  0  0  0  0  0  0  0  0  0  0  0
    2.9779   -1.4905    0.0000 C   0  0  0  0  0  0  0  0  0  0  0  0
    3.9687   -0.4608    0.0000 O   0  0  0  0  0  0  0  0  0  0  0  0
    5.1576   -1.6049    0.0000 C   0  0  0  0  0  0  0  0  0  0  0  0
    5.7521   -2.1769    0.0000 O   0  0  0  0  0  0  0  0  0  0  0  0
    5.3558   -0.8040    0.0000 O   0  0  0  0  0  0  0  0  0  0  0  0
    6.1484   -0.5752    0.0000 C   0  0  2  0  0  0  0  0  0  0  0  0
    6.7429   -1.1472    0.0000 C   0  0  1  0  0  0  0  0  0  0  0  0
    7.5355   -0.9184    0.0000 C   0  0  0  0  0  0  0  0  0  0  0  0
    8.1300   -1.4905    0.0000 C   0  0  0  0  0  0  0  0  0  0  0  0
    7.9318   -2.2913    0.0000 C   0  0  0  0  0  0  0  0  0  0  0  0
    8.5263   -2.8633    0.0000 O   0  0  0  0  0  0  0  0  0  0  0  0
    7.1392   -2.5201    0.0000 C   0  0  2  0  0  0  0  0  0  0  0  0
    6.9411   -3.3210    0.0000 C   0  0  2  0  0  0  0  0  0  0  0  0
    6.1484   -3.5498    0.0000 C   0  0  0  0  0  0  0  0  0  0  0  0
    5.5539   -2.9778    0.0000 C   0  0  0  0  0  0  0  0  0  0  0  0
    4.7613   -3.2066    0.0000 C   0  0  0  0  0  0  0  0  0  0  0  0
    7.5355   -3.8930    0.0000 O   0  0  0  0  0  0  0  0  0  0  0  0
    6.5447   -1.9481    0.0000 O   0  0  0  0  0  0  0  0  0  0  0  0
    6.1119   -1.6787    0.0000 C   0  0  0  0  0  0  0  0  0  0  0  0
    6.3466    0.2256    0.0000 C   0  0  0  0  0  0  0  0  0  0  0  0
  1  2  1  0  0  0  0
  2  3  1  0  0  0  0
  3  4  1  0  0  0  0
  4  5  2  0  0  0  0
  5  6  1  0  0  0  0
  6  7  2  0  0  0  0
  7  8  1  0  0  0  0
  8  9  2  0  0  0  0
  4  9  1  0  0  0  0
  8 10  1  0  0  0  0
  7 11  1  0  0  0  0
 11 12  2  0  0  0  0
 11 13  1  0  0  0  0
 13 14  1  0  0  0  0
 14 15  1  0  0  0  0
 15 16  1  0  0  0  0
 16 17  2  0  0  0  0
 17 18  1  0  0  0  0
 18 19  2  0  0  0  0
 18 20  1  0  0  0  0
 20 21  1  0  0  0  0
 21 22  1  0  0  0  0
 22 23  1  0  0  0  0
 23 24  2  0  0  0  0
  6 24  1  0  0  0  0
 21 25  1  1  0  0  0
 20 26  1  6  0  0  0
 15 27  1  1  0  0  0
 14 28  1  1  0  0  0
M  END
> <DATABASE_ID>
DB11687

> <DATABASE_NAME>
drugbank

> <SMILES>
CCNC1=CC2=C(C(O)=C1)C(=O)O[C@@H](C)[C@H](C)\C=C/C(=O)[C@@H](O)[C@@H](O)C\C=C\2

> <INCHI_IDENTIFIER>
InChI=1S/C21H27NO6/c1-4-22-15-10-14-6-5-7-16(23)20(26)17(24)9-8-12(2)13(3)28-21(27)19(14)18(25)11-15/h5-6,8-13,16,20,22-23,25-26H,4,7H2,1-3H3/b6-5+,9-8-/t12-,13+,16+,20+/m1/s1

> <INCHI_KEY>
MWUFVYLAWAXDHQ-HMNLTAHHSA-N

> <FORMULA>
C21H27NO6

> <MOLECULAR_WEIGHT>
389.448

> <EXACT_MASS>
389.183837593

> <JCHEM_ACCEPTOR_COUNT>
6

> <JCHEM_ATOM_COUNT>
55

> <JCHEM_AVERAGE_POLARIZABILITY>
41.34267488842532

> <JCHEM_BIOAVAILABILITY>
1

> <JCHEM_DONOR_COUNT>
4

> <JCHEM_FORMAL_CHARGE>
0

> <JCHEM_GHOSE_FILTER>
1

> <JCHEM_IUPAC>
(3S,4R,8S,9S)-14-(ethylamino)-8,9,16-trihydroxy-3,4-dimethyl-3,4,7,8,9,10-hexahydro-1H-2-benzoxacyclotetradecine-1,7-dione

> <ALOGPS_LOGP>
3.09

> <JCHEM_LOGP>
2.924143797666667

> <ALOGPS_LOGS>
-2.96

> <JCHEM_MDDR_LIKE_RULE>
0

> <JCHEM_NUMBER_OF_RINGS>
2

> <JCHEM_PHYSIOLOGICAL_CHARGE>
0

> <JCHEM_PKA>
12.421297898794926

> <JCHEM_PKA_STRONGEST_ACIDIC>
9.860971089870846

> <JCHEM_PKA_STRONGEST_BASIC>
2.9776926214559505

> <JCHEM_POLAR_SURFACE_AREA>
116.09

> <JCHEM_REFRACTIVITY>
109.71959999999999

> <JCHEM_ROTATABLE_BOND_COUNT>
2

> <JCHEM_RULE_OF_FIVE>
1

> <ALOGPS_SOLUBILITY>
4.30e-01 g/l

> <JCHEM_TRADITIONAL_IUPAC>
(3S,4R,8S,9S)-14-(ethylamino)-8,9,16-trihydroxy-3,4-dimethyl-4,8,9,10-tetrahydro-3H-2-benzoxacyclotetradecine-1,7-dione

> <JCHEM_VEBER_RULE>
0

> <DRUGBANK_ID>
DB11687

> <DRUG_GROUPS>
investigational

> <GENERIC_NAME>
E-6201

$$$$
