
  Mrv1718009181811002D          

  3  0  0  0  0  0            999 V2000
   -0.4125    0.0000    0.0000 Mg  0  2  0  0  0  0  0  0  0  0  0  0
    0.4125   -0.8250    0.0000 O   0  5  0  0  0  0  0  0  0  0  0  0
    0.4125    0.8250    0.0000 O   0  5  0  0  0  0  0  0  0  0  0  0
M  CHG  3   1   2   2  -1   3  -1
M  END
> <DATABASE_ID>
DB09104

> <DATABASE_NAME>
drugbank

> <SMILES>
[OH-].[OH-].[Mg++]

> <INCHI_IDENTIFIER>
InChI=1S/Mg.2H2O/h;2*1H2/q+2;;/p-2

> <INCHI_KEY>
VTHJTEIRLNZDEV-UHFFFAOYSA-L

> <FORMULA>
H2MgO2

> <MOLECULAR_WEIGHT>
58.32

> <EXACT_MASS>
57.990521206

> <JCHEM_ACCEPTOR_COUNT>
0

> <JCHEM_ATOM_COUNT>
5

> <JCHEM_AVERAGE_POLARIZABILITY>
1.7784

> <JCHEM_BIOAVAILABILITY>
1

> <JCHEM_DONOR_COUNT>
0

> <JCHEM_FORMAL_CHARGE>
0

> <JCHEM_GHOSE_FILTER>
0

> <JCHEM_IUPAC>
magnesium(2+) dihydroxide

> <JCHEM_LOGP>
-0.57

> <JCHEM_MDDR_LIKE_RULE>
0

> <JCHEM_NUMBER_OF_RINGS>
0

> <JCHEM_PHYSIOLOGICAL_CHARGE>
2

> <JCHEM_PKA>
3.55

> <JCHEM_PKA_STRONGEST_ACIDIC>
3.09

> <JCHEM_POLAR_SURFACE_AREA>
0.0

> <JCHEM_REFRACTIVITY>
0.0

> <JCHEM_ROTATABLE_BOND_COUNT>
0

> <JCHEM_RULE_OF_FIVE>
1

> <JCHEM_TRADITIONAL_IUPAC>
magnesia,

> <JCHEM_VEBER_RULE>
1

> <DRUGBANK_ID>
DB09104

> <DRUG_GROUPS>
approved; investigational

> <GENERIC_NAME>
Magnesium hydroxide

> <SYNONYMS>
Hidroxido de magnesio; Magnesii hydroxidum; Magnesio hidrÃ³xido; Magnesium dihydroxide; Magnesium hydroxide; Milk of magnesia

> <PRODUCTS>
Acid Controller Complete; Acid Controller Complete dual action; Acid Reducer Complete; Acid Reducer Plus Antacid; Acidex Tc Oral Suspension; Advanced Antacid Cherry; Advanced Antacid Mint; Advanced Antacid Regular Strength; Advanced Regular Strength Antacid; After Dinner Antacid; Almacone; Almacone Antacid Antigas; Almacone Double Strength; Almagel Plus Sus; Alumina, Magnesia, and Simethicone; Alumina, Magnesia, and Simethicone Oral Suspension Regular Strength; Aluminum Hydroxide, Magnesium Hydroxide, Simethicone; Alumox; Amphojel 500 Suspension; Amphojel Plus Suspension; Antacid; Antacid & Antigas; Antacid - Alumina and Magnesia Oral Suspension USP; Antacid Anti-Gas; Antacid Antigas; Antacid Antigas Maximum Strength; Antacid Antigas Maximum Strength Mint; Antacid Antigas Maximum Strength Original; Antacid Antigas Nta; Antacid Cherry Flavored; Antacid Chewable Tab; Antacid Double Strength; Antacid Liquid Susp; Antacid Magnesia and Alumina; Antacid Max Strength Cherry; Antacid Maximum Strength; Antacid Mint; Antacid Mint Flavored; Antacid Plus; Antacid Plus - Sus; Antacid Plus Antiflatuent; Antacid Plus Antiflatulent; Antacid Plus Antiflatulent - Alumina, Magnesia & Simethicone Oral Suspension; Antacid Plus Extra Strength; Antacid Plus Gas Relief; Antacid Plus Gas Relief Regular Strength; Antacid Regular Strength; Antacid Regular With Anti-gas; Antacid Supreme; Antacid Supreme Cherry; Antacid Sus; Antacid With Alumina, Magnesia Plus Simethicone Oral Suspension USP; Antacid With Anti-gas Liquid Extra Strength Mint Flavour; Antacid and Antigas; Antacid and Gasrelief; Antacid antigas Maximum Strength; Antacid antigas Regular Strength; Antacid regular strength; Antiacide Avec Antiflatulent Sus; Antiacide Sus; Babys Own Tummy Tab; Basic Care Dual Action Complete; Basic Care Milk Of Magnesia; Bem Bio Antiperspirant floral; Bem Bio Antiperspirant forest trails; Bem Bio Antiperspirant original; Bem Bio Antiperspirant sea breeze; Bem Bio Antiperspirant unscented; Berkley and Jensen Acid Controller Complete; Best Choice Extra Strength; Best Choice Extra Strength Berry Flavor; C2 Buffered Tab; C2 Buffered With Codeine Tab; CVS Health Childrens Saline Laxative; Calcium Carbonate, Magnesium Hydroxide; Care One Acid Reducer and Antacid Dual Action; Care One Acid Reducer plus Antacid Dual Action; CareOne Acid Reducer Complete; CareOne Antacid; CareOne Milk of Magnesia Cherry; Careone Antacid Regular Strength; Careone Liquid Antacid; Careone Milk Of Magnesia; Careone Milk of magnesia Original Milk of Magnesia Original; Careone antacid; Centra Acid Plus-sus; Centra Acid-sus; Childrens Oral Saline Laxative; Complete; Complete Dual Action; ConRx AR; ConRx Acid Reducer; DG Health Dual Action Complete; DG Health acid reducer complete; DUO Fusion; Dermagran II Ointment - 0.25%; Dermagran II Ointment 0.25%; Dermagran II Ointment-ont Top 0.25%; Dg Health Antacid; Dg Health Milk Of Magnesia; Diovol EX Tab; Diovol Plus Aluminum Free; Diovol Plus Aluminum Free Suspension; Diovol Plus Suspension; Diovol Plus Tablets; Dual Action; Dual Action Complete; Dulcolax Chewy Bites Assorted Fruits; Dulcolax Chewy Fruit Bites Cherry Berry; Dulcolax Liquid; Dulcolax Soft Chews Black Cherry; Dulcolax Soft Chews Mixed Berry; Dulcolax Soft Chews Watermelon; Eno; Equaline Antacid; Equaline Antacid regular strength; Equaline Complete Dual Action; Equaline Milk Of Magnesia; Equaline milk of magnesia; Equate Acid Reducer Complete; Equate Antacid regular strength; Equate Milk of Magnesia; Equate antacid maximum strength; Equate antacid regular strength; Exchange Select Antacid Regular Strength; Extra Strength Antacid Freshmint; FIRST Mouthwash BLM; FLANAX Antacid Anti-gas; Family Wellness Acid Controller Complete; Family Wellness acid reducer complete; Flanax Antacid; GOOD NEIGHBOR PHARMACY Antacid Regular Strength; Gaviscon Acid Relief Fmla Plus Gas Rel. Tab; Gaviscon Acid Relief Fmla Plus Gas Rel.liq.; Gaviscon Acid Relief Formula Extra Strength; Gaviscon Acid Relief Formula Liquid; Gaviscon Acid Relief Formula Tablets; Gelfos M; Gelfos-M; Gelusil; Gelusil Antacid & Anti-gas; Gelusil Antacid and Anti-gas; Gelusil Extra Strength Liq; Gelusil Extra Strength Tablets; Gelusil Liquid Sus; Gelusil Maximum Strength; Gentle Laxative; Geri-lanta Antacid; Geri-lanta Antacid Antigas; Geri-lanta Maximum Strength; Geri-lanta Supreme Cherry; Geri-mox Antacid Antigas; Geri-mox Max Cherry; Good Neighbor Pharmacy Antacid; Good Neighbor Pharmacy Complete; Good Neighbor Pharmacy Dual Action Complete; Good Neighbor Pharmacy Milk Of Magnesia; Good Neighbor Pharmacy milk of magnesia; Good Sense Antacid; Good Sense Antacid Maximum Strength; Good Sense Antacid Regular Strength; Good Sense Complete; Good Sense Dual Action Complete; Good Sense Milk Of Magnesia Stimulant Free; Good Sense Milk of Magnesia; Good Sense antacid; Good Sense milk of magnesia stimulant free; HEB Extra Strength Antacid Berry Flavor; HEB Extra Strength Freshmint Flavor; Harris Teeter Acid Reducer Complete; Harris Teeter Antacid; Harris Teeter Antacid Maximum Strength; Harris Teeter Antacid Regular Strength; Harris Teeter Milk of Magnesia; Health Mart Antacid; Health Mart Complete; Health Mart Dual Action Complete; Healthy Accents Antacid; Healthy Accents Famotidine Calcium Carbonate Magnesium Hydroxide; Healthy Accents Maldroxal; Healthy Accents Milk of Magnesia; Healthy Accents milk of magnesia; Heartburn Plus Gas Relief Chewable Multi Symptom; Humco Milk of Magnesia; Indigel Plus Liquid; Injoy Heartburn Relief; Inon Ace; Kroger Multi Symptom Antacid; Leader Acid Reducer Complete; Leader Antacid; Leader Antacid Maximum Strength; Leader Antacid Regular Strength; Leader AntacidRegular Strength Regular Strength; Leader Milk Of Magnesia; Leader Milk Of Magnesia Saline Laxative; Leader Milk of Magnesia; MYLANTA MAXIMUM STRENGTH CLASSIC FLAVOR antacid and anti gas; MYLANTA Maximum Strength; MYLANTA Regular Strength; MYLANTA Supreme Tasting; MYLANTA Ultra Tabs; Maalox Advanced Antacid & Antigas; Maalox Advanced Extra Strength Antacid & Antigas; Maalox Advanced Maximum Strength Cherry; Maalox Advanced Maximum Strength Mint; Maalox Advanced Maximum Strength Wild Berry; Maalox Advanced Regular Strength Mint; Maalox Antacid; Maalox Plus Extra Strength (cherry); Maalox Plus Extra Strength Tablets; Maalox Plus Suspension Extra Strength; Maalox Plus Suspension Flavour; Maalox Plus Suspension Mint Flavour; Maalox Plus Tab; Maalox Plus Tablets; Maalox Plus Tablets Lemon Flavour; Maalox Plus Tablets Mint Flavour; Maalox Suspension; Maalox Suspension Mint Flavour; Maalox Tablet; Maalox Tablets; Maalox Tablets Cherry Flavour; Maalox Tablets Mint Flavour; Maalox Tc Suspension; Maalox Tc Tablet; Mag Al Plus; Mag-AL Liquid; Mag-AL Plus; Mag-AL Plus XS; Mag-Al; Mag-Al Plus; Mag-Al Plus XS; Mag-al Liquid; Magmex; Magnesia Tablets; Magnesium Hydroxide; Magnesium Hydroxide/Aluminum Hydroxice/Simethicone; Magnolax; Magsil; Magsil Antacid (lemon Mint); Maximum Strength Advanced Antacid; Maximum Strength Antacid; Maximum Strength Antacid Anti Gas; Maximum Strength Antacid Antigas; Maximum Strength Antacid Cherry; Maximum Strength Antacid Cherry liquid; Maximum Strength Antacid Mint; Maximum Strength Antacid and Antigas; Maximum Strength Antacid and Antigas Cherry; Maximum Strength Antacid and Gas Relief; Maximum Strength Antacid and Gasrelief; Maximum Strength Antacid/ Antigas; Maximum Strength Comfort Gel; Maximum Strength Fast Acting Antacid Anti-gas; Medibest Milk of Magnesia; Medique Alamag; Medique Alamag Plus; Meijer Extra Strength Freshmint Flavor; Melox; Mi Acid; Mi-Acid Regular Strength; Mi-acid Maximum Strength; Mi-acid Regular Strength; Milk Of Magnesia; Milk Of Magnesia 7% To 8.5%; Milk Of Magnesia Cherry; Milk Of Magnesia Liquid; Milk Of Magnesia Mineral Oil Emulsion; Milk Of Magnesia Mint; Milk Of Magnesia Mint Flav Tab 385mg; Milk Of Magnesia Original; Milk Of Magnesia Sus 440mg/5ml USP; Milk Of Magnesia Tablets 300mg; Milk Of Magnesia U.S.P. - Sus 400mg; Milk Of Magnesia U.S.P. - Sus 400mg/5ml; Milk Of Magnesia USP; Milk Of Magnesia USP Sus 440mg/5ml; Milk Of Magnesia-sus 400mg/5ml; Milk of Magnesia; Milk of Magnesia Concentrate; Milk of Magnesia Mint; Milk of Magnesia Original; Milk of Magnesia Wild Cherry; Milk of Magnesia cherry; Milk of Magnesia mint; Mint Milk Of Magnesia; Mintox; Mintox Maximum Strength; Mintox Plus Tabs; Mucaine - Sus; Multi Symptom Antacid; Multi Symptom Antacid Berry Flavor; Mylanta; Mylanta Coat and Cool; Mylanta Liquid Extra Strength Sus; Mylanta Liquid Regular Strength Sus; Mylanta Maximum Strength; Mylanta Maximum Strength Classic Flavor; Mylanta Maximum Strength Vanilla Caramel Flavor; Mylanta New Tonight Soothing Honey Chamomile; Mylanta One Antacid/Anti-Gas; Mylanta Plain Liq Double Strength; Mylanta Plain Liq Double Strength Sus; Mylanta Regular Strength; Mylanta Tablets Double Strength; Mylanta Tablets Regular Strength; Mylanta Ultimate Strength; Mylanta Ultra Tabs; Neo Tigol Tab; Neutralca S Sus; Neutralca S Tab; Omeprazole, Sodium Bicarbonate, Magnesium Hydroxide; One-A-day Advance Men's; Original; PMS-alumina Mag and Simethicone Sus; Pedia-Lax; Pepcid Complete; Phillip's Milk Of Magnesia Liq 80mg/ml Plain; Phillips Chewable; Phillips Dual Action; Phillips Fresh Mint Milk Of Magnesia; Phillips Milk Of Magnesia Wild Cherry; Phillips Milk of Magnesia Concentrated Fresh Strawberry; Phillips Original Milk Of Magnesia; Preferred Plus Complete; Premier Value Extra Strength Freshmint Flavor; Premier Value Milk of Magnesia; Premier Value Multi Symptom Antacid Berry Flavor; Quality Choice Maximum Strength Antacid; Regular Strength Antacid; Regular Strength Antacid Antigas; Regular Strength Antacid Mint; Regular Strength Antacid and Gas Relief; Regular Strength Antacid/antigas; Regular Strength Comfort Gel; Regular Strength antacid anti gas; Rexall Antacid Advanced; Ri Mox; Rolaids; Rolaids Advanced Antacid Anti-gas Mixed Berry; Rolaids Advanced Softchews Mixed Berry; Rolaids Extra Strength; Rolaids Extra Strength Fruit; Rolaids Extra Strength Mint; Rolaids Extra Strength Multi-symptom Tablets; Rolaids Extra Strength Tab; Rolaids Heartburn Soothers; Rolaids Multi-Symptom; Rolaids Regular Strength Mint; Rolaids Regular Strength- Cherry; Rolaids Regular Strength- Mint; Rolaids Ultra Strength Antacid Orange; Rolaids Ultra Strength Antacid Strawberry; Rolaids Ultra Strength Fruit; Rolaids Ultra Strength Mint; Rolaids Ultra Strength- Cherry; Rolaids Ultra Strength- Mint; Rugby Almacone; Rulox Regular; Rx Act Antacid regular strength; ShopRite Complete; ShopRite Dual Action Complete; Shoprite Antacid; Shoprite Milk Of Magnesia; Signature Care Acid Controller Complete; Signature Care Acid Reducer Complete; Signature Care Antacid Plus Gas Relief; Simply Right Famotidine Complete; Smart Sense Antacid; Smart Sense Complete; Smart Sense Dual Action Complete; Sound Body Milk of Magnesia; Stomaax; Stomaax Plus; Stratuscare Antacid And Antigas; Stratuscare Antacid and Antigas; Stratuscare Antacid and Antigas Regular Strength; Stratuscare Milk of Magnesia; Stratuscare Milk of Magnesia Cherry; Stratuscare Milk of Magnesia Sugar Free; Sunmark Antacid; Sunmark Antacid Maximum Strength; Sunmark Antacid Maximum Strength Cherry; Sunmark Dual Action Complete; Sunmark Milk Of Magnesia; Sunmark Milk Of Magnesia Mint; Sunmark Milk Of Magnesia Original; Sunmark Milk of Magnesia saline laxative; Sunmark complete; Supreme Antacid; TopCare Complete acid reducer plus antacid; TopCare Milk of Magnesia; Topcare Antacid; Topcare Antacid Maximum Strength; Topcare Antacid Plus Anti Gas; Topcare Antacid Regular Strength; Topcare Complete; Topcare Dual Action Complete; Topcare Milk of Magnesia; Tums Dual Action; Ultra Xcid Antacid; Univol Suspension; Up and Up Acid Controller Complete Dual Action; Up and Up Antacid Anti Gas; Up and Up Antacid Anti Gas Regular Strength; Up and Up Famotidine Complete; Up and Up dual action acid controller complete; Walgreens Blueberry Raspberry Gentle Laxative; Walgreens Childrens Saline Laxative; Zegerid with Magnesium Hydroxide; smart sense Complete

$$$$
