
  Mrv1718007111812382D          

  1  0  0  0  0  0            999 V2000
    0.0000    0.0000    0.0000 K   0  0  0  0  0  0  0  0  0  0  0  0
M  END
> <DATABASE_ID>
DB14500

> <DATABASE_NAME>
drugbank

> <SMILES>
[KH]

> <INCHI_IDENTIFIER>
InChI=1S/K.H

> <INCHI_KEY>
NTTOTNSKUYCDAV-UHFFFAOYSA-N

> <FORMULA>
K

> <MOLECULAR_WEIGHT>
39.0983

> <EXACT_MASS>
38.963706861

> <JCHEM_ACCEPTOR_COUNT>
0

> <JCHEM_ATOM_COUNT>
2

> <JCHEM_AVERAGE_POLARIZABILITY>
2.4416577221508327

> <JCHEM_BIOAVAILABILITY>
1

> <JCHEM_DONOR_COUNT>
0

> <JCHEM_FORMAL_CHARGE>
0

> <JCHEM_GHOSE_FILTER>
0

> <JCHEM_IUPAC>
potassium hydride

> <JCHEM_LOGP>
-0.126

> <JCHEM_MDDR_LIKE_RULE>
0

> <JCHEM_NUMBER_OF_RINGS>
0

> <JCHEM_PHYSIOLOGICAL_CHARGE>
0

> <JCHEM_POLAR_SURFACE_AREA>
0.0

> <JCHEM_REFRACTIVITY>
0.8

> <JCHEM_ROTATABLE_BOND_COUNT>
0

> <JCHEM_RULE_OF_FIVE>
1

> <JCHEM_TRADITIONAL_IUPAC>
potassium hydride

> <JCHEM_VEBER_RULE>
1

> <DRUGBANK_ID>
DB14500

> <DRUG_GROUPS>
approved; experimental

> <GENERIC_NAME>
Potassium

> <SYNONYMS>
K; Kalium; Potasio; Potassium metal; Potassium, elemental; Potassium, metal

> <PRODUCTS>
24 Multivitamins + Minerals; Adult Formula 50+; Advanced B & T Formula; Alphaligo; Aqua-S Supplement; Bseltzer; C. Vit-min Formula; C.R.D.-force; Cal & Mag Hvp Chel Plus C Potass & Zinc Tab; Calcium & Magnesium Citrate Plus D With Manganese, Potassium & Zinc; Calcium & Magnesium Plus Potassium & Zinc; Calcium & Magnesium Plus Potassium, Zinc, & Manganese; Calcium & Magnesium With Potassium & Zinc; Calcium & Magnesium With Potassium, Zinc, Manganese & Vitamin D; Calcium and Magnesium 1:1 Plus Tablets; Card-floe II Tab; Chela Potassium Plus; Chelamins Plus Tab; Chelapro; Children's Chewable Tab; Classic Swiss One 10 Multivitamin and Mineral Tab; Complete Multivitamins and Minerals Tablets Timed Release; Complete One A Day Tab; Complete One-A-day - Tab; Complexed Potassium Tablets - 99mg; Daily Energy Brand Vitamin & Mineral Drink Mix; Doctor's Choice Brand for Men; Envive; Extra Once A Day; Fem Time Tab; Formula Cp Cap; Formula F L W; Formula Gly; Formula Hh; Formula Inf; Formula Js; Formula O.C.; Formula Wb; Grand Master Formula Tab; Hi Potency B Complex W Chelated Minerals; Hi Potency Multi Tab; Hypo Vites Tab; Hyporyl - Tab; Innersource Tab; Isotonix Atx Vitamin Mineral Formula; Isotonix Calcium Plus Formula; Isotonix Multitech Vitamin Mineral Supplemen; Kmg Plus; L.G.I.T.; Liquid Opti-minplex +d; Magnacal; Magnum-75 Vitamin and Mineral Supplement; Maintain Multiple Vitamin & Minerals; Master Key Multi Vitamin Multi Mineral Formula 2; Maximum Once A Day; Maxine Vitamin and Mineral Supplement; Maxum Multi-vite; Mega Balance; Mega Multiple Minerals; Mega Plex III - Pck; Mega Plex IV - Pck; Mega-vim 75 With Beta-carotene - Tablets; Milltrium Senior Vitamin and Mineral Supplement; Mineral Support; Mineralex; Multi Flow Tablets; Multi II IV Vi Tab; Multi Mega Minerals With Vitamin D; Multi Mins Liquid; Multi Plex I - Tab; Multi Plex II - Tab; Multi Spectrum - Tablet; Multi Tabs; Multi Vitamins & Minerals; Multi-actin; Multi-mins Minerals; Multi-vitamins With Minerals; Multicaps; Multimineral Chelates; Multiminerals; Multipack II; Multiple Mineral Liquid; Multiple Minerals; Multitabs; Multivitamin & Minerals (iron Free); Multivitamin & Multimineral; Multivitamins and Minerals Tablets; Multivitamins and Minerals With Betacarotene Tablets; Multivitamins and Minerals for Men; Multivitamins and Minerals for Women; Multra Plex; Multra With Iron; N.U.T. Complex; Natural Source Spectrum With Beta Carotene; New Chapter's D'adamo 4 Your Type Multiple for Type O; Nitro Vites - Tab; Nutra Boost; Nutrilite Double X; Olympian Multi Vit Plus Minerals Tab; Onccor; One A Day Advance Adults; One A Day Advance Adults 50+; One A Day Multiple Vit W Minerals; One A Day Tab; One Daily Vitamin and Mineral Dietary Supplement; One Per Day Vitamin and Mineral Dietary Supplement; Only One - Tablet; Osteo-force; Port A Mins Super Potassium 99; Potassium 250; Potassium and Iodine Tab; Prenatal Formula Tab; Purigo; Revit Multi-vitamins and Minerals; Revitalize Multi-vitamin and Mineral Complex; Right Choice P.M. Multi Formula - Caplet; Rocky Mountain Multiple Vit and Min Mega Tab; Senior Multi One; Spark Cap; Spectrum 2 Cap; Spectrum Performa Multivitamins and Minerals Tablets; Super Multi; Super Vita Vim Multivitamins and Minerals; Super Vita-vim With Beta-carotene - Tab; Swical-energy 3e Age; Swiss One; Swiss One Multi Vit & Chel Min Tab; Swiss One Multivitamin and Mineral Caplet; Swiss Total One; Total Living Concepts Formula One - Tab; Tri-mins - Cap; Twin G.F. Powder; Twin G.F. Powder Vanilla Flavor; Twin Opti Pwr; Ultimate Tab; V & M Vitamin and Mineral Supplement; Vc II; Vege 1 Daily Tab; Vege Swiss One Multivitamin W Chel Mins Tab; Vimeral Tab; Vita Balance 2000; Vitalife - Capsule; Vyo Cylate - Pwr; Z-force Vitamin and Mineral Supplement

$$$$
