
  Mrv1718007091815262D          

 11  9  0  0  0  0            999 V2000
    0.4125   -0.3572    0.0000 C   0  0  0  0  0  0  0  0  0  0  0  0
   -0.4125   -0.3572    0.0000 C   0  0  0  0  0  0  0  0  0  0  0  0
    0.8250    0.3572    0.0000 C   0  0  0  0  0  0  0  0  0  0  0  0
   -0.8250   -1.0717    0.0000 C   0  0  0  0  0  0  0  0  0  0  0  0
    1.6500    0.3572    0.0000 O   0  0  0  0  0  0  0  0  0  0  0  0
    0.4125    1.0717    0.0000 O   0  5  0  0  0  0  0  0  0  0  0  0
   -1.6500   -1.0717    0.0000 O   0  0  0  0  0  0  0  0  0  0  0  0
   -0.4125   -1.7861    0.0000 O   0  5  0  0  0  0  0  0  0  0  0  0
    0.0000    1.7861    0.0000 Fe  0  2  0  0  0  0  0  0  0  0  0  0
    0.8250   -1.0717    0.0000 H   0  0  0  0  0  0  0  0  0  0  0  0
   -0.8250    0.3572    0.0000 H   0  0  0  0  0  0  0  0  0  0  0  0
  2  1  2  0  0  0  0
  3  1  1  0  0  0  0
  4  2  1  0  0  0  0
  5  3  2  0  0  0  0
  6  3  1  0  0  0  0
  7  4  2  0  0  0  0
  8  4  1  0  0  0  0
 10  1  1  0  0  0  0
 11  2  1  0  0  0  0
M  CHG  3   6  -1   8  -1   9   2
M  END
> <DATABASE_ID>
DB14491

> <DATABASE_NAME>
drugbank

> <SMILES>
[Fe++].[H]\C(=C(\[H])C([O-])=O)C([O-])=O

> <INCHI_IDENTIFIER>
InChI=1S/C4H4O4.Fe/c5-3(6)1-2-4(7)8;/h1-2H,(H,5,6)(H,7,8);/q;+2/p-2/b2-1+;

> <INCHI_KEY>
PMVSDNDAUGGCCE-TYYBGVCCSA-L

> <FORMULA>
C4H2FeO4

> <MOLECULAR_WEIGHT>
169.901

> <EXACT_MASS>
169.930250685

> <JCHEM_ACCEPTOR_COUNT>
4

> <JCHEM_ATOM_COUNT>
11

> <JCHEM_AVERAGE_POLARIZABILITY>
8.64610580957753

> <JCHEM_BIOAVAILABILITY>
1

> <JCHEM_DONOR_COUNT>
0

> <JCHEM_FORMAL_CHARGE>
0

> <JCHEM_GHOSE_FILTER>
0

> <JCHEM_IUPAC>
lambda2-iron(2+) (2E)-but-2-enedioate

> <ALOGPS_LOGP>
0.83

> <JCHEM_LOGP>
-0.040914331333333324

> <ALOGPS_LOGS>
-1.23

> <JCHEM_MDDR_LIKE_RULE>
0

> <JCHEM_NUMBER_OF_RINGS>
0

> <JCHEM_PHYSIOLOGICAL_CHARGE>
-2

> <JCHEM_PKA>
4.220440893544921

> <JCHEM_PKA_STRONGEST_ACIDIC>
3.3536881758161985

> <JCHEM_POLAR_SURFACE_AREA>
80.25999999999999

> <JCHEM_REFRACTIVITY>
46.2812

> <JCHEM_ROTATABLE_BOND_COUNT>
2

> <JCHEM_RULE_OF_FIVE>
1

> <ALOGPS_SOLUBILITY>
1.31e+01 g/l

> <JCHEM_TRADITIONAL_IUPAC>
lambda2-iron(2+) fumarate

> <JCHEM_VEBER_RULE>
0

> <DRUGBANK_ID>
DB14491

> <SECONDARY_ACCESSION_NUMBERS>
DBSALT000079

> <DRUG_GROUPS>
approved

> <GENERIC_NAME>
Ferrous fumarate

> <SYNONYMS>
Ferrous fumarate; Iron(2+) fumarate

> <PRODUCTS>
24 Multivitamins + Minerals; Animal Shapes w/Iron Chewtabs; Appedrine; Aurovela 24 Fe; Avon Vitadvance Multi-kids Complete; AzesChew; B Stress C + Iron & Vite; Bacmin; Bugs Bunny Chew Multi Vit Plus Iron; C-Nate DHA; C. Vit-min Formula; Calcium PNV; Calcium Vitamin D Iron Mag; Cavan Folate DHA; Cavan Folate OB; Cavan Prenatal; Central-vite 18 Essential; Century Complete; Chewable Children's Complete Multivitamins With Essential Minerals; Chewable Multiple Vit Plus Iron for Children; Chewable Multiple Vitamins Plus Iron Tab; Chewable Multivitamins Plus Iron; Children Choice Multivitamin W Iron Chew Tab; Children's Chewable Multi Vit W Iron; Children's Chewable Multi Vitamins With Iron Tablets; Children's Chewable Multiple Vit.plus Iron; Children's Chewable Multiple Vitamins With Iron Tablets (chewable Tablets); Children's Chewable Multivitamin Complete With Minerals; Children's Chewable Multivitamin and Multimineral; Children's Chewable Multivitamins With Minerals; Children's Chewable Multivitamins and Minerals; Children's Chewable With Iron; Children's Multivitamins With Iron; Children's Vitamins W Iron Chewable; Childrens Chewable Multiple Vitamins Plus Fe; Childrens Chewable Multiple Vitamins W.iron; Childrens Chewable Multivitamins W Iron; Childrens Chewable Vitamins W Iron; Childrens Multiple Vit and Min Chew Tab; Chromagen; CitraNatal Medley; Complete Multivitamins and Minerals for Children; Complete One-A-day - Tab; CompleteNate Chewable; Concept DHA; Concept OB; Dexatrim Tablets; Docosavit; Dothelle DHA; Enrich Core Pack - Children Vitamin and Mineral Supplement; Essential Vitamins and Minerals; Everyday Multiple Vitamins With Iron; Extra Once A Day; Extra-Virt Plus DHA; FUSION Sprinkles; FeRiva FA; Feminex 300 Tab; Feminique W Iron and Calcium Tab; Femitab Tab; Feonyx; Ferion Tab; Ferotrin; Ferretts; Ferrex 28; FerroGels Forte; Ferrocite; Ferrous Fumarate; Ferrous Fumarate Sct Tab 300mg; Ferrous Fumarate Tab 200mg; Fib-C Melts; Flinstones Multiple Plus Iron; Flintstones Multiple Vitamins Plus Iron; Folcal DHA; Foliflex; Folitin-Z; Folivane-F; Folivane-OB; Folivane-Plus with Ascorbic Acid Precursors; For Kids Only Chewable Multivit. Plus Iron; Fortiplex; Fusion; GENERESS Fe; Garfield Chewable Multivits Plus Iron Tab; Gestamine Comprimes; Gesticare DHA; Grand Master Formula Tab; H.W. Children's Chewable Multi Vit & Mineral; Hailey Fe 1.5/30; Hematogen; Hematogen FA; Hematogen Forte; Hemocyte; Hemocyte F; Hemocyte Plus; Hi Potency B Complex W Chelated Minerals; High Potency Multivitamins & Minerals Caplets; Hoa 1; Hsn Formula; Hypo Vites Tab; Integra F; Integra Plus; Iron 30mg Tablets; Iron Complex; Iron Fumarate and Aspartate, Glycinate, Ascorbic Calcium, Vitamin B12, Folic Acid, Calcium Threonate and Succinic Acid; Iron II; Iron Plus Manganese, B12, Folic Acid & C; Iron Plus Tab; Iron Tab; Iron Vitamins B6,b12,c,folic Acid Tab; Iron With Vitamins C and E - Tab; Jenliva; Kids Chewable Iron; Kids Stuff With Iron Tablets; L-Methyl PNV DHA; Luna Vitamin and Mineral Bar for Women; M-Natal Plus; Materna; Materna - Tab; Materna-tab; Maximum Once A Day; Mega Balance; Mega Min Capsules; Mega Vitaminerals; Megavite Rx; Menocal Tab; Microgestin; Microgestin Fe; Milltrium Senior Vitamin and Mineral Supplement; Mor-vites Tab; Multi Pro; Multi Vitamin & Minerals; Multi Vitamin Plus Iron; Multi-vitamins With Minerals; Multiple Vit Plus Iron Tab; Multiple Vitamins & Minerals Tablets; Multiple Vitamins Plus Iron - Tab; Multiple Vitamins Plus Iron Tab; Multiple Vitamins Plus Iron for Women; Multiple Vitamins W Iron Tab; Multiple Vitamins With Iron; Multiple Vitamins With Iron Tablets; Multiple Vitamins With Minerals Tablets; Multiple Vitamins and Minerals; Multiple Vitamins and Minerals Capsules; Multivitamin & Multimineral; Multivitamines Et Mineraux Reguliers / Regular Multivitamins and Minerals; Multivitamines Plus Fer Pour Enfants (chewable Tablets); Multivitamins W Iron; Multivitamins and Minerals - Complete; Multivitamins and Minerals Tablets; Multivitamins and Minerals With Betacarotene Tablets; Multivitamins and Minerals for Women; Multivitamins and Minerals for Young Women; Multivitamins and Multiminerals Formula Regular Tablet; Multra With Iron; NEONATAL Complete; Natavite; Natelle One; Natural Source Spectrum With Beta Carotene; Neo-vites & Minerals Tab; Neonatal DHA; Neonatal Plus Vitamin; Neonatal Vitamin; Nexa Select; Niva-Plus; Novo-fumar 200mg; Nutrifer Plus Tablets; O-Cal FA multivitamin; O-Cal Prenatal Vitamin; Olympian Multi Vit Plus Minerals Tab; One A Day Advance Adults; One A Day Advance Fem; One A Day Multiple Vit W Minerals; One A Day Tab; One Daily Vitamin and Mineral Dietary Supplement; One Per Day Vitamin and Mineral Dietary Supplement; One-A-day Advance Fem - Tablets; Only One - Tablet; Organic Minerals Tablet; PNV Ferrous Fumarate Docusate Folic Acid; PNV Prenatal Plus Multivitamin; PNV Prenatal Vitamin; PNV Prenatal Vitamin Plus Vitamin A; PNV-Omega; PNV-Select; PRENATE Enhance; PRENATE Restore; Palm Springs Multvit and Min Tab; Paramettes Chewable Multivitamins Plus Iron; Paramettes Chewable Multivits With Iron Tab; Permathene-12 - Caplet; Phytopure; Phytovim Cap; Pnv-OB-dha; Pnv-VP-U; Pnv-dha; PreNatal 19; PreNexa; PreNexa premier; PrePLUS; PreTAB; Pregvit; Pregvit Folic 4; Pregvit Folic 5; Premium Prenatal; Premium Prenatal - Tablets; Prena1; Prenaissance; Prenatabs FA; Prenatal; Prenatal Chelated Mineral; Prenatal Plus; Prenatal Plus Multivitamin Plus DHA MiniCaps; Prenatal Plus Vitamins; Prenatal Supplement - Tab; Prenatal Vitamin No 53 Iron Fum Folic Acid Docusate CA DHA; Prenatal Vitamin and Mineral Supplement; Prenatal Vitamin and Mineral Supplement -tab; Prenatal Vitamin and Mineral Supplement Tab; Prenatal Vitamins Plus; Prenatal Vitamins and Minerals Tablets; Prenatal and Post Partum Supplement; Prenatal, DHA; Prenate DHA; Prenate Elite; Prenate Essential; Prenatrix; Prenatryl; Prenatvite; Prenatvite Complete; Prenatvite Plus; Prenavite Forte; Prenavite Forte Tablets; Prenavite Tablets; Preplus; Pretrate; Prevencal 600 + D Et Fer; Prometa; PureFe OB Plus; PureFe Plus; PureVit DualFe Plus; Q.T. Vitamin and Mineral Drink Mix; Ribotin-E; Rulavite DHA; Scheinpharm Ferrous Fumarate - 300mg; Se-Care Chewable; Se-Care Conceive; Se-Natal; Se-Natal 19; Se-Natal 19 Chewable; Se-Natal One; Se-Plete DHA; Se-Tan DHA; Se-Tan PLUS; Se-Vate 21/7; Spectrum Performa Multivitamins and Minerals Tablets; Stom #2; Stress B Complex With C, E & Iron; Stress B Complex With C, E and Iron Tab; Stress B-complex Plus Iron With Vitamins C&e; Stress Formula + Iron; Stress Tab With Iron and Vitamin E; Super Daily No 2; Supplement De Fer; Supravite Stress Avec Vit E Et Fer; Swical-energy 3e Age; Swiss One; Swiss One Multivitamin and Mineral Caplet; Swiss One Timed Release Tab; TL-Care DHA; TL-Folate; TL-Icon; TL-Select; TL-Select DHA; Tandem; Tandem - F; Tandem DHA; Tandem OB; Tandem Plus; Tarina 24 Fe; Taron-C DHA; Taron-prex Prenatal; Thrivite 19; Total Living Concepts Formula One - Tab; Totalvit Plus; Tricare Prenatal; Tricare Prenatal Compleat; Tricare Prenatal DHA One; Tricare Prenatal DHA One Rx Multivitamin; Tricare Prenatal DHA One With Folate; Tricon; Trigels-F Forte; Trinatal Rx 1; Twin G.F. Powder; Twin G.F. Powder Vanilla Flavor; Twin Opti Pwr; Ultimate Tab; Usana Iron 28 Supplement; V & M Vitamin and Mineral Supplement; Vasculine; Vc II; VemaVite-PRx 2 with Fish-Based DHA; Venexa FE; Ventrixyl Fe; Vimeral Tab; Vinate Care; Virt Nate; Virt-C DHA; Virt-Nate; Virt-Nate DHA; Virt-PN; Virt-PN DHA; Virt-PN Plus; Virt-Pn; Virt-Pn DHA; Virt-Select PRENATAL/POSTNATAL; VirtPrex; Vita-vim With Beta-carotene - Tab; Vitamines Et Mineraux; Vitamines Et Mineraux Comprimes; Vitamines Et Mineraux Enfants 970; Vitaplex; Vitranol Fe; Vitrexate FE; Vitrexyl plus Iron; Viva CT Prenatal; Viva Kids - Tab; Vol-Nate; Vol-Plus; Vp-pnv-dha; Vyo Cylate - Pwr; WesCap-C-DHA; WesCap-PN DHA; WesNate DHA; WesTab Plus; Women's Biomultiple Vitamin and Mineral Supplement; Women's Formula; Zatean-Pn; Zatean-Pn DHA; Zatean-Pn Plus; Zintrexyl-C; Zoo Chews Plus Iron; natelle COMPLETE; vitaMedMD One Rx

$$$$
