
  Mrv1572001271616302D          

 29 32  0  0  0  0            999 V2000
   -2.1434   -0.4125    0.0000 C   0  0  0  0  0  0  0  0  0  0  0  0
    3.5724   -1.2375    0.0000 C   0  0  0  0  0  0  0  0  0  0  0  0
    2.1434   -1.2375    0.0000 C   0  0  0  0  0  0  0  0  0  0  0  0
    3.5724   -0.4125    0.0000 C   0  0  0  0  0  0  0  0  0  0  0  0
    2.1434   -0.4125    0.0000 C   0  0  0  0  0  0  0  0  0  0  0  0
   -0.7145   -0.4125    0.0000 C   0  0  0  0  0  0  0  0  0  0  0  0
   -1.4289    0.8250    0.0000 C   0  0  0  0  0  0  0  0  0  0  0  0
    0.0000    0.0000    0.0000 C   0  0  0  0  0  0  0  0  0  0  0  0
   -0.7145    1.2375    0.0000 C   0  0  0  0  0  0  0  0  0  0  0  0
    1.4289    2.4750    0.0000 C   0  0  0  0  0  0  0  0  0  0  0  0
    1.4289    0.8250    0.0000 C   0  0  0  0  0  0  0  0  0  0  0  0
    3.5724    1.2375    0.0000 C   0  0  0  0  0  0  0  0  0  0  0  0
    2.8579   -1.6500    0.0000 C   0  0  0  0  0  0  0  0  0  0  0  0
    2.8579    0.0000    0.0000 C   0  0  0  0  0  0  0  0  0  0  0  0
    2.1434    2.0625    0.0000 C   0  0  0  0  0  0  0  0  0  0  0  0
    3.5724    2.0625    0.0000 C   0  0  0  0  0  0  0  0  0  0  0  0
    0.7145    2.0625    0.0000 C   0  0  0  0  0  0  0  0  0  0  0  0
    2.1434    1.2375    0.0000 C   0  0  0  0  0  0  0  0  0  0  0  0
    0.7145    1.2375    0.0000 C   0  0  0  0  0  0  0  0  0  0  0  0
    2.8579    2.4750    0.0000 C   0  0  0  0  0  0  0  0  0  0  0  0
    4.2868    2.4750    0.0000 C   0  0  0  0  0  0  0  0  0  0  0  0
    2.8579   -2.4750    0.0000 F   0  0  0  0  0  0  0  0  0  0  0  0
   -0.0000    2.4750    0.0000 F   0  0  0  0  0  0  0  0  0  0  0  0
   -1.4289    0.0000    0.0000 N   0  0  0  0  0  0  0  0  0  0  0  0
    0.0000    0.8250    0.0000 N   0  0  0  0  0  0  0  0  0  0  0  0
    2.8579    0.8250    0.0000 N   0  0  0  0  0  0  0  0  0  0  0  0
    2.8579    3.3000    0.0000 O   0  0  0  0  0  0  0  0  0  0  0  0
    4.2868    3.3000    0.0000 O   0  0  0  0  0  0  0  0  0  0  0  0
    5.0013    2.0625    0.0000 O   0  0  0  0  0  0  0  0  0  0  0  0
  4  2  1  0  0  0  0
  5  3  2  0  0  0  0
  8  6  1  0  0  0  0
  9  7  1  0  0  0  0
 13  2  2  0  0  0  0
 13  3  1  0  0  0  0
 14  4  2  0  0  0  0
 14  5  1  0  0  0  0
 15 10  2  0  0  0  0
 16 12  2  0  0  0  0
 17 10  1  0  0  0  0
 18 11  2  0  0  0  0
 18 15  1  0  0  0  0
 19 11  1  0  0  0  0
 19 17  2  0  0  0  0
 20 15  1  0  0  0  0
 20 16  1  0  0  0  0
 21 16  1  0  0  0  0
 22 13  1  0  0  0  0
 23 17  1  0  0  0  0
 24  1  1  0  0  0  0
 24  6  1  0  0  0  0
 24  7  1  0  0  0  0
 25  8  1  0  0  0  0
 25  9  1  0  0  0  0
 25 19  1  0  0  0  0
 26 12  1  0  0  0  0
 26 14  1  0  0  0  0
 26 18  1  0  0  0  0
 27 20  2  0  0  0  0
 28 21  2  0  0  0  0
 29 21  1  0  0  0  0
M  END
> <DATABASE_ID>
DB11511

> <DATABASE_NAME>
drugbank

> <SMILES>
CN1CCN(CC1)C1=C(F)C=C2C(=C1)N(C=C(C(O)=O)C2=O)C1=CC=C(F)C=C1

> <INCHI_IDENTIFIER>
InChI=1S/C21H19F2N3O3/c1-24-6-8-25(9-7-24)19-11-18-15(10-17(19)23)20(27)16(21(28)29)12-26(18)14-4-2-13(22)3-5-14/h2-5,10-12H,6-9H2,1H3,(H,28,29)

> <INCHI_KEY>
NOCJXYPHIIZEHN-UHFFFAOYSA-N

> <FORMULA>
C21H19F2N3O3

> <MOLECULAR_WEIGHT>
399.398

> <EXACT_MASS>
399.13944781

> <JCHEM_ACCEPTOR_COUNT>
6

> <JCHEM_ATOM_COUNT>
48

> <JCHEM_AVERAGE_POLARIZABILITY>
39.25456139445241

> <JCHEM_BIOAVAILABILITY>
1

> <JCHEM_DONOR_COUNT>
1

> <JCHEM_FORMAL_CHARGE>
0

> <JCHEM_GHOSE_FILTER>
1

> <JCHEM_IUPAC>
6-fluoro-1-(4-fluorophenyl)-7-(4-methylpiperazin-1-yl)-4-oxo-1,4-dihydroquinoline-3-carboxylic acid

> <ALOGPS_LOGP>
1.16

> <JCHEM_LOGP>
2.360952248101286

> <ALOGPS_LOGS>
-3.50

> <JCHEM_MDDR_LIKE_RULE>
0

> <JCHEM_NUMBER_OF_RINGS>
4

> <JCHEM_PHYSIOLOGICAL_CHARGE>
-1

> <JCHEM_PKA_STRONGEST_ACIDIC>
5.637775942053197

> <JCHEM_PKA_STRONGEST_BASIC>
6.453141071823734

> <JCHEM_POLAR_SURFACE_AREA>
64.09

> <JCHEM_REFRACTIVITY>
105.19359999999996

> <JCHEM_ROTATABLE_BOND_COUNT>
3

> <JCHEM_RULE_OF_FIVE>
1

> <ALOGPS_SOLUBILITY>
1.26e-01 g/l

> <JCHEM_TRADITIONAL_IUPAC>
difloxacin

> <JCHEM_VEBER_RULE>
0

> <DRUGBANK_ID>
DB11511

> <DRUG_GROUPS>
vet_approved

> <GENERIC_NAME>
Difloxacin

> <SYNONYMS>
Difloxacin; difloxacino

> <SALTS>
Difloxacin hydrochloride

$$$$
