
  Mrv1652310211604082D          

 29 32  0  0  0  0            999 V2000
   -1.4289    8.0036    0.0000 C   0  0  0  0  0  0  0  0  0  0  0  0
   -0.7145    8.4161    0.0000 C   0  0  0  0  0  0  0  0  0  0  0  0
   -0.0000    8.0036    0.0000 C   0  0  0  0  0  0  0  0  0  0  0  0
   -0.0000    7.1786    0.0000 C   0  0  0  0  0  0  0  0  0  0  0  0
   -0.7145    6.7661    0.0000 C   0  0  0  0  0  0  0  0  0  0  0  0
   -1.4289    7.1786    0.0000 C   0  0  0  0  0  0  0  0  0  0  0  0
   -2.1434    6.7661    0.0000 F   0  0  0  0  0  0  0  0  0  0  0  0
    0.7145    6.7661    0.0000 O   0  0  0  0  0  0  0  0  0  0  0  0
    0.7145    5.9411    0.0000 C   0  0  0  0  0  0  0  0  0  0  0  0
    1.4289    5.5286    0.0000 C   0  0  0  0  0  0  0  0  0  0  0  0
    1.4289    4.7036    0.0000 C   0  0  0  0  0  0  0  0  0  0  0  0
    0.7145    4.2911    0.0000 N   0  0  0  0  0  0  0  0  0  0  0  0
    0.0000    4.7036    0.0000 C   0  0  0  0  0  0  0  0  0  0  0  0
   -0.0000    5.5286    0.0000 C   0  0  0  0  0  0  0  0  0  0  0  0
    0.7145    3.4661    0.0000 C   0  0  0  0  0  0  0  0  0  0  0  0
    1.3819    2.9812    0.0000 C   0  0  0  0  0  0  0  0  0  0  0  0
    1.1270    2.1965    0.0000 C   0  0  0  0  0  0  0  0  0  0  0  0
    0.3020    2.1965    0.0000 O   0  0  0  0  0  0  0  0  0  0  0  0
    0.0470    2.9812    0.0000 N   0  0  0  0  0  0  0  0  0  0  0  0
    1.6119    1.5291    0.0000 C   0  0  0  0  0  0  0  0  0  0  0  0
    2.4369    1.5291    0.0000 N   0  0  0  0  0  0  0  0  0  0  0  0
    2.6918    0.7445    0.0000 N   0  0  0  0  0  0  0  0  0  0  0  0
    2.0244    0.2595    0.0000 N   0  0  0  0  0  0  0  0  0  0  0  0
    1.3570    0.7445    0.0000 N   0  0  0  0  0  0  0  0  0  0  0  0
    2.0244   -0.5655    0.0000 C   0  0  0  0  0  0  0  0  0  0  0  0
    1.3099   -0.9780    0.0000 C   0  0  0  0  0  0  0  0  0  0  0  0
    1.3099   -1.8030    0.0000 O   0  0  0  0  0  0  0  0  0  0  0  0
    0.5955   -0.5655    0.0000 O   0  0  0  0  0  0  0  0  0  0  0  0
    0.7145    8.4161    0.0000 Br  0  0  0  0  0  0  0  0  0  0  0  0
  1  2  2  0  0  0  0
  2  3  1  0  0  0  0
  3  4  2  0  0  0  0
  4  5  1  0  0  0  0
  5  6  2  0  0  0  0
  1  6  1  0  0  0  0
  6  7  1  0  0  0  0
  4  8  1  0  0  0  0
  8  9  1  0  0  0  0
  9 10  1  0  0  0  0
 10 11  1  0  0  0  0
 11 12  1  0  0  0  0
 12 13  1  0  0  0  0
 13 14  1  0  0  0  0
  9 14  1  0  0  0  0
 12 15  1  0  0  0  0
 15 16  1  0  0  0  0
 16 17  2  0  0  0  0
 17 18  1  0  0  0  0
 18 19  1  0  0  0  0
 15 19  2  0  0  0  0
 17 20  1  0  0  0  0
 20 21  1  0  0  0  0
 21 22  2  0  0  0  0
 22 23  1  0  0  0  0
 23 24  1  0  0  0  0
 20 24  2  0  0  0  0
 23 25  1  0  0  0  0
 25 26  1  0  0  0  0
 26 27  2  0  0  0  0
 26 28  1  0  0  0  0
  3 29  1  0  0  0  0
M  END
> <DATABASE_ID>
DB13024

> <DATABASE_NAME>
drugbank

> <SMILES>
OC(=O)CN1N=NC(=N1)C1=CC(=NO1)N1CCC(CC1)OC1=C(Br)C=CC(F)=C1

> <INCHI_IDENTIFIER>
InChI=1S/C17H16BrFN6O4/c18-12-2-1-10(19)7-13(12)28-11-3-5-24(6-4-11)15-8-14(29-22-15)17-20-23-25(21-17)9-16(26)27/h1-2,7-8,11H,3-6,9H2,(H,26,27)

> <INCHI_KEY>
UJEAABFSXKCSGI-UHFFFAOYSA-N

> <FORMULA>
C17H16BrFN6O4

> <MOLECULAR_WEIGHT>
467.255

> <EXACT_MASS>
466.040044

> <JCHEM_ACCEPTOR_COUNT>
8

> <JCHEM_ATOM_COUNT>
45

> <JCHEM_AVERAGE_POLARIZABILITY>
40.914968012079285

> <JCHEM_BIOAVAILABILITY>
1

> <JCHEM_DONOR_COUNT>
1

> <JCHEM_FORMAL_CHARGE>
0

> <JCHEM_GHOSE_FILTER>
1

> <JCHEM_IUPAC>
2-(5-{3-[4-(2-bromo-5-fluorophenoxy)piperidin-1-yl]-1,2-oxazol-5-yl}-2H-1,2,3,4-tetrazol-2-yl)acetic acid

> <ALOGPS_LOGP>
2.31

> <JCHEM_LOGP>
3.433169436666666

> <ALOGPS_LOGS>
-2.99

> <JCHEM_MDDR_LIKE_RULE>
1

> <JCHEM_NUMBER_OF_RINGS>
4

> <JCHEM_PHYSIOLOGICAL_CHARGE>
-1

> <JCHEM_PKA_STRONGEST_ACIDIC>
3.4729492992998003

> <JCHEM_PKA_STRONGEST_BASIC>
0.07988733500445389

> <JCHEM_POLAR_SURFACE_AREA>
119.40000000000002

> <JCHEM_REFRACTIVITY>
126.6058

> <JCHEM_ROTATABLE_BOND_COUNT>
6

> <JCHEM_RULE_OF_FIVE>
1

> <ALOGPS_SOLUBILITY>
4.75e-01 g/l

> <JCHEM_TRADITIONAL_IUPAC>
(5-{3-[4-(2-bromo-5-fluorophenoxy)piperidin-1-yl]-1,2-oxazol-5-yl}-1,2,3,4-tetrazol-2-yl)acetic acid

> <JCHEM_VEBER_RULE>
0

> <DRUGBANK_ID>
DB13024

> <DRUG_GROUPS>
investigational

> <GENERIC_NAME>
MK-8245

$$$$
