
  Mrv1909 05201915032D          

 36 39  0  0  1  0            999 V2000
   -0.8212    3.6509    0.0000 N   0  0  0  0  0  0  0  0  0  0  0  0
   -0.8212    2.8259    0.0000 C   0  0  0  0  0  0  0  0  0  0  0  0
   -1.5356    2.4134    0.0000 O   0  0  0  0  0  0  0  0  0  0  0  0
   -0.1067    2.4134    0.0000 C   0  0  2  0  0  0  0  0  0  0  0  0
   -0.5192    1.6989    0.0000 O   0  0  0  0  0  0  0  0  0  0  0  0
    0.6078    2.0009    0.0000 C   0  0  0  0  0  0  0  0  0  0  0  0
    0.6078    1.1759    0.0000 N   0  0  0  0  0  0  0  0  0  0  0  0
    1.3222    0.7634    0.0000 C   0  0  0  0  0  0  0  0  0  0  0  0
    2.0367    1.1759    0.0000 C   0  0  0  0  0  0  0  0  0  0  0  0
    2.0367    2.0009    0.0000 F   0  0  0  0  0  0  0  0  0  0  0  0
    2.7512    0.7634    0.0000 C   0  0  0  0  0  0  0  0  0  0  0  0
    2.7512   -0.0616    0.0000 N   0  0  0  0  0  0  0  0  0  0  0  0
    2.0367   -0.4741    0.0000 C   0  0  0  0  0  0  0  0  0  0  0  0
    1.3222   -0.0616    0.0000 N   0  0  0  0  0  0  0  0  0  0  0  0
    2.0367   -1.2991    0.0000 C   0  0  0  0  0  0  0  0  0  0  0  0
    1.3693   -1.7840    0.0000 N   0  0  0  0  0  0  0  0  0  0  0  0
    1.6242   -2.5687    0.0000 N   0  0  0  0  0  0  0  0  0  0  0  0
    1.1393   -3.2361    0.0000 C   0  0  0  0  0  0  0  0  0  0  0  0
    0.3188   -3.1499    0.0000 C   0  0  0  0  0  0  0  0  0  0  0  0
   -0.1661   -3.8173    0.0000 C   0  0  0  0  0  0  0  0  0  0  0  0
    0.1694   -4.5710    0.0000 F   0  0  0  0  0  0  0  0  0  0  0  0
   -0.9866   -3.7311    0.0000 C   0  0  0  0  0  0  0  0  0  0  0  0
   -1.3222   -2.9774    0.0000 C   0  0  0  0  0  0  0  0  0  0  0  0
   -0.8372   -2.3099    0.0000 C   0  0  0  0  0  0  0  0  0  0  0  0
   -0.0168   -2.3962    0.0000 C   0  0  0  0  0  0  0  0  0  0  0  0
    2.4492   -2.5687    0.0000 C   0  0  0  0  0  0  0  0  0  0  0  0
    2.7041   -1.7840    0.0000 C   0  0  0  0  0  0  0  0  0  0  0  0
    2.9341   -3.2361    0.0000 C   0  0  0  0  0  0  0  0  0  0  0  0
    2.6792   -4.0207    0.0000 N   0  0  0  0  0  0  0  0  0  0  0  0
    3.3466   -4.5056    0.0000 O   0  0  0  0  0  0  0  0  0  0  0  0
    4.0141   -4.0207    0.0000 C   0  0  0  0  0  0  0  0  0  0  0  0
    3.7591   -3.2361    0.0000 C   0  0  0  0  0  0  0  0  0  0  0  0
    0.3058    3.1279    0.0000 C   0  0  0  0  0  0  0  0  0  0  0  0
    0.7183    3.8423    0.0000 F   0  0  0  0  0  0  0  0  0  0  0  0
    1.0203    2.7154    0.0000 F   0  0  0  0  0  0  0  0  0  0  0  0
   -0.4087    3.5404    0.0000 F   0  0  0  0  0  0  0  0  0  0  0  0
  1  2  1  0  0  0  0
  2  3  2  0  0  0  0
  4  2  1  1  0  0  0
  4  5  1  6  0  0  0
  4  6  1  0  0  0  0
  6  7  1  0  0  0  0
  7  8  1  0  0  0  0
  8  9  2  0  0  0  0
  9 10  1  0  0  0  0
  9 11  1  0  0  0  0
 11 12  2  0  0  0  0
 12 13  1  0  0  0  0
 13 14  2  0  0  0  0
  8 14  1  0  0  0  0
 13 15  1  0  0  0  0
 15 16  2  0  0  0  0
 16 17  1  0  0  0  0
 17 18  1  0  0  0  0
 18 19  1  0  0  0  0
 19 20  2  0  0  0  0
 20 21  1  0  0  0  0
 20 22  1  0  0  0  0
 22 23  2  0  0  0  0
 23 24  1  0  0  0  0
 24 25  2  0  0  0  0
 19 25  1  0  0  0  0
 17 26  1  0  0  0  0
 26 27  2  0  0  0  0
 15 27  1  0  0  0  0
 26 28  1  0  0  0  0
 28 29  2  0  0  0  0
 29 30  1  0  0  0  0
 30 31  1  0  0  0  0
 31 32  2  0  0  0  0
 28 32  1  0  0  0  0
  4 33  1  0  0  0  0
 33 34  1  0  0  0  0
 33 35  1  0  0  0  0
 33 36  1  0  0  0  0
M  END
> <DATABASE_ID>
DB15238

> <DATABASE_NAME>
drugbank

> <SMILES>
NC(=O)[C@](O)(CNC1=C(F)C=NC(=N1)C1=NN(CC2=C(F)C=CC=C2)C(=C1)C1=NOC=C1)C(F)(F)F

> <INCHI_IDENTIFIER>
InChI=1S/C21H16F5N7O3/c22-12-4-2-1-3-11(12)9-33-16(14-5-6-36-32-14)7-15(31-33)18-28-8-13(23)17(30-18)29-10-20(35,19(27)34)21(24,25)26/h1-8,35H,9-10H2,(H2,27,34)(H,28,29,30)/t20-/m1/s1

> <INCHI_KEY>
YWQFJNWMWZMXRW-HXUWFJFHSA-N

> <FORMULA>
C21H16F5N7O3

> <MOLECULAR_WEIGHT>
509.397

> <EXACT_MASS>
509.123478218

> <JCHEM_ACCEPTOR_COUNT>
7

> <JCHEM_ATOM_COUNT>
52

> <JCHEM_AVERAGE_POLARIZABILITY>
43.50255394533102

> <JCHEM_BIOAVAILABILITY>
1

> <JCHEM_DONOR_COUNT>
3

> <JCHEM_FORMAL_CHARGE>
0

> <JCHEM_GHOSE_FILTER>
0

> <JCHEM_IUPAC>
(2R)-3-[(5-fluoro-2-{1-[(2-fluorophenyl)methyl]-5-(1,2-oxazol-3-yl)-1H-pyrazol-3-yl}pyrimidin-4-yl)amino]-2-hydroxy-2-(trifluoromethyl)propanamide

> <ALOGPS_LOGP>
3.34

> <JCHEM_LOGP>
2.7949761930000006

> <ALOGPS_LOGS>
-3.82

> <JCHEM_MDDR_LIKE_RULE>
1

> <JCHEM_NUMBER_OF_RINGS>
4

> <JCHEM_PHYSIOLOGICAL_CHARGE>
0

> <JCHEM_PKA>
13.402928165381569

> <JCHEM_PKA_STRONGEST_ACIDIC>
9.071685984011184

> <JCHEM_PKA_STRONGEST_BASIC>
0.8205024757336707

> <JCHEM_POLAR_SURFACE_AREA>
144.98000000000002

> <JCHEM_REFRACTIVITY>
137.66039999999998

> <JCHEM_ROTATABLE_BOND_COUNT>
9

> <JCHEM_RULE_OF_FIVE>
0

> <ALOGPS_SOLUBILITY>
7.74e-02 g/l

> <JCHEM_TRADITIONAL_IUPAC>
(2R)-14-fluoro-2-methyl-6,9,10,19-tetraazapentacyclo[14.2.1.0^{2,6}.0^{8,18}.0^{12,17}]nonadeca-1(18),8,12(17),13,15-pentaen-11-one

> <JCHEM_VEBER_RULE>
0

> <DRUGBANK_ID>
DB15238

> <DRUG_GROUPS>
investigational

> <GENERIC_NAME>
Olinciguat

> <SYNONYMS>
Olinciguat

$$$$
