
  Mrv1718001011916222D          

100103  0  0  0  0            999 V2000
   -7.9109    1.0931    0.0000 S   0  0  0  0  0  0  0  0  0  0  0  0
   -7.0859    1.0931    0.0000 C   0  0  0  0  0  0  0  0  0  0  0  0
   -6.8384    1.8769    0.0000 C   0  0  2  0  0  0  0  0  0  0  0  0
   -7.4984    2.3719    0.0000 N   0  0  0  0  0  0  0  0  0  0  0  0
   -8.1584    1.8769    0.0000 C   0  0  0  0  0  0  0  0  0  0  0  0
   -8.8596    2.2894    0.0000 C   0  0  1  0  0  0  0  0  0  0  0  0
   -9.6022    1.8769    0.0000 N   0  0  0  0  0  0  0  0  0  0  0  0
   -6.1371    2.2894    0.0000 C   0  0  0  0  0  0  0  0  0  0  0  0
   -5.3946    1.8769    0.0000 N   0  0  0  0  0  0  0  0  0  0  0  0
   -4.6933    2.2894    0.0000 C   0  0  2  0  0  0  0  0  0  0  0  0
   -3.9920    1.8769    0.0000 C   0  0  0  0  0  0  0  0  0  0  0  0
   -3.2495    2.2894    0.0000 N   0  0  0  0  0  0  0  0  0  0  0  0
   -2.5483    1.8769    0.0000 C   0  0  1  0  0  0  0  0  0  0  0  0
   -1.8470    2.2894    0.0000 C   0  0  0  0  0  0  0  0  0  0  0  0
   -1.1045    1.8769    0.0000 N   0  0  0  0  0  0  0  0  0  0  0  0
   -0.4032    2.2894    0.0000 C   0  0  2  0  0  0  0  0  0  0  0  0
    0.2980    1.8769    0.0000 C   0  0  0  0  0  0  0  0  0  0  0  0
    1.0405    2.2894    0.0000 N   0  0  0  0  0  0  0  0  0  0  0  0
    1.7418    1.8769    0.0000 C   0  0  2  0  0  0  0  0  0  0  0  0
    2.4430    2.2894    0.0000 C   0  0  0  0  0  0  0  0  0  0  0  0
    3.1442    1.8769    0.0000 N   0  0  0  0  0  0  0  0  0  0  0  0
    3.8868    2.2894    0.0000 C   0  0  1  0  0  0  0  0  0  0  0  0
    4.5880    1.8769    0.0000 C   0  0  0  0  0  0  0  0  0  0  0  0
    5.2893    2.2894    0.0000 N   0  0  0  0  0  0  0  0  0  0  0  0
   -8.8596    3.1145    0.0000 C   0  0  1  0  0  0  0  0  0  0  0  0
   -8.1584    3.5269    0.0000 C   0  0  0  0  0  0  0  0  0  0  0  0
   -9.5609    3.5269    0.0000 C   0  0  0  0  0  0  0  0  0  0  0  0
   -9.5609    4.3520    0.0000 C   0  0  0  0  0  0  0  0  0  0  0  0
   -6.1371    3.1145    0.0000 O   0  0  0  0  0  0  0  0  0  0  0  0
   -3.9920    1.0519    0.0000 O   0  0  0  0  0  0  0  0  0  0  0  0
   -1.8470    3.1145    0.0000 O   0  0  0  0  0  0  0  0  0  0  0  0
    0.2980    1.0519    0.0000 O   0  0  0  0  0  0  0  0  0  0  0  0
    2.4430    3.1145    0.0000 O   0  0  0  0  0  0  0  0  0  0  0  0
    4.5880    1.0519    0.0000 O   0  0  0  0  0  0  0  0  0  0  0  0
   -4.7758    3.4445    0.0000 C   0  0  0  0  0  0  0  0  0  0  0  0
   -4.0746    3.8570    0.0000 C   0  0  0  0  0  0  0  0  0  0  0  0
   -3.3733    3.4445    0.0000 C   0  0  0  0  0  0  0  0  0  0  0  0
   -4.0746    4.6820    0.0000 C   0  0  0  0  0  0  0  0  0  0  0  0
   -2.5483    1.0519    0.0000 C   0  0  0  0  0  0  0  0  0  0  0  0
   -3.2495    0.6394    0.0000 C   0  0  0  0  0  0  0  0  0  0  0  0
   -3.2495   -0.1855    0.0000 C   0  0  0  0  0  0  0  0  0  0  0  0
   -3.9920   -0.5980    0.0000 O   0  0  0  0  0  0  0  0  0  0  0  0
   -2.5483   -0.5980    0.0000 O   0  0  0  0  0  0  0  0  0  0  0  0
   -0.4032    3.1145    0.0000 C   0  0  2  0  0  0  0  0  0  0  0  0
   -1.1045    3.5269    0.0000 C   0  0  0  0  0  0  0  0  0  0  0  0
    0.2980    3.5269    0.0000 C   0  0  0  0  0  0  0  0  0  0  0  0
   -1.1045    4.3520    0.0000 C   0  0  0  0  0  0  0  0  0  0  0  0
    1.7418    1.0519    0.0000 C   0  0  0  0  0  0  0  0  0  0  0  0
    3.8868    3.1145    0.0000 C   0  0  0  0  0  0  0  0  0  0  0  0
    5.9906    1.8769    0.0000 C   0  0  2  0  0  0  0  0  0  0  0  0
    5.9906    0.6394    0.0000 C   0  0  0  0  0  0  0  0  0  0  0  0
    5.2893    0.2269    0.0000 O   0  0  0  0  0  0  0  0  0  0  0  0
    6.7331    0.2269    0.0000 N   0  0  0  0  0  0  0  0  0  0  0  0
    6.7331   -0.8868    0.0000 C   0  0  1  0  0  0  0  0  0  0  0  0
    5.9906   -1.2993    0.0000 C   0  0  0  0  0  0  0  0  0  0  0  0
    5.9906   -2.1243    0.0000 N   0  0  0  0  0  0  0  0  0  0  0  0
    5.2893   -0.8868    0.0000 O   0  0  0  0  0  0  0  0  0  0  0  0
    5.2893   -2.5368    0.0000 C   0  0  2  0  0  0  0  0  0  0  0  0
    4.5880   -2.1243    0.0000 C   0  0  0  0  0  0  0  0  0  0  0  0
    3.8455   -2.5368    0.0000 N   0  0  0  0  0  0  0  0  0  0  0  0
    4.5880   -1.2993    0.0000 O   0  0  0  0  0  0  0  0  0  0  0  0
    3.1311   -2.1243    0.0000 C   0  0  1  0  0  0  0  0  0  0  0  0
    2.4166   -2.5368    0.0000 C   0  0  0  0  0  0  0  0  0  0  0  0
    1.7021   -2.1243    0.0000 N   0  0  0  0  0  0  0  0  0  0  0  0
    2.4166   -3.3618    0.0000 O   0  0  0  0  0  0  0  0  0  0  0  0
    1.0273    0.6394    0.0000 C   0  0  0  0  0  0  0  0  0  0  0  0
    4.6012    3.5269    0.0000 C   0  0  0  0  0  0  0  0  0  0  0  0
    4.6012    4.3520    0.0000 C   0  0  0  0  0  0  0  0  0  0  0  0
    3.8868    4.7645    0.0000 N   0  0  0  0  0  0  0  0  0  0  0  0
    6.7051    2.2894    0.0000 C   0  0  1  0  0  0  0  0  0  0  0  0
    7.4096    1.8826    0.0000 C   0  0  0  0  0  0  0  0  0  0  0  0
    6.7051    3.1143    0.0000 C   0  0  0  0  0  0  0  0  0  0  0  0
    7.4196    3.5269    0.0000 C   0  0  0  0  0  0  0  0  0  0  0  0
    7.4476   -1.2993    0.0000 C   0  0  0  0  0  0  0  0  0  0  0  0
    8.1621   -0.8868    0.0000 C   0  0  0  0  0  0  0  0  0  0  0  0
    8.8876   -1.3058    0.0000 C   0  0  0  0  0  0  0  0  0  0  0  0
    9.6021   -0.8934    0.0000 C   0  0  0  0  0  0  0  0  0  0  0  0
    9.6022   -0.0684    0.0000 C   0  0  0  0  0  0  0  0  0  0  0  0
    8.8767    0.3505    0.0000 C   0  0  0  0  0  0  0  0  0  0  0  0
    8.1622   -0.0617    0.0000 C   0  0  0  0  0  0  0  0  0  0  0  0
    5.2893   -3.3618    0.0000 C   0  0  0  0  0  0  0  0  0  0  0  0
    6.0038   -3.7743    0.0000 C   0  0  0  0  0  0  0  0  0  0  0  0
    6.0899   -4.5934    0.0000 N   0  0  0  0  0  0  0  0  0  0  0  0
    6.8954   -4.7646    0.0000 C   0  0  0  0  0  0  0  0  0  0  0  0
    7.3072   -4.0514    0.0000 N   0  0  0  0  0  0  0  0  0  0  0  0
    6.7561   -3.4394    0.0000 C   0  0  0  0  0  0  0  0  0  0  0  0
    0.9876   -2.5368    0.0000 C   0  0  2  0  0  0  0  0  0  0  0  0
    0.2731   -2.1243    0.0000 C   0  0  0  0  0  0  0  0  0  0  0  0
    0.2731   -1.2993    0.0000 N   0  0  0  0  0  0  0  0  0  0  0  0
   -0.4413   -2.5368    0.0000 O   0  0  0  0  0  0  0  0  0  0  0  0
    0.9876   -3.3618    0.0000 C   0  0  0  0  0  0  0  0  0  0  0  0
    0.2731   -3.7743    0.0000 C   0  0  0  0  0  0  0  0  0  0  0  0
    0.2731   -4.5993    0.0000 O   0  0  0  0  0  0  0  0  0  0  0  0
   -0.4413   -3.3618    0.0000 N   0  0  0  0  0  0  0  0  0  0  0  0
    1.0273   -0.1855    0.0000 C   0  0  0  0  0  0  0  0  0  0  0  0
    3.1311   -0.9693    0.0000 C   0  0  0  0  0  0  0  0  0  0  0  0
    0.3127   -0.5980    0.0000 C   0  0  0  0  0  0  0  0  0  0  0  0
    2.4166   -0.5568    0.0000 C   0  0  0  0  0  0  0  0  0  0  0  0
    1.7021   -0.9693    0.0000 O   0  0  0  0  0  0  0  0  0  0  0  0
    2.4166    0.2681    0.0000 O   0  0  0  0  0  0  0  0  0  0  0  0
  1  2  1  0  0  0  0
  3  2  1  0  0  0  0
  3  4  1  0  0  0  0
  4  5  2  0  0  0  0
  1  5  1  0  0  0  0
  5  6  1  0  0  0  0
  6  7  1  1  0  0  0
  3  8  1  6  0  0  0
  8  9  1  0  0  0  0
  9 10  1  0  0  0  0
 10 11  1  0  0  0  0
 11 12  1  0  0  0  0
 12 13  1  0  0  0  0
 13 14  1  0  0  0  0
 14 15  1  0  0  0  0
 16 15  1  1  0  0  0
 16 17  1  0  0  0  0
 17 18  1  0  0  0  0
 18 19  1  0  0  0  0
 19 20  1  0  0  0  0
 20 21  1  0  0  0  0
 21 22  1  0  0  0  0
 22 23  1  0  0  0  0
 23 24  1  0  0  0  0
  6 25  1  0  0  0  0
 25 26  1  6  0  0  0
 25 27  1  0  0  0  0
 27 28  1  0  0  0  0
  8 29  2  0  0  0  0
 11 30  2  0  0  0  0
 14 31  2  0  0  0  0
 17 32  2  0  0  0  0
 20 33  2  0  0  0  0
 23 34  2  0  0  0  0
 10 35  1  1  0  0  0
 35 36  1  0  0  0  0
 36 37  1  0  0  0  0
 36 38  1  0  0  0  0
 13 39  1  1  0  0  0
 39 40  1  0  0  0  0
 40 41  1  0  0  0  0
 41 42  1  0  0  0  0
 41 43  2  0  0  0  0
 16 44  1  0  0  0  0
 44 45  1  0  0  0  0
 44 46  1  6  0  0  0
 45 47  1  0  0  0  0
 19 48  1  6  0  0  0
 22 49  1  6  0  0  0
 50 24  1  1  0  0  0
 50 51  1  0  0  0  0
 51 52  2  0  0  0  0
 51 53  1  0  0  0  0
 53 54  1  0  0  0  0
 54 55  1  0  0  0  0
 55 56  1  0  0  0  0
 55 57  2  0  0  0  0
 56 58  1  0  0  0  0
 58 59  1  0  0  0  0
 59 60  1  0  0  0  0
 59 61  2  0  0  0  0
 60 62  1  0  0  0  0
 62 63  1  0  0  0  0
 63 64  1  0  0  0  0
 63 65  2  0  0  0  0
 48 66  1  0  0  0  0
 49 67  1  0  0  0  0
 67 68  1  0  0  0  0
 68 69  1  0  0  0  0
 50 70  1  0  0  0  0
 70 71  1  6  0  0  0
 70 72  1  0  0  0  0
 72 73  1  0  0  0  0
 54 74  1  6  0  0  0
 74 75  1  0  0  0  0
 75 76  2  0  0  0  0
 76 77  1  0  0  0  0
 77 78  2  0  0  0  0
 78 79  1  0  0  0  0
 79 80  2  0  0  0  0
 75 80  1  0  0  0  0
 58 81  1  1  0  0  0
 81 82  1  0  0  0  0
 82 83  1  0  0  0  0
 83 84  2  0  0  0  0
 84 85  1  0  0  0  0
 85 86  1  0  0  0  0
 82 86  2  0  0  0  0
 64 87  1  0  0  0  0
 87 88  1  0  0  0  0
 88 89  1  0  0  0  0
 88 90  2  0  0  0  0
 87 91  1  1  0  0  0
 91 92  1  0  0  0  0
 92 93  2  0  0  0  0
 92 94  1  0  0  0  0
 66 95  1  0  0  0  0
 62 96  1  1  0  0  0
 95 97  1  0  0  0  0
 89 97  1  0  0  0  0
 96 98  1  0  0  0  0
 98 99  2  0  0  0  0
 98100  1  0  0  0  0
M  END
> <DATABASE_ID>
DB00626

> <DATABASE_NAME>
drugbank

> <SMILES>
CC[C@H](C)[C@H](N)C1=N[C@@H](CS1)C(=O)N[C@@H](CC(C)C)C(=O)N[C@H](CCC(O)=O)C(=O)N[C@@H]([C@@H](C)CC)C(=O)N[C@H]1CCCCNC(=O)[C@H](CC(N)=O)NC(=O)[C@@H](CC(O)=O)NC(=O)[C@H](CC2=CNC=N2)NC(=O)[C@@H](CC2=CC=CC=C2)NC(=O)[C@@H](NC(=O)[C@@H](CCCN)NC1=O)[C@@H](C)CC

> <INCHI_IDENTIFIER>
InChI=1S/C66H103N17O16S/c1-9-35(6)52(69)66-81-48(32-100-66)63(97)76-43(26-34(4)5)59(93)74-42(22-23-50(85)86)58(92)83-53(36(7)10-2)64(98)75-40-20-15-16-25-71-55(89)46(29-49(68)84)78-62(96)47(30-51(87)88)79-61(95)45(28-39-31-70-33-72-39)77-60(94)44(27-38-18-13-12-14-19-38)80-65(99)54(37(8)11-3)82-57(91)41(21-17-24-67)73-56(40)90/h12-14,18-19,31,33-37,40-48,52-54H,9-11,15-17,20-30,32,67,69H2,1-8H3,(H2,68,84)(H,70,72)(H,71,89)(H,73,90)(H,74,93)(H,75,98)(H,76,97)(H,77,94)(H,78,96)(H,79,95)(H,80,99)(H,82,91)(H,83,92)(H,85,86)(H,87,88)/t35-,36-,37-,40-,41+,42+,43-,44+,45-,46-,47+,48-,52-,53-,54-/m0/s1

> <INCHI_KEY>
CLKOFPXJLQSYAH-ABRJDSQDSA-N

> <FORMULA>
C66H103N17O16S

> <MOLECULAR_WEIGHT>
1422.693

> <EXACT_MASS>
1421.748941023

> <JCHEM_ACCEPTOR_COUNT>
20

> <JCHEM_ATOM_COUNT>
203

> <JCHEM_AVERAGE_POLARIZABILITY>
149.3204673862246

> <JCHEM_BIOAVAILABILITY>
0

> <JCHEM_DONOR_COUNT>
17

> <JCHEM_FORMAL_CHARGE>
0

> <JCHEM_GHOSE_FILTER>
0

> <JCHEM_IUPAC>
(4R)-4-[(2S)-2-{[(4R)-2-[(1S,2S)-1-amino-2-methylbutyl]-4,5-dihydro-1,3-thiazol-4-yl]formamido}-4-methylpentanamido]-4-{[(1S,2S)-1-{[(3S,6R,9S,12R,15S,18R,21S)-18-(3-aminopropyl)-12-benzyl-15-[(2S)-butan-2-yl]-3-(carbamoylmethyl)-6-(carboxymethyl)-9-[(1H-imidazol-4-yl)methyl]-2,5,8,11,14,17,20-heptaoxo-1,4,7,10,13,16,19-heptaazacyclopentacosan-21-yl]carbamoyl}-2-methylbutyl]carbamoyl}butanoic acid

> <ALOGPS_LOGP>
-2.89

> <JCHEM_LOGP>
-6.83751987876902

> <ALOGPS_LOGS>
-4.76

> <JCHEM_MDDR_LIKE_RULE>
1

> <JCHEM_NUMBER_OF_RINGS>
4

> <JCHEM_PHYSIOLOGICAL_CHARGE>
0

> <JCHEM_PKA>
3.8138918645352446

> <JCHEM_PKA_STRONGEST_ACIDIC>
3.190400113632477

> <JCHEM_PKA_STRONGEST_BASIC>
9.628972696215001

> <JCHEM_POLAR_SURFACE_AREA>
530.8699999999998

> <JCHEM_REFRACTIVITY>
363.1393000000003

> <JCHEM_ROTATABLE_BOND_COUNT>
31

> <JCHEM_RULE_OF_FIVE>
0

> <ALOGPS_SOLUBILITY>
2.45e-02 g/l

> <JCHEM_TRADITIONAL_IUPAC>
baciguent

> <JCHEM_VEBER_RULE>
0

> <DRUGBANK_ID>
DB00626

> <SECONDARY_ACCESSION_NUMBERS>
APRD00816

> <DRUG_GROUPS>
approved; vet_approved

> <GENERIC_NAME>
Bacitracin

> <SYNONYMS>
Bacitracin; Bacitracin A; Bacitracina

> <PRODUCTS>
0.9g Triple Antibiotic; 10 Person ANSI; 25 Person ANSI; 4032 First Aid Kit; 4042 First Aid Kit; 4050 First Aid Kit; 4064 First Aid Kit; 4065 First Aid Kit; 4066 First Aid Kit; 4067 First Aid Kit; 4125 First Aid Kit; 4135 First Aid Kit; 4138 First Aid Kit; 4150 First Aid Kit; 4152 First Aid Kit; 4155 First Aid Kit; 4166 First Aid Kit; 4167 First Aid Kit; 4168 First Aid Kit; 4196 First Aid Kit; 4197 First Aid Kit; 4198 First Aid Kit; 4199 First Aid Kit; 4200 First Aid Kit; 4201 First Aid Kit; 4202 First Aid Kit; 4209 First Aid Kit; 4211 First Aid Kit; 4212 First Aid Kit; 4215 First Aid Kit; 4216 First Aid Kit; 4219 First Aid Kit; 4221 First Aid Kit; 4222 First Aid Kit; 4229 First Aid Kit; 4230 First Aid Kit; 4231First Aid Kit; 4232 First Aid Kit; 4234 First Aid Kit; 4235 First Aid Kit; 4239 First Aid Kit; 4240 First Aid Kit; 4241 First Aid Kit; 4242 First Aid Kit; 4245 First Aid Kit; 4248 First Aid Kit; 4249 First Aid Kit; 4250 First Aid Kit; 4252 First Aid Kit; 4253 First Aid Kit; 4254 First Aid Kit; 4255 First Aid Kit; 4271 First Aid Kit; 4272 First Aid Kit; 4274 First Aid Kit; 4276 First Aid Kit; 4277 First Aid Kit; 4279 First Aid Kit; 4280 First Aid Kit; 4281 First Aid Kit; 4282 First Aid Kit; 4283 First Aid Kit; 4284 First Aid Kit; 4287 First Aid Kit; 4289 First Aid Kit; 4291 First Aid Kit; 4292 First Aid Kit; 4293 First Aid Kit; 4295 First Aid Kit; 4299 First Aid Kit; 4303 First Aid Kit; 4304 First Aid Kit; 4305 First Aid Kit; 4314 First Aid Kit; 4315 First Aid Kit; 4317 First Aid Kit; 4318 First Aid Kit; 4319 First Aid Kit; 4329 First Aid Kit; 4334 First Aid Kit; 4336 First Aid Kit; 4338 First Aid Kit; 4339 First Aid Kit; 4346 First Aid Kit; 4355 First Aid Kit; 4356 First Aid Kit; 4357 First Aid Kit; 4358 First Aid Kit; 4361 First Aid Kit; 4362 First Aid Kit; 4363 First Aid Kit; 4364 First Aid Kit; 4365 First Aid Kit; 4367 First Aid Kit; 4379 First Aid Kit; 4380 First Aid Kit; 4381 First Aid Kit; 4382 First Aid Kit; 4383 First Aid Kit; 4384 First Aid Kit; 4387 First Aid Kit; 4388 First Aid Kit; 4389 First Aid Kit; 4393 First Aid Kit; 4398 First Aid Kit; 4399 First Aid Kit; 50 Person ANSI; 7 Select First Aid Triple Antibiotic; ACME FIRST AID Contains 404 PIECES; ACME Small Cuts and Burns; ANCALIMA First Aid; ARC FIRST AID Contains 1000 PIECES; ARC FIRST AID Contains 303 PIECES; ARC FIRST AID Contains 303 PIECES HARDCASE; ARC FIRST AID Contains 404 PIECES; ARC FIRST AID Emergency Preparedness Contains 167 PIECES; AVON HeXashield Triple Antibiotic with Pain Relief; Acme Home/Office/Auto Kit; Advanced First Aid Bacitracin; Adventure First Aid .5 Tin; Adventure Medical Kits 1-2 Person First Aid; Adventure Medical Kits 1-2 Person National Ski Patrol First Aid; Adventure Medical Kits 1-4 Person First Aid; Aerosoothe; Afassco Triple Antibiotic; Aftate Bacitracin Zinc; Aftate Triple Antibiotic; Ak-poly-bac; American Red Cross First Aid Kit; American Safety and First Aid Triple Antibiotic; Ancalima Bacitracin Zinc First Aid; Antibiotic; Antibiotic Application; Antibiotic Gel; Antibiotic Maximum Strength; Antibiotic Ointment; Antibiotic Ointment USP; Antibiotic Original Strength; Antibiotic Plus Pain Relief; Antibiotic and Pain Relief; Antibiotic and Pain Relief Maximum Strength; Antibiotic, Pain and Scar; Antibiotique Onguent; Astonea First Aid; Atopalm First Aid Triple Antibiotic; Atopalm First Aid Triple Antibiotic Protection Moisturizing and Pain Relief; Atopalm First Aid Triple Antibiotic plus Pain Relief; BACiiM; BLUE ACME SLEEVE FIRST AID Contains 1000 PIECES; Baciguent; Baciguent First Aid Ointment; Baciguent First Aid Ointment 500units/gm; Baciguent Ointment 500 Units; Baciguent Oph Ont 500unit/gm; Baciguent Plus Pain Reliever Ont; Baciject; Bacimyxin Onguent; Bacitin; Bacitracin; Bacitracin Antibiotic; Bacitracin Micro; Bacitracin Ointment; Bacitracin Ointment 500 Units/g; Bacitracin Ont 500unit/gm; Bacitracin USP; Bacitracin With Zinc; Bacitracin Zinc; Bacitracin Zinc Ointment USP; Bacitracin Zinc and Polymyxin B Sulfate; Bacitracin Zinc, Neomycin Sulfate and Polymyxin B Sulfate; Bacitracin Zinc, Neomycin Sulfate, and Polymyxin B Sulfate; Bacitracin Zinc, Polymyxin B Sulfate, and Neomycin Sulfate; Bacitracin for Injection; Bacitracin for Injection, USP; Bacitracin zinc; Bacitracine 500 Iu Ointment; Bacitraycin MAX Pain Relief; Bacitraycin Original; Bacitraycin Plus; Band-aid Brand Adhesive Bandages Plus Antibiotic; Band-aid-S-1; Basic Care First Aid Antibiotic; Basic Care First Aid Antibiotic Plus Pain Relief; Basic Care First Aid Antibiotic and Burn Relief; Berkley and Jensen Triple Antibiotic; Best Choice Bacitracin Zinc; Bi-Mart Triple Antibiotic; Bi-Mart Triple Antibiotic plus Pain Relief; Bioderm Ointment; Biotic-Plus; Budpak Bacitracin; Budpak Triple Antibiotic Maximum Strength; Bus and Classroom Yellow; CAREALL Bacitracin; CAREONE Triple Antibiotic; CVP Triple Antibiotic; CVS All Purpose First Aid Kit; CVS Bacitracin with Pain Relief; CVS Cuts and Scrapes Refill Pack; CVS First Aid Kit; CVS Health All Purpose Kit; CVS Health Bacitracin Zinc; CVS Health Healing on the Go Kit; CVS Health Medication and Topical Refill Pouch; CVS Health Sports Kit; CVS Health Triple Antibiotic; CVS Health Triple Antibiotic with Pain Relief; CVS Triple Antibiotic; Cardinal Health First Aid Antibiotic; Care Bus and Classroom Yellow; CareALL Triple Antibiotic; CareALL Triple Antibiotic plus Pain Relief; Careone Bacitracin; Careone Original Strength Triple Antibiotic; Careone Triple Antibiotic; Cicatrin Powder; Circle K Triple Antibiotic; Complete Antibiotic Ointment; Cortisporin; Cortomycin; Crane Safety Triple Antibiotic; Cuadriderma; Curad Maximum Strength Triple Antibiotic; Curetech Bacitracin First Aid; Curetech First Aid; DAYMARK FAK-35 First Aid; DG Health Antibiotic; DG Health Poly Antibiotic; DG Health Triple Antibiotic; DG Poly Antibiotic First Aid Antibiotic; Dg Health Triple Antibiotic; Diosporin Ointment; Diphen; Double Antibiotic; Doubleantibioticointment; Dr Bells Pomade; Drs. Antibiotic Bacitracin; Drs. Pharmacy Triple Antibiotic Plus; Drs. pharmacy triple antibiotic; EQUATE Triple Antibiotic; Easy Care First Aid; Easy Care First Aid - All Purpose; Easy Care First Aid Chest - Home and Workshop; Easy Care First Aid Kit - Outdoor and Travel; Easy Care First Aid Kit - Sports and Travel; Easy Care First Aid Triple Antibiotic; Ecolab Triple Antibiotic; Emercreme No4 Ont Efa; Emergency Preparedness; Equaline First Aid Antibiotic; Equaline Triple Antibiotic; Equaline Triple Antibiotic Plus; Equate Antibiotic Plus Pain, Itch, Scar Relief; Equate First Aid Antibiotic; Equate First Aid Antibiotic Pain Relieving; Equate First Aid Antibiotic Plus Pain Relief; Eurosporin; Ever Ready First Aid Triple Antibiotic; Ever Ready Triple Antibiotic; Exchange Select First Aid Triple Anitbiotic Pain Relieving; Exchange Select triple antibiotic; Extra Strength Bacitraycin Plus; FAK Care4 Bus and School Yellow ORM D; FAK Large Office First Aid kit; FIRST AID Contains 1000 PIECES; FIRST AID Contains 303 PIECES; FIRST AID Contains 303 PIECES HARDCASE; FIRST AID Contains 404 PIECES; Face Values Bacitracin; Face Values Triple Antibiotic; Family Care Antibiotic; Family Care Bacitracin; Family Care Bacitracin Anti-Infection; Family Care First Aid; Family Care Triple Antibiotic; Family Care Triple Antibiotic Plus Pain Relief; Family Wellness; Family Wellness Antiseptic and Pain Relief; Family Wellness First Aid Antibiotic; Family Wellness Original; Family Wellness Pain Scar Itch; Family Wellness Plus Pain Relief; Family wellness; First Aid Antibiotic; First Aid Antibiotic Bacitracin with Zinc; First Aid Antibiotic Bacitraycin Plus; First Aid Antibiotic Bacitraycin Plus Maximum Strength; First Aid Antibiotic Ointment; First Aid Antibiotic Plus Pain Relief Maximum Strength; First Aid Bacitracin Zinc; First Aid Bacitraycin Plus Original; First Aid Macimum Sterngth Bacitraycin Plus; First Aid Maximum Strength Bacitraycin Plus; First Aid Only Triple Antibiotic; First Aid Original Bacitraycin Plus; First Aid Pocket Pack - 40 Pieces; First Aid Research Bacitracin with Zinc; First Aid Research Bacitraycin Plus Maximum Vertical; First Aid Triple Antibiotic; First Aid Triple Antibiotic Pain and Scar; First Aid Triple Antibiotic and Pain Relief Maximum Strength; First Aid Triple Antibiotic with Pain Reliever; First Aid Value Pack - 77 Pieces; Fonow; Formucare Triple Antibiotic Original Strength; Fulton Street Market Triple Antibiotic Original Strength; GENUINE FIRST AID Emergency Preparedness Contains 167 PIECES HARDCASE; GENUINE FIRST AID Emergency Preparedness Contains 167 Pieces; GFA First Aid; GFA First Aid 16 Unit Metal Case; GFA First Aid 24 Unit Metal Case; GFA First Aid 36 Unit Metal Case; GFA First Aid 75 Person Metal Case; GFA First Aid Kit Essentials - 33 Pieces; GLINT First Aid; GLINT TRIPLE ANTIBIOTIC First Aid; Galentic Triple Antibiotic Plus Pain Relief; Genuine First Aid - Auto First Aid; Genuine First Aid - Home First Aid; Genuine First Aid First Aid Antibiotic Bacitracin Zinc; Genuine First Aid Industrial First Aid; Genuine Triple Antibiotic; Gercillin; Gerigentle-Bacitracin zinc; Good Neighbor Pharmacy Bacitracin Zinc; Good Neighbor Pharmacy Emergency Preparedness and First Aid Contains 167 Pieces; Good Neighbor Pharmacy First Aid; Good Neighbor Pharmacy Triple Antibiotic; Good Neighbor Pharmacy Triple Antibiotic Plus Pain Relief; Good Sense First Aid Antibiotic; Good Sense Triple Antibiotic; Good Sense Triple Antibiotic and Pain Relief; Goodsense First Aid Antibiotic; Green Guard Triple Antibiotic; Harris Teeter Poly Antibiotic; Harris Teeter Triple Antibioitic; Harris Teeter Triple Antibiotic Plus Pain Relief; Health Mart Pharmacy Bacitracin Zinc First Aid Antibiotic; Healthy Accents Triple Antibiotic; Healthy Accents triple antibiotic; Jamp-bacitracine; Jampolycin; Johnson and Johnson Safe Travels First Aid Kit; K-Mart SmartSense First Aid Contains 303 Pieces; KAISER PERMANENTE Bacitracin Zinc; Kaiser Permanente Double antibiotic; Kit Breakroom Office First Aid; Kit Large Office First Aid; LEADER Triple Antibiotic; Lanabiotic Ont; Large ANSI First Aid Kit; Leader Bacitracin; Leader Bacitracin Zinc; Leader First Aid Antibiotic; Leader Poly Bacitracin; Leader Triple Antibiotic; Leader Triple Antibiotic Plus; Leader Triple Antibiotic and Pain Relief; Lincoln; Live Better Bacitracin Zinc; Live Better Triple Antibiotic; Live Better Triple Antibiotic plus Pain Relief; Lucky SuperSoft First Aid; MAKESENSE First Aid; Major Bacitracin; Major Bacitracin Zinc; Major Triple Antibiotic; Market Basket First Aid Triple Antibiotic; Maximum Strength Triple Antibiotic; Maxitril; McKesson Bacitracin Zinc; Medi-First; Medi-First Plus Triple Antibiotic; Medi-First Triple Antibiotic; MediChoice Bacitracin; MediChoice Triple Antibiotic; Medpride First Aid; Meijer Triple Antibiotic Plus; Mountain Series Weekender Medical; Multi Action; Mytrophene; NEOSPORIN Plus BURN RELIEF; Natureplex Antibiotic; Natureplex Antibiotic Plus Pain, Itch, Scar Relief; Natureplex Antibiotic plus Pain; Neo Bace Ophthalmic Ointment; Neo Polycin; Neo Polycin HC; Neo-poly-bac; Neo-poly-bac Hydro; Neo-polycin; Neo-polycin HC; Neocidin; Neomycin Sulfate, Polymyxin B Sulfate and Bacitracin Zinc; Neomycin and Polymyxin B Sulfates and Bacitracin Zinc; Neomycin and Polymyxin B Sulfates and Bacitracin Zinc with Hydrocortisone Acetate; Neomycin and Polymyxin B Sulfates, Bacitracin Zinc and Hydrocortisone; Neomycin and Polymyxin B Sulfates, Bacitracin Zinc, and Hydrocortisone; Neomycin and Polymyxin B Sulfates, and Bacitracin Zinc; Neomycin and Polymyxin B sulfates, Bacitracin zinc; Neomycin and polymyxin B sulfates and bacitracin zinc; Neosporin; Neosporin Ointment; Neosporin Ophthalmic Ointment; Neosporin Original; Neosporin Pain Itch Scar; Neosporin Plus Pain Relief; Neosporin Plus Pain Relief Neo To Go First Aid Antibiotic Pain Relieving; Neosporin Plus Pain Relief Neo to Go; Neotopic Ointment; North Triple Antibiotic; OLP Antibiotic Bacitracin Zinc; OLP Triple Antibiotic; OLP Triple Antibiotic Plus; Omnisporin; Onguent Antibiotique; Optimyxin Ophthalmic Ointment; Ori-power; Original Bacitraycin; Our Family Triple Antibiotic; Ozonol Antibiotic Plus - Ointment; Ozonol Antibiotic Plus Ont; Ozonol Antibiotics Plus; Paraid Triple Antibiotic; Penimixcina; Pentrexcilina Triple Antibiotic; Pentrexcilina Triple Antibiotic Plus Pain Relief; Pink Eye Ointment; Polvos de Sulpha First Aid Antibiotic; Poly Antibiotic; Poly Antibiotic Ointment; Poly Bacitracin; Polycidin Ophthalmic Ointment; Polycin; Polyderm Antibiotic Ointment; Polyderm Ointment USP; Polysporin; Polysporin Antibiotic Ointment; Polysporin Cold Sore Ointment; Polysporin Complete; Polysporin First Aid Antibiotic; Polysporin Singles; Polysporin Sterile Ophthalmic Ointment; Polysporin Topical First Aid Antibiotic Ointment; Polysporin Triple Antibiotic Ointment; Polysporin for Stitches; Polytopic; Polytopic Ont; Pomada De La Campana Triple Antibiotic Pain Relief; Premier Value Bacitracin Zinc; Premier Value Triple Antibiotic; Premier Value Triple Antibiotic Plus; ProCoMycin; Procure Triple Antibiotic Cream plus Active Manuka Honey; ProcureTriple Antibiotic Triple Antibiotic; Proplex Bacitracin; Publix Bacitracin Zinc; Publix antibiotic; Publix antibiotic plus pain relief; Quality Choice Bacitracin; Quality Choice Maximum Strength Triple Antibiotic; Quality Choice Triple Antibiotic; Quality Choice Triple Antibiotic Plus Pain Reliever; RITE AID Double Antibiotic; Rash Relief Antibacterial; ReCellTis; ReCellTis Wound Cream; Ready America First Aid Outdoor- 107 Pieces; Ready America First Aid Pocket - 33 Pieces; Redicare Triple Antibiotic First Aid; Refill 2; Repara Triple Antibiotic; Rexall Antibiotic; Roosin Triple Antibiotic; S-Oint BACITRACIN; S-Oint TRIPLE ANTIBIOTIC; Safeway Bacitracin Zinc; Sandoz Cortimyxin; Schein Bacitracin; Schein Triple Antibiotic; Select Medical Products Triple Antibiotic; Sheffield Bacitracin Zinc; Sheffield Triple Antibiotic; Sheffield Triple Antibiotic Plus Pain Relief; ShopRite Triple Antibiotic; Shopko Bacitracin Zinc; Shopko Triple Antibiotic; Shopko Triple Antibiotic Plus; Shopko Triple Antibiotic plus Pain Relief; Shoprite Bacitracin; Shoprite Triple Antibiotic; Signature Care First Aid Antibiotic; Signature Care Triple Antibiotic; Simply Neosporin First Aid Antibiotic; Single 0.9g Triple Antibiotic; Single Antibiotic; Single Antibiotic with bacitracin; Small Cuts and Burns; Smart Sense Antibiotic; Smart Sense Bacitracin; Smart Sense Triple Antibiotic; Smart Sense triple antibitotic plus pain relief; Standard ANSI First Aid; Sterisporin; Sunmark Double Antibiotic; Sunmark Triple Antibiotic; Sunmark Triple Antibiotic Plus Pain Relief; Sx1 Medicated Post-Operative System; T.R.U.E. Test Thin-Layer Rapid Use Patch Test; Taro-bacitracin Ointment 500units/gm; The New Parent First Aid; TheraCare First Aid Triple Antibiotic; TheraPlusPlus Plus; Thompson Triple Antibiotic; TopCare Bacitracin Zinc; TopCare Triple Antibiotic Plus Pain Relief; Topcare Triple Antibiotic; Topical Antibiotic Ointment; Touchless Care FIRST AID ANTIBIOTIC; Travel Savvy First Aid Triple Antibiotic; Travel Savvy Triple Antibiotic; Triastem Topical Antibiotic; Tribiotic; Tribioticlc Lc Lc; Triple Antibiotic; Triple Antibiotic CVS; Triple Antibiotic Extra Strength; Triple Antibiotic First Aid; Triple Antibiotic First Aid Antibiotic; Triple Antibiotic GRX; Triple Antibiotic HC; Triple Antibiotic Maximum Strength; Triple Antibiotic Ointment; Triple Antibiotic Plus; Triple Antibiotic Plus Maximum Strength; Triple Antibiotic Plus Pain Relief; Triple Antibiotic Plus Pain Relief Maximum Strength; Triple Antibiotic and Burn Relief; Triple Antibiotic and Pain Relief; Triple Antibiotic and Pain Relief Maximum Strength; Triple Antibiotic plus Pain Relief Maximum Strength; Triple Antibiotic plus pain relief; Triple Antibiotic with Pain Relief; Triple Antibiotic with Pain Relief Maximum Strength; Triple Antiobiotic; Triple antibiotic and pain itch scar; Triple antibiotic and pain relief; Tripleantibioticapainscaritch; Tripleantibioticointmentandpainrelief; UEC Medical First Aid Antibiotic; ULTRA SEAL Triple Antibiotic; Ultra Seal Bacitracin; Up and Up Antibiotic; Up and Up Antibiotic Plus Pain Relief; Up and Up Bacitracin first aid; Up and Up First Aid Antibiotic; Up and Up First Aid Antibiotic Pain Relieving; Up and Up multi action antibiotic; Vitacilina First Aid Antibiotic; Vitastem ULTRA; Vitastem Ultra Topical Antibiotic; WELL AT WALG TRIPLE ANTIBIOTIC Well at Walgreens; Wal-Sporin; Walgreens Bacitracin Zinc; Walgreens Maximum Strength Triple Antibiotic With Pain Relief; Walgreens Triple Antibiotic; Walgreens Wal-Sporin First Aid Antibiotic; WalgreensTriple Antibiotic; Water-Jel 3-in-1 Antibiotic; Welly Adventure First Aid Kit; Welly Bravery Balm; Welly Bravery First Aid Kit; Welly Bravery Triple Antibiotic; Welly Bravery Triple Antibiotic with Pain Relief; Welly Excursion First Aid Kit; Welly First Aid Kit; Welly Human Repair Kit; Welly Infection Fighter; Welly Quick Fix Kit; Welly Superhero Supplies Kit; Western Family Bacitracin Zinc; Western Family Triple Antibiotic; Western Family Triple Antibiotic plus Pain Relief; WinCo Maximum Strength Triple Antibiotic; WinCo Original Strength Triple Antibiotic; Winco Bacitracin; Winco Bacitracin Zinc; Wound First Aid; Wound Healer; Xpect Triple Antibiotic; Zapotol Bacitracin; Zee 3-in-One First Aid Antibiotic; antibiotic Bacitracin Zinc; astonea First Aid; equaline Bacitracin Zinc; meijer Bacitracin Zinc; meijer Triple Antibiotic; meijer Triple Antibiotic plus Pain Relief; procureFirst Aid Antibio First Aid Antibiotic

> <INTERNATIONAL_BRANDS>
Baciguent

> <SALTS>
Bacitracin methylene disalicylate; Bacitracin zinc

$$$$
