
  Mrv1718001241811012D          

 33 35  0  0  1  0            999 V2000
   -8.5737   -4.9499    0.0000 N   0  0  0  0  0  0  0  0  0  0  0  0
   -7.8592   -4.5375    0.0000 C   0  0  0  0  0  0  0  0  0  0  0  0
   -7.8592   -3.7125    0.0000 C   0  0  0  0  0  0  0  0  0  0  0  0
   -7.1447   -3.3000    0.0000 C   0  0  0  0  0  0  0  0  0  0  0  0
   -6.4302   -3.7125    0.0000 C   0  0  0  0  0  0  0  0  0  0  0  0
   -6.4302   -4.5375    0.0000 C   0  0  0  0  0  0  0  0  0  0  0  0
   -7.1447   -4.9499    0.0000 C   0  0  0  0  0  0  0  0  0  0  0  0
   -5.7158   -3.3000    0.0000 C   0  0  0  0  0  0  0  0  0  0  0  0
   -5.7158   -2.4749    0.0000 O   0  0  0  0  0  0  0  0  0  0  0  0
   -5.0012   -3.7125    0.0000 N   0  0  0  0  0  0  0  0  0  0  0  0
   -4.2868   -3.3000    0.0000 C   0  0  1  0  0  0  0  0  0  0  0  0
   -3.5724   -3.7125    0.0000 C   0  0  0  0  0  0  0  0  0  0  0  0
   -2.8579   -3.3000    0.0000 C   0  0  0  0  0  0  0  0  0  0  0  0
   -2.1434   -3.7125    0.0000 C   0  0  0  0  0  0  0  0  0  0  0  0
   -1.4289   -3.3000    0.0000 O   0  0  0  0  0  0  0  0  0  0  0  0
   -2.1434   -4.5375    0.0000 O   0  0  0  0  0  0  0  0  0  0  0  0
   -4.2868   -2.4749    0.0000 C   0  0  0  0  0  0  0  0  0  0  0  0
   -3.5724   -2.0625    0.0000 O   0  0  0  0  0  0  0  0  0  0  0  0
   -5.0012   -2.0625    0.0000 O   0  0  0  0  0  0  0  0  0  0  0  0
   -9.2881   -4.5374    0.0000 C   0  0  0  0  0  0  0  0  0  0  0  0
  -10.0026   -4.9499    0.0000 C   0  0  0  0  0  0  0  0  0  0  0  0
  -10.7171   -4.5374    0.0000 N   0  0  0  0  0  0  0  0  0  0  0  0
  -11.4316   -4.9499    0.0000 C   0  0  0  0  0  0  0  0  0  0  0  0
  -11.4315   -5.7749    0.0000 C   0  0  0  0  0  0  0  0  0  0  0  0
  -10.7171   -6.1875    0.0000 N   0  0  0  0  0  0  0  0  0  0  0  0
  -10.0026   -5.7750    0.0000 C   0  0  0  0  0  0  0  0  0  0  0  0
  -12.1463   -4.5375    0.0000 C   0  0  0  0  0  0  0  0  0  0  0  0
  -12.8606   -4.9502    0.0000 N   0  0  0  0  0  0  0  0  0  0  0  0
  -12.8606   -5.7751    0.0000 C   0  0  0  0  0  0  0  0  0  0  0  0
  -12.1460   -6.1876    0.0000 N   0  0  0  0  0  0  0  0  0  0  0  0
  -13.5750   -6.1877    0.0000 N   0  0  0  0  0  0  0  0  0  0  0  0
  -12.1464   -3.7125    0.0000 O   0  0  0  0  0  0  0  0  0  0  0  0
  -10.7171   -3.7124    0.0000 C   0  0  0  0  0  0  0  0  0  0  0  0
  1  2  1  0  0  0  0
  2  3  2  0  0  0  0
  3  4  1  0  0  0  0
  4  5  2  0  0  0  0
  5  6  1  0  0  0  0
  6  7  2  0  0  0  0
  2  7  1  0  0  0  0
  5  8  1  0  0  0  0
  8  9  2  0  0  0  0
  8 10  1  0  0  0  0
 11 10  1  0  0  0  0
 11 12  1  0  0  0  0
 12 13  1  0  0  0  0
 13 14  1  0  0  0  0
 14 15  1  0  0  0  0
 14 16  2  0  0  0  0
 11 17  1  6  0  0  0
 17 18  1  0  0  0  0
 17 19  2  0  0  0  0
  1 20  1  0  0  0  0
 20 21  1  0  0  0  0
 23 24  2  0  0  0  0
 21 26  1  0  0  0  0
 23 27  1  0  0  0  0
 24 25  1  0  0  0  0
 25 26  1  0  0  0  0
 29 30  1  0  0  0  0
 24 30  1  0  0  0  0
 29 31  1  0  0  0  0
 27 32  2  0  0  0  0
 22 23  1  0  0  0  0
 21 22  1  0  0  0  0
 22 33  1  0  0  0  0
 27 28  1  0  0  0  0
 28 29  2  0  0  0  0
M  END
> <DATABASE_ID>
DB04789

> <DATABASE_NAME>
drugbank

> <SMILES>
CN1C(CNC2=CC=C(C=C2)C(=O)N[C@@H](CCC(O)=O)C(O)=O)CNC2=C1C(=O)N=C(N)N2

> <INCHI_IDENTIFIER>
InChI=1S/C20H25N7O6/c1-27-12(9-23-16-15(27)18(31)26-20(21)25-16)8-22-11-4-2-10(3-5-11)17(30)24-13(19(32)33)6-7-14(28)29/h2-5,12-13,22H,6-9H2,1H3,(H,24,30)(H,28,29)(H,32,33)(H4,21,23,25,26,31)/t12?,13-/m0/s1

> <INCHI_KEY>
ZNOVTXRBGFNYRX-ABLWVSNPSA-N

> <FORMULA>
C20H25N7O6

> <MOLECULAR_WEIGHT>
459.463

> <EXACT_MASS>
459.186631553

> <JCHEM_ACCEPTOR_COUNT>
12

> <JCHEM_ATOM_COUNT>
58

> <JCHEM_AVERAGE_POLARIZABILITY>
46.191147111994255

> <JCHEM_BIOAVAILABILITY>
0

> <JCHEM_DONOR_COUNT>
7

> <JCHEM_FORMAL_CHARGE>
0

> <JCHEM_GHOSE_FILTER>
0

> <JCHEM_IUPAC>
(2S)-2-[(4-{[(2-amino-5-methyl-4-oxo-1,4,5,6,7,8-hexahydropteridin-6-yl)methyl]amino}phenyl)formamido]pentanedioic acid

> <ALOGPS_LOGP>
-0.58

> <JCHEM_LOGP>
-2.9765932558972175

> <ALOGPS_LOGS>
-3.14

> <JCHEM_MDDR_LIKE_RULE>
1

> <JCHEM_NUMBER_OF_RINGS>
3

> <JCHEM_PHYSIOLOGICAL_CHARGE>
-2

> <JCHEM_PKA>
3.9330027685146676

> <JCHEM_PKA_STRONGEST_ACIDIC>
3.2305548841491425

> <JCHEM_PKA_STRONGEST_BASIC>
5.323662116139351

> <JCHEM_POLAR_SURFACE_AREA>
198.48000000000002

> <JCHEM_REFRACTIVITY>
126.68129999999996

> <JCHEM_ROTATABLE_BOND_COUNT>
9

> <JCHEM_RULE_OF_FIVE>
0

> <ALOGPS_SOLUBILITY>
3.32e-01 g/l

> <JCHEM_TRADITIONAL_IUPAC>
(2S)-2-[(4-{[(2-amino-5-methyl-4-oxo-1,6,7,8-tetrahydropteridin-6-yl)methyl]amino}phenyl)formamido]pentanedioic acid

> <JCHEM_VEBER_RULE>
0

> <DRUGBANK_ID>
DB04789

> <DRUG_GROUPS>
investigational; nutraceutical

> <GENERIC_NAME>
5-methyltetrahydrofolic acid

> <SYNONYMS>
5-Methyl-5,6,7,8-tetrahydrofolic acid; 5-Methyl-5,6,7,8-tetrahydropteroyl-L-glutamic acid; 5-Methyltetrahydropteroyl monoglutamate; 5-Methyltetrahydropteroylglutamic acid; N-Methyltetrahydrofolate; N-Methyltetrahydrofolic acid; N5-Methyltetrahydrofolate; N5-Methyltetrahydrofolic acid; N5-Methyltetrahydropteroylglutamate

> <PRODUCTS>
Corvite 150; Corvite FE; OB Complete Gold; Prena1; Prena1 Chew; Prena1 Plus; Prenate Elite; Prenate Essential; RediChew; Sodium Polysulthionate, 5-methyltetrahydrofolate; Sodium Polysulthionate, 5-mthf; Sulfzix; Xizflus; vitaMedMD One Rx; vitaMedMD Rx Plus

> <INTERNATIONAL_BRANDS>
Prefolic A

$$$$
