
  Mrv1909 10112218142D          

 26 30  0  0  0  0            999 V2000
    1.3807   -4.6280    0.0000 O   0  0  0  0  0  0  0  0  0  0  0  0
    1.1258   -3.8434    0.0000 C   0  0  0  0  0  0  0  0  0  0  0  0
    0.3188   -3.6718    0.0000 C   0  0  0  0  0  0  0  0  0  0  0  0
    0.0639   -2.8872    0.0000 C   0  0  0  0  0  0  0  0  0  0  0  0
    0.6159   -2.2741    0.0000 C   0  0  0  0  0  0  0  0  0  0  0  0
    1.4229   -2.4457    0.0000 C   0  0  0  0  0  0  0  0  0  0  0  0
    1.6778   -3.2303    0.0000 C   0  0  0  0  0  0  0  0  0  0  0  0
    1.9749   -1.8326    0.0000 C   0  0  0  0  0  0  0  0  0  0  0  0
    1.7200   -1.0479    0.0000 N   0  0  0  0  0  0  0  0  0  0  0  0
    2.2720   -0.4349    0.0000 C   0  0  0  0  0  0  0  0  0  0  0  0
    2.0171    0.3498    0.0000 N   0  0  0  0  0  0  0  0  0  0  0  0
    1.2101    0.5213    0.0000 C   0  0  0  0  0  0  0  0  0  0  0  0
    0.9552    1.3059    0.0000 C   0  0  0  0  0  0  0  0  0  0  0  0
    1.5072    1.9190    0.0000 O   0  0  0  0  0  0  0  0  0  0  0  0
    2.3142    1.7475    0.0000 C   0  0  0  0  0  0  0  0  0  0  0  0
    2.5691    0.9629    0.0000 C   0  0  0  0  0  0  0  0  0  0  0  0
    3.0790   -0.6064    0.0000 C   0  0  0  0  0  0  0  0  0  0  0  0
    3.7464   -0.1215    0.0000 O   0  0  0  0  0  0  0  0  0  0  0  0
    4.4139   -0.6064    0.0000 C   0  0  0  0  0  0  0  0  0  0  0  0
    5.2208   -0.4349    0.0000 N   0  0  0  0  0  0  0  0  0  0  0  0
    5.7729   -1.0479    0.0000 C   0  0  0  0  0  0  0  0  0  0  0  0
    5.5179   -1.8326    0.0000 C   0  0  0  0  0  0  0  0  0  0  0  0
    4.7110   -2.0041    0.0000 C   0  0  0  0  0  0  0  0  0  0  0  0
    4.1589   -1.3910    0.0000 C   0  0  0  0  0  0  0  0  0  0  0  0
    3.3339   -1.3910    0.0000 C   0  0  0  0  0  0  0  0  0  0  0  0
    2.7819   -2.0041    0.0000 N   0  0  0  0  0  0  0  0  0  0  0  0
  1  2  1  0  0  0  0
  2  3  2  0  0  0  0
  3  4  1  0  0  0  0
  4  5  2  0  0  0  0
  5  6  1  0  0  0  0
  6  7  2  0  0  0  0
  2  7  1  0  0  0  0
  6  8  1  0  0  0  0
  8  9  2  0  0  0  0
  9 10  1  0  0  0  0
 10 11  1  0  0  0  0
 11 12  1  0  0  0  0
 12 13  1  0  0  0  0
 13 14  1  0  0  0  0
 14 15  1  0  0  0  0
 15 16  1  0  0  0  0
 11 16  1  0  0  0  0
 10 17  2  0  0  0  0
 17 18  1  0  0  0  0
 18 19  1  0  0  0  0
 19 20  2  0  0  0  0
 20 21  1  0  0  0  0
 21 22  2  0  0  0  0
 22 23  1  0  0  0  0
 23 24  2  0  0  0  0
 19 24  1  0  0  0  0
 24 25  1  0  0  0  0
 17 25  1  0  0  0  0
 25 26  2  0  0  0  0
  8 26  1  0  0  0  0
M  END
> <DATABASE_ID>
DB17046

> <DATABASE_NAME>
drugbank

> <SMILES>
OC1=CC=CC(=C1)C1=NC(N2CCOCC2)=C2OC3=NC=CC=C3C2=N1

> <INCHI_IDENTIFIER>
InChI=1S/C19H16N4O3/c24-13-4-1-3-12(11-13)17-21-15-14-5-2-6-20-19(14)26-16(15)18(22-17)23-7-9-25-10-8-23/h1-6,11,24H,7-10H2

> <INCHI_KEY>
TUVCWJQQGGETHL-UHFFFAOYSA-N

> <FORMULA>
C19H16N4O3

> <MOLECULAR_WEIGHT>
348.362

> <EXACT_MASS>
348.122240391

> <JCHEM_ACCEPTOR_COUNT>
6

> <JCHEM_ATOM_COUNT>
42

> <JCHEM_AVERAGE_NEUTRAL_MICROSPECIES_CHARGE>
-0.003933409306499814

> <JCHEM_AVERAGE_POLARIZABILITY>
36.75902756917477

> <JCHEM_BIOAVAILABILITY>
1

> <JCHEM_DONOR_COUNT>
1

> <JCHEM_FORMAL_CHARGE>
0

> <JCHEM_GHOSE_FILTER>
1

> <JCHEM_IUPAC>
3-[6-(morpholin-4-yl)-8-oxa-3,5,10-triazatricyclo[7.4.0.0^{2,7}]trideca-1(13),2,4,6,9,11-hexaen-4-yl]phenol

> <ALOGPS_LOGP>
3.23

> <JCHEM_LOGP>
3.5326093126666667

> <ALOGPS_LOGS>
-3.10

> <JCHEM_MDDR_LIKE_RULE>
0

> <JCHEM_NEUTRAL_CHARGE>
0

> <JCHEM_NUMBER_OF_RINGS>
5

> <JCHEM_PHYSIOLOGICAL_CHARGE>
0

> <JCHEM_PKA_STRONGEST_ACIDIC>
9.400737395345045

> <JCHEM_PKA_STRONGEST_BASIC>
2.404179424328924

> <JCHEM_POLAR_SURFACE_AREA>
84.51

> <JCHEM_REFRACTIVITY>
106.5234

> <JCHEM_ROTATABLE_BOND_COUNT>
2

> <JCHEM_RULE_OF_FIVE>
1

> <ALOGPS_SOLUBILITY>
2.79e-01 g/l

> <JCHEM_TRADITIONAL_IUPAC>
6-cyclopropaneamido-N-[hydroxy(2H2)methyl]-4-{[2-methoxy-3-(1-methyl-1,2,4-triazol-3-yl)phenyl]amino}pyridazine-3-carboxamide

> <JCHEM_VEBER_RULE>
0

> <DRUGBANK_ID>
DB17046

> <DRUG_GROUPS>
investigational

> <GENERIC_NAME>
PI-103

> <SYNONYMS>
Phenol, 3-(4-(4-morpholinyl)pyrido(3',2':4,5)furo(3,2-d)pyrimidin-2-yl)-

$$$$
