
  Mrv1718006221816552D          

  3  2  0  0  0  0            999 V2000
    0.0000    0.0000    0.0000 Si  0  0  0  0  0  0  0  0  0  0  0  0
    0.8250    0.0000    0.0000 O   0  0  0  0  0  0  0  0  0  0  0  0
   -0.8250    0.0000    0.0000 O   0  0  0  0  0  0  0  0  0  0  0  0
  1  2  2  0  0  0  0
  1  3  2  0  0  0  0
M  END
> <DATABASE_ID>
DB11132

> <DATABASE_NAME>
drugbank

> <SMILES>
O=[Si]=O

> <INCHI_IDENTIFIER>
InChI=1S/O2Si/c1-3-2

> <INCHI_KEY>
VYPSYNLAJGMNEJ-UHFFFAOYSA-N

> <FORMULA>
O2Si

> <MOLECULAR_WEIGHT>
60.0843

> <EXACT_MASS>
59.966755777

> <JCHEM_ACCEPTOR_COUNT>
2

> <JCHEM_ATOM_COUNT>
3

> <JCHEM_AVERAGE_POLARIZABILITY>
3.2811468900078617

> <JCHEM_BIOAVAILABILITY>
1

> <JCHEM_DONOR_COUNT>
0

> <JCHEM_FORMAL_CHARGE>
0

> <JCHEM_GHOSE_FILTER>
0

> <JCHEM_IUPAC>
silanedione

> <JCHEM_LOGP>
-0.6577999999999999

> <JCHEM_MDDR_LIKE_RULE>
0

> <JCHEM_NUMBER_OF_RINGS>
0

> <JCHEM_PHYSIOLOGICAL_CHARGE>
0

> <JCHEM_PKA_STRONGEST_BASIC>
-8.532702804224158

> <JCHEM_POLAR_SURFACE_AREA>
34.14

> <JCHEM_REFRACTIVITY>
2.8858

> <JCHEM_ROTATABLE_BOND_COUNT>
0

> <JCHEM_RULE_OF_FIVE>
1

> <JCHEM_TRADITIONAL_IUPAC>
silica

> <JCHEM_VEBER_RULE>
1

> <DRUGBANK_ID>
DB11132

> <DRUG_GROUPS>
approved

> <GENERIC_NAME>
Silicon dioxide

> <SYNONYMS>
Colloidal silica; Colloidal silicon dioxide; Diatomaceous earth; Diatomaceous silica; Diatomite; Infusorial earth; KieselsÃ¤ureanhydrid; Silica; Silica gel; Silica, colloidal; Siliceous earth; Siliceous earth, purified; Silicon dioxide (amorphous); Silicon dioxide, colloidal; Silicon dioxide, fumed; Silicon oxide; Siliziumdioxid

> <PRODUCTS>
2080 Dentistry Night Fresh; 2080 Dentistry Night Repair; 28tak Clair Tooth; 28tak Doux Tooth; Alegria Neo; Antiseptic Disinfectant; BAMBOO SALT Eunganggo Jook Yeom; BAMBOO SALT Eunganggo Jook Yeom Toothpaste; Calcium and Magnesium 1:1 Plus Tablets; Cheee Gold Plus Tooth; Chlorine Dioxide Air Sterilization Card; Chunzam Silk Amino Acid Tooth; Colgate Total Advanced Health Daily Repair; Colgate Total Advanced Health Sensitive; Colgate Total Gum Defense; DIO Enamel Coating Pen Pro Tooth; DOCTRUST ONE S Tooth; DR.EL Very Good Tooth; Denti Whoo CTS Gum CareToothpaste; Dio Whitening; Divinetree Ssak Shark Kids Tooth; Dr. DADDYS GumToothpaste; Dr. DADDYS Junior Toothpaste(Green grape); Dr. DADDYS Kids Tooth; Dr. DADDYS Kids Toothpaste(Raspberry flavor); Dr. DADDYS Tooth; Dr. Zenni GGOGGOMA ToothpasteRaspberry flavor; Dr. Zenni GGOGGOMA ToothpasteVanilla flavor; Dr. Zenni Kids tooth (Baby); Dr. Zenni Tooth for Sensitive Tooth; Dr.DADDYS Junior Toothpaste(Mint flavor); Dr.EL BERRYGOOD TOOTH; Dr.EL CHARCOR PARTY TOOTH; Dr.EL CLAIR TOOTH; Dr.EL DOUX TOOTH; Dr.EL ORTHO CARE TOOTH; Dr.EL TOOTH WHITE TOOTH; Dr.LORD Green Propol Tooth; Dr.LORD Propol Whitening Tooth; Dr.NOAH SOLIDTOOTHPASTE; Dr.Pauhls TOOTHPAST E LIME MANDARIN FLAVOR; Dr.Pauhls TOOTHPAST E PATCHOULI MUSK FLAVOR; Dr.Pauhls TOOTHPAST E VANILLE BLACK TEA FLAVOR; Dr.chois Toothpaste Care; Dr.chois Toothpaste Care Plus; Dr.chois Toothpaste Fresh; Dr.pauhls Natural Tone Up Tooth; E-Z-gas II; Evertox Special Bath Preparations; Exoden All In One; Exoden Cavity; Exoden Gum; Exoden Sensitive; Exoden White; Exoden White Tooth; Finefra Black Tooth; Finefra Kids Tooth; Finefra Tooth; Gelusil; Good Night/pm Formula Tab; Greensaltrain Tooth; High Potency Multivitamins & Minerals Caplets; Honest-Paste Kids; Infants Simethicone; Innoble ONECHEWTOOTHPASTE; K-MOM Kids Tooth; KUNDAL Pure Refreshing Whitening Tooth (Spearmint); L'ECLAT Blanc Toothpaste; L'ECLAT Imperial Toothpaste; L'ECLAT Rose Toothpaste; LACSIAN new perfect all care tooth; LACSISN perfect all care; LACSISN perfect sensitive; Lubas; Master Key Formula 3 Tab; Mastikids II; Mastikis Gold; Mastikis Gold II; Mastikis Mastic 24K; Mastikis Mastic 24K Whitening; Mastikis Mastic GumCare; Mastikis Qingjie Shine Mastic; Mastikis Qingxin Care Mastic; Medi Megaton 2080; Medi Peel Herb Denti Clinic Toothpas Te; Medi Peel Herbpirin Salt Toothpas Te; Medi W Tooth; MediF Tooth; Medique Alamag Plus; Men's Biomultiple Vitamin and Mineral Supplement; Mimibo Premium Tooth; Mineral Support; Mineralex; Mongdies raspberry baby tooth; NAVI MAXON Sirin Doctor; NAVI Mate Gold; NAVI Mate Silver; Nano Silver Toothpaste; Olea Olidental; Onetooth Clinic Tooth; Onetoothclinic Tooth; Onyx; Oprecare 12; Oprecare 24; Oprecare 3set (07,12,21); Oral Projeqt O1 Toothpastetablets; PediaCare Gas Relief Drops Dye Free; PediaCare Gas Relief Original; PediaCare Infants Gas Relief; PediaCare Infants Gas Relief Dye Free; Pediacare SIMETHICONE ANTIGAS; Phyenlimcide Toothpaste; Purigo; Quantumtoothcare Tooth; SUNSIL-Tin50AS; SiO2SAN; Silica - Liq 80mg/5ml; Silica Gel; Silica-calcium With Biotin Capsules; Silicare 5mg; Simethicone; Sonatural All Kill Blackhead Clear; Supplements De Vitamines Et Mineraux; Sweet Sixteen - Tab; TOOTH NOTE Herb Tooth Charcoal Jasmine; TOOTH NOTE Moisturizing Therapy Tooth GRAPEFRUIT; TOOTH NOTE Moisturizing Therapy Tooth LEMON BASIL; Toosty Golden Dookkeobi Tooth; Tooth Note Aqua Mint; Tooth Note Pineapple Mint; Unique Propoli Toothpas te; Unpa Cha Cha Premium Whitening Tooth; Unpa Cha Cha Premium Whitening Toothpaste; Vontee; Women's Biomultiple Vitamin and Mineral Supplement; Women's Support Tablets; the naked object DeBlack PackToothpaste

$$$$
