
  Mrv1572004221603232D          

 19 20  0  0  0  0            999 V2000
   -4.2868    7.4250    0.0000 C   0  0  0  0  0  0  0  0  0  0  0  0
    0.0000    3.3000    0.0000 C   0  0  0  0  0  0  0  0  0  0  0  0
   -1.4289    3.3000    0.0000 C   0  0  0  0  0  0  0  0  0  0  0  0
    0.0000    4.1250    0.0000 C   0  0  0  0  0  0  0  0  0  0  0  0
   -1.4289    4.1250    0.0000 C   0  0  0  0  0  0  0  0  0  0  0  0
   -1.4289    7.4250    0.0000 C   0  0  0  0  0  0  0  0  0  0  0  0
   -2.1434    7.8375    0.0000 C   0  0  0  0  0  0  0  0  0  0  0  0
   -0.7145    2.8875    0.0000 C   0  0  0  0  0  0  0  0  0  0  0  0
   -0.7145    4.5375    0.0000 C   0  0  0  0  0  0  0  0  0  0  0  0
   -1.4289    6.6000    0.0000 C   0  0  0  0  0  0  0  0  0  0  0  0
   -2.8579    7.4250    0.0000 C   0  0  0  0  0  0  0  0  0  0  0  0
   -0.7145    2.0625    0.0000 N   0  0  0  0  0  0  0  0  0  0  0  0
   -2.1434    6.1875    0.0000 N   0  0  0  0  0  0  0  0  0  0  0  0
   -2.8579    6.6000    0.0000 N   0  0  0  0  0  0  0  0  0  0  0  0
   -0.7145    6.1875    0.0000 N   0  0  0  0  0  0  0  0  0  0  0  0
   -1.5395    5.3625    0.0000 O   0  0  0  0  0  0  0  0  0  0  0  0
    0.1105    5.3625    0.0000 O   0  0  0  0  0  0  0  0  0  0  0  0
   -3.5724    7.8375    0.0000 O   0  0  0  0  0  0  0  0  0  0  0  0
   -0.7145    5.3625    0.0000 S   0  0  0  0  0  0  0  0  0  0  0  0
  4  2  1  0  0  0  0
  5  3  2  0  0  0  0
  7  6  2  0  0  0  0
  8  2  2  0  0  0  0
  8  3  1  0  0  0  0
  9  4  2  0  0  0  0
  9  5  1  0  0  0  0
 10  6  1  0  0  0  0
 11  7  1  0  0  0  0
 12  8  1  0  0  0  0
 13 10  2  0  0  0  0
 14 11  2  0  0  0  0
 14 13  1  0  0  0  0
 15 10  1  0  0  0  0
 18  1  1  0  0  0  0
 18 11  1  0  0  0  0
 19  9  1  0  0  0  0
 19 15  1  0  0  0  0
 19 16  2  0  0  0  0
 19 17  2  0  0  0  0
M  END
> <DATABASE_ID>
DB13773

> <DATABASE_NAME>
drugbank

> <SMILES>
COC1=NN=C(NS(=O)(=O)C2=CC=C(N)C=C2)C=C1

> <INCHI_IDENTIFIER>
InChI=1S/C11H12N4O3S/c1-18-11-7-6-10(13-14-11)15-19(16,17)9-4-2-8(12)3-5-9/h2-7H,12H2,1H3,(H,13,15)

> <INCHI_KEY>
VLYWMPOKSSWJAL-UHFFFAOYSA-N

> <FORMULA>
C11H12N4O3S

> <MOLECULAR_WEIGHT>
280.3

> <EXACT_MASS>
280.063011436

> <JCHEM_ACCEPTOR_COUNT>
6

> <JCHEM_ATOM_COUNT>
31

> <JCHEM_AVERAGE_POLARIZABILITY>
26.1866652427815

> <JCHEM_BIOAVAILABILITY>
1

> <JCHEM_DONOR_COUNT>
2

> <JCHEM_FORMAL_CHARGE>
0

> <JCHEM_GHOSE_FILTER>
1

> <JCHEM_IUPAC>
4-amino-N-(6-methoxypyridazin-3-yl)benzene-1-sulfonamide

> <ALOGPS_LOGP>
0.51

> <JCHEM_LOGP>
0.46578656166666627

> <ALOGPS_LOGS>
-2.94

> <JCHEM_MDDR_LIKE_RULE>
0

> <JCHEM_NUMBER_OF_RINGS>
2

> <JCHEM_PHYSIOLOGICAL_CHARGE>
-1

> <JCHEM_PKA_STRONGEST_ACIDIC>
6.844790551151756

> <JCHEM_PKA_STRONGEST_BASIC>
2.0160751360860987

> <JCHEM_POLAR_SURFACE_AREA>
107.2

> <JCHEM_REFRACTIVITY>
72.38719999999999

> <JCHEM_ROTATABLE_BOND_COUNT>
3

> <JCHEM_RULE_OF_FIVE>
1

> <ALOGPS_SOLUBILITY>
3.25e-01 g/l

> <JCHEM_TRADITIONAL_IUPAC>
longin

> <JCHEM_VEBER_RULE>
0

> <DRUGBANK_ID>
DB13773

> <DRUG_GROUPS>
experimental

> <GENERIC_NAME>
Sulfamethoxypyridazine

> <SYNONYMS>
Sulfamethoxypyridazine; sulfametoxipiridazina

$$$$
