
  Mrv1718012071713152D          

229232  0  0  0  0            999 V2000
    0.8495    5.8882    0.0000 C   0  0  0  0  0  0  0  0  0  0  0  0
    1.6697    5.8882    0.0000 C   0  0  1  0  0  0  0  0  0  0  0  0
    0.4394    6.6205    0.0000 O   0  0  0  0  0  0  0  0  0  0  0  0
    0.4394    5.1851    0.0000 N   0  0  0  0  0  0  0  0  0  0  0  0
    2.1092    5.1851    0.0000 N   0  0  0  0  0  0  0  0  0  0  0  0
    2.1092    6.6205    0.0000 C   0  0  0  0  0  0  0  0  0  0  0  0
    1.6697    7.3236    0.0000 C   0  0  0  0  0  0  0  0  0  0  0  0
    2.1092    8.0559    0.0000 C   0  0  0  0  0  0  0  0  0  0  0  0
    1.6697    8.7591    0.0000 N   0  0  0  0  0  0  0  0  0  0  0  0
    2.9294    8.0559    0.0000 O   0  0  0  0  0  0  0  0  0  0  0  0
    2.9294    5.1851    0.0000 C   0  0  0  0  0  0  0  0  0  0  0  0
    3.3396    4.4527    0.0000 C   0  0  2  0  0  0  0  0  0  0  0  0
    3.3396    5.8882    0.0000 O   0  0  0  0  0  0  0  0  0  0  0  0
    4.1598    4.4527    0.0000 C   0  0  0  0  0  0  0  0  0  0  0  0
    2.9294    3.7497    0.0000 N   0  0  0  0  0  0  0  0  0  0  0  0
    4.5699    5.1851    0.0000 C   0  0  0  0  0  0  0  0  0  0  0  0
    4.1598    5.8882    0.0000 C   0  0  0  0  0  0  0  0  0  0  0  0
    3.3396    3.0173    0.0000 C   0  0  0  0  0  0  0  0  0  0  0  0
    2.9294    2.3142    0.0000 C   0  0  2  0  0  0  0  0  0  0  0  0
    4.1598    3.0173    0.0000 O   0  0  0  0  0  0  0  0  0  0  0  0
    3.3396    1.5818    0.0000 C   0  0  0  0  0  0  0  0  0  0  0  0
    2.1092    2.3142    0.0000 N   0  0  0  0  0  0  0  0  0  0  0  0
    1.6697    1.5818    0.0000 C   0  0  0  0  0  0  0  0  0  0  0  0
    2.1092    0.8788    0.0000 C   0  0  2  0  0  0  0  0  0  0  0  0
    0.8495    1.5818    0.0000 O   0  0  0  0  0  0  0  0  0  0  0  0
    1.6697    0.1465    0.0000 C   0  0  0  0  0  0  0  0  0  0  0  0
    2.9294    0.8788    0.0000 N   0  0  0  0  0  0  0  0  0  0  0  0
    0.8495    0.1465    0.0000 C   0  0  0  0  0  0  0  0  0  0  0  0
    0.4394   -0.5566    0.0000 C   0  0  0  0  0  0  0  0  0  0  0  0
    0.4394    0.8788    0.0000 C   0  0  0  0  0  0  0  0  0  0  0  0
    3.5153    0.2929    0.0000 C   0  0  0  0  0  0  0  0  0  0  0  0
    3.5153   -0.5272    0.0000 C   0  0  2  0  0  0  0  0  0  0  0  0
    4.2769    0.6151    0.0000 O   0  0  0  0  0  0  0  0  0  0  0  0
    2.7830   -0.9374    0.0000 C   0  0  0  0  0  0  0  0  0  0  0  0
    4.2184   -0.9374    0.0000 N   0  0  0  0  0  0  0  0  0  0  0  0
    2.5779   -1.7576    0.0000 C   0  0  0  0  0  0  0  0  0  0  0  0
    1.7869   -1.9627    0.0000 C   0  0  0  0  0  0  0  0  0  0  0  0
    1.0546   -1.5526    0.0000 N   0  0  0  0  0  0  0  0  0  0  0  0
    0.2636   -1.7576    0.0000 C   0  0  0  0  0  0  0  0  0  0  0  0
   -0.3222   -1.1717    0.0000 N   0  0  0  0  0  0  0  0  0  0  0  0
    0.0586   -2.5779    0.0000 N   0  0  0  0  0  0  0  0  0  0  0  0
    4.0133   -1.7576    0.0000 C   0  0  0  0  0  0  0  0  0  0  0  0
    4.5992   -2.3435    0.0000 C   0  0  2  0  0  0  0  0  0  0  0  0
    3.2223   -1.9627    0.0000 O   0  0  0  0  0  0  0  0  0  0  0  0
    4.3941   -3.1344    0.0000 C   0  0  1  0  0  0  0  0  0  0  0  0
    5.3902   -2.1092    0.0000 N   0  0  0  0  0  0  0  0  0  0  0  0
    3.5739   -3.3396    0.0000 C   0  0  0  0  0  0  0  0  0  0  0  0
    4.9800   -3.7203    0.0000 O   0  0  0  0  0  0  0  0  0  0  0  0
    5.6245   -1.3182    0.0000 C   0  0  0  0  0  0  0  0  0  0  0  0
    6.4154   -1.1132    0.0000 C   0  0  1  0  0  0  0  0  0  0  0  0
    5.0386   -0.7324    0.0000 O   0  0  0  0  0  0  0  0  0  0  0  0
    6.6205   -0.3222    0.0000 N   0  0  0  0  0  0  0  0  0  0  0  0
    7.0013   -1.6991    0.0000 C   0  0  0  0  0  0  0  0  0  0  0  0
    7.8216   -1.6991    0.0000 C   0  0  0  0  0  0  0  0  0  0  0  0
    8.2317   -2.4021    0.0000 C   0  0  0  0  0  0  0  0  0  0  0  0
    9.0813   -2.4021    0.0000 C   0  0  0  0  0  0  0  0  0  0  0  0
    9.4914   -1.6991    0.0000 C   0  0  0  0  0  0  0  0  0  0  0  0
    9.0813   -0.9667    0.0000 C   0  0  0  0  0  0  0  0  0  0  0  0
    8.2317   -0.9667    0.0000 C   0  0  0  0  0  0  0  0  0  0  0  0
   10.3117   -1.6991    0.0000 O   0  0  0  0  0  0  0  0  0  0  0  0
    6.0346    0.2636    0.0000 C   0  0  0  0  0  0  0  0  0  0  0  0
    6.2397    1.0838    0.0000 C   0  0  2  0  0  0  0  0  0  0  0  0
    5.2437    0.0586    0.0000 O   0  0  0  0  0  0  0  0  0  0  0  0
    5.6831    1.6697    0.0000 C   0  0  0  0  0  0  0  0  0  0  0  0
    7.0599    1.2889    0.0000 N   0  0  0  0  0  0  0  0  0  0  0  0
    5.8882    2.4607    0.0000 C   0  0  0  0  0  0  0  0  0  0  0  0
    5.3023    3.0466    0.0000 O   0  0  0  0  0  0  0  0  0  0  0  0
    6.6791    2.6658    0.0000 N   0  0  0  0  0  0  0  0  0  0  0  0
    7.6458    0.7030    0.0000 C   0  0  0  0  0  0  0  0  0  0  0  0
    8.4368    0.9080    0.0000 C   0  0  2  0  0  0  0  0  0  0  0  0
    7.4115   -0.0878    0.0000 O   0  0  0  0  0  0  0  0  0  0  0  0
    9.0227    0.3222    0.0000 C   0  0  0  0  0  0  0  0  0  0  0  0
    8.6418    1.7283    0.0000 N   0  0  0  0  0  0  0  0  0  0  0  0
    9.8136    0.5566    0.0000 C   0  0  0  0  0  0  0  0  0  0  0  0
   10.3996   -0.0292    0.0000 O   0  0  0  0  0  0  0  0  0  0  0  0
   10.0480    1.3475    0.0000 O   0  0  0  0  0  0  0  0  0  0  0  0
    8.0559    2.3142    0.0000 C   0  0  0  0  0  0  0  0  0  0  0  0
    8.2903    3.1052    0.0000 C   0  0  1  0  0  0  0  0  0  0  0  0
    7.2650    2.0799    0.0000 O   0  0  0  0  0  0  0  0  0  0  0  0
    7.7045    3.6911    0.0000 N   0  0  0  0  0  0  0  0  0  0  0  0
    9.0813    3.3102    0.0000 C   0  0  1  0  0  0  0  0  0  0  0  0
    9.2863    4.1305    0.0000 C   0  0  0  0  0  0  0  0  0  0  0  0
    9.6672    2.7243    0.0000 O   0  0  0  0  0  0  0  0  0  0  0  0
    7.9095    4.4820    0.0000 C   0  0  0  0  0  0  0  0  0  0  0  0
    7.3236    5.0679    0.0000 C   0  0  1  0  0  0  0  0  0  0  0  0
    8.7004    4.7164    0.0000 O   0  0  0  0  0  0  0  0  0  0  0  0
    7.5287    5.8882    0.0000 N   0  0  0  0  0  0  0  0  0  0  0  0
    6.5327    4.8628    0.0000 C   0  0  0  0  0  0  0  0  0  0  0  0
    5.9467    5.4487    0.0000 C   0  0  0  0  0  0  0  0  0  0  0  0
    6.1519    6.2397    0.0000 C   0  0  0  0  0  0  0  0  0  0  0  0
    5.5660    6.8256    0.0000 C   0  0  0  0  0  0  0  0  0  0  0  0
    4.7749    6.6205    0.0000 C   0  0  0  0  0  0  0  0  0  0  0  0
    4.5406    5.8295    0.0000 C   0  0  0  0  0  0  0  0  0  0  0  0
    5.1265    5.2437    0.0000 C   0  0  0  0  0  0  0  0  0  0  0  0
    4.3941    6.7084    0.0000 C   0  0  0  0  0  0  0  0  0  0  0  0
    3.9547    7.4115    0.0000 N   0  0  0  0  0  0  0  0  0  0  0  0
    8.3489    6.0932    0.0000 C   0  0  0  0  0  0  0  0  0  0  0  0
    8.5539    6.8842    0.0000 C   0  0  1  0  0  0  0  0  0  0  0  0
    8.9348    5.5073    0.0000 O   0  0  0  0  0  0  0  0  0  0  0  0
    9.3450    7.1186    0.0000 N   0  0  0  0  0  0  0  0  0  0  0  0
    7.9680    7.4700    0.0000 C   0  0  0  0  0  0  0  0  0  0  0  0
    8.1732    8.2610    0.0000 C   0  0  0  0  0  0  0  0  0  0  0  0
    7.1771    7.2650    0.0000 C   0  0  0  0  0  0  0  0  0  0  0  0
    9.5793    7.9095    0.0000 C   0  0  0  0  0  0  0  0  0  0  0  0
   10.3702    8.1146    0.0000 C   0  0  2  0  0  0  0  0  0  0  0  0
    8.9934    8.4954    0.0000 O   0  0  0  0  0  0  0  0  0  0  0  0
   10.5753    8.9055    0.0000 C   0  0  0  0  0  0  0  0  0  0  0  0
   10.9561    7.5287    0.0000 N   0  0  0  0  0  0  0  0  0  0  0  0
   11.7470    7.7337    0.0000 C   0  0  0  0  0  0  0  0  0  0  0  0
   12.3330    7.1478    0.0000 C   0  0  2  0  0  0  0  0  0  0  0  0
   11.9814    8.5539    0.0000 O   0  0  0  0  0  0  0  0  0  0  0  0
   13.1532    7.3822    0.0000 C   0  0  0  0  0  0  0  0  0  0  0  0
   12.1279    6.3569    0.0000 N   0  0  0  0  0  0  0  0  0  0  0  0
   13.3583    8.1732    0.0000 C   0  0  0  0  0  0  0  0  0  0  0  0
   14.1492    8.3782    0.0000 O   0  0  0  0  0  0  0  0  0  0  0  0
   12.7724    8.7591    0.0000 O   0  0  0  0  0  0  0  0  0  0  0  0
   12.7138    5.7710    0.0000 C   0  0  0  0  0  0  0  0  0  0  0  0
   12.5087    4.9800    0.0000 C   0  0  2  0  0  0  0  0  0  0  0  0
   13.5048    6.0053    0.0000 O   0  0  0  0  0  0  0  0  0  0  0  0
   13.0946    4.3941    0.0000 C   0  0  0  0  0  0  0  0  0  0  0  0
   11.6885    4.7749    0.0000 N   0  0  0  0  0  0  0  0  0  0  0  0
   11.4835    3.9547    0.0000 C   0  0  0  0  0  0  0  0  0  0  0  0
   10.6925    3.7497    0.0000 O   0  0  0  0  0  0  0  0  0  0  0  0
   12.0693    3.3688    0.0000 C   0  0  1  0  0  0  0  0  0  0  0  0
   11.8643    2.5779    0.0000 N   0  0  0  0  0  0  0  0  0  0  0  0
   12.8603    3.6032    0.0000 C   0  0  0  0  0  0  0  0  0  0  0  0
   13.4462    3.0173    0.0000 C   0  0  0  0  0  0  0  0  0  0  0  0
   13.3290    2.1971    0.0000 N   0  0  0  0  0  0  0  0  0  0  0  0
   14.0613    1.8162    0.0000 C   0  0  0  0  0  0  0  0  0  0  0  0
   14.6472    2.4021    0.0000 N   0  0  0  0  0  0  0  0  0  0  0  0
   14.2665    3.1344    0.0000 C   0  0  0  0  0  0  0  0  0  0  0  0
   13.8856    4.5992    0.0000 O   0  0  0  0  0  0  0  0  0  0  0  0
   -0.3808    5.1851    0.0000 C   0  0  2  0  0  0  0  0  0  0  0  0
   -0.7909    4.4527    0.0000 C   0  0  0  0  0  0  0  0  0  0  0  0
   -0.7909    5.8882    0.0000 C   0  0  0  0  0  0  0  0  0  0  0  0
   -0.3808    6.6205    0.0000 C   0  0  0  0  0  0  0  0  0  0  0  0
   -0.7909    7.3236    0.0000 S   0  0  0  0  0  0  0  0  0  0  0  0
   -1.6405    7.3236    0.0000 C   0  0  0  0  0  0  0  0  0  0  0  0
   -1.6405    4.4527    0.0000 N   0  0  0  0  0  0  0  0  0  0  0  0
   -0.3808    3.7497    0.0000 O   0  0  0  0  0  0  0  0  0  0  0  0
   -2.0506    5.1851    0.0000 C   0  0  2  0  0  0  0  0  0  0  0  0
   -2.8709    5.1851    0.0000 C   0  0  0  0  0  0  0  0  0  0  0  0
   -1.6405    5.8882    0.0000 C   0  0  0  0  0  0  0  0  0  0  0  0
   -3.2810    5.8882    0.0000 O   0  0  0  0  0  0  0  0  0  0  0  0
   -3.2810    4.4527    0.0000 N   0  0  0  0  0  0  0  0  0  0  0  0
   -4.1012    4.4527    0.0000 C   0  0  2  0  0  0  0  0  0  0  0  0
   -4.5406    3.7497    0.0000 C   0  0  0  0  0  0  0  0  0  0  0  0
   -4.5406    5.1851    0.0000 C   0  0  0  0  0  0  0  0  0  0  0  0
   -5.3608    5.1851    0.0000 C   0  0  0  0  0  0  0  0  0  0  0  0
   -4.1012    5.8882    0.0000 C   0  0  0  0  0  0  0  0  0  0  0  0
   -5.3608    3.7497    0.0000 O   0  0  0  0  0  0  0  0  0  0  0  0
   -4.1012    3.0173    0.0000 N   0  0  0  0  0  0  0  0  0  0  0  0
   -4.5406    2.3142    0.0000 C   0  0  2  0  0  0  0  0  0  0  0  0
   -4.1012    1.5818    0.0000 C   0  0  0  0  0  0  0  0  0  0  0  0
   -5.3608    2.3142    0.0000 C   0  0  0  0  0  0  0  0  0  0  0  0
   -5.7710    3.0173    0.0000 C   0  0  0  0  0  0  0  0  0  0  0  0
   -6.5912    3.0173    0.0000 C   0  0  0  0  0  0  0  0  0  0  0  0
   -7.0013    3.7497    0.0000 C   0  0  0  0  0  0  0  0  0  0  0  0
   -7.8509    3.7497    0.0000 N   0  0  0  0  0  0  0  0  0  0  0  0
   -4.5406    0.8788    0.0000 N   0  0  0  0  0  0  0  0  0  0  0  0
   -3.2810    1.5818    0.0000 O   0  0  0  0  0  0  0  0  0  0  0  0
   -5.3608    0.8788    0.0000 C   0  0  2  0  0  0  0  0  0  0  0  0
   -5.7710    0.1465    0.0000 C   0  0  0  0  0  0  0  0  0  0  0  0
   -5.7710    1.5818    0.0000 C   0  0  0  0  0  0  0  0  0  0  0  0
   -6.5912    0.1465    0.0000 O   0  0  0  0  0  0  0  0  0  0  0  0
   -5.3608   -0.5566    0.0000 N   0  0  0  0  0  0  0  0  0  0  0  0
   -6.5912    1.5818    0.0000 C   0  0  0  0  0  0  0  0  0  0  0  0
   -7.0013    0.8788    0.0000 C   0  0  0  0  0  0  0  0  0  0  0  0
   -7.8509    0.8788    0.0000 C   0  0  0  0  0  0  0  0  0  0  0  0
   -8.2610    0.1465    0.0000 N   0  0  0  0  0  0  0  0  0  0  0  0
   -5.7710   -1.2889    0.0000 C   0  0  2  0  0  0  0  0  0  0  0  0
   -6.5912   -1.2889    0.0000 C   0  0  0  0  0  0  0  0  0  0  0  0
   -7.0013   -1.9920    0.0000 N   0  0  0  0  0  0  0  0  0  0  0  0
   -7.0013   -0.5566    0.0000 O   0  0  0  0  0  0  0  0  0  0  0  0
   -7.8509   -1.9920    0.0000 C   0  0  1  0  0  0  0  0  0  0  0  0
   -8.2610   -1.2889    0.0000 C   0  0  0  0  0  0  0  0  0  0  0  0
   -9.0813   -1.2889    0.0000 C   0  0  0  0  0  0  0  0  0  0  0  0
   -9.4914   -0.5566    0.0000 C   0  0  0  0  0  0  0  0  0  0  0  0
   -9.4914   -1.9920    0.0000 C   0  0  0  0  0  0  0  0  0  0  0  0
   -5.3608   -1.9920    0.0000 C   0  0  0  0  0  0  0  0  0  0  0  0
   -5.7710   -2.7243    0.0000 C   0  0  0  0  0  0  0  0  0  0  0  0
   -6.5912   -2.7243    0.0000 C   0  0  0  0  0  0  0  0  0  0  0  0
   -7.0013   -3.4274    0.0000 C   0  0  0  0  0  0  0  0  0  0  0  0
   -6.5912   -4.1305    0.0000 C   0  0  0  0  0  0  0  0  0  0  0  0
   -5.7710   -4.1305    0.0000 C   0  0  0  0  0  0  0  0  0  0  0  0
   -5.3608   -3.4274    0.0000 C   0  0  0  0  0  0  0  0  0  0  0  0
   -7.0013   -4.8628    0.0000 O   0  0  0  0  0  0  0  0  0  0  0  0
   -8.2610   -2.7243    0.0000 C   0  0  0  0  0  0  0  0  0  0  0  0
   -9.7258   -2.7536    0.0000 N   0  0  0  0  0  0  0  0  0  0  0  0
   -7.8509   -3.4274    0.0000 O   0  0  0  0  0  0  0  0  0  0  0  0
  -10.3117   -2.1677    0.0000 C   0  0  2  0  0  0  0  0  0  0  0  0
  -11.1319   -2.3729    0.0000 C   0  0  0  0  0  0  0  0  0  0  0  0
  -10.1066   -1.3475    0.0000 C   0  0  0  0  0  0  0  0  0  0  0  0
  -10.6925   -0.7616    0.0000 C   0  0  0  0  0  0  0  0  0  0  0  0
  -11.5127   -0.7616    0.0000 N   0  0  0  0  0  0  0  0  0  0  0  0
  -10.3702    0.0000    0.0000 O   0  0  0  0  0  0  0  0  0  0  0  0
  -11.7178   -1.7869    0.0000 O   0  0  0  0  0  0  0  0  0  0  0  0
  -11.3369   -3.1638    0.0000 N   0  0  0  0  0  0  0  0  0  0  0  0
  -12.1572   -3.1638    0.0000 C   0  0  2  0  0  0  0  0  0  0  0  0
  -12.5673   -3.8961    0.0000 C   0  0  0  0  0  0  0  0  0  0  0  0
  -12.5673   -2.4607    0.0000 C   0  0  0  0  0  0  0  0  0  0  0  0
  -12.3623   -1.6405    0.0000 O   0  0  0  0  0  0  0  0  0  0  0  0
  -13.4169   -3.8961    0.0000 O   0  0  0  0  0  0  0  0  0  0  0  0
  -12.1572   -4.5992    0.0000 N   0  0  0  0  0  0  0  0  0  0  0  0
  -12.5673   -5.3316    0.0000 C   0  0  2  0  0  0  0  0  0  0  0  0
  -12.1572   -6.0346    0.0000 C   0  0  0  0  0  0  0  0  0  0  0  0
  -13.4169   -5.3316    0.0000 C   0  0  2  0  0  0  0  0  0  0  0  0
  -13.8270   -6.0346    0.0000 C   0  0  0  0  0  0  0  0  0  0  0  0
  -13.8270   -4.5992    0.0000 C   0  0  0  0  0  0  0  0  0  0  0  0
  -14.6472   -6.0346    0.0000 C   0  0  0  0  0  0  0  0  0  0  0  0
  -12.5673   -6.7670    0.0000 O   0  0  0  0  0  0  0  0  0  0  0  0
  -11.3369   -6.0346    0.0000 N   0  0  0  0  0  0  0  0  0  0  0  0
  -10.9268   -6.7670    0.0000 C   0  0  2  0  0  0  0  0  0  0  0  0
  -10.1066   -6.7670    0.0000 C   0  0  0  0  0  0  0  0  0  0  0  0
  -11.3369   -7.4700    0.0000 C   0  0  0  0  0  0  0  0  0  0  0  0
  -10.9268   -8.2025    0.0000 C   0  0  0  0  0  0  0  0  0  0  0  0
  -11.3369   -8.9055    0.0000 C   0  0  0  0  0  0  0  0  0  0  0  0
  -10.1066   -8.2025    0.0000 C   0  0  0  0  0  0  0  0  0  0  0  0
   -9.6672   -7.4700    0.0000 O   0  0  0  0  0  0  0  0  0  0  0  0
   -9.6672   -6.0346    0.0000 N   0  0  0  0  0  0  0  0  0  0  0  0
   -8.8469   -6.0346    0.0000 C   0  0  2  0  0  0  0  0  0  0  0  0
   -8.4368   -5.3316    0.0000 C   0  0  0  0  0  0  0  0  0  0  0  0
   -8.4368   -6.7670    0.0000 C   0  0  0  0  0  0  0  0  0  0  0  0
   -7.6166   -5.3316    0.0000 O   0  0  0  0  0  0  0  0  0  0  0  0
   -8.8469   -4.5992    0.0000 O   0  0  0  0  0  0  0  0  0  0  0  0
   -7.6166   -6.7670    0.0000 C   0  0  0  0  0  0  0  0  0  0  0  0
   -7.2065   -7.4700    0.0000 N   0  0  0  0  0  0  0  0  0  0  0  0
   -7.2065   -6.0346    0.0000 O   0  0  0  0  0  0  0  0  0  0  0  0
    2.9880   -2.7536    0.0000 C   0  0  0  0  0  0  0  0  0  0  0  0
  1  2  1  0  0  0  0
  1  3  2  0  0  0  0
  1  4  1  0  0  0  0
  2  5  1  6  0  0  0
  2  6  1  0  0  0  0
133  4  1  6  0  0  0
  5 11  1  0  0  0  0
  6  7  1  0  0  0  0
  7  8  1  0  0  0  0
  8  9  1  0  0  0  0
  8 10  2  0  0  0  0
 11 12  1  0  0  0  0
 11 13  2  0  0  0  0
 12 14  1  0  0  0  0
 12 15  1  6  0  0  0
 14 16  1  0  0  0  0
 15 18  1  0  0  0  0
 16 17  1  0  0  0  0
 17 95  1  0  0  0  0
 18 19  1  0  0  0  0
 18 20  2  0  0  0  0
 19 21  1  0  0  0  0
 19 22  1  6  0  0  0
 22 23  1  0  0  0  0
 23 24  1  0  0  0  0
 23 25  2  0  0  0  0
 24 26  1  0  0  0  0
 24 27  1  1  0  0  0
 26 28  1  0  0  0  0
 27 31  1  0  0  0  0
 28 29  1  0  0  0  0
 28 30  1  0  0  0  0
 31 32  1  0  0  0  0
 31 33  2  0  0  0  0
 32 34  1  0  0  0  0
 32 35  1  1  0  0  0
 34 36  1  0  0  0  0
 35 42  1  0  0  0  0
 36 37  1  0  0  0  0
 37 38  1  0  0  0  0
 38 39  1  0  0  0  0
 39 40  2  0  0  0  0
 39 41  1  0  0  0  0
 42 43  1  0  0  0  0
 42 44  2  0  0  0  0
 43 45  1  0  0  0  0
 43 46  1  1  0  0  0
 45 47  1  0  0  0  0
 45 48  1  6  0  0  0
 46 49  1  0  0  0  0
 47229  1  0  0  0  0
 49 50  1  0  0  0  0
 49 51  2  0  0  0  0
 50 52  1  1  0  0  0
 50 53  1  0  0  0  0
 52 61  1  0  0  0  0
 53 54  1  0  0  0  0
 54 55  1  0  0  0  0
 54 59  2  0  0  0  0
 55 56  2  0  0  0  0
 56 57  1  0  0  0  0
 57 58  2  0  0  0  0
 57 60  1  0  0  0  0
 58 59  1  0  0  0  0
 61 62  1  0  0  0  0
 61 63  2  0  0  0  0
 62 64  1  0  0  0  0
 62 65  1  6  0  0  0
 64 66  1  0  0  0  0
 65 69  1  0  0  0  0
 66 67  2  0  0  0  0
 66 68  1  0  0  0  0
 69 70  1  0  0  0  0
 69 71  2  0  0  0  0
 70 72  1  0  0  0  0
 70 73  1  1  0  0  0
 72 74  1  0  0  0  0
 73 77  1  0  0  0  0
 74 75  1  0  0  0  0
 74 76  2  0  0  0  0
 77 78  1  0  0  0  0
 77 79  2  0  0  0  0
 78 80  1  1  0  0  0
 78 81  1  0  0  0  0
 80 84  1  0  0  0  0
 81 82  1  0  0  0  0
 81 83  1  1  0  0  0
 84 85  1  0  0  0  0
 84 86  2  0  0  0  0
 85 87  1  6  0  0  0
 85 88  1  0  0  0  0
 87 97  1  0  0  0  0
 88 89  1  0  0  0  0
 89 90  1  0  0  0  0
 89 94  2  0  0  0  0
 90 91  2  0  0  0  0
 91 92  1  0  0  0  0
 92 93  2  0  0  0  0
 93 94  1  0  0  0  0
 95 96  1  0  0  0  0
 97 98  1  0  0  0  0
 97 99  2  0  0  0  0
 98100  1  6  0  0  0
 98101  1  0  0  0  0
100104  1  0  0  0  0
101102  1  0  0  0  0
101103  1  0  0  0  0
104105  1  0  0  0  0
104106  2  0  0  0  0
105107  1  6  0  0  0
105108  1  0  0  0  0
108109  1  0  0  0  0
109110  1  0  0  0  0
109111  2  0  0  0  0
110112  1  0  0  0  0
110113  1  6  0  0  0
112114  1  0  0  0  0
113117  1  0  0  0  0
114115  2  0  0  0  0
114116  1  0  0  0  0
117118  1  0  0  0  0
117119  2  0  0  0  0
118120  1  0  0  0  0
118121  1  6  0  0  0
120132  1  0  0  0  0
121122  1  0  0  0  0
122123  2  0  0  0  0
122124  1  0  0  0  0
124125  1  6  0  0  0
124126  1  0  0  0  0
126127  1  0  0  0  0
127128  1  0  0  0  0
127131  2  0  0  0  0
128129  1  0  0  0  0
129130  2  0  0  0  0
130131  1  0  0  0  0
133134  1  0  0  0  0
133135  1  0  0  0  0
134139  1  0  0  0  0
134140  2  0  0  0  0
135136  1  0  0  0  0
136137  1  0  0  0  0
137138  1  0  0  0  0
139141  1  0  0  0  0
141142  1  0  0  0  0
141143  1  6  0  0  0
142144  2  0  0  0  0
142145  1  0  0  0  0
146145  1  6  0  0  0
146147  1  0  0  0  0
146148  1  0  0  0  0
147151  2  0  0  0  0
147152  1  0  0  0  0
148149  1  0  0  0  0
148150  1  0  0  0  0
153152  1  6  0  0  0
153154  1  0  0  0  0
153155  1  0  0  0  0
154160  1  0  0  0  0
154161  2  0  0  0  0
155156  1  0  0  0  0
156157  1  0  0  0  0
157158  1  0  0  0  0
158159  1  0  0  0  0
162160  1  6  0  0  0
162163  1  0  0  0  0
162164  1  0  0  0  0
163165  2  0  0  0  0
163166  1  0  0  0  0
164167  1  0  0  0  0
171166  1  1  0  0  0
167168  1  0  0  0  0
168169  1  0  0  0  0
169170  1  0  0  0  0
171172  1  0  0  0  0
171180  1  0  0  0  0
172173  1  0  0  0  0
172174  2  0  0  0  0
175173  1  6  0  0  0
175176  1  0  0  0  0
175188  1  0  0  0  0
176177  1  0  0  0  0
177178  1  0  0  0  0
177179  1  0  0  0  0
180181  1  0  0  0  0
181182  1  0  0  0  0
181186  2  0  0  0  0
182183  2  0  0  0  0
183184  1  0  0  0  0
184185  2  0  0  0  0
184187  1  0  0  0  0
185186  1  0  0  0  0
188189  1  0  0  0  0
188190  2  0  0  0  0
191189  1  6  0  0  0
191192  1  0  0  0  0
191193  1  0  0  0  0
192197  2  0  0  0  0
192198  1  0  0  0  0
193194  1  0  0  0  0
194195  1  0  0  0  0
194196  2  0  0  0  0
199198  1  6  0  0  0
199200  1  0  0  0  0
199201  1  0  0  0  0
200203  2  0  0  0  0
200204  1  0  0  0  0
201202  1  0  0  0  0
205204  1  6  0  0  0
205206  1  0  0  0  0
205207  1  0  0  0  0
206211  2  0  0  0  0
206212  1  0  0  0  0
207208  1  0  0  0  0
207209  1  6  0  0  0
208210  1  0  0  0  0
213212  1  6  0  0  0
213214  1  0  0  0  0
213215  1  0  0  0  0
214219  2  0  0  0  0
214220  1  0  0  0  0
215216  1  0  0  0  0
216217  1  0  0  0  0
216218  1  0  0  0  0
221220  1  6  0  0  0
221222  1  0  0  0  0
221223  1  0  0  0  0
222224  1  0  0  0  0
222225  2  0  0  0  0
223226  1  0  0  0  0
226227  1  0  0  0  0
226228  2  0  0  0  0
M  END
> <DATABASE_ID>
DB06260

> <DATABASE_NAME>
drugbank

> <SMILES>
CC[C@H](C)[C@H](NC(=O)[C@H](CO)NC(=O)[C@H](CC(N)=O)NC(=O)[C@H](CC(C)C)NC(=O)[C@H](CC1=CC=C(O)C=C1)NC(=O)[C@H](CCCCN)NC(=O)[C@H](CCCCN)NC(=O)[C@@H](NC(=O)[C@H](C)NC(=O)[C@H](CCSC)NC(=O)[C@H](CCC(N)=O)NC(=O)[C@H](CCCCN)NC(=O)[C@H](C)NC(=O)[C@H](CC(C)C)NC(=O)[C@H](CCCNC(N)=N)NC(=O)[C@@H](NC(=O)[C@H](CC1=CC=C(O)C=C1)NC(=O)[C@H](CC(N)=O)NC(=O)[C@H](CC(O)=O)NC(=O)[C@@H](NC(=O)[C@H](CC1=CC=CC=C1)NC(=O)[C@@H](NC(=O)[C@H](C)NC(=O)[C@H](CC(O)=O)NC(=O)[C@H](CO)NC(=O)[C@@H](N)CC1=CN=CN1)C(C)C)[C@@H](C)O)[C@H](O)CC)C(C)C)C(=O)N[C@@H](CC(C)C)C(=O)N[C@@H](CC(N)=O)C(O)=O

> <INCHI_IDENTIFIER>
InChI=1S/C145H232N40O43S/c1-19-74(13)114(141(224)175-94(55-71(7)8)130(213)178-102(144(227)228)62-109(153)195)183-138(221)104(67-187)180-133(216)99(61-108(152)194)172-129(212)93(54-70(5)6)169-131(214)95(57-80-37-41-83(189)42-38-80)170-124(207)87(34-25-28-49-147)163-123(206)88(35-26-29-50-148)166-139(222)112(72(9)10)181-118(201)76(15)159-121(204)91(47-52-229-18)165-126(209)90(45-46-106(150)192)164-122(205)86(33-24-27-48-146)162-117(200)75(14)160-127(210)92(53-69(3)4)168-125(208)89(36-30-51-157-145(154)155)167-143(226)116(105(191)20-2)185-136(219)96(58-81-39-43-84(190)44-40-81)171-132(215)98(60-107(151)193)173-134(217)101(64-111(198)199)177-142(225)115(78(17)188)184-135(218)97(56-79-31-22-21-23-32-79)176-140(223)113(73(11)12)182-119(202)77(16)161-128(211)100(63-110(196)197)174-137(220)103(66-186)179-120(203)85(149)59-82-65-156-68-158-82/h21-23,31-32,37-44,65,68-78,85-105,112-116,186-191H,19-20,24-30,33-36,45-64,66-67,146-149H2,1-18H3,(H2,150,192)(H2,151,193)(H2,152,194)(H2,153,195)(H,156,158)(H,159,204)(H,160,210)(H,161,211)(H,162,200)(H,163,206)(H,164,205)(H,165,209)(H,166,222)(H,167,226)(H,168,208)(H,169,214)(H,170,207)(H,171,215)(H,172,212)(H,173,217)(H,174,220)(H,175,224)(H,176,223)(H,177,225)(H,178,213)(H,179,203)(H,180,216)(H,181,201)(H,182,202)(H,183,221)(H,184,218)(H,185,219)(H,196,197)(H,198,199)(H,227,228)(H4,154,155,157)/t74-,75-,76-,77-,78+,85-,86-,87-,88-,89-,90-,91-,92-,93-,94-,95-,96-,97-,98-,99-,100-,101-,102-,103-,104-,105+,112-,113-,114-,115-,116-/m0/s1

> <INCHI_KEY>
OIDGWOIMPADMGM-GXSWRUKYSA-N

> <FORMULA>
C145H232N40O43S

> <MOLECULAR_WEIGHT>
3255.75

> <EXACT_MASS>
3253.691767464

> <JCHEM_ACCEPTOR_COUNT>
51

> <JCHEM_ATOM_COUNT>
461

> <JCHEM_AVERAGE_POLARIZABILITY>
336.9355148821087

> <JCHEM_BIOAVAILABILITY>
0

> <JCHEM_DONOR_COUNT>
48

> <JCHEM_FORMAL_CHARGE>
0

> <JCHEM_GHOSE_FILTER>
0

> <JCHEM_IUPAC>
(3S)-3-{[(1S)-1-{[(1S)-1-{[(1S,2R)-1-{[(1S)-1-{[(1S)-1-{[(1S)-1-{[(1S)-5-amino-1-{[(1S)-1-{[(1S)-1-{[(1S)-1-{[(1S)-1-{[(1S)-5-amino-1-{[(1S)-5-amino-1-{[(1S)-1-{[(1S)-1-{[(1S)-2-carbamoyl-1-{[(1S)-1-{[(1S,2S)-1-{[(1S)-1-{[(1S)-2-carbamoyl-1-carboxyethyl]carbamoyl}-3-methylbutyl]carbamoyl}-2-methylbutyl]carbamoyl}-2-hydroxyethyl]carbamoyl}ethyl]carbamoyl}-3-methylbutyl]carbamoyl}-2-(4-hydroxyphenyl)ethyl]carbamoyl}pentyl]carbamoyl}pentyl]carbamoyl}-2-methylpropyl]carbamoyl}ethyl]carbamoyl}-3-(methylsulfanyl)propyl]carbamoyl}-3-carbamoylpropyl]carbamoyl}pentyl]carbamoyl}ethyl]carbamoyl}-3-methylbutyl]carbamoyl}-4-carbamimidamidobutyl]carbamoyl}-2-hydroxybutyl]carbamoyl}-2-(4-hydroxyphenyl)ethyl]carbamoyl}-2-carbamoylethyl]carbamoyl}-3-[(2S,3R)-2-[(2S)-2-[(2S)-2-[(2S)-2-[(2S)-2-[(2S)-2-[(2S)-2-amino-3-(1H-imidazol-5-yl)propanamido]-3-hydroxypropanamido]-3-carboxypropanamido]propanamido]-3-methylbutanamido]-3-phenylpropanamido]-3-hydroxybutanamido]propanoic acid

> <ALOGPS_LOGP>
-1.57

> <JCHEM_LOGP>
-21.401304637712606

> <ALOGPS_LOGS>
-4.78

> <JCHEM_MDDR_LIKE_RULE>
1

> <JCHEM_NUMBER_OF_RINGS>
4

> <JCHEM_PHYSIOLOGICAL_CHARGE>
2

> <JCHEM_PKA>
3.4295202162444065

> <JCHEM_PKA_STRONGEST_ACIDIC>
2.9437813904941366

> <JCHEM_PKA_STRONGEST_BASIC>
11.896544697004405

> <JCHEM_POLAR_SURFACE_AREA>
1385.9999999999995

> <JCHEM_REFRACTIVITY>
825.7599000000008

> <JCHEM_ROTATABLE_BOND_COUNT>
110

> <JCHEM_RULE_OF_FIVE>
0

> <ALOGPS_SOLUBILITY>
5.36e-02 g/l

> <JCHEM_TRADITIONAL_IUPAC>
(3S)-3-{[(1S)-1-{[(1S)-1-{[(1S,2R)-1-{[(1S)-1-{[(1S)-1-{[(1S)-1-{[(1S)-5-amino-1-{[(1S)-1-{[(1S)-1-{[(1S)-1-{[(1S)-1-{[(1S)-5-amino-1-{[(1S)-5-amino-1-{[(1S)-1-{[(1S)-1-{[(1S)-2-carbamoyl-1-{[(1S)-1-{[(1S,2S)-1-{[(1S)-1-{[(1S)-2-carbamoyl-1-carboxyethyl]carbamoyl}-3-methylbutyl]carbamoyl}-2-methylbutyl]carbamoyl}-2-hydroxyethyl]carbamoyl}ethyl]carbamoyl}-3-methylbutyl]carbamoyl}-2-(4-hydroxyphenyl)ethyl]carbamoyl}pentyl]carbamoyl}pentyl]carbamoyl}-2-methylpropyl]carbamoyl}ethyl]carbamoyl}-3-(methylsulfanyl)propyl]carbamoyl}-3-carbamoylpropyl]carbamoyl}pentyl]carbamoyl}ethyl]carbamoyl}-3-methylbutyl]carbamoyl}-4-carbamimidamidobutyl]carbamoyl}-2-hydroxybutyl]carbamoyl}-2-(4-hydroxyphenyl)ethyl]carbamoyl}-2-carbamoylethyl]carbamoyl}-3-[(2S,3R)-2-[(2S)-2-[(2S)-2-[(2S)-2-[(2S)-2-[(2S)-2-[(2S)-2-amino-3-(3H-imidazol-4-yl)propanamido]-3-hydroxypropanamido]-3-carboxypropanamido]propanamido]-3-methylbutanamido]-3-phenylpropanamido]-3-hydroxybutanamido]propanoic acid

> <JCHEM_VEBER_RULE>
0

> <DRUGBANK_ID>
DB06260

> <DRUG_GROUPS>
experimental

> <GENERIC_NAME>
Aviptadil

> <SYNONYMS>
Aviptadil; Porcine vasoactive intestinal octacosapeptide; Vasoactive intestinal octacosapeptide (pig); Vasoactive intestinal octacosapeptide (swine)

> <INTERNATIONAL_BRANDS>
Invicorp

$$$$
