
  Mrv1652310211603032D          

 47 52  0  0  0  0            999 V2000
   -6.2301    2.9832    0.0000 C   0  0  0  0  0  0  0  0  0  0  0  0
   -5.8945    2.2295    0.0000 N   0  0  0  0  0  0  0  0  0  0  0  0
   -5.0875    2.0580    0.0000 C   0  0  0  0  0  0  0  0  0  0  0  0
   -5.0013    1.2375    0.0000 C   0  0  0  0  0  0  0  0  0  0  0  0
   -5.7550    0.9019    0.0000 C   0  0  0  0  0  0  0  0  0  0  0  0
   -6.3070    1.5150    0.0000 C   0  0  0  0  0  0  0  0  0  0  0  0
   -7.1275    1.4288    0.0000 C   0  0  0  0  0  0  0  0  0  0  0  0
   -7.4630    0.6751    0.0000 O   0  0  0  0  0  0  0  0  0  0  0  0
   -7.6124    2.0962    0.0000 N   0  0  0  0  0  0  0  0  0  0  0  0
   -8.4329    2.0100    0.0000 C   0  0  0  0  0  0  0  0  0  0  0  0
   -8.8454    1.2955    0.0000 C   0  0  0  0  0  0  0  0  0  0  0  0
   -9.6524    1.4671    0.0000 C   0  0  0  0  0  0  0  0  0  0  0  0
   -9.7386    2.2875    0.0000 N   0  0  0  0  0  0  0  0  0  0  0  0
   -8.9849    2.6231    0.0000 C   0  0  0  0  0  0  0  0  0  0  0  0
  -10.4531    2.7000    0.0000 C   0  0  0  0  0  0  0  0  0  0  0  0
  -10.2655    0.9150    0.0000 C   0  0  0  0  0  0  0  0  0  0  0  0
  -10.0939    0.1081    0.0000 O   0  0  0  0  0  0  0  0  0  0  0  0
  -11.0501    1.1700    0.0000 N   0  0  0  0  0  0  0  0  0  0  0  0
  -11.6632    0.6179    0.0000 C   0  0  0  0  0  0  0  0  0  0  0  0
  -12.4478    0.8729    0.0000 C   0  0  0  0  0  0  0  0  0  0  0  0
  -13.0609    0.3208    0.0000 N   0  0  0  0  0  0  0  0  0  0  0  0
  -12.8894   -0.4861    0.0000 C   0  0  0  0  0  0  0  0  0  0  0  0
  -13.5025   -1.0382    0.0000 C   0  0  0  0  0  0  0  0  0  0  0  0
  -14.2871   -0.7832    0.0000 O   0  0  0  0  0  0  0  0  0  0  0  0
  -14.4586    0.0237    0.0000 C   0  0  0  0  0  0  0  0  0  0  0  0
  -13.8455    0.5758    0.0000 C   0  0  0  0  0  0  0  0  0  0  0  0
   -4.2868    0.8250    0.0000 N   0  0  0  0  0  0  0  0  0  0  0  0
   -3.5724    1.2375    0.0000 C   0  0  0  0  0  0  0  0  0  0  0  0
   -3.5724    2.0625    0.0000 O   0  0  0  0  0  0  0  0  0  0  0  0
   -2.8579    0.8250    0.0000 C   0  0  0  0  0  0  0  0  0  0  0  0
   -2.1434    1.2375    0.0000 C   0  0  0  0  0  0  0  0  0  0  0  0
   -1.4289    0.8250    0.0000 C   0  0  0  0  0  0  0  0  0  0  0  0
   -1.4289    0.0000    0.0000 C   0  0  0  0  0  0  0  0  0  0  0  0
   -2.1434   -0.4125    0.0000 C   0  0  0  0  0  0  0  0  0  0  0  0
   -2.8579    0.0000    0.0000 C   0  0  0  0  0  0  0  0  0  0  0  0
   -0.7145   -0.4125    0.0000 C   0  0  0  0  0  0  0  0  0  0  0  0
    0.0000    0.0000    0.0000 C   0  0  0  0  0  0  0  0  0  0  0  0
    0.7145   -0.4125    0.0000 C   0  0  0  0  0  0  0  0  0  0  0  0
    1.4289    0.0000    0.0000 C   0  0  0  0  0  0  0  0  0  0  0  0
    2.1434   -0.4125    0.0000 C   0  0  0  0  0  0  0  0  0  0  0  0
    2.8579    0.0000    0.0000 C   0  0  0  0  0  0  0  0  0  0  0  0
    3.5724   -0.4125    0.0000 C   0  0  0  0  0  0  0  0  0  0  0  0
    3.5724   -1.2375    0.0000 C   0  0  0  0  0  0  0  0  0  0  0  0
    2.8579   -1.6500    0.0000 C   0  0  0  0  0  0  0  0  0  0  0  0
    2.1434   -1.2375    0.0000 C   0  0  0  0  0  0  0  0  0  0  0  0
    1.4289   -1.6500    0.0000 N   0  0  0  0  0  0  0  0  0  0  0  0
    0.7145   -1.2375    0.0000 C   0  0  0  0  0  0  0  0  0  0  0  0
  1  2  1  0  0  0  0
  2  3  1  0  0  0  0
  3  4  2  0  0  0  0
  4  5  1  0  0  0  0
  5  6  2  0  0  0  0
  2  6  1  0  0  0  0
  6  7  1  0  0  0  0
  7  8  2  0  0  0  0
  7  9  1  0  0  0  0
  9 10  1  0  0  0  0
 10 11  1  0  0  0  0
 11 12  2  0  0  0  0
 12 13  1  0  0  0  0
 13 14  1  0  0  0  0
 10 14  2  0  0  0  0
 13 15  1  0  0  0  0
 12 16  1  0  0  0  0
 16 17  2  0  0  0  0
 16 18  1  0  0  0  0
 18 19  1  0  0  0  0
 19 20  1  0  0  0  0
 20 21  1  0  0  0  0
 21 22  1  0  0  0  0
 22 23  1  0  0  0  0
 23 24  1  0  0  0  0
 24 25  1  0  0  0  0
 25 26  1  0  0  0  0
 21 26  1  0  0  0  0
  4 27  1  0  0  0  0
 27 28  1  0  0  0  0
 28 29  2  0  0  0  0
 28 30  1  0  0  0  0
 30 31  2  0  0  0  0
 31 32  1  0  0  0  0
 32 33  2  0  0  0  0
 33 34  1  0  0  0  0
 34 35  2  0  0  0  0
 30 35  1  0  0  0  0
 33 36  1  0  0  0  0
 36 37  2  0  0  0  0
 37 38  1  0  0  0  0
 38 39  1  0  0  0  0
 39 40  2  0  0  0  0
 40 41  1  0  0  0  0
 41 42  2  0  0  0  0
 42 43  1  0  0  0  0
 43 44  2  0  0  0  0
 44 45  1  0  0  0  0
 40 45  1  0  0  0  0
 45 46  2  0  0  0  0
 46 47  1  0  0  0  0
 38 47  2  0  0  0  0
M  END
> <DATABASE_ID>
DB12892

> <DATABASE_NAME>
drugbank

> <SMILES>
CN1C=C(NC(=O)C2=CC(NC(=O)C3=CC=C(\C=C\C4=CN=C5C=CC=CC5=C4)C=C3)=CN2C)C=C1C(=O)NCCN1CCOCC1

> <INCHI_IDENTIFIER>
InChI=1S/C36H37N7O4/c1-41-24-30(20-32(41)35(45)37-13-14-43-15-17-47-18-16-43)40-36(46)33-21-29(23-42(33)2)39-34(44)27-11-9-25(10-12-27)7-8-26-19-28-5-3-4-6-31(28)38-22-26/h3-12,19-24H,13-18H2,1-2H3,(H,37,45)(H,39,44)(H,40,46)/b8-7+

> <INCHI_KEY>
OEKXCVYZBVOWBR-BQYQJAHWSA-N

> <FORMULA>
C36H37N7O4

> <MOLECULAR_WEIGHT>
631.737

> <EXACT_MASS>
631.290702699

> <JCHEM_ACCEPTOR_COUNT>
6

> <JCHEM_ATOM_COUNT>
84

> <JCHEM_AVERAGE_POLARIZABILITY>
72.44789058633339

> <JCHEM_BIOAVAILABILITY>
1

> <JCHEM_DONOR_COUNT>
3

> <JCHEM_FORMAL_CHARGE>
0

> <JCHEM_GHOSE_FILTER>
0

> <JCHEM_IUPAC>
1-methyl-N-(1-methyl-5-{[2-(morpholin-4-yl)ethyl]carbamoyl}-1H-pyrrol-3-yl)-4-{4-[(E)-2-(quinolin-3-yl)ethenyl]benzamido}-1H-pyrrole-2-carboxamide

> <ALOGPS_LOGP>
4.30

> <JCHEM_LOGP>
3.976094152666666

> <ALOGPS_LOGS>
-5.15

> <JCHEM_MDDR_LIKE_RULE>
1

> <JCHEM_NUMBER_OF_RINGS>
6

> <JCHEM_PHYSIOLOGICAL_CHARGE>
0

> <JCHEM_PKA>
14.997161617769105

> <JCHEM_PKA_STRONGEST_ACIDIC>
14.228896792147282

> <JCHEM_PKA_STRONGEST_BASIC>
5.993190906760507

> <JCHEM_POLAR_SURFACE_AREA>
122.52

> <JCHEM_REFRACTIVITY>
186.6357999999999

> <JCHEM_ROTATABLE_BOND_COUNT>
10

> <JCHEM_RULE_OF_FIVE>
0

> <ALOGPS_SOLUBILITY>
4.45e-03 g/l

> <JCHEM_TRADITIONAL_IUPAC>
1-methyl-N-(1-methyl-5-{[2-(morpholin-4-yl)ethyl]carbamoyl}pyrrol-3-yl)-4-{4-[(E)-2-(quinolin-3-yl)ethenyl]benzamido}pyrrole-2-carboxamide

> <JCHEM_VEBER_RULE>
0

> <DRUGBANK_ID>
DB12892

> <DRUG_GROUPS>
investigational

> <GENERIC_NAME>
MGB-BP-3

$$$$
