
  Mrv1909 11182222112D          

 13 13  0  0  1  0            999 V2000
   -0.7145    2.0625    0.0000 N   0  0  0  0  0  0  0  0  0  0  0  0
    0.0000    2.4750    0.0000 C   0  0  1  0  0  0  0  0  0  0  0  0
    0.7145    2.0625    0.0000 C   0  0  0  0  0  0  0  0  0  0  0  0
    0.7145    1.2375    0.0000 C   0  0  0  0  0  0  0  0  0  0  0  0
    1.4289    0.8250    0.0000 C   0  0  0  0  0  0  0  0  0  0  0  0
    1.4289   -0.0000    0.0000 C   0  0  0  0  0  0  0  0  0  0  0  0
    0.7145   -0.4125    0.0000 C   0  0  0  0  0  0  0  0  0  0  0  0
    0.7145   -1.2375    0.0000 I   0  0  0  0  0  0  0  0  0  0  0  0
    0.0000    0.0000    0.0000 C   0  0  0  0  0  0  0  0  0  0  0  0
    0.0000    0.8250    0.0000 C   0  0  0  0  0  0  0  0  0  0  0  0
    0.0000    3.3000    0.0000 C   0  0  0  0  0  0  0  0  0  0  0  0
   -0.7145    3.7125    0.0000 O   0  0  0  0  0  0  0  0  0  0  0  0
    0.7145    3.7125    0.0000 O   0  0  0  0  0  0  0  0  0  0  0  0
  2  1  1  6  0  0  0
  2  3  1  0  0  0  0
  3  4  1  0  0  0  0
  4  5  2  0  0  0  0
  5  6  1  0  0  0  0
  6  7  2  0  0  0  0
  7  8  1  0  0  0  0
  7  9  1  0  0  0  0
  9 10  2  0  0  0  0
  4 10  1  0  0  0  0
  2 11  1  0  0  0  0
 11 12  1  0  0  0  0
 11 13  2  0  0  0  0
M  ISO  1   8 131
M  END
> <DATABASE_ID>
DB17137

> <DATABASE_NAME>
drugbank

> <SMILES>
N[C@@H](CC1=CC=C([131I])C=C1)C(O)=O

> <INCHI_IDENTIFIER>
InChI=1S/C9H10INO2/c10-7-3-1-6(2-4-7)5-8(11)9(12)13/h1-4,8H,5,11H2,(H,12,13)/t8-/m0/s1/i10+4

> <INCHI_KEY>
PZNQZSRPDOEBMS-WPUCPVGPSA-N

> <FORMULA>
C9H10INO2

> <MOLECULAR_WEIGHT>
295.09

> <EXACT_MASS>
294.977277734

> <JCHEM_ACCEPTOR_COUNT>
3

> <JCHEM_ATOM_COUNT>
23

> <JCHEM_AVERAGE_NEUTRAL_MICROSPECIES_CHARGE>
-0.0036047575616319216

> <JCHEM_AVERAGE_POLARIZABILITY>
22.87038702936286

> <JCHEM_BIOAVAILABILITY>
1

> <JCHEM_DONOR_COUNT>
2

> <JCHEM_FORMAL_CHARGE>
0

> <JCHEM_GHOSE_FILTER>
1

> <JCHEM_IUPAC>
(2S)-2-amino-3-[4-(¹³¹I)iodophenyl]propanoic acid

> <ALOGPS_LOGP>
-1.25

> <JCHEM_LOGP>
-0.2560571883214765

> <ALOGPS_LOGS>
-3.03

> <JCHEM_MDDR_LIKE_RULE>
0

> <JCHEM_NEUTRAL_CHARGE>
0

> <JCHEM_NUMBER_OF_RINGS>
1

> <JCHEM_PHYSIOLOGICAL_CHARGE>
0

> <JCHEM_PKA_STRONGEST_ACIDIC>
1.2738991793905419

> <JCHEM_PKA_STRONGEST_BASIC>
9.441328738532649

> <JCHEM_POLAR_SURFACE_AREA>
63.32

> <JCHEM_REFRACTIVITY>
58.47880000000001

> <JCHEM_ROTATABLE_BOND_COUNT>
3

> <JCHEM_RULE_OF_FIVE>
1

> <ALOGPS_SOLUBILITY>
2.74e-01 g/l

> <JCHEM_TRADITIONAL_IUPAC>
4-iodophenylalanine i-131

> <JCHEM_VEBER_RULE>
0

> <DRUGBANK_ID>
DB17137

> <DRUG_GROUPS>
investigational

> <GENERIC_NAME>
4-Iodophenylalanine I-131

> <SYNONYMS>
4-(131i)iodo-l-phenylalanine; 4-iodo-l-phenylalanine-131i; L-phenylalanine, 4-(iodo-131i)-

$$$$
