
  Mrv1533004261515162D          

 17 18  0  0  0  0            999 V2000
    0.9966    0.3627    0.0000 C   0  0  0  0  0  0  0  0  0  0  0  0
    0.7145   -0.4125    0.0000 C   0  0  0  0  0  0  0  0  0  0  0  0
    1.2448   -1.0445    0.0000 C   0  0  0  0  0  0  0  0  0  0  0  0
    1.9592   -1.4570    0.0000 C   0  0  0  0  0  0  0  0  0  0  0  0
    2.6737   -1.0445    0.0000 O   0  0  0  0  0  0  0  0  0  0  0  0
    1.9592   -2.2820    0.0000 N   0  0  0  0  0  0  0  0  0  0  0  0
    1.2448   -2.6945    0.0000 C   0  0  0  0  0  0  0  0  0  0  0  0
    1.2448   -3.5195    0.0000 O   0  0  0  0  0  0  0  0  0  0  0  0
    0.5303   -2.2820    0.0000 N   0  0  0  0  0  0  0  0  0  0  0  0
    0.5303   -1.4570    0.0000 C   0  0  0  0  0  0  0  0  0  0  0  0
   -0.1842   -1.0445    0.0000 O   0  0  0  0  0  0  0  0  0  0  0  0
    1.7751   -0.4125    0.0000 C   0  0  0  0  0  0  0  0  0  0  0  0
    1.4929    0.3627    0.0000 C   0  0  0  0  0  0  0  0  0  0  0  0
    2.0232    0.9947    0.0000 C   0  0  0  0  0  0  0  0  0  0  0  0
    2.8357    0.8515    0.0000 C   0  0  0  0  0  0  0  0  0  0  0  0
    3.1178    0.0762    0.0000 C   0  0  0  0  0  0  0  0  0  0  0  0
    2.5875   -0.5558    0.0000 C   0  0  0  0  0  0  0  0  0  0  0  0
  1  2  1  0  0  0  0
  2  3  1  0  0  0  0
  3  4  1  0  0  0  0
  4  5  2  0  0  0  0
  4  6  1  0  0  0  0
  6  7  1  0  0  0  0
  7  8  2  0  0  0  0
  7  9  1  0  0  0  0
  9 10  1  0  0  0  0
  3 10  1  0  0  0  0
 10 11  2  0  0  0  0
  3 12  1  0  0  0  0
 12 13  2  0  0  0  0
 13 14  1  0  0  0  0
 14 15  1  0  0  0  0
 15 16  1  0  0  0  0
 16 17  1  0  0  0  0
 12 17  1  0  0  0  0
M  END
> <DATABASE_ID>
DB13737

> <DATABASE_NAME>
drugbank

> <SMILES>
CCC1(C(=O)NC(=O)NC1=O)C1=CCCCC1

> <INCHI_IDENTIFIER>
InChI=1S/C12H16N2O3/c1-2-12(8-6-4-3-5-7-8)9(15)13-11(17)14-10(12)16/h6H,2-5,7H2,1H3,(H2,13,14,15,16,17)

> <INCHI_KEY>
WTYGAUXICFETTC-UHFFFAOYSA-N

> <FORMULA>
C12H16N2O3

> <MOLECULAR_WEIGHT>
236.271

> <EXACT_MASS>
236.116092383

> <JCHEM_ACCEPTOR_COUNT>
3

> <JCHEM_ATOM_COUNT>
33

> <JCHEM_AVERAGE_POLARIZABILITY>
23.93671842398111

> <JCHEM_BIOAVAILABILITY>
1

> <JCHEM_DONOR_COUNT>
2

> <JCHEM_FORMAL_CHARGE>
0

> <JCHEM_GHOSE_FILTER>
1

> <JCHEM_IUPAC>
5-(cyclohex-1-en-1-yl)-5-ethyl-1,3-diazinane-2,4,6-trione

> <ALOGPS_LOGP>
1.96

> <JCHEM_LOGP>
1.468514527666667

> <ALOGPS_LOGS>
-2.53

> <JCHEM_MDDR_LIKE_RULE>
0

> <JCHEM_NUMBER_OF_RINGS>
2

> <JCHEM_PHYSIOLOGICAL_CHARGE>
0

> <JCHEM_PKA>
10.806314442880074

> <JCHEM_PKA_STRONGEST_ACIDIC>
7.140078077457213

> <JCHEM_POLAR_SURFACE_AREA>
75.27000000000001

> <JCHEM_REFRACTIVITY>
61.651700000000005

> <JCHEM_ROTATABLE_BOND_COUNT>
2

> <JCHEM_RULE_OF_FIVE>
1

> <ALOGPS_SOLUBILITY>
6.96e-01 g/l

> <JCHEM_TRADITIONAL_IUPAC>
cyclobarbital

> <JCHEM_VEBER_RULE>
0

> <DRUGBANK_ID>
DB13737

> <DRUG_GROUPS>
experimental

> <GENERIC_NAME>
Cyclobarbital

> <SYNONYMS>
Cyclobarbital

$$$$
