
  Mrv1652310211602462D          

 39 43  0  0  1  0            999 V2000
    4.4029   -4.0132    0.0000 C   0  0  0  0  0  0  0  0  0  0  0  0
    3.7898   -4.5653    0.0000 C   0  0  0  0  0  0  0  0  0  0  0  0
    3.1767   -5.1173    0.0000 C   0  0  0  0  0  0  0  0  0  0  0  0
    4.3418   -5.1784    0.0000 C   0  0  0  0  0  0  0  0  0  0  0  0
    4.0869   -5.9630    0.0000 C   0  0  0  0  0  0  0  0  0  0  0  0
    4.6389   -6.5761    0.0000 C   0  0  0  0  0  0  0  0  0  0  0  0
    4.3839   -7.3607    0.0000 C   0  0  0  0  0  0  0  0  0  0  0  0
    3.5770   -7.5322    0.0000 C   0  0  0  0  0  0  0  0  0  0  0  0
    3.0249   -6.9191    0.0000 C   0  0  0  0  0  0  0  0  0  0  0  0
    3.2799   -6.1345    0.0000 C   0  0  0  0  0  0  0  0  0  0  0  0
    3.3220   -8.3169    0.0000 O   0  0  0  0  0  0  0  0  0  0  0  0
    2.5151   -8.4884    0.0000 C   0  0  0  0  0  0  0  0  0  0  0  0
    2.2601   -9.2730    0.0000 C   0  0  0  0  0  0  0  0  0  0  0  0
    1.4532   -9.4445    0.0000 C   0  0  0  0  0  0  0  0  0  0  0  0
    0.9011   -8.8314    0.0000 C   0  0  0  0  0  0  0  0  0  0  0  0
    1.1561   -8.0468    0.0000 C   0  0  0  0  0  0  0  0  0  0  0  0
    1.9630   -7.8753    0.0000 N   0  0  0  0  0  0  0  0  0  0  0  0
    0.0941   -9.0030    0.0000 C   0  0  0  0  0  0  0  0  0  0  0  0
   -0.4579   -8.3899    0.0000 O   0  0  0  0  0  0  0  0  0  0  0  0
   -0.1608   -9.7876    0.0000 N   0  0  0  0  0  0  0  0  0  0  0  0
    3.2377   -3.9522    0.0000 N   0  0  0  0  0  0  0  0  0  0  0  0
    3.4927   -3.1676    0.0000 C   0  0  0  0  0  0  0  0  0  0  0  0
    2.9406   -2.5545    0.0000 C   0  0  1  0  0  0  0  0  0  0  0  0
    3.1956   -1.7698    0.0000 C   0  0  0  0  0  0  0  0  0  0  0  0
    2.6435   -1.1567    0.0000 O   0  0  0  0  0  0  0  0  0  0  0  0
    2.8985   -0.3721    0.0000 C   0  0  0  0  0  0  0  0  0  0  0  0
    3.7054   -0.2006    0.0000 C   0  0  0  0  0  0  0  0  0  0  0  0
    3.9604    0.5840    0.0000 C   0  0  0  0  0  0  0  0  0  0  0  0
    3.4084    1.1971    0.0000 C   0  0  0  0  0  0  0  0  0  0  0  0
    2.6014    1.0256    0.0000 C   0  0  0  0  0  0  0  0  0  0  0  0
    2.3464    0.2410    0.0000 C   0  0  0  0  0  0  0  0  0  0  0  0
    1.5214    0.2410    0.0000 C   0  0  0  0  0  0  0  0  0  0  0  0
    0.9694   -0.3721    0.0000 C   0  0  0  0  0  0  0  0  0  0  0  0
    0.1624   -0.2006    0.0000 C   0  0  0  0  0  0  0  0  0  0  0  0
   -0.0925    0.5840    0.0000 C   0  0  0  0  0  0  0  0  0  0  0  0
    0.4595    1.1971    0.0000 C   0  0  0  0  0  0  0  0  0  0  0  0
    1.2665    1.0256    0.0000 C   0  0  0  0  0  0  0  0  0  0  0  0
    1.9339    1.5105    0.0000 N   0  0  0  0  0  0  0  0  0  0  0  0
    2.1337   -2.7260    0.0000 O   0  0  0  0  0  0  0  0  0  0  0  0
  1  2  1  0  0  0  0
  2  3  1  0  0  0  0
  2  4  1  0  0  0  0
  4  5  1  0  0  0  0
  5  6  2  0  0  0  0
  6  7  1  0  0  0  0
  7  8  2  0  0  0  0
  8  9  1  0  0  0  0
  9 10  2  0  0  0  0
  5 10  1  0  0  0  0
  8 11  1  0  0  0  0
 11 12  1  0  0  0  0
 12 13  2  0  0  0  0
 13 14  1  0  0  0  0
 14 15  2  0  0  0  0
 15 16  1  0  0  0  0
 16 17  2  0  0  0  0
 12 17  1  0  0  0  0
 15 18  1  0  0  0  0
 18 19  2  0  0  0  0
 18 20  1  0  0  0  0
  2 21  1  0  0  0  0
 21 22  1  0  0  0  0
 22 23  1  0  0  0  0
 23 24  1  0  0  0  0
 24 25  1  0  0  0  0
 25 26  1  0  0  0  0
 26 27  2  0  0  0  0
 27 28  1  0  0  0  0
 28 29  2  0  0  0  0
 29 30  1  0  0  0  0
 30 31  2  0  0  0  0
 26 31  1  0  0  0  0
 31 32  1  0  0  0  0
 32 33  1  0  0  0  0
 33 34  2  0  0  0  0
 34 35  1  0  0  0  0
 35 36  2  0  0  0  0
 36 37  1  0  0  0  0
 32 37  2  0  0  0  0
 37 38  1  0  0  0  0
 30 38  1  0  0  0  0
 23 39  1  6  0  0  0
M  END
> <DATABASE_ID>
DB12858

> <DATABASE_NAME>
drugbank

> <SMILES>
CC(C)(CC1=CC=C(OC2=CC=C(C=N2)C(N)=O)C=C1)NC[C@H](O)COC1=CC=CC2=C1C1=C(N2)C=CC=C1

> <INCHI_IDENTIFIER>
InChI=1S/C31H32N4O4/c1-31(2,16-20-10-13-23(14-11-20)39-28-15-12-21(17-33-28)30(32)37)34-18-22(36)19-38-27-9-5-8-26-29(27)24-6-3-4-7-25(24)35-26/h3-15,17,22,34-36H,16,18-19H2,1-2H3,(H2,32,37)/t22-/m0/s1

> <INCHI_KEY>
RBSGUQYXRDKPAE-QFIPXVFZSA-N

> <FORMULA>
C31H32N4O4

> <MOLECULAR_WEIGHT>
524.621

> <EXACT_MASS>
524.242355526

> <JCHEM_ACCEPTOR_COUNT>
5

> <JCHEM_ATOM_COUNT>
71

> <JCHEM_AVERAGE_POLARIZABILITY>
57.80513947498727

> <JCHEM_BIOAVAILABILITY>
0

> <JCHEM_DONOR_COUNT>
4

> <JCHEM_FORMAL_CHARGE>
0

> <JCHEM_GHOSE_FILTER>
0

> <JCHEM_IUPAC>
6-[4-(2-{[(2S)-3-(9H-carbazol-4-yloxy)-2-hydroxypropyl]amino}-2-methylpropyl)phenoxy]pyridine-3-carboxamide

> <ALOGPS_LOGP>
4.38

> <JCHEM_LOGP>
4.376474662333332

> <ALOGPS_LOGS>
-6.16

> <JCHEM_MDDR_LIKE_RULE>
1

> <JCHEM_NUMBER_OF_RINGS>
5

> <JCHEM_PHYSIOLOGICAL_CHARGE>
1

> <JCHEM_PKA>
14.124377569240082

> <JCHEM_PKA_STRONGEST_ACIDIC>
13.369968362630736

> <JCHEM_PKA_STRONGEST_BASIC>
9.504838237905213

> <JCHEM_POLAR_SURFACE_AREA>
122.49

> <JCHEM_REFRACTIVITY>
150.52269999999996

> <JCHEM_ROTATABLE_BOND_COUNT>
11

> <JCHEM_RULE_OF_FIVE>
0

> <ALOGPS_SOLUBILITY>
3.66e-04 g/l

> <JCHEM_TRADITIONAL_IUPAC>
6-[4-(2-{[(2S)-3-(9H-carbazol-4-yloxy)-2-hydroxypropyl]amino}-2-methylpropyl)phenoxy]pyridine-3-carboxamide

> <JCHEM_VEBER_RULE>
0

> <DRUGBANK_ID>
DB12858

> <DRUG_GROUPS>
investigational

> <GENERIC_NAME>
LY-377604

$$$$
