
  Mrv1909 12021903402D          

 34 35  0  0  0  0            999 V2000
   -4.9878   -1.8529    0.0000 C   0  0  0  0  0  0  0  0  0  0  0  0
   -4.9889   -2.6804    0.0000 C   0  0  0  0  0  0  0  0  0  0  0  0
   -4.2741   -3.0933    0.0000 C   0  0  0  0  0  0  0  0  0  0  0  0
   -3.5575   -2.6800    0.0000 C   0  0  0  0  0  0  0  0  0  0  0  0
   -3.5604   -1.8493    0.0000 C   0  0  0  0  0  0  0  0  0  0  0  0
   -4.2759   -1.4401    0.0000 C   0  0  0  0  0  0  0  0  0  0  0  0
   -2.8523   -0.6104    0.0000 N   0  0  0  0  0  0  0  0  0  0  0  0
   -2.1392   -0.1951    0.0000 C   0  0  0  0  0  0  0  0  0  0  0  0
   -1.4230   -0.6050    0.0000 C   0  0  0  0  0  0  0  0  0  0  0  0
   -2.1424    0.6299    0.0000 C   0  0  0  0  0  0  0  0  0  0  0  0
   -1.4292    1.0451    0.0000 O   0  0  0  0  0  0  0  0  0  0  0  0
   -2.8584    1.0397    0.0000 N   0  0  0  0  0  0  0  0  0  0  0  0
   -0.7101   -0.1897    0.0000 C   0  0  0  0  0  0  0  0  0  0  0  0
    0.0018   -0.6014    0.0000 C   0  0  0  0  0  0  0  0  0  0  0  0
    0.7144   -0.1869    0.0000 C   0  0  0  0  0  0  0  0  0  0  0  0
    0.7116    0.6391    0.0000 C   0  0  0  0  0  0  0  0  0  0  0  0
   -0.0093    1.0487    0.0000 C   0  0  0  0  0  0  0  0  0  0  0  0
   -0.7190    0.6319    0.0000 C   0  0  0  0  0  0  0  0  0  0  0  0
    1.4241    1.0552    0.0000 O   0  0  0  0  0  0  0  0  0  0  0  0
    2.1408    0.6464    0.0000 C   0  0  0  0  0  0  0  0  0  0  0  0
    2.8532    1.0625    0.0000 C   0  0  0  0  0  0  0  0  0  0  0  0
    3.5698    0.6537    0.0000 N   0  0  0  0  0  0  0  0  0  0  0  0
    4.2822    1.0698    0.0000 C   0  0  0  0  0  0  0  0  0  0  0  0
    4.9989    0.6610    0.0000 C   0  0  0  0  0  0  0  0  0  0  0  0
    3.5740   -0.1713    0.0000 C   0  0  0  0  0  0  0  0  0  0  0  0
    2.8616   -0.5877    0.0000 C   0  0  0  0  0  0  0  0  0  0  0  0
   -2.8492   -1.4355    0.0000 C   0  0  0  0  0  0  0  0  0  0  0  0
   -2.1331   -1.8455    0.0000 O   0  0  0  0  0  0  0  0  0  0  0  0
   -3.5737    0.6306    0.0000 C   0  0  0  0  0  0  0  0  0  0  0  0
   -4.2863    1.0431    0.0000 C   0  0  0  0  0  0  0  0  0  0  0  0
   -4.9989    0.6306    0.0000 C   0  0  0  0  0  0  0  0  0  0  0  0
   -2.8612    1.8641    0.0000 C   0  0  0  0  0  0  0  0  0  0  0  0
   -3.5737    2.2724    0.0000 C   0  0  0  0  0  0  0  0  0  0  0  0
   -3.5737    3.0933    0.0000 C   0  0  0  0  0  0  0  0  0  0  0  0
  9 13  1  0  0  0  0
 13 14  2  0  0  0  0
  8  9  1  0  0  0  0
 14 15  1  0  0  0  0
 15 16  2  0  0  0  0
  8 10  1  0  0  0  0
 16 17  1  0  0  0  0
 17 18  2  0  0  0  0
 18 13  1  0  0  0  0
 10 11  2  0  0  0  0
 16 19  1  0  0  0  0
 19 20  1  0  0  0  0
 10 12  1  0  0  0  0
 20 21  1  0  0  0  0
 21 22  1  0  0  0  0
 22 23  1  0  0  0  0
 23 24  1  0  0  0  0
 22 25  1  0  0  0  0
 25 26  1  0  0  0  0
  3  4  2  0  0  0  0
  7 27  1  0  0  0  0
 27  5  1  0  0  0  0
 27 28  2  0  0  0  0
  4  5  1  0  0  0  0
 12 29  1  0  0  0  0
  2  3  1  0  0  0  0
 29 30  1  0  0  0  0
  5  6  2  0  0  0  0
 30 31  1  0  0  0  0
  6  1  1  0  0  0  0
 12 32  1  0  0  0  0
  1  2  2  0  0  0  0
 32 33  1  0  0  0  0
  7  8  1  0  0  0  0
 33 34  1  0  0  0  0
M  END
> <DATABASE_ID>
DB13091

> <DATABASE_NAME>
drugbank

> <SMILES>
CCCN(CCC)C(=O)C(CC1=CC=C(OCCN(CC)CC)C=C1)NC(=O)C1=CC=CC=C1

> <INCHI_IDENTIFIER>
InChI=1S/C28H41N3O3/c1-5-18-31(19-6-2)28(33)26(29-27(32)24-12-10-9-11-13-24)22-23-14-16-25(17-15-23)34-21-20-30(7-3)8-4/h9-17,26H,5-8,18-22H2,1-4H3,(H,29,32)

> <INCHI_KEY>
FDBWMYOFXWMGEY-UHFFFAOYSA-N

> <FORMULA>
C28H41N3O3

> <MOLECULAR_WEIGHT>
467.6434

> <EXACT_MASS>
467.314792193

> <JCHEM_ACCEPTOR_COUNT>
4

> <JCHEM_ATOM_COUNT>
75

> <JCHEM_AVERAGE_POLARIZABILITY>
55.37735364591448

> <JCHEM_BIOAVAILABILITY>
1

> <JCHEM_DONOR_COUNT>
1

> <JCHEM_FORMAL_CHARGE>
0

> <JCHEM_GHOSE_FILTER>
0

> <JCHEM_IUPAC>
3-{4-[2-(diethylamino)ethoxy]phenyl}-2-(phenylformamido)-N,N-dipropylpropanamide

> <ALOGPS_LOGP>
5.07

> <JCHEM_LOGP>
4.724295477333335

> <ALOGPS_LOGS>
-4.90

> <JCHEM_MDDR_LIKE_RULE>
0

> <JCHEM_NUMBER_OF_RINGS>
2

> <JCHEM_PHYSIOLOGICAL_CHARGE>
1

> <JCHEM_PKA>
17.264411423707248

> <JCHEM_PKA_STRONGEST_ACIDIC>
15.036326933860881

> <JCHEM_PKA_STRONGEST_BASIC>
9.319727951293874

> <JCHEM_POLAR_SURFACE_AREA>
61.88000000000001

> <JCHEM_REFRACTIVITY>
139.37089999999998

> <JCHEM_ROTATABLE_BOND_COUNT>
15

> <JCHEM_RULE_OF_FIVE>
1

> <ALOGPS_SOLUBILITY>
5.83e-03 g/l

> <JCHEM_TRADITIONAL_IUPAC>
4-{5-methoxy-2-[(4-methoxy-3,5-dimethylpyridin-2-yl)methanesulfinyl]-1,3-benzodiazol-1-ylsulfonyl}phenoxyacetic acid

> <JCHEM_VEBER_RULE>
0

> <DRUGBANK_ID>
DB13091

> <DRUG_GROUPS>
investigational

> <GENERIC_NAME>
Tiropramide

> <SYNONYMS>
Tiropramida; Tiropramide; Tiropramidum

> <SALTS>
Tiropramide hydrochloride

$$$$
