
  Mrv1909 09192216382D          

 20 21  0  0  0  0            999 V2000
    4.2868   -4.9500    0.0000 O   0  0  0  0  0  0  0  0  0  0  0  0
    4.2868   -4.1250    0.0000 C   0  0  0  0  0  0  0  0  0  0  0  0
    3.5724   -3.7125    0.0000 C   0  0  0  0  0  0  0  0  0  0  0  0
    2.8579   -4.1250    0.0000 O   0  0  0  0  0  0  0  0  0  0  0  0
    2.1434   -3.7125    0.0000 N   0  0  0  0  0  0  0  0  0  0  0  0
    1.4289   -4.1250    0.0000 C   0  0  0  0  0  0  0  0  0  0  0  0
    1.4289   -4.9500    0.0000 N   0  0  0  0  0  0  0  0  0  0  0  0
    0.7145   -3.7125    0.0000 C   0  0  0  0  0  0  0  0  0  0  0  0
    0.0000   -4.1250    0.0000 C   0  0  0  0  0  0  0  0  0  0  0  0
   -0.7145   -3.7125    0.0000 C   0  0  0  0  0  0  0  0  0  0  0  0
   -0.7145   -2.8875    0.0000 C   0  0  0  0  0  0  0  0  0  0  0  0
    0.0000   -2.4750    0.0000 N   0  0  0  0  0  0  0  0  0  0  0  0
    0.7145   -2.8875    0.0000 C   0  0  0  0  0  0  0  0  0  0  0  0
    5.0013   -3.7125    0.0000 C   0  0  0  0  0  0  0  0  0  0  0  0
    5.7158   -4.1250    0.0000 N   0  0  0  0  0  0  0  0  0  0  0  0
    6.4302   -3.7125    0.0000 C   0  0  0  0  0  0  0  0  0  0  0  0
    7.1447   -4.1250    0.0000 C   0  0  0  0  0  0  0  0  0  0  0  0
    7.1447   -4.9500    0.0000 C   0  0  0  0  0  0  0  0  0  0  0  0
    6.4302   -5.3625    0.0000 C   0  0  0  0  0  0  0  0  0  0  0  0
    5.7158   -4.9500    0.0000 C   0  0  0  0  0  0  0  0  0  0  0  0
  1  2  1  0  0  0  0
  2  3  1  0  0  0  0
  3  4  1  0  0  0  0
  4  5  1  0  0  0  0
  5  6  1  0  0  0  0
  6  7  2  0  0  0  0
  6  8  1  0  0  0  0
  8  9  2  0  0  0  0
  9 10  1  0  0  0  0
 10 11  2  0  0  0  0
 11 12  1  0  0  0  0
 12 13  2  0  0  0  0
  8 13  1  0  0  0  0
  2 14  1  0  0  0  0
 14 15  1  0  0  0  0
 15 16  1  0  0  0  0
 16 17  1  0  0  0  0
 17 18  1  0  0  0  0
 18 19  1  0  0  0  0
 19 20  1  0  0  0  0
 15 20  1  0  0  0  0
M  END
> <DATABASE_ID>
DB16995

> <DATABASE_NAME>
drugbank

> <SMILES>
OC(CONC(=N)C1=CC=CN=C1)CN1CCCCC1

> <INCHI_IDENTIFIER>
InChI=1S/C14H22N4O2/c15-14(12-5-4-6-16-9-12)17-20-11-13(19)10-18-7-2-1-3-8-18/h4-6,9,13,19H,1-3,7-8,10-11H2,(H2,15,17)

> <INCHI_KEY>
MVLOQULXIYSERZ-UHFFFAOYSA-N

> <FORMULA>
C14H22N4O2

> <MOLECULAR_WEIGHT>
278.356

> <EXACT_MASS>
278.174275964

> <JCHEM_ACCEPTOR_COUNT>
6

> <JCHEM_ATOM_COUNT>
42

> <JCHEM_AVERAGE_NEUTRAL_MICROSPECIES_CHARGE>
1.7604251983636994

> <JCHEM_AVERAGE_POLARIZABILITY>
30.142552054565193

> <JCHEM_BIOAVAILABILITY>
1

> <JCHEM_DONOR_COUNT>
3

> <JCHEM_FORMAL_CHARGE>
0

> <JCHEM_GHOSE_FILTER>
1

> <JCHEM_IUPAC>
N-[2-hydroxy-3-(piperidin-1-yl)propoxy]pyridine-3-carboximidamide

> <ALOGPS_LOGP>
0.35

> <JCHEM_LOGP>
0.354329904

> <ALOGPS_LOGS>
-2.68

> <JCHEM_MDDR_LIKE_RULE>
0

> <JCHEM_NEUTRAL_CHARGE>
2

> <JCHEM_NUMBER_OF_RINGS>
2

> <JCHEM_PHYSIOLOGICAL_CHARGE>
2

> <JCHEM_PKA_STRONGEST_ACIDIC>
14.028678431077063

> <JCHEM_PKA_STRONGEST_BASIC>
9.21006244743726

> <JCHEM_POLAR_SURFACE_AREA>
81.47

> <JCHEM_REFRACTIVITY>
98.4369

> <JCHEM_ROTATABLE_BOND_COUNT>
6

> <JCHEM_RULE_OF_FIVE>
1

> <ALOGPS_SOLUBILITY>
5.80e-01 g/l

> <JCHEM_TRADITIONAL_IUPAC>
6-cyclopropaneamido-N-[hydroxy(2H2)methyl]-4-{[2-methoxy-3-(1-methyl-1,2,4-triazol-3-yl)phenyl]amino}pyridazine-3-carboxamide

> <JCHEM_VEBER_RULE>
0

> <DRUGBANK_ID>
DB16995

> <DRUG_GROUPS>
investigational

> <GENERIC_NAME>
NP-51

> <SYNONYMS>
(+/-)-o-(3-piperidino-2-hydroxy-1-propyl)nicotinic acid amidoxime; 3-pyridinecarboximidamide, n-(2-hydroxy-3-(1-piperidinyl)propoxy)-; Bgp-15 free base

> <SALTS>
BGP-15

$$$$
