
  Mrv1652310211605342D          

  1  0  0  0  0  0            999 V2000
    0.0000    0.0000    0.0000 F   0  0  0  0  0  0  0  0  0  0  0  0
M  RAD  1   1   2
M  ISO  1   1  18
M  END
> <DATABASE_ID>
DB13134

> <DATABASE_NAME>
drugbank

> <SMILES>
[18F]

> <INCHI_IDENTIFIER>
InChI=1S/F/i1-1

> <INCHI_KEY>
YCKRFDGAMUMZLT-BJUDXGSMSA-N

> <FORMULA>
F

> <MOLECULAR_WEIGHT>
18.0009

> <EXACT_MASS>
18.000937667

> <JCHEM_ACCEPTOR_COUNT>
0

> <JCHEM_ATOM_COUNT>
1

> <JCHEM_AVERAGE_POLARIZABILITY>
0.43590066

> <JCHEM_BIOAVAILABILITY>
1

> <JCHEM_DONOR_COUNT>
0

> <JCHEM_FORMAL_CHARGE>
0

> <JCHEM_GHOSE_FILTER>
0

> <JCHEM_IUPAC>
(18F)fluoranyl

> <JCHEM_LOGP>
0.3692581193333333

> <JCHEM_MDDR_LIKE_RULE>
0

> <JCHEM_NUMBER_OF_RINGS>
0

> <JCHEM_PHYSIOLOGICAL_CHARGE>
0

> <JCHEM_POLAR_SURFACE_AREA>
0.0

> <JCHEM_REFRACTIVITY>
0.8725

> <JCHEM_ROTATABLE_BOND_COUNT>
0

> <JCHEM_RULE_OF_FIVE>
1

> <JCHEM_TRADITIONAL_IUPAC>
(18F)fluoranyl

> <JCHEM_VEBER_RULE>
1

> <DRUGBANK_ID>
DB13134

> <DRUG_GROUPS>
investigational

> <GENERIC_NAME>
Fluorine F-18

> <SYNONYMS>
Fluorine-18

$$$$
