
  Mrv1652310201623102D          

 28 31  0  0  0  0            999 V2000
   -3.8837   -1.4124    0.0000 C   0  0  0  0  0  0  0  0  0  0  0  0
   -3.0587   -1.4124    0.0000 C   0  0  0  0  0  0  0  0  0  0  0  0
   -2.6462   -0.6979    0.0000 O   0  0  0  0  0  0  0  0  0  0  0  0
   -1.8212   -0.6979    0.0000 C   0  0  0  0  0  0  0  0  0  0  0  0
   -1.4087    0.0165    0.0000 C   0  0  0  0  0  0  0  0  0  0  0  0
   -0.5837    0.0165    0.0000 C   0  0  0  0  0  0  0  0  0  0  0  0
   -0.1712   -0.6979    0.0000 C   0  0  0  0  0  0  0  0  0  0  0  0
   -0.5837   -1.4124    0.0000 C   0  0  0  0  0  0  0  0  0  0  0  0
   -1.4087   -1.4124    0.0000 C   0  0  0  0  0  0  0  0  0  0  0  0
    0.6538   -0.6979    0.0000 C   0  0  0  0  0  0  0  0  0  0  0  0
    1.1387   -0.0305    0.0000 C   0  0  0  0  0  0  0  0  0  0  0  0
    1.9233   -0.2854    0.0000 C   0  0  0  0  0  0  0  0  0  0  0  0
    2.6378    0.1271    0.0000 C   0  0  0  0  0  0  0  0  0  0  0  0
    3.3523   -0.2854    0.0000 C   0  0  0  0  0  0  0  0  0  0  0  0
    3.3523   -1.1104    0.0000 C   0  0  0  0  0  0  0  0  0  0  0  0
    2.6378   -1.5229    0.0000 N   0  0  0  0  0  0  0  0  0  0  0  0
    1.9233   -1.1104    0.0000 N   0  0  0  0  0  0  0  0  0  0  0  0
    1.1387   -1.3654    0.0000 N   0  0  0  0  0  0  0  0  0  0  0  0
    0.8838    0.7541    0.0000 C   0  0  0  0  0  0  0  0  0  0  0  0
    0.0768    0.9256    0.0000 C   0  0  0  0  0  0  0  0  0  0  0  0
   -0.1781    1.7103    0.0000 C   0  0  0  0  0  0  0  0  0  0  0  0
    0.3739    2.3234    0.0000 C   0  0  0  0  0  0  0  0  0  0  0  0
    1.1809    2.1518    0.0000 C   0  0  0  0  0  0  0  0  0  0  0  0
    1.4358    1.3672    0.0000 C   0  0  0  0  0  0  0  0  0  0  0  0
    0.1190    3.1080    0.0000 S   0  0  0  0  0  0  0  0  0  0  0  0
   -0.1360    3.8926    0.0000 O   0  0  0  0  0  0  0  0  0  0  0  0
    0.9036    3.3629    0.0000 O   0  0  0  0  0  0  0  0  0  0  0  0
   -0.6657    2.8530    0.0000 C   0  0  0  0  0  0  0  0  0  0  0  0
  1  2  1  0  0  0  0
  2  3  1  0  0  0  0
  3  4  1  0  0  0  0
  4  5  2  0  0  0  0
  5  6  1  0  0  0  0
  6  7  2  0  0  0  0
  7  8  1  0  0  0  0
  8  9  2  0  0  0  0
  4  9  1  0  0  0  0
  7 10  1  0  0  0  0
 10 11  1  0  0  0  0
 11 12  2  0  0  0  0
 12 13  1  0  0  0  0
 13 14  2  0  0  0  0
 14 15  1  0  0  0  0
 15 16  2  0  0  0  0
 16 17  1  0  0  0  0
 12 17  1  0  0  0  0
 17 18  1  0  0  0  0
 10 18  2  0  0  0  0
 11 19  1  0  0  0  0
 19 20  2  0  0  0  0
 20 21  1  0  0  0  0
 21 22  2  0  0  0  0
 22 23  1  0  0  0  0
 23 24  2  0  0  0  0
 19 24  1  0  0  0  0
 22 25  1  0  0  0  0
 25 26  2  0  0  0  0
 25 27  2  0  0  0  0
 25 28  1  0  0  0  0
M  END
> <DATABASE_ID>
DB12009

> <DATABASE_NAME>
drugbank

> <SMILES>
CCOC1=CC=C(C=C1)C1=NN2N=CC=CC2=C1C1=CC=C(C=C1)S(C)(=O)=O

> <INCHI_IDENTIFIER>
InChI=1S/C21H19N3O3S/c1-3-27-17-10-6-16(7-11-17)21-20(19-5-4-14-22-24(19)23-21)15-8-12-18(13-9-15)28(2,25)26/h4-14H,3H2,1-2H3

> <INCHI_KEY>
NXMZBNYLCVTRGB-UHFFFAOYSA-N

> <FORMULA>
C21H19N3O3S

> <MOLECULAR_WEIGHT>
393.46

> <EXACT_MASS>
393.114712658

> <JCHEM_ACCEPTOR_COUNT>
5

> <JCHEM_ATOM_COUNT>
47

> <JCHEM_AVERAGE_POLARIZABILITY>
41.87798891557517

> <JCHEM_BIOAVAILABILITY>
1

> <JCHEM_DONOR_COUNT>
0

> <JCHEM_FORMAL_CHARGE>
0

> <JCHEM_GHOSE_FILTER>
1

> <JCHEM_IUPAC>
2-(4-ethoxyphenyl)-3-(4-methanesulfonylphenyl)pyrazolo[1,5-b]pyridazine

> <ALOGPS_LOGP>
3.64

> <JCHEM_LOGP>
3.4472291533333337

> <ALOGPS_LOGS>
-5.20

> <JCHEM_MDDR_LIKE_RULE>
0

> <JCHEM_NUMBER_OF_RINGS>
4

> <JCHEM_PHYSIOLOGICAL_CHARGE>
0

> <JCHEM_PKA_STRONGEST_ACIDIC>
19.68809943373891

> <JCHEM_PKA_STRONGEST_BASIC>
0.9772355557315312

> <JCHEM_POLAR_SURFACE_AREA>
73.56

> <JCHEM_REFRACTIVITY>
120.0223

> <JCHEM_ROTATABLE_BOND_COUNT>
5

> <JCHEM_RULE_OF_FIVE>
1

> <ALOGPS_SOLUBILITY>
2.49e-03 g/l

> <JCHEM_TRADITIONAL_IUPAC>
2-(4-ethoxyphenyl)-3-(4-methanesulfonylphenyl)pyrazolo[1,5-b]pyridazine

> <JCHEM_VEBER_RULE>
0

> <DRUGBANK_ID>
DB12009

> <DRUG_GROUPS>
investigational

> <GENERIC_NAME>
GW-406381

$$$$
