
  Mrv1572001261616572D          

 20 20  0  0  0  0            999 V2000
    1.4289    0.8250    0.0000 C   0  0  0  0  0  0  0  0  0  0  0  0
    0.0000    0.0000    0.0000 C   0  0  0  0  0  0  0  0  0  0  0  0
    0.7145    1.2375    0.0000 C   0  0  0  0  0  0  0  0  0  0  0  0
    1.4289   -0.0000    0.0000 C   0  0  0  0  0  0  0  0  0  0  0  0
    0.0000    0.8250    0.0000 C   0  0  0  0  0  0  0  0  0  0  0  0
    0.7145   -0.4125    0.0000 C   0  0  0  0  0  0  0  0  0  0  0  0
    0.7145    2.0625    0.0000 C   0  0  0  0  0  0  0  0  0  0  0  0
    1.4289    2.4750    0.0000 C   0  0  0  0  0  0  0  0  0  0  0  0
    0.0000    2.4750    0.0000 Cl  0  0  0  0  0  0  0  0  0  0  0  0
    1.4289    3.3000    0.0000 Cl  0  0  0  0  0  0  0  0  0  0  0  0
    2.1434    2.0625    0.0000 Cl  0  0  0  0  0  0  0  0  0  0  0  0
    2.1434   -0.4125    0.0000 N   0  0  0  0  0  0  0  0  0  0  0  0
   -1.4289    1.6500    0.0000 N   0  0  0  0  0  0  0  0  0  0  0  0
    0.7145   -2.0625    0.0000 N   0  0  0  0  0  0  0  0  0  0  0  0
   -0.3020    1.9520    0.0000 O   0  0  0  0  0  0  0  0  0  0  0  0
   -1.1270    0.5230    0.0000 O   0  0  0  0  0  0  0  0  0  0  0  0
   -0.1105   -1.2375    0.0000 O   0  0  0  0  0  0  0  0  0  0  0  0
    1.5395   -1.2375    0.0000 O   0  0  0  0  0  0  0  0  0  0  0  0
   -0.7145    1.2375    0.0000 S   0  0  0  0  0  0  0  0  0  0  0  0
    0.7145   -1.2375    0.0000 S   0  0  0  0  0  0  0  0  0  0  0  0
  3  1  2  0  0  0  0
  4  1  1  0  0  0  0
  5  2  2  0  0  0  0
  5  3  1  0  0  0  0
  6  2  1  0  0  0  0
  6  4  2  0  0  0  0
  7  3  1  0  0  0  0
  8  7  2  0  0  0  0
  9  7  1  0  0  0  0
 10  8  1  0  0  0  0
 11  8  1  0  0  0  0
 12  4  1  0  0  0  0
 19  5  1  0  0  0  0
 19 13  1  0  0  0  0
 19 15  2  0  0  0  0
 19 16  2  0  0  0  0
 20  6  1  0  0  0  0
 20 14  1  0  0  0  0
 20 17  2  0  0  0  0
 20 18  2  0  0  0  0
M  END
> <DATABASE_ID>
DB11389

> <DATABASE_NAME>
drugbank

> <SMILES>
NC1=C(C=C(C(=C1)C(Cl)=C(Cl)Cl)S(N)(=O)=O)S(N)(=O)=O

> <INCHI_IDENTIFIER>
InChI=1S/C8H8Cl3N3O4S2/c9-7(8(10)11)3-1-4(12)6(20(14,17)18)2-5(3)19(13,15)16/h1-2H,12H2,(H2,13,15,16)(H2,14,17,18)

> <INCHI_KEY>
QOVTVIYTBRHADL-UHFFFAOYSA-N

> <FORMULA>
C8H8Cl3N3O4S2

> <MOLECULAR_WEIGHT>
380.64

> <EXACT_MASS>
378.9021812

> <JCHEM_ACCEPTOR_COUNT>
5

> <JCHEM_ATOM_COUNT>
28

> <JCHEM_AVERAGE_POLARIZABILITY>
31.030585115642694

> <JCHEM_BIOAVAILABILITY>
1

> <JCHEM_DONOR_COUNT>
3

> <JCHEM_FORMAL_CHARGE>
0

> <JCHEM_GHOSE_FILTER>
1

> <JCHEM_IUPAC>
4-amino-6-(1,2,2-trichloroethenyl)benzene-1,3-disulfonamide

> <ALOGPS_LOGP>
1.24

> <JCHEM_LOGP>
0.001474954666667

> <ALOGPS_LOGS>
-3.65

> <JCHEM_MDDR_LIKE_RULE>
0

> <JCHEM_NUMBER_OF_RINGS>
1

> <JCHEM_PHYSIOLOGICAL_CHARGE>
0

> <JCHEM_PKA>
10.36571720309538

> <JCHEM_PKA_STRONGEST_ACIDIC>
9.608683882586856

> <JCHEM_PKA_STRONGEST_BASIC>
-0.858520275465537

> <JCHEM_POLAR_SURFACE_AREA>
146.33999999999997

> <JCHEM_REFRACTIVITY>
89.87629999999994

> <JCHEM_ROTATABLE_BOND_COUNT>
3

> <JCHEM_RULE_OF_FIVE>
1

> <ALOGPS_SOLUBILITY>
8.60e-02 g/l

> <JCHEM_TRADITIONAL_IUPAC>
4-amino-6-(1,2,2-trichloroethenyl)benzene-1,3-disulfonamide

> <JCHEM_VEBER_RULE>
0

> <DRUGBANK_ID>
DB11389

> <DRUG_GROUPS>
vet_approved

> <GENERIC_NAME>
Clorsulon

> <SYNONYMS>
Clorsulon

$$$$
