
  Mrv1909 11222219452D          

 34 38  0  0  0  0            999 V2000
   -2.8579   -0.0000    0.0000 C   0  0  0  0  0  0  0  0  0  0  0  0
   -2.1434   -0.4125    0.0000 N   0  0  0  0  0  0  0  0  0  0  0  0
   -1.4289   -0.0000    0.0000 C   0  0  0  0  0  0  0  0  0  0  0  0
   -0.7145   -0.4125    0.0000 C   0  0  0  0  0  0  0  0  0  0  0  0
   -0.7145   -1.2375    0.0000 C   0  0  0  0  0  0  0  0  0  0  0  0
   -1.4289   -1.6500    0.0000 C   0  0  0  0  0  0  0  0  0  0  0  0
   -2.1434   -1.2375    0.0000 C   0  0  0  0  0  0  0  0  0  0  0  0
    0.0000   -1.6500    0.0000 N   0  0  0  0  0  0  0  0  0  0  0  0
    0.7145   -1.2375    0.0000 C   0  0  0  0  0  0  0  0  0  0  0  0
    0.7145   -0.4125    0.0000 N   0  0  0  0  0  0  0  0  0  0  0  0
    1.4289    0.0000    0.0000 C   0  0  0  0  0  0  0  0  0  0  0  0
    1.4289    0.8250    0.0000 N   0  0  0  0  0  0  0  0  0  0  0  0
    0.7145    1.2375    0.0000 C   0  0  0  0  0  0  0  0  0  0  0  0
    0.0000    0.8250    0.0000 C   0  0  0  0  0  0  0  0  0  0  0  0
   -0.7145    1.2375    0.0000 C   0  0  0  0  0  0  0  0  0  0  0  0
   -0.7145    2.0625    0.0000 C   0  0  0  0  0  0  0  0  0  0  0  0
   -1.4289    2.4750    0.0000 O   0  0  0  0  0  0  0  0  0  0  0  0
   -1.4289    3.3000    0.0000 C   0  0  0  0  0  0  0  0  0  0  0  0
   -2.1434    3.7125    0.0000 C   0  0  0  0  0  0  0  0  0  0  0  0
   -2.1434    4.5375    0.0000 C   0  0  0  0  0  0  0  0  0  0  0  0
   -1.4289    4.9500    0.0000 C   0  0  0  0  0  0  0  0  0  0  0  0
   -0.7145    4.5375    0.0000 C   0  0  0  0  0  0  0  0  0  0  0  0
   -0.7145    3.7125    0.0000 C   0  0  0  0  0  0  0  0  0  0  0  0
    0.0000    2.4750    0.0000 C   0  0  0  0  0  0  0  0  0  0  0  0
    0.7145    2.0625    0.0000 C   0  0  0  0  0  0  0  0  0  0  0  0
    2.1434   -0.4125    0.0000 C   0  0  0  0  0  0  0  0  0  0  0  0
    2.8579    0.0000    0.0000 C   0  0  0  0  0  0  0  0  0  0  0  0
    2.8579    0.8250    0.0000 O   0  0  0  0  0  0  0  0  0  0  0  0
    3.5724   -0.4125    0.0000 N   0  0  0  0  0  0  0  0  0  0  0  0
    3.5724   -1.2375    0.0000 C   0  0  0  0  0  0  0  0  0  0  0  0
    2.8579   -1.6500    0.0000 C   0  0  0  0  0  0  0  0  0  0  0  0
    2.8579   -2.4750    0.0000 Br  0  0  0  0  0  0  0  0  0  0  0  0
    2.1434   -1.2375    0.0000 C   0  0  0  0  0  0  0  0  0  0  0  0
    1.4289   -1.6500    0.0000 N   0  0  0  0  0  0  0  0  0  0  0  0
  1  2  1  0  0  0  0
  2  3  1  0  0  0  0
  3  4  1  0  0  0  0
  4  5  1  0  0  0  0
  5  6  1  0  0  0  0
  6  7  1  0  0  0  0
  2  7  1  0  0  0  0
  5  8  1  0  0  0  0
  8  9  1  0  0  0  0
  9 10  2  0  0  0  0
 10 11  1  0  0  0  0
 11 12  1  0  0  0  0
 12 13  1  0  0  0  0
 13 14  2  0  0  0  0
 14 15  1  0  0  0  0
 15 16  2  0  0  0  0
 16 17  1  0  0  0  0
 17 18  1  0  0  0  0
 18 19  2  0  0  0  0
 19 20  1  0  0  0  0
 20 21  2  0  0  0  0
 21 22  1  0  0  0  0
 22 23  2  0  0  0  0
 18 23  1  0  0  0  0
 16 24  1  0  0  0  0
 24 25  2  0  0  0  0
 13 25  1  0  0  0  0
 11 26  2  0  0  0  0
 26 27  1  0  0  0  0
 27 28  2  0  0  0  0
 27 29  1  0  0  0  0
 29 30  1  0  0  0  0
 30 31  2  0  0  0  0
 31 32  1  0  0  0  0
 31 33  1  0  0  0  0
 26 33  1  0  0  0  0
 33 34  2  0  0  0  0
  9 34  1  0  0  0  0
M  END
> <DATABASE_ID>
DB17159

> <DATABASE_NAME>
drugbank

> <SMILES>
CN1CCC(CC1)NC1=NC(NC2=CC=C(OC3=CC=CC=C3)C=C2)=C2C(=O)NC=C(Br)C2=N1

> <INCHI_IDENTIFIER>
InChI=1S/C25H25BrN6O2/c1-32-13-11-17(12-14-32)29-25-30-22-20(26)15-27-24(33)21(22)23(31-25)28-16-7-9-19(10-8-16)34-18-5-3-2-4-6-18/h2-10,15,17H,11-14H2,1H3,(H,27,33)(H2,28,29,30,31)

> <INCHI_KEY>
SXWMIXPJPNCXQQ-UHFFFAOYSA-N

> <FORMULA>
C25H25BrN6O2

> <MOLECULAR_WEIGHT>
521.419

> <EXACT_MASS>
520.122237

> <JCHEM_ACCEPTOR_COUNT>
6

> <JCHEM_ATOM_COUNT>
59

> <JCHEM_AVERAGE_NEUTRAL_MICROSPECIES_CHARGE>
2.008304249372923

> <JCHEM_AVERAGE_POLARIZABILITY>
51.72432358728395

> <JCHEM_BIOAVAILABILITY>
0

> <JCHEM_DONOR_COUNT>
3

> <JCHEM_FORMAL_CHARGE>
0

> <JCHEM_GHOSE_FILTER>
0

> <JCHEM_IUPAC>
8-bromo-2-[(1-methylpiperidin-4-yl)amino]-4-[(4-phenoxyphenyl)amino]-5H,6H-pyrido[4,3-d]pyrimidin-5-one

> <ALOGPS_LOGP>
4.70

> <JCHEM_LOGP>
5.118381505666667

> <ALOGPS_LOGS>
-4.59

> <JCHEM_MDDR_LIKE_RULE>
1

> <JCHEM_NEUTRAL_CHARGE>
1

> <JCHEM_NUMBER_OF_RINGS>
5

> <JCHEM_PHYSIOLOGICAL_CHARGE>
1

> <JCHEM_PKA>
15.232944088505135

> <JCHEM_PKA_STRONGEST_ACIDIC>
11.243781883950636

> <JCHEM_PKA_STRONGEST_BASIC>
8.444160365556181

> <JCHEM_POLAR_SURFACE_AREA>
91.41000000000001

> <JCHEM_REFRACTIVITY>
137.8937

> <JCHEM_ROTATABLE_BOND_COUNT>
6

> <JCHEM_RULE_OF_FIVE>
0

> <ALOGPS_SOLUBILITY>
1.33e-02 g/l

> <JCHEM_TRADITIONAL_IUPAC>
8-bromo-2-[(1-methylpiperidin-4-yl)amino]-4-[(4-phenoxyphenyl)amino]-6H-pyrido[4,3-d]pyrimidin-5-one

> <JCHEM_VEBER_RULE>
0

> <DRUGBANK_ID>
DB17159

> <DRUG_GROUPS>
investigational

> <GENERIC_NAME>
Denfivontinib

> <SYNONYMS>
8-Bromo-2-((1-methylpiperidin-4-yl)amino)-4-((4-phenoxyphenyl)amino)pyrido[4,3-D]pyrimidin-5(6H)-one; 8-bromo-2-[(1-methylpiperidin-4-yl)amino]-4-(4-phenoxyanilino)-6H-pyrido[4,3-d]pyrimidin-5-one; G-749

> <SALTS>
Denfivontinib hydrochloride

$$$$
