
  Mrv1909 02092016332D          

 27 30  0  0  0  0            999 V2000
    4.6906   -0.8351    0.0000 C   0  0  0  0  0  0  0  0  0  0  0  0
    4.4360   -0.0513    0.0000 C   0  0  0  0  0  0  0  0  0  0  0  0
    3.6467    0.2051    0.0000 C   0  0  0  0  0  0  0  0  0  0  0  0
    3.6467    1.0349    0.0000 C   0  0  0  0  0  0  0  0  0  0  0  0
    4.4360    1.2913    0.0000 N   0  0  0  0  0  0  0  0  0  0  0  0
    4.9237    0.6199    0.0000 N   0  0  0  0  0  0  0  0  0  0  0  0
    2.9314    1.4534    0.0000 C   0  0  0  0  0  0  0  0  0  0  0  0
    2.2162    1.0349    0.0000 C   0  0  0  0  0  0  0  0  0  0  0  0
    2.2162    0.2062    0.0000 C   0  0  0  0  0  0  0  0  0  0  0  0
    2.9314   -0.2041    0.0000 C   0  0  0  0  0  0  0  0  0  0  0  0
    1.5032   -0.2069    0.0000 C   0  0  0  0  0  0  0  0  0  0  0  0
    0.7883    0.2031    0.0000 C   0  0  0  0  0  0  0  0  0  0  0  0
    0.0735   -0.2068    0.0000 C   0  0  0  0  0  0  0  0  0  0  0  0
    0.0735   -1.0351    0.0000 C   0  0  0  0  0  0  0  0  0  0  0  0
    0.7881   -1.4534    0.0000 N   0  0  0  0  0  0  0  0  0  0  0  0
    1.5032   -1.0352    0.0000 C   0  0  0  0  0  0  0  0  0  0  0  0
   -0.6395    0.2062    0.0000 O   0  0  0  0  0  0  0  0  0  0  0  0
   -1.3537   -0.2046    0.0000 C   0  0  0  0  0  0  0  0  0  0  0  0
   -2.0668    0.2084    0.0000 C   0  0  1  0  0  0  0  0  0  0  0  0
   -2.0668    1.0324    0.0000 N   0  0  0  0  0  0  0  0  0  0  0  0
   -2.7810   -0.2025    0.0000 C   0  0  0  0  0  0  0  0  0  0  0  0
   -3.4940    0.2105    0.0000 C   0  0  0  0  0  0  0  0  0  0  0  0
   -3.4940    1.0389    0.0000 C   0  0  0  0  0  0  0  0  0  0  0  0
   -4.2106    1.4476    0.0000 C   0  0  0  0  0  0  0  0  0  0  0  0
   -4.9237    1.0325    0.0000 C   0  0  0  0  0  0  0  0  0  0  0  0
   -4.9237    0.2084    0.0000 C   0  0  0  0  0  0  0  0  0  0  0  0
   -4.2107   -0.2046    0.0000 C   0  0  0  0  0  0  0  0  0  0  0  0
  1  2  1  0  0  0  0
  2  3  1  0  0  0  0
  4  3  2  0  0  0  0
  5  4  1  0  0  0  0
  2  6  2  0  0  0  0
  6  5  1  0  0  0  0
  4  7  1  0  0  0  0
  7  8  2  0  0  0  0
  8  9  1  0  0  0  0
  9 10  2  0  0  0  0
 10  3  1  0  0  0  0
  9 11  1  0  0  0  0
 11 12  2  0  0  0  0
 13 12  1  0  0  0  0
 14 13  2  0  0  0  0
 15 14  1  0  0  0  0
 11 16  1  0  0  0  0
 16 15  2  0  0  0  0
 13 17  1  0  0  0  0
 17 18  1  0  0  0  0
 18 19  1  0  0  0  0
 19 20  1  6  0  0  0
 19 21  1  0  0  0  0
 21 22  1  0  0  0  0
 22 23  2  0  0  0  0
 24 23  1  0  0  0  0
 25 24  2  0  0  0  0
 26 25  1  0  0  0  0
 22 27  1  0  0  0  0
 27 26  2  0  0  0  0
M  END
> <DATABASE_ID>
DB08568

> <DATABASE_NAME>
drugbank

> <SMILES>
CC1=NNC2=C1C=C(C=C2)C1=CC(OC[C@@H](N)CC2=CC=CC=C2)=CN=C1

> <INCHI_IDENTIFIER>
InChI=1S/C22H22N4O/c1-15-21-11-17(7-8-22(21)26-25-15)18-10-20(13-24-12-18)27-14-19(23)9-16-5-3-2-4-6-16/h2-8,10-13,19H,9,14,23H2,1H3,(H,25,26)/t19-/m0/s1

> <INCHI_KEY>
BPNUQXPIQBZCMR-IBGZPJMESA-N

> <FORMULA>
C22H22N4O

> <MOLECULAR_WEIGHT>
358.4363

> <EXACT_MASS>
358.179361346

> <JCHEM_ACCEPTOR_COUNT>
4

> <JCHEM_ATOM_COUNT>
49

> <JCHEM_AVERAGE_NEUTRAL_MICROSPECIES_CHARGE>
0.9972674265995687

> <JCHEM_AVERAGE_POLARIZABILITY>
40.350207233082656

> <JCHEM_BIOAVAILABILITY>
1

> <JCHEM_DONOR_COUNT>
2

> <JCHEM_FORMAL_CHARGE>
0

> <JCHEM_GHOSE_FILTER>
1

> <JCHEM_IUPAC>
(2S)-1-{[5-(3-methyl-1H-indazol-5-yl)pyridin-3-yl]oxy}-3-phenylpropan-2-amine

> <ALOGPS_LOGP>
3.39

> <JCHEM_LOGP>
2.9754771103333324

> <ALOGPS_LOGS>
-5.43

> <JCHEM_MDDR_LIKE_RULE>
1

> <JCHEM_NEUTRAL_CHARGE>
1

> <JCHEM_NUMBER_OF_RINGS>
4

> <JCHEM_PHYSIOLOGICAL_CHARGE>
1

> <JCHEM_PKA_STRONGEST_ACIDIC>
14.173014537900213

> <JCHEM_PKA_STRONGEST_BASIC>
9.285642103517059

> <JCHEM_POLAR_SURFACE_AREA>
76.82

> <JCHEM_REFRACTIVITY>
107.0947

> <JCHEM_ROTATABLE_BOND_COUNT>
6

> <JCHEM_RULE_OF_FIVE>
1

> <ALOGPS_SOLUBILITY>
1.35e-03 g/l

> <JCHEM_TRADITIONAL_IUPAC>
6-(2,6-dichlorophenyl)-2-{[3-(hydroxymethyl)phenyl]amino}-8-methylpyrido[2,3-d]pyrimidin-7-one

> <JCHEM_VEBER_RULE>
0

> <DRUGBANK_ID>
DB08568

> <DRUG_GROUPS>
experimental

> <GENERIC_NAME>
A-674563

> <SYNONYMS>
(alphaS)-alpha-(((5-(3-Methyl-1H-indazol-5-yl)-3-pyridinyl)oxy)methyl)benzeneethanamine

$$$$
