
  Mrv1909 05201914562D          

 41 45  0  0  1  0            999 V2000
   -4.8933   -3.2027    0.0000 C   0  0  0  0  0  0  0  0  0  0  0  0
   -4.2613   -3.7330    0.0000 C   0  0  2  0  0  0  0  0  0  0  0  0
   -3.4608   -3.5334    0.0000 C   0  0  0  0  0  0  0  0  0  0  0  0
   -3.0236   -4.2330    0.0000 N   0  0  0  0  0  0  0  0  0  0  0  0
   -2.2006   -4.2906    0.0000 C   0  0  0  0  0  0  0  0  0  0  0  0
   -1.7393   -3.6066    0.0000 C   0  0  0  0  0  0  0  0  0  0  0  0
   -0.9163   -3.6642    0.0000 C   0  0  0  0  0  0  0  0  0  0  0  0
   -0.5546   -4.4057    0.0000 C   0  0  0  0  0  0  0  0  0  0  0  0
   -1.0160   -5.0896    0.0000 C   0  0  0  0  0  0  0  0  0  0  0  0
   -1.8390   -5.0321    0.0000 N   0  0  0  0  0  0  0  0  0  0  0  0
   -0.6543   -5.8311    0.0000 N   0  0  0  0  0  0  0  0  0  0  0  0
    0.1581   -5.9744    0.0000 C   0  0  0  0  0  0  0  0  0  0  0  0
    0.2730   -6.7914    0.0000 C   0  0  0  0  0  0  0  0  0  0  0  0
   -0.4685   -7.1530    0.0000 C   0  0  0  0  0  0  0  0  0  0  0  0
   -0.6118   -7.9655    0.0000 O   0  0  0  0  0  0  0  0  0  0  0  0
    0.0202   -8.4958    0.0000 C   0  0  0  0  0  0  0  0  0  0  0  0
   -0.1231   -9.3083    0.0000 C   0  0  0  0  0  0  0  0  0  0  0  0
    0.5089   -9.8386    0.0000 C   0  0  0  0  0  0  0  0  0  0  0  0
    0.9214  -10.5530    0.0000 C   0  0  0  0  0  0  0  0  0  0  0  0
    0.0964  -10.5530    0.0000 C   0  0  0  0  0  0  0  0  0  0  0  0
    1.1409   -9.3083    0.0000 C   0  0  0  0  0  0  0  0  0  0  0  0
    1.7729   -8.7780    0.0000 F   0  0  0  0  0  0  0  0  0  0  0  0
    0.6106   -8.6763    0.0000 F   0  0  0  0  0  0  0  0  0  0  0  0
    1.6712   -9.9403    0.0000 F   0  0  0  0  0  0  0  0  0  0  0  0
   -1.0416   -6.5596    0.0000 N   0  0  0  0  0  0  0  0  0  0  0  0
   -2.1009   -2.8651    0.0000 C   0  0  0  0  0  0  0  0  0  0  0  0
   -1.6396   -2.1812    0.0000 O   0  0  0  0  0  0  0  0  0  0  0  0
   -2.9239   -2.8076    0.0000 N   0  0  0  0  0  0  0  0  0  0  0  0
   -3.2856   -2.0661    0.0000 S   0  0  0  0  0  0  0  0  0  0  0  0
   -2.5441   -1.7044    0.0000 O   0  0  0  0  0  0  0  0  0  0  0  0
   -4.0271   -2.4277    0.0000 O   0  0  0  0  0  0  0  0  0  0  0  0
   -3.6473   -1.3246    0.0000 C   0  0  0  0  0  0  0  0  0  0  0  0
   -4.4702   -1.2670    0.0000 C   0  0  0  0  0  0  0  0  0  0  0  0
   -4.8319   -0.5255    0.0000 C   0  0  0  0  0  0  0  0  0  0  0  0
   -4.3706    0.1584    0.0000 C   0  0  0  0  0  0  0  0  0  0  0  0
   -3.5476    0.1009    0.0000 C   0  0  0  0  0  0  0  0  0  0  0  0
   -3.1859   -0.6406    0.0000 C   0  0  0  0  0  0  0  0  0  0  0  0
   -3.5539   -4.8650    0.0000 C   0  0  0  0  0  0  0  0  0  0  0  0
   -2.8700   -5.3264    0.0000 C   0  0  0  0  0  0  0  0  0  0  0  0
   -3.9412   -5.5935    0.0000 C   0  0  0  0  0  0  0  0  0  0  0  0
   -4.3188   -4.5560    0.0000 C   0  0  0  0  0  0  0  0  0  0  0  0
  2  1  1  6  0  0  0
  2  3  1  0  0  0  0
  3  4  1  0  0  0  0
  4  5  1  0  0  0  0
  5  6  2  0  0  0  0
  6  7  1  0  0  0  0
  7  8  2  0  0  0  0
  8  9  1  0  0  0  0
  9 10  2  0  0  0  0
  5 10  1  0  0  0  0
  9 11  1  0  0  0  0
 11 12  1  0  0  0  0
 12 13  2  0  0  0  0
 13 14  1  0  0  0  0
 14 15  1  0  0  0  0
 15 16  1  0  0  0  0
 16 17  1  0  0  0  0
 17 18  1  0  0  0  0
 18 19  1  0  0  0  0
 19 20  1  0  0  0  0
 18 20  1  0  0  0  0
 18 21  1  0  0  0  0
 21 22  1  0  0  0  0
 21 23  1  0  0  0  0
 21 24  1  0  0  0  0
 14 25  2  0  0  0  0
 11 25  1  0  0  0  0
  6 26  1  0  0  0  0
 26 27  2  0  0  0  0
 26 28  1  0  0  0  0
 28 29  1  0  0  0  0
 29 30  2  0  0  0  0
 29 31  2  0  0  0  0
 29 32  1  0  0  0  0
 32 33  2  0  0  0  0
 33 34  1  0  0  0  0
 34 35  2  0  0  0  0
 35 36  1  0  0  0  0
 36 37  2  0  0  0  0
 32 37  1  0  0  0  0
  4 38  1  0  0  0  0
 38 39  1  0  0  0  0
 38 40  1  0  0  0  0
 38 41  1  0  0  0  0
  2 41  1  0  0  0  0
M  END
> <DATABASE_ID>
DB15177

> <DATABASE_NAME>
drugbank

> <SMILES>
C[C@@H]1CN(C2=C(C=CC(=N2)N2C=CC(OCCC3(CC3)C(F)(F)F)=N2)C(=O)NS(=O)(=O)C2=CC=CC=C2)C(C)(C)C1

> <INCHI_IDENTIFIER>
InChI=1S/C28H32F3N5O4S/c1-19-17-26(2,3)35(18-19)24-21(25(37)34-41(38,39)20-7-5-4-6-8-20)9-10-22(32-24)36-15-11-23(33-36)40-16-14-27(12-13-27)28(29,30)31/h4-11,15,19H,12-14,16-18H2,1-3H3,(H,34,37)/t19-/m0/s1

> <INCHI_KEY>
IGEOJNMYRZUKIK-IBGZPJMESA-N

> <FORMULA>
C28H32F3N5O4S

> <MOLECULAR_WEIGHT>
591.65

> <EXACT_MASS>
591.212710193

> <JCHEM_ACCEPTOR_COUNT>
7

> <JCHEM_ATOM_COUNT>
73

> <JCHEM_AVERAGE_POLARIZABILITY>
60.41672380321539

> <JCHEM_BIOAVAILABILITY>
0

> <JCHEM_DONOR_COUNT>
1

> <JCHEM_FORMAL_CHARGE>
0

> <JCHEM_GHOSE_FILTER>
0

> <JCHEM_IUPAC>
N-(benzenesulfonyl)-6-(3-{2-[1-(trifluoromethyl)cyclopropyl]ethoxy}-1H-pyrazol-1-yl)-2-[(4S)-2,2,4-trimethylpyrrolidin-1-yl]pyridine-3-carboxamide

> <ALOGPS_LOGP>
4.81

> <JCHEM_LOGP>
6.303538998666667

> <ALOGPS_LOGS>
-5.49

> <JCHEM_MDDR_LIKE_RULE>
1

> <JCHEM_NUMBER_OF_RINGS>
5

> <JCHEM_PHYSIOLOGICAL_CHARGE>
-1

> <JCHEM_PKA_STRONGEST_ACIDIC>
4.207994052682977

> <JCHEM_PKA_STRONGEST_BASIC>
1.309144982709569

> <JCHEM_POLAR_SURFACE_AREA>
106.41999999999999

> <JCHEM_REFRACTIVITY>
149.5866

> <JCHEM_ROTATABLE_BOND_COUNT>
9

> <JCHEM_RULE_OF_FIVE>
0

> <ALOGPS_SOLUBILITY>
1.93e-03 g/l

> <JCHEM_TRADITIONAL_IUPAC>
(2R)-14-fluoro-2-methyl-6,9,10,19-tetraazapentacyclo[14.2.1.0^{2,6}.0^{8,18}.0^{12,17}]nonadeca-1(18),8,12(17),13,15-pentaen-11-one

> <JCHEM_VEBER_RULE>
0

> <DRUGBANK_ID>
DB15177

> <DRUG_GROUPS>
investigational

> <GENERIC_NAME>
VX-659

$$$$
