
  Mrv1652306131722032D          

 15 14  0  0  0  0            999 V2000
    0.7145   -0.4125    0.0000 C   0  0  0  0  0  0  0  0  0  0  0  0
   -0.0000    0.0000    0.0000 C   0  0  0  0  0  0  0  0  0  0  0  0
   -0.0000    0.8250    0.0000 C   0  0  0  0  0  0  0  0  0  0  0  0
    0.7145    1.2375    0.0000 C   0  0  0  0  0  0  0  0  0  0  0  0
    1.4289    0.8250    0.0000 C   0  0  0  0  0  0  0  0  0  0  0  0
    1.4289    0.0000    0.0000 C   0  0  0  0  0  0  0  0  0  0  0  0
    2.1434    1.2375    0.0000 C   0  0  0  0  0  0  0  0  0  0  0  0
    2.1434    2.0625    0.0000 O   0  0  0  0  0  0  0  0  0  0  0  0
    2.8579    0.8250    0.0000 N   0  0  0  0  0  0  0  0  0  0  0  0
    3.5724    1.2375    0.0000 C   0  0  0  0  0  0  0  0  0  0  0  0
    4.2868    0.8250    0.0000 C   0  0  0  0  0  0  0  0  0  0  0  0
    4.2868    0.0000    0.0000 O   0  0  0  0  0  0  0  0  0  0  0  0
    5.0013    1.2375    0.0000 O   0  5  0  0  0  0  0  0  0  0  0  0
    0.7145    2.0625    0.0000 I   0  0  0  0  0  0  0  0  0  0  0  0
    5.7158    1.6500    0.0000 Na  0  3  0  0  0  0  0  0  0  0  0  0
  1  2  2  0  0  0  0
  2  3  1  0  0  0  0
  3  4  2  0  0  0  0
  4  5  1  0  0  0  0
  5  6  2  0  0  0  0
  1  6  1  0  0  0  0
  5  7  1  0  0  0  0
  7  8  2  0  0  0  0
  7  9  1  0  0  0  0
  9 10  1  0  0  0  0
 10 11  1  0  0  0  0
 11 12  2  0  0  0  0
 11 13  1  0  0  0  0
  4 14  1  0  0  0  0
M  CHG  2  13  -1  15   1
M  ISO  1  14 123
M  END
> <DATABASE_ID>
DB09448

> <DATABASE_NAME>
drugbank

> <SMILES>
[Na+].[O-]C(=O)CNC(=O)C1=CC=CC=C1[123I]

> <INCHI_IDENTIFIER>
InChI=1S/C9H8INO3.Na/c10-7-4-2-1-3-6(7)9(14)11-5-8(12)13;/h1-4H,5H2,(H,11,14)(H,12,13);/q;+1/p-1/i10-4;

> <INCHI_KEY>
XYITYKDGJLHYPW-TWDNZPFZSA-M

> <FORMULA>
C9H7INNaO3

> <MOLECULAR_WEIGHT>
323.054

> <EXACT_MASS>
322.93796031

> <JCHEM_ACCEPTOR_COUNT>
3

> <JCHEM_ATOM_COUNT>
22

> <JCHEM_AVERAGE_POLARIZABILITY>
22.443373503247287

> <JCHEM_BIOAVAILABILITY>
1

> <JCHEM_DONOR_COUNT>
1

> <JCHEM_FORMAL_CHARGE>
0

> <JCHEM_GHOSE_FILTER>
1

> <JCHEM_IUPAC>
sodium 2-{[2-(¹²³I)iodophenyl]formamido}acetate

> <ALOGPS_LOGP>
1.51

> <JCHEM_LOGP>
1.4544899626666665

> <ALOGPS_LOGS>
-3.00

> <JCHEM_MDDR_LIKE_RULE>
0

> <JCHEM_NUMBER_OF_RINGS>
1

> <JCHEM_PHYSIOLOGICAL_CHARGE>
-1

> <JCHEM_PKA>
13.605831588811064

> <JCHEM_PKA_STRONGEST_ACIDIC>
2.6524442101532038

> <JCHEM_PKA_STRONGEST_BASIC>
-1.668005781421769

> <JCHEM_POLAR_SURFACE_AREA>
69.23

> <JCHEM_REFRACTIVITY>
70.3173

> <JCHEM_ROTATABLE_BOND_COUNT>
3

> <JCHEM_RULE_OF_FIVE>
1

> <ALOGPS_SOLUBILITY>
3.24e-01 g/l

> <JCHEM_TRADITIONAL_IUPAC>
sodium {[2-(¹²³I)iodophenyl]formamido}acetate

> <JCHEM_VEBER_RULE>
0

> <DRUGBANK_ID>
DB09448

> <DRUG_GROUPS>
approved

> <GENERIC_NAME>
Iodohippurate sodium I-123

> <SYNONYMS>
Sodium iodohippurate (123 I); sodium iodohippurate (123I)

$$$$
