
  Mrv1652306131721582D          

 32 34  0  0  0  0            999 V2000
    1.4289   -3.3000    0.0000 C   0  0  0  0  0  0  0  0  0  0  0  0
    2.1434   -2.8875    0.0000 N   0  3  0  0  0  0  0  0  0  0  0  0
    2.5559   -3.6020    0.0000 C   0  0  0  0  0  0  0  0  0  0  0  0
    2.8579   -2.4750    0.0000 C   0  0  0  0  0  0  0  0  0  0  0  0
    2.8579   -1.6500    0.0000 C   0  0  0  0  0  0  0  0  0  0  0  0
    3.5724   -1.2375    0.0000 N   0  0  0  0  0  0  0  0  0  0  0  0
    3.5724   -0.4125    0.0000 C   0  0  0  0  0  0  0  0  0  0  0  0
    4.2868    0.0000    0.0000 C   0  0  0  0  0  0  0  0  0  0  0  0
    4.2868    0.8250    0.0000 C   0  0  0  0  0  0  0  0  0  0  0  0
    3.5724    1.2375    0.0000 C   0  0  0  0  0  0  0  0  0  0  0  0
    2.8579    0.8250    0.0000 C   0  0  0  0  0  0  0  0  0  0  0  0
    2.8579   -0.0000    0.0000 C   0  0  0  0  0  0  0  0  0  0  0  0
    2.1434   -0.4125    0.0000 C   0  0  0  0  0  0  0  0  0  0  0  0
    2.1434   -1.2375    0.0000 O   0  0  0  0  0  0  0  0  0  0  0  0
    1.4289   -0.0000    0.0000 C   0  0  0  0  0  0  0  0  0  0  0  0
    0.7145   -0.4125    0.0000 C   0  0  0  0  0  0  0  0  0  0  0  0
   -0.0000    0.0000    0.0000 C   0  0  0  0  0  0  0  0  0  0  0  0
    0.0000    0.8250    0.0000 C   0  0  0  0  0  0  0  0  0  0  0  0
    0.7145    1.2375    0.0000 C   0  0  0  0  0  0  0  0  0  0  0  0
    1.4289    0.8250    0.0000 C   0  0  0  0  0  0  0  0  0  0  0  0
    2.1434    1.2375    0.0000 C   0  0  0  0  0  0  0  0  0  0  0  0
    2.1434    2.0625    0.0000 O   0  0  0  0  0  0  0  0  0  0  0  0
    0.7145    2.0625    0.0000 O   0  0  0  0  0  0  0  0  0  0  0  0
    0.7145   -1.2375    0.0000 O   0  0  0  0  0  0  0  0  0  0  0  0
    3.5724    2.0625    0.0000 N   0  0  0  0  0  0  0  0  0  0  0  0
    2.8579    2.4750    0.0000 C   0  0  0  0  0  0  0  0  0  0  0  0
    2.8579    3.3000    0.0000 C   0  0  0  0  0  0  0  0  0  0  0  0
    2.1434    3.7125    0.0000 N   0  3  0  0  0  0  0  0  0  0  0  0
    1.4289    4.1250    0.0000 C   0  0  0  0  0  0  0  0  0  0  0  0
    2.5559    4.4270    0.0000 C   0  0  0  0  0  0  0  0  0  0  0  0
    1.7309    2.9980    0.0000 O   0  5  0  0  0  0  0  0  0  0  0  0
    1.7309   -2.1730    0.0000 O   0  5  0  0  0  0  0  0  0  0  0  0
  1  2  1  0  0  0  0
  2  3  1  0  0  0  0
  2  4  1  0  0  0  0
  4  5  1  0  0  0  0
  5  6  1  0  0  0  0
  6  7  1  0  0  0  0
  7  8  2  0  0  0  0
  8  9  1  0  0  0  0
  9 10  2  0  0  0  0
 10 11  1  0  0  0  0
 11 12  2  0  0  0  0
  7 12  1  0  0  0  0
 12 13  1  0  0  0  0
 13 14  2  0  0  0  0
 13 15  1  0  0  0  0
 15 16  2  0  0  0  0
 16 17  1  0  0  0  0
 17 18  2  0  0  0  0
 18 19  1  0  0  0  0
 19 20  2  0  0  0  0
 15 20  1  0  0  0  0
 20 21  1  0  0  0  0
 11 21  1  0  0  0  0
 21 22  2  0  0  0  0
 19 23  1  0  0  0  0
 16 24  1  0  0  0  0
 10 25  1  0  0  0  0
 25 26  1  0  0  0  0
 26 27  1  0  0  0  0
 27 28  1  0  0  0  0
 28 29  1  0  0  0  0
 28 30  1  0  0  0  0
 28 31  1  0  0  0  0
  2 32  1  0  0  0  0
M  CHG  4   2   1  28   1  31  -1  32  -1
M  END
> <DATABASE_ID>
DB04975

> <DATABASE_NAME>
drugbank

> <SMILES>
C[N+](C)([O-])CCNC1=CC=C(NCC[N+](C)(C)[O-])C2=C1C(=O)C1=C(O)C=CC(O)=C1C2=O

> <INCHI_IDENTIFIER>
InChI=1S/C22H28N4O6/c1-25(2,31)11-9-23-13-5-6-14(24-10-12-26(3,4)32)18-17(13)21(29)19-15(27)7-8-16(28)20(19)22(18)30/h5-8,23-24,27-28H,9-12H2,1-4H3

> <INCHI_KEY>
YZBAXVICWUUHGG-UHFFFAOYSA-N

> <FORMULA>
C22H28N4O6

> <MOLECULAR_WEIGHT>
444.488

> <EXACT_MASS>
444.200884638

> <JCHEM_ACCEPTOR_COUNT>
8

> <JCHEM_ATOM_COUNT>
60

> <JCHEM_AVERAGE_POLARIZABILITY>
46.65912824019285

> <JCHEM_BIOAVAILABILITY>
1

> <JCHEM_DONOR_COUNT>
4

> <JCHEM_FORMAL_CHARGE>
0

> <JCHEM_GHOSE_FILTER>
1

> <JCHEM_IUPAC>
2-[(4-{[2-(dimethyl-oxo-$l^{5}-azanyl)ethyl]amino}-5,8-dihydroxy-9,10-dioxo-9,10-dihydroanthracen-1-yl)amino]-N,N-dimethylethanamine oxide

> <ALOGPS_LOGP>
0.26

> <JCHEM_LOGP>
1.6456703639999999

> <ALOGPS_LOGS>
-4.47

> <JCHEM_MDDR_LIKE_RULE>
1

> <JCHEM_NUMBER_OF_RINGS>
3

> <JCHEM_PHYSIOLOGICAL_CHARGE>
0

> <JCHEM_PKA>
10.24096343981483

> <JCHEM_PKA_STRONGEST_ACIDIC>
8.45354983722932

> <JCHEM_PKA_STRONGEST_BASIC>
4.600967057891467

> <JCHEM_POLAR_SURFACE_AREA>
144.78

> <JCHEM_REFRACTIVITY>
125.62839999999997

> <JCHEM_ROTATABLE_BOND_COUNT>
8

> <JCHEM_RULE_OF_FIVE>
1

> <ALOGPS_SOLUBILITY>
1.51e-02 g/l

> <JCHEM_TRADITIONAL_IUPAC>
2-[(4-{[2-(dimethyl-oxo-$l^{5}-azanyl)ethyl]amino}-5,8-dihydroxy-9,10-dioxoanthracen-1-yl)amino]-N,N-dimethylethanamine oxide

> <JCHEM_VEBER_RULE>
0

> <DRUGBANK_ID>
DB04975

> <DRUG_GROUPS>
investigational

> <GENERIC_NAME>
Banoxantrone

> <SYNONYMS>
Banoxantrone

$$$$
