
  Mrv1652306031607282D          

 28 31  0  0  0  0            999 V2000
   -0.1712   -0.6979    0.0000 C   0  0  0  0  0  0  0  0  0  0  0  0
    4.7812   -0.2854    0.0000 C   0  0  0  0  0  0  0  0  0  0  0  0
    4.7812   -1.1104    0.0000 C   0  0  0  0  0  0  0  0  0  0  0  0
   -0.0938    6.0749    0.0000 C   0  0  0  0  0  0  0  0  0  0  0  0
   -0.6459    5.4618    0.0000 C   0  0  0  0  0  0  0  0  0  0  0  0
    0.7132    5.9034    0.0000 C   0  0  0  0  0  0  0  0  0  0  0  0
   -0.3909    4.6772    0.0000 C   0  0  0  0  0  0  0  0  0  0  0  0
    0.9681    5.1188    0.0000 C   0  0  0  0  0  0  0  0  0  0  0  0
    0.8838    0.7541    0.0000 C   0  0  0  0  0  0  0  0  0  0  0  0
    1.4358    1.3672    0.0000 C   0  0  0  0  0  0  0  0  0  0  0  0
    1.7329    2.7649    0.0000 C   0  0  0  0  0  0  0  0  0  0  0  0
    0.3739    2.3234    0.0000 C   0  0  0  0  0  0  0  0  0  0  0  0
    1.4780    3.5496    0.0000 C   0  0  0  0  0  0  0  0  0  0  0  0
    0.1190    3.1080    0.0000 C   0  0  0  0  0  0  0  0  0  0  0  0
    2.6378    0.1271    0.0000 C   0  0  0  0  0  0  0  0  0  0  0  0
    2.6378   -1.5229    0.0000 C   0  0  0  0  0  0  0  0  0  0  0  0
    0.6538   -0.6979    0.0000 C   0  0  0  0  0  0  0  0  0  0  0  0
    0.4161    4.5057    0.0000 C   0  0  0  0  0  0  0  0  0  0  0  0
    1.1387   -0.0305    0.0000 C   0  0  0  0  0  0  0  0  0  0  0  0
    1.9233   -0.2854    0.0000 C   0  0  0  0  0  0  0  0  0  0  0  0
    1.9233   -1.1104    0.0000 C   0  0  0  0  0  0  0  0  0  0  0  0
    3.3523   -0.2854    0.0000 C   0  0  0  0  0  0  0  0  0  0  0  0
    3.3523   -1.1104    0.0000 C   0  0  0  0  0  0  0  0  0  0  0  0
    1.1387   -1.3654    0.0000 N   0  0  0  0  0  0  0  0  0  0  0  0
    1.1809    2.1518    0.0000 N   0  0  0  0  0  0  0  0  0  0  0  0
    0.6710    3.7211    0.0000 N   0  0  0  0  0  0  0  0  0  0  0  0
    4.0668    0.1271    0.0000 O   0  0  0  0  0  0  0  0  0  0  0  0
    4.0668   -1.5229    0.0000 O   0  0  0  0  0  0  0  0  0  0  0  0
  5  4  2  0  0  0  0
  6  4  1  0  0  0  0
  7  5  1  0  0  0  0
  8  6  2  0  0  0  0
 10  9  1  0  0  0  0
 13 11  1  0  0  0  0
 14 12  1  0  0  0  0
 17  1  1  0  0  0  0
 18  7  2  0  0  0  0
 18  8  1  0  0  0  0
 19  9  1  0  0  0  0
 19 17  2  0  0  0  0
 20 15  2  0  0  0  0
 20 19  1  0  0  0  0
 21 16  2  0  0  0  0
 21 20  1  0  0  0  0
 22 15  1  0  0  0  0
 23 16  1  0  0  0  0
 23 22  2  0  0  0  0
 24 17  1  0  0  0  0
 24 21  1  0  0  0  0
 25 10  1  0  0  0  0
 25 11  1  0  0  0  0
 25 12  1  0  0  0  0
 26 13  1  0  0  0  0
 26 14  1  0  0  0  0
 26 18  1  0  0  0  0
 27  2  1  0  0  0  0
 27 22  1  0  0  0  0
 28  3  1  0  0  0  0
 28 23  1  0  0  0  0
M  END
> <DATABASE_ID>
DB13403

> <DATABASE_NAME>
drugbank

> <SMILES>
COC1=C(OC)C=C2C(NC(C)=C2CCN2CCN(CC2)C2=CC=CC=C2)=C1

> <INCHI_IDENTIFIER>
InChI=1S/C23H29N3O2/c1-17-19(20-15-22(27-2)23(28-3)16-21(20)24-17)9-10-25-11-13-26(14-12-25)18-7-5-4-6-8-18/h4-8,15-16,24H,9-14H2,1-3H3

> <INCHI_KEY>
XCWPUUGSGHNIDZ-UHFFFAOYSA-N

> <FORMULA>
C23H29N3O2

> <MOLECULAR_WEIGHT>
379.504

> <EXACT_MASS>
379.225977186

> <JCHEM_ACCEPTOR_COUNT>
4

> <JCHEM_ATOM_COUNT>
57

> <JCHEM_AVERAGE_POLARIZABILITY>
44.73579748448526

> <JCHEM_BIOAVAILABILITY>
1

> <JCHEM_DONOR_COUNT>
1

> <JCHEM_FORMAL_CHARGE>
0

> <JCHEM_GHOSE_FILTER>
1

> <JCHEM_IUPAC>
5,6-dimethoxy-2-methyl-3-[2-(4-phenylpiperazin-1-yl)ethyl]-1H-indole

> <ALOGPS_LOGP>
4.34

> <JCHEM_LOGP>
3.924524360666666

> <ALOGPS_LOGS>
-4.04

> <JCHEM_MDDR_LIKE_RULE>
1

> <JCHEM_NUMBER_OF_RINGS>
4

> <JCHEM_PHYSIOLOGICAL_CHARGE>
1

> <JCHEM_PKA_STRONGEST_ACIDIC>
17.50787662936742

> <JCHEM_PKA_STRONGEST_BASIC>
8.507515473642622

> <JCHEM_POLAR_SURFACE_AREA>
40.730000000000004

> <JCHEM_REFRACTIVITY>
115.0669

> <JCHEM_ROTATABLE_BOND_COUNT>
6

> <JCHEM_RULE_OF_FIVE>
1

> <ALOGPS_SOLUBILITY>
3.49e-02 g/l

> <JCHEM_TRADITIONAL_IUPAC>
forit

> <JCHEM_VEBER_RULE>
0

> <DRUGBANK_ID>
DB13403

> <DRUG_GROUPS>
experimental

> <GENERIC_NAME>
Oxypertine

> <SYNONYMS>
Oxypertine

$$$$
