
  Mrv1909 02232022462D          

 10 10  0  0  0  0            999 V2000
   -0.3572   -0.4125    0.0000 C   0  0  0  0  0  0  0  0  0  0  0  0
   -1.0717   -0.8250    0.0000 C   0  0  0  0  0  0  0  0  0  0  0  0
   -0.3572    0.4125    0.0000 C   0  0  0  0  0  0  0  0  0  0  0  0
   -1.7861   -0.4125    0.0000 C   0  0  0  0  0  0  0  0  0  0  0  0
   -1.0717    0.8250    0.0000 C   0  0  0  0  0  0  0  0  0  0  0  0
   -1.7861    0.4125    0.0000 C   0  0  0  0  0  0  0  0  0  0  0  0
    0.3572    0.8250    0.0000 N   0  0  0  0  0  0  0  0  0  0  0  0
    1.0716    0.4125    0.0000 C   0  0  0  0  0  0  0  0  0  0  0  0
    1.0716   -0.4125    0.0000 O   0  0  0  0  0  0  0  0  0  0  0  0
    1.7861    0.8250    0.0000 H   0  0  0  0  0  0  0  0  0  0  0  0
  2  1  1  0  0  0  0
  3  1  1  0  0  0  0
  4  2  1  0  0  0  0
  5  3  1  0  0  0  0
  6  4  1  0  0  0  0
  6  5  1  0  0  0  0
  7  3  1  0  0  0  0
  8  7  1  0  0  0  0
 10  8  1  0  0  0  0
  8  9  2  0  0  0  0
M  END
> <DATABASE_ID>
DB03559

> <DATABASE_NAME>
drugbank

> <SMILES>
[H]C(=O)NC1CCCCC1

> <INCHI_IDENTIFIER>
InChI=1S/C7H13NO/c9-6-8-7-4-2-1-3-5-7/h6-7H,1-5H2,(H,8,9)

> <INCHI_KEY>
SWGXDLRCJNEEGZ-UHFFFAOYSA-N

> <FORMULA>
C7H13NO

> <MOLECULAR_WEIGHT>
127.1842

> <EXACT_MASS>
127.099714043

> <JCHEM_ACCEPTOR_COUNT>
1

> <JCHEM_ATOM_COUNT>
22

> <JCHEM_AVERAGE_NEUTRAL_MICROSPECIES_CHARGE>
1.2195970002722505e-08

> <JCHEM_AVERAGE_POLARIZABILITY>
14.436237594782273

> <JCHEM_BIOAVAILABILITY>
1

> <JCHEM_DONOR_COUNT>
1

> <JCHEM_FORMAL_CHARGE>
0

> <JCHEM_GHOSE_FILTER>
0

> <JCHEM_IUPAC>
N-cyclohexylformamide

> <ALOGPS_LOGP>
1.23

> <JCHEM_LOGP>
0.9439595613333335

> <ALOGPS_LOGS>
-0.83

> <JCHEM_MDDR_LIKE_RULE>
0

> <JCHEM_NEUTRAL_CHARGE>
0

> <JCHEM_NUMBER_OF_RINGS>
1

> <JCHEM_PHYSIOLOGICAL_CHARGE>
0

> <JCHEM_PKA_STRONGEST_ACIDIC>
16.447375199051223

> <JCHEM_PKA_STRONGEST_BASIC>
-0.9012547381859816

> <JCHEM_POLAR_SURFACE_AREA>
29.1

> <JCHEM_REFRACTIVITY>
35.8863

> <JCHEM_ROTATABLE_BOND_COUNT>
1

> <JCHEM_RULE_OF_FIVE>
1

> <ALOGPS_SOLUBILITY>
1.88e+01 g/l

> <JCHEM_TRADITIONAL_IUPAC>
2-methoxy-4-vinyl-phenol

> <JCHEM_VEBER_RULE>
1

> <DRUGBANK_ID>
DB03559

> <SECONDARY_ACCESSION_NUMBERS>
EXPT01065

> <DRUG_GROUPS>
experimental

> <GENERIC_NAME>
Cyclohexylformamide

> <SYNONYMS>
Formamidocyclohexane; N-cyclohexylformamide; N-formylcyclohexylamine

$$$$
