
  Mrv1652310211603322D          

 31 34  0  0  0  0            999 V2000
    0.4243    0.3820    0.0000 C   0  0  0  0  0  0  0  0  0  0  0  0
    1.1387   -0.0305    0.0000 C   0  0  0  0  0  0  0  0  0  0  0  0
    1.9233   -0.2854    0.0000 C   0  0  0  0  0  0  0  0  0  0  0  0
    2.6378    0.1271    0.0000 C   0  0  0  0  0  0  0  0  0  0  0  0
    3.3523   -0.2854    0.0000 C   0  0  0  0  0  0  0  0  0  0  0  0
    3.3523   -1.1104    0.0000 C   0  0  0  0  0  0  0  0  0  0  0  0
    2.6378   -1.5229    0.0000 C   0  0  0  0  0  0  0  0  0  0  0  0
    1.9233   -1.1104    0.0000 C   0  0  0  0  0  0  0  0  0  0  0  0
    1.1387   -1.3654    0.0000 N   0  0  0  0  0  0  0  0  0  0  0  0
    0.6538   -0.6979    0.0000 C   0  0  0  0  0  0  0  0  0  0  0  0
   -0.1712   -0.6979    0.0000 O   0  0  0  0  0  0  0  0  0  0  0  0
    0.8838   -2.1500    0.0000 C   0  0  0  0  0  0  0  0  0  0  0  0
    1.4358   -2.7631    0.0000 O   0  0  0  0  0  0  0  0  0  0  0  0
    0.0768   -2.3215    0.0000 N   0  0  0  0  0  0  0  0  0  0  0  0
   -0.1781   -3.1062    0.0000 C   0  0  0  0  0  0  0  0  0  0  0  0
   -0.9851   -3.2777    0.0000 C   0  0  0  0  0  0  0  0  0  0  0  0
   -1.2400   -4.0623    0.0000 C   0  0  0  0  0  0  0  0  0  0  0  0
   -2.0470   -4.2338    0.0000 C   0  0  0  0  0  0  0  0  0  0  0  0
   -2.5990   -3.6207    0.0000 N   0  0  0  0  0  0  0  0  0  0  0  0
   -2.3441   -2.8361    0.0000 C   0  0  0  0  0  0  0  0  0  0  0  0
   -1.5371   -2.6646    0.0000 C   0  0  0  0  0  0  0  0  0  0  0  0
   -3.4060   -3.7923    0.0000 C   0  0  0  0  0  0  0  0  0  0  0  0
   -3.6610   -4.5769    0.0000 C   0  0  0  0  0  0  0  0  0  0  0  0
   -3.6322   -5.4014    0.0000 C   0  0  0  0  0  0  0  0  0  0  0  0
   -4.3318   -5.8386    0.0000 C   0  0  0  0  0  0  0  0  0  0  0  0
   -5.0602   -5.4512    0.0000 O   0  0  0  0  0  0  0  0  0  0  0  0
   -5.0890   -4.6268    0.0000 C   0  0  0  0  0  0  0  0  0  0  0  0
   -4.3894   -4.1896    0.0000 C   0  0  0  0  0  0  0  0  0  0  0  0
   -2.8440   -4.6917    0.0000 O   0  0  0  0  0  0  0  0  0  0  0  0
    4.0668   -1.5229    0.0000 F   0  0  0  0  0  0  0  0  0  0  0  0
    1.4743    0.7232    0.0000 C   0  0  0  0  0  0  0  0  0  0  0  0
  1  2  1  0  0  0  0
  2  3  1  0  0  0  0
  3  4  2  0  0  0  0
  4  5  1  0  0  0  0
  5  6  2  0  0  0  0
  6  7  1  0  0  0  0
  7  8  2  0  0  0  0
  3  8  1  0  0  0  0
  8  9  1  0  0  0  0
  9 10  1  0  0  0  0
  2 10  1  0  0  0  0
 10 11  2  0  0  0  0
  9 12  1  0  0  0  0
 12 13  2  0  0  0  0
 12 14  1  0  0  0  0
 14 15  1  0  0  0  0
 15 16  1  0  0  0  0
 16 17  1  0  0  0  0
 17 18  1  0  0  0  0
 18 19  1  0  0  0  0
 19 20  1  0  0  0  0
 20 21  1  0  0  0  0
 16 21  1  0  0  0  0
 19 22  1  0  0  0  0
 22 23  1  0  0  0  0
 23 24  1  0  0  0  0
 24 25  1  0  0  0  0
 25 26  1  0  0  0  0
 26 27  1  0  0  0  0
 27 28  1  0  0  0  0
 23 28  1  0  0  0  0
 23 29  1  0  0  0  0
  6 30  1  0  0  0  0
  2 31  1  0  0  0  0
M  END
> <DATABASE_ID>
DB12949

> <DATABASE_NAME>
drugbank

> <SMILES>
CC1(C)C(=O)N(C(=O)NCC2CCN(CC3(O)CCOCC3)CC2)C2=CC(F)=CC=C12

> <INCHI_IDENTIFIER>
InChI=1S/C23H32FN3O4/c1-22(2)18-4-3-17(24)13-19(18)27(20(22)28)21(29)25-14-16-5-9-26(10-6-16)15-23(30)7-11-31-12-8-23/h3-4,13,16,30H,5-12,14-15H2,1-2H3,(H,25,29)

> <INCHI_KEY>
AGMOFKKOVMRGAK-UHFFFAOYSA-N

> <FORMULA>
C23H32FN3O4

> <MOLECULAR_WEIGHT>
433.524

> <EXACT_MASS>
433.237684685

> <JCHEM_ACCEPTOR_COUNT>
5

> <JCHEM_ATOM_COUNT>
63

> <JCHEM_AVERAGE_POLARIZABILITY>
46.466495303230985

> <JCHEM_BIOAVAILABILITY>
1

> <JCHEM_DONOR_COUNT>
2

> <JCHEM_FORMAL_CHARGE>
0

> <JCHEM_GHOSE_FILTER>
1

> <JCHEM_IUPAC>
6-fluoro-N-({1-[(4-hydroxyoxan-4-yl)methyl]piperidin-4-yl}methyl)-3,3-dimethyl-2-oxo-2,3-dihydro-1H-indole-1-carboxamide

> <ALOGPS_LOGP>
1.88

> <JCHEM_LOGP>
1.5151412179999992

> <ALOGPS_LOGS>
-3.85

> <JCHEM_MDDR_LIKE_RULE>
0

> <JCHEM_NUMBER_OF_RINGS>
4

> <JCHEM_PHYSIOLOGICAL_CHARGE>
1

> <JCHEM_PKA>
15.450354662354087

> <JCHEM_PKA_STRONGEST_ACIDIC>
14.233867477142827

> <JCHEM_PKA_STRONGEST_BASIC>
9.617426900965802

> <JCHEM_POLAR_SURFACE_AREA>
82.11000000000001

> <JCHEM_REFRACTIVITY>
115.16179999999997

> <JCHEM_ROTATABLE_BOND_COUNT>
4

> <JCHEM_RULE_OF_FIVE>
1

> <ALOGPS_SOLUBILITY>
6.18e-02 g/l

> <JCHEM_TRADITIONAL_IUPAC>
6-fluoro-N-({1-[(4-hydroxyoxan-4-yl)methyl]piperidin-4-yl}methyl)-3,3-dimethyl-2-oxoindole-1-carboxamide

> <JCHEM_VEBER_RULE>
0

> <DRUGBANK_ID>
DB12949

> <DRUG_GROUPS>
investigational

> <GENERIC_NAME>
PF-03382792

$$$$
