
  Mrv1572011271515512D          

 21 22  0  0  0  0            999 V2000
   -0.7144   -1.4437    0.0000 C   0  0  0  0  0  0  0  0  0  0  0  0
   -1.4289   -1.0312    0.0000 C   0  0  0  0  0  0  0  0  0  0  0  0
    0.0000   -0.2062    0.0000 C   0  0  0  0  0  0  0  0  0  0  0  0
   -0.7144    0.2062    0.0000 C   0  0  0  0  0  0  0  0  0  0  0  0
    0.0000   -1.0312    0.0000 C   0  0  0  0  0  0  0  0  0  0  0  0
   -1.4289   -0.2062    0.0000 C   0  0  0  0  0  0  0  0  0  0  0  0
    0.7144    0.2062    0.0000 O   0  0  0  0  0  0  0  0  0  0  0  0
   -2.1433   -1.4437    0.0000 O   0  0  0  0  0  0  0  0  0  0  0  0
   -2.8578   -1.0312    0.0000 C   0  0  0  0  0  0  0  0  0  0  0  0
   -3.5723   -1.4437    0.0000 C   0  0  0  0  0  0  0  0  0  0  0  0
   -4.2868   -1.0312    0.0000 C   0  0  0  0  0  0  0  0  0  0  0  0
   -5.0012   -1.4437    0.0000 C   0  0  0  0  0  0  0  0  0  0  0  0
    2.1434    0.2062    0.0000 C   0  0  0  0  0  0  0  0  0  0  0  0
    4.2868   -0.2062    0.0000 C   0  0  0  0  0  0  0  0  0  0  0  0
    5.0013    0.2062    0.0000 C   0  0  0  0  0  0  0  0  0  0  0  0
    4.2868    1.4437    0.0000 C   0  0  0  0  0  0  0  0  0  0  0  0
    3.5723    1.0312    0.0000 C   0  0  0  0  0  0  0  0  0  0  0  0
    5.0013    1.0312    0.0000 O   0  0  0  0  0  0  0  0  0  0  0  0
    3.5723    0.2062    0.0000 N   0  0  0  0  0  0  0  0  0  0  0  0
    1.4289   -0.2062    0.0000 C   0  0  0  0  0  0  0  0  0  0  0  0
    2.8579   -0.2062    0.0000 C   0  0  0  0  0  0  0  0  0  0  0  0
  1  2  1  0  0  0  0
  8  2  1  0  0  0  0
  3  7  1  0  0  0  0
  3  4  2  0  0  0  0
  5  3  1  0  0  0  0
  1  5  2  0  0  0  0
  6  2  2  0  0  0  0
  4  6  1  0  0  0  0
 20  7  1  0  0  0  0
  9  8  1  0  0  0  0
 10  9  1  0  0  0  0
 11 10  1  0  0  0  0
 12 11  1  0  0  0  0
 13 21  1  0  0  0  0
 20 13  1  0  0  0  0
 14 19  1  0  0  0  0
 14 15  1  0  0  0  0
 15 18  1  0  0  0  0
 18 16  1  0  0  0  0
 16 17  1  0  0  0  0
 17 19  1  0  0  0  0
 21 19  1  0  0  0  0
M  END
> <DATABASE_ID>
DB09345

> <DATABASE_NAME>
drugbank

> <SMILES>
CCCCOC1=CC=C(OCCCN2CCOCC2)C=C1

> <INCHI_IDENTIFIER>
InChI=1S/C17H27NO3/c1-2-3-12-20-16-5-7-17(8-6-16)21-13-4-9-18-10-14-19-15-11-18/h5-8H,2-4,9-15H2,1H3

> <INCHI_KEY>
DQKXQSGTHWVTAD-UHFFFAOYSA-N

> <FORMULA>
C17H27NO3

> <MOLECULAR_WEIGHT>
293.407

> <EXACT_MASS>
293.199093733

> <JCHEM_ACCEPTOR_COUNT>
4

> <JCHEM_ATOM_COUNT>
48

> <JCHEM_AVERAGE_POLARIZABILITY>
35.11451009745457

> <JCHEM_BIOAVAILABILITY>
1

> <JCHEM_DONOR_COUNT>
0

> <JCHEM_FORMAL_CHARGE>
0

> <JCHEM_GHOSE_FILTER>
1

> <JCHEM_IUPAC>
4-[3-(4-butoxyphenoxy)propyl]morpholine

> <ALOGPS_LOGP>
3.03

> <JCHEM_LOGP>
2.8419061089999995

> <ALOGPS_LOGS>
-3.12

> <JCHEM_MDDR_LIKE_RULE>
0

> <JCHEM_NUMBER_OF_RINGS>
2

> <JCHEM_PHYSIOLOGICAL_CHARGE>
1

> <JCHEM_PKA_STRONGEST_BASIC>
7.062880506816286

> <JCHEM_POLAR_SURFACE_AREA>
30.93

> <JCHEM_REFRACTIVITY>
84.817

> <JCHEM_ROTATABLE_BOND_COUNT>
9

> <JCHEM_RULE_OF_FIVE>
1

> <ALOGPS_SOLUBILITY>
2.21e-01 g/l

> <JCHEM_TRADITIONAL_IUPAC>
pramoxine

> <JCHEM_VEBER_RULE>
1

> <DRUGBANK_ID>
DB09345

> <DRUG_GROUPS>
approved

> <GENERIC_NAME>
Pramocaine

> <SYNONYMS>
PramocaÃ­na; Pramocaine; Pramoxine

> <PRODUCTS>
ATOPALM Hemorrhoidal Pain Relieving; AVON HeXashield Triple Antibiotic with Pain Relief; Acella Hydrocortisone Acetate - Pramoxine Singles; Analpram Advanced; Analpram E; Analpram E Cream 2.5% Kit hydrocortisone acetate 2.5% pramoxine hydrochloride 1%; Analpram HC; Anesthetic Hemorrhoidal With Aloe; Anodan-plus; Anodan-plus Ointment; Anti Itch Maximum Relief; Anti Itch Soothing 1 Pramoxine Hydrochloride; Anti-Itch; Anti-Itch Soothing Wipes 1 Pramoxine Hydrochloride; Anti-Itch Wipes; Antibiotic; Antibiotic Plus Pain Relief; Antibiotic Plus Pain Relief Maximum Strength; Antibiotic and Pain Relief; Antibiotic and Pain Relief Maximum Strength; Antibiotic and pain relief maximum strength; Antibiotic plus Pain Relief; Antibiotic, Pain and Scar; Anugesic-HC Ointment; Anugesic-HC Suppositories; Anusol Plus Ointment; Anusol Plus Suppositories; Anuzinc HC Plus; Anuzinc Plus Suppositories; Atopalm First Aid Triple Antibiotic Protection Moisturizing and Pain Relief; Atopalm First Aid Triple Antibiotic plus Pain Relief; Avedana Hemorrhoidal Maximum Strength; Aveeno Active Naturals Skin Relief Medicated Anti Itch Treatment; Aveeno Anti Itch Concentrated; Aveeno Anti-Itch Concentrated; Aveeno Anti-itch Lotion; Aveeno Calamine and Pramoxine Hydrochloride Anti Itch; Aveeno Restorative Skin Therapy Itch Relief Balm; Bacitraycin MAX Pain Relief; Bacitraycin Plus; Bactine Pain Relieving Cleansing Spray; Band Aid Antiseptic Cleansing; Band Aid Antiseptic Cleansing To Go; Basic Care First Aid Antibiotic; Basic Care First Aid Antibiotic Plus Pain Relief; Basic Care First Aid Antibiotic and Burn Relief; Best Choice Anti-Itch Clear; Best Choice Medicated Calamine; Best Choice Medicated anti itch; Bi-Mart Triple Antibiotic plus Pain Relief; Bikini Zone MEDICATED After Shave Fresh Scent; Bikini Zone Medicated After Shave Spray; Bikini Zone Medicated After-shave Roll-ON Relief; Bite and Itch; Blistex Cold and Allergy Lip Soother; Blistex Ivarest Poison Ivy Itch; CAREONE Antibiotic Plus Pain Relief; CVS Anti-Itch; CVS Calamine Plus; CVS Fragrance Free Anti-Itch; CVS Health Hemorrhoidal Cream; CVS Health Maximum Strength Feminine; CVS Health Triple Antibiotic with Pain Relief; CVS Hemorrhoidal; CVS Itch Relief; CVS Maximum Strength Feminine Anti-Itch Wipes; CVS Medicated Anti-Itch; CVS Medicated anti itch; CVS Pharmacy; CVS Pharmacy Maximum Strength Feminine Wipes; Calaclear; Caladryl; Caladryl Clear; Calamine; Calamine Clear; Calamine Plus; Calamine Plus Pramoxine HCL; Calamine Plus Pramoxine HCl; Caldyphen Clear; Care One Maximum Strength First Aid Antibiotic; CareALL Triple Antibiotic plus Pain Relief; Careone Triple Antibiotic; CeraVe Developed with Dermatologists Itch Relief Moisturizing; CeraVe Itch Relief Moisturizing; CeraVe Itch Relief Moisturizing Cream; Childrens Double Antibiotic with Pain Relief; Clear Anti Itch; Clear Anti-Itch; Clear Anti-itch Lotion; Clear Itch Relief; Clear Itch Relief Evora Labs; Cocoskin; Cortaine -B Aqueous; Cortane-B; Cuadriderma; Curad Maximum Strength Triple Antibiotic; Curasore; DDM Calaclear; DDM Calagesic; DG Health Antibiotic; DG Health Medicated Anti-Itch Analgesic; DerMend Moisturizing Anti-Itch; Dermagesic; Dermarest Eczema Medicated Moist for Sensitive Skin; Dermoplast Poison Ivy Treatment; Dg Health Triple Antibiotic; Double Antibiotic Plus Pain Relief Maximum Strength; Dr Bells Pomade; Dr. Sheffield Hemorrhoid; Drs. Pharmacy Triple Antibiotic Plus; Dual Action Cream; Ear Itch MD; Eczemin; Epifoam; Equaline Antibiotic Plus Pain Relief; Equaline Antibiotic Plus Pain Relief for Kids; Equaline First Aid Antibiotic; Equaline Hemorrhoidal; Equaline Triple Antibiotic; Equaline Triple Antibiotic Plus; Equate Antibiotic Plus Pain Relief; Equate Antibiotic Plus Pain, Itch, Scar Relief; Equate First Aid Antibiotic Pain Relieving; Equate First Aid Antibiotic Plus Pain Relief; Equate Hemorrhoidal; Exchange Select First Aid Triple Anitbiotic Pain Relieving; Extra Strength Bacitraycin Plus; Family Care Maximum Strength Medicated Anti Itch; Family Care Triple Antibiotic Plus Pain Relief; Family Wellness; Family Wellness Antiseptic and Pain Relief; Family Wellness Pain Scar Itch; Family Wellness Plus Pain Relief; Family Wellness Triple Antibiotic Plus Pain Relief; First Aid Antibiotic; First Aid Antibiotic Bacitraycin Plus Maximum Strength; First Aid Antibiotic Plus Pain Relief Maximum Strength; First Aid Antibiotic and Pain Relief; First Aid Antiseptic Pain Relieving; First Aid Clear Anti-Itch medicated pads Rite Aid; First Aid Maximum Strength Bacitraycin Plus; First Aid Sensitive Anti-Itch; First Aid Triple Antibiotic Pain and Scar; First Aid Triple Antibiotic and Pain Relief Maximum Strength; First Degree Maximum Strength Burn; First On Topical Analgesic; Fissurene; Fleet; Freds Medicated anti itch; GNP Caldyphen; Galentic Triple Antibiotic Plus Pain Relief; Glycerin, Phenylephrine Hydrochloride, Pramoxine, White Petrolatum; Gold Bond Anti Itch; Gold Bond Anti-itch Lotion; Gold Bond Intensive Healing Anti Itch Skin Protectant; Gold Bond Intensive Relief Anti-Itch; Gold Bond Medicated Anti-itch Cream; Good Neighbor Pharmacy Antibiotic and Pain Relief; Good Neighbor Pharmacy Triple Antibiotic Plus Pain Relief; Good Sense Hemorrhoidal Maximum Strength Pain Relief; Good Sense Triple Antibiotic; Good Sense Triple Antibiotic and Pain Relief; GoodSense Antibiotic plus Pain Relief; H E Buddy Antibiotic Maximum Strength Plus Pain Relief; HC Pram; HEB Calaclear; HEB Calagesic; HEB Maximum Strength Pain Relief Hemorrhoidal; Harris Teeter Triple Antibiotic Plus Pain Relief; Harris Teetter Calagesic; Healthy Accents Triple Antibiotic; Hemorrhoid Ointment; Hemorrhoidal; Hemorrhoidal Anesthetic; Hemorrhoidal Cream; Hemorrhoidal Cream with Aloe; Hemorrhoidal Maximum Strength Pain Relief; Hemorrhoidal Ointment; Hemorrhoidal Ointment With Anesthetic for Extra Pain Relief; Hemorrhoidal Relief; Honey Pot; Humco Calaclear; Humco Calagesic; Hydro Ear; Hydrocortisone Acetate 2.5% Pramoxine HCl 1%; Hydrocortisone Acetate Pramoxine HCl; Hydrocortisone Acetate Pramoxine Hcl; Hydrocortisone Acetate Pramoxine Hydrochloride; Hydrocortisone Acetate and Pramoxine Hydrochloride; Itch Relief Balm; Itch Relief Clear Skin Protectant CVS; Itch Relief Lotion; Itch Relief Medicated Pads CVS; Itch Relief Moisturizing Cream; Itch Relief Moisturizing Lotion; Itch X; Itch X Gel; Itch-X; Itch-X Gel; Ivy Wash; Johnson and Johnson All Purpose First Aid Kit; L-Topical CALAMINE 8% PRAMOXINE HCL 1%; LEADER Caldyphen; LEADER Caldyphen Clear; LOLA Vaginal Itch Relief Wipes; Leader; Leader Calamine Plus; Leader Poison Ivy Wash; Leader Triple Antibiotic Plus; Leader Triple Antibiotic and Pain Relief; Live Better Triple Antibiotic plus Pain Relief; LiveBetter Antibiotic Plus Pain Relief; Luvena Feminine Wipes; MAXIMUM STRENGTH MEDICATED ANTI-ITCH Rite Aid; MEDICATED ANTI-ITCH Well at Walgreens; Meijer Antibiotic Plus Pain Relief; Meijer Triple Antibiotic Plus; Mineral Oil, Pramoxine Hydrochloride and Zinc Oxide; Multi Action; Multi Antibiotic with Pain Relief Maximum Strength; NATUREPLEX ANTIBIOTIC plus PAIN RELIEF; NEOSPORIN Plus BURN RELIEF; Natureplex Antibiotic Plus Pain, Itch, Scar Relief; Natureplex Antibiotic plus Pain; Natureplex Hemorrhoidal; Neosporin Kids Plus Pain Relief; Neosporin Pain Itch Scar; Neosporin Plus Pain Relief; Neosporin Plus Pain Relief First Aid Antibiotic Pain Relieving For Kids; Neosporin Plus Pain Relief First Aid Antibiotic/Pain Relieving; Neosporin Plus Pain Relief Neo To Go First Aid Antibiotic Pain Relieving; Neosporin Plus Pain Relief Neo To Go First Aid Antiseptic Pain Relieving; Neosporin Plus Pain Relief Neo To Go First Aid Antiseptic Pain Relieving For Kids; Neosporin Plus Pain Relief Neo to Go; Nikzon Hemorrhoidal; No More Bumps; Novacort; OLP Triple Antibiotic Plus; Oncoderm ItchRx; Oti Rx; Oticin; Oticin HC Ear Drops; Oto End 10; PREPARATION H Maximum Strength; Pain Relief; Penimixcina; Pentrexcilina Triple Antibiotic Plus Pain Relief; Poison Ivy Wash; Polysporin Itch Relief; Polysporin Lip Treatment; Polysporin Poly To Go; Pomada De La Campana Triple Antibiotic Pain Relief; Pramcort; PrameGel; Pramosone; Pramosone Cream; Pramosone E; Pramosone E Cream 2.5% hydrocortisone acetate 2.5% pramoxine hydrochloride 1%; Pramox HC Cream; Pramox HC Lotion; Pramoxine Hydrochloride; Pramoxine hydrochloride; Pramoxine-HC; Prax; Prax Wipe; Preferred Plus Hemorrhoid; Premier Value Antibiotic Plus Pain Relief; Premier Value Calaclear; Premier Value Calagesic; Premier Value Max Strength Antibiotic plus pain relief; Premier Value Triple Antibiotic Plus; Preparation H Totables Pain Relief; Private Label Poison Ivy Wash; Pro-relief; Procort; Proctodan-HC Ointment; Proctodan-HC Suppositories; Proctofoam; Proctofoam HC; Proctofoam NS; Prosoria Anti-Itch Moisturizer; Publix Calamine Medicated; Publix Clear Anti-Itch; Publix antibiotic plus Pain Relief; Publix antibiotic plus pain relief; QC Medicated anti itch; Quality Choice Anti-Itch Clear; Quality Choice Anti-itch Medicated; Quality Choice Maximum Strength Triple Antibiotic; Quality Choice Triple Antibiotic Plus Pain Reliever; Reeses Pinworm Itch Relief; Rexall Hemorrhoidal; Rexall Maximum Strength Hemorrhoidal; Rite Aid Cala Itch Relief; Rite Aid Pharmacy Antibiotic With Pain Relief; Rite Aid Soothing Medicated Anit-Itch; Rugby Caldyphen Clear; SIMPLE PROMISE Simple H Hemorrhoid Relief Cream; Safeway Antibiotic Plus Pain Relief; Sally Hansen Zero bump bikini; Sandoz Anuzinc HC Plus; Sandoz Anuzinc Plus; Sarna; Sarna P; Scalpicin Medicated Wipes; Select Brand Anti-Itch; Select Brand Calaclear; Select Brand Hemorrhoid; Sheffield Triple Antibiotic Plus Pain Relief; Shopko Antibiotic Plus Pain Relief; Shopko Triple Antibiotic Plus; Shopko Triple Antibiotic plus Pain Relief; Shoprite Triple Antibiotic; Signature Care First Aid Antibiotic; Signature Care Hemorrhoidal; Signature Care Hemorrhoidal Cream (with applicator); Signature Care Triple Antibiotic; Skin Relief Medicated Anti-itch Treatment; Smart Sense Antibiotic Maximum Strength; Smart Sense Triple Antibiotic; Smart Sense antibiotic plus pain relief; Smart Sense triple antibitotic plus pain relief; Soothing Care Itch Relief Spray; Sunmark Antibiotic Plus Pain Relief; Sunmark Caldiphen; Sunmark Caldyphen Clear; Sunmark Hemorrhoidal; Sunmark Triple Antibiotic Plus Pain Relief; TopCare Antibiotic Plus Pain Relief; TopCare Calaclear; TopCare Calagesic; TopCare Triple Antibiotic Plus Pain Relief; Topcare Antibiotic; Topcare Hemorrhoidal; Topcare Triple Antibiotic; Triple Antibiotic; Triple Antibiotic Plus; Triple Antibiotic Plus Maximum Strength; Triple Antibiotic Plus Pain Relief; Triple Antibiotic Plus Pain Relief Maximum Strength; Triple Antibiotic and Burn Relief; Triple Antibiotic and Pain Relief; Triple Antibiotic and Pain Relief Maximum Strength; Triple Antibiotic plus Pain Relief Maximum Strength; Triple Antibiotic plus pain relief; Triple Antibiotic with Pain Relief; Triple Antibiotic with Pain Relief Maximum Strength; Triple antibiotic and pain itch scar; Triple antibiotic and pain relief; Tripleantibioticapainscaritch; Tripleantibioticointmentandpainrelief; Tronolane; Tronothane Pramoxine HCl Crm 1% USP; Tucks Fast Relief; Tucks Hemorrhoidal; Up and Up Antibiotic Plus Pain Relief; Up and Up First Aid Antibiotic Pain Relieving; Up and Up Hemorrhoidal; Up and Up multi action antibiotic; VAGISIL Anti-Itch Medicated Wipes Maximum Strength; Vagisil Medicated Wipes; Vida Mia Calaclear; W15883-CS; Walgreen Anti-Itch; Walgreens Kids Multi-Antibiotic with Pain Relief Cream; Walgreens Maximum Strength Hemorrhoidal; Walgreens Maximum Strength Triple Antibiotic With Pain Relief; Walgreens Multi-Antibiotic with Pain Relief Cream; Welly Bravery First Aid Kit; Welly Bravery Triple Antibiotic with Pain Relief; Western Family Antibiotic Plus Pain Relief; Western Family Triple Antibiotic plus Pain Relief; WinCo Maximum Strength Triple Antibiotic; ZyPram; hydrocortisone acetate pramoxine HCl; meijer Antibiotic Plus Pain Relief; meijer Triple Antibiotic plus Pain Relief; proctofoam HC

> <SALTS>
Pramoxine hydrochloride

$$$$
