
  Mrv1909 05082120122D          

 35 37  0  0  0  0            999 V2000
   -1.7861    0.2061    0.0000 C   0  0  0  0  0  0  0  0  0  0  0  0
   -1.7861    1.0312    0.0000 C   0  0  0  0  0  0  0  0  0  0  0  0
   -2.5005    1.4438    0.0000 C   0  0  0  0  0  0  0  0  0  0  0  0
   -3.2151    1.0312    0.0000 C   0  0  0  0  0  0  0  0  0  0  0  0
   -3.9296    0.6188    0.0000 C   0  0  0  0  0  0  0  0  0  0  0  0
   -4.6441    0.2061    0.0000 C   0  0  0  0  0  0  0  0  0  0  0  0
   -2.5005   -0.2061    0.0000 O   0  0  0  0  0  0  0  0  0  0  0  0
   -1.0716   -0.2061    0.0000 O   0  0  0  0  0  0  0  0  0  0  0  0
   -5.3584    0.6188    0.0000 N   0  0  0  0  0  0  0  0  0  0  0  0
   -6.0729    0.2061    0.0000 C   0  0  0  0  0  0  0  0  0  0  0  0
   -6.7874    0.6188    0.0000 C   0  0  0  0  0  0  0  0  0  0  0  0
   -6.7874    1.4438    0.0000 O   0  0  0  0  0  0  0  0  0  0  0  0
   -6.0729    1.8562    0.0000 C   0  0  0  0  0  0  0  0  0  0  0  0
   -5.3584    1.4438    0.0000 C   0  0  0  0  0  0  0  0  0  0  0  0
   -1.0716    1.4438    0.0000 N   0  0  0  0  0  0  0  0  0  0  0  0
   -0.3571    1.0312    0.0000 S   0  0  0  0  0  0  0  0  0  0  0  0
   -0.7697    0.3167    0.0000 O   0  0  0  0  0  0  0  0  0  0  0  0
    0.0552    1.7456    0.0000 O   0  0  0  0  0  0  0  0  0  0  0  0
    0.3571    0.6188    0.0000 C   0  0  0  0  0  0  0  0  0  0  0  0
    1.0716    1.0312    0.0000 C   0  0  0  0  0  0  0  0  0  0  0  0
    1.7861    0.6188    0.0000 C   0  0  0  0  0  0  0  0  0  0  0  0
    1.7861   -0.2061    0.0000 C   0  0  0  0  0  0  0  0  0  0  0  0
    1.0716   -0.6188    0.0000 C   0  0  0  0  0  0  0  0  0  0  0  0
    0.3571   -0.2061    0.0000 C   0  0  0  0  0  0  0  0  0  0  0  0
    2.5005   -0.6188    0.0000 N   0  0  0  0  0  0  0  0  0  0  0  0
    3.2151   -0.2061    0.0000 C   0  0  0  0  0  0  0  0  0  0  0  0
    3.9296   -0.6188    0.0000 C   0  0  0  0  0  0  0  0  0  0  0  0
    4.6441   -0.2061    0.0000 C   0  0  0  0  0  0  0  0  0  0  0  0
    5.3584   -0.6188    0.0000 C   0  0  0  0  0  0  0  0  0  0  0  0
    5.3584   -1.4438    0.0000 C   0  0  0  0  0  0  0  0  0  0  0  0
    4.6441   -1.8562    0.0000 C   0  0  0  0  0  0  0  0  0  0  0  0
    3.9296   -1.4438    0.0000 C   0  0  0  0  0  0  0  0  0  0  0  0
    3.2151    0.6188    0.0000 O   0  0  0  0  0  0  0  0  0  0  0  0
    6.0729   -1.8562    0.0000 O   0  0  0  0  0  0  0  0  0  0  0  0
    6.7874   -1.4438    0.0000 C   0  0  0  0  0  0  0  0  0  0  0  0
  1  2  1  0  0  0  0
  2  3  1  0  0  0  0
  3  4  1  0  0  0  0
  4  5  3  0  0  0  0
  5  6  1  0  0  0  0
  1  7  2  0  0  0  0
  1  8  1  0  0  0  0
  9 10  1  0  0  0  0
 10 11  1  0  0  0  0
 11 12  1  0  0  0  0
 12 13  1  0  0  0  0
 13 14  1  0  0  0  0
  9 14  1  0  0  0  0
  6  9  1  0  0  0  0
 16 17  2  0  0  0  0
 16 18  2  0  0  0  0
 19 20  1  0  0  0  0
 20 21  2  0  0  0  0
 21 22  1  0  0  0  0
 22 23  2  0  0  0  0
 23 24  1  0  0  0  0
 19 24  2  0  0  0  0
 16 19  1  0  0  0  0
 26 27  1  0  0  0  0
 27 28  1  0  0  0  0
 28 29  2  0  0  0  0
 29 30  1  0  0  0  0
 30 31  2  0  0  0  0
 31 32  1  0  0  0  0
 27 32  2  0  0  0  0
 26 33  2  0  0  0  0
 34 35  1  0  0  0  0
 30 34  1  0  0  0  0
 25 26  1  0  0  0  0
 22 25  1  0  0  0  0
 15 16  1  0  0  0  0
  2 15  1  0  0  0  0
M  END
> <DATABASE_ID>
DB05495

> <DATABASE_NAME>
drugbank

> <SMILES>
COC1=CC=C(C=C1)C(=O)NC1=CC=C(C=C1)S(=O)(=O)NC(CC#CCN1CCOCC1)C(O)=O

> <INCHI_IDENTIFIER>
InChI=1S/C24H27N3O7S/c1-33-20-9-5-18(6-10-20)23(28)25-19-7-11-21(12-8-19)35(31,32)26-22(24(29)30)4-2-3-13-27-14-16-34-17-15-27/h5-12,22,26H,4,13-17H2,1H3,(H,25,28)(H,29,30)

> <INCHI_KEY>
JAYVKNDQKXUNOJ-UHFFFAOYSA-N

> <FORMULA>
C24H27N3O7S

> <MOLECULAR_WEIGHT>
501.55

> <EXACT_MASS>
501.156971395

> <JCHEM_ACCEPTOR_COUNT>
8

> <JCHEM_ATOM_COUNT>
62

> <JCHEM_AVERAGE_NEUTRAL_MICROSPECIES_CHARGE>
-0.8688264690812116

> <JCHEM_AVERAGE_POLARIZABILITY>
51.33303487660633

> <JCHEM_BIOAVAILABILITY>
1

> <JCHEM_DONOR_COUNT>
3

> <JCHEM_FORMAL_CHARGE>
0

> <JCHEM_GHOSE_FILTER>
0

> <JCHEM_IUPAC>
2-[4-(4-methoxybenzamido)benzenesulfonamido]-6-(morpholin-4-yl)hex-4-ynoic acid

> <ALOGPS_LOGP>
1.69

> <JCHEM_LOGP>
-0.5886810480656041

> <ALOGPS_LOGS>
-4.72

> <JCHEM_MDDR_LIKE_RULE>
1

> <JCHEM_NEUTRAL_CHARGE>
-1

> <JCHEM_NUMBER_OF_RINGS>
3

> <JCHEM_PHYSIOLOGICAL_CHARGE>
-1

> <JCHEM_PKA>
10.204383444305662

> <JCHEM_PKA_STRONGEST_ACIDIC>
3.165560660394765

> <JCHEM_PKA_STRONGEST_BASIC>
6.181153726314267

> <JCHEM_POLAR_SURFACE_AREA>
134.26999999999998

> <JCHEM_REFRACTIVITY>
131.3512

> <JCHEM_ROTATABLE_BOND_COUNT>
10

> <JCHEM_RULE_OF_FIVE>
0

> <ALOGPS_SOLUBILITY>
9.65e-03 g/l

> <JCHEM_TRADITIONAL_IUPAC>
mitoquinone cation mesylate

> <JCHEM_VEBER_RULE>
0

> <DRUGBANK_ID>
DB05495

> <DRUG_GROUPS>
investigational

> <GENERIC_NAME>
PG-530742

$$$$
