
  Mrv1652306031606522D          

 12 12  0  0  1  0            999 V2000
   -0.0000    3.3000    0.0000 C   0  0  0  0  0  0  0  0  0  0  0  0
    1.4289   -0.0000    0.0000 C   0  0  0  0  0  0  0  0  0  0  0  0
    1.4289    0.8250    0.0000 C   0  0  0  0  0  0  0  0  0  0  0  0
    0.7145   -0.4125    0.0000 C   0  0  0  0  0  0  0  0  0  0  0  0
    0.7145    2.0625    0.0000 C   0  0  0  0  0  0  0  0  0  0  0  0
    0.0000    0.8250    0.0000 C   0  0  0  0  0  0  0  0  0  0  0  0
   -0.0000    2.4750    0.0000 C   0  0  1  0  0  0  0  0  0  0  0  0
    0.7145    1.2375    0.0000 C   0  0  0  0  0  0  0  0  0  0  0  0
    0.0000   -0.0000    0.0000 C   0  0  0  0  0  0  0  0  0  0  0  0
   -0.7145    2.0625    0.0000 N   0  0  0  0  0  0  0  0  0  0  0  0
   -0.7145   -0.4125    0.0000 O   0  0  0  0  0  0  0  0  0  0  0  0
    0.7145    2.8875    0.0000 H   0  0  0  0  0  0  0  0  0  0  0  0
  3  2  2  0  0  0  0
  4  2  1  0  0  0  0
  7  1  1  0  0  0  0
  7  5  1  0  0  0  0
  8  3  1  0  0  0  0
  8  5  1  0  0  0  0
  8  6  2  0  0  0  0
  9  4  2  0  0  0  0
  9  6  1  0  0  0  0
  7 10  1  6  0  0  0
 11  9  1  0  0  0  0
  7 12  1  6  0  0  0
M  END
> <DATABASE_ID>
DB13703

> <DATABASE_NAME>
drugbank

> <SMILES>
[H][C@@](C)(N)CC1=CC(O)=CC=C1

> <INCHI_IDENTIFIER>
InChI=1S/C9H13NO/c1-7(10)5-8-3-2-4-9(11)6-8/h2-4,6-7,11H,5,10H2,1H3/t7-/m0/s1

> <INCHI_KEY>
WTDGMHYYGNJEKQ-ZETCQYMHSA-N

> <FORMULA>
C9H13NO

> <MOLECULAR_WEIGHT>
151.209

> <EXACT_MASS>
151.099714043

> <JCHEM_ACCEPTOR_COUNT>
2

> <JCHEM_ATOM_COUNT>
24

> <JCHEM_AVERAGE_POLARIZABILITY>
17.00227441918455

> <JCHEM_BIOAVAILABILITY>
1

> <JCHEM_DONOR_COUNT>
2

> <JCHEM_FORMAL_CHARGE>
0

> <JCHEM_GHOSE_FILTER>
0

> <JCHEM_IUPAC>
3-[(2S)-2-aminopropyl]phenol

> <ALOGPS_LOGP>
0.53

> <JCHEM_LOGP>
0.9693837607914428

> <ALOGPS_LOGS>
-1.64

> <JCHEM_MDDR_LIKE_RULE>
0

> <JCHEM_NUMBER_OF_RINGS>
1

> <JCHEM_PHYSIOLOGICAL_CHARGE>
1

> <JCHEM_PKA_STRONGEST_ACIDIC>
10.359087806710237

> <JCHEM_PKA_STRONGEST_BASIC>
9.706903506314644

> <JCHEM_POLAR_SURFACE_AREA>
46.25

> <JCHEM_REFRACTIVITY>
45.686099999999996

> <JCHEM_ROTATABLE_BOND_COUNT>
2

> <JCHEM_RULE_OF_FIVE>
1

> <ALOGPS_SOLUBILITY>
3.44e+00 g/l

> <JCHEM_TRADITIONAL_IUPAC>
gepefrine

> <JCHEM_VEBER_RULE>
0

> <DRUGBANK_ID>
DB13703

> <DRUG_GROUPS>
experimental

> <GENERIC_NAME>
Gepefrine

> <SYNONYMS>
Gepefrine

$$$$
