
  Mrv1652310211601332D          

 46 51  0  0  0  0            999 V2000
   -6.5215    3.7934    0.0000 C   0  0  0  0  0  0  0  0  0  0  0  0
   -5.6965    3.7934    0.0000 C   0  0  0  0  0  0  0  0  0  0  0  0
   -5.2840    4.5079    0.0000 C   0  0  0  0  0  0  0  0  0  0  0  0
   -4.4590    4.5079    0.0000 C   0  0  0  0  0  0  0  0  0  0  0  0
   -4.0465    3.7934    0.0000 C   0  0  0  0  0  0  0  0  0  0  0  0
   -4.4590    3.0789    0.0000 C   0  0  0  0  0  0  0  0  0  0  0  0
   -5.2840    3.0789    0.0000 C   0  0  0  0  0  0  0  0  0  0  0  0
   -4.0465    2.3645    0.0000 N   0  0  0  0  0  0  0  0  0  0  0  0
   -3.2215    2.3645    0.0000 C   0  0  0  0  0  0  0  0  0  0  0  0
   -2.8090    3.0789    0.0000 O   0  0  0  0  0  0  0  0  0  0  0  0
   -2.8090    1.6500    0.0000 N   0  0  0  0  0  0  0  0  0  0  0  0
   -1.9840    1.6500    0.0000 C   0  0  0  0  0  0  0  0  0  0  0  0
   -1.4991    2.3174    0.0000 N   0  0  0  0  0  0  0  0  0  0  0  0
   -0.7145    2.0625    0.0000 C   0  0  0  0  0  0  0  0  0  0  0  0
    0.0000    2.4750    0.0000 C   0  0  0  0  0  0  0  0  0  0  0  0
    0.7145    2.0625    0.0000 C   0  0  0  0  0  0  0  0  0  0  0  0
    0.7145    1.2375    0.0000 C   0  0  0  0  0  0  0  0  0  0  0  0
    0.0000    0.8250    0.0000 C   0  0  0  0  0  0  0  0  0  0  0  0
   -0.7145    1.2375    0.0000 C   0  0  0  0  0  0  0  0  0  0  0  0
   -1.4991    0.9826    0.0000 S   0  0  0  0  0  0  0  0  0  0  0  0
    1.4289    0.8250    0.0000 N   0  0  0  0  0  0  0  0  0  0  0  0
    1.4289    0.0000    0.0000 C   0  0  0  0  0  0  0  0  0  0  0  0
    2.1434   -0.4125    0.0000 C   0  0  0  0  0  0  0  0  0  0  0  0
    2.8579    0.0000    0.0000 C   0  0  0  0  0  0  0  0  0  0  0  0
    3.5724   -0.4125    0.0000 C   0  0  0  0  0  0  0  0  0  0  0  0
    3.5724   -1.2375    0.0000 C   0  0  0  0  0  0  0  0  0  0  0  0
    2.8579   -1.6500    0.0000 C   0  0  0  0  0  0  0  0  0  0  0  0
    2.1434   -1.2375    0.0000 C   0  0  0  0  0  0  0  0  0  0  0  0
    1.4289   -1.6500    0.0000 N   0  0  0  0  0  0  0  0  0  0  0  0
    0.7145   -1.2375    0.0000 C   0  0  0  0  0  0  0  0  0  0  0  0
    0.7145   -0.4125    0.0000 N   0  0  0  0  0  0  0  0  0  0  0  0
    4.2868   -1.6500    0.0000 O   0  0  0  0  0  0  0  0  0  0  0  0
    5.0013   -1.2375    0.0000 C   0  0  0  0  0  0  0  0  0  0  0  0
    5.7158   -1.6500    0.0000 C   0  0  0  0  0  0  0  0  0  0  0  0
    6.4302   -1.2375    0.0000 C   0  0  0  0  0  0  0  0  0  0  0  0
    7.1447   -1.6500    0.0000 N   0  0  0  0  0  0  0  0  0  0  0  0
    7.8592   -1.2375    0.0000 C   0  0  0  0  0  0  0  0  0  0  0  0
    8.5737   -1.6500    0.0000 C   0  0  0  0  0  0  0  0  0  0  0  0
    8.5737   -2.4750    0.0000 N   0  0  0  0  0  0  0  0  0  0  0  0
    7.8592   -2.8875    0.0000 C   0  0  0  0  0  0  0  0  0  0  0  0
    7.1447   -2.4750    0.0000 C   0  0  0  0  0  0  0  0  0  0  0  0
    9.2881   -2.8875    0.0000 C   0  0  0  0  0  0  0  0  0  0  0  0
    4.2868   -0.0000    0.0000 O   0  0  0  0  0  0  0  0  0  0  0  0
    5.0013   -0.4125    0.0000 C   0  0  0  0  0  0  0  0  0  0  0  0
   -3.2215    3.7934    0.0000 O   0  0  0  0  0  0  0  0  0  0  0  0
   -2.8090    4.5079    0.0000 C   0  0  0  0  0  0  0  0  0  0  0  0
  1  2  1  0  0  0  0
  2  3  2  0  0  0  0
  3  4  1  0  0  0  0
  4  5  2  0  0  0  0
  5  6  1  0  0  0  0
  6  7  2  0  0  0  0
  2  7  1  0  0  0  0
  6  8  1  0  0  0  0
  8  9  1  0  0  0  0
  9 10  2  0  0  0  0
  9 11  1  0  0  0  0
 11 12  1  0  0  0  0
 12 13  2  0  0  0  0
 13 14  1  0  0  0  0
 14 15  2  0  0  0  0
 15 16  1  0  0  0  0
 16 17  2  0  0  0  0
 17 18  1  0  0  0  0
 18 19  2  0  0  0  0
 14 19  1  0  0  0  0
 19 20  1  0  0  0  0
 12 20  1  0  0  0  0
 17 21  1  0  0  0  0
 21 22  1  0  0  0  0
 22 23  1  0  0  0  0
 23 24  2  0  0  0  0
 24 25  1  0  0  0  0
 25 26  2  0  0  0  0
 26 27  1  0  0  0  0
 27 28  2  0  0  0  0
 23 28  1  0  0  0  0
 28 29  1  0  0  0  0
 29 30  2  0  0  0  0
 30 31  1  0  0  0  0
 22 31  2  0  0  0  0
 26 32  1  0  0  0  0
 32 33  1  0  0  0  0
 33 34  1  0  0  0  0
 34 35  1  0  0  0  0
 35 36  1  0  0  0  0
 36 37  1  0  0  0  0
 37 38  1  0  0  0  0
 38 39  1  0  0  0  0
 39 40  1  0  0  0  0
 40 41  1  0  0  0  0
 36 41  1  0  0  0  0
 39 42  1  0  0  0  0
 25 43  1  0  0  0  0
 43 44  1  0  0  0  0
  5 45  1  0  0  0  0
 45 46  1  0  0  0  0
M  END
> <DATABASE_ID>
DB12669

> <DATABASE_NAME>
drugbank

> <SMILES>
COC1=CC=C(C)C=C1NC(=O)NC1=NC2=CC=C(NC3=NC=NC4=CC(OCCCN5CCN(C)CC5)=C(OC)C=C34)C=C2S1

> <INCHI_IDENTIFIER>
InChI=1S/C33H38N8O4S/c1-21-6-9-27(43-3)26(16-21)37-32(42)39-33-38-24-8-7-22(17-30(24)46-33)36-31-23-18-28(44-4)29(19-25(23)34-20-35-31)45-15-5-10-41-13-11-40(2)12-14-41/h6-9,16-20H,5,10-15H2,1-4H3,(H,34,35,36)(H2,37,38,39,42)

> <INCHI_KEY>
MAFACRSJGNJHCF-UHFFFAOYSA-N

> <FORMULA>
C33H38N8O4S

> <MOLECULAR_WEIGHT>
642.78

> <EXACT_MASS>
642.27367291

> <JCHEM_ACCEPTOR_COUNT>
10

> <JCHEM_ATOM_COUNT>
84

> <JCHEM_AVERAGE_POLARIZABILITY>
72.55475546092507

> <JCHEM_BIOAVAILABILITY>
0

> <JCHEM_DONOR_COUNT>
3

> <JCHEM_FORMAL_CHARGE>
0

> <JCHEM_GHOSE_FILTER>
0

> <JCHEM_IUPAC>
1-(2-methoxy-5-methylphenyl)-3-[6-({6-methoxy-7-[3-(4-methylpiperazin-1-yl)propoxy]quinazolin-4-yl}amino)-1,3-benzothiazol-2-yl]urea

> <ALOGPS_LOGP>
4.42

> <JCHEM_LOGP>
5.395462575666666

> <ALOGPS_LOGS>
-5.50

> <JCHEM_MDDR_LIKE_RULE>
1

> <JCHEM_NUMBER_OF_RINGS>
6

> <JCHEM_PHYSIOLOGICAL_CHARGE>
1

> <JCHEM_PKA>
15.34350477381454

> <JCHEM_PKA_STRONGEST_ACIDIC>
9.999251529401311

> <JCHEM_PKA_STRONGEST_BASIC>
8.018023177421071

> <JCHEM_POLAR_SURFACE_AREA>
126.0

> <JCHEM_REFRACTIVITY>
181.50439999999995

> <JCHEM_ROTATABLE_BOND_COUNT>
11

> <JCHEM_RULE_OF_FIVE>
0

> <ALOGPS_SOLUBILITY>
2.04e-03 g/l

> <JCHEM_TRADITIONAL_IUPAC>
1-(2-methoxy-5-methylphenyl)-3-[6-({6-methoxy-7-[3-(4-methylpiperazin-1-yl)propoxy]quinazolin-4-yl}amino)-1,3-benzothiazol-2-yl]urea

> <JCHEM_VEBER_RULE>
0

> <DRUGBANK_ID>
DB12669

> <DRUG_GROUPS>
investigational

> <GENERIC_NAME>
4SC-203

$$$$
