
  Mrv1652310201623222D          

 13 14  0  0  0  0            999 V2000
    0.7145   -2.8875    0.0000 C   0  0  0  0  0  0  0  0  0  0  0  0
    0.0000   -2.4750    0.0000 C   0  0  0  0  0  0  0  0  0  0  0  0
    0.0000   -1.6500    0.0000 N   0  0  0  0  0  0  0  0  0  0  0  0
    0.7145   -1.2375    0.0000 C   0  0  0  0  0  0  0  0  0  0  0  0
    1.4289   -1.6500    0.0000 C   0  0  0  0  0  0  0  0  0  0  0  0
    1.4289   -2.4750    0.0000 N   0  0  0  0  0  0  0  0  0  0  0  0
    0.7145   -0.4125    0.0000 Cl  0  0  0  0  0  0  0  0  0  0  0  0
   -0.7145   -2.8875    0.0000 N   0  0  0  0  0  0  0  0  0  0  0  0
   -0.7145   -3.7125    0.0000 C   0  0  0  0  0  0  0  0  0  0  0  0
   -1.4289   -4.1250    0.0000 C   0  0  0  0  0  0  0  0  0  0  0  0
   -2.1434   -3.7125    0.0000 N   0  0  0  0  0  0  0  0  0  0  0  0
   -2.1434   -2.8875    0.0000 C   0  0  0  0  0  0  0  0  0  0  0  0
   -1.4289   -2.4750    0.0000 C   0  0  0  0  0  0  0  0  0  0  0  0
  1  2  2  0  0  0  0
  2  3  1  0  0  0  0
  3  4  2  0  0  0  0
  4  5  1  0  0  0  0
  5  6  2  0  0  0  0
  1  6  1  0  0  0  0
  4  7  1  0  0  0  0
  2  8  1  0  0  0  0
  8  9  1  0  0  0  0
  9 10  1  0  0  0  0
 10 11  1  0  0  0  0
 11 12  1  0  0  0  0
 12 13  1  0  0  0  0
  8 13  1  0  0  0  0
M  END
> <DATABASE_ID>
DB12111

> <DATABASE_NAME>
drugbank

> <SMILES>
ClC1=NC(=CN=C1)N1CCNCC1

> <INCHI_IDENTIFIER>
InChI=1S/C8H11ClN4/c9-7-5-11-6-8(12-7)13-3-1-10-2-4-13/h5-6,10H,1-4H2

> <INCHI_KEY>
CJAWPFJGFFNXQI-UHFFFAOYSA-N

> <FORMULA>
C8H11ClN4

> <MOLECULAR_WEIGHT>
198.65

> <EXACT_MASS>
198.0672241

> <JCHEM_ACCEPTOR_COUNT>
4

> <JCHEM_ATOM_COUNT>
24

> <JCHEM_AVERAGE_POLARIZABILITY>
19.724749680620203

> <JCHEM_BIOAVAILABILITY>
1

> <JCHEM_DONOR_COUNT>
1

> <JCHEM_FORMAL_CHARGE>
0

> <JCHEM_GHOSE_FILTER>
1

> <JCHEM_IUPAC>
2-chloro-6-(piperazin-1-yl)pyrazine

> <ALOGPS_LOGP>
0.97

> <JCHEM_LOGP>
0.5286958456666666

> <ALOGPS_LOGS>
-2.29

> <JCHEM_MDDR_LIKE_RULE>
0

> <JCHEM_NUMBER_OF_RINGS>
2

> <JCHEM_PHYSIOLOGICAL_CHARGE>
1

> <JCHEM_PKA_STRONGEST_BASIC>
8.726346565966693

> <JCHEM_POLAR_SURFACE_AREA>
41.050000000000004

> <JCHEM_REFRACTIVITY>
53.107800000000005

> <JCHEM_ROTATABLE_BOND_COUNT>
1

> <JCHEM_RULE_OF_FIVE>
1

> <ALOGPS_SOLUBILITY>
1.03e+00 g/l

> <JCHEM_TRADITIONAL_IUPAC>
2-chloro-6-(piperazin-1-yl)pyrazine

> <JCHEM_VEBER_RULE>
0

> <DRUGBANK_ID>
DB12111

> <DRUG_GROUPS>
investigational

> <GENERIC_NAME>
MK-212

> <SYNONYMS>
CPP

> <SALTS>
MK-212 hydrochloride

$$$$
