
  Mrv1652306131721592D          

 28 31  0  0  0  0            999 V2000
    3.3523    1.9354    0.0000 C   0  0  0  0  0  0  0  0  0  0  0  0
    3.3523    1.1104    0.0000 C   0  0  0  0  0  0  0  0  0  0  0  0
    2.6378    0.6979    0.0000 C   0  0  0  0  0  0  0  0  0  0  0  0
    1.9233    1.1104    0.0000 C   0  0  0  0  0  0  0  0  0  0  0  0
    1.9233    1.9354    0.0000 C   0  0  0  0  0  0  0  0  0  0  0  0
    2.6378    2.3479    0.0000 C   0  0  0  0  0  0  0  0  0  0  0  0
    1.1387    2.1904    0.0000 C   0  0  0  0  0  0  0  0  0  0  0  0
    0.6538    1.5229    0.0000 C   0  0  0  0  0  0  0  0  0  0  0  0
    1.1387    0.8555    0.0000 N   0  0  0  0  0  0  0  0  0  0  0  0
    0.8838    0.0709    0.0000 C   0  0  0  0  0  0  0  0  0  0  0  0
    1.4358   -0.5422    0.0000 C   0  0  0  0  0  0  0  0  0  0  0  0
    2.2428   -0.3707    0.0000 C   0  0  0  0  0  0  0  0  0  0  0  0
    2.7948   -0.9838    0.0000 C   0  0  0  0  0  0  0  0  0  0  0  0
    2.5399   -1.7684    0.0000 C   0  0  0  0  0  0  0  0  0  0  0  0
    1.7329   -1.9399    0.0000 C   0  0  0  0  0  0  0  0  0  0  0  0
    1.1809   -1.3268    0.0000 C   0  0  0  0  0  0  0  0  0  0  0  0
    3.0919   -2.3815    0.0000 Cl  0  0  0  0  0  0  0  0  0  0  0  0
    0.8838    2.9750    0.0000 C   0  0  0  0  0  0  0  0  0  0  0  0
    0.0768    3.1465    0.0000 O   0  0  0  0  0  0  0  0  0  0  0  0
    1.4358    3.5881    0.0000 C   0  0  0  0  0  0  0  0  0  0  0  0
    2.2428    3.4166    0.0000 O   0  0  0  0  0  0  0  0  0  0  0  0
    1.1809    4.3727    0.0000 N   0  0  0  0  0  0  0  0  0  0  0  0
    1.7329    4.9858    0.0000 C   0  0  0  0  0  0  0  0  0  0  0  0
    1.4780    5.7704    0.0000 C   0  0  0  0  0  0  0  0  0  0  0  0
    2.0300    6.3835    0.0000 C   0  0  0  0  0  0  0  0  0  0  0  0
    2.8370    6.2120    0.0000 N   0  0  0  0  0  0  0  0  0  0  0  0
    3.0919    5.4274    0.0000 C   0  0  0  0  0  0  0  0  0  0  0  0
    2.5399    4.8143    0.0000 C   0  0  0  0  0  0  0  0  0  0  0  0
  1  2  2  0  0  0  0
  2  3  1  0  0  0  0
  3  4  2  0  0  0  0
  4  5  1  0  0  0  0
  5  6  2  0  0  0  0
  1  6  1  0  0  0  0
  5  7  1  0  0  0  0
  7  8  2  0  0  0  0
  8  9  1  0  0  0  0
  4  9  1  0  0  0  0
  9 10  1  0  0  0  0
 10 11  1  0  0  0  0
 11 12  2  0  0  0  0
 12 13  1  0  0  0  0
 13 14  2  0  0  0  0
 14 15  1  0  0  0  0
 15 16  2  0  0  0  0
 11 16  1  0  0  0  0
 14 17  1  0  0  0  0
  7 18  1  0  0  0  0
 18 19  2  0  0  0  0
 18 20  1  0  0  0  0
 20 21  2  0  0  0  0
 20 22  1  0  0  0  0
 22 23  1  0  0  0  0
 23 24  2  0  0  0  0
 24 25  1  0  0  0  0
 25 26  2  0  0  0  0
 26 27  1  0  0  0  0
 27 28  2  0  0  0  0
 23 28  1  0  0  0  0
M  END
> <DATABASE_ID>
DB06169

> <DATABASE_NAME>
drugbank

> <SMILES>
ClC1=CC=C(CN2C=C(C(=O)C(=O)NC3=CC=NC=C3)C3=CC=CC=C23)C=C1

> <INCHI_IDENTIFIER>
InChI=1S/C22H16ClN3O2/c23-16-7-5-15(6-8-16)13-26-14-19(18-3-1-2-4-20(18)26)21(27)22(28)25-17-9-11-24-12-10-17/h1-12,14H,13H2,(H,24,25,28)

> <INCHI_KEY>
SOLIIYNRSAWTSQ-UHFFFAOYSA-N

> <FORMULA>
C22H16ClN3O2

> <MOLECULAR_WEIGHT>
389.84

> <EXACT_MASS>
389.0931045

> <JCHEM_ACCEPTOR_COUNT>
3

> <JCHEM_ATOM_COUNT>
44

> <JCHEM_AVERAGE_POLARIZABILITY>
39.85350522025271

> <JCHEM_BIOAVAILABILITY>
1

> <JCHEM_DONOR_COUNT>
1

> <JCHEM_FORMAL_CHARGE>
0

> <JCHEM_GHOSE_FILTER>
1

> <JCHEM_IUPAC>
2-{1-[(4-chlorophenyl)methyl]-1H-indol-3-yl}-2-oxo-N-(pyridin-4-yl)acetamide

> <ALOGPS_LOGP>
3.98

> <JCHEM_LOGP>
4.3580728026666655

> <ALOGPS_LOGS>
-5.41

> <JCHEM_MDDR_LIKE_RULE>
0

> <JCHEM_NUMBER_OF_RINGS>
4

> <JCHEM_PHYSIOLOGICAL_CHARGE>
0

> <JCHEM_PKA_STRONGEST_ACIDIC>
11.219854923845645

> <JCHEM_PKA_STRONGEST_BASIC>
5.512413349550984

> <JCHEM_POLAR_SURFACE_AREA>
63.99

> <JCHEM_REFRACTIVITY>
109.77669999999998

> <JCHEM_ROTATABLE_BOND_COUNT>
5

> <JCHEM_RULE_OF_FIVE>
1

> <ALOGPS_SOLUBILITY>
1.51e-03 g/l

> <JCHEM_TRADITIONAL_IUPAC>
indibulin

> <JCHEM_VEBER_RULE>
0

> <DRUGBANK_ID>
DB06169

> <DRUG_GROUPS>
investigational

> <GENERIC_NAME>
Indibulin

> <SYNONYMS>
Indibulin

$$$$
