
  Mrv1718004251815062D          

 13 12  0  0  0  0            999 V2000
    1.7861    0.2062    0.0000 C   0  0  0  0  0  0  0  0  0  0  0  0
    1.0717   -0.2062    0.0000 C   0  0  1  0  0  0  0  0  0  0  0  0
    0.3572    0.2062    0.0000 C   0  0  2  0  0  0  0  0  0  0  0  0
   -0.3572   -0.2062    0.0000 C   0  0  2  0  0  0  0  0  0  0  0  0
   -1.0716    0.2062    0.0000 C   0  0  2  0  0  0  0  0  0  0  0  0
    1.7861    1.0312    0.0000 O   0  0  0  0  0  0  0  0  0  0  0  0
    1.0717   -1.0312    0.0000 O   0  0  0  0  0  0  0  0  0  0  0  0
    0.3572    1.0312    0.0000 O   0  0  0  0  0  0  0  0  0  0  0  0
   -0.3572   -1.0312    0.0000 O   0  0  0  0  0  0  0  0  0  0  0  0
   -1.0716    1.0312    0.0000 O   0  0  0  0  0  0  0  0  0  0  0  0
    2.5006   -0.2062    0.0000 H   0  0  0  0  0  0  0  0  0  0  0  0
   -1.7861   -0.2062    0.0000 C   0  0  0  0  0  0  0  0  0  0  0  0
   -2.5006    0.2062    0.0000 O   0  0  0  0  0  0  0  0  0  0  0  0
  6  1  2  0  0  0  0
  2  1  1  0  0  0  0
 11  1  1  0  0  0  0
  2  7  1  6  0  0  0
  3  2  1  0  0  0  0
  3  8  1  6  0  0  0
  4  3  1  0  0  0  0
  4  9  1  1  0  0  0
  5  4  1  0  0  0  0
  5 10  1  1  0  0  0
 12  5  1  0  0  0  0
 12 13  1  0  0  0  0
M  END
> <DATABASE_ID>
DB11735

> <DATABASE_NAME>
drugbank

> <SMILES>
[H]C(=O)[C@H](O)[C@@H](O)[C@@H](O)[C@H](O)CO

> <INCHI_IDENTIFIER>
InChI=1S/C6H12O6/c7-1-3(9)5(11)6(12)4(10)2-8/h1,3-6,8-12H,2H2/t3-,4+,5+,6-/m0/s1

> <INCHI_KEY>
GZCGUPFRVQAUEE-KCDKBNATSA-N

> <FORMULA>
C6H12O6

> <MOLECULAR_WEIGHT>
180.1559

> <EXACT_MASS>
180.063388116

> <JCHEM_ACCEPTOR_COUNT>
6

> <JCHEM_ATOM_COUNT>
24

> <JCHEM_AVERAGE_POLARIZABILITY>
16.129005311291724

> <JCHEM_BIOAVAILABILITY>
1

> <JCHEM_DONOR_COUNT>
5

> <JCHEM_FORMAL_CHARGE>
0

> <JCHEM_GHOSE_FILTER>
0

> <JCHEM_IUPAC>
(2R,3S,4S,5R)-2,3,4,5,6-pentahydroxyhexanal

> <ALOGPS_LOGP>
-2.41

> <JCHEM_LOGP>
-3.5683605629999993

> <ALOGPS_LOGS>
0.16

> <JCHEM_MDDR_LIKE_RULE>
0

> <JCHEM_NUMBER_OF_RINGS>
0

> <JCHEM_PHYSIOLOGICAL_CHARGE>
0

> <JCHEM_PKA>
13.072469985141602

> <JCHEM_PKA_STRONGEST_ACIDIC>
12.261226271016957

> <JCHEM_PKA_STRONGEST_BASIC>
-2.974219876255926

> <JCHEM_POLAR_SURFACE_AREA>
118.22000000000001

> <JCHEM_REFRACTIVITY>
37.3456

> <JCHEM_ROTATABLE_BOND_COUNT>
5

> <JCHEM_RULE_OF_FIVE>
1

> <ALOGPS_SOLUBILITY>
2.61e+02 g/l

> <JCHEM_TRADITIONAL_IUPAC>
aldehydo-D-galactose

> <JCHEM_VEBER_RULE>
0

> <DRUGBANK_ID>
DB11735

> <DRUG_GROUPS>
approved; investigational

> <GENERIC_NAME>
Galactose

> <SYNONYMS>
D-Galactose; D(+)-Galactose; Galactose

> <PRODUCTS>
Echovist; Levovist - Pws IV (4g Granules /vial)

$$$$
