
  Mrv1909 05201915222D          

 38 43  0  0  0  0            999 V2000
    4.2468   -4.0634    0.0000 F   0  0  0  0  0  0  0  0  0  0  0  0
    3.5323   -3.6509    0.0000 C   0  0  0  0  0  0  0  0  0  0  0  0
    2.8179   -4.0634    0.0000 C   0  0  0  0  0  0  0  0  0  0  0  0
    2.1034   -3.6509    0.0000 C   0  0  0  0  0  0  0  0  0  0  0  0
    2.1034   -2.8259    0.0000 C   0  0  0  0  0  0  0  0  0  0  0  0
    2.8179   -2.4134    0.0000 C   0  0  0  0  0  0  0  0  0  0  0  0
    3.5323   -2.8259    0.0000 C   0  0  0  0  0  0  0  0  0  0  0  0
    1.3889   -2.4134    0.0000 C   0  0  0  0  0  0  0  0  0  0  0  0
    0.6745   -2.8259    0.0000 N   0  0  0  0  0  0  0  0  0  0  0  0
   -0.0400   -2.4134    0.0000 N   0  0  0  0  0  0  0  0  0  0  0  0
   -0.8246   -2.6683    0.0000 C   0  0  0  0  0  0  0  0  0  0  0  0
   -1.0796   -3.4530    0.0000 S   0  0  0  0  0  0  0  0  0  0  0  0
   -0.5275   -4.0660    0.0000 C   0  0  0  0  0  0  0  0  0  0  0  0
    0.2794   -3.8945    0.0000 C   0  0  0  0  0  0  0  0  0  0  0  0
    0.8315   -4.5076    0.0000 C   0  0  0  0  0  0  0  0  0  0  0  0
    0.5765   -5.2922    0.0000 C   0  0  0  0  0  0  0  0  0  0  0  0
    0.9890   -6.0067    0.0000 N   0  0  0  0  0  0  0  0  0  0  0  0
    0.4370   -6.6198    0.0000 C   0  0  0  0  0  0  0  0  0  0  0  0
    0.6085   -7.4268    0.0000 N   0  0  0  0  0  0  0  0  0  0  0  0
   -0.0046   -7.9788    0.0000 C   0  0  0  0  0  0  0  0  0  0  0  0
   -0.7892   -7.7239    0.0000 O   0  0  0  0  0  0  0  0  0  0  0  0
    0.1670   -8.7858    0.0000 N   0  0  0  0  0  0  0  0  0  0  0  0
   -0.4461   -9.3378    0.0000 C   0  0  0  0  0  0  0  0  0  0  0  0
   -0.2746  -10.1448    0.0000 C   0  0  0  0  0  0  0  0  0  0  0  0
   -0.8877  -10.6968    0.0000 N   0  0  0  0  0  0  0  0  0  0  0  0
   -0.7162  -11.5038    0.0000 C   0  0  0  0  0  0  0  0  0  0  0  0
   -1.3293  -12.0558    0.0000 C   0  0  0  0  0  0  0  0  0  0  0  0
   -2.1139  -11.8009    0.0000 O   0  0  0  0  0  0  0  0  0  0  0  0
   -2.2854  -10.9939    0.0000 C   0  0  0  0  0  0  0  0  0  0  0  0
   -1.6723  -10.4419    0.0000 C   0  0  0  0  0  0  0  0  0  0  0  0
   -0.3167   -6.2842    0.0000 S   0  0  0  0  0  0  0  0  0  0  0  0
   -0.2304   -5.4638    0.0000 C   0  0  0  0  0  0  0  0  0  0  0  0
   -0.7825   -4.8507    0.0000 C   0  0  0  0  0  0  0  0  0  0  0  0
   -1.3096   -2.0009    0.0000 N   0  0  0  0  0  0  0  0  0  0  0  0
   -0.8246   -1.3335    0.0000 N   0  0  0  0  0  0  0  0  0  0  0  0
   -0.0400   -1.5884    0.0000 C   0  0  0  0  0  0  0  0  0  0  0  0
    0.6745   -1.1759    0.0000 C   0  0  0  0  0  0  0  0  0  0  0  0
    1.3889   -1.5884    0.0000 C   0  0  0  0  0  0  0  0  0  0  0  0
  1  2  1  0  0  0  0
  2  3  2  0  0  0  0
  3  4  1  0  0  0  0
  4  5  2  0  0  0  0
  5  6  1  0  0  0  0
  6  7  2  0  0  0  0
  2  7  1  0  0  0  0
  5  8  1  0  0  0  0
  8  9  2  0  0  0  0
  9 10  1  0  0  0  0
 10 11  1  0  0  0  0
 11 12  1  0  0  0  0
 12 13  1  0  0  0  0
 13 14  2  0  0  0  0
 14 15  1  0  0  0  0
 15 16  2  0  0  0  0
 16 17  1  0  0  0  0
 17 18  2  0  0  0  0
 18 19  1  0  0  0  0
 19 20  1  0  0  0  0
 20 21  2  0  0  0  0
 20 22  1  0  0  0  0
 22 23  1  0  0  0  0
 23 24  1  0  0  0  0
 24 25  1  0  0  0  0
 25 26  1  0  0  0  0
 26 27  1  0  0  0  0
 27 28  1  0  0  0  0
 28 29  1  0  0  0  0
 29 30  1  0  0  0  0
 25 30  1  0  0  0  0
 18 31  1  0  0  0  0
 31 32  1  0  0  0  0
 16 32  1  0  0  0  0
 32 33  2  0  0  0  0
 13 33  1  0  0  0  0
 11 34  2  0  0  0  0
 34 35  1  0  0  0  0
 35 36  2  0  0  0  0
 10 36  1  0  0  0  0
 36 37  1  0  0  0  0
 37 38  2  0  0  0  0
  8 38  1  0  0  0  0
M  END
> <DATABASE_ID>
DB15382

> <DATABASE_NAME>
drugbank

> <SMILES>
FC1=CC=C(C=C1)C1=NN2C(SC3=CC=C4N=C(NC(=O)NCCN5CCOCC5)SC4=C3)=NN=C2C=C1

> <INCHI_IDENTIFIER>
InChI=1S/C25H23FN8O2S2/c26-17-3-1-16(2-4-17)19-7-8-22-30-31-25(34(22)32-19)37-18-5-6-20-21(15-18)38-24(28-20)29-23(35)27-9-10-33-11-13-36-14-12-33/h1-8,15H,9-14H2,(H2,27,28,29,35)

> <INCHI_KEY>
ODIUNTQOXRXOIV-UHFFFAOYSA-N

> <FORMULA>
C25H23FN8O2S2

> <MOLECULAR_WEIGHT>
550.63

> <EXACT_MASS>
550.136942524

> <JCHEM_ACCEPTOR_COUNT>
7

> <JCHEM_ATOM_COUNT>
61

> <JCHEM_AVERAGE_POLARIZABILITY>
55.093764136177136

> <JCHEM_BIOAVAILABILITY>
1

> <JCHEM_DONOR_COUNT>
2

> <JCHEM_FORMAL_CHARGE>
0

> <JCHEM_GHOSE_FILTER>
0

> <JCHEM_IUPAC>
3-(6-{[6-(4-fluorophenyl)-[1,2,4]triazolo[4,3-b]pyridazin-3-yl]sulfanyl}-1,3-benzothiazol-2-yl)-1-[2-(morpholin-4-yl)ethyl]urea

> <ALOGPS_LOGP>
3.34

> <JCHEM_LOGP>
4.38855424416204

> <ALOGPS_LOGS>
-5.54

> <JCHEM_MDDR_LIKE_RULE>
1

> <JCHEM_NUMBER_OF_RINGS>
6

> <JCHEM_PHYSIOLOGICAL_CHARGE>
0

> <JCHEM_PKA_STRONGEST_ACIDIC>
7.803625269923495

> <JCHEM_PKA_STRONGEST_BASIC>
6.022746750604206

> <JCHEM_POLAR_SURFACE_AREA>
109.57

> <JCHEM_REFRACTIVITY>
157.20179999999993

> <JCHEM_ROTATABLE_BOND_COUNT>
7

> <JCHEM_RULE_OF_FIVE>
0

> <ALOGPS_SOLUBILITY>
1.57e-03 g/l

> <JCHEM_TRADITIONAL_IUPAC>
(2R)-14-fluoro-2-methyl-6,9,10,19-tetraazapentacyclo[14.2.1.0^{2,6}.0^{8,18}.0^{12,17}]nonadeca-1(18),8,12(17),13,15-pentaen-11-one

> <JCHEM_VEBER_RULE>
0

> <DRUGBANK_ID>
DB15382

> <DRUG_GROUPS>
investigational

> <GENERIC_NAME>
SAR-125844

$$$$
