
  Mrv1909 02112021162D          

 14 14  0  0  0  0            999 V2000
   -2.8576    0.3877    0.0000 O   0  0  0  0  0  0  0  0  0  0  0  0
   -0.0094    1.2456    0.0000 O   0  0  0  0  0  0  0  0  0  0  0  0
    2.8577    0.4536    0.0000 O   0  0  0  0  0  0  0  0  0  0  0  0
    2.1575   -0.7919    0.0000 O   0  0  0  0  0  0  0  0  0  0  0  0
    0.7191    0.0164    0.0000 N   0  0  0  0  0  0  0  0  0  0  0  0
   -0.7094    0.0000    0.0000 C   0  0  0  0  0  0  0  0  0  0  0  0
    0.0000    0.4206    0.0000 C   0  0  0  0  0  0  0  0  0  0  0  0
   -1.4287    0.4042    0.0000 C   0  0  0  0  0  0  0  0  0  0  0  0
   -0.6999   -0.8249    0.0000 C   0  0  0  0  0  0  0  0  0  0  0  0
    1.4288    0.4371    0.0000 C   0  0  0  0  0  0  0  0  0  0  0  0
   -2.1384   -0.0164    0.0000 C   0  0  0  0  0  0  0  0  0  0  0  0
   -1.4097   -1.2456    0.0000 C   0  0  0  0  0  0  0  0  0  0  0  0
   -2.1288   -0.8414    0.0000 C   0  0  0  0  0  0  0  0  0  0  0  0
    2.1480    0.0329    0.0000 C   0  0  0  0  0  0  0  0  0  0  0  0
  1 11  1  0  0  0  0
  2  7  2  0  0  0  0
  3 14  1  0  0  0  0
  4 14  2  0  0  0  0
  5  7  1  0  0  0  0
  5 10  1  0  0  0  0
  6  7  1  0  0  0  0
  6  8  2  0  0  0  0
  6  9  1  0  0  0  0
  8 11  1  0  0  0  0
  9 12  2  0  0  0  0
 10 14  1  0  0  0  0
 11 13  2  0  0  0  0
 12 13  1  0  0  0  0
M  END
> <DATABASE_ID>
DB07069

> <DATABASE_NAME>
drugbank

> <SMILES>
OC(=O)CNC(=O)C1=CC(O)=CC=C1

> <INCHI_IDENTIFIER>
InChI=1S/C9H9NO4/c11-7-3-1-2-6(4-7)9(14)10-5-8(12)13/h1-4,11H,5H2,(H,10,14)(H,12,13)

> <INCHI_KEY>
XDOFWFNMYJRHEW-UHFFFAOYSA-N

> <FORMULA>
C9H9NO4

> <MOLECULAR_WEIGHT>
195.1721

> <EXACT_MASS>
195.053157781

> <JCHEM_ACCEPTOR_COUNT>
4

> <JCHEM_ATOM_COUNT>
23

> <JCHEM_AVERAGE_NEUTRAL_MICROSPECIES_CHARGE>
0.03649145685937511

> <JCHEM_AVERAGE_POLARIZABILITY>
18.512117298476493

> <JCHEM_BIOAVAILABILITY>
1

> <JCHEM_DONOR_COUNT>
3

> <JCHEM_FORMAL_CHARGE>
0

> <JCHEM_GHOSE_FILTER>
1

> <JCHEM_IUPAC>
2-[(3-hydroxyphenyl)formamido]acetic acid

> <ALOGPS_LOGP>
0.52

> <JCHEM_LOGP>
0.2219801626666666

> <ALOGPS_LOGS>
-1.83

> <JCHEM_MDDR_LIKE_RULE>
0

> <JCHEM_NEUTRAL_CHARGE>
-1

> <JCHEM_NUMBER_OF_RINGS>
1

> <JCHEM_PHYSIOLOGICAL_CHARGE>
-1

> <JCHEM_PKA>
8.826079128411925

> <JCHEM_PKA_STRONGEST_ACIDIC>
3.2466748656262534

> <JCHEM_PKA_STRONGEST_BASIC>
-1.4147203141199358

> <JCHEM_POLAR_SURFACE_AREA>
86.63

> <JCHEM_REFRACTIVITY>
48.09860000000001

> <JCHEM_ROTATABLE_BOND_COUNT>
3

> <JCHEM_RULE_OF_FIVE>
1

> <ALOGPS_SOLUBILITY>
2.91e+00 g/l

> <JCHEM_TRADITIONAL_IUPAC>
3-hydroxyhippuric acid

> <JCHEM_VEBER_RULE>
0

> <DRUGBANK_ID>
DB07069

> <DRUG_GROUPS>
experimental

> <GENERIC_NAME>
m-Hydroxyhippuric acid

> <SYNONYMS>
2-[(3-hydroxyphenyl)formamido]acetic acid; 3-hydroxyhippuric acid; N-m-Hydroxylbenzoylglycine

$$$$
