
  Mrv1909 12152018122D          

 35 38  0  0  0  0            999 V2000
   -1.3222   -0.0616    0.0000 N   0  0  0  0  0  0  0  0  0  0  0  0
   -2.0367   -0.4741    0.0000 C   0  0  0  0  0  0  0  0  0  0  0  0
   -2.0367   -1.2991    0.0000 N   0  0  0  0  0  0  0  0  0  0  0  0
   -2.7512   -1.7116    0.0000 C   0  0  0  0  0  0  0  0  0  0  0  0
   -2.7512   -2.5366    0.0000 S   0  0  0  0  0  0  0  0  0  0  0  0
   -2.0367   -2.9491    0.0000 C   0  0  0  0  0  0  0  0  0  0  0  0
   -2.0367   -3.7741    0.0000 C   0  0  0  0  0  0  0  0  0  0  0  0
   -1.3693   -4.2590    0.0000 C   0  0  0  0  0  0  0  0  0  0  0  0
   -1.6242   -5.0437    0.0000 S   0  0  0  0  0  0  0  0  0  0  0  0
   -2.4492   -5.0437    0.0000 C   0  0  0  0  0  0  0  0  0  0  0  0
   -2.7041   -4.2590    0.0000 N   0  0  0  0  0  0  0  0  0  0  0  0
   -2.9341   -5.7111    0.0000 C   0  0  0  0  0  0  0  0  0  0  0  0
   -2.5986   -6.4648    0.0000 C   0  0  0  0  0  0  0  0  0  0  0  0
   -3.0835   -7.1322    0.0000 C   0  0  0  0  0  0  0  0  0  0  0  0
   -3.9040   -7.0460    0.0000 C   0  0  0  0  0  0  0  0  0  0  0  0
   -4.3889   -7.7134    0.0000 Cl  0  0  0  0  0  0  0  0  0  0  0  0
   -4.2395   -6.2923    0.0000 C   0  0  0  0  0  0  0  0  0  0  0  0
   -3.7546   -5.6249    0.0000 C   0  0  0  0  0  0  0  0  0  0  0  0
   -3.4656   -1.2991    0.0000 C   0  0  0  0  0  0  0  0  0  0  0  0
   -4.1801   -1.7116    0.0000 C   0  0  0  0  0  0  0  0  0  0  0  0
   -4.8946   -2.1241    0.0000 N   0  0  0  0  0  0  0  0  0  0  0  0
   -3.4656   -0.4741    0.0000 C   0  0  0  0  0  0  0  0  0  0  0  0
   -4.1801   -0.0616    0.0000 C   0  0  0  0  0  0  0  0  0  0  0  0
   -4.8946   -0.4741    0.0000 C   0  0  0  0  0  0  0  0  0  0  0  0
   -5.6091   -0.0616    0.0000 C   0  0  0  0  0  0  0  0  0  0  0  0
   -5.6091    0.7634    0.0000 C   0  0  0  0  0  0  0  0  0  0  0  0
   -6.3235    1.1759    0.0000 O   0  0  0  0  0  0  0  0  0  0  0  0
   -7.0380    0.7634    0.0000 C   0  0  0  0  0  0  0  0  0  0  0  0
   -7.7525    1.1759    0.0000 C   0  0  0  0  0  0  0  0  0  0  0  0
   -7.7525    2.0009    0.0000 O   0  0  0  0  0  0  0  0  0  0  0  0
   -4.8946    1.1759    0.0000 C   0  0  0  0  0  0  0  0  0  0  0  0
   -4.1801    0.7634    0.0000 C   0  0  0  0  0  0  0  0  0  0  0  0
   -2.7512   -0.0616    0.0000 C   0  0  0  0  0  0  0  0  0  0  0  0
   -2.7512    0.7634    0.0000 C   0  0  0  0  0  0  0  0  0  0  0  0
   -2.7512    1.5884    0.0000 N   0  0  0  0  0  0  0  0  0  0  0  0
  1  2  1  0  0  0  0
  2  3  2  0  0  0  0
  3  4  1  0  0  0  0
  4  5  1  0  0  0  0
  5  6  1  0  0  0  0
  6  7  1  0  0  0  0
  7  8  2  0  0  0  0
  8  9  1  0  0  0  0
  9 10  1  0  0  0  0
 10 11  2  0  0  0  0
  7 11  1  0  0  0  0
 10 12  1  0  0  0  0
 12 13  2  0  0  0  0
 13 14  1  0  0  0  0
 14 15  2  0  0  0  0
 15 16  1  0  0  0  0
 15 17  1  0  0  0  0
 17 18  2  0  0  0  0
 12 18  1  0  0  0  0
  4 19  2  0  0  0  0
 19 20  1  0  0  0  0
 20 21  3  0  0  0  0
 19 22  1  0  0  0  0
 22 23  1  0  0  0  0
 23 24  2  0  0  0  0
 24 25  1  0  0  0  0
 25 26  2  0  0  0  0
 26 27  1  0  0  0  0
 27 28  1  0  0  0  0
 28 29  1  0  0  0  0
 29 30  1  0  0  0  0
 26 31  1  0  0  0  0
 31 32  2  0  0  0  0
 23 32  1  0  0  0  0
 22 33  2  0  0  0  0
  2 33  1  0  0  0  0
 33 34  1  0  0  0  0
 34 35  3  0  0  0  0
M  END
> <DATABASE_ID>
DB16118

> <DATABASE_NAME>
drugbank

> <SMILES>
NC1=NC(SCC2=CSC(=N2)C2=CC=C(Cl)C=C2)=C(C#N)C(C2=CC=C(OCCO)C=C2)=C1C#N

> <INCHI_IDENTIFIER>
InChI=1S/C25H18ClN5O2S2/c26-17-5-1-16(2-6-17)24-30-18(13-34-24)14-35-25-21(12-28)22(20(11-27)23(29)31-25)15-3-7-19(8-4-15)33-10-9-32/h1-8,13,32H,9-10,14H2,(H2,29,31)

> <INCHI_KEY>
CITWCLNVRIKQAF-UHFFFAOYSA-N

> <FORMULA>
C25H18ClN5O2S2

> <MOLECULAR_WEIGHT>
520.02

> <EXACT_MASS>
519.0590449

> <JCHEM_ACCEPTOR_COUNT>
7

> <JCHEM_ATOM_COUNT>
53

> <JCHEM_AVERAGE_NEUTRAL_MICROSPECIES_CHARGE>
1.0170901296114852e-05

> <JCHEM_AVERAGE_POLARIZABILITY>
52.627708796538386

> <JCHEM_BIOAVAILABILITY>
0

> <JCHEM_DONOR_COUNT>
2

> <JCHEM_FORMAL_CHARGE>
0

> <JCHEM_GHOSE_FILTER>
0

> <JCHEM_IUPAC>
2-amino-6-({[2-(4-chlorophenyl)-1,3-thiazol-4-yl]methyl}sulfanyl)-4-[4-(2-hydroxyethoxy)phenyl]pyridine-3,5-dicarbonitrile

> <ALOGPS_LOGP>
4.08

> <JCHEM_LOGP>
5.037642915

> <ALOGPS_LOGS>
-4.72

> <JCHEM_MDDR_LIKE_RULE>
1

> <JCHEM_NEUTRAL_CHARGE>
0

> <JCHEM_NUMBER_OF_RINGS>
4

> <JCHEM_PHYSIOLOGICAL_CHARGE>
0

> <JCHEM_PKA>
18.57178499580582

> <JCHEM_PKA_STRONGEST_ACIDIC>
15.102025751083298

> <JCHEM_PKA_STRONGEST_BASIC>
2.0077469164904564

> <JCHEM_POLAR_SURFACE_AREA>
128.84

> <JCHEM_REFRACTIVITY>
150.67509999999996

> <JCHEM_ROTATABLE_BOND_COUNT>
8

> <JCHEM_RULE_OF_FIVE>
0

> <ALOGPS_SOLUBILITY>
9.82e-03 g/l

> <JCHEM_TRADITIONAL_IUPAC>
2-methoxy-4-[(1E)-3-[4-(nitrooxy)butoxy]-3-oxoprop-1-en-1-yl]phenyl (4R)-4-[(1R,3aS,3bR,4S,5aS,7R,9aS,9bS,11aR)-4,7-dihydroxy-9a,11a-dimethyl-tetradecahydro-1H-cyclopenta[a]phenanthren-1-yl]pentanoate

> <JCHEM_VEBER_RULE>
0

> <DRUGBANK_ID>
DB16118

> <DRUG_GROUPS>
investigational

> <GENERIC_NAME>
Capadenoson

> <SYNONYMS>
Capadenoson

$$$$
