
  Mrv1652310201622572D          

 36 40  0  0  0  0            999 V2000
   -1.4534   -2.1269    0.0000 C   0  0  0  0  0  0  0  0  0  0  0  0
   -1.8659   -1.4124    0.0000 N   0  0  0  0  0  0  0  0  0  0  0  0
   -1.4534   -0.6979    0.0000 C   0  0  0  0  0  0  0  0  0  0  0  0
   -0.6284   -0.6979    0.0000 C   0  0  0  0  0  0  0  0  0  0  0  0
   -0.1435   -1.3654    0.0000 C   0  0  0  0  0  0  0  0  0  0  0  0
    0.6411   -1.1104    0.0000 C   0  0  0  0  0  0  0  0  0  0  0  0
    0.6411   -0.2854    0.0000 C   0  0  0  0  0  0  0  0  0  0  0  0
   -0.1435   -0.0305    0.0000 S   0  0  0  0  0  0  0  0  0  0  0  0
    1.3556    0.1271    0.0000 C   0  0  0  0  0  0  0  0  0  0  0  0
    2.0701   -0.2854    0.0000 N   0  0  0  0  0  0  0  0  0  0  0  0
    2.0701   -1.1104    0.0000 C   0  0  0  0  0  0  0  0  0  0  0  0
    1.3556   -1.5229    0.0000 N   0  0  0  0  0  0  0  0  0  0  0  0
    2.7845   -1.5229    0.0000 C   0  0  0  0  0  0  0  0  0  0  0  0
    3.4990   -1.1104    0.0000 C   0  0  0  0  0  0  0  0  0  0  0  0
    4.2135   -1.5229    0.0000 C   0  0  0  0  0  0  0  0  0  0  0  0
    4.2135   -2.3479    0.0000 C   0  0  0  0  0  0  0  0  0  0  0  0
    3.4990   -2.7604    0.0000 N   0  0  0  0  0  0  0  0  0  0  0  0
    2.7845   -2.3479    0.0000 C   0  0  0  0  0  0  0  0  0  0  0  0
    4.9279   -2.7604    0.0000 O   0  0  0  0  0  0  0  0  0  0  0  0
    4.9279   -3.5854    0.0000 C   0  0  0  0  0  0  0  0  0  0  0  0
    1.3556    0.9521    0.0000 N   0  0  0  0  0  0  0  0  0  0  0  0
    0.6411    1.3646    0.0000 C   0  0  0  0  0  0  0  0  0  0  0  0
    0.6411    2.1896    0.0000 C   0  0  0  0  0  0  0  0  0  0  0  0
    1.3556    2.6021    0.0000 O   0  0  0  0  0  0  0  0  0  0  0  0
    2.0701    2.1896    0.0000 C   0  0  0  0  0  0  0  0  0  0  0  0
    2.0701    1.3646    0.0000 C   0  0  0  0  0  0  0  0  0  0  0  0
   -2.6909   -1.4124    0.0000 C   0  0  0  0  0  0  0  0  0  0  0  0
   -3.1034   -2.1269    0.0000 N   0  0  0  0  0  0  0  0  0  0  0  0
   -3.9284   -2.1269    0.0000 C   0  0  0  0  0  0  0  0  0  0  0  0
   -4.3409   -1.4124    0.0000 C   0  0  0  0  0  0  0  0  0  0  0  0
   -3.9284   -0.6979    0.0000 C   0  0  0  0  0  0  0  0  0  0  0  0
   -3.1034   -0.6979    0.0000 N   0  0  0  0  0  0  0  0  0  0  0  0
   -5.1659   -1.4124    0.0000 C   0  0  0  0  0  0  0  0  0  0  0  0
   -5.5784   -2.1269    0.0000 O   0  0  0  0  0  0  0  0  0  0  0  0
   -5.5784   -0.6979    0.0000 N   0  0  0  0  0  0  0  0  0  0  0  0
   -6.4034   -0.6979    0.0000 O   0  0  0  0  0  0  0  0  0  0  0  0
  1  2  1  0  0  0  0
  2  3  1  0  0  0  0
  3  4  1  0  0  0  0
  4  5  2  0  0  0  0
  5  6  1  0  0  0  0
  6  7  1  0  0  0  0
  7  8  1  0  0  0  0
  4  8  1  0  0  0  0
  7  9  2  0  0  0  0
  9 10  1  0  0  0  0
 10 11  2  0  0  0  0
 11 12  1  0  0  0  0
  6 12  2  0  0  0  0
 11 13  1  0  0  0  0
 13 14  2  0  0  0  0
 14 15  1  0  0  0  0
 15 16  2  0  0  0  0
 16 17  1  0  0  0  0
 17 18  2  0  0  0  0
 13 18  1  0  0  0  0
 16 19  1  0  0  0  0
 19 20  1  0  0  0  0
  9 21  1  0  0  0  0
 21 22  1  0  0  0  0
 22 23  1  0  0  0  0
 23 24  1  0  0  0  0
 24 25  1  0  0  0  0
 25 26  1  0  0  0  0
 21 26  1  0  0  0  0
  2 27  1  0  0  0  0
 27 28  2  0  0  0  0
 28 29  1  0  0  0  0
 29 30  2  0  0  0  0
 30 31  1  0  0  0  0
 31 32  2  0  0  0  0
 27 32  1  0  0  0  0
 30 33  1  0  0  0  0
 33 34  2  0  0  0  0
 33 35  1  0  0  0  0
 35 36  1  0  0  0  0
M  END
> <DATABASE_ID>
DB11891

> <DATABASE_NAME>
drugbank

> <SMILES>
COC1=CC=C(C=N1)C1=NC(N2CCOCC2)=C2SC(CN(C)C3=NC=C(C=N3)C(=O)NO)=CC2=N1

> <INCHI_IDENTIFIER>
InChI=1S/C23H24N8O4S/c1-30(23-25-11-15(12-26-23)22(32)29-33)13-16-9-17-19(36-16)21(31-5-7-35-8-6-31)28-20(27-17)14-3-4-18(34-2)24-10-14/h3-4,9-12,33H,5-8,13H2,1-2H3,(H,29,32)

> <INCHI_KEY>
JOWXJLIFIIOYMS-UHFFFAOYSA-N

> <FORMULA>
C23H24N8O4S

> <MOLECULAR_WEIGHT>
508.56

> <EXACT_MASS>
508.164122459

> <JCHEM_ACCEPTOR_COUNT>
11

> <JCHEM_ATOM_COUNT>
60

> <JCHEM_AVERAGE_POLARIZABILITY>
53.00569532828056

> <JCHEM_BIOAVAILABILITY>
0

> <JCHEM_DONOR_COUNT>
2

> <JCHEM_FORMAL_CHARGE>
0

> <JCHEM_GHOSE_FILTER>
0

> <JCHEM_IUPAC>
N-hydroxy-2-({[2-(6-methoxypyridin-3-yl)-4-(morpholin-4-yl)thieno[3,2-d]pyrimidin-6-yl]methyl}(methyl)amino)pyrimidine-5-carboxamide

> <ALOGPS_LOGP>
2.59

> <JCHEM_LOGP>
2.784270751333334

> <ALOGPS_LOGS>
-4.52

> <JCHEM_MDDR_LIKE_RULE>
1

> <JCHEM_NUMBER_OF_RINGS>
5

> <JCHEM_PHYSIOLOGICAL_CHARGE>
0

> <JCHEM_PKA>
18.295882050413898

> <JCHEM_PKA_STRONGEST_ACIDIC>
9.235002789836603

> <JCHEM_PKA_STRONGEST_BASIC>
3.36244369217179

> <JCHEM_POLAR_SURFACE_AREA>
138.72

> <JCHEM_REFRACTIVITY>
145.8165

> <JCHEM_ROTATABLE_BOND_COUNT>
7

> <JCHEM_RULE_OF_FIVE>
0

> <ALOGPS_SOLUBILITY>
1.53e-02 g/l

> <JCHEM_TRADITIONAL_IUPAC>
N-hydroxy-2-({[2-(6-methoxypyridin-3-yl)-4-(morpholin-4-yl)thieno[3,2-d]pyrimidin-6-yl]methyl}(methyl)amino)pyrimidine-5-carboxamide

> <JCHEM_VEBER_RULE>
0

> <DRUGBANK_ID>
DB11891

> <DRUG_GROUPS>
investigational

> <GENERIC_NAME>
Fimepinostat

> <SYNONYMS>
5-pyrimidinecarboxamide, N-hydroxy-2-[[[2-(6-methoxy-3-pyridinyl)-4-(4-morpholinyl)thieno[3,2-d]pyrimidin-6-yl]methyl]methylamino]-; N-hydroxy-2-(((2-(6-methoxypyridin-3-yl)-4-morpholinothieno[3,2-d]pyrimidin-6-yl)methyl)(methyl)amino)pyrimidine-5-carboxamide; PI3K/HDAC inhibitor CUDC-907

> <SALTS>
Fimepinostat mesylate

$$$$
