
  Mrv1909 09102020132D          

 42 45  0  0  0  0            999 V2000
    0.7600   -1.2319    0.0000 C   0  0  0  0  0  0  0  0  0  0  0  0
    0.7600   -0.4069    0.0000 C   0  0  0  0  0  0  0  0  0  0  0  0
    0.0456    0.0056    0.0000 C   0  0  0  0  0  0  0  0  0  0  0  0
   -0.6689   -0.4069    0.0000 C   0  0  0  0  0  0  0  0  0  0  0  0
   -0.6689   -1.2319    0.0000 C   0  0  0  0  0  0  0  0  0  0  0  0
   -1.3834   -1.6444    0.0000 C   0  0  0  0  0  0  0  0  0  0  0  0
   -1.3834   -2.4693    0.0000 C   0  0  0  0  0  0  0  0  0  0  0  0
   -0.6689   -2.8819    0.0000 C   0  0  0  0  0  0  0  0  0  0  0  0
    0.0456   -2.4693    0.0000 C   0  0  0  0  0  0  0  0  0  0  0  0
    0.0456   -1.6444    0.0000 C   0  0  0  0  0  0  0  0  0  0  0  0
    1.4745   -1.6444    0.0000 C   0  0  0  0  0  0  0  0  0  0  0  0
    1.4745   -2.4693    0.0000 O   0  0  0  0  0  0  0  0  0  0  0  0
    2.1890   -1.2319    0.0000 N   0  0  0  0  0  0  0  0  0  0  0  0
    2.9034   -1.6444    0.0000 C   0  0  0  0  0  0  0  0  0  0  0  0
    3.6179   -1.2319    0.0000 C   0  0  0  0  0  0  0  0  0  0  0  0
    4.3324   -1.6444    0.0000 N   0  0  0  0  0  0  0  0  0  0  0  0
    5.0469   -1.2319    0.0000 C   0  0  0  0  0  0  0  0  0  0  0  0
    5.7614   -1.6444    0.0000 C   0  0  0  0  0  0  0  0  0  0  0  0
    6.4757   -2.0569    0.0000 F   0  0  0  0  0  0  0  0  0  0  0  0
    6.1739   -0.9299    0.0000 F   0  0  0  0  0  0  0  0  0  0  0  0
    5.3489   -2.3589    0.0000 F   0  0  0  0  0  0  0  0  0  0  0  0
    3.6179   -0.4069    0.0000 O   0  0  0  0  0  0  0  0  0  0  0  0
   -2.2766    0.9976    0.0000 O   0  0  0  0  0  0  0  0  0  0  0  0
   -1.4696    0.8261    0.0000 N   0  0  0  0  0  0  0  0  0  0  0  0
   -1.3834    0.0056    0.0000 C   0  0  0  0  0  0  0  0  0  0  0  0
   -2.1371   -0.3300    0.0000 C   0  0  0  0  0  0  0  0  0  0  0  0
   -2.6891    0.2831    0.0000 C   0  0  0  0  0  0  0  0  0  0  0  0
   -3.2622   -0.3103    0.0000 C   0  0  0  0  0  0  0  0  0  0  0  0
   -2.9681   -1.0367    0.0000 F   0  0  0  0  0  0  0  0  0  0  0  0
   -3.8456   -0.8937    0.0000 F   0  0  0  0  0  0  0  0  0  0  0  0
   -4.0256   -0.0301    0.0000 F   0  0  0  0  0  0  0  0  0  0  0  0
   -3.6179    0.8194    0.0000 C   0  0  0  0  0  0  0  0  0  0  0  0
   -3.6179    1.6444    0.0000 C   0  0  0  0  0  0  0  0  0  0  0  0
   -4.3324    2.0569    0.0000 C   0  0  0  0  0  0  0  0  0  0  0  0
   -5.0469    1.6444    0.0000 C   0  0  0  0  0  0  0  0  0  0  0  0
   -5.0469    0.8194    0.0000 C   0  0  0  0  0  0  0  0  0  0  0  0
   -4.3324    0.4069    0.0000 C   0  0  0  0  0  0  0  0  0  0  0  0
   -5.7614    0.4069    0.0000 C   0  0  0  0  0  0  0  0  0  0  0  0
   -6.4757   -0.0056    0.0000 F   0  0  0  0  0  0  0  0  0  0  0  0
   -6.1739    1.1214    0.0000 F   0  0  0  0  0  0  0  0  0  0  0  0
   -5.3489   -0.3076    0.0000 F   0  0  0  0  0  0  0  0  0  0  0  0
   -4.3324    2.8819    0.0000 Cl  0  0  0  0  0  0  0  0  0  0  0  0
  1  2  1  0  0  0  0
  2  3  2  0  0  0  0
  3  4  1  0  0  0  0
  4  5  2  0  0  0  0
  5  6  1  0  0  0  0
  6  7  2  0  0  0  0
  7  8  1  0  0  0  0
  8  9  2  0  0  0  0
  9 10  1  0  0  0  0
  1 10  2  0  0  0  0
  5 10  1  0  0  0  0
 11 12  2  0  0  0  0
 11 13  1  0  0  0  0
  1 11  1  0  0  0  0
 14 15  1  0  0  0  0
 17 18  1  0  0  0  0
 18 19  1  0  0  0  0
 18 20  1  0  0  0  0
 18 21  1  0  0  0  0
 16 17  1  0  0  0  0
 15 16  1  0  0  0  0
 15 22  2  0  0  0  0
 13 14  1  0  0  0  0
 23 24  1  0  0  0  0
 24 25  2  0  0  0  0
 25 26  1  0  0  0  0
 26 27  1  0  0  0  0
 23 27  1  0  0  0  0
 28 29  1  0  0  0  0
 28 30  1  0  0  0  0
 28 31  1  0  0  0  0
 27 28  1  0  0  0  0
 32 33  1  0  0  0  0
 33 34  2  0  0  0  0
 34 35  1  0  0  0  0
 35 36  2  0  0  0  0
 36 37  1  0  0  0  0
 32 37  2  0  0  0  0
 38 39  1  0  0  0  0
 38 40  1  0  0  0  0
 38 41  1  0  0  0  0
 36 38  1  0  0  0  0
 34 42  1  0  0  0  0
 27 32  1  0  0  0  0
  4 25  1  0  0  0  0
M  END
> <DATABASE_ID>
DB11369

> <DATABASE_NAME>
drugbank

> <SMILES>
FC(F)(F)CNC(=O)CNC(=O)C1=C2C=CC=CC2=C(C=C1)C1=NOC(C1)(C1=CC(=CC(Cl)=C1)C(F)(F)F)C(F)(F)F

> <INCHI_IDENTIFIER>
InChI=1S/C26H17ClF9N3O3/c27-15-8-13(7-14(9-15)25(31,32)33)23(26(34,35)36)10-20(39-42-23)18-5-6-19(17-4-2-1-3-16(17)18)22(41)37-11-21(40)38-12-24(28,29)30/h1-9H,10-12H2,(H,37,41)(H,38,40)

> <INCHI_KEY>
OXDDDHGGRFRLEE-UHFFFAOYSA-N

> <FORMULA>
C26H17ClF9N3O3

> <MOLECULAR_WEIGHT>
625.88

> <EXACT_MASS>
625.0814726

> <JCHEM_ACCEPTOR_COUNT>
4

> <JCHEM_ATOM_COUNT>
59

> <JCHEM_AVERAGE_NEUTRAL_MICROSPECIES_CHARGE>
-2.4805618796586044e-05

> <JCHEM_AVERAGE_POLARIZABILITY>
51.312579225356345

> <JCHEM_BIOAVAILABILITY>
0

> <JCHEM_DONOR_COUNT>
2

> <JCHEM_FORMAL_CHARGE>
0

> <JCHEM_GHOSE_FILTER>
0

> <JCHEM_IUPAC>
2-[(4-{5-[3-chloro-5-(trifluoromethyl)phenyl]-5-(trifluoromethyl)-4,5-dihydro-1,2-oxazol-3-yl}naphthalen-1-yl)formamido]-N-(2,2,2-trifluoroethyl)acetamide

> <ALOGPS_LOGP>
5.26

> <JCHEM_LOGP>
5.915280012333334

> <ALOGPS_LOGS>
-5.80

> <JCHEM_MDDR_LIKE_RULE>
1

> <JCHEM_NEUTRAL_CHARGE>
0

> <JCHEM_NUMBER_OF_RINGS>
4

> <JCHEM_PHYSIOLOGICAL_CHARGE>
0

> <JCHEM_PKA>
15.164660139063715

> <JCHEM_PKA_STRONGEST_ACIDIC>
11.571381816388833

> <JCHEM_PKA_STRONGEST_BASIC>
1.3077382130496669

> <JCHEM_POLAR_SURFACE_AREA>
79.79

> <JCHEM_REFRACTIVITY>
131.98500000000004

> <JCHEM_ROTATABLE_BOND_COUNT>
9

> <JCHEM_RULE_OF_FIVE>
0

> <ALOGPS_SOLUBILITY>
9.85e-04 g/l

> <JCHEM_TRADITIONAL_IUPAC>
unii-71TH42O2CQ

> <JCHEM_VEBER_RULE>
0

> <DRUGBANK_ID>
DB11369

> <DRUG_GROUPS>
experimental; vet_approved

> <GENERIC_NAME>
Afoxolaner

> <SYNONYMS>
Afoxolaner

> <INTERNATIONAL_BRANDS>
Nexgard

$$$$
