
  Mrv1909 05201915252D          

 38 42  0  0  1  0            999 V2000
    0.1536    1.3672    0.0000 C   0  0  0  0  0  0  0  0  0  0  0  0
   -0.3984    0.7541    0.0000 C   0  0  0  0  0  0  0  0  0  0  0  0
   -1.2054    0.9256    0.0000 O   0  0  0  0  0  0  0  0  0  0  0  0
   -0.1435   -0.0305    0.0000 C   0  0  0  0  0  0  0  0  0  0  0  0
   -0.6284   -0.6979    0.0000 N   0  0  0  0  0  0  0  0  0  0  0  0
   -0.1435   -1.3654    0.0000 N   0  0  0  0  0  0  0  0  0  0  0  0
   -0.3984   -2.1500    0.0000 C   0  0  0  0  0  0  0  0  0  0  0  0
   -1.2054   -2.3215    0.0000 C   0  0  0  0  0  0  0  0  0  0  0  0
   -1.7575   -1.7084    0.0000 O   0  0  0  0  0  0  0  0  0  0  0  0
   -1.4604   -3.1062    0.0000 N   0  0  0  0  0  0  0  0  0  0  0  0
   -0.9754   -3.7736    0.0000 C   0  0  0  0  0  0  0  0  0  0  0  0
   -1.4604   -4.4410    0.0000 C   0  0  2  0  0  0  0  0  0  0  0  0
   -1.2054   -5.2257    0.0000 F   0  0  0  0  0  0  0  0  0  0  0  0
   -2.2450   -4.1861    0.0000 C   0  0  0  0  0  0  0  0  0  0  0  0
   -2.2450   -3.3611    0.0000 C   0  0  1  0  0  0  0  0  0  0  0  0
   -2.9124   -2.8762    0.0000 C   0  0  0  0  0  0  0  0  0  0  0  0
   -2.8262   -2.0557    0.0000 O   0  0  0  0  0  0  0  0  0  0  0  0
   -3.6661   -3.2117    0.0000 N   0  0  0  0  0  0  0  0  0  0  0  0
   -4.3335   -2.7268    0.0000 C   0  0  0  0  0  0  0  0  0  0  0  0
   -5.0872   -3.0624    0.0000 C   0  0  0  0  0  0  0  0  0  0  0  0
   -5.7546   -2.5774    0.0000 C   0  0  0  0  0  0  0  0  0  0  0  0
   -5.6684   -1.7570    0.0000 C   0  0  0  0  0  0  0  0  0  0  0  0
   -4.9147   -1.4214    0.0000 C   0  0  0  0  0  0  0  0  0  0  0  0
   -4.8285   -0.6009    0.0000 Br  0  0  0  0  0  0  0  0  0  0  0  0
   -4.2473   -1.9063    0.0000 N   0  0  0  0  0  0  0  0  0  0  0  0
    0.6411   -1.1104    0.0000 C   0  0  0  0  0  0  0  0  0  0  0  0
    0.6411   -0.2854    0.0000 C   0  0  0  0  0  0  0  0  0  0  0  0
    1.3556    0.1271    0.0000 C   0  0  0  0  0  0  0  0  0  0  0  0
    2.0701   -0.2854    0.0000 C   0  0  0  0  0  0  0  0  0  0  0  0
    2.0701   -1.1104    0.0000 C   0  0  0  0  0  0  0  0  0  0  0  0
    1.3556   -1.5229    0.0000 C   0  0  0  0  0  0  0  0  0  0  0  0
    2.7845    0.1271    0.0000 C   0  0  0  0  0  0  0  0  0  0  0  0
    2.7845    0.9521    0.0000 C   0  0  0  0  0  0  0  0  0  0  0  0
    3.4990    1.3646    0.0000 N   0  0  0  0  0  0  0  0  0  0  0  0
    4.2135    0.9521    0.0000 C   0  0  0  0  0  0  0  0  0  0  0  0
    4.9279    1.3646    0.0000 C   0  0  0  0  0  0  0  0  0  0  0  0
    4.2135    0.1271    0.0000 N   0  0  0  0  0  0  0  0  0  0  0  0
    3.4990   -0.2854    0.0000 C   0  0  0  0  0  0  0  0  0  0  0  0
  1  2  1  0  0  0  0
  2  3  2  0  0  0  0
  2  4  1  0  0  0  0
  4  5  2  0  0  0  0
  5  6  1  0  0  0  0
  6  7  1  0  0  0  0
  7  8  1  0  0  0  0
  8  9  2  0  0  0  0
  8 10  1  0  0  0  0
 10 11  1  0  0  0  0
 12 11  1  0  0  0  0
 12 13  1  6  0  0  0
 12 14  1  0  0  0  0
 15 14  1  0  0  0  0
 15 10  1  0  0  0  0
 15 16  1  1  0  0  0
 16 17  2  0  0  0  0
 16 18  1  0  0  0  0
 18 19  1  0  0  0  0
 19 20  2  0  0  0  0
 20 21  1  0  0  0  0
 21 22  2  0  0  0  0
 22 23  1  0  0  0  0
 23 24  1  0  0  0  0
 23 25  2  0  0  0  0
 19 25  1  0  0  0  0
  6 26  1  0  0  0  0
 26 27  2  0  0  0  0
  4 27  1  0  0  0  0
 27 28  1  0  0  0  0
 28 29  2  0  0  0  0
 29 30  1  0  0  0  0
 30 31  2  0  0  0  0
 26 31  1  0  0  0  0
 29 32  1  0  0  0  0
 32 33  2  0  0  0  0
 33 34  1  0  0  0  0
 34 35  2  0  0  0  0
 35 36  1  0  0  0  0
 35 37  1  0  0  0  0
 37 38  2  0  0  0  0
 32 38  1  0  0  0  0
M  END
> <DATABASE_ID>
DB15401

> <DATABASE_NAME>
drugbank

> <SMILES>
CC(=O)C1=NN(CC(=O)N2C[C@H](F)C[C@H]2C(=O)NC2=CC=CC(Br)=N2)C2=C1C=C(C=C2)C1=CN=C(C)N=C1

> <INCHI_IDENTIFIER>
InChI=1S/C26H23BrFN7O3/c1-14(36)25-19-8-16(17-10-29-15(2)30-11-17)6-7-20(19)35(33-25)13-24(37)34-12-18(28)9-21(34)26(38)32-23-5-3-4-22(27)31-23/h3-8,10-11,18,21H,9,12-13H2,1-2H3,(H,31,32,38)/t18-,21+/m1/s1

> <INCHI_KEY>
PIBARDGJJAGJAJ-NQIIRXRSSA-N

> <FORMULA>
C26H23BrFN7O3

> <MOLECULAR_WEIGHT>
580.418

> <EXACT_MASS>
579.102979

> <JCHEM_ACCEPTOR_COUNT>
7

> <JCHEM_ATOM_COUNT>
61

> <JCHEM_AVERAGE_POLARIZABILITY>
54.71317935632423

> <JCHEM_BIOAVAILABILITY>
1

> <JCHEM_DONOR_COUNT>
1

> <JCHEM_FORMAL_CHARGE>
0

> <JCHEM_GHOSE_FILTER>
0

> <JCHEM_IUPAC>
(2S,4R)-1-{2-[3-acetyl-5-(2-methylpyrimidin-5-yl)-1H-indazol-1-yl]acetyl}-N-(6-bromopyridin-2-yl)-4-fluoropyrrolidine-2-carboxamide

> <ALOGPS_LOGP>
3.05

> <JCHEM_LOGP>
2.529526735666667

> <ALOGPS_LOGS>
-4.55

> <JCHEM_MDDR_LIKE_RULE>
1

> <JCHEM_NUMBER_OF_RINGS>
5

> <JCHEM_PHYSIOLOGICAL_CHARGE>
0

> <JCHEM_PKA>
14.471886263211225

> <JCHEM_PKA_STRONGEST_ACIDIC>
11.704292826883583

> <JCHEM_PKA_STRONGEST_BASIC>
2.2277294818404787

> <JCHEM_POLAR_SURFACE_AREA>
122.97000000000001

> <JCHEM_REFRACTIVITY>
153.34060000000002

> <JCHEM_ROTATABLE_BOND_COUNT>
6

> <JCHEM_RULE_OF_FIVE>
0

> <ALOGPS_SOLUBILITY>
1.63e-02 g/l

> <JCHEM_TRADITIONAL_IUPAC>
(2R)-14-fluoro-2-methyl-6,9,10,19-tetraazapentacyclo[14.2.1.0^{2,6}.0^{8,18}.0^{12,17}]nonadeca-1(18),8,12(17),13,15-pentaen-11-one

> <JCHEM_VEBER_RULE>
0

> <DRUGBANK_ID>
DB15401

> <DRUG_GROUPS>
investigational

> <GENERIC_NAME>
Danicopan

> <SYNONYMS>
Danicopan

$$$$
