
  Mrv1909 12022122432D          

 26 28  0  0  0  0            999 V2000
    0.7144    0.4125    0.0000 C   0  0  0  0  0  0  0  0  0  0  0  0
    0.7144   -0.4125    0.0000 C   0  0  0  0  0  0  0  0  0  0  0  0
    0.0000   -0.8250    0.0000 C   0  0  0  0  0  0  0  0  0  0  0  0
   -0.7145   -0.4125    0.0000 C   0  0  0  0  0  0  0  0  0  0  0  0
   -0.7145    0.4125    0.0000 C   0  0  0  0  0  0  0  0  0  0  0  0
    0.0000    0.8250    0.0000 N   0  0  0  0  0  0  0  0  0  0  0  0
   -1.4289    0.8250    0.0000 N   0  0  0  0  0  0  0  0  0  0  0  0
   -1.4289    1.6500    0.0000 C   0  0  0  0  0  0  0  0  0  0  0  0
   -2.1434    2.8875    0.0000 C   0  0  0  0  0  0  0  0  0  0  0  0
   -2.1434    2.0625    0.0000 C   0  0  0  0  0  0  0  0  0  0  0  0
   -0.7145    2.0625    0.0000 C   0  0  0  0  0  0  0  0  0  0  0  0
   -0.7145    2.8875    0.0000 C   0  0  0  0  0  0  0  0  0  0  0  0
   -1.4289    3.3000    0.0000 C   0  0  0  0  0  0  0  0  0  0  0  0
    1.4289   -0.8250    0.0000 C   0  0  0  0  0  0  0  0  0  0  0  0
    2.1433   -0.4125    0.0000 O   0  0  0  0  0  0  0  0  0  0  0  0
    1.4289   -1.6500    0.0000 O   0  0  0  0  0  0  0  0  0  0  0  0
    2.8578   -0.8250    0.0000 C   0  0  0  0  0  0  0  0  0  0  0  0
    3.5723   -0.4125    0.0000 C   0  0  0  0  0  0  0  0  0  0  0  0
   -1.4289   -0.8250    0.0000 N   0  0  0  0  0  0  0  0  0  0  0  0
   -1.4289   -1.6500    0.0000 C   0  0  0  0  0  0  0  0  0  0  0  0
   -2.1434   -2.0625    0.0000 C   0  0  0  0  0  0  0  0  0  0  0  0
   -2.1434   -2.8874    0.0000 C   0  0  0  0  0  0  0  0  0  0  0  0
   -2.8579   -3.3000    0.0000 C   0  0  0  0  0  0  0  0  0  0  0  0
   -3.5723   -2.8874    0.0000 C   0  0  0  0  0  0  0  0  0  0  0  0
   -3.5723   -2.0625    0.0000 C   0  0  0  0  0  0  0  0  0  0  0  0
   -2.8579   -1.6500    0.0000 C   0  0  0  0  0  0  0  0  0  0  0  0
  1  2  1  0  0  0  0
  1  6  2  0  0  0  0
  2  3  2  0  0  0  0
  3  4  1  0  0  0  0
  4  5  2  0  0  0  0
  5  6  1  0  0  0  0
  5  7  1  0  0  0  0
  7  8  1  0  0  0  0
  9 10  1  0  0  0  0
 11 12  1  0  0  0  0
 12 13  1  0  0  0  0
  9 13  1  0  0  0  0
 10  8  1  0  0  0  0
  8 11  1  0  0  0  0
  2 14  1  0  0  0  0
 14 15  1  0  0  0  0
 14 16  2  0  0  0  0
 15 17  1  0  0  0  0
 17 18  1  0  0  0  0
  4 19  1  0  0  0  0
 19 20  1  0  0  0  0
 20 21  1  0  0  0  0
 22 23  2  0  0  0  0
 23 24  1  0  0  0  0
 24 25  2  0  0  0  0
 25 26  1  0  0  0  0
 21 22  1  0  0  0  0
 21 26  2  0  0  0  0
M  END
> <DATABASE_ID>
DB16745

> <DATABASE_NAME>
drugbank

> <SMILES>
CCOC(=O)C1=CC(NCC2=CC=CC=C2)=C(NC2CCCCC2)N=C1

> <INCHI_IDENTIFIER>
InChI=1S/C21H27N3O2/c1-2-26-21(25)17-13-19(22-14-16-9-5-3-6-10-16)20(23-15-17)24-18-11-7-4-8-12-18/h3,5-6,9-10,13,15,18,22H,2,4,7-8,11-12,14H2,1H3,(H,23,24)

> <INCHI_KEY>
WRUIDZKNUAHKTR-UHFFFAOYSA-N

> <FORMULA>
C21H27N3O2

> <MOLECULAR_WEIGHT>
353.466

> <EXACT_MASS>
353.210327121

> <JCHEM_ACCEPTOR_COUNT>
4

> <JCHEM_ATOM_COUNT>
53

> <JCHEM_AVERAGE_NEUTRAL_MICROSPECIES_CHARGE>
1.000019303695479

> <JCHEM_AVERAGE_POLARIZABILITY>
40.308045195074286

> <JCHEM_BIOAVAILABILITY>
1

> <JCHEM_DONOR_COUNT>
2

> <JCHEM_FORMAL_CHARGE>
0

> <JCHEM_GHOSE_FILTER>
1

> <JCHEM_IUPAC>
ethyl 5-(benzylamino)-6-(cyclohexylamino)pyridine-3-carboxylate

> <ALOGPS_LOGP>
4.74

> <JCHEM_LOGP>
4.179615741333334

> <ALOGPS_LOGS>
-4.49

> <JCHEM_MDDR_LIKE_RULE>
1

> <JCHEM_NEUTRAL_CHARGE>
0

> <JCHEM_NUMBER_OF_RINGS>
3

> <JCHEM_PHYSIOLOGICAL_CHARGE>
0

> <JCHEM_PKA_STRONGEST_ACIDIC>
18.985467317714804

> <JCHEM_PKA_STRONGEST_BASIC>
4.774130487682113

> <JCHEM_POLAR_SURFACE_AREA>
63.25000000000001

> <JCHEM_REFRACTIVITY>
107.0029

> <JCHEM_ROTATABLE_BOND_COUNT>
8

> <JCHEM_RULE_OF_FIVE>
1

> <ALOGPS_SOLUBILITY>
1.15e-02 g/l

> <JCHEM_TRADITIONAL_IUPAC>
ethyl 5-(benzylamino)-6-(cyclohexylamino)pyridine-3-carboxylate

> <JCHEM_VEBER_RULE>
0

> <DRUGBANK_ID>
DB16745

> <DRUG_GROUPS>
investigational

> <GENERIC_NAME>
PXT 3003

$$$$
