
  Mrv1909 05202120462D          

150155  0  0  1  0            999 V2000
   -6.5243   -5.2997    0.0000 C   0  0  0  0  0  0  0  0  0  0  0  0
   -5.8569   -4.8148    0.0000 C   0  0  2  0  0  0  0  0  0  0  0  0
   -5.1032   -5.1504    0.0000 N   0  0  0  0  0  0  0  0  0  0  0  0
   -5.0169   -5.9708    0.0000 C   0  0  0  0  0  0  0  0  0  0  0  0
   -4.2632   -6.3064    0.0000 C   0  0  1  0  0  0  0  0  0  0  0  0
   -3.5958   -5.8215    0.0000 N   0  0  0  0  0  0  0  0  0  0  0  0
   -2.8422   -6.1571    0.0000 C   0  0  0  0  0  0  0  0  0  0  0  0
   -2.1747   -5.6721    0.0000 C   0  0  2  0  0  0  0  0  0  0  0  0
   -2.2610   -4.8516    0.0000 C   0  0  0  0  0  0  0  0  0  0  0  0
   -3.0146   -4.5161    0.0000 C   0  0  0  0  0  0  0  0  0  0  0  0
   -3.1009   -3.6956    0.0000 C   0  0  0  0  0  0  0  0  0  0  0  0
   -3.8545   -3.3601    0.0000 C   0  0  0  0  0  0  0  0  0  0  0  0
   -4.5220   -3.8450    0.0000 C   0  0  0  0  0  0  0  0  0  0  0  0
   -4.4358   -4.6654    0.0000 C   0  0  0  0  0  0  0  0  0  0  0  0
   -3.6821   -5.0010    0.0000 C   0  0  0  0  0  0  0  0  0  0  0  0
   -1.4211   -6.0076    0.0000 N   0  0  0  0  0  0  0  0  0  0  0  0
   -0.7537   -5.5228    0.0000 C   0  0  0  0  0  0  0  0  0  0  0  0
    0.0000   -5.8583    0.0000 C   0  0  2  0  0  0  0  0  0  0  0  0
    0.0862   -6.6788    0.0000 C   0  0  0  0  0  0  0  0  0  0  0  0
   -0.5812   -7.1637    0.0000 C   0  0  0  0  0  0  0  0  0  0  0  0
   -1.3658   -6.9088    0.0000 C   0  0  0  0  0  0  0  0  0  0  0  0
   -1.8507   -7.5762    0.0000 N   0  0  0  0  0  0  0  0  0  0  0  0
   -1.3657   -8.2436    0.0000 C   0  0  0  0  0  0  0  0  0  0  0  0
   -0.5812   -7.9887    0.0000 N   0  0  0  0  0  0  0  0  0  0  0  0
    0.6673   -5.3734    0.0000 N   0  0  0  0  0  0  0  0  0  0  0  0
    1.4210   -5.7089    0.0000 C   0  0  0  0  0  0  0  0  0  0  0  0
    2.0885   -5.2240    0.0000 C   0  0  1  0  0  0  0  0  0  0  0  0
    2.8422   -5.5596    0.0000 N   0  0  0  0  0  0  0  0  0  0  0  0
    3.5096   -5.0747    0.0000 C   0  0  0  0  0  0  0  0  0  0  0  0
    4.2633   -5.4102    0.0000 C   0  0  1  0  0  0  0  0  0  0  0  0
    4.9307   -4.9253    0.0000 N   0  0  0  0  0  0  0  0  0  0  0  0
    5.6843   -5.2608    0.0000 C   0  0  0  0  0  0  0  0  0  0  0  0
    6.3518   -4.7759    0.0000 C   0  0  1  0  0  0  0  0  0  0  0  0
    7.1054   -5.1114    0.0000 N   0  0  0  0  0  0  0  0  0  0  0  0
    7.7728   -4.6265    0.0000 C   0  0  0  0  0  0  0  0  0  0  0  0
    8.5265   -4.9621    0.0000 C   0  0  2  0  0  0  0  0  0  0  0  0
    9.1940   -4.4771    0.0000 C   0  0  0  0  0  0  0  0  0  0  0  0
    9.9477   -4.8127    0.0000 C   0  0  0  0  0  0  0  0  0  0  0  0
   10.0339   -5.6331    0.0000 C   0  0  0  0  0  0  0  0  0  0  0  0
   10.7875   -5.9687    0.0000 C   0  0  0  0  0  0  0  0  0  0  0  0
   11.4550   -5.4838    0.0000 C   0  0  0  0  0  0  0  0  0  0  0  0
   11.3688   -4.6633    0.0000 C   0  0  0  0  0  0  0  0  0  0  0  0
   10.6151   -4.3278    0.0000 C   0  0  0  0  0  0  0  0  0  0  0  0
   12.2087   -5.8193    0.0000 O   0  0  0  0  0  0  0  0  0  0  0  0
    8.6128   -5.7825    0.0000 N   0  0  0  0  0  0  0  0  0  0  0  0
    7.9454   -6.2675    0.0000 C   0  0  0  0  0  0  0  0  0  0  0  0
    8.0316   -7.0879    0.0000 C   0  0  0  0  0  0  0  0  0  0  0  0
    7.3641   -7.5728    0.0000 C   0  0  0  0  0  0  0  0  0  0  0  0
    6.6105   -7.2373    0.0000 N   0  0  0  0  0  0  0  0  0  0  0  0
    7.1917   -5.9319    0.0000 O   0  0  0  0  0  0  0  0  0  0  0  0
    7.6866   -3.8061    0.0000 O   0  0  0  0  0  0  0  0  0  0  0  0
    6.2655   -3.9554    0.0000 C   0  0  0  0  0  0  0  0  0  0  0  0
    6.9330   -3.4705    0.0000 O   0  0  0  0  0  0  0  0  0  0  0  0
    5.7706   -6.0813    0.0000 O   0  0  0  0  0  0  0  0  0  0  0  0
    4.3494   -6.2307    0.0000 C   0  0  0  0  0  0  0  0  0  0  0  0
    5.1031   -6.5662    0.0000 C   0  0  0  0  0  0  0  0  0  0  0  0
    5.1894   -7.3867    0.0000 S   0  0  0  0  0  0  0  0  0  0  0  0
    4.5220   -7.8716    0.0000 C   0  0  0  0  0  0  0  0  0  0  0  0
    3.4233   -4.2541    0.0000 O   0  0  0  0  0  0  0  0  0  0  0  0
    2.0022   -4.4036    0.0000 C   0  0  0  0  0  0  0  0  0  0  0  0
    1.2486   -4.0680    0.0000 C   0  0  0  0  0  0  0  0  0  0  0  0
    1.1623   -3.2475    0.0000 C   0  0  0  0  0  0  0  0  0  0  0  0
    0.4086   -2.9120    0.0000 O   0  0  0  0  0  0  0  0  0  0  0  0
    1.8298   -2.7626    0.0000 O   0  0  0  0  0  0  0  0  0  0  0  0
    1.5073   -6.5294    0.0000 O   0  0  0  0  0  0  0  0  0  0  0  0
   -0.8398   -4.7023    0.0000 O   0  0  0  0  0  0  0  0  0  0  0  0
   -2.7560   -6.9775    0.0000 O   0  0  0  0  0  0  0  0  0  0  0  0
   -4.1770   -7.1268    0.0000 C   0  0  0  0  0  0  0  0  0  0  0  0
   -4.8445   -7.6118    0.0000 C   0  0  0  0  0  0  0  0  0  0  0  0
   -5.5981   -7.2763    0.0000 C   0  0  0  0  0  0  0  0  0  0  0  0
   -6.2655   -7.7611    0.0000 N   0  0  0  0  0  0  0  0  0  0  0  0
   -7.0192   -7.4256    0.0000 C   0  0  0  0  0  0  0  0  0  0  0  0
   -7.1055   -6.6051    0.0000 N   0  0  0  0  0  0  0  0  0  0  0  0
   -7.6867   -7.9106    0.0000 N   0  0  0  0  0  0  0  0  0  0  0  0
   -5.6844   -6.4557    0.0000 O   0  0  0  0  0  0  0  0  0  0  0  0
   -5.9430   -3.9943    0.0000 C   0  0  0  0  0  0  0  0  0  0  0  0
   -5.2756   -3.5094    0.0000 N   0  0  0  0  0  0  0  0  0  0  0  0
   -5.3618   -2.6890    0.0000 C   0  0  0  0  0  0  0  0  0  0  0  0
   -4.6944   -2.2040    0.0000 C   0  0  0  0  0  0  0  0  0  0  0  0
   -4.7807   -1.3835    0.0000 N   0  0  0  0  0  0  0  0  0  0  0  0
   -4.1132   -0.8986    0.0000 C   0  0  2  0  0  0  0  0  0  0  0  0
   -4.1995   -0.0781    0.0000 C   0  0  0  0  0  0  0  0  0  0  0  0
   -4.9531    0.2573    0.0000 O   0  0  0  0  0  0  0  0  0  0  0  0
   -3.5321    0.4067    0.0000 N   0  0  0  0  0  0  0  0  0  0  0  0
   -3.5321    1.2317    0.0000 C   0  0  2  0  0  0  0  0  0  0  0  0
   -4.1995    1.7166    0.0000 C   0  0  0  0  0  0  0  0  0  0  0  0
   -4.1132    2.5371    0.0000 N   0  0  0  0  0  0  0  0  0  0  0  0
   -4.7807    3.0220    0.0000 C   0  0  2  0  0  0  0  0  0  0  0  0
   -4.6944    3.8424    0.0000 C   0  0  0  0  0  0  0  0  0  0  0  0
   -5.3619    4.3274    0.0000 N   0  0  0  0  0  0  0  0  0  0  0  0
   -6.1155    3.9918    0.0000 C   0  0  0  0  0  0  0  0  0  0  0  0
   -6.7830    4.4767    0.0000 C   0  0  0  0  0  0  0  0  0  0  0  0
   -7.5367    4.1412    0.0000 N   0  0  0  0  0  0  0  0  0  0  0  0
   -8.2041    4.6261    0.0000 C   0  0  2  0  0  0  0  0  0  0  0  0
   -8.1179    5.4466    0.0000 C   0  0  0  0  0  0  0  0  0  0  0  0
   -8.7853    5.9315    0.0000 N   0  0  0  0  0  0  0  0  0  0  0  0
   -8.6990    6.7519    0.0000 C   0  0  2  0  0  0  0  0  0  0  0  0
   -7.9454    7.0875    0.0000 C   0  0  0  0  0  0  0  0  0  0  0  0
   -7.2779    6.6026    0.0000 N   0  0  0  0  0  0  0  0  0  0  0  0
   -6.5243    6.9382    0.0000 C   0  0  2  0  0  0  0  0  0  0  0  0
   -6.4381    7.7586    0.0000 C   0  0  0  0  0  0  0  0  0  0  0  0
   -5.6844    8.0942    0.0000 N   0  0  0  0  0  0  0  0  0  0  0  0
   -5.0170    7.6093    0.0000 C   0  0  0  0  0  0  0  0  0  0  0  0
   -4.2633    7.9448    0.0000 C   0  0  0  0  0  0  0  0  0  0  0  0
   -3.5958    7.4599    0.0000 C   0  0  0  0  0  0  0  0  0  0  0  0
   -2.8422    7.7955    0.0000 C   0  0  0  0  0  0  0  0  0  0  0  0
   -2.1747    7.3106    0.0000 N   0  0  0  0  0  0  0  0  0  0  0  0
   -7.1055    8.2436    0.0000 O   0  0  0  0  0  0  0  0  0  0  0  0
   -5.8569    6.4533    0.0000 C   0  0  0  0  0  0  0  0  0  0  0  0
   -5.1032    6.7888    0.0000 C   0  0  0  0  0  0  0  0  0  0  0  0
   -4.4358    6.3039    0.0000 C   0  0  0  0  0  0  0  0  0  0  0  0
   -3.6821    6.6395    0.0000 C   0  0  0  0  0  0  0  0  0  0  0  0
   -3.0146    6.1545    0.0000 N   0  0  0  0  0  0  0  0  0  0  0  0
   -7.8592    7.9080    0.0000 O   0  0  0  0  0  0  0  0  0  0  0  0
   -9.3665    7.2368    0.0000 C   0  0  0  0  0  0  0  0  0  0  0  0
  -10.1202    6.9013    0.0000 C   0  0  0  0  0  0  0  0  0  0  0  0
  -10.7876    7.3862    0.0000 C   0  0  0  0  0  0  0  0  0  0  0  0
  -11.5413    7.0507    0.0000 C   0  0  0  0  0  0  0  0  0  0  0  0
  -12.2087    7.5356    0.0000 N   0  0  0  0  0  0  0  0  0  0  0  0
   -7.3642    5.7821    0.0000 O   0  0  0  0  0  0  0  0  0  0  0  0
   -8.9577    4.2905    0.0000 C   0  0  0  0  0  0  0  0  0  0  0  0
   -9.6252    4.7754    0.0000 C   0  0  0  0  0  0  0  0  0  0  0  0
  -10.3788    4.4398    0.0000 C   0  0  0  0  0  0  0  0  0  0  0  0
  -11.0463    4.9248    0.0000 C   0  0  0  0  0  0  0  0  0  0  0  0
  -11.7999    4.5893    0.0000 N   0  0  0  0  0  0  0  0  0  0  0  0
   -6.6967    5.2972    0.0000 O   0  0  0  0  0  0  0  0  0  0  0  0
   -3.9407    4.1780    0.0000 O   0  0  0  0  0  0  0  0  0  0  0  0
   -5.5344    2.6864    0.0000 C   0  0  0  0  0  0  0  0  0  0  0  0
   -6.2018    3.1713    0.0000 C   0  0  0  0  0  0  0  0  0  0  0  0
   -5.6206    1.8660    0.0000 C   0  0  0  0  0  0  0  0  0  0  0  0
   -4.9531    1.3810    0.0000 O   0  0  0  0  0  0  0  0  0  0  0  0
   -2.7474    1.4866    0.0000 C   0  0  0  0  0  0  0  0  0  0  0  0
   -2.2625    0.8191    0.0000 C   0  0  0  0  0  0  0  0  0  0  0  0
   -2.7474    0.1517    0.0000 C   0  0  0  0  0  0  0  0  0  0  0  0
   -3.3595   -1.2342    0.0000 C   0  0  0  0  0  0  0  0  0  0  0  0
   -3.2733   -2.0547    0.0000 C   0  0  0  0  0  0  0  0  0  0  0  0
   -2.5197   -2.3902    0.0000 C   0  0  0  0  0  0  0  0  0  0  0  0
   -2.4335   -3.2107    0.0000 C   0  0  0  0  0  0  0  0  0  0  0  0
   -1.6798   -3.5462    0.0000 N   0  0  0  0  0  0  0  0  0  0  0  0
   -3.9407   -2.5396    0.0000 O   0  0  0  0  0  0  0  0  0  0  0  0
   -6.6967   -3.6587    0.0000 O   0  0  0  0  0  0  0  0  0  0  0  0
   -7.2779   -4.9642    0.0000 C   0  0  0  0  0  0  0  0  0  0  0  0
   -7.9924   -5.3767    0.0000 C   0  0  0  0  0  0  0  0  0  0  0  0
   -8.6055   -4.8246    0.0000 C   0  0  0  0  0  0  0  0  0  0  0  0
   -8.2699   -4.0709    0.0000 N   0  0  0  0  0  0  0  0  0  0  0  0
   -7.4495   -4.1572    0.0000 C   0  0  0  0  0  0  0  0  0  0  0  0
   -9.3901   -5.0796    0.0000 C   0  0  0  0  0  0  0  0  0  0  0  0
   -9.5617   -5.8865    0.0000 C   0  0  0  0  0  0  0  0  0  0  0  0
   -8.9485   -6.4385    0.0000 C   0  0  0  0  0  0  0  0  0  0  0  0
   -8.1639   -6.1836    0.0000 C   0  0  0  0  0  0  0  0  0  0  0  0
  1  2  1  0  0  0  0
  2  3  1  0  0  0  0
  3  4  1  0  0  0  0
  4  5  1  0  0  0  0
  5  6  1  0  0  0  0
  6  7  1  0  0  0  0
  7  8  1  0  0  0  0
  8  9  1  6  0  0  0
  9 10  1  0  0  0  0
 10 11  2  0  0  0  0
 11 12  1  0  0  0  0
 12 13  2  0  0  0  0
 14 13  1  0  0  0  0
 15 14  2  0  0  0  0
 10 15  1  0  0  0  0
  8 16  1  0  0  0  0
 16 17  1  0  0  0  0
 17 18  1  0  0  0  0
 18 19  1  1  0  0  0
 19 20  1  0  0  0  0
 20 21  2  0  0  0  0
 21 22  1  0  0  0  0
 22 23  1  0  0  0  0
 24 23  2  0  0  0  0
 20 24  1  0  0  0  0
 18 25  1  0  0  0  0
 25 26  1  0  0  0  0
 26 27  1  0  0  0  0
 27 28  1  0  0  0  0
 28 29  1  0  0  0  0
 29 30  1  0  0  0  0
 30 31  1  0  0  0  0
 31 32  1  0  0  0  0
 32 33  1  0  0  0  0
 33 34  1  0  0  0  0
 34 35  1  0  0  0  0
 35 36  1  0  0  0  0
 36 37  1  0  0  0  0
 37 38  1  0  0  0  0
 38 39  2  0  0  0  0
 39 40  1  0  0  0  0
 40 41  2  0  0  0  0
 42 41  1  0  0  0  0
 43 42  2  0  0  0  0
 38 43  1  0  0  0  0
 41 44  1  0  0  0  0
 36 45  1  6  0  0  0
 45 46  1  0  0  0  0
 46 47  1  0  0  0  0
 47 48  1  0  0  0  0
 48 49  1  0  0  0  0
 46 50  2  0  0  0  0
 35 51  2  0  0  0  0
 33 52  1  6  0  0  0
 52 53  1  0  0  0  0
 32 54  2  0  0  0  0
 30 55  1  1  0  0  0
 55 56  1  0  0  0  0
 56 57  1  0  0  0  0
 57 58  1  0  0  0  0
 29 59  2  0  0  0  0
 27 60  1  6  0  0  0
 60 61  1  0  0  0  0
 61 62  1  0  0  0  0
 62 63  1  0  0  0  0
 62 64  2  0  0  0  0
 26 65  2  0  0  0  0
 17 66  2  0  0  0  0
  7 67  2  0  0  0  0
  5 68  1  1  0  0  0
 68 69  1  0  0  0  0
 69 70  1  0  0  0  0
 70 71  1  0  0  0  0
 71 72  1  0  0  0  0
 72 73  2  0  0  0  0
 72 74  1  0  0  0  0
  4 75  2  0  0  0  0
  2 76  1  1  0  0  0
 76 77  1  0  0  0  0
 77 78  1  0  0  0  0
 78 79  1  0  0  0  0
 79 80  1  0  0  0  0
 81 80  1  6  0  0  0
 81 82  1  0  0  0  0
 82 83  2  0  0  0  0
 82 84  1  0  0  0  0
 84 85  1  0  0  0  0
 85 86  1  6  0  0  0
 86 87  1  0  0  0  0
 88 87  1  1  0  0  0
 88 89  1  0  0  0  0
 89 90  1  0  0  0  0
 90 91  1  0  0  0  0
 91 92  1  0  0  0  0
 92 93  1  0  0  0  0
 94 93  1  1  0  0  0
 94 95  1  0  0  0  0
 95 96  1  0  0  0  0
 97 96  1  1  0  0  0
 97 98  1  0  0  0  0
 98 99  1  0  0  0  0
100 99  1  6  0  0  0
100101  1  0  0  0  0
101102  1  0  0  0  0
102103  1  0  0  0  0
103104  1  0  0  0  0
104105  1  0  0  0  0
105106  1  0  0  0  0
106107  1  0  0  0  0
101108  2  0  0  0  0
100109  1  0  0  0  0
109110  1  0  0  0  0
110111  1  0  0  0  0
111112  1  0  0  0  0
112113  1  0  0  0  0
 98114  2  0  0  0  0
 97115  1  0  0  0  0
115116  1  0  0  0  0
116117  1  0  0  0  0
117118  1  0  0  0  0
118119  1  0  0  0  0
 95120  2  0  0  0  0
 94121  1  0  0  0  0
121122  1  0  0  0  0
122123  1  0  0  0  0
123124  1  0  0  0  0
124125  1  0  0  0  0
 92126  2  0  0  0  0
 89127  2  0  0  0  0
 88128  1  0  0  0  0
128129  1  0  0  0  0
128130  1  0  0  0  0
 86131  2  0  0  0  0
 85132  1  0  0  0  0
132133  1  0  0  0  0
134133  1  0  0  0  0
 84134  1  0  0  0  0
 81135  1  0  0  0  0
135136  1  0  0  0  0
136137  1  0  0  0  0
137138  1  0  0  0  0
138139  1  0  0  0  0
 79140  2  0  0  0  0
 76141  2  0  0  0  0
  1142  1  0  0  0  0
142143  1  0  0  0  0
143144  2  0  0  0  0
144145  1  0  0  0  0
146145  1  0  0  0  0
142146  2  0  0  0  0
144147  1  0  0  0  0
147148  2  0  0  0  0
149148  1  0  0  0  0
150149  2  0  0  0  0
143150  1  0  0  0  0
M  END
> <DATABASE_ID>
DB13298

> <DATABASE_NAME>
drugbank

> <SMILES>
CSCC[C@H](NC(=O)[C@H](CO)NC(=O)[C@H](CC1=CC=C(O)C=C1)NC(=O)CCN)C(=O)N[C@@H](CCC(O)=O)C(=O)N[C@@H](CC1=CNC=N1)C(=O)N[C@@H](CC1=CC=CC=C1)C(=O)N[C@@H](CCCNC(N)=N)C(=O)N[C@@H](CC1=CNC2=C1C=CC=C2)C(=O)NCC(=O)N[C@@H](CCCCN)C(=O)N1CCC[C@H]1C(=O)N[C@@H](C(C)C)C(=O)NCC(=O)N[C@@H](CCCCN)C(=O)N[C@@H](CCCCN)C(=O)N[C@@H](CCCCN)C(=O)NCCCCN

> <INCHI_IDENTIFIER>
InChI=1S/C99H155N29O21S/c1-59(2)84(97(148)113-56-81(132)115-68(26-10-14-40-101)87(138)119-69(27-11-15-41-102)88(139)118-67(25-9-13-39-100)85(136)109-45-18-17-43-104)127-96(147)79-30-20-47-128(79)98(149)73(28-12-16-42-103)116-82(133)55-112-86(137)76(51-62-53-111-66-24-8-7-23-65(62)66)124-89(140)70(29-19-46-110-99(106)107)120-93(144)75(49-60-21-5-4-6-22-60)123-94(145)77(52-63-54-108-58-114-63)125-90(141)71(35-36-83(134)135)121-91(142)72(38-48-150-3)122-95(146)78(57-129)126-92(143)74(117-80(131)37-44-105)50-61-31-33-64(130)34-32-61/h4-8,21-24,31-34,53-54,58-59,67-79,84,111,129-130H,9-20,25-30,35-52,55-57,100-105H2,1-3H3,(H,108,114)(H,109,136)(H,112,137)(H,113,148)(H,115,132)(H,116,133)(H,117,131)(H,118,139)(H,119,138)(H,120,144)(H,121,142)(H,122,146)(H,123,145)(H,124,140)(H,125,141)(H,126,143)(H,127,147)(H,134,135)(H4,106,107,110)/t67-,68-,69-,70-,71-,72-,73-,74-,75-,76-,77-,78-,79-,84-/m0/s1

> <INCHI_KEY>
DIDCGVRALANKIU-OTEFFYEFSA-N

> <FORMULA>
C99H155N29O21S

> <MOLECULAR_WEIGHT>
2119.57

> <EXACT_MASS>
2118.167304301

> <JCHEM_ACCEPTOR_COUNT>
31

> <JCHEM_ATOM_COUNT>
305

> <JCHEM_AVERAGE_NEUTRAL_MICROSPECIES_CHARGE>
8.018542685697472

> <JCHEM_AVERAGE_POLARIZABILITY>
224.91422158022968

> <JCHEM_BIOAVAILABILITY>
0

> <JCHEM_DONOR_COUNT>
30

> <JCHEM_FORMAL_CHARGE>
0

> <JCHEM_GHOSE_FILTER>
0

> <JCHEM_IUPAC>
(4S)-4-{[(1S)-1-{[(1S)-1-{[(1S)-1-{[(1S)-1-[({[(2S)-6-amino-1-[(2S)-2-{[(1S)-1-[({[(1S)-5-amino-1-{[(1S)-5-amino-1-{[(1S)-5-amino-1-[(4-aminobutyl)carbamoyl]pentyl]carbamoyl}pentyl]carbamoyl}pentyl]carbamoyl}methyl)carbamoyl]-2-methylpropyl]carbamoyl}pyrrolidin-1-yl]-1-oxohexan-2-yl]carbamoyl}methyl)carbamoyl]-2-(1H-indol-3-yl)ethyl]carbamoyl}-4-carbamimidamidobutyl]carbamoyl}-2-phenylethyl]carbamoyl}-2-(1H-imidazol-4-yl)ethyl]carbamoyl}-4-[(2S)-2-[(2S)-2-[(2S)-2-(3-aminopropanamido)-3-(4-hydroxyphenyl)propanamido]-3-hydroxypropanamido]-4-(methylsulfanyl)butanamido]butanoic acid

> <ALOGPS_LOGP>
-0.85

> <JCHEM_LOGP>
-10.142881801071388

> <ALOGPS_LOGS>
-4.86

> <JCHEM_MDDR_LIKE_RULE>
1

> <JCHEM_NEUTRAL_CHARGE>
6

> <JCHEM_NUMBER_OF_RINGS>
6

> <JCHEM_PHYSIOLOGICAL_CHARGE>
6

> <JCHEM_PKA_STRONGEST_ACIDIC>
3.4811897193831474

> <JCHEM_PKA_STRONGEST_BASIC>
11.939853563034454

> <JCHEM_POLAR_SURFACE_AREA>
826.1600000000001

> <JCHEM_REFRACTIVITY>
565.3546000000001

> <JCHEM_ROTATABLE_BOND_COUNT>
73

> <JCHEM_RULE_OF_FIVE>
0

> <ALOGPS_SOLUBILITY>
2.96e-02 g/l

> <JCHEM_TRADITIONAL_IUPAC>
(4S)-4-{[(1S)-1-{[(1S)-1-{[(1S)-1-{[(1S)-1-[({[(2S)-6-amino-1-[(2S)-2-{[(1S)-1-[({[(1S)-5-amino-1-{[(1S)-5-amino-1-{[(1S)-5-amino-1-[(4-aminobutyl)carbamoyl]pentyl]carbamoyl}pentyl]carbamoyl}pentyl]carbamoyl}methyl)carbamoyl]-2-methylpropyl]carbamoyl}pyrrolidin-1-yl]-1-oxohexan-2-yl]carbamoyl}methyl)carbamoyl]-2-(1H-indol-3-yl)ethyl]carbamoyl}-4-carbamimidamidobutyl]carbamoyl}-2-phenylethyl]carbamoyl}-2-(1H-imidazol-4-yl)ethyl]carbamoyl}-4-[(2S)-2-[(2S)-2-[(2S)-2-(3-aminopropanamido)-3-(4-hydroxyphenyl)propanamido]-3-hydroxypropanamido]-4-(methylsulfanyl)butanamido]butanoic acid

> <JCHEM_VEBER_RULE>
0

> <DRUGBANK_ID>
DB13298

> <DRUG_GROUPS>
experimental

> <GENERIC_NAME>
Alsactide

> <SYNONYMS>
Alsactida; Alsactide; Alsactidum

> <INTERNATIONAL_BRANDS>
Synchrodyn

$$$$
