
  Mrv1909 05201914362D          

 39 44  0  0  0  0            999 V2000
   -5.2300   -1.4124    0.0000 C   0  0  0  0  0  0  0  0  0  0  0  0
   -4.8175   -0.6979    0.0000 O   0  0  0  0  0  0  0  0  0  0  0  0
   -3.9925   -0.6979    0.0000 C   0  0  0  0  0  0  0  0  0  0  0  0
   -3.5076   -0.0305    0.0000 N   0  0  0  0  0  0  0  0  0  0  0  0
   -2.7230   -0.2854    0.0000 N   0  0  0  0  0  0  0  0  0  0  0  0
   -1.9384   -0.0305    0.0000 C   0  0  0  0  0  0  0  0  0  0  0  0
   -1.4534   -0.6979    0.0000 C   0  0  0  0  0  0  0  0  0  0  0  0
   -1.9384   -1.3654    0.0000 N   0  0  0  0  0  0  0  0  0  0  0  0
   -2.7230   -1.1104    0.0000 C   0  0  0  0  0  0  0  0  0  0  0  0
   -3.5076   -1.3654    0.0000 S   0  0  0  0  0  0  0  0  0  0  0  0
   -0.6284   -0.6979    0.0000 C   0  0  0  0  0  0  0  0  0  0  0  0
   -0.1435   -1.3654    0.0000 C   0  0  0  0  0  0  0  0  0  0  0  0
    0.6411   -1.1104    0.0000 C   0  0  0  0  0  0  0  0  0  0  0  0
    0.6411   -0.2854    0.0000 C   0  0  0  0  0  0  0  0  0  0  0  0
   -0.1435   -0.0305    0.0000 O   0  0  0  0  0  0  0  0  0  0  0  0
    1.3556    0.1271    0.0000 C   0  0  0  0  0  0  0  0  0  0  0  0
    2.0701   -0.2854    0.0000 C   0  0  0  0  0  0  0  0  0  0  0  0
    2.7845    0.1271    0.0000 O   0  0  0  0  0  0  0  0  0  0  0  0
    3.4990   -0.2854    0.0000 C   0  0  0  0  0  0  0  0  0  0  0  0
    2.0701   -1.1104    0.0000 C   0  0  0  0  0  0  0  0  0  0  0  0
    1.3556   -1.5229    0.0000 C   0  0  0  0  0  0  0  0  0  0  0  0
    1.3556   -2.3479    0.0000 O   0  0  0  0  0  0  0  0  0  0  0  0
    0.6411   -2.7604    0.0000 C   0  0  0  0  0  0  0  0  0  0  0  0
    0.6411   -3.5854    0.0000 C   0  0  0  0  0  0  0  0  0  0  0  0
    1.3086   -4.0704    0.0000 C   0  0  0  0  0  0  0  0  0  0  0  0
    1.0536   -4.8550    0.0000 S   0  0  0  0  0  0  0  0  0  0  0  0
    0.2286   -4.8550    0.0000 C   0  0  0  0  0  0  0  0  0  0  0  0
   -0.0263   -4.0704    0.0000 N   0  0  0  0  0  0  0  0  0  0  0  0
   -0.2563   -5.5224    0.0000 C   0  0  0  0  0  0  0  0  0  0  0  0
    0.0792   -6.2761    0.0000 C   0  0  0  0  0  0  0  0  0  0  0  0
   -0.4057   -6.9435    0.0000 C   0  0  0  0  0  0  0  0  0  0  0  0
   -1.2262   -6.8573    0.0000 C   0  0  0  0  0  0  0  0  0  0  0  0
   -1.5617   -6.1036    0.0000 C   0  0  0  0  0  0  0  0  0  0  0  0
   -1.0768   -5.4362    0.0000 C   0  0  0  0  0  0  0  0  0  0  0  0
   -1.7111   -7.5247    0.0000 C   0  0  0  0  0  0  0  0  0  0  0  0
   -2.5316   -7.4385    0.0000 O   0  0  0  0  0  0  0  0  0  0  0  0
   -1.3755   -8.2784    0.0000 N   0  0  0  0  0  0  0  0  0  0  0  0
   -0.5550   -8.3647    0.0000 C   0  0  0  0  0  0  0  0  0  0  0  0
   -1.8604   -8.9459    0.0000 C   0  0  0  0  0  0  0  0  0  0  0  0
  1  2  1  0  0  0  0
  2  3  1  0  0  0  0
  3  4  2  0  0  0  0
  4  5  1  0  0  0  0
  5  6  1  0  0  0  0
  6  7  2  0  0  0  0
  7  8  1  0  0  0  0
  8  9  2  0  0  0  0
  5  9  1  0  0  0  0
  9 10  1  0  0  0  0
  3 10  1  0  0  0  0
  7 11  1  0  0  0  0
 11 12  2  0  0  0  0
 12 13  1  0  0  0  0
 13 14  2  0  0  0  0
 14 15  1  0  0  0  0
 11 15  1  0  0  0  0
 14 16  1  0  0  0  0
 16 17  2  0  0  0  0
 17 18  1  0  0  0  0
 18 19  1  0  0  0  0
 17 20  1  0  0  0  0
 20 21  2  0  0  0  0
 13 21  1  0  0  0  0
 21 22  1  0  0  0  0
 22 23  1  0  0  0  0
 23 24  1  0  0  0  0
 24 25  2  0  0  0  0
 25 26  1  0  0  0  0
 26 27  1  0  0  0  0
 27 28  2  0  0  0  0
 24 28  1  0  0  0  0
 27 29  1  0  0  0  0
 29 30  2  0  0  0  0
 30 31  1  0  0  0  0
 31 32  2  0  0  0  0
 32 33  1  0  0  0  0
 33 34  2  0  0  0  0
 29 34  1  0  0  0  0
 32 35  1  0  0  0  0
 35 36  2  0  0  0  0
 35 37  1  0  0  0  0
 37 38  1  0  0  0  0
 37 39  1  0  0  0  0
M  END
> <DATABASE_ID>
DB14942

> <DATABASE_NAME>
drugbank

> <SMILES>
COC1=NN2C=C(N=C2S1)C1=CC2=C(O1)C=C(OC)C=C2OCC1=CSC(=N1)C1=CC=C(C=C1)C(=O)N(C)C

> <INCHI_IDENTIFIER>
InChI=1S/C27H23N5O5S2/c1-31(2)25(33)16-7-5-15(6-8-16)24-28-17(14-38-24)13-36-21-9-18(34-3)10-22-19(21)11-23(37-22)20-12-32-26(29-20)39-27(30-32)35-4/h5-12,14H,13H2,1-4H3

> <INCHI_KEY>
KEEBLYWBELVGPQ-UHFFFAOYSA-N

> <FORMULA>
C27H23N5O5S2

> <MOLECULAR_WEIGHT>
561.63

> <EXACT_MASS>
561.114061209

> <JCHEM_ACCEPTOR_COUNT>
7

> <JCHEM_ATOM_COUNT>
62

> <JCHEM_AVERAGE_POLARIZABILITY>
60.17413547451494

> <JCHEM_BIOAVAILABILITY>
1

> <JCHEM_DONOR_COUNT>
0

> <JCHEM_FORMAL_CHARGE>
0

> <JCHEM_GHOSE_FILTER>
0

> <JCHEM_IUPAC>
4-(4-{[(6-methoxy-2-{2-methoxyimidazo[2,1-b][1,3,4]thiadiazol-6-yl}-1-benzofuran-4-yl)oxy]methyl}-1,3-thiazol-2-yl)-N,N-dimethylbenzamide

> <ALOGPS_LOGP>
4.90

> <JCHEM_LOGP>
4.893634076333335

> <ALOGPS_LOGS>
-4.27

> <JCHEM_MDDR_LIKE_RULE>
1

> <JCHEM_NUMBER_OF_RINGS>
6

> <JCHEM_PHYSIOLOGICAL_CHARGE>
0

> <JCHEM_PKA_STRONGEST_BASIC>
2.1129099467023784

> <JCHEM_POLAR_SURFACE_AREA>
104.22000000000001

> <JCHEM_REFRACTIVITY>
177.22699999999995

> <JCHEM_ROTATABLE_BOND_COUNT>
8

> <JCHEM_RULE_OF_FIVE>
0

> <ALOGPS_SOLUBILITY>
3.00e-02 g/l

> <JCHEM_TRADITIONAL_IUPAC>
(2R)-14-fluoro-2-methyl-6,9,10,19-tetraazapentacyclo[14.2.1.0^{2,6}.0^{8,18}.0^{12,17}]nonadeca-1(18),8,12(17),13,15-pentaen-11-one

> <JCHEM_VEBER_RULE>
0

> <DRUGBANK_ID>
DB14942

> <DRUG_GROUPS>
investigational

> <GENERIC_NAME>
BMS-986141

$$$$
