
  Mrv1909 07252218562D          

 10 10  0  0  0  0            999 V2000
   -0.3434    0.6160    0.0000 C   0  0  0  0  0  0  0  0  0  0  0  0
    0.3743    0.1963    0.0000 C   0  0  0  0  0  0  0  0  0  0  0  0
   -1.0595    0.1963    0.0000 C   0  0  0  0  0  0  0  0  0  0  0  0
   -0.3434    1.4194    0.0000 C   0  0  0  0  0  0  0  0  0  0  0  0
    0.3743   -0.6287    0.0000 C   0  0  0  0  0  0  0  0  0  0  0  0
   -1.0595   -0.6287    0.0000 C   0  0  0  0  0  0  0  0  0  0  0  0
    0.3561    1.8155    0.0000 C   0  0  0  0  0  0  0  0  0  0  0  0
   -0.3434   -1.0450    0.0000 C   0  0  0  0  0  0  0  0  0  0  0  0
    1.0595    1.4194    0.0000 O   0  0  0  0  0  0  0  0  0  0  0  0
   -0.3434   -1.8155    0.0000 O   0  0  0  0  0  0  0  0  0  0  0  0
  1  2  1  0  0  0  0
  1  3  2  0  0  0  0
  1  4  1  0  0  0  0
  2  5  2  0  0  0  0
  3  6  1  0  0  0  0
  4  7  1  0  0  0  0
  5  8  1  0  0  0  0
  7  9  1  0  0  0  0
  8 10  1  0  0  0  0
  6  8  2  0  0  0  0
M  END
> <DATABASE_ID>
DB16855

> <DATABASE_NAME>
drugbank

> <SMILES>
OCCC1=CC=C(O)C=C1

> <INCHI_IDENTIFIER>
InChI=1S/C8H10O2/c9-6-5-7-1-3-8(10)4-2-7/h1-4,9-10H,5-6H2

> <INCHI_KEY>
YCCILVSKPBXVIP-UHFFFAOYSA-N

> <FORMULA>
C8H10O2

> <MOLECULAR_WEIGHT>
138.166

> <EXACT_MASS>
138.068079562

> <JCHEM_ACCEPTOR_COUNT>
2

> <JCHEM_ATOM_COUNT>
20

> <JCHEM_AVERAGE_NEUTRAL_MICROSPECIES_CHARGE>
0.003956896648404112

> <JCHEM_AVERAGE_POLARIZABILITY>
14.839300313175423

> <JCHEM_BIOAVAILABILITY>
1

> <JCHEM_DONOR_COUNT>
2

> <JCHEM_FORMAL_CHARGE>
0

> <JCHEM_GHOSE_FILTER>
0

> <JCHEM_IUPAC>
4-(2-hydroxyethyl)phenol

> <ALOGPS_LOGP>
0.85

> <JCHEM_LOGP>
1.1909919319999998

> <ALOGPS_LOGS>
-0.74

> <JCHEM_MDDR_LIKE_RULE>
0

> <JCHEM_NEUTRAL_CHARGE>
0

> <JCHEM_NUMBER_OF_RINGS>
1

> <JCHEM_PHYSIOLOGICAL_CHARGE>
0

> <JCHEM_PKA>
15.974912510505817

> <JCHEM_PKA_STRONGEST_ACIDIC>
10.20403264247904

> <JCHEM_PKA_STRONGEST_BASIC>
-2.4009234189336803

> <JCHEM_POLAR_SURFACE_AREA>
40.46

> <JCHEM_REFRACTIVITY>
39.6098

> <JCHEM_ROTATABLE_BOND_COUNT>
2

> <JCHEM_RULE_OF_FIVE>
1

> <ALOGPS_SOLUBILITY>
2.53e+01 g/l

> <JCHEM_TRADITIONAL_IUPAC>
tyrosol

> <JCHEM_VEBER_RULE>
0

> <DRUGBANK_ID>
DB16855

> <DRUG_GROUPS>
investigational

> <GENERIC_NAME>
Tyrosol

> <SYNONYMS>
4-Hydroxyphenethyl alcohol; 4-Hydroxyphenylethanol; p-Tyrosol

$$$$
