
  Mrv1909 08262122052D          

 29 31  0  0  1  0            999 V2000
    1.1269   -0.2062    0.0000 N   0  0  0  0  0  0  0  0  0  0  0  0
    1.1269    0.6187    0.0000 C   0  0  1  0  0  0  0  0  0  0  0  0
    1.8414   -0.6187    0.0000 C   0  0  0  0  0  0  0  0  0  0  0  0
    0.3019   -0.2062    0.0000 C   0  0  0  0  0  0  0  0  0  0  0  0
    0.3019    0.6187    0.0000 C   0  0  1  0  0  0  0  0  0  0  0  0
    1.8414    1.0312    0.0000 S   0  0  0  0  0  0  0  0  0  0  0  0
    2.5559   -0.2062    0.0000 C   0  0  0  0  0  0  0  0  0  0  0  0
    1.8414   -1.4437    0.0000 C   0  0  0  0  0  0  0  0  0  0  0  0
   -0.4124   -0.6187    0.0000 O   0  0  0  0  0  0  0  0  0  0  0  0
   -0.4124    1.0312    0.0000 N   0  0  0  0  0  0  0  0  0  0  0  0
    2.5559    0.6187    0.0000 C   0  0  0  0  0  0  0  0  0  0  0  0
    3.2703   -0.6187    0.0000 C   0  0  0  0  0  0  0  0  0  0  0  0
    2.5559   -1.8562    0.0000 O   0  0  0  0  0  0  0  0  0  0  0  0
    1.1269   -1.8562    0.0000 O   0  0  0  0  0  0  0  0  0  0  0  0
   -1.1269    0.6187    0.0000 C   0  0  0  0  0  0  0  0  0  0  0  0
    3.9848   -0.2062    0.0000 C   0  0  0  0  0  0  0  0  0  0  0  0
   -1.8414    1.0312    0.0000 C   0  0  2  0  0  0  0  0  0  0  0  0
   -1.1269   -0.2062    0.0000 O   0  0  0  0  0  0  0  0  0  0  0  0
   -1.8414    1.8562    0.0000 N   0  0  0  0  0  0  0  0  0  0  0  0
    0.2873    1.3935    0.0000 H   0  0  0  0  0  0  0  0  0  0  0  0
    1.1415    1.3935    0.0000 H   0  0  0  0  0  0  0  0  0  0  0  0
   -2.5559    0.6187    0.0000 C   0  0  0  0  0  0  0  0  0  0  0  0
   -3.2703    1.0312    0.0000 C   0  0  0  0  0  0  0  0  0  0  0  0
   -2.5559   -0.2062    0.0000 C   0  0  0  0  0  0  0  0  0  0  0  0
   -3.9848    0.6187    0.0000 C   0  0  0  0  0  0  0  0  0  0  0  0
   -3.2703   -0.6187    0.0000 C   0  0  0  0  0  0  0  0  0  0  0  0
   -3.9848   -0.2062    0.0000 C   0  0  0  0  0  0  0  0  0  0  0  0
   -4.6993   -0.6187    0.0000 O   0  0  0  0  0  0  0  0  0  0  0  0
    4.6993   -0.6187    0.0000 C   0  0  0  0  0  0  0  0  0  0  0  0
  2  1  1  0  0  0  0
  3  1  1  0  0  0  0
  4  1  1  0  0  0  0
  5  2  1  0  0  0  0
  6  2  1  0  0  0  0
  2 21  1  6  0  0  0
  7  3  2  0  0  0  0
  8  3  1  0  0  0  0
  9  4  2  0  0  0  0
  5  4  1  0  0  0  0
  5 10  1  0  0  0  0
  5 20  1  6  0  0  0
 11  6  1  0  0  0  0
 12  7  1  0  0  0  0
 11  7  1  0  0  0  0
 13  8  2  0  0  0  0
 14  8  1  0  0  0  0
 15 10  1  0  0  0  0
 16 12  2  0  0  0  0
 17 15  1  0  0  0  0
 18 15  2  0  0  0  0
 17 19  1  1  0  0  0
 22 17  1  0  0  0  0
 23 22  1  0  0  0  0
 24 22  2  0  0  0  0
 25 23  2  0  0  0  0
 26 24  1  0  0  0  0
 27 25  1  0  0  0  0
 27 26  2  0  0  0  0
 28 27  1  0  0  0  0
 16 29  1  4  0  0  0
M  END
> <DATABASE_ID>
DB01150

> <DATABASE_NAME>
drugbank

> <SMILES>
[H][C@]12SCC(C=CC)=C(N1C(=O)[C@@]2([H])NC(=O)[C@H](N)C1=CC=C(O)C=C1)C(O)=O

> <INCHI_IDENTIFIER>
InChI=1S/C18H19N3O5S/c1-2-3-10-8-27-17-13(16(24)21(17)14(10)18(25)26)20-15(23)12(19)9-4-6-11(22)7-5-9/h2-7,12-13,17,22H,8,19H2,1H3,(H,20,23)(H,25,26)/t12-,13-,17-/m1/s1

> <INCHI_KEY>
WDLWHQDACQUCJR-PBFPGSCMSA-N

> <FORMULA>
C18H19N3O5S

> <MOLECULAR_WEIGHT>
389.426

> <EXACT_MASS>
389.104541423

> <JCHEM_ACCEPTOR_COUNT>
6

> <JCHEM_ATOM_COUNT>
46

> <JCHEM_AVERAGE_NEUTRAL_MICROSPECIES_CHARGE>
-0.3780946154430277

> <JCHEM_AVERAGE_POLARIZABILITY>
39.34702707999143

> <JCHEM_BIOAVAILABILITY>
1

> <JCHEM_DONOR_COUNT>
4

> <JCHEM_FORMAL_CHARGE>
0

> <JCHEM_GHOSE_FILTER>
0

> <JCHEM_IUPAC>
(6R,7R)-7-[(2R)-2-amino-2-(4-hydroxyphenyl)acetamido]-8-oxo-3-(prop-1-en-1-yl)-5-thia-1-azabicyclo[4.2.0]oct-2-ene-2-carboxylic acid

> <ALOGPS_LOGP>
0.94

> <JCHEM_LOGP>
-1.918181571689192

> <ALOGPS_LOGS>
-3.42

> <JCHEM_MDDR_LIKE_RULE>
0

> <JCHEM_NEUTRAL_CHARGE>
0

> <JCHEM_NUMBER_OF_RINGS>
3

> <JCHEM_PHYSIOLOGICAL_CHARGE>
0

> <JCHEM_PKA>
9.478217464007528

> <JCHEM_PKA_STRONGEST_ACIDIC>
3.29904517443279

> <JCHEM_PKA_STRONGEST_BASIC>
7.2216305960296765

> <JCHEM_POLAR_SURFACE_AREA>
132.96

> <JCHEM_REFRACTIVITY>
101.27310000000001

> <JCHEM_ROTATABLE_BOND_COUNT>
5

> <JCHEM_RULE_OF_FIVE>
1

> <ALOGPS_SOLUBILITY>
1.49e-01 g/l

> <JCHEM_TRADITIONAL_IUPAC>
cefprozilo

> <JCHEM_VEBER_RULE>
0

> <DRUGBANK_ID>
DB01150

> <SECONDARY_ACCESSION_NUMBERS>
APRD00461

> <DRUG_GROUPS>
approved

> <GENERIC_NAME>
Cefprozil

> <SYNONYMS>
Cefprozil; Cefprozil anhydrous; Cefprozilo; Cefprozilum

> <PRODUCTS>
Apo-cefprozil; Auro-cefprozil; Ava-cefprozil; Cefprozil; Cefprozil Powder for Oral Suspension; Cefprozil Tablets; Cefzil; Cefzil Powder for Oral Suspension-125mg/5ml; Cefzil Powder for Oral Suspension-250 Mg/ 5 Ml; Cefzil Tablets - 250mg; Cefzil Tablets - 500mg; Mint-cefprozil; Nu-cefprozil; Sandoz Cefprozil; Taro-cefprozil

> <INTERNATIONAL_BRANDS>
Brisoral; Cronocef; Serozil

> <SALTS>
Cefprozil monohydrate

$$$$
