
  Mrv1572011161518072D          

  1  0  0  0  0  0            999 V2000
    0.0000    0.0000    0.0000 Xe  0  0  0  0  0  0  0  0  0  0  0  0
M  ISO  1   1 133
M  END
> <DATABASE_ID>
DB09315

> <DATABASE_NAME>
drugbank

> <SMILES>
[133Xe]

> <INCHI_IDENTIFIER>
InChI=1S/Xe/i1+2

> <INCHI_KEY>
FHNFHKCVQCLJFQ-NJFSPNSNSA-N

> <FORMULA>
Xe

> <MOLECULAR_WEIGHT>
132.9059

> <EXACT_MASS>
132.90590566

> <JCHEM_ACCEPTOR_COUNT>
0

> <JCHEM_ATOM_COUNT>
1

> <JCHEM_AVERAGE_POLARIZABILITY>
1.7784

> <JCHEM_BIOAVAILABILITY>
1

> <JCHEM_DONOR_COUNT>
0

> <JCHEM_FORMAL_CHARGE>
0

> <JCHEM_GHOSE_FILTER>
0

> <JCHEM_IUPAC>
(¹³³Xe)xenon

> <JCHEM_LOGP>
0.0

> <JCHEM_MDDR_LIKE_RULE>
0

> <JCHEM_NUMBER_OF_RINGS>
0

> <JCHEM_PHYSIOLOGICAL_CHARGE>
0

> <JCHEM_POLAR_SURFACE_AREA>
0.0

> <JCHEM_REFRACTIVITY>
0.0

> <JCHEM_ROTATABLE_BOND_COUNT>
0

> <JCHEM_RULE_OF_FIVE>
1

> <JCHEM_TRADITIONAL_IUPAC>
(¹³³Xe)xenon

> <JCHEM_VEBER_RULE>
1

> <DRUGBANK_ID>
DB09315

> <DRUG_GROUPS>
approved

> <GENERIC_NAME>
Xenon-133

> <SYNONYMS>
Xenon (133 xe); Xenon (133Xe); Xenon (133Xe) gas; Xenon Xe 133; Xenon XE-133; Xenon, Xe-133

> <PRODUCTS>
Xenon; Xenon, Xe-133

$$$$
