
  Mrv1909 11281915282D          

 12 12  0  0  0  0            999 V2000
    0.0000   -0.6187    0.0000 C   0  0  0  0  0  0  0  0  0  0  0  0
   -0.7144   -0.2062    0.0000 C   0  0  0  0  0  0  0  0  0  0  0  0
    0.0000   -1.4437    0.0000 C   0  0  0  0  0  0  0  0  0  0  0  0
    0.7144   -0.2062    0.0000 C   0  0  0  0  0  0  0  0  0  0  0  0
   -1.4289   -0.6187    0.0000 C   0  0  0  0  0  0  0  0  0  0  0  0
   -0.7144    0.6187    0.0000 O   0  0  0  0  0  0  0  0  0  0  0  0
   -0.7144   -1.8562    0.0000 C   0  0  0  0  0  0  0  0  0  0  0  0
    1.4289   -0.6187    0.0000 N   0  0  0  0  0  0  0  0  0  0  0  0
    0.7144    0.6187    0.0000 O   0  0  0  0  0  0  0  0  0  0  0  0
   -1.4289   -1.4437    0.0000 C   0  0  0  0  0  0  0  0  0  0  0  0
   -1.4289    1.0312    0.0000 C   0  0  0  0  0  0  0  0  0  0  0  0
   -1.4289    1.8562    0.0000 C   0  0  0  0  0  0  0  0  0  0  0  0
  1  2  2  0  0  0  0
  1  3  1  0  0  0  0
  1  4  1  0  0  0  0
  2  5  1  0  0  0  0
  2  6  1  0  0  0  0
  3  7  2  0  0  0  0
  4  8  1  0  0  0  0
  4  9  2  0  0  0  0
  5 10  2  0  0  0  0
  6 11  1  0  0  0  0
 11 12  1  0  0  0  0
  7 10  1  0  0  0  0
M  END
> <DATABASE_ID>
DB13544

> <DATABASE_NAME>
drugbank

> <SMILES>
CCOC1=C(C=CC=C1)C(N)=O

> <INCHI_IDENTIFIER>
InChI=1S/C9H11NO2/c1-2-12-8-6-4-3-5-7(8)9(10)11/h3-6H,2H2,1H3,(H2,10,11)

> <INCHI_KEY>
SBNKFTQSBPKMBZ-UHFFFAOYSA-N

> <FORMULA>
C9H11NO2

> <MOLECULAR_WEIGHT>
165.192

> <EXACT_MASS>
165.078978598

> <JCHEM_ACCEPTOR_COUNT>
2

> <JCHEM_ATOM_COUNT>
23

> <JCHEM_AVERAGE_POLARIZABILITY>
17.289829220536888

> <JCHEM_BIOAVAILABILITY>
1

> <JCHEM_DONOR_COUNT>
1

> <JCHEM_FORMAL_CHARGE>
0

> <JCHEM_GHOSE_FILTER>
1

> <JCHEM_IUPAC>
2-ethoxybenzamide

> <ALOGPS_LOGP>
1.23

> <JCHEM_LOGP>
1.0230227993333332

> <ALOGPS_LOGS>
-1.83

> <JCHEM_MDDR_LIKE_RULE>
0

> <JCHEM_NUMBER_OF_RINGS>
1

> <JCHEM_PHYSIOLOGICAL_CHARGE>
0

> <JCHEM_PKA_STRONGEST_ACIDIC>
13.684025964947653

> <JCHEM_PKA_STRONGEST_BASIC>
-0.9298191078608672

> <JCHEM_POLAR_SURFACE_AREA>
52.32

> <JCHEM_REFRACTIVITY>
46.348200000000006

> <JCHEM_ROTATABLE_BOND_COUNT>
3

> <JCHEM_RULE_OF_FIVE>
1

> <ALOGPS_SOLUBILITY>
2.44e+00 g/l

> <JCHEM_TRADITIONAL_IUPAC>
iodoxamate meglumine

> <JCHEM_VEBER_RULE>
0

> <DRUGBANK_ID>
DB13544

> <DRUG_GROUPS>
experimental

> <GENERIC_NAME>
Ethenzamide

> <SYNONYMS>
Etenzamida; Etenzamide; Ethbenzamide; Ã©thenzamide; Ethenzamide; Ethenzamidum; o-Ethoxybenzamide

> <PRODUCTS>
Penzal Q

$$$$
