
  Mrv1718001051815262D          

 26 29  0  0  0  0            999 V2000
   -1.4289    0.8250    0.0000 C   0  0  0  0  0  0  0  0  0  0  0  0
   -1.4289    0.0000    0.0000 O   0  0  0  0  0  0  0  0  0  0  0  0
   -0.7145   -0.4125    0.0000 C   0  0  0  0  0  0  0  0  0  0  0  0
   -0.7145   -1.2375    0.0000 C   0  0  0  0  0  0  0  0  0  0  0  0
    0.0000   -1.6500    0.0000 C   0  0  0  0  0  0  0  0  0  0  0  0
    0.7145   -1.2375    0.0000 C   0  0  0  0  0  0  0  0  0  0  0  0
    0.7145   -0.4125    0.0000 C   0  0  0  0  0  0  0  0  0  0  0  0
    0.0000   -0.0000    0.0000 C   0  0  0  0  0  0  0  0  0  0  0  0
    0.0000    0.8250    0.0000 O   0  0  0  0  0  0  0  0  0  0  0  0
   -0.7145    1.2375    0.0000 C   0  0  0  0  0  0  0  0  0  0  0  0
    1.4289   -0.0000    0.0000 O   0  0  0  0  0  0  0  0  0  0  0  0
    2.1434   -0.4125    0.0000 C   0  0  0  0  0  0  0  0  0  0  0  0
    2.1434   -1.2375    0.0000 C   0  0  0  0  0  0  0  0  0  0  0  0
    1.4289   -1.6500    0.0000 C   0  0  0  0  0  0  0  0  0  0  0  0
    2.8579   -0.0000    0.0000 C   0  0  0  0  0  0  0  0  0  0  0  0
    3.2704    0.7145    0.0000 C   0  0  0  0  0  0  0  0  0  0  0  0
    3.6829   -0.0000    0.0000 C   0  0  0  0  0  0  0  0  0  0  0  0
    0.0000   -2.4750    0.0000 C   0  0  0  0  0  0  0  0  0  0  0  0
   -0.7145   -2.8875    0.0000 C   0  0  0  0  0  0  0  0  0  0  0  0
   -0.7145   -3.7125    0.0000 C   0  0  0  0  0  0  0  0  0  0  0  0
   -1.4289   -4.1250    0.0000 N   0  0  0  0  0  0  0  0  0  0  0  0
   -2.1434   -3.7125    0.0000 C   0  0  0  0  0  0  0  0  0  0  0  0
   -2.1434   -2.8875    0.0000 N   0  0  0  0  0  0  0  0  0  0  0  0
   -1.4289   -2.4750    0.0000 C   0  0  0  0  0  0  0  0  0  0  0  0
   -1.4289   -1.6500    0.0000 N   0  0  0  0  0  0  0  0  0  0  0  0
   -2.8579   -4.1250    0.0000 N   0  0  0  0  0  0  0  0  0  0  0  0
  1  2  1  0  0  0  0
  2  3  1  0  0  0  0
  3  4  2  0  0  0  0
  4  5  1  0  0  0  0
  5  6  2  0  0  0  0
  6  7  1  0  0  0  0
  7  8  2  0  0  0  0
  3  8  1  0  0  0  0
  8  9  1  0  0  0  0
  9 10  1  0  0  0  0
  7 11  1  0  0  0  0
 11 12  1  0  0  0  0
 12 13  1  0  0  0  0
 13 14  2  0  0  0  0
  6 14  1  0  0  0  0
 12 15  1  0  0  0  0
 15 16  1  0  0  0  0
 16 17  1  0  0  0  0
 15 17  1  0  0  0  0
  5 18  1  0  0  0  0
 18 19  1  0  0  0  0
 19 20  2  0  0  0  0
 20 21  1  0  0  0  0
 21 22  2  0  0  0  0
 22 23  1  0  0  0  0
 23 24  2  0  0  0  0
 19 24  1  0  0  0  0
 24 25  1  0  0  0  0
 22 26  1  0  0  0  0
M  END
> <DATABASE_ID>
DB06358

> <DATABASE_NAME>
drugbank

> <SMILES>
COC1=CC(CC2=CN=C(N)N=C2N)=C2C=CC(OC2=C1OC)C1CC1

> <INCHI_IDENTIFIER>
InChI=1S/C19H22N4O3/c1-24-15-8-11(7-12-9-22-19(21)23-18(12)20)13-5-6-14(10-3-4-10)26-16(13)17(15)25-2/h5-6,8-10,14H,3-4,7H2,1-2H3,(H4,20,21,22,23)

> <INCHI_KEY>
HWJPWWYTGBZDEG-UHFFFAOYSA-N

> <FORMULA>
C19H22N4O3

> <MOLECULAR_WEIGHT>
354.41

> <EXACT_MASS>
354.169190584

> <JCHEM_ACCEPTOR_COUNT>
7

> <JCHEM_ATOM_COUNT>
48

> <JCHEM_AVERAGE_POLARIZABILITY>
37.5287935879032

> <JCHEM_BIOAVAILABILITY>
1

> <JCHEM_DONOR_COUNT>
2

> <JCHEM_FORMAL_CHARGE>
0

> <JCHEM_GHOSE_FILTER>
1

> <JCHEM_IUPAC>
5-[(2-cyclopropyl-7,8-dimethoxy-2H-chromen-5-yl)methyl]pyrimidine-2,4-diamine

> <ALOGPS_LOGP>
2.35

> <JCHEM_LOGP>
2.4853946479999998

> <ALOGPS_LOGS>
-3.40

> <JCHEM_MDDR_LIKE_RULE>
0

> <JCHEM_NUMBER_OF_RINGS>
4

> <JCHEM_PHYSIOLOGICAL_CHARGE>
1

> <JCHEM_PKA_STRONGEST_ACIDIC>
17.32292783046178

> <JCHEM_PKA_STRONGEST_BASIC>
7.153362557172137

> <JCHEM_POLAR_SURFACE_AREA>
105.50999999999999

> <JCHEM_REFRACTIVITY>
101.9948

> <JCHEM_ROTATABLE_BOND_COUNT>
5

> <JCHEM_RULE_OF_FIVE>
1

> <ALOGPS_SOLUBILITY>
1.42e-01 g/l

> <JCHEM_TRADITIONAL_IUPAC>
iclaprim

> <JCHEM_VEBER_RULE>
0

> <DRUGBANK_ID>
DB06358

> <DRUG_GROUPS>
investigational

> <GENERIC_NAME>
Iclaprim

> <SYNONYMS>
Iclaprim

> <SALTS>
Iclaprim Mesylate

$$$$
