
  Mrv1718004201816122D          

 30 30  0  0  0  0            999 V2000
    0.0000    0.8250    0.0000 C   0  0  0  0  0  0  0  0  0  0  0  0
   -0.7145    0.4125    0.0000 C   0  0  0  0  0  0  0  0  0  0  0  0
   -0.7145   -0.4125    0.0000 C   0  0  0  0  0  0  0  0  0  0  0  0
    0.0000   -0.8250    0.0000 C   0  0  0  0  0  0  0  0  0  0  0  0
    0.7144   -0.4125    0.0000 C   0  0  0  0  0  0  0  0  0  0  0  0
    0.7144    0.4125    0.0000 C   0  0  0  0  0  0  0  0  0  0  0  0
    1.4289    0.8250    0.0000 C   0  0  0  0  0  0  0  0  0  0  0  0
    2.1433    0.4125    0.0000 N   0  0  0  0  0  0  0  0  0  0  0  0
    2.8578    0.8250    0.0000 C   0  0  0  0  0  0  0  0  0  0  0  0
    3.5723    0.4125    0.0000 C   0  0  0  0  0  0  0  0  0  0  0  0
    4.2867    0.8250    0.0000 O   0  0  0  0  0  0  0  0  0  0  0  0
    5.0012    0.4125    0.0000 C   0  0  0  0  0  0  0  0  0  0  0  0
    5.7158    0.8250    0.0000 C   0  0  0  0  0  0  0  0  0  0  0  0
    2.1433   -0.4125    0.0000 C   0  0  0  0  0  0  0  0  0  0  0  0
    2.8578   -0.8250    0.0000 C   0  0  0  0  0  0  0  0  0  0  0  0
    1.4289   -0.8250    0.0000 O   0  0  0  0  0  0  0  0  0  0  0  0
    2.8578   -1.6500    0.0000 Cl  0  0  0  0  0  0  0  0  0  0  0  0
    3.5723   -0.4125    0.0000 Cl  0  0  0  0  0  0  0  0  0  0  0  0
   -1.4290   -0.8250    0.0000 C   0  0  0  0  0  0  0  0  0  0  0  0
   -2.1434   -0.4125    0.0000 N   0  0  0  0  0  0  0  0  0  0  0  0
   -2.8579   -0.8250    0.0000 C   0  0  0  0  0  0  0  0  0  0  0  0
   -2.1434    0.4125    0.0000 C   0  0  0  0  0  0  0  0  0  0  0  0
   -2.8579    0.8250    0.0000 C   0  0  0  0  0  0  0  0  0  0  0  0
   -2.8579    1.6499    0.0000 Cl  0  0  0  0  0  0  0  0  0  0  0  0
   -3.5724    0.4125    0.0000 Cl  0  0  0  0  0  0  0  0  0  0  0  0
   -1.4290    0.8250    0.0000 O   0  0  0  0  0  0  0  0  0  0  0  0
   -3.5724   -0.4125    0.0000 C   0  0  0  0  0  0  0  0  0  0  0  0
   -4.2869   -0.8250    0.0000 O   0  0  0  0  0  0  0  0  0  0  0  0
   -5.0013   -0.4125    0.0000 C   0  0  0  0  0  0  0  0  0  0  0  0
   -5.7158   -0.8250    0.0000 C   0  0  0  0  0  0  0  0  0  0  0  0
  1  2  1  0  0  0  0
  1  6  2  0  0  0  0
  2  3  2  0  0  0  0
  3  4  1  0  0  0  0
  4  5  2  0  0  0  0
  5  6  1  0  0  0  0
  6  7  1  0  0  0  0
  7  8  1  0  0  0  0
  8  9  1  0  0  0  0
  9 10  1  0  0  0  0
 10 11  1  0  0  0  0
 11 12  1  0  0  0  0
 12 13  1  0  0  0  0
  8 14  1  0  0  0  0
 14 15  1  0  0  0  0
 14 16  2  0  0  0  0
 15 17  1  0  0  0  0
 15 18  1  0  0  0  0
  3 19  1  0  0  0  0
 19 20  1  0  0  0  0
 20 21  1  0  0  0  0
 20 22  1  0  0  0  0
 22 23  1  0  0  0  0
 23 24  1  0  0  0  0
 23 25  1  0  0  0  0
 22 26  2  0  0  0  0
 21 27  1  0  0  0  0
 27 28  1  0  0  0  0
 28 29  1  0  0  0  0
 29 30  1  0  0  0  0
M  END
> <DATABASE_ID>
DB13205

> <DATABASE_NAME>
drugbank

> <SMILES>
CCOCCN(CC1=CC=C(CN(CCOCC)C(=O)C(Cl)Cl)C=C1)C(=O)C(Cl)Cl

> <INCHI_IDENTIFIER>
InChI=1S/C20H28Cl4N2O4/c1-3-29-11-9-25(19(27)17(21)22)13-15-5-7-16(8-6-15)14-26(10-12-30-4-2)20(28)18(23)24/h5-8,17-18H,3-4,9-14H2,1-2H3

> <INCHI_KEY>
MSJLJWCAEPENBL-UHFFFAOYSA-N

> <FORMULA>
C20H28Cl4N2O4

> <MOLECULAR_WEIGHT>
502.25

> <EXACT_MASS>
500.0803182

> <JCHEM_ACCEPTOR_COUNT>
4

> <JCHEM_ATOM_COUNT>
58

> <JCHEM_AVERAGE_POLARIZABILITY>
50.10228452132984

> <JCHEM_BIOAVAILABILITY>
0

> <JCHEM_DONOR_COUNT>
0

> <JCHEM_FORMAL_CHARGE>
0

> <JCHEM_GHOSE_FILTER>
0

> <JCHEM_IUPAC>
2,2-dichloro-N-[(4-{[2,2-dichloro-N-(2-ethoxyethyl)acetamido]methyl}phenyl)methyl]-N-(2-ethoxyethyl)acetamide

> <ALOGPS_LOGP>
4.06

> <JCHEM_LOGP>
3.492549573333334

> <ALOGPS_LOGS>
-5.55

> <JCHEM_MDDR_LIKE_RULE>
0

> <JCHEM_NUMBER_OF_RINGS>
1

> <JCHEM_PHYSIOLOGICAL_CHARGE>
0

> <JCHEM_PKA>
16.98227327893011

> <JCHEM_PKA_STRONGEST_ACIDIC>
16.380213287602142

> <JCHEM_PKA_STRONGEST_BASIC>
-3.8287409962902825

> <JCHEM_POLAR_SURFACE_AREA>
59.08

> <JCHEM_REFRACTIVITY>
123.2216

> <JCHEM_ROTATABLE_BOND_COUNT>
14

> <JCHEM_RULE_OF_FIVE>
0

> <ALOGPS_SOLUBILITY>
1.42e-03 g/l

> <JCHEM_TRADITIONAL_IUPAC>
teclozan

> <JCHEM_VEBER_RULE>
0

> <DRUGBANK_ID>
DB13205

> <DRUG_GROUPS>
experimental

> <GENERIC_NAME>
Teclozan

> <SYNONYMS>
Teclozan; Teclozanum

$$$$
