
  Mrv1652306131722022D          

 30 33  0  0  0  0            999 V2000
   -4.2868    8.0036    0.0000 C   0  0  0  0  0  0  0  0  0  0  0  0
   -3.5724    7.5911    0.0000 C   0  0  0  0  0  0  0  0  0  0  0  0
   -2.8579    8.0036    0.0000 C   0  0  0  0  0  0  0  0  0  0  0  0
   -2.1434    7.5911    0.0000 N   0  0  0  0  0  0  0  0  0  0  0  0
   -2.1434    6.7661    0.0000 C   0  0  0  0  0  0  0  0  0  0  0  0
   -2.8579    6.3536    0.0000 C   0  0  0  0  0  0  0  0  0  0  0  0
   -3.5724    6.7661    0.0000 N   0  0  0  0  0  0  0  0  0  0  0  0
   -2.8579    5.5286    0.0000 O   0  0  0  0  0  0  0  0  0  0  0  0
   -3.5724    5.1161    0.0000 C   0  0  0  0  0  0  0  0  0  0  0  0
   -1.4289    6.3536    0.0000 N   0  0  0  0  0  0  0  0  0  0  0  0
   -0.7145    6.7661    0.0000 S   0  0  0  0  0  0  0  0  0  0  0  0
   -0.3020    6.0516    0.0000 O   0  0  0  0  0  0  0  0  0  0  0  0
   -1.1270    7.4805    0.0000 O   0  0  0  0  0  0  0  0  0  0  0  0
   -0.0000    7.1786    0.0000 C   0  0  0  0  0  0  0  0  0  0  0  0
   -0.0000    8.0036    0.0000 C   0  0  0  0  0  0  0  0  0  0  0  0
    0.7145    8.4161    0.0000 C   0  0  0  0  0  0  0  0  0  0  0  0
    1.4289    8.0036    0.0000 C   0  0  0  0  0  0  0  0  0  0  0  0
    1.4289    7.1786    0.0000 N   0  0  0  0  0  0  0  0  0  0  0  0
    0.7145    6.7661    0.0000 C   0  0  0  0  0  0  0  0  0  0  0  0
    0.7145    5.9411    0.0000 C   0  0  0  0  0  0  0  0  0  0  0  0
    1.4289    5.5286    0.0000 C   0  0  0  0  0  0  0  0  0  0  0  0
    1.4289    4.7036    0.0000 C   0  0  0  0  0  0  0  0  0  0  0  0
    0.7145    4.2911    0.0000 C   0  0  0  0  0  0  0  0  0  0  0  0
    0.0000    4.7036    0.0000 C   0  0  0  0  0  0  0  0  0  0  0  0
   -0.0000    5.5286    0.0000 C   0  0  0  0  0  0  0  0  0  0  0  0
    0.7145    3.4661    0.0000 C   0  0  0  0  0  0  0  0  0  0  0  0
    1.3819    2.9812    0.0000 N   0  0  0  0  0  0  0  0  0  0  0  0
    1.1270    2.1965    0.0000 N   0  0  0  0  0  0  0  0  0  0  0  0
    0.3020    2.1965    0.0000 C   0  0  0  0  0  0  0  0  0  0  0  0
    0.0470    2.9812    0.0000 O   0  0  0  0  0  0  0  0  0  0  0  0
  1  2  1  0  0  0  0
  2  3  2  0  0  0  0
  3  4  1  0  0  0  0
  4  5  2  0  0  0  0
  5  6  1  0  0  0  0
  6  7  2  0  0  0  0
  2  7  1  0  0  0  0
  6  8  1  0  0  0  0
  8  9  1  0  0  0  0
  5 10  1  0  0  0  0
 10 11  1  0  0  0  0
 11 12  2  0  0  0  0
 11 13  2  0  0  0  0
 11 14  1  0  0  0  0
 14 15  2  0  0  0  0
 15 16  1  0  0  0  0
 16 17  2  0  0  0  0
 17 18  1  0  0  0  0
 18 19  2  0  0  0  0
 14 19  1  0  0  0  0
 19 20  1  0  0  0  0
 20 21  2  0  0  0  0
 21 22  1  0  0  0  0
 22 23  2  0  0  0  0
 23 24  1  0  0  0  0
 24 25  2  0  0  0  0
 20 25  1  0  0  0  0
 23 26  1  0  0  0  0
 26 27  2  0  0  0  0
 27 28  1  0  0  0  0
 28 29  2  0  0  0  0
 29 30  1  0  0  0  0
 26 30  1  0  0  0  0
M  END
> <DATABASE_ID>
DB06629

> <DATABASE_NAME>
drugbank

> <SMILES>
COC1=NC(C)=CN=C1NS(=O)(=O)C1=CC=CN=C1C1=CC=C(C=C1)C1=NN=CO1

> <INCHI_IDENTIFIER>
InChI=1S/C19H16N6O4S/c1-12-10-21-17(19(23-12)28-2)25-30(26,27)15-4-3-9-20-16(15)13-5-7-14(8-6-13)18-24-22-11-29-18/h3-11H,1-2H3,(H,21,25)

> <INCHI_KEY>
FJHHZXWJVIEFGJ-UHFFFAOYSA-N

> <FORMULA>
C19H16N6O4S

> <MOLECULAR_WEIGHT>
424.44

> <EXACT_MASS>
424.095374193

> <JCHEM_ACCEPTOR_COUNT>
8

> <JCHEM_ATOM_COUNT>
46

> <JCHEM_AVERAGE_POLARIZABILITY>
42.04823248706018

> <JCHEM_BIOAVAILABILITY>
1

> <JCHEM_DONOR_COUNT>
1

> <JCHEM_FORMAL_CHARGE>
0

> <JCHEM_GHOSE_FILTER>
1

> <JCHEM_IUPAC>
N-(3-methoxy-5-methylpyrazin-2-yl)-2-[4-(1,3,4-oxadiazol-2-yl)phenyl]pyridine-3-sulfonamide

> <ALOGPS_LOGP>
2.33

> <JCHEM_LOGP>
1.009793443666667

> <ALOGPS_LOGS>
-3.38

> <JCHEM_MDDR_LIKE_RULE>
0

> <JCHEM_NUMBER_OF_RINGS>
4

> <JCHEM_PHYSIOLOGICAL_CHARGE>
-1

> <JCHEM_PKA_STRONGEST_ACIDIC>
5.459917935678794

> <JCHEM_PKA_STRONGEST_BASIC>
0.9197693693865404

> <JCHEM_POLAR_SURFACE_AREA>
132.99

> <JCHEM_REFRACTIVITY>
118.89260000000002

> <JCHEM_ROTATABLE_BOND_COUNT>
5

> <JCHEM_RULE_OF_FIVE>
1

> <ALOGPS_SOLUBILITY>
1.77e-01 g/l

> <JCHEM_TRADITIONAL_IUPAC>
zibotentan

> <JCHEM_VEBER_RULE>
0

> <DRUGBANK_ID>
DB06629

> <DRUG_GROUPS>
investigational

> <GENERIC_NAME>
Zibotentan

> <SYNONYMS>
Zibotentan

$$$$
