
  Mrv1572010141516472D          

 25 27  0  0  0  0            999 V2000
   -0.7125    2.5124    0.0000 C   0  0  0  0  0  0  0  0  0  0  0  0
   -1.4700    2.0999    0.0000 C   0  0  0  0  0  0  0  0  0  0  0  0
   -2.1825    2.5124    0.0000 C   0  0  0  0  0  0  0  0  0  0  0  0
   -0.7125    3.3374    0.0000 O   0  0  0  0  0  0  0  0  0  0  0  0
    0.0000    2.0999    0.0000 N   0  0  0  0  0  0  0  0  0  0  0  0
    1.4324    3.7499    0.0000 C   0  0  0  0  0  0  0  0  0  0  0  0
    2.1825    3.3374    0.0000 C   0  0  0  0  0  0  0  0  0  0  0  0
    2.1825    2.5124    0.0000 C   0  0  0  0  0  0  0  0  0  0  0  0
    1.4699    2.0999    0.0000 C   0  0  0  0  0  0  0  0  0  0  0  0
    0.7124    2.5124    0.0000 C   0  0  0  0  0  0  0  0  0  0  0  0
    0.7124    3.3374    0.0000 C   0  0  0  0  0  0  0  0  0  0  0  0
    0.0000   -0.3675    0.0000 N   0  0  0  0  0  0  0  0  0  0  0  0
    0.7124    0.0000    0.0000 C   0  0  0  0  0  0  0  0  0  0  0  0
   -0.7125    0.0000    0.0000 C   0  0  0  0  0  0  0  0  0  0  0  0
    0.7124    0.8624    0.0000 C   0  0  0  0  0  0  0  0  0  0  0  0
   -0.7125    0.8624    0.0000 C   0  0  0  0  0  0  0  0  0  0  0  0
    0.0000    1.2750    0.0000 C   0  0  0  0  0  0  0  0  0  0  0  0
    0.0000   -1.2374    0.0000 C   0  0  0  0  0  0  0  0  0  0  0  0
    0.7124   -1.6499    0.0000 C   0  0  0  0  0  0  0  0  0  0  0  0
    1.4324   -1.2374    0.0000 O   0  0  0  0  0  0  0  0  0  0  0  0
    0.0450   -2.9699    0.0000 S   0  0  0  0  0  0  0  0  0  0  0  0
    0.3075   -3.7499    0.0000 C   0  0  0  0  0  0  0  0  0  0  0  0
    0.7124   -2.4749    0.0000 C   0  0  0  0  0  0  0  0  0  0  0  0
    1.3874   -2.9699    0.0000 C   0  0  0  0  0  0  0  0  0  0  0  0
    1.1250   -3.7499    0.0000 C   0  0  0  0  0  0  0  0  0  0  0  0
  1  2  1  0  0  0  0
  1  5  1  0  0  0  0
  1  4  2  0  0  0  0
  2  3  1  0  0  0  0
  5 10  1  0  0  0  0
  5 17  1  0  0  0  0
  6 11  2  0  0  0  0
  6  7  1  0  0  0  0
  7  8  2  0  0  0  0
  8  9  1  0  0  0  0
  9 10  2  0  0  0  0
 10 11  1  0  0  0  0
 12 13  1  0  0  0  0
 12 14  1  0  0  0  0
 12 18  1  0  0  0  0
 13 15  1  0  0  0  0
 14 16  1  0  0  0  0
 15 17  1  0  0  0  0
 16 17  1  0  0  0  0
 18 19  1  0  0  0  0
 19 20  1  0  0  0  0
 19 23  1  0  0  0  0
 21 22  1  0  0  0  0
 21 23  1  0  0  0  0
 22 25  2  0  0  0  0
 23 24  2  0  0  0  0
 24 25  1  0  0  0  0
M  END
> <DATABASE_ID>
DB09170

> <DATABASE_NAME>
drugbank

> <SMILES>
CCC(=O)N(C1CCN(CC(O)C2=CC=CS2)CC1)C1=CC=CC=C1

> <INCHI_IDENTIFIER>
InChI=1S/C20H26N2O2S/c1-2-20(24)22(16-7-4-3-5-8-16)17-10-12-21(13-11-17)15-18(23)19-9-6-14-25-19/h3-9,14,17-18,23H,2,10-13,15H2,1H3

> <INCHI_KEY>
GLAAETOTOUGGSB-UHFFFAOYSA-N

> <FORMULA>
C20H26N2O2S

> <MOLECULAR_WEIGHT>
358.5

> <EXACT_MASS>
358.171499259

> <JCHEM_ACCEPTOR_COUNT>
3

> <JCHEM_ATOM_COUNT>
51

> <JCHEM_AVERAGE_POLARIZABILITY>
40.590576609078326

> <JCHEM_BIOAVAILABILITY>
1

> <JCHEM_DONOR_COUNT>
1

> <JCHEM_FORMAL_CHARGE>
0

> <JCHEM_GHOSE_FILTER>
1

> <JCHEM_IUPAC>
N-{1-[2-hydroxy-2-(thiophen-2-yl)ethyl]piperidin-4-yl}-N-phenylpropanamide

> <ALOGPS_LOGP>
2.57

> <JCHEM_LOGP>
2.809383774333332

> <ALOGPS_LOGS>
-4.04

> <JCHEM_MDDR_LIKE_RULE>
1

> <JCHEM_NUMBER_OF_RINGS>
3

> <JCHEM_PHYSIOLOGICAL_CHARGE>
1

> <JCHEM_PKA_STRONGEST_ACIDIC>
13.6894975497454

> <JCHEM_PKA_STRONGEST_BASIC>
8.160812300488477

> <JCHEM_POLAR_SURFACE_AREA>
43.78

> <JCHEM_REFRACTIVITY>
101.57990000000001

> <JCHEM_ROTATABLE_BOND_COUNT>
6

> <JCHEM_RULE_OF_FIVE>
1

> <ALOGPS_SOLUBILITY>
3.26e-02 g/l

> <JCHEM_TRADITIONAL_IUPAC>
betahydroxythiofentanyl

> <JCHEM_VEBER_RULE>
0

> <DRUGBANK_ID>
DB09170

> <DRUG_GROUPS>
illicit

> <GENERIC_NAME>
Î²-Hydroxythiofentanyl

> <SYNONYMS>
beta-Hydroxythiofentanyl

$$$$
