
  Mrv1652310201622562D          

 44 47  0  0  1  0            999 V2000
   -0.3020   -3.6020    0.0000 C   0  0  0  0  0  0  0  0  0  0  0  0
   -0.7145   -2.8875    0.0000 C   0  0  0  0  0  0  0  0  0  0  0  0
   -1.1270   -2.1730    0.0000 C   0  0  0  0  0  0  0  0  0  0  0  0
   -1.4289   -3.3000    0.0000 C   0  0  0  0  0  0  0  0  0  0  0  0
   -1.4289   -4.1250    0.0000 C   0  0  0  0  0  0  0  0  0  0  0  0
   -0.7145   -4.5375    0.0000 C   0  0  0  0  0  0  0  0  0  0  0  0
   -0.7145   -5.3625    0.0000 C   0  0  0  0  0  0  0  0  0  0  0  0
   -1.4289   -5.7750    0.0000 C   0  0  0  0  0  0  0  0  0  0  0  0
   -2.1434   -5.3625    0.0000 C   0  0  0  0  0  0  0  0  0  0  0  0
   -2.1434   -4.5375    0.0000 C   0  0  0  0  0  0  0  0  0  0  0  0
   -2.8579   -5.7750    0.0000 C   0  0  0  0  0  0  0  0  0  0  0  0
   -2.8579   -6.6000    0.0000 C   0  0  0  0  0  0  0  0  0  0  0  0
   -2.1434   -7.0125    0.0000 O   0  0  0  0  0  0  0  0  0  0  0  0
   -3.5724   -7.0125    0.0000 N   0  0  0  0  0  0  0  0  0  0  0  0
   -3.5724   -7.8375    0.0000 C   0  0  0  0  0  0  0  0  0  0  0  0
   -4.2868   -8.2500    0.0000 C   0  0  0  0  0  0  0  0  0  0  0  0
   -4.2868   -9.0750    0.0000 C   0  0  0  0  0  0  0  0  0  0  0  0
   -5.0013   -9.4875    0.0000 C   0  0  0  0  0  0  0  0  0  0  0  0
   -5.7158   -9.0750    0.0000 C   0  0  0  0  0  0  0  0  0  0  0  0
   -5.7158   -8.2500    0.0000 C   0  0  0  0  0  0  0  0  0  0  0  0
   -5.0013   -7.8375    0.0000 C   0  0  0  0  0  0  0  0  0  0  0  0
   -6.4302   -7.8375    0.0000 C   0  0  0  0  0  0  0  0  0  0  0  0
   -7.1447   -8.2500    0.0000 C   0  0  0  0  0  0  0  0  0  0  0  0
   -7.8592   -7.8375    0.0000 C   0  0  0  0  0  0  0  0  0  0  0  0
   -7.8592   -7.0125    0.0000 C   0  0  0  0  0  0  0  0  0  0  0  0
   -7.1447   -6.6000    0.0000 C   0  0  0  0  0  0  0  0  0  0  0  0
   -6.4302   -7.0125    0.0000 C   0  0  0  0  0  0  0  0  0  0  0  0
   -8.5737   -6.6000    0.0000 O   0  0  0  0  0  0  0  0  0  0  0  0
    0.0000   -2.4750    0.0000 N   0  0  0  0  0  0  0  0  0  0  0  0
    0.0000   -1.6500    0.0000 C   0  0  0  0  0  0  0  0  0  0  0  0
    0.7145   -1.2375    0.0000 C   0  0  1  0  0  0  0  0  0  0  0  0
    0.7145   -0.4125    0.0000 C   0  0  0  0  0  0  0  0  0  0  0  0
    0.0000   -0.0000    0.0000 C   0  0  0  0  0  0  0  0  0  0  0  0
    0.0000    0.8250    0.0000 C   0  0  0  0  0  0  0  0  0  0  0  0
    0.7145    1.2375    0.0000 C   0  0  0  0  0  0  0  0  0  0  0  0
    1.4289    0.8250    0.0000 C   0  0  0  0  0  0  0  0  0  0  0  0
    1.4289   -0.0000    0.0000 C   0  0  0  0  0  0  0  0  0  0  0  0
    2.1434    1.2375    0.0000 N   0  0  0  0  0  0  0  0  0  0  0  0
    2.1434    2.0625    0.0000 S   0  0  0  0  0  0  0  0  0  0  0  0
    2.1434    2.8875    0.0000 O   0  0  0  0  0  0  0  0  0  0  0  0
    2.9684    2.0625    0.0000 O   0  0  0  0  0  0  0  0  0  0  0  0
    1.3184    2.0625    0.0000 C   0  0  0  0  0  0  0  0  0  0  0  0
    0.7145    2.0625    0.0000 O   0  0  0  0  0  0  0  0  0  0  0  0
    1.4289   -1.6500    0.0000 O   0  0  0  0  0  0  0  0  0  0  0  0
  1  2  1  0  0  0  0
  2  3  1  0  0  0  0
  2  4  1  0  0  0  0
  4  5  1  0  0  0  0
  5  6  2  0  0  0  0
  6  7  1  0  0  0  0
  7  8  2  0  0  0  0
  8  9  1  0  0  0  0
  9 10  2  0  0  0  0
  5 10  1  0  0  0  0
  9 11  1  0  0  0  0
 11 12  1  0  0  0  0
 12 13  2  0  0  0  0
 12 14  1  0  0  0  0
 14 15  1  0  0  0  0
 15 16  1  0  0  0  0
 16 17  2  0  0  0  0
 17 18  1  0  0  0  0
 18 19  2  0  0  0  0
 19 20  1  0  0  0  0
 20 21  2  0  0  0  0
 16 21  1  0  0  0  0
 20 22  1  0  0  0  0
 22 23  2  0  0  0  0
 23 24  1  0  0  0  0
 24 25  2  0  0  0  0
 25 26  1  0  0  0  0
 26 27  2  0  0  0  0
 22 27  1  0  0  0  0
 25 28  1  0  0  0  0
  2 29  1  0  0  0  0
 29 30  1  0  0  0  0
 30 31  1  0  0  0  0
 31 32  1  0  0  0  0
 32 33  2  0  0  0  0
 33 34  1  0  0  0  0
 34 35  2  0  0  0  0
 35 36  1  0  0  0  0
 36 37  2  0  0  0  0
 32 37  1  0  0  0  0
 36 38  1  0  0  0  0
 38 39  1  0  0  0  0
 39 40  2  0  0  0  0
 39 41  2  0  0  0  0
 39 42  1  0  0  0  0
 35 43  1  0  0  0  0
 31 44  1  1  0  0  0
M  END
> <DATABASE_ID>
DB11871

> <DATABASE_NAME>
drugbank

> <SMILES>
CC(C)(CC1=CC=CC(CC(=O)NCC2=CC=CC(=C2)C2=CC=C(O)C=C2)=C1)NC[C@H](O)C1=CC=C(O)C(NS(C)(=O)=O)=C1

> <INCHI_IDENTIFIER>
InChI=1S/C34H39N3O6S/c1-34(2,36-22-32(40)28-12-15-31(39)30(19-28)37-44(3,42)43)20-24-7-4-6-23(16-24)18-33(41)35-21-25-8-5-9-27(17-25)26-10-13-29(38)14-11-26/h4-17,19,32,36-40H,18,20-22H2,1-3H3,(H,35,41)/t32-/m0/s1

> <INCHI_KEY>
YPHDIMUXXABSSO-YTTGMZPUSA-N

> <FORMULA>
C34H39N3O6S

> <MOLECULAR_WEIGHT>
617.76

> <EXACT_MASS>
617.255957162

> <JCHEM_ACCEPTOR_COUNT>
7

> <JCHEM_ATOM_COUNT>
83

> <JCHEM_AVERAGE_POLARIZABILITY>
67.39779962496122

> <JCHEM_BIOAVAILABILITY>
0

> <JCHEM_DONOR_COUNT>
6

> <JCHEM_FORMAL_CHARGE>
0

> <JCHEM_GHOSE_FILTER>
0

> <JCHEM_IUPAC>
2-[3-(2-{[(2R)-2-hydroxy-2-(4-hydroxy-3-methanesulfonamidophenyl)ethyl]amino}-2-methylpropyl)phenyl]-N-({4'-hydroxy-[1,1'-biphenyl]-3-yl}methyl)acetamide

> <ALOGPS_LOGP>
4.38

> <JCHEM_LOGP>
3.107027301864917

> <ALOGPS_LOGS>
-5.71

> <JCHEM_MDDR_LIKE_RULE>
1

> <JCHEM_NUMBER_OF_RINGS>
4

> <JCHEM_PHYSIOLOGICAL_CHARGE>
1

> <JCHEM_PKA>
8.355869524995297

> <JCHEM_PKA_STRONGEST_ACIDIC>
7.852644118623682

> <JCHEM_PKA_STRONGEST_BASIC>
9.584281248015243

> <JCHEM_POLAR_SURFACE_AREA>
147.99

> <JCHEM_REFRACTIVITY>
172.1134

> <JCHEM_ROTATABLE_BOND_COUNT>
12

> <JCHEM_RULE_OF_FIVE>
0

> <ALOGPS_SOLUBILITY>
1.21e-03 g/l

> <JCHEM_TRADITIONAL_IUPAC>
2-[3-(2-{[(2R)-2-hydroxy-2-(4-hydroxy-3-methanesulfonamidophenyl)ethyl]amino}-2-methylpropyl)phenyl]-N-({4'-hydroxy-[1,1'-biphenyl]-3-yl}methyl)acetamide

> <JCHEM_VEBER_RULE>
0

> <DRUGBANK_ID>
DB11871

> <DRUG_GROUPS>
investigational

> <GENERIC_NAME>
PF-00610355

$$$$
