
  Mrv1909 05201915132D          

 25 28  0  0  1  0            999 V2000
    3.9359   -0.8048    0.0000 C   0  0  0  0  0  0  0  0  0  0  0  0
    3.4379   -0.1470    0.0000 N   0  0  0  0  0  0  0  0  0  0  0  0
    3.6774    0.6425    0.0000 C   0  0  0  0  0  0  0  0  0  0  0  0
    3.0005    1.1142    0.0000 C   0  0  0  0  0  0  0  0  0  0  0  0
    2.3427    0.6162    0.0000 C   0  0  1  0  0  0  0  0  0  0  0  0
    2.0724    1.3956    0.0000 C   0  0  0  0  0  0  0  0  0  0  0  0
    2.6131   -0.1633    0.0000 C   0  0  2  0  0  0  0  0  0  0  0  0
    1.9554   -0.6613    0.0000 N   0  0  0  0  0  0  0  0  0  0  0  0
    1.9716   -1.4861    0.0000 C   0  0  0  0  0  0  0  0  0  0  0  0
    1.2785   -0.1896    0.0000 C   0  0  0  0  0  0  0  0  0  0  0  0
    0.4750   -0.3770    0.0000 C   0  0  0  0  0  0  0  0  0  0  0  0
   -0.0890    0.2251    0.0000 C   0  0  0  0  0  0  0  0  0  0  0  0
    0.1505    1.0146    0.0000 C   0  0  0  0  0  0  0  0  0  0  0  0
   -0.4136    1.6167    0.0000 O   0  0  0  0  0  0  0  0  0  0  0  0
   -0.1741    2.4062    0.0000 C   0  0  0  0  0  0  0  0  0  0  0  0
    0.6293    2.5936    0.0000 O   0  0  0  0  0  0  0  0  0  0  0  0
   -0.7381    3.0083    0.0000 N   0  0  0  0  0  0  0  0  0  0  0  0
   -0.4987    3.7978    0.0000 C   0  0  0  0  0  0  0  0  0  0  0  0
   -1.0627    4.3999    0.0000 C   0  0  0  0  0  0  0  0  0  0  0  0
   -0.8233    5.1894    0.0000 C   0  0  0  0  0  0  0  0  0  0  0  0
   -0.0199    5.3768    0.0000 C   0  0  0  0  0  0  0  0  0  0  0  0
    0.5441    4.7747    0.0000 C   0  0  0  0  0  0  0  0  0  0  0  0
    0.3047    3.9852    0.0000 C   0  0  0  0  0  0  0  0  0  0  0  0
    0.9539    1.2020    0.0000 C   0  0  0  0  0  0  0  0  0  0  0  0
    1.5179    0.5999    0.0000 C   0  0  0  0  0  0  0  0  0  0  0  0
  1  2  1  0  0  0  0
  2  3  1  0  0  0  0
  3  4  1  0  0  0  0
  5  4  1  0  0  0  0
  5  6  1  6  0  0  0
  5  7  1  0  0  0  0
  7  2  1  1  0  0  0
  7  8  1  0  0  0  0
  8  9  1  0  0  0  0
  8 10  1  0  0  0  0
 10 11  2  0  0  0  0
 11 12  1  0  0  0  0
 12 13  2  0  0  0  0
 13 14  1  0  0  0  0
 14 15  1  0  0  0  0
 15 16  2  0  0  0  0
 15 17  1  0  0  0  0
 17 18  1  0  0  0  0
 18 19  2  0  0  0  0
 19 20  1  0  0  0  0
 20 21  2  0  0  0  0
 21 22  1  0  0  0  0
 22 23  2  0  0  0  0
 18 23  1  0  0  0  0
 13 24  1  0  0  0  0
 24 25  2  0  0  0  0
  5 25  1  0  0  0  0
 10 25  1  0  0  0  0
M  END
> <DATABASE_ID>
DB15317

> <DATABASE_NAME>
drugbank

> <SMILES>
CN1CC[C@@]2(C)[C@@H]1N(C)C1=CC=C(OC(=O)NC3=CC=CC=C3)C=C21

> <INCHI_IDENTIFIER>
InChI=1S/C20H23N3O2/c1-20-11-12-22(2)18(20)23(3)17-10-9-15(13-16(17)20)25-19(24)21-14-7-5-4-6-8-14/h4-10,13,18H,11-12H2,1-3H3,(H,21,24)/t18-,20+/m0/s1

> <INCHI_KEY>
PBHFNBQPZCRWQP-AZUAARDMSA-N

> <FORMULA>
C20H23N3O2

> <MOLECULAR_WEIGHT>
337.423

> <EXACT_MASS>
337.179026993

> <JCHEM_ACCEPTOR_COUNT>
4

> <JCHEM_ATOM_COUNT>
48

> <JCHEM_AVERAGE_POLARIZABILITY>
37.50244692027144

> <JCHEM_BIOAVAILABILITY>
1

> <JCHEM_DONOR_COUNT>
1

> <JCHEM_FORMAL_CHARGE>
0

> <JCHEM_GHOSE_FILTER>
1

> <JCHEM_IUPAC>
(3aR,8aS)-1,3a,8-trimethyl-1H,2H,3H,3aH,8H,8aH-pyrrolo[2,3-b]indol-5-yl N-phenylcarbamate

> <ALOGPS_LOGP>
3.38

> <JCHEM_LOGP>
4.250101519

> <ALOGPS_LOGS>
-3.82

> <JCHEM_MDDR_LIKE_RULE>
0

> <JCHEM_NUMBER_OF_RINGS>
4

> <JCHEM_PHYSIOLOGICAL_CHARGE>
0

> <JCHEM_PKA_STRONGEST_ACIDIC>
12.859102064672118

> <JCHEM_PKA_STRONGEST_BASIC>
6.582511444360409

> <JCHEM_POLAR_SURFACE_AREA>
44.81

> <JCHEM_REFRACTIVITY>
99.95520000000002

> <JCHEM_ROTATABLE_BOND_COUNT>
3

> <JCHEM_RULE_OF_FIVE>
1

> <ALOGPS_SOLUBILITY>
5.09e-02 g/l

> <JCHEM_TRADITIONAL_IUPAC>
(2R)-14-fluoro-2-methyl-6,9,10,19-tetraazapentacyclo[14.2.1.0^{2,6}.0^{8,18}.0^{12,17}]nonadeca-1(18),8,12(17),13,15-pentaen-11-one

> <JCHEM_VEBER_RULE>
0

> <DRUGBANK_ID>
DB15317

> <DRUG_GROUPS>
investigational

> <GENERIC_NAME>
Posiphen

> <SYNONYMS>
(+)-Posiphen

$$$$
