
  Mrv1909 11061921352D          

 51 56  0  0  0  0            999 V2000
    0.0527   -2.6269    0.0000 O   0  0  0  0  0  0  0  0  0  0  0  0
   -1.0625   -3.8012    0.0000 O   0  0  0  0  0  0  0  0  0  0  0  0
    2.4745   -2.1165    0.0000 O   0  0  0  0  0  0  0  0  0  0  0  0
   -0.7545   -2.7971    0.0000 O   0  0  0  0  0  0  0  0  0  0  0  0
    1.3808    4.2920    0.0000 O   0  0  0  0  0  0  0  0  0  0  0  0
    0.0816    4.0182    0.0000 O   0  0  0  0  0  0  0  0  0  0  0  0
    1.3726   -0.8884    0.0000 N   0  0  0  0  0  0  0  0  0  0  0  0
    1.8851    0.6798    0.0000 N   0  0  0  0  0  0  0  0  0  0  0  0
   -2.1127   -2.3531    0.0000 N   0  0  0  0  0  0  0  0  0  0  0  0
    3.5381   -1.1622    0.0000 N   0  0  0  0  0  0  0  0  0  0  0  0
    2.1798   -0.7183    0.0000 C   0  0  1  0  0  0  0  0  0  0  0  0
    1.1163   -1.6727    0.0000 C   0  0  0  0  0  0  0  0  0  0  0  0
    2.4362    0.0658    0.0000 C   0  0  0  0  0  0  0  0  0  0  0  0
    0.8216   -0.2743    0.0000 C   0  0  0  0  0  0  0  0  0  0  0  0
   -1.0492   -1.3988    0.0000 C   0  0  2  0  0  0  0  0  0  0  0  0
    0.3090   -1.8428    0.0000 C   0  0  2  0  0  0  0  0  0  0  0  0
   -0.2419   -1.2287    0.0000 C   0  0  0  0  0  0  0  0  0  0  0  0
    1.0779    0.5097    0.0000 C   0  0  0  0  0  0  0  0  0  0  0  0
   -1.6001   -0.7848    0.0000 C   0  0  1  0  0  0  0  0  0  0  0  0
   -2.3690   -3.1374    0.0000 C   0  0  2  0  0  0  0  0  0  0  0  0
    2.7308   -1.3323    0.0000 C   0  0  0  0  0  0  0  0  0  0  0  0
   -1.8875   -3.8012    0.0000 C   0  0  1  0  0  0  0  0  0  0  0  0
   -1.3055   -2.1830    0.0000 C   0  0  0  0  0  0  0  0  0  0  0  0
    2.1415    1.4640    0.0000 C   0  0  0  0  0  0  0  0  0  0  0  0
   -3.1496   -3.3887    0.0000 C   0  0  0  0  0  0  0  0  0  0  0  0
   -2.3690   -4.4651    0.0000 C   0  0  0  0  0  0  0  0  0  0  0  0
   -3.1496   -4.2138    0.0000 C   0  0  0  0  0  0  0  0  0  0  0  0
   -1.3438   -0.0006    0.0000 C   0  0  0  0  0  0  0  0  0  0  0  0
   -2.4074   -0.9549    0.0000 C   0  0  0  0  0  0  0  0  0  0  0  0
    3.7944   -0.3781    0.0000 C   0  0  0  0  0  0  0  0  0  0  0  0
    1.5905    2.0781    0.0000 C   0  0  0  0  0  0  0  0  0  0  0  0
   -3.8642   -2.9762    0.0000 C   0  0  0  0  0  0  0  0  0  0  0  0
   -3.8642   -4.6263    0.0000 C   0  0  0  0  0  0  0  0  0  0  0  0
   -0.5366    0.1694    0.0000 C   0  0  0  0  0  0  0  0  0  0  0  0
   -1.8948    0.6133    0.0000 C   0  0  0  0  0  0  0  0  0  0  0  0
    4.5786   -0.6343    0.0000 C   0  0  0  0  0  0  0  0  0  0  0  0
    3.0102   -0.1217    0.0000 C   0  0  0  0  0  0  0  0  0  0  0  0
    4.0507    0.4060    0.0000 C   0  0  0  0  0  0  0  0  0  0  0  0
   -4.5786   -3.3887    0.0000 C   0  0  0  0  0  0  0  0  0  0  0  0
    1.8468    2.8622    0.0000 C   0  0  0  0  0  0  0  0  0  0  0  0
   -4.5786   -4.2138    0.0000 C   0  0  0  0  0  0  0  0  0  0  0  0
    0.7833    1.9079    0.0000 C   0  0  0  0  0  0  0  0  0  0  0  0
   -0.2802    0.9537    0.0000 C   0  0  0  0  0  0  0  0  0  0  0  0
   -1.6385    1.3976    0.0000 C   0  0  0  0  0  0  0  0  0  0  0  0
    1.2958    3.4763    0.0000 C   0  0  0  0  0  0  0  0  0  0  0  0
    0.2322    2.5220    0.0000 C   0  0  0  0  0  0  0  0  0  0  0  0
    0.4886    3.3062    0.0000 C   0  0  0  0  0  0  0  0  0  0  0  0
   -0.8313    1.5677    0.0000 C   0  0  0  0  0  0  0  0  0  0  0  0
    0.6319    4.6263    0.0000 C   0  0  0  0  0  0  0  0  0  0  0  0
   -2.4543   -1.9725    0.0000 H   0  0  0  0  0  0  0  0  0  0  0  0
    3.8797   -1.5430    0.0000 H   0  0  0  0  0  0  0  0  0  0  0  0
 16  1  1  1  0  0  0
 22  2  1  6  0  0  0
  3 21  2  0  0  0  0
  4 23  2  0  0  0  0
  5 45  1  0  0  0  0
  5 49  1  0  0  0  0
  6 47  1  0  0  0  0
  6 49  1  0  0  0  0
  7 11  1  0  0  0  0
  7 12  1  0  0  0  0
  7 14  1  0  0  0  0
  8 13  1  0  0  0  0
  8 18  1  0  0  0  0
  8 24  1  0  0  0  0
 20  9  1  6  0  0  0
  9 23  1  0  0  0  0
  9 50  1  0  0  0  0
 10 21  1  0  0  0  0
 10 30  1  0  0  0  0
 10 51  1  0  0  0  0
 11 13  1  0  0  0  0
 11 21  1  1  0  0  0
 12 16  1  0  0  0  0
 14 18  1  0  0  0  0
 15 17  1  1  0  0  0
 15 19  1  0  0  0  0
 15 23  1  0  0  0  0
 16 17  1  0  0  0  0
 19 28  1  0  0  0  0
 19 29  1  6  0  0  0
 20 22  1  0  0  0  0
 20 25  1  0  0  0  0
 22 26  1  0  0  0  0
 24 31  1  0  0  0  0
 25 27  1  0  0  0  0
 25 32  2  0  0  0  0
 26 27  1  0  0  0  0
 27 33  2  0  0  0  0
 28 34  2  0  0  0  0
 28 35  1  0  0  0  0
 30 36  1  0  0  0  0
 30 37  1  0  0  0  0
 30 38  1  0  0  0  0
 31 40  2  0  0  0  0
 31 42  1  0  0  0  0
 32 39  1  0  0  0  0
 33 41  1  0  0  0  0
 34 43  1  0  0  0  0
 35 44  2  0  0  0  0
 39 41  2  0  0  0  0
 40 45  1  0  0  0  0
 42 46  2  0  0  0  0
 43 48  2  0  0  0  0
 44 48  1  0  0  0  0
 45 47  2  0  0  0  0
 46 47  1  0  0  0  0
M  END
> <DATABASE_ID>
DB01721

> <DATABASE_NAME>
drugbank

> <SMILES>
[H]N([C@@H]1[C@H](O)CC2=CC=CC=C12)C(=O)[C@H](C[C@H](O)CN1CCN(CC2=CC3=C(OCO3)C=C2)C[C@H]1C(=O)N([H])C(C)(C)C)[C@H](C)C1=CC=CC=C1

> <INCHI_IDENTIFIER>
InChI=1S/C39H50N4O6/c1-25(27-10-6-5-7-11-27)31(37(46)40-36-30-13-9-8-12-28(30)19-33(36)45)20-29(44)22-43-17-16-42(23-32(43)38(47)41-39(2,3)4)21-26-14-15-34-35(18-26)49-24-48-34/h5-15,18,25,29,31-33,36,44-45H,16-17,19-24H2,1-4H3,(H,40,46)(H,41,47)/t25-,29+,31-,32+,33-,36+/m1/s1

> <INCHI_KEY>
MJIRDPUZGGHJMX-XPYHLXFLSA-N

> <FORMULA>
C39H50N4O6

> <MOLECULAR_WEIGHT>
670.851

> <EXACT_MASS>
670.373035346

> <JCHEM_ACCEPTOR_COUNT>
8

> <JCHEM_ATOM_COUNT>
99

> <JCHEM_AVERAGE_POLARIZABILITY>
74.64246536166412

> <JCHEM_BIOAVAILABILITY>
0

> <JCHEM_DONOR_COUNT>
4

> <JCHEM_FORMAL_CHARGE>
0

> <JCHEM_GHOSE_FILTER>
0

> <JCHEM_IUPAC>
(2S)-4-[(2H-1,3-benzodioxol-5-yl)methyl]-N-tert-butyl-1-[(2S,4R)-2-hydroxy-4-{[(1S,2R)-2-hydroxy-2,3-dihydro-1H-inden-1-yl]carbamoyl}-4-[(1S)-1-phenylethyl]butyl]piperazine-2-carboxamide

> <ALOGPS_LOGP>
4.37

> <JCHEM_LOGP>
3.937855849

> <ALOGPS_LOGS>
-4.46

> <JCHEM_MDDR_LIKE_RULE>
1

> <JCHEM_NUMBER_OF_RINGS>
6

> <JCHEM_PHYSIOLOGICAL_CHARGE>
1

> <JCHEM_PKA>
14.176847708224763

> <JCHEM_PKA_STRONGEST_ACIDIC>
13.027499316036387

> <JCHEM_PKA_STRONGEST_BASIC>
6.899944980746421

> <JCHEM_POLAR_SURFACE_AREA>
123.6

> <JCHEM_REFRACTIVITY>
188.36649999999992

> <JCHEM_ROTATABLE_BOND_COUNT>
12

> <JCHEM_RULE_OF_FIVE>
0

> <ALOGPS_SOLUBILITY>
2.33e-02 g/l

> <JCHEM_TRADITIONAL_IUPAC>
3-carbamoyl-1-[(2R,3R,4S,5R)-5-[({[(2R,3S,4R,5R)-3,4-dihydroxy-5-{imidazo[2,1-f]purin-3-yl}oxolan-2-yl]methoxy(hydroxy)phosphoryl phosphonato}oxy)methyl]-3,4-dihydroxyoxolan-2-yl]-1lambda5-pyridin-1-ylium

> <JCHEM_VEBER_RULE>
0

> <DRUGBANK_ID>
DB01721

> <SECONDARY_ACCESSION_NUMBERS>
EXPT03261

> <DRUG_GROUPS>
experimental

> <GENERIC_NAME>
N-[2-hydroxy-1-indanyl]-5-[(2-tertiarybutylaminocarbonyl)-4(benzo[1,3]dioxol-5-ylmethyl)-piperazino]-4-hydroxy-2-(1-phenylethyl)-pentanamide

> <SYNONYMS>
Analogue of indinavir drug

$$$$
