
  Mrv1909 07152219302D          

 12 12  0  0  0  0            999 V2000
    0.3746    0.8124    0.0000 C   0  0  0  0  0  0  0  0  0  0  0  0
   -0.3719    0.3926    0.0000 C   0  0  0  0  0  0  0  0  0  0  0  0
    1.0827    0.3926    0.0000 C   0  0  0  0  0  0  0  0  0  0  0  0
    0.3746    1.6956    0.0000 C   0  0  0  0  0  0  0  0  0  0  0  0
   -0.3719   -0.4312    0.0000 C   0  0  0  0  0  0  0  0  0  0  0  0
   -1.0827    0.8124    0.0000 O   0  0  0  0  0  0  0  0  0  0  0  0
    1.0827   -0.4312    0.0000 C   0  0  0  0  0  0  0  0  0  0  0  0
   -0.3719    2.0689    0.0000 C   0  0  0  0  0  0  0  0  0  0  0  0
    1.0827    2.1100    0.0000 O   0  0  0  0  0  0  0  0  0  0  0  0
    0.3746   -0.8535    0.0000 C   0  0  0  0  0  0  0  0  0  0  0  0
    0.3746   -1.6904    0.0000 O   0  0  0  0  0  0  0  0  0  0  0  0
    1.0827   -2.1100    0.0000 C   0  0  0  0  0  0  0  0  0  0  0  0
  1  2  1  0  0  0  0
  1  3  2  0  0  0  0
  1  4  1  0  0  0  0
  2  5  2  0  0  0  0
  2  6  1  0  0  0  0
  3  7  1  0  0  0  0
  4  8  1  0  0  0  0
  4  9  2  0  0  0  0
  5 10  1  0  0  0  0
 10 11  1  0  0  0  0
 11 12  1  0  0  0  0
  7 10  2  0  0  0  0
M  END
> <DATABASE_ID>
DB16830

> <DATABASE_NAME>
drugbank

> <SMILES>
COC1=CC=C(C(C)=O)C(O)=C1

> <INCHI_IDENTIFIER>
InChI=1S/C9H10O3/c1-6(10)8-4-3-7(12-2)5-9(8)11/h3-5,11H,1-2H3

> <INCHI_KEY>
UILPJVPSNHJFIK-UHFFFAOYSA-N

> <FORMULA>
C9H10O3

> <MOLECULAR_WEIGHT>
166.176

> <EXACT_MASS>
166.062994182

> <JCHEM_ACCEPTOR_COUNT>
3

> <JCHEM_ATOM_COUNT>
22

> <JCHEM_AVERAGE_NEUTRAL_MICROSPECIES_CHARGE>
-0.00875185520231048

> <JCHEM_AVERAGE_POLARIZABILITY>
16.91861402554087

> <JCHEM_BIOAVAILABILITY>
1

> <JCHEM_DONOR_COUNT>
1

> <JCHEM_FORMAL_CHARGE>
0

> <JCHEM_GHOSE_FILTER>
1

> <JCHEM_IUPAC>
1-(2-hydroxy-4-methoxyphenyl)ethan-1-one

> <ALOGPS_LOGP>
1.60

> <JCHEM_LOGP>
1.719656747333333

> <ALOGPS_LOGS>
-1.75

> <JCHEM_MDDR_LIKE_RULE>
0

> <JCHEM_NEUTRAL_CHARGE>
0

> <JCHEM_NUMBER_OF_RINGS>
1

> <JCHEM_PHYSIOLOGICAL_CHARGE>
0

> <JCHEM_PKA>
16.624184123879623

> <JCHEM_PKA_STRONGEST_ACIDIC>
9.054082275513046

> <JCHEM_PKA_STRONGEST_BASIC>
-4.847337048730731

> <JCHEM_POLAR_SURFACE_AREA>
46.53

> <JCHEM_REFRACTIVITY>
44.904900000000005

> <JCHEM_ROTATABLE_BOND_COUNT>
2

> <JCHEM_RULE_OF_FIVE>
1

> <ALOGPS_SOLUBILITY>
2.98e+00 g/l

> <JCHEM_TRADITIONAL_IUPAC>
abscisic acid

> <JCHEM_VEBER_RULE>
0

> <DRUGBANK_ID>
DB16830

> <DRUG_GROUPS>
investigational

> <GENERIC_NAME>
Paeonol

> <SYNONYMS>
Peonol

$$$$
