
  Mrv1652306031607172D          

 15 15  0  0  0  0            999 V2000
   -1.4289    4.1250    0.0000 C   0  0  0  0  0  0  0  0  0  0  0  0
   -2.2539    3.3000    0.0000 C   0  0  0  0  0  0  0  0  0  0  0  0
   -0.6039    3.3000    0.0000 C   0  0  0  0  0  0  0  0  0  0  0  0
    0.7145   -0.4125    0.0000 C   0  0  0  0  0  0  0  0  0  0  0  0
    1.4289    0.0000    0.0000 C   0  0  0  0  0  0  0  0  0  0  0  0
   -0.0000    0.0000    0.0000 C   0  0  0  0  0  0  0  0  0  0  0  0
    1.4289    0.8250    0.0000 C   0  0  0  0  0  0  0  0  0  0  0  0
   -0.7145    2.0625    0.0000 C   0  0  0  0  0  0  0  0  0  0  0  0
    0.0000    0.8250    0.0000 C   0  0  0  0  0  0  0  0  0  0  0  0
    0.7145    1.2375    0.0000 C   0  0  0  0  0  0  0  0  0  0  0  0
   -0.7145    1.2375    0.0000 C   0  0  0  0  0  0  0  0  0  0  0  0
   -1.4289    3.3000    0.0000 C   0  0  0  0  0  0  0  0  0  0  0  0
    0.7145    2.0625    0.0000 Cl  0  0  0  0  0  0  0  0  0  0  0  0
   -1.4289    2.4750    0.0000 N   0  0  0  0  0  0  0  0  0  0  0  0
   -1.4289    0.8250    0.0000 O   0  0  0  0  0  0  0  0  0  0  0  0
  5  4  2  0  0  0  0
  6  4  1  0  0  0  0
  7  5  1  0  0  0  0
  9  6  2  0  0  0  0
 10  7  2  0  0  0  0
 10  9  1  0  0  0  0
 11  8  1  0  0  0  0
 11  9  1  0  0  0  0
 12  1  1  0  0  0  0
 12  2  1  0  0  0  0
 12  3  1  0  0  0  0
 13 10  1  0  0  0  0
 14  8  1  0  0  0  0
 14 12  1  0  0  0  0
 15 11  1  0  0  0  0
M  END
> <DATABASE_ID>
DB12248

> <DATABASE_NAME>
drugbank

> <SMILES>
CC(C)(C)NCC(O)C1=CC=CC=C1Cl

> <INCHI_IDENTIFIER>
InChI=1S/C12H18ClNO/c1-12(2,3)14-8-11(15)9-6-4-5-7-10(9)13/h4-7,11,14-15H,8H2,1-3H3

> <INCHI_KEY>
YREYLAVBNPACJM-UHFFFAOYSA-N

> <FORMULA>
C12H18ClNO

> <MOLECULAR_WEIGHT>
227.73

> <EXACT_MASS>
227.1076919

> <JCHEM_ACCEPTOR_COUNT>
2

> <JCHEM_ATOM_COUNT>
33

> <JCHEM_AVERAGE_POLARIZABILITY>
24.530580426292648

> <JCHEM_BIOAVAILABILITY>
1

> <JCHEM_DONOR_COUNT>
2

> <JCHEM_FORMAL_CHARGE>
0

> <JCHEM_GHOSE_FILTER>
1

> <JCHEM_IUPAC>
2-(tert-butylamino)-1-(2-chlorophenyl)ethan-1-ol

> <ALOGPS_LOGP>
2.95

> <JCHEM_LOGP>
2.5592640276666674

> <ALOGPS_LOGS>
-2.79

> <JCHEM_MDDR_LIKE_RULE>
0

> <JCHEM_NUMBER_OF_RINGS>
1

> <JCHEM_PHYSIOLOGICAL_CHARGE>
1

> <JCHEM_PKA_STRONGEST_ACIDIC>
13.904786821314847

> <JCHEM_PKA_STRONGEST_BASIC>
9.54735884701832

> <JCHEM_POLAR_SURFACE_AREA>
32.26

> <JCHEM_REFRACTIVITY>
63.8789

> <JCHEM_ROTATABLE_BOND_COUNT>
4

> <JCHEM_RULE_OF_FIVE>
1

> <ALOGPS_SOLUBILITY>
3.66e-01 g/l

> <JCHEM_TRADITIONAL_IUPAC>
tulobuterol

> <JCHEM_VEBER_RULE>
1

> <DRUGBANK_ID>
DB12248

> <DRUG_GROUPS>
investigational

> <GENERIC_NAME>
Tulobuterol

> <SYNONYMS>
Tulobuterol

> <SALTS>
Tulobuterol Hydrochloride

$$$$
