
  Mrv1909 12152018142D          

 20 20  0  0  1  0            999 V2000
    1.8414    1.7605    0.0000 C   0  0  0  0  0  0  0  0  0  0  0  0
    1.4289    2.4750    0.0000 C   0  0  1  0  0  0  0  0  0  0  0  0
    0.7145    2.0625    0.0000 C   0  0  0  0  0  0  0  0  0  0  0  0
    0.7145    1.2375    0.0000 C   0  0  0  0  0  0  0  0  0  0  0  0
    1.4289    0.8250    0.0000 C   0  0  0  0  0  0  0  0  0  0  0  0
    1.4289   -0.0000    0.0000 C   0  0  0  0  0  0  0  0  0  0  0  0
    0.7145   -0.4125    0.0000 C   0  0  0  0  0  0  0  0  0  0  0  0
    0.7145   -1.2375    0.0000 O   0  0  0  0  0  0  0  0  0  0  0  0
   -0.0000   -1.6500    0.0000 P   0  0  0  0  0  0  0  0  0  0  0  0
   -0.7145   -2.0625    0.0000 O   0  0  0  0  0  0  0  0  0  0  0  0
    0.4125   -2.3645    0.0000 O   0  0  0  0  0  0  0  0  0  0  0  0
   -0.4125   -0.9355    0.0000 O   0  0  0  0  0  0  0  0  0  0  0  0
    0.0000    0.0000    0.0000 C   0  0  0  0  0  0  0  0  0  0  0  0
   -0.7145   -0.4125    0.0000 O   0  0  0  0  0  0  0  0  0  0  0  0
    0.0000    0.8250    0.0000 C   0  0  0  0  0  0  0  0  0  0  0  0
    1.0164    3.1895    0.0000 N   0  0  0  0  0  0  0  0  0  0  0  0
    0.1914    3.1895    0.0000 N   0  0  0  0  0  0  0  0  0  0  0  0
    2.1434    2.8875    0.0000 C   0  0  0  0  0  0  0  0  0  0  0  0
    2.1434    3.7125    0.0000 O   0  0  0  0  0  0  0  0  0  0  0  0
    2.8579    2.4750    0.0000 O   0  0  0  0  0  0  0  0  0  0  0  0
  2  1  1  1  0  0  0
  2  3  1  6  0  0  0
  3  4  1  0  0  0  0
  4  5  2  0  0  0  0
  5  6  1  0  0  0  0
  6  7  2  0  0  0  0
  7  8  1  0  0  0  0
  8  9  1  0  0  0  0
  9 10  1  0  0  0  0
  9 11  1  0  0  0  0
  9 12  2  0  0  0  0
  7 13  1  0  0  0  0
 13 14  1  0  0  0  0
 13 15  2  0  0  0  0
  4 15  1  0  0  0  0
  2 16  1  0  0  0  0
 16 17  1  0  0  0  0
  2 18  1  0  0  0  0
 18 19  1  0  0  0  0
 18 20  2  0  0  0  0
M  END
> <DATABASE_ID>
DB16171

> <DATABASE_NAME>
drugbank

> <SMILES>
C[C@@](CC1=CC=C(OP(O)(O)=O)C(O)=C1)(NN)C(O)=O

> <INCHI_IDENTIFIER>
InChI=1S/C10H15N2O7P/c1-10(12-11,9(14)15)5-6-2-3-8(7(13)4-6)19-20(16,17)18/h2-4,12-13H,5,11H2,1H3,(H,14,15)(H2,16,17,18)/t10-/m0/s1

> <INCHI_KEY>
PQUZXFMHVSMUNG-JTQLQIEISA-N

> <FORMULA>
C10H15N2O7P

> <MOLECULAR_WEIGHT>
306.211

> <EXACT_MASS>
306.061687829

> <JCHEM_ACCEPTOR_COUNT>
8

> <JCHEM_ATOM_COUNT>
35

> <JCHEM_AVERAGE_NEUTRAL_MICROSPECIES_CHARGE>
-2.6778900698693815

> <JCHEM_AVERAGE_POLARIZABILITY>
26.76565681603418

> <JCHEM_BIOAVAILABILITY>
1

> <JCHEM_DONOR_COUNT>
6

> <JCHEM_FORMAL_CHARGE>
0

> <JCHEM_GHOSE_FILTER>
0

> <JCHEM_IUPAC>
(2S)-2-hydrazinyl-3-[3-hydroxy-4-(phosphonooxy)phenyl]-2-methylpropanoic acid

> <ALOGPS_LOGP>
-1.27

> <JCHEM_LOGP>
-0.8990222512558337

> <ALOGPS_LOGS>
-2.60

> <JCHEM_MDDR_LIKE_RULE>
0

> <JCHEM_NEUTRAL_CHARGE>
-3

> <JCHEM_NUMBER_OF_RINGS>
1

> <JCHEM_PHYSIOLOGICAL_CHARGE>
-3

> <JCHEM_PKA>
2.477459033828668

> <JCHEM_PKA_STRONGEST_ACIDIC>
1.7162031714192278

> <JCHEM_PKA_STRONGEST_BASIC>
5.638107884528938

> <JCHEM_POLAR_SURFACE_AREA>
162.33999999999997

> <JCHEM_REFRACTIVITY>
79.6412

> <JCHEM_ROTATABLE_BOND_COUNT>
6

> <JCHEM_RULE_OF_FIVE>
0

> <ALOGPS_SOLUBILITY>
7.69e-01 g/l

> <JCHEM_TRADITIONAL_IUPAC>
2-methoxy-4-[(1E)-3-[4-(nitrooxy)butoxy]-3-oxoprop-1-en-1-yl]phenyl (4R)-4-[(1R,3aS,3bR,4S,5aS,7R,9aS,9bS,11aR)-4,7-dihydroxy-9a,11a-dimethyl-tetradecahydro-1H-cyclopenta[a]phenanthren-1-yl]pentanoate

> <JCHEM_VEBER_RULE>
0

> <DRUGBANK_ID>
DB16171

> <DRUG_GROUPS>
investigational

> <GENERIC_NAME>
Foscarbidopa

> <SYNONYMS>
Foscarbidopa

$$$$
