
  Mrv1652310201623382D          

  1  0  0  0  0  0            999 V2000
    0.0000    0.0000    0.0000 I   0  5  0  0  0  0  0  0  0  0  0  0
M  CHG  1   1  -1
M  ISO  1   1 131
M  END
> <DATABASE_ID>
DB09293

> <DATABASE_NAME>
drugbank

> <SMILES>
[131I-]

> <INCHI_IDENTIFIER>
InChI=1S/HI/h1H/p-1/i1+4

> <INCHI_KEY>
XMBWDFGMSWQBCA-RNFDNDRNSA-M

> <FORMULA>
I

> <MOLECULAR_WEIGHT>
130.9067

> <EXACT_MASS>
130.906672748

> <JCHEM_ACCEPTOR_COUNT>
0

> <JCHEM_ATOM_COUNT>
1

> <JCHEM_AVERAGE_POLARIZABILITY>
5.07487188

> <JCHEM_BIOAVAILABILITY>
1

> <JCHEM_DONOR_COUNT>
0

> <JCHEM_FORMAL_CHARGE>
-1

> <JCHEM_GHOSE_FILTER>
0

> <JCHEM_IUPAC>
(131I)iodide

> <JCHEM_LOGP>
1.02055578

> <JCHEM_MDDR_LIKE_RULE>
0

> <JCHEM_NUMBER_OF_RINGS>
0

> <JCHEM_PHYSIOLOGICAL_CHARGE>
-1

> <JCHEM_PKA_STRONGEST_ACIDIC>
-8.999999999999996

> <JCHEM_POLAR_SURFACE_AREA>
0.0

> <JCHEM_REFRACTIVITY>
13.9462

> <JCHEM_ROTATABLE_BOND_COUNT>
0

> <JCHEM_RULE_OF_FIVE>
1

> <JCHEM_TRADITIONAL_IUPAC>
(131I)iodide

> <JCHEM_VEBER_RULE>
1

> <DRUGBANK_ID>
DB09293

> <SECONDARY_ACCESSION_NUMBERS>
DB12217

> <DRUG_GROUPS>
approved; investigational

> <GENERIC_NAME>
Iodide I-131

> <SYNONYMS>
Iodide I-131; Iodide I-131 ion; Iodide ion I 131; Iodide ion, I-131; Iodide-131; iodine I-131; Radioiodine

> <PRODUCTS>
Hicon; I 131 Mini; I3odine MAXTM; Iodotope; Sodium Iodide I 131; Sodium Iodide I 131 Diagnostic; Sodium Iodide I 131 Therapeutic; Sodium Iodide I-131; Sodium Iodide I-131 Therapeutic

> <SALTS>
Sodium iodide I-131

$$$$
