
  Mrv1909 04012020062D          

 81 86  0  0  0  0            999 V2000
    1.7624    4.1328    0.0000 C   0  0  0  0  0  0  0  0  0  0  0  0
    1.4269    3.3791    0.0000 C   0  0  0  0  0  0  0  0  0  0  0  0
    1.9088    2.7130    0.0000 C   0  0  0  0  0  0  0  0  0  0  0  0
    2.7393    2.7947    0.0000 N   0  0  0  0  0  0  0  0  0  0  0  0
    3.0748    3.5485    0.0000 C   0  0  0  0  0  0  0  0  0  0  0  0
    2.5799    4.2205    0.0000 C   0  0  0  0  0  0  0  0  0  0  0  0
    3.8924    3.6360    0.0000 C   0  0  0  0  0  0  0  0  0  0  0  0
    4.3745    2.9698    0.0000 N   0  0  0  0  0  0  0  0  0  0  0  0
    5.1921    3.0574    0.0000 C   0  0  0  0  0  0  0  0  0  0  0  0
    5.6740    2.3913    0.0000 C   0  0  0  0  0  0  0  0  0  0  0  0
    6.4916    2.4788    0.0000 N   0  0  0  0  0  0  0  0  0  0  0  0
    6.9866    1.8069    0.0000 C   0  0  2  0  0  0  0  0  0  0  0  0
    7.8042    1.8944    0.0000 C   0  0  0  0  0  0  0  0  0  0  0  0
    8.2861    1.2282    0.0000 N   0  0  0  0  0  0  0  0  0  0  0  0
    8.1397    2.6482    0.0000 O   0  0  0  0  0  0  0  0  0  0  0  0
    6.6509    1.0531    0.0000 C   0  0  0  0  0  0  0  0  0  0  0  0
    5.3384    1.6375    0.0000 O   0  0  0  0  0  0  0  0  0  0  0  0
    5.5276    3.8112    0.0000 C   0  0  0  0  0  0  0  0  0  0  0  0
    4.2281    4.3898    0.0000 O   0  0  0  0  0  0  0  0  0  0  0  0
    1.5790    1.9722    0.0000 C   0  0  0  0  0  0  0  0  0  0  0  0
    0.6093    3.2916    0.0000 C   0  0  0  0  0  0  0  0  0  0  0  0
    0.0593    3.9100    0.0000 N   0  0  0  0  0  0  0  0  0  0  0  0
   -0.6962    3.5769    0.0000 C   0  0  0  0  0  0  0  0  0  0  0  0
   -0.6086    2.7593    0.0000 C   0  0  0  0  0  0  0  0  0  0  0  0
    0.2015    2.5855    0.0000 S   0  0  0  0  0  0  0  0  0  0  0  0
   -1.4023    3.9846    0.0000 C   0  0  0  0  0  0  0  0  0  0  0  0
   -2.1160    3.5706    0.0000 N   0  0  0  0  0  0  0  0  0  0  0  0
   -1.4074    4.8123    0.0000 O   0  0  0  0  0  0  0  0  0  0  0  0
    0.7657    1.7892    0.0000 C   0  0  0  0  0  0  0  0  0  0  0  0
    0.6813    0.9703    0.0000 O   0  0  0  0  0  0  0  0  0  0  0  0
    1.4351    0.6348    0.0000 C   0  0  0  0  0  0  0  0  0  0  0  0
    1.9872    1.2453    0.0000 N   0  0  0  0  0  0  0  0  0  0  0  0
    1.6050   -0.1726    0.0000 C   0  0  0  0  0  0  0  0  0  0  0  0
    1.0052   -0.7153    0.0000 N   0  0  0  0  0  0  0  0  0  0  0  0
    2.3993   -0.4172    0.0000 C   0  0  0  0  0  0  0  0  0  0  0  0
   -2.8349    3.9842    0.0000 C   0  0  2  0  0  0  0  0  0  0  0  0
   -3.5488    3.5701    0.0000 C   0  0  0  0  0  0  0  0  0  0  0  0
   -2.8402    4.8117    0.0000 C   0  0  2  0  0  0  0  0  0  0  0  0
   -2.1264    5.2259    0.0000 C   0  0  0  0  0  0  0  0  0  0  0  0
   -3.5463    5.2196    0.0000 O   0  0  0  0  0  0  0  0  0  0  0  0
   -3.5566    2.7482    0.0000 O   0  0  0  0  0  0  0  0  0  0  0  0
   -4.2678    3.9836    0.0000 N   0  0  0  0  0  0  0  0  0  0  0  0
   -4.9758    3.5826    0.0000 C   0  0  0  0  0  0  0  0  0  0  0  0
   -5.6818    3.9903    0.0000 C   0  0  0  0  0  0  0  0  0  0  0  0
   -5.6871    4.8180    0.0000 C   0  0  0  0  0  0  0  0  0  0  0  0
   -4.9707    2.7550    0.0000 C   0  0  0  0  0  0  0  0  0  0  0  0
   -5.6425    2.2601    0.0000 N   0  0  0  0  0  0  0  0  0  0  0  0
   -5.3845    1.4756    0.0000 C   0  0  0  0  0  0  0  0  0  0  0  0
   -4.5569    1.4808    0.0000 C   0  0  0  0  0  0  0  0  0  0  0  0
   -4.3123    2.2750    0.0000 O   0  0  0  0  0  0  0  0  0  0  0  0
   -5.9381    0.8968    0.0000 C   0  0  0  0  0  0  0  0  0  0  0  0
   -5.6295   -0.0191    0.0000 N   0  0  0  0  0  0  0  0  0  0  0  0
   -6.7527    1.0258    0.0000 O   0  0  0  0  0  0  0  0  0  0  0  0
   -6.0893   -0.7019    0.0000 C   0  0  0  0  0  0  0  0  0  0  0  0
   -5.7244   -1.4561    0.0000 C   0  0  0  0  0  0  0  0  0  0  0  0
   -6.9069   -0.6494    0.0000 C   0  0  0  0  0  0  0  0  0  0  0  0
   -4.9069   -1.5087    0.0000 N   0  0  0  0  0  0  0  0  0  0  0  0
   -6.1842   -2.1390    0.0000 O   0  0  0  0  0  0  0  0  0  0  0  0
   -4.5362   -2.2500    0.0000 C   0  0  2  0  0  0  0  0  0  0  0  0
   -3.7187   -2.3025    0.0000 C   0  0  0  0  0  0  0  0  0  0  0  0
   -3.3610   -3.0379    0.0000 O   0  0  0  0  0  0  0  0  0  0  0  0
   -3.2589   -1.6196    0.0000 N   0  0  0  0  0  0  0  0  0  0  0  0
   -4.9959   -2.9328    0.0000 C   0  0  0  0  0  0  0  0  0  0  0  0
   -4.6382   -3.6682    0.0000 O   0  0  0  0  0  0  0  0  0  0  0  0
   -5.8263   -2.8745    0.0000 C   0  0  0  0  0  0  0  0  0  0  0  0
   -5.4557   -3.6157    0.0000 C   0  0  0  0  0  0  0  0  0  0  0  0
   -2.4415   -1.6720    0.0000 C   0  0  0  0  0  0  0  0  0  0  0  0
   -1.9817   -0.9892    0.0000 C   0  0  0  0  0  0  0  0  0  0  0  0
   -2.0707   -2.4134    0.0000 C   0  0  0  0  0  0  0  0  0  0  0  0
   -2.4584   -3.1440    0.0000 O   0  0  0  0  0  0  0  0  0  0  0  0
   -1.8780   -3.7292    0.0000 C   0  0  0  0  0  0  0  0  0  0  0  0
   -1.1427   -3.3715    0.0000 C   0  0  0  0  0  0  0  0  0  0  0  0
   -1.2620   -2.5554    0.0000 N   0  0  0  0  0  0  0  0  0  0  0  0
   -2.0260   -4.5510    0.0000 C   0  0  0  0  0  0  0  0  0  0  0  0
   -0.4122   -3.7590    0.0000 C   0  0  0  0  0  0  0  0  0  0  0  0
    0.2813   -3.3204    0.0000 N   0  0  0  0  0  0  0  0  0  0  0  0
   -0.3880   -4.5795    0.0000 O   0  0  0  0  0  0  0  0  0  0  0  0
    0.2443   -2.4942    0.0000 C   0  0  0  0  0  0  0  0  0  0  0  0
    0.9193   -1.9227    0.0000 C   0  0  0  0  0  0  0  0  0  0  0  0
   -0.4733   -2.1124    0.0000 C   0  0  0  0  0  0  0  0  0  0  0  0
    1.6730   -2.2584    0.0000 O   0  0  0  0  0  0  0  0  0  0  0  0
  1  2  2  0  0  0  0
  1  6  1  0  0  0  0
  2  3  1  0  0  0  0
  2 21  1  0  0  0  0
  3  4  2  0  0  0  0
  3 20  1  0  0  0  0
  4  5  1  0  0  0  0
  5  6  2  0  0  0  0
  5  7  1  0  0  0  0
  7  8  1  0  0  0  0
  7 19  2  0  0  0  0
  8  9  1  0  0  0  0
  9 10  1  0  0  0  0
  9 18  2  0  0  0  0
 10 11  1  0  0  0  0
 10 17  2  0  0  0  0
 11 12  1  0  0  0  0
 12 13  1  0  0  0  0
 12 16  1  6  0  0  0
 13 14  1  0  0  0  0
 13 15  2  0  0  0  0
 20 29  2  0  0  0  0
 20 32  1  0  0  0  0
 21 22  2  0  0  0  0
 21 25  1  0  0  0  0
 22 23  1  0  0  0  0
 23 24  2  0  0  0  0
 23 26  1  0  0  0  0
 24 25  1  0  0  0  0
 26 27  1  0  0  0  0
 26 28  2  0  0  0  0
 36 27  1  6  0  0  0
 29 30  1  0  0  0  0
 30 31  1  0  0  0  0
 31 32  2  0  0  0  0
 31 33  1  0  0  0  0
 33 34  1  0  0  0  0
 33 35  2  0  0  0  0
 34 79  1  0  0  0  0
 36 37  1  0  0  0  0
 36 38  1  0  0  0  0
 37 41  2  0  0  0  0
 37 42  1  0  0  0  0
 38 39  1  0  0  0  0
 38 40  1  1  0  0  0
 42 43  1  0  0  0  0
 43 44  2  0  0  0  0
 43 46  1  0  0  0  0
 44 45  1  0  0  0  0
 46 47  2  0  0  0  0
 46 50  1  0  0  0  0
 47 48  1  0  0  0  0
 48 49  2  0  0  0  0
 48 51  1  0  0  0  0
 49 50  1  0  0  0  0
 51 52  1  0  0  0  0
 51 53  2  0  0  0  0
 52 54  1  0  0  0  0
 54 55  1  0  0  0  0
 54 56  2  0  0  0  0
 55 57  1  0  0  0  0
 55 58  2  0  0  0  0
 57 59  1  0  0  0  0
 59 60  1  0  0  0  0
 59 63  1  6  0  0  0
 60 61  2  0  0  0  0
 60 62  1  0  0  0  0
 62 67  1  0  0  0  0
 63 64  1  0  0  0  0
 63 65  1  0  0  0  0
 63 66  1  0  0  0  0
 67 68  2  0  0  0  0
 67 69  1  0  0  0  0
 69 70  1  0  0  0  0
 69 73  2  0  0  0  0
 70 71  1  0  0  0  0
 71 72  2  0  0  0  0
 71 74  1  0  0  0  0
 72 73  1  0  0  0  0
 72 75  1  0  0  0  0
 75 76  1  0  0  0  0
 75 77  2  0  0  0  0
 76 78  1  0  0  0  0
 78 79  1  0  0  0  0
 78 80  2  0  0  0  0
 79 81  2  0  0  0  0
M  END
> <DATABASE_ID>
DB15657

> <DATABASE_NAME>
drugbank

> <SMILES>
C\C=C1/NC(=O)[C@@H](NC(=O)C2=CSC(=N2)C2=CC=C(N=C2C2=COC(=N2)C(=C)NC(=O)C(=C)NC(=O)C2=C(C)OC(=N2)C(=C)NC(=O)[C@@H](NC(=O)C(=C)NC(=O)C2=COC1=N2)C(C)(C)O)C(=O)NC(=C)C(=O)N[C@@H](C)C(N)=O)[C@H](C)O

> <INCHI_IDENTIFIER>
InChI=1S/C50H51N15O15S/c1-12-27-48-61-30(16-79-48)41(72)54-21(5)39(70)65-35(50(10,11)77)45(76)57-23(7)47-64-33(25(9)80-47)44(75)55-20(4)38(69)56-22(6)46-60-29(15-78-46)34-26(49-62-31(17-81-49)42(73)63-32(24(8)66)43(74)59-27)13-14-28(58-34)40(71)53-19(3)37(68)52-18(2)36(51)67/h12-18,24,32,35,66,77H,3-7H2,1-2,8-11H3,(H2,51,67)(H,52,68)(H,53,71)(H,54,72)(H,55,75)(H,56,69)(H,57,76)(H,59,74)(H,63,73)(H,65,70)/b27-12-/t18-,24-,32-,35+/m0/s1

> <INCHI_KEY>
BBBBJIKNQHYHNP-LIDBZPKISA-N

> <FORMULA>
C50H51N15O15S

> <MOLECULAR_WEIGHT>
1134.11

> <EXACT_MASS>
1133.340977176

> <JCHEM_ACCEPTOR_COUNT>
17

> <JCHEM_ATOM_COUNT>
132

> <JCHEM_AVERAGE_NEUTRAL_MICROSPECIES_CHARGE>
-0.00023333874729870868

> <JCHEM_AVERAGE_POLARIZABILITY>
110.49135621497976

> <JCHEM_BIOAVAILABILITY>
0

> <JCHEM_DONOR_COUNT>
12

> <JCHEM_FORMAL_CHARGE>
0

> <JCHEM_GHOSE_FILTER>
0

> <JCHEM_IUPAC>
N-[(1S)-1-carbamoylethyl]-2-{[(14S,17Z,27S)-17-ethylidene-14-[(1S)-1-hydroxyethyl]-27-(2-hydroxypropan-2-yl)-33-methyl-24,30,37,40-tetramethylidene-12,15,22,25,28,35,38-heptaoxo-19,32,42-trioxa-9-thia-3,13,16,23,26,29,36,39,44,45,46,47-dodecaazahexacyclo[39.2.1.1^{8,11}.1^{18,21}.1^{31,34}.0^{2,7}]heptatetraconta-1(43),2,4,6,8(47),10,18(46),20,31(45),33,41(44)-undecaen-4-yl]formamido}prop-2-enamide

> <ALOGPS_LOGP>
2.66

> <JCHEM_LOGP>
-3.4513979099999976

> <ALOGPS_LOGS>
-4.89

> <JCHEM_MDDR_LIKE_RULE>
1

> <JCHEM_NEUTRAL_CHARGE>
0

> <JCHEM_NUMBER_OF_RINGS>
6

> <JCHEM_PHYSIOLOGICAL_CHARGE>
0

> <JCHEM_PKA>
11.343940890313908

> <JCHEM_PKA_STRONGEST_ACIDIC>
10.896580035455454

> <JCHEM_POLAR_SURFACE_AREA>
449.31999999999977

> <JCHEM_REFRACTIVITY>
293.17450000000014

> <JCHEM_ROTATABLE_BOND_COUNT>
7

> <JCHEM_RULE_OF_FIVE>
0

> <ALOGPS_SOLUBILITY>
1.46e-02 g/l

> <JCHEM_TRADITIONAL_IUPAC>
N-[(1S)-1-carbamoylethyl]-2-{[(14S,17Z,27S)-17-ethylidene-14-[(1S)-1-hydroxyethyl]-27-(2-hydroxypropan-2-yl)-33-methyl-24,30,37,40-tetramethylidene-12,15,22,25,28,35,38-heptaoxo-19,32,42-trioxa-9-thia-3,13,16,23,26,29,36,39,44,45,46,47-dodecaazahexacyclo[39.2.1.1^{8,11}.1^{18,21}.1^{31,34}.0^{2,7}]heptatetraconta-1(43),2,4,6,8(47),10,18(46),20,31(45),33,41(44)-undecaen-4-yl]formamido}prop-2-enamide

> <JCHEM_VEBER_RULE>
0

> <DRUGBANK_ID>
DB15657

> <DRUG_GROUPS>
experimental

> <GENERIC_NAME>
Ala-geninthiocin

$$$$
