
  Mrv1909 05201914272D          

 24 27  0  0  0  0            999 V2000
    4.5967    5.2187    0.0000 C   0  0  0  0  0  0  0  0  0  0  0  0
    4.8517    4.4341    0.0000 C   0  0  0  0  0  0  0  0  0  0  0  0
    4.2996    3.8210    0.0000 N   0  0  0  0  0  0  0  0  0  0  0  0
    4.5546    3.0364    0.0000 C   0  0  0  0  0  0  0  0  0  0  0  0
    4.0025    2.4233    0.0000 C   0  0  0  0  0  0  0  0  0  0  0  0
    3.1956    2.5948    0.0000 C   0  0  0  0  0  0  0  0  0  0  0  0
    2.9406    3.3795    0.0000 C   0  0  0  0  0  0  0  0  0  0  0  0
    3.4927    3.9926    0.0000 C   0  0  0  0  0  0  0  0  0  0  0  0
    2.6435    1.9817    0.0000 O   0  0  0  0  0  0  0  0  0  0  0  0
    2.8985    1.1971    0.0000 C   0  0  0  0  0  0  0  0  0  0  0  0
    3.7054    1.0256    0.0000 C   0  0  0  0  0  0  0  0  0  0  0  0
    3.9604    0.2410    0.0000 N   0  0  0  0  0  0  0  0  0  0  0  0
    3.4084   -0.3721    0.0000 C   0  0  0  0  0  0  0  0  0  0  0  0
    2.6014   -0.2006    0.0000 C   0  0  0  0  0  0  0  0  0  0  0  0
    2.3464    0.5840    0.0000 C   0  0  0  0  0  0  0  0  0  0  0  0
    1.5214    0.5840    0.0000 C   0  0  0  0  0  0  0  0  0  0  0  0
    1.2665   -0.2006    0.0000 C   0  0  0  0  0  0  0  0  0  0  0  0
    1.9339   -0.6855    0.0000 N   0  0  0  0  0  0  0  0  0  0  0  0
    0.4595   -0.3721    0.0000 N   0  0  0  0  0  0  0  0  0  0  0  0
   -0.0925    0.2410    0.0000 C   0  0  0  0  0  0  0  0  0  0  0  0
    0.1624    1.0256    0.0000 C   0  0  0  0  0  0  0  0  0  0  0  0
    0.9694    1.1971    0.0000 C   0  0  0  0  0  0  0  0  0  0  0  0
    4.2575    1.6387    0.0000 C   0  0  0  0  0  0  0  0  0  0  0  0
    4.8095    2.2518    0.0000 N   0  0  0  0  0  0  0  0  0  0  0  0
  1  2  1  0  0  0  0
  2  3  1  0  0  0  0
  3  4  1  0  0  0  0
  4  5  1  0  0  0  0
  5  6  1  0  0  0  0
  6  7  1  0  0  0  0
  7  8  1  0  0  0  0
  3  8  1  0  0  0  0
  6  9  1  0  0  0  0
  9 10  1  0  0  0  0
 10 11  2  0  0  0  0
 11 12  1  0  0  0  0
 12 13  2  0  0  0  0
 13 14  1  0  0  0  0
 14 15  2  0  0  0  0
 10 15  1  0  0  0  0
 15 16  1  0  0  0  0
 16 17  2  0  0  0  0
 17 18  1  0  0  0  0
 14 18  1  0  0  0  0
 17 19  1  0  0  0  0
 19 20  2  0  0  0  0
 20 21  1  0  0  0  0
 21 22  2  0  0  0  0
 16 22  1  0  0  0  0
 11 23  1  0  0  0  0
 23 24  3  0  0  0  0
M  END
> <DATABASE_ID>
DB14791

> <DATABASE_NAME>
drugbank

> <SMILES>
CCN1CCC(CC1)OC1=C(N=CC2=C1C1=C(N2)N=CC=C1)C#N

> <INCHI_IDENTIFIER>
InChI=1S/C18H19N5O/c1-2-23-8-5-12(6-9-23)24-17-14(10-19)21-11-15-16(17)13-4-3-7-20-18(13)22-15/h3-4,7,11-12H,2,5-6,8-9H2,1H3,(H,20,22)

> <INCHI_KEY>
XEZLBMHDUXSICI-UHFFFAOYSA-N

> <FORMULA>
C18H19N5O

> <MOLECULAR_WEIGHT>
321.384

> <EXACT_MASS>
321.158960252

> <JCHEM_ACCEPTOR_COUNT>
5

> <JCHEM_ATOM_COUNT>
43

> <JCHEM_AVERAGE_POLARIZABILITY>
34.706167958163164

> <JCHEM_BIOAVAILABILITY>
1

> <JCHEM_DONOR_COUNT>
1

> <JCHEM_FORMAL_CHARGE>
0

> <JCHEM_GHOSE_FILTER>
1

> <JCHEM_IUPAC>
3-[(1-ethylpiperidin-4-yl)oxy]-5,8,10-triazatricyclo[7.4.0.0^{2,7}]trideca-1(9),2(7),3,5,10,12-hexaene-4-carbonitrile

> <ALOGPS_LOGP>
2.50

> <JCHEM_LOGP>
0.9559464274947438

> <ALOGPS_LOGS>
-3.71

> <JCHEM_MDDR_LIKE_RULE>
0

> <JCHEM_NUMBER_OF_RINGS>
4

> <JCHEM_PHYSIOLOGICAL_CHARGE>
0

> <JCHEM_PKA_STRONGEST_ACIDIC>
8.500909709252245

> <JCHEM_PKA_STRONGEST_BASIC>
9.167315238482878

> <JCHEM_POLAR_SURFACE_AREA>
77.83

> <JCHEM_REFRACTIVITY>
91.12350000000002

> <JCHEM_ROTATABLE_BOND_COUNT>
3

> <JCHEM_RULE_OF_FIVE>
1

> <ALOGPS_SOLUBILITY>
6.27e-02 g/l

> <JCHEM_TRADITIONAL_IUPAC>
(2R)-14-fluoro-2-methyl-6,9,10,19-tetraazapentacyclo[14.2.1.0^{2,6}.0^{8,18}.0^{12,17}]nonadeca-1(18),8,12(17),13,15-pentaen-11-one

> <JCHEM_VEBER_RULE>
0

> <DRUGBANK_ID>
DB14791

> <DRUG_GROUPS>
investigational

> <GENERIC_NAME>
GDC-0425

$$$$
