
  Mrv1718006161819222D          

 27 28  0  0  0  0            999 V2000
   -2.1434   -0.9239    0.0000 N   0  0  0  0  0  0  0  0  0  0  0  0
   -1.4289   -0.5114    0.0000 C   0  0  0  0  0  0  0  0  0  0  0  0
   -0.7145   -0.9239    0.0000 N   0  0  0  0  0  0  0  0  0  0  0  0
   -1.4289    0.3135    0.0000 O   0  0  0  0  0  0  0  0  0  0  0  0
    0.0000   -0.5114    0.0000 C   0  0  0  0  0  0  0  0  0  0  0  0
    0.7145   -0.9239    0.0000 N   0  0  0  0  0  0  0  0  0  0  0  0
    1.4289   -0.5114    0.0000 C   0  0  0  0  0  0  0  0  0  0  0  0
    2.1434   -0.9239    0.0000 N   0  0  0  0  0  0  0  0  0  0  0  0
    1.4289    0.3135    0.0000 O   0  0  0  0  0  0  0  0  0  0  0  0
    2.8579   -0.5114    0.0000 C   0  0  0  0  0  0  0  0  0  0  0  0
    2.8579    0.3135    0.0000 N   0  0  0  0  0  0  0  0  0  0  0  0
    3.6425   -0.7663    0.0000 C   0  0  0  0  0  0  0  0  0  0  0  0
    3.6425    0.5684    0.0000 C   0  0  0  0  0  0  0  0  0  0  0  0
    2.1434    0.7260    0.0000 C   0  0  0  0  0  0  0  0  0  0  0  0
    4.1274   -0.0989    0.0000 N   0  0  0  0  0  0  0  0  0  0  0  0
    3.8974   -1.5510    0.0000 O   0  0  0  0  0  0  0  0  0  0  0  0
    3.8974    1.3531    0.0000 O   0  0  0  0  0  0  0  0  0  0  0  0
    2.1434    1.5510    0.0000 O   0  0  0  0  0  0  0  0  0  0  0  0
   -2.8579   -0.5114    0.0000 C   0  0  0  0  0  0  0  0  0  0  0  0
   -2.8579    0.3135    0.0000 N   0  0  0  0  0  0  0  0  0  0  0  0
   -3.6425   -0.7663    0.0000 C   0  0  0  0  0  0  0  0  0  0  0  0
   -3.6425    0.5684    0.0000 C   0  0  0  0  0  0  0  0  0  0  0  0
   -2.1434    0.7260    0.0000 C   0  0  0  0  0  0  0  0  0  0  0  0
   -4.1274   -0.0989    0.0000 N   0  0  0  0  0  0  0  0  0  0  0  0
   -3.8974   -1.5510    0.0000 O   0  0  0  0  0  0  0  0  0  0  0  0
   -3.8974    1.3531    0.0000 O   0  0  0  0  0  0  0  0  0  0  0  0
   -2.1434    1.5510    0.0000 O   0  0  0  0  0  0  0  0  0  0  0  0
  1 19  1  0  0  0  0
  2  1  1  0  0  0  0
  3  2  1  0  0  0  0
  4  2  2  0  0  0  0
  5  3  1  0  0  0  0
  6  5  1  0  0  0  0
  7  6  1  0  0  0  0
  8  7  1  0  0  0  0
  9  7  2  0  0  0  0
 10  8  1  0  0  0  0
 11 10  1  0  0  0  0
 12 10  1  0  0  0  0
 13 11  1  0  0  0  0
 14 11  1  0  0  0  0
 15 12  1  0  0  0  0
 16 12  2  0  0  0  0
 17 13  2  0  0  0  0
 15 13  1  0  0  0  0
 18 14  1  0  0  0  0
 20 19  1  0  0  0  0
 21 19  1  0  0  0  0
 22 20  1  0  0  0  0
 23 20  1  0  0  0  0
 24 21  1  0  0  0  0
 25 21  2  0  0  0  0
 26 22  2  0  0  0  0
 24 22  1  0  0  0  0
 27 23  1  0  0  0  0
M  END
> <DATABASE_ID>
DB14075

> <DATABASE_NAME>
drugbank

> <SMILES>
OCN1C(NC(=O)NCNC(=O)NC2N(CO)C(=O)NC2=O)C(=O)NC1=O

> <INCHI_IDENTIFIER>
InChI=1S/C11H16N8O8/c20-2-18-4(6(22)16-10(18)26)14-8(24)12-1-13-9(25)15-5-7(23)17-11(27)19(5)3-21/h4-5,20-21H,1-3H2,(H2,12,14,24)(H2,13,15,25)(H,16,22,26)(H,17,23,27)

> <INCHI_KEY>
ZCTXEAQXZGPWFG-UHFFFAOYSA-N

> <FORMULA>
C11H16N8O8

> <MOLECULAR_WEIGHT>
388.297

> <EXACT_MASS>
388.109109507

> <JCHEM_ACCEPTOR_COUNT>
8

> <JCHEM_ATOM_COUNT>
43

> <JCHEM_AVERAGE_POLARIZABILITY>
33.550726997993124

> <JCHEM_BIOAVAILABILITY>
0

> <JCHEM_DONOR_COUNT>
8

> <JCHEM_FORMAL_CHARGE>
0

> <JCHEM_GHOSE_FILTER>
0

> <JCHEM_IUPAC>
3-[3-(hydroxymethyl)-2,5-dioxoimidazolidin-4-yl]-1-[({[3-(hydroxymethyl)-2,5-dioxoimidazolidin-4-yl]carbamoyl}amino)methyl]urea

> <ALOGPS_LOGP>
-2.43

> <JCHEM_LOGP>
-5.0478036416666665

> <ALOGPS_LOGS>
-2.71

> <JCHEM_MDDR_LIKE_RULE>
0

> <JCHEM_NUMBER_OF_RINGS>
2

> <JCHEM_PHYSIOLOGICAL_CHARGE>
0

> <JCHEM_PKA>
8.153352234474008

> <JCHEM_PKA_STRONGEST_ACIDIC>
7.551361471678783

> <JCHEM_PKA_STRONGEST_BASIC>
-3.2595200421329977

> <JCHEM_POLAR_SURFACE_AREA>
221.53999999999996

> <JCHEM_REFRACTIVITY>
78.67589999999998

> <JCHEM_ROTATABLE_BOND_COUNT>
6

> <JCHEM_RULE_OF_FIVE>
0

> <ALOGPS_SOLUBILITY>
7.58e-01 g/l

> <JCHEM_TRADITIONAL_IUPAC>
imidazolidinyl urea

> <JCHEM_VEBER_RULE>
0

> <DRUGBANK_ID>
DB14075

> <DRUG_GROUPS>
approved; experimental

> <GENERIC_NAME>
Imidurea

> <SYNONYMS>
Imidazolidinyl urea

> <PRODUCTS>
AnubisMed; T.R.U.E. Test Thin-Layer Rapid Use Patch Test

$$$$
