
  Mrv1909 10112217282D          

 23 25  0  0  0  0            999 V2000
    0.6078   -2.9491    0.0000 C   0  0  0  0  0  0  0  0  0  0  0  0
    1.3222   -2.5366    0.0000 N   0  0  0  0  0  0  0  0  0  0  0  0
    1.3222   -1.7116    0.0000 C   0  0  0  0  0  0  0  0  0  0  0  0
    2.0367   -2.9491    0.0000 C   0  0  0  0  0  0  0  0  0  0  0  0
    2.7512   -2.5366    0.0000 O   0  0  0  0  0  0  0  0  0  0  0  0
    2.0367   -3.7741    0.0000 N   0  0  0  0  0  0  0  0  0  0  0  0
    1.3693   -4.2590    0.0000 N   0  0  0  0  0  0  0  0  0  0  0  0
    1.6242   -5.0437    0.0000 N   0  0  0  0  0  0  0  0  0  0  0  0
    2.4492   -5.0437    0.0000 N   0  0  0  0  0  0  0  0  0  0  0  0
    2.7041   -4.2590    0.0000 C   0  0  0  0  0  0  0  0  0  0  0  0
    3.4888   -4.0041    0.0000 C   0  0  0  0  0  0  0  0  0  0  0  0
    4.1019   -4.5561    0.0000 C   0  0  0  0  0  0  0  0  0  0  0  0
    4.8865   -4.3012    0.0000 C   0  0  0  0  0  0  0  0  0  0  0  0
    5.4996   -4.8532    0.0000 C   0  0  0  0  0  0  0  0  0  0  0  0
    5.3281   -5.6602    0.0000 C   0  0  0  0  0  0  0  0  0  0  0  0
    4.5434   -5.9151    0.0000 C   0  0  0  0  0  0  0  0  0  0  0  0
    3.9303   -5.3631    0.0000 C   0  0  0  0  0  0  0  0  0  0  0  0
    5.9411   -6.2122    0.0000 C   0  0  0  0  0  0  0  0  0  0  0  0
    6.7258   -5.9573    0.0000 C   0  0  0  0  0  0  0  0  0  0  0  0
    7.3389   -6.5093    0.0000 C   0  0  0  0  0  0  0  0  0  0  0  0
    7.1673   -7.3163    0.0000 C   0  0  0  0  0  0  0  0  0  0  0  0
    6.3827   -7.5712    0.0000 C   0  0  0  0  0  0  0  0  0  0  0  0
    5.7696   -7.0192    0.0000 C   0  0  0  0  0  0  0  0  0  0  0  0
  1  2  1  0  0  0  0
  2  3  1  0  0  0  0
  2  4  1  0  0  0  0
  4  5  2  0  0  0  0
  4  6  1  0  0  0  0
  6  7  1  0  0  0  0
  7  8  2  0  0  0  0
  8  9  1  0  0  0  0
  9 10  2  0  0  0  0
  6 10  1  0  0  0  0
 10 11  1  0  0  0  0
 11 12  1  0  0  0  0
 12 13  2  0  0  0  0
 13 14  1  0  0  0  0
 14 15  2  0  0  0  0
 15 16  1  0  0  0  0
 16 17  2  0  0  0  0
 12 17  1  0  0  0  0
 15 18  1  0  0  0  0
 18 19  2  0  0  0  0
 19 20  1  0  0  0  0
 20 21  2  0  0  0  0
 21 22  1  0  0  0  0
 22 23  2  0  0  0  0
 18 23  1  0  0  0  0
M  END
> <DATABASE_ID>
DB17035

> <DATABASE_NAME>
drugbank

> <SMILES>
CN(C)C(=O)N1N=NN=C1CC1=CC=C(C=C1)C1=CC=CC=C1

> <INCHI_IDENTIFIER>
InChI=1S/C17H17N5O/c1-21(2)17(23)22-16(18-19-20-22)12-13-8-10-15(11-9-13)14-6-4-3-5-7-14/h3-11H,12H2,1-2H3

> <INCHI_KEY>
GZNIYOXWFCDBBJ-UHFFFAOYSA-N

> <FORMULA>
C17H17N5O

> <MOLECULAR_WEIGHT>
307.357

> <EXACT_MASS>
307.143310187

> <JCHEM_ACCEPTOR_COUNT>
4

> <JCHEM_ATOM_COUNT>
40

> <JCHEM_AVERAGE_NEUTRAL_MICROSPECIES_CHARGE>
1.8645176169493115e-10

> <JCHEM_AVERAGE_POLARIZABILITY>
32.64480986121332

> <JCHEM_BIOAVAILABILITY>
1

> <JCHEM_DONOR_COUNT>
0

> <JCHEM_FORMAL_CHARGE>
0

> <JCHEM_GHOSE_FILTER>
1

> <JCHEM_IUPAC>
5-({[1,1'-biphenyl]-4-yl}methyl)-N,N-dimethyl-1H-1,2,3,4-tetrazole-1-carboxamide

> <ALOGPS_LOGP>
2.44

> <JCHEM_LOGP>
2.2672812589999998

> <ALOGPS_LOGS>
-3.70

> <JCHEM_MDDR_LIKE_RULE>
0

> <JCHEM_NEUTRAL_CHARGE>
0

> <JCHEM_NUMBER_OF_RINGS>
3

> <JCHEM_PHYSIOLOGICAL_CHARGE>
0

> <JCHEM_PKA_STRONGEST_BASIC>
-2.617273072326261

> <JCHEM_POLAR_SURFACE_AREA>
63.910000000000004

> <JCHEM_REFRACTIVITY>
90.35780000000001

> <JCHEM_ROTATABLE_BOND_COUNT>
3

> <JCHEM_RULE_OF_FIVE>
1

> <ALOGPS_SOLUBILITY>
6.15e-02 g/l

> <JCHEM_TRADITIONAL_IUPAC>
6-cyclopropaneamido-N-[hydroxy(2H2)methyl]-4-{[2-methoxy-3-(1-methyl-1,2,4-triazol-3-yl)phenyl]amino}pyridazine-3-carboxamide

> <JCHEM_VEBER_RULE>
0

> <DRUGBANK_ID>
DB17035

> <DRUG_GROUPS>
investigational

> <GENERIC_NAME>
LY-2183240

> <SYNONYMS>
1h-tetrazole-1-carboxamide, 5-((1,1'-biphenyl)-4-ylmethyl)-n,n-dimethyl-; 5-(biphenyl-4-ylmethyl)-n,n-dimethyl-1h-tetrazole-1-carboxamide

$$$$
