
  Mrv1718009011817212D          

 37 40  0  0  0  0            999 V2000
    1.0669    1.6627    0.0000 C   0  0  0  0  0  0  0  0  0  0  0  0
    1.7814    2.0743    0.0000 C   0  0  0  0  0  0  0  0  0  0  0  0
    0.3502    2.0743    0.0000 O   0  0  0  0  0  0  0  0  0  0  0  0
    1.0669    0.8375    0.0000 C   0  0  2  0  0  0  0  0  0  0  0  0
    2.4961    1.6627    0.0000 O   0  0  0  0  0  0  0  0  0  0  0  0
    1.7814    1.2491    0.0000 O   0  0  0  0  0  0  0  0  0  0  0  0
    0.3522    0.4218    0.0000 C   0  0  2  0  0  0  0  0  0  0  0  0
    1.7794    0.4218    0.0000 C   0  0  0  0  0  0  0  0  0  0  0  0
    3.2107    2.0743    0.0000 C   0  0  0  0  0  0  0  0  0  0  0  0
    2.4961    0.8375    0.0000 C   0  0  0  0  0  0  0  0  0  0  0  0
    0.3522    1.2471    0.0000 C   0  0  0  0  0  0  0  0  0  0  0  0
    0.3522   -0.4115    0.0000 C   0  0  1  0  0  0  0  0  0  0  0  0
   -0.3603    0.8375    0.0000 C   0  0  0  0  0  0  0  0  0  0  0  0
    1.7794   -0.4115    0.0000 C   0  0  0  0  0  0  0  0  0  0  0  0
    3.9254    1.6627    0.0000 C   0  0  0  0  0  0  0  0  0  0  0  0
    3.2107    2.8995    0.0000 O   0  0  0  0  0  0  0  0  0  0  0  0
    3.2107    1.2491    0.0000 C   0  0  0  0  0  0  0  0  0  0  0  0
    2.4961    0.0123    0.0000 O   0  0  0  0  0  0  0  0  0  0  0  0
   -0.3603   -0.8272    0.0000 C   0  0  1  0  0  0  0  0  0  0  0  0
   -1.0729    0.4218    0.0000 C   0  0  1  0  0  0  0  0  0  0  0  0
    3.9254    0.8375    0.0000 C   0  0  0  0  0  0  0  0  0  0  0  0
   -1.0729   -0.4115    0.0000 C   0  0  2  0  0  0  0  0  0  0  0  0
   -0.3603   -1.6585    0.0000 C   0  0  0  0  0  0  0  0  0  0  0  0
   -1.7876    0.8334    0.0000 O   0  0  0  0  0  0  0  0  0  0  0  0
   -1.7855   -0.8272    0.0000 C   0  0  2  0  0  0  0  0  0  0  0  0
   -1.0729   -2.0742    0.0000 C   0  0  1  0  0  0  0  0  0  0  0  0
   -1.7855   -0.0020    0.0000 C   0  0  0  0  0  0  0  0  0  0  0  0
   -1.7855   -1.6585    0.0000 C   0  0  0  0  0  0  0  0  0  0  0  0
   -2.4981   -0.4115    0.0000 C   0  0  0  0  0  0  0  0  0  0  0  0
   -1.0729   -2.8995    0.0000 C   0  0  0  0  0  0  0  0  0  0  0  0
   -2.4981   -2.0742    0.0000 C   0  0  0  0  0  0  0  0  0  0  0  0
   -3.2107   -0.8272    0.0000 C   0  0  0  0  0  0  0  0  0  0  0  0
   -3.2107   -1.6585    0.0000 C   0  0  0  0  0  0  0  0  0  0  0  0
   -3.9254   -2.0701    0.0000 O   0  0  0  0  0  0  0  0  0  0  0  0
   -0.3603   -0.0020    0.0000 H   0  0  0  0  0  0  0  0  0  0  0  0
   -1.0729   -1.2368    0.0000 H   0  0  0  0  0  0  0  0  0  0  0  0
    0.3522   -1.2368    0.0000 H   0  0  0  0  0  0  0  0  0  0  0  0
  1  2  1  0  0  0  0
  1  3  2  0  0  0  0
  4  1  1  1  0  0  0
  2  5  1  0  0  0  0
  4  6  1  6  0  0  0
  7  4  1  0  0  0  0
  4  8  1  0  0  0  0
  5  9  1  0  0  0  0
  6 10  1  0  0  0  0
  7 11  1  1  0  0  0
 12  7  1  0  0  0  0
  7 13  1  0  0  0  0
  8 14  1  0  0  0  0
  9 15  1  0  0  0  0
  9 16  2  0  0  0  0
 10 17  1  0  0  0  0
 10 18  2  0  0  0  0
 12 14  1  0  0  0  0
 12 19  1  0  0  0  0
 12 37  1  6  0  0  0
 20 13  1  0  0  0  0
 17 21  1  0  0  0  0
 19 22  1  0  0  0  0
 19 23  1  0  0  0  0
 19 35  1  1  0  0  0
 22 20  1  0  0  0  0
 20 24  1  1  0  0  0
 22 25  1  0  0  0  0
 22 36  1  6  0  0  0
 26 23  1  0  0  0  0
 25 27  1  1  0  0  0
 25 28  1  0  0  0  0
 25 29  1  0  0  0  0
 26 28  1  0  0  0  0
 26 30  1  6  0  0  0
 28 31  2  0  0  0  0
 29 32  2  0  0  0  0
 31 33  1  0  0  0  0
 32 33  1  0  0  0  0
 33 34  2  0  0  0  0
M  END
> <DATABASE_ID>
DB14643

> <DATABASE_NAME>
drugbank

> <SMILES>
[H][C@@]12CC[C@](OC(=O)CC)(C(=O)COC(C)=O)[C@@]1(C)C[C@H](O)[C@@]1([H])[C@@]2([H])C[C@H](C)C2=CC(=O)C=C[C@]12C

> <INCHI_IDENTIFIER>
InChI=1S/C27H36O7/c1-6-23(32)34-27(22(31)14-33-16(3)28)10-8-19-18-11-15(2)20-12-17(29)7-9-25(20,4)24(18)21(30)13-26(19,27)5/h7,9,12,15,18-19,21,24,30H,6,8,10-11,13-14H2,1-5H3/t15-,18-,19-,21-,24+,25-,26-,27-/m0/s1

> <INCHI_KEY>
DALKLAYLIPSCQL-YPYQNWSCSA-N

> <FORMULA>
C27H36O7

> <MOLECULAR_WEIGHT>
472.578

> <EXACT_MASS>
472.246103499

> <JCHEM_ACCEPTOR_COUNT>
5

> <JCHEM_ATOM_COUNT>
70

> <JCHEM_AVERAGE_POLARIZABILITY>
50.864066292041315

> <JCHEM_BIOAVAILABILITY>
1

> <JCHEM_DONOR_COUNT>
1

> <JCHEM_FORMAL_CHARGE>
0

> <JCHEM_GHOSE_FILTER>
1

> <JCHEM_IUPAC>
(1R,3aS,3bS,5S,9aR,9bS,10S,11aS)-1-[2-(acetyloxy)acetyl]-10-hydroxy-5,9a,11a-trimethyl-7-oxo-1H,2H,3H,3aH,3bH,4H,5H,7H,9aH,9bH,10H,11H,11aH-cyclopenta[a]phenanthren-1-yl propanoate

> <ALOGPS_LOGP>
2.92

> <JCHEM_LOGP>
3.142795688333333

> <ALOGPS_LOGS>
-4.87

> <JCHEM_MDDR_LIKE_RULE>
1

> <JCHEM_NUMBER_OF_RINGS>
4

> <JCHEM_PHYSIOLOGICAL_CHARGE>
0

> <JCHEM_PKA>
15.675069866870018

> <JCHEM_PKA_STRONGEST_ACIDIC>
14.80396018108694

> <JCHEM_PKA_STRONGEST_BASIC>
-2.851374881357338

> <JCHEM_POLAR_SURFACE_AREA>
106.97

> <JCHEM_REFRACTIVITY>
125.97179999999997

> <JCHEM_ROTATABLE_BOND_COUNT>
7

> <JCHEM_RULE_OF_FIVE>
1

> <ALOGPS_SOLUBILITY>
6.37e-03 g/l

> <JCHEM_TRADITIONAL_IUPAC>
advantan

> <JCHEM_VEBER_RULE>
0

> <DRUGBANK_ID>
DB14643

> <SECONDARY_ACCESSION_NUMBERS>
DBSALT002468

> <DRUG_GROUPS>
approved; vet_approved

> <GENERIC_NAME>
Methylprednisolone aceponate

> <SYNONYMS>
Aceponato de metilprednisolona; Methylprednisolone aceponate; Methylprednisoloni aceponas

> <INTERNATIONAL_BRANDS>
Advantan

$$$$
