
  Mrv1652306031606582D          

 40 41  0  0  0  0            999 V2000
   17.1473   -1.6500    0.0000 C   0  0  0  0  0  0  0  0  0  0  0  0
   -4.2868    4.9500    0.0000 C   0  0  0  0  0  0  0  0  0  0  0  0
   16.4328   -1.2375    0.0000 C   0  0  0  0  0  0  0  0  0  0  0  0
   -3.5724    4.5375    0.0000 C   0  0  0  0  0  0  0  0  0  0  0  0
   15.7184   -1.6500    0.0000 C   0  0  0  0  0  0  0  0  0  0  0  0
   -3.5724    3.7125    0.0000 C   0  0  0  0  0  0  0  0  0  0  0  0
   15.0039   -1.2375    0.0000 C   0  0  0  0  0  0  0  0  0  0  0  0
   -2.8579    3.3000    0.0000 C   0  0  0  0  0  0  0  0  0  0  0  0
   14.2894   -1.6500    0.0000 C   0  0  0  0  0  0  0  0  0  0  0  0
   -2.8579    2.4750    0.0000 C   0  0  0  0  0  0  0  0  0  0  0  0
    5.7158    0.0000    0.0000 C   0  0  0  0  0  0  0  0  0  0  0  0
    5.0013   -0.4125    0.0000 C   0  0  0  0  0  0  0  0  0  0  0  0
    6.4302   -0.4125    0.0000 C   0  0  0  0  0  0  0  0  0  0  0  0
    4.2868    0.0000    0.0000 C   0  0  0  0  0  0  0  0  0  0  0  0
   13.5749   -1.2375    0.0000 C   0  0  0  0  0  0  0  0  0  0  0  0
   -2.1434    2.0625    0.0000 C   0  0  0  0  0  0  0  0  0  0  0  0
    7.1447    0.0000    0.0000 C   0  0  0  0  0  0  0  0  0  0  0  0
    3.5724   -0.4125    0.0000 C   0  0  0  0  0  0  0  0  0  0  0  0
   12.8605   -1.6500    0.0000 C   0  0  0  0  0  0  0  0  0  0  0  0
   -2.1434    1.2375    0.0000 C   0  0  0  0  0  0  0  0  0  0  0  0
    7.8592   -0.4125    0.0000 C   0  0  0  0  0  0  0  0  0  0  0  0
    2.8579    0.0000    0.0000 C   0  0  0  0  0  0  0  0  0  0  0  0
   10.7171   -0.4125    0.0000 C   0  0  0  0  0  0  0  0  0  0  0  0
   10.0026   -1.6500    0.0000 C   0  0  0  0  0  0  0  0  0  0  0  0
   -0.0000    0.0000    0.0000 C   0  0  0  0  0  0  0  0  0  0  0  0
    0.7145    1.2375    0.0000 C   0  0  0  0  0  0  0  0  0  0  0  0
   12.1460   -1.2375    0.0000 C   0  0  0  0  0  0  0  0  0  0  0  0
   -1.4289    0.8250    0.0000 C   0  0  0  0  0  0  0  0  0  0  0  0
    8.5737    0.0000    0.0000 C   0  0  0  0  0  0  0  0  0  0  0  0
    2.1434   -0.4125    0.0000 C   0  0  0  0  0  0  0  0  0  0  0  0
   10.0026    0.0000    0.0000 C   0  0  0  0  0  0  0  0  0  0  0  0
    9.2881   -1.2375    0.0000 C   0  0  0  0  0  0  0  0  0  0  0  0
    0.7145   -0.4125    0.0000 C   0  0  0  0  0  0  0  0  0  0  0  0
    1.4289    0.8250    0.0000 C   0  0  0  0  0  0  0  0  0  0  0  0
   10.7171   -1.2375    0.0000 C   0  0  0  0  0  0  0  0  0  0  0  0
    0.0000    0.8250    0.0000 C   0  0  0  0  0  0  0  0  0  0  0  0
   11.4315   -1.6500    0.0000 N   0  0  0  0  0  0  0  0  0  0  0  0
   -0.7145    1.2375    0.0000 N   0  0  0  0  0  0  0  0  0  0  0  0
    9.2881   -0.4125    0.0000 N   0  0  0  0  0  0  0  0  0  0  0  0
    1.4289    0.0000    0.0000 N   0  0  0  0  0  0  0  0  0  0  0  0
  3  1  1  0  0  0  0
  4  2  1  0  0  0  0
  5  3  1  0  0  0  0
  6  4  1  0  0  0  0
  7  5  1  0  0  0  0
  8  6  1  0  0  0  0
  9  7  1  0  0  0  0
 10  8  1  0  0  0  0
 12 11  1  0  0  0  0
 13 11  1  0  0  0  0
 14 12  1  0  0  0  0
 15  9  1  0  0  0  0
 16 10  1  0  0  0  0
 17 13  1  0  0  0  0
 18 14  1  0  0  0  0
 19 15  1  0  0  0  0
 20 16  1  0  0  0  0
 21 17  1  0  0  0  0
 22 18  1  0  0  0  0
 27 19  1  0  0  0  0
 28 20  1  0  0  0  0
 29 21  1  0  0  0  0
 30 22  1  0  0  0  0
 31 23  2  0  0  0  0
 32 24  2  0  0  0  0
 33 25  2  0  0  0  0
 34 26  2  0  0  0  0
 35 23  1  0  0  0  0
 35 24  1  0  0  0  0
 36 25  1  0  0  0  0
 36 26  1  0  0  0  0
 37 27  1  0  0  0  0
 37 35  2  0  0  0  0
 38 28  1  0  0  0  0
 38 36  2  0  0  0  0
 39 29  1  0  0  0  0
 39 31  1  0  0  0  0
 39 32  1  0  0  0  0
 40 30  1  0  0  0  0
 40 33  1  0  0  0  0
 40 34  1  0  0  0  0
M  END
> <DATABASE_ID>
DB12624

> <DATABASE_NAME>
drugbank

> <SMILES>
CCCCCCCCN=C1C=CN(CCCCCCCCCCN2C=CC(C=C2)=NCCCCCCCC)C=C1

> <INCHI_IDENTIFIER>
InChI=1S/C36H62N4/c1-3-5-7-9-15-19-27-37-35-23-31-39(32-24-35)29-21-17-13-11-12-14-18-22-30-40-33-25-36(26-34-40)38-28-20-16-10-8-6-4-2/h23-26,31-34H,3-22,27-30H2,1-2H3

> <INCHI_KEY>
ZVXNYZWXUADSRV-UHFFFAOYSA-N

> <FORMULA>
C36H62N4

> <MOLECULAR_WEIGHT>
550.92

> <EXACT_MASS>
550.497448012

> <JCHEM_ACCEPTOR_COUNT>
4

> <JCHEM_ATOM_COUNT>
102

> <JCHEM_AVERAGE_POLARIZABILITY>
75.44645708545636

> <JCHEM_BIOAVAILABILITY>
0

> <JCHEM_DONOR_COUNT>
0

> <JCHEM_FORMAL_CHARGE>
0

> <JCHEM_GHOSE_FILTER>
0

> <JCHEM_IUPAC>
N-(1-{10-[4-(octylimino)-1,4-dihydropyridin-1-yl]decyl}-1,4-dihydropyridin-4-ylidene)octan-1-amine

> <ALOGPS_LOGP>
8.23

> <JCHEM_LOGP>
11.063831140000001

> <ALOGPS_LOGS>
-7.33

> <JCHEM_MDDR_LIKE_RULE>
0

> <JCHEM_NUMBER_OF_RINGS>
2

> <JCHEM_PHYSIOLOGICAL_CHARGE>
2

> <JCHEM_PKA_STRONGEST_BASIC>
10.887771038279512

> <JCHEM_POLAR_SURFACE_AREA>
31.200000000000003

> <JCHEM_REFRACTIVITY>
179.43199999999996

> <JCHEM_ROTATABLE_BOND_COUNT>
25

> <JCHEM_RULE_OF_FIVE>
0

> <ALOGPS_SOLUBILITY>
2.60e-05 g/l

> <JCHEM_TRADITIONAL_IUPAC>
N-(1-{10-[4-(octylimino)pyridin-1-yl]decyl}pyridin-4-ylidene)octan-1-amine

> <JCHEM_VEBER_RULE>
0

> <DRUGBANK_ID>
DB12624

> <DRUG_GROUPS>
investigational

> <GENERIC_NAME>
Octenidine

> <SYNONYMS>
Octenidine

> <SALTS>
Octenidine dihydrochloride

$$$$
