
  Mrv1652310201622542D          

 50 53  0  0  1  0            999 V2000
  -10.7171  -12.7875    0.0000 C   0  0  0  0  0  0  0  0  0  0  0  0
  -10.0026  -13.2000    0.0000 C   0  0  0  0  0  0  0  0  0  0  0  0
   -9.2881  -12.7875    0.0000 C   0  0  0  0  0  0  0  0  0  0  0  0
   -8.5737  -13.2000    0.0000 C   0  0  0  0  0  0  0  0  0  0  0  0
   -7.8592  -12.7875    0.0000 C   0  0  0  0  0  0  0  0  0  0  0  0
   -7.1447  -13.2000    0.0000 C   0  0  0  0  0  0  0  0  0  0  0  0
   -6.4302  -12.7875    0.0000 C   0  0  0  0  0  0  0  0  0  0  0  0
   -5.7158  -13.2000    0.0000 C   0  0  0  0  0  0  0  0  0  0  0  0
   -5.0013  -12.7875    0.0000 C   0  0  0  0  0  0  0  0  0  0  0  0
   -4.2868  -13.2000    0.0000 C   0  0  0  0  0  0  0  0  0  0  0  0
   -3.5724  -12.7875    0.0000 C   0  0  0  0  0  0  0  0  0  0  0  0
   -2.8579  -13.2000    0.0000 C   0  0  0  0  0  0  0  0  0  0  0  0
   -2.1434  -12.7875    0.0000 C   0  0  0  0  0  0  0  0  0  0  0  0
   -1.4289  -13.2000    0.0000 C   0  0  0  0  0  0  0  0  0  0  0  0
   -0.7145  -12.7875    0.0000 C   0  0  0  0  0  0  0  0  0  0  0  0
    0.0000  -13.2000    0.0000 C   0  0  0  0  0  0  0  0  0  0  0  0
    0.7145  -12.7875    0.0000 C   0  0  0  0  0  0  0  0  0  0  0  0
    1.4289  -13.2000    0.0000 C   0  0  0  0  0  0  0  0  0  0  0  0
    2.1434  -12.7875    0.0000 C   0  0  0  0  0  0  0  0  0  0  0  0
    2.8579  -13.2000    0.0000 C   0  0  0  0  0  0  0  0  0  0  0  0
    2.8579  -14.0250    0.0000 O   0  0  0  0  0  0  0  0  0  0  0  0
    3.5724  -12.7875    0.0000 N   0  0  0  0  0  0  0  0  0  0  0  0
    4.2868  -13.2000    0.0000 C   0  0  1  0  0  0  0  0  0  0  0  0
    5.0013  -12.7875    0.0000 C   0  0  0  0  0  0  0  0  0  0  0  0
    5.7158  -13.2000    0.0000 C   0  0  0  0  0  0  0  0  0  0  0  0
    5.7158  -14.0250    0.0000 C   0  0  1  0  0  0  0  0  0  0  0  0
    5.0013  -14.4375    0.0000 C   0  0  1  0  0  0  0  0  0  0  0  0
    4.2868  -14.0250    0.0000 C   0  0  0  0  0  0  0  0  0  0  0  0
    5.0013  -15.2625    0.0000 C   0  0  0  0  0  0  0  0  0  0  0  0
    5.7158  -15.6750    0.0000 C   0  0  2  0  0  0  0  0  0  0  0  0
    6.4302  -15.2625    0.0000 C   0  0  2  0  0  0  0  0  0  0  0  0
    6.4302  -14.4375    0.0000 C   0  0  2  0  0  0  0  0  0  0  0  0
    7.1447  -14.0250    0.0000 C   0  0  0  0  0  0  0  0  0  0  0  0
    7.8592  -14.4375    0.0000 C   0  0  1  0  0  0  0  0  0  0  0  0
    7.8592  -15.2625    0.0000 C   0  0  1  0  0  0  0  0  0  0  0  0
    7.1447  -15.6750    0.0000 C   0  0  1  0  0  0  0  0  0  0  0  0
    7.3162  -16.4820    0.0000 C   0  0  0  0  0  0  0  0  0  0  0  0
    8.1367  -16.5682    0.0000 C   0  0  0  0  0  0  0  0  0  0  0  0
    8.4723  -15.8145    0.0000 C   0  0  2  0  0  0  0  0  0  0  0  0
    9.2792  -15.6430    0.0000 C   0  0  2  0  0  0  0  0  0  0  0  0
    9.5342  -14.8584    0.0000 C   0  0  0  0  0  0  0  0  0  0  0  0
    9.8313  -16.2561    0.0000 C   0  0  0  0  0  0  0  0  0  0  0  0
   10.6383  -16.0846    0.0000 C   0  0  0  0  0  0  0  0  0  0  0  0
   11.1903  -16.6977    0.0000 C   0  0  0  0  0  0  0  0  0  0  0  0
   11.9973  -16.5261    0.0000 O   0  0  0  0  0  0  0  0  0  0  0  0
   10.9353  -17.4823    0.0000 O   0  0  0  0  0  0  0  0  0  0  0  0
    8.6129  -14.9269    0.0000 C   0  0  0  0  0  0  0  0  0  0  0  0
    8.5737  -14.0250    0.0000 O   0  0  0  0  0  0  0  0  0  0  0  0
    5.7158  -16.5000    0.0000 O   0  0  0  0  0  0  0  0  0  0  0  0
    6.4302  -13.6125    0.0000 C   0  0  0  0  0  0  0  0  0  0  0  0
  1  2  1  0  0  0  0
  2  3  1  0  0  0  0
  3  4  1  0  0  0  0
  4  5  1  0  0  0  0
  5  6  1  0  0  0  0
  6  7  1  0  0  0  0
  7  8  1  0  0  0  0
  8  9  1  0  0  0  0
  9 10  1  0  0  0  0
 10 11  1  0  0  0  0
 11 12  1  0  0  0  0
 12 13  1  0  0  0  0
 13 14  1  0  0  0  0
 14 15  1  0  0  0  0
 15 16  1  0  0  0  0
 16 17  1  0  0  0  0
 17 18  1  0  0  0  0
 18 19  1  0  0  0  0
 19 20  1  0  0  0  0
 20 21  2  0  0  0  0
 20 22  1  0  0  0  0
 23 22  1  1  0  0  0
 23 24  1  0  0  0  0
 24 25  1  0  0  0  0
 25 26  1  0  0  0  0
 26 27  1  0  0  0  0
 27 28  1  6  0  0  0
 23 28  1  0  0  0  0
 27 29  1  0  0  0  0
 29 30  1  0  0  0  0
 30 31  1  0  0  0  0
 31 32  1  0  0  0  0
 26 32  1  0  0  0  0
 32 33  1  1  0  0  0
 33 34  1  0  0  0  0
 34 35  1  0  0  0  0
 35 36  1  0  0  0  0
 31 36  1  6  0  0  0
 36 37  1  1  0  0  0
 37 38  1  0  0  0  0
 38 39  1  0  0  0  0
 35 39  1  0  0  0  0
 39 40  1  1  0  0  0
 40 41  1  6  0  0  0
 40 42  1  0  0  0  0
 42 43  1  0  0  0  0
 43 44  1  0  0  0  0
 44 45  2  0  0  0  0
 44 46  1  0  0  0  0
 35 47  1  1  0  0  0
 34 48  1  6  0  0  0
 30 49  1  6  0  0  0
 26 50  1  1  0  0  0
M  END
> <DATABASE_ID>
DB11860

> <DATABASE_NAME>
drugbank

> <SMILES>
CCCCCCCCCCCCCCCCCCCC(=O)N[C@H]1CC[C@@]2(C)[C@H](C[C@@H](O)[C@H]3[C@@H]4CC[C@H]([C@H](C)CCC(O)=O)[C@@]4(C)[C@@H](O)C[C@H]23)C1

> <INCHI_IDENTIFIER>
InChI=1S/C44H79NO5/c1-5-6-7-8-9-10-11-12-13-14-15-16-17-18-19-20-21-22-40(48)45-34-27-28-43(3)33(29-34)30-38(46)42-36-25-24-35(32(2)23-26-41(49)50)44(36,4)39(47)31-37(42)43/h32-39,42,46-47H,5-31H2,1-4H3,(H,45,48)(H,49,50)/t32-,33+,34+,35-,36+,37+,38-,39+,42+,43+,44-/m1/s1

> <INCHI_KEY>
SHKXZIQNFMOPBS-OOMQYRRCSA-N

> <FORMULA>
C44H79NO5

> <MOLECULAR_WEIGHT>
702.118

> <EXACT_MASS>
701.595824648

> <JCHEM_ACCEPTOR_COUNT>
5

> <JCHEM_ATOM_COUNT>
129

> <JCHEM_AVERAGE_POLARIZABILITY>
90.31193110702736

> <JCHEM_BIOAVAILABILITY>
0

> <JCHEM_DONOR_COUNT>
4

> <JCHEM_FORMAL_CHARGE>
0

> <JCHEM_GHOSE_FILTER>
0

> <JCHEM_IUPAC>
(4R)-4-[(1S,2S,5S,7S,9R,10R,11S,14R,15R,16S)-9,16-dihydroxy-5-icosanamido-2,15-dimethyltetracyclo[8.7.0.0^{2,7}.0^{11,15}]heptadecan-14-yl]pentanoic acid

> <ALOGPS_LOGP>
8.31

> <JCHEM_LOGP>
10.452662415000002

> <ALOGPS_LOGS>
-6.95

> <JCHEM_MDDR_LIKE_RULE>
1

> <JCHEM_NUMBER_OF_RINGS>
4

> <JCHEM_PHYSIOLOGICAL_CHARGE>
-1

> <JCHEM_PKA>
15.93535520454775

> <JCHEM_PKA_STRONGEST_ACIDIC>
4.475014220785986

> <JCHEM_PKA_STRONGEST_BASIC>
-0.0881779234004425

> <JCHEM_POLAR_SURFACE_AREA>
106.86000000000001

> <JCHEM_REFRACTIVITY>
204.73450000000008

> <JCHEM_ROTATABLE_BOND_COUNT>
23

> <JCHEM_RULE_OF_FIVE>
0

> <ALOGPS_SOLUBILITY>
7.83e-05 g/l

> <JCHEM_TRADITIONAL_IUPAC>
(4R)-4-[(1S,2S,5S,7S,9R,10R,11S,14R,15R,16S)-9,16-dihydroxy-5-icosanamido-2,15-dimethyltetracyclo[8.7.0.0^{2,7}.0^{11,15}]heptadecan-14-yl]pentanoic acid

> <JCHEM_VEBER_RULE>
0

> <DRUGBANK_ID>
DB11860

> <DRUG_GROUPS>
investigational

> <GENERIC_NAME>
Aramchol

$$$$
