
  Mrv1909 12181923412D          

 62 70  0  0  0  0            999 V2000
    2.2855   -0.3026    0.0000 C   0  0  2  0  0  0  0  0  0  0  0  0
    3.0114    0.1115    0.0000 C   0  0  2  0  0  0  0  0  0  0  0  0
    2.2855   -1.1312    0.0000 C   0  0  2  0  0  0  0  0  0  0  0  0
    0.8555   -0.3026    0.0000 C   0  0  0  0  0  0  0  0  0  0  0  0
    1.7062    0.4525    0.0000 C   0  0  0  0  0  0  0  0  0  0  0  0
    3.7338   -0.3026    0.0000 C   0  0  2  0  0  0  0  0  0  0  0  0
    3.0114    0.9439    0.0000 N   0  0  0  0  0  0  0  0  0  0  0  0
    3.0114   -1.5163    0.0000 C   0  0  2  0  0  0  0  0  0  0  0  0
    1.5742   -1.5163    0.0000 N   0  0  0  0  0  0  0  0  0  0  0  0
    0.8555   -1.1312    0.0000 C   0  0  0  0  0  0  0  0  0  0  0  0
    0.1259    0.1115    0.0000 C   0  0  0  0  0  0  0  0  0  0  0  0
    2.1754    1.2775    0.0000 C   0  0  0  0  0  0  0  0  0  0  0  0
    3.7338   -1.1312    0.0000 C   0  0  2  0  0  0  0  0  0  0  0  0
    4.4157    0.1115    0.0000 C   0  0  0  0  0  0  0  0  0  0  0  0
    4.4157   -0.7096    0.0000 C   0  0  0  0  0  0  0  0  0  0  0  0
    3.7338    1.3912    0.0000 C   0  0  0  0  0  0  0  0  0  0  0  0
    2.6741   -2.7115    0.0000 C   0  0  0  0  0  0  0  0  0  0  0  0
    3.5724   -2.0222    0.0000 O   0  0  0  0  0  0  0  0  0  0  0  0
    1.5742   -2.3522    0.0000 C   0  0  0  0  0  0  0  0  0  0  0  0
    0.1259   -1.5163    0.0000 C   0  0  0  0  0  0  0  0  0  0  0  0
   -0.5816   -0.3026    0.0000 C   0  0  0  0  0  0  0  0  0  0  0  0
    4.5036   -1.5713    0.0000 O   0  0  0  0  0  0  0  0  0  0  0  0
    4.4157    0.9439    0.0000 C   0  0  0  0  0  0  0  0  0  0  0  0
    5.2590   -0.4934    0.0000 C   0  0  0  0  0  0  0  0  0  0  0  0
    1.9994   -3.1038    0.0000 O   0  0  0  0  0  0  0  0  0  0  0  0
    3.2278   -3.2394    0.0000 O   0  0  0  0  0  0  0  0  0  0  0  0
   -0.5816   -1.1312    0.0000 C   0  0  0  0  0  0  0  0  0  0  0  0
   -1.7505    0.5812    0.0000 C   0  0  2  0  0  0  0  0  0  0  0  0
    4.5036   -2.4035    0.0000 C   0  0  0  0  0  0  0  0  0  0  0  0
    1.9994   -3.8591    0.0000 C   0  0  0  0  0  0  0  0  0  0  0  0
   -1.2821   -1.5163    0.0000 O   0  0  0  0  0  0  0  0  0  0  0  0
   -2.4543    1.0580    0.0000 C   0  0  0  0  0  0  0  0  0  0  0  0
   -0.9695    1.0433    0.0000 C   0  0  0  0  0  0  0  0  0  0  0  0
   -2.0169   -0.1839    0.0000 C   0  0  0  0  0  0  0  0  0  0  0  0
    5.1967   -2.8509    0.0000 C   0  0  0  0  0  0  0  0  0  0  0  0
    4.0675   -2.8399    0.0000 O   0  0  0  0  0  0  0  0  0  0  0  0
   -1.2821   -2.3192    0.0000 C   0  0  0  0  0  0  0  0  0  0  0  0
   -2.4543    1.8902    0.0000 C   0  0  0  0  0  0  0  0  0  0  0  0
   -3.1474    0.6363    0.0000 N   0  0  0  0  0  0  0  0  0  0  0  0
   -0.9695    1.8389    0.0000 C   0  0  1  0  0  0  0  0  0  0  0  0
   -2.9187   -0.4499    0.0000 O   0  0  0  0  0  0  0  0  0  0  0  0
   -1.6453   -0.7673    0.0000 O   0  0  0  0  0  0  0  0  0  0  0  0
   -3.8880    1.8902    0.0000 C   0  0  0  0  0  0  0  0  0  0  0  0
   -2.7975    2.5663    0.0000 C   0  0  0  0  0  0  0  0  0  0  0  0
   -3.8880    1.0580    0.0000 C   0  0  0  0  0  0  0  0  0  0  0  0
   -1.6698    2.2202    0.0000 C   0  0  0  0  0  0  0  0  0  0  0  0
   -0.2545    2.3412    0.0000 C   0  0  0  0  0  0  0  0  0  0  0  0
   -3.0197   -1.2718    0.0000 C   0  0  0  0  0  0  0  0  0  0  0  0
   -4.5920    2.3009    0.0000 C   0  0  0  0  0  0  0  0  0  0  0  0
   -2.3745    3.2658    0.0000 C   0  0  0  0  0  0  0  0  0  0  0  0
   -4.5920    0.6363    0.0000 C   0  0  0  0  0  0  0  0  0  0  0  0
   -1.6698    2.9866    0.0000 N   0  0  0  0  0  0  0  0  0  0  0  0
   -0.2728    3.0524    0.0000 C   0  0  2  0  0  0  0  0  0  0  0  0
   -5.2590    1.8902    0.0000 C   0  0  0  0  0  0  0  0  0  0  0  0
   -5.2590    1.0580    0.0000 C   0  0  0  0  0  0  0  0  0  0  0  0
   -0.9732    3.4522    0.0000 C   0  0  0  0  0  0  0  0  0  0  0  0
    0.6584    2.7261    0.0000 C   0  0  0  0  0  0  0  0  0  0  0  0
    0.2441    3.8591    0.0000 O   0  0  0  0  0  0  0  0  0  0  0  0
    1.3154    3.1210    0.0000 C   0  0  0  0  0  0  0  0  0  0  0  0
    3.0151   -0.5757    0.0000 H   0  0  0  0  0  0  0  0  0  0  0  0
    2.3123   -1.8311    0.0000 H   0  0  0  0  0  0  0  0  0  0  0  0
   -0.3571    1.6006    0.0000 H   0  0  0  0  0  0  0  0  0  0  0  0
  1  2  1  0  0  0  0
  1  3  1  0  0  0  0
  1  4  1  0  0  0  0
  1  5  1  1  0  0  0
  2  6  1  0  0  0  0
  2  7  1  0  0  0  0
  3  8  1  0  0  0  0
  3  9  1  0  0  0  0
  4 10  1  0  0  0  0
  4 11  2  0  0  0  0
  5 12  1  0  0  0  0
  6 13  1  0  0  0  0
  6 14  1  0  0  0  0
  6 15  1  6  0  0  0
  7 16  1  0  0  0  0
  8 17  1  6  0  0  0
  8 18  1  1  0  0  0
  9 19  1  0  0  0  0
 10 20  2  0  0  0  0
 11 21  1  0  0  0  0
 13 22  1  1  0  0  0
 14 23  2  0  0  0  0
 15 24  1  0  0  0  0
 17 25  1  0  0  0  0
 17 26  2  0  0  0  0
 20 27  1  0  0  0  0
 28 21  1  6  0  0  0
 22 29  1  0  0  0  0
 25 30  1  0  0  0  0
 27 31  1  0  0  0  0
 28 32  1  0  0  0  0
 28 33  1  0  0  0  0
 28 34  1  1  0  0  0
 29 35  1  0  0  0  0
 29 36  2  0  0  0  0
 31 37  1  0  0  0  0
 32 38  2  0  0  0  0
 32 39  1  0  0  0  0
 33 40  1  0  0  0  0
 34 41  1  0  0  0  0
 34 42  2  0  0  0  0
 38 43  1  0  0  0  0
 38 44  1  0  0  0  0
 39 45  1  0  0  0  0
 40 46  1  0  0  0  0
 40 47  1  0  0  0  0
 41 48  1  0  0  0  0
 43 49  1  0  0  0  0
 44 50  1  0  0  0  0
 45 51  1  0  0  0  0
 46 52  1  0  0  0  0
 47 53  1  0  0  0  0
 49 54  2  0  0  0  0
 51 55  2  0  0  0  0
 52 56  1  0  0  0  0
 53 57  1  6  0  0  0
 53 58  1  1  0  0  0
 57 59  1  0  0  0  0
  7 12  1  0  0  0  0
  8 13  1  0  0  0  0
  9 10  1  0  0  0  0
 16 23  1  0  0  0  0
 21 27  2  0  0  0  0
 43 45  2  0  0  0  0
 50 52  1  0  0  0  0
 53 56  1  0  0  0  0
 54 55  1  0  0  0  0
  2 60  1  6  0  0  0
  3 61  1  1  0  0  0
 40 62  1  6  0  0  0
M  END
> <DATABASE_ID>
DB00570

> <DATABASE_NAME>
drugbank

> <SMILES>
[H][C@@]12N(C)C3=CC(OC)=C(C=C3[C@@]11CCN3CC=C[C@@](CC)([C@@H](OC(C)=O)[C@]2(O)C(=O)OC)[C@@]13[H])[C@]1(C[C@@]2([H])CN(C[C@](O)(CC)C2)CCC2=C1NC1=C2C=CC=C1)C(=O)OC

> <INCHI_IDENTIFIER>
InChI=1S/C46H58N4O9/c1-8-42(54)23-28-24-45(40(52)57-6,36-30(15-19-49(25-28)26-42)29-13-10-11-14-33(29)47-36)32-21-31-34(22-35(32)56-5)48(4)38-44(31)17-20-50-18-12-16-43(9-2,37(44)50)39(59-27(3)51)46(38,55)41(53)58-7/h10-14,16,21-22,28,37-39,47,54-55H,8-9,15,17-20,23-26H2,1-7H3/t28-,37-,38+,39+,42-,43+,44+,45-,46-/m0/s1

> <INCHI_KEY>
JXLYSJRDGCGARV-CFWMRBGOSA-N

> <FORMULA>
C46H58N4O9

> <MOLECULAR_WEIGHT>
810.9741

> <EXACT_MASS>
810.420379474

> <JCHEM_ACCEPTOR_COUNT>
9

> <JCHEM_ATOM_COUNT>
117

> <JCHEM_AVERAGE_NEUTRAL_MICROSPECIES_CHARGE>
1.9340758358139662

> <JCHEM_AVERAGE_POLARIZABILITY>
87.46012566036845

> <JCHEM_BIOAVAILABILITY>
1

> <JCHEM_DONOR_COUNT>
3

> <JCHEM_FORMAL_CHARGE>
0

> <JCHEM_GHOSE_FILTER>
0

> <JCHEM_IUPAC>
methyl (1R,9R,10S,11R,12R,19R)-11-(acetyloxy)-12-ethyl-4-[(13S,15R,17S)-17-ethyl-17-hydroxy-13-(methoxycarbonyl)-1,11-diazatetracyclo[13.3.1.0^{4,12}.0^{5,10}]nonadeca-4(12),5(10),6,8-tetraen-13-yl]-10-hydroxy-5-methoxy-8-methyl-8,16-diazapentacyclo[10.6.1.0^{1,9}.0^{2,7}.0^{16,19}]nonadeca-2,4,6,13-tetraene-10-carboxylate

> <ALOGPS_LOGP>
4.22

> <JCHEM_LOGP>
4.183145288000002

> <ALOGPS_LOGS>
-4.68

> <JCHEM_MDDR_LIKE_RULE>
1

> <JCHEM_NEUTRAL_CHARGE>
2

> <JCHEM_NUMBER_OF_RINGS>
9

> <JCHEM_PHYSIOLOGICAL_CHARGE>
2

> <JCHEM_PKA>
14.405148771657073

> <JCHEM_PKA_STRONGEST_ACIDIC>
10.869524000991364

> <JCHEM_PKA_STRONGEST_BASIC>
8.861449486805551

> <JCHEM_POLAR_SURFACE_AREA>
154.1

> <JCHEM_REFRACTIVITY>
222.42059999999998

> <JCHEM_ROTATABLE_BOND_COUNT>
10

> <JCHEM_RULE_OF_FIVE>
0

> <ALOGPS_SOLUBILITY>
1.69e-02 g/l

> <JCHEM_TRADITIONAL_IUPAC>
methyl (1R,9R,10S,11R,12R,19R)-11-(acetyloxy)-12-ethyl-4-[(13S,15R,17S)-17-ethyl-17-hydroxy-13-(methoxycarbonyl)-1,11-diazatetracyclo[13.3.1.0^{4,12}.0^{5,10}]nonadeca-4(12),5(10),6,8-tetraen-13-yl]-10-hydroxy-5-methoxy-8-methyl-8,16-diazapentacyclo[10.6.1.0^{1,9}.0^{2,7}.0^{16,19}]nonadeca-2,4,6,13-tetraene-10-carboxylate

> <JCHEM_VEBER_RULE>
0

> <DRUGBANK_ID>
DB00570

> <SECONDARY_ACCESSION_NUMBERS>
APRD00708

> <DRUG_GROUPS>
approved

> <GENERIC_NAME>
Vinblastine

> <SYNONYMS>
Vinblastin; Vinblastina; Vinblastine; Vinblastinum; Vincaleukoblastine

> <PRODUCTS>
Velbe 1mg/ml; Vinblastine Sulfate; Vinblastine Sulfate Inj 1mg/ml; Vinblastine Sulfate Injection; Vinblastine Sulphate Injection

> <INTERNATIONAL_BRANDS>
Blastivin; Cytoblastin; Lemblastine; Oncostin; Velban; Velbastin; Velbe; Vinblasin; Vinblastin; Vinko; Weibaoding; Xintoprost

> <SALTS>
Vinblastine sulfate

$$$$
