
  Mrv1909 10192218352D          

 26 26  0  0  0  0            999 V2000
    2.1434   -5.3625    0.0000 C   0  0  0  0  0  0  0  0  0  0  0  0
    2.8579   -4.9500    0.0000 C   0  0  0  0  0  0  0  0  0  0  0  0
    3.5724   -5.3625    0.0000 C   0  0  0  0  0  0  0  0  0  0  0  0
    4.2868   -4.9500    0.0000 C   0  0  0  0  0  0  0  0  0  0  0  0
    5.0013   -5.3625    0.0000 C   0  0  0  0  0  0  0  0  0  0  0  0
    5.7158   -4.9500    0.0000 C   0  0  0  0  0  0  0  0  0  0  0  0
    6.4302   -5.3625    0.0000 C   0  0  0  0  0  0  0  0  0  0  0  0
    7.1447   -4.9500    0.0000 O   0  0  0  0  0  0  0  0  0  0  0  0
    7.8592   -5.3625    0.0000 C   0  0  0  0  0  0  0  0  0  0  0  0
    8.5737   -4.9500    0.0000 C   0  0  0  0  0  0  0  0  0  0  0  0
    9.2881   -5.3625    0.0000 C   0  0  0  0  0  0  0  0  0  0  0  0
    9.2881   -6.1875    0.0000 C   0  0  0  0  0  0  0  0  0  0  0  0
   10.0026   -6.6000    0.0000 C   0  0  0  0  0  0  0  0  0  0  0  0
   10.7171   -6.1875    0.0000 C   0  0  0  0  0  0  0  0  0  0  0  0
   11.4315   -6.6000    0.0000 C   0  0  0  0  0  0  0  0  0  0  0  0
   11.0190   -7.3145    0.0000 N   0  0  0  0  0  0  0  0  0  0  0  0
   12.1460   -7.0125    0.0000 C   0  0  0  0  0  0  0  0  0  0  0  0
   12.8605   -6.6000    0.0000 O   0  0  0  0  0  0  0  0  0  0  0  0
   11.8440   -5.8855    0.0000 C   0  0  0  0  0  0  0  0  0  0  0  0
   12.6690   -5.8855    0.0000 O   0  0  0  0  0  0  0  0  0  0  0  0
    8.5737   -6.6000    0.0000 C   0  0  0  0  0  0  0  0  0  0  0  0
    7.8592   -6.1875    0.0000 C   0  0  0  0  0  0  0  0  0  0  0  0
    7.1447   -6.6000    0.0000 C   0  0  0  0  0  0  0  0  0  0  0  0
    6.4302   -7.0125    0.0000 F   0  0  0  0  0  0  0  0  0  0  0  0
    6.7322   -5.8855    0.0000 F   0  0  0  0  0  0  0  0  0  0  0  0
    7.5572   -7.3145    0.0000 F   0  0  0  0  0  0  0  0  0  0  0  0
  1  2  1  0  0  0  0
  2  3  1  0  0  0  0
  3  4  1  0  0  0  0
  4  5  1  0  0  0  0
  5  6  1  0  0  0  0
  6  7  1  0  0  0  0
  7  8  1  0  0  0  0
  8  9  1  0  0  0  0
  9 10  2  0  0  0  0
 10 11  1  0  0  0  0
 11 12  2  0  0  0  0
 12 13  1  0  0  0  0
 13 14  1  0  0  0  0
 14 15  1  0  0  0  0
 15 16  1  0  0  0  0
 15 17  1  0  0  0  0
 17 18  1  0  0  0  0
 15 19  1  0  0  0  0
 19 20  1  0  0  0  0
 12 21  1  0  0  0  0
 21 22  2  0  0  0  0
  9 22  1  0  0  0  0
 22 23  1  0  0  0  0
 23 24  1  0  0  0  0
 23 25  1  0  0  0  0
 23 26  1  0  0  0  0
M  END
> <DATABASE_ID>
DB17074

> <DATABASE_NAME>
drugbank

> <SMILES>
CCCCCCCOC1=CC=C(CCC(N)(CO)CO)C=C1C(F)(F)F

> <INCHI_IDENTIFIER>
InChI=1S/C19H30F3NO3/c1-2-3-4-5-6-11-26-17-8-7-15(12-16(17)19(20,21)22)9-10-18(23,13-24)14-25/h7-8,12,24-25H,2-6,9-11,13-14,23H2,1H3

> <INCHI_KEY>
JVCPIJKPAKAIIP-UHFFFAOYSA-N

> <FORMULA>
C19H30F3NO3

> <MOLECULAR_WEIGHT>
377.448

> <EXACT_MASS>
377.217778319

> <JCHEM_ACCEPTOR_COUNT>
4

> <JCHEM_ATOM_COUNT>
56

> <JCHEM_AVERAGE_NEUTRAL_MICROSPECIES_CHARGE>
0.9958171949553927

> <JCHEM_AVERAGE_POLARIZABILITY>
40.249107799859885

> <JCHEM_BIOAVAILABILITY>
1

> <JCHEM_DONOR_COUNT>
3

> <JCHEM_FORMAL_CHARGE>
0

> <JCHEM_GHOSE_FILTER>
1

> <JCHEM_IUPAC>
2-amino-2-{2-[4-(heptyloxy)-3-(trifluoromethyl)phenyl]ethyl}propane-1,3-diol

> <ALOGPS_LOGP>
3.69

> <JCHEM_LOGP>
3.813358107333333

> <ALOGPS_LOGS>
-4.42

> <JCHEM_MDDR_LIKE_RULE>
0

> <JCHEM_NEUTRAL_CHARGE>
1

> <JCHEM_NUMBER_OF_RINGS>
1

> <JCHEM_PHYSIOLOGICAL_CHARGE>
1

> <JCHEM_PKA>
15.109766253575424

> <JCHEM_PKA_STRONGEST_ACIDIC>
14.411363471902163

> <JCHEM_PKA_STRONGEST_BASIC>
9.376716841188115

> <JCHEM_POLAR_SURFACE_AREA>
75.71000000000001

> <JCHEM_REFRACTIVITY>
96.1453

> <JCHEM_ROTATABLE_BOND_COUNT>
13

> <JCHEM_RULE_OF_FIVE>
1

> <ALOGPS_SOLUBILITY>
1.43e-02 g/l

> <JCHEM_TRADITIONAL_IUPAC>
6-cyclopropaneamido-N-[hydroxy(2H2)methyl]-4-{[2-methoxy-3-(1-methyl-1,2,4-triazol-3-yl)phenyl]amino}pyridazine-3-carboxamide

> <JCHEM_VEBER_RULE>
0

> <DRUGBANK_ID>
DB17074

> <DRUG_GROUPS>
experimental

> <GENERIC_NAME>
Amiselimod

> <SYNONYMS>
1,3-propanediol, 2-amino-2-(2-(4-(heptyloxy)-3-(trifluoromethyl)phenyl)ethyl)-; 2-amino-2-(2-(4-heptyloxy-3-trifluoromethylphenyl)ethyl)propane-1,3-diol; Amiselimod

$$$$
