
  Mrv1652310211602392D          

 41 46  0  0  1  0            999 V2000
    9.9511   -0.2681    0.0000 C   0  0  0  0  0  0  0  0  0  0  0  0
    9.1390   -0.4133    0.0000 C   0  0  1  0  0  0  0  0  0  0  0  0
    8.8587   -1.1892    0.0000 C   0  0  1  0  0  0  0  0  0  0  0  0
    8.0466   -1.3344    0.0000 C   0  0  2  0  0  0  0  0  0  0  0  0
    7.5148   -0.7037    0.0000 C   0  0  0  0  0  0  0  0  0  0  0  0
    7.7951    0.0722    0.0000 C   0  0  1  0  0  0  0  0  0  0  0  0
    8.6072    0.2174    0.0000 O   0  0  0  0  0  0  0  0  0  0  0  0
    7.2632    0.7029    0.0000 O   0  0  0  0  0  0  0  0  0  0  0  0
    6.4511    0.5577    0.0000 C   0  0  1  0  0  0  0  0  0  0  0  0
    6.1708   -0.2182    0.0000 C   0  0  0  0  0  0  0  0  0  0  0  0
    5.3587   -0.3634    0.0000 C   0  0  0  0  0  0  0  0  0  0  0  0
    4.8269    0.2673    0.0000 C   0  0  1  0  0  0  0  0  0  0  0  0
    5.1072    1.0432    0.0000 C   0  0  1  0  0  0  0  0  0  0  0  0
    5.9193    1.1884    0.0000 C   0  0  0  0  0  0  0  0  0  0  0  0
    4.5754    1.6739    0.0000 C   0  0  0  0  0  0  0  0  0  0  0  0
    3.7633    1.5287    0.0000 C   0  0  0  0  0  0  0  0  0  0  0  0
    3.4830    0.7528    0.0000 C   0  0  2  0  0  0  0  0  0  0  0  0
    4.0148    0.1221    0.0000 C   0  0  2  0  0  0  0  0  0  0  0  0
    3.7345   -0.6539    0.0000 C   0  0  0  0  0  0  0  0  0  0  0  0
    2.9224   -0.7991    0.0000 C   0  0  0  0  0  0  0  0  0  0  0  0
    2.3905   -0.1684    0.0000 C   0  0  1  0  0  0  0  0  0  0  0  0
    2.6708    0.6076    0.0000 C   0  0  2  0  0  0  0  0  0  0  0  0
    2.0195    1.1139    0.0000 C   0  0  0  0  0  0  0  0  0  0  0  0
    1.3367    0.6509    0.0000 C   0  0  1  0  0  0  0  0  0  0  0  0
    1.5660   -0.1416    0.0000 C   0  0  2  0  0  0  0  0  0  0  0  0
    1.0596   -0.7929    0.0000 C   0  0  0  0  0  0  0  0  0  0  0  0
    1.2889   -1.5854    0.0000 C   0  0  0  0  0  0  0  0  0  0  0  0
    0.6061   -2.0484    0.0000 C   0  0  0  0  0  0  0  0  0  0  0  0
    0.5793   -2.8729    0.0000 O   0  0  0  0  0  0  0  0  0  0  0  0
   -0.0452   -1.5420    0.0000 O   0  0  0  0  0  0  0  0  0  0  0  0
    0.2351   -0.7661    0.0000 C   0  0  0  0  0  0  0  0  0  0  0  0
    0.5607    0.9312    0.0000 O   0  0  0  0  0  0  0  0  0  0  0  0
    0.4155    1.7434    0.0000 C   0  0  0  0  0  0  0  0  0  0  0  0
   -0.3604    2.0237    0.0000 O   0  0  0  0  0  0  0  0  0  0  0  0
    1.0462    2.2752    0.0000 C   0  0  0  0  0  0  0  0  0  0  0  0
    2.8685    1.4085    0.0000 O   0  0  0  0  0  0  0  0  0  0  0  0
    2.0307   -0.9107    0.0000 C   0  0  0  0  0  0  0  0  0  0  0  0
    4.5466   -0.5086    0.0000 C   0  0  0  0  0  0  0  0  0  0  0  0
    7.7663   -2.1103    0.0000 O   0  0  0  0  0  0  0  0  0  0  0  0
    8.2981   -2.7410    0.0000 C   0  0  0  0  0  0  0  0  0  0  0  0
    9.3905   -1.8199    0.0000 O   0  0  0  0  0  0  0  0  0  0  0  0
  2  1  1  1  0  0  0
  2  3  1  0  0  0  0
  3  4  1  0  0  0  0
  4  5  1  0  0  0  0
  5  6  1  0  0  0  0
  6  7  1  0  0  0  0
  2  7  1  0  0  0  0
  6  8  1  6  0  0  0
  9  8  1  1  0  0  0
  9 10  1  0  0  0  0
 10 11  1  0  0  0  0
 11 12  1  0  0  0  0
 12 13  1  0  0  0  0
 13 14  1  6  0  0  0
  9 14  1  0  0  0  0
 13 15  1  0  0  0  0
 15 16  1  0  0  0  0
 17 16  1  6  0  0  0
 17 18  1  0  0  0  0
 12 18  1  0  0  0  0
 18 19  1  1  0  0  0
 19 20  1  0  0  0  0
 20 21  1  0  0  0  0
 21 22  1  0  0  0  0
 17 22  1  0  0  0  0
 22 23  1  0  0  0  0
 23 24  1  0  0  0  0
 24 25  1  0  0  0  0
 21 25  1  0  0  0  0
 25 26  1  1  0  0  0
 26 27  2  0  0  0  0
 27 28  1  0  0  0  0
 28 29  2  0  0  0  0
 28 30  1  0  0  0  0
 30 31  1  0  0  0  0
 26 31  1  0  0  0  0
 24 32  1  1  0  0  0
 32 33  1  0  0  0  0
 33 34  2  0  0  0  0
 33 35  1  0  0  0  0
 22 36  1  1  0  0  0
 21 37  1  1  0  0  0
 12 38  1  1  0  0  0
  4 39  1  1  0  0  0
 39 40  1  0  0  0  0
  3 41  1  6  0  0  0
M  END
> <DATABASE_ID>
DB12843

> <DATABASE_NAME>
drugbank

> <SMILES>
CO[C@H]1C[C@H](O[C@H]2CC[C@@]3(C)[C@H](CC[C@@H]4[C@@H]3CC[C@]3(C)[C@H]([C@H](C[C@]43O)OC(C)=O)C3=CC(=O)OC3)C2)O[C@@H](C)[C@@H]1O

> <INCHI_IDENTIFIER>
InChI=1S/C32H48O9/c1-17-29(35)24(37-5)14-27(39-17)41-21-8-10-30(3)20(13-21)6-7-23-22(30)9-11-31(4)28(19-12-26(34)38-16-19)25(40-18(2)33)15-32(23,31)36/h12,17,20-25,27-29,35-36H,6-11,13-16H2,1-5H3/t17-,20+,21-,22-,23+,24-,25-,27-,28-,29-,30-,31+,32-/m0/s1

> <INCHI_KEY>
JLPDBLFIVFSOCC-XYXFTTADSA-N

> <FORMULA>
C32H48O9

> <MOLECULAR_WEIGHT>
576.727

> <EXACT_MASS>
576.329833126

> <JCHEM_ACCEPTOR_COUNT>
7

> <JCHEM_ATOM_COUNT>
89

> <JCHEM_AVERAGE_POLARIZABILITY>
63.195266077848814

> <JCHEM_BIOAVAILABILITY>
1

> <JCHEM_DONOR_COUNT>
2

> <JCHEM_FORMAL_CHARGE>
0

> <JCHEM_GHOSE_FILTER>
0

> <JCHEM_IUPAC>
(1S,2S,5S,7R,10R,11S,13S,14R,15R)-11-hydroxy-5-{[(2R,4S,5S,6S)-5-hydroxy-4-methoxy-6-methyloxan-2-yl]oxy}-2,15-dimethyl-14-(5-oxo-2,5-dihydrofuran-3-yl)tetracyclo[8.7.0.0^{2,7}.0^{11,15}]heptadecan-13-yl acetate

> <ALOGPS_LOGP>
2.10

> <JCHEM_LOGP>
2.9467600819999995

> <ALOGPS_LOGS>
-5.28

> <JCHEM_MDDR_LIKE_RULE>
1

> <JCHEM_NUMBER_OF_RINGS>
6

> <JCHEM_PHYSIOLOGICAL_CHARGE>
-1

> <JCHEM_PKA>
13.159280547521593

> <JCHEM_PKA_STRONGEST_ACIDIC>
6.819477159430852

> <JCHEM_PKA_STRONGEST_BASIC>
-3.203886689169476

> <JCHEM_POLAR_SURFACE_AREA>
120.75000000000001

> <JCHEM_REFRACTIVITY>
148.45109999999997

> <JCHEM_ROTATABLE_BOND_COUNT>
6

> <JCHEM_RULE_OF_FIVE>
0

> <ALOGPS_SOLUBILITY>
2.99e-03 g/l

> <JCHEM_TRADITIONAL_IUPAC>
(1S,2S,5S,7R,10R,11S,13S,14R,15R)-11-hydroxy-5-{[(2R,4S,5S,6S)-5-hydroxy-4-methoxy-6-methyloxan-2-yl]oxy}-2,15-dimethyl-14-(5-oxo-2H-furan-3-yl)tetracyclo[8.7.0.0^{2,7}.0^{11,15}]heptadecan-13-yl acetate

> <JCHEM_VEBER_RULE>
0

> <DRUGBANK_ID>
DB12843

> <DRUG_GROUPS>
experimental; investigational

> <GENERIC_NAME>
Oleandrin

> <SYNONYMS>
Anvirzel; Oleandrina

$$$$
