
  Mrv1909 12212006072D          

 44 48  0  0  0  0            999 V2000
   -3.4024   -2.0419    0.0000 C   0  0  0  0  0  0  0  0  0  0  0  0
   -2.7713   -1.5089    0.0000 C   0  0  0  0  0  0  0  0  0  0  0  0
   -1.9964   -1.7919    0.0000 C   0  0  0  0  0  0  0  0  0  0  0  0
   -1.8525   -2.6033    0.0000 C   0  0  0  0  0  0  0  0  0  0  0  0
   -2.4835   -3.1360    0.0000 C   0  0  0  0  0  0  0  0  0  0  0  0
   -3.2585   -2.8532    0.0000 C   0  0  0  0  0  0  0  0  0  0  0  0
   -1.0774   -2.8861    0.0000 F   0  0  0  0  0  0  0  0  0  0  0  0
   -1.3608   -1.2634    0.0000 C   0  0  0  0  0  0  0  0  0  0  0  0
   -1.5044   -0.4476    0.0000 N   0  0  0  0  0  0  0  0  0  0  0  0
   -0.7918   -0.0349    0.0000 C   0  0  0  0  0  0  0  0  0  0  0  0
   -0.7918    0.7900    0.0000 C   0  0  0  0  0  0  0  0  0  0  0  0
   -1.5045    1.2026    0.0000 C   0  0  0  0  0  0  0  0  0  0  0  0
   -1.4997    1.9370    0.0000 O   0  0  0  0  0  0  0  0  0  0  0  0
   -2.2218    0.7899    0.0000 N   0  0  0  0  0  0  0  0  0  0  0  0
   -2.9345    1.2025    0.0000 C   0  0  0  0  0  0  0  0  0  0  0  0
   -2.9345    2.0276    0.0000 N   0  0  0  0  0  0  0  0  0  0  0  0
   -3.6517    2.4400    0.0000 N   0  0  0  0  0  0  0  0  0  0  0  0
   -4.3643    2.0276    0.0000 C   0  0  0  0  0  0  0  0  0  0  0  0
   -5.0817    2.4400    0.0000 O   0  0  0  0  0  0  0  0  0  0  0  0
   -5.7943    2.0275    0.0000 C   0  0  0  0  0  0  0  0  0  0  0  0
   -4.3643    1.2025    0.0000 C   0  0  0  0  0  0  0  0  0  0  0  0
   -3.6516    0.7899    0.0000 C   0  0  0  0  0  0  0  0  0  0  0  0
   -2.2218   -0.0350    0.0000 C   0  0  0  0  0  0  0  0  0  0  0  0
   -2.9345   -0.4477    0.0000 O   0  0  0  0  0  0  0  0  0  0  0  0
   -0.0067    1.0430    0.0000 C   0  0  0  0  0  0  0  0  0  0  0  0
    0.2476    1.8279    0.0000 C   0  0  0  0  0  0  0  0  0  0  0  0
   -0.3048    2.4405    0.0000 N   0  0  0  0  0  0  0  0  0  0  0  0
   -0.9686    2.3221    0.0000 C   0  0  0  0  0  0  0  0  0  0  0  0
   -0.0862    3.1360    0.0000 C   0  0  0  0  0  0  0  0  0  0  0  0
    0.4808    0.3775    0.0000 C   0  0  0  0  0  0  0  0  0  0  0  0
   -0.0066   -0.2926    0.0000 S   0  0  0  0  0  0  0  0  0  0  0  0
    1.3060    0.3775    0.0000 C   0  0  0  0  0  0  0  0  0  0  0  0
    1.7185    1.0902    0.0000 C   0  0  0  0  0  0  0  0  0  0  0  0
    2.5437    1.0902    0.0000 C   0  0  0  0  0  0  0  0  0  0  0  0
    2.9560    0.3775    0.0000 C   0  0  0  0  0  0  0  0  0  0  0  0
    3.7813    0.3776    0.0000 N   0  0  0  0  0  0  0  0  0  0  0  0
    4.0641   -0.3974    0.0000 C   0  0  0  0  0  0  0  0  0  0  0  0
    3.5313   -1.0328    0.0000 O   0  0  0  0  0  0  0  0  0  0  0  0
    4.8756   -0.5412    0.0000 N   0  0  0  0  0  0  0  0  0  0  0  0
    5.0193   -1.3570    0.0000 O   0  0  0  0  0  0  0  0  0  0  0  0
    5.7943   -1.6354    0.0000 C   0  0  0  0  0  0  0  0  0  0  0  0
    2.5436   -0.3395    0.0000 C   0  0  0  0  0  0  0  0  0  0  0  0
    1.7186   -0.3395    0.0000 C   0  0  0  0  0  0  0  0  0  0  0  0
   -2.8723   -0.9428    0.0000 F   0  0  0  0  0  0  0  0  0  0  0  0
  1  2  1  0  0  0  0
  2  3  2  0  0  0  0
  3  4  1  0  0  0  0
  4  5  2  0  0  0  0
  5  6  1  0  0  0  0
  6  1  2  0  0  0  0
  4  7  1  0  0  0  0
  3  8  1  0  0  0  0
  9  8  1  0  0  0  0
 10  9  1  0  0  0  0
 10 11  2  0  0  0  0
 11 12  1  0  0  0  0
 12 13  2  0  0  0  0
 12 14  1  0  0  0  0
 14 15  1  0  0  0  0
 15 16  1  0  0  0  0
 16 17  2  0  0  0  0
 17 18  1  0  0  0  0
 18 19  1  0  0  0  0
 19 20  1  0  0  0  0
 18 21  2  0  0  0  0
 21 22  1  0  0  0  0
 22 15  2  0  0  0  0
 14 23  1  0  0  0  0
 23 24  2  0  0  0  0
 23  9  1  0  0  0  0
 11 25  1  0  0  0  0
 25 26  1  0  0  0  0
 26 27  1  0  0  0  0
 27 28  1  0  0  0  0
 27 29  1  0  0  0  0
 30 25  2  0  0  0  0
 31 30  1  0  0  0  0
 31 10  1  0  0  0  0
 32 30  1  0  0  0  0
 33 32  1  0  0  0  0
 34 33  2  0  0  0  0
 35 34  1  0  0  0  0
 35 36  1  0  0  0  0
 36 37  1  0  0  0  0
 37 38  2  0  0  0  0
 37 39  1  0  0  0  0
 39 40  1  0  0  0  0
 40 41  1  0  0  0  0
 42 35  2  0  0  0  0
 43 42  1  0  0  0  0
 32 43  2  0  0  0  0
  2 44  1  0  0  0  0
M  END
> <DATABASE_ID>
DB11853

> <DATABASE_NAME>
drugbank

> <SMILES>
CONC(=O)NC1=CC=C(C=C1)C1=C(CN(C)C)C2=C(S1)N(CC1=C(F)C=CC=C1F)C(=O)N(C2=O)C1=CC=C(OC)N=N1

> <INCHI_IDENTIFIER>
InChI=1S/C29H27F2N7O5S/c1-36(2)14-19-24-26(39)38(22-12-13-23(42-3)34-33-22)29(41)37(15-18-20(30)6-5-7-21(18)31)27(24)44-25(19)16-8-10-17(11-9-16)32-28(40)35-43-4/h5-13H,14-15H2,1-4H3,(H2,32,35,40)

> <INCHI_KEY>
AOMXMOCNKJTRQP-UHFFFAOYSA-N

> <FORMULA>
C29H27F2N7O5S

> <MOLECULAR_WEIGHT>
623.64

> <EXACT_MASS>
623.176244497

> <JCHEM_ACCEPTOR_COUNT>
8

> <JCHEM_ATOM_COUNT>
71

> <JCHEM_AVERAGE_NEUTRAL_MICROSPECIES_CHARGE>
1.0817060785079038

> <JCHEM_AVERAGE_POLARIZABILITY>
62.4381788867902

> <JCHEM_BIOAVAILABILITY>
1

> <JCHEM_DONOR_COUNT>
2

> <JCHEM_FORMAL_CHARGE>
0

> <JCHEM_GHOSE_FILTER>
0

> <JCHEM_IUPAC>
1-(4-{1-[(2,6-difluorophenyl)methyl]-5-[(dimethylamino)methyl]-3-(6-methoxypyridazin-3-yl)-2,4-dioxo-1H,2H,3H,4H-thieno[2,3-d]pyrimidin-6-yl}phenyl)-3-methoxyurea

> <ALOGPS_LOGP>
3.16

> <JCHEM_LOGP>
3.9360994310652258

> <ALOGPS_LOGS>
-5.50

> <JCHEM_MDDR_LIKE_RULE>
1

> <JCHEM_NEUTRAL_CHARGE>
1

> <JCHEM_NUMBER_OF_RINGS>
5

> <JCHEM_PHYSIOLOGICAL_CHARGE>
1

> <JCHEM_PKA>
18.35998751709252

> <JCHEM_PKA_STRONGEST_ACIDIC>
9.073927217217653

> <JCHEM_PKA_STRONGEST_BASIC>
7.690019374194183

> <JCHEM_POLAR_SURFACE_AREA>
129.23

> <JCHEM_REFRACTIVITY>
160.92359999999996

> <JCHEM_ROTATABLE_BOND_COUNT>
9

> <JCHEM_RULE_OF_FIVE>
0

> <ALOGPS_SOLUBILITY>
1.98e-03 g/l

> <JCHEM_TRADITIONAL_IUPAC>
relugolix

> <JCHEM_VEBER_RULE>
0

> <DRUGBANK_ID>
DB11853

> <DRUG_GROUPS>
approved; investigational

> <GENERIC_NAME>
Relugolix

> <SYNONYMS>
Relugolix

> <PRODUCTS>
Myfembree; Orgovyx; Ryeqo

> <INTERNATIONAL_BRANDS>
Orgovyx; Relumina

$$$$
