
  Mrv1909 11202017102D          

  9  9  0  0  0  0            999 V2000
    0.0000    0.0000    0.0000 C   0  0  0  0  0  0  0  0  0  0  0  0
   -0.7145   -0.4125    0.0000 C   0  0  0  0  0  0  0  0  0  0  0  0
    0.0000    0.8250    0.0000 C   0  0  0  0  0  0  0  0  0  0  0  0
    0.7145   -0.4125    0.0000 C   0  0  0  0  0  0  0  0  0  0  0  0
   -1.4290    0.0000    0.0000 C   0  0  0  0  0  0  0  0  0  0  0  0
   -0.7145    1.2375    0.0000 N   0  0  0  0  0  0  0  0  0  0  0  0
    1.4290    0.0000    0.0000 O   0  0  0  0  0  0  0  0  0  0  0  0
   -1.4290    0.8250    0.0000 C   0  0  0  0  0  0  0  0  0  0  0  0
    0.7145   -1.2375    0.0000 H   0  0  0  0  0  0  0  0  0  0  0  0
  1  2  1  0  0  0  0
  1  3  2  0  0  0  0
  1  4  1  0  0  0  0
  2  5  2  0  0  0  0
  3  6  1  0  0  0  0
  4  7  2  0  0  0  0
  5  8  1  0  0  0  0
  6  8  2  0  0  0  0
  4  9  1  0  0  0  0
M  END
> <DATABASE_ID>
DB15905

> <DATABASE_NAME>
drugbank

> <SMILES>
[H]C(=O)C1=CN=CC=C1

> <INCHI_IDENTIFIER>
InChI=1S/C6H5NO/c8-5-6-2-1-3-7-4-6/h1-5H

> <INCHI_KEY>
QJZUKDFHGGYHMC-UHFFFAOYSA-N

> <FORMULA>
C6H5NO

> <MOLECULAR_WEIGHT>
107.112

> <EXACT_MASS>
107.037113785

> <JCHEM_ACCEPTOR_COUNT>
2

> <JCHEM_ATOM_COUNT>
13

> <JCHEM_AVERAGE_NEUTRAL_MICROSPECIES_CHARGE>
0.9998668121208986

> <JCHEM_AVERAGE_POLARIZABILITY>
10.356135717233537

> <JCHEM_BIOAVAILABILITY>
1

> <JCHEM_DONOR_COUNT>
0

> <JCHEM_FORMAL_CHARGE>
0

> <JCHEM_GHOSE_FILTER>
0

> <JCHEM_IUPAC>
pyridine-3-carbaldehyde

> <ALOGPS_LOGP>
0.20

> <JCHEM_LOGP>
0.46807573366666677

> <ALOGPS_LOGS>
0.24

> <JCHEM_MDDR_LIKE_RULE>
0

> <JCHEM_NEUTRAL_CHARGE>
0

> <JCHEM_NUMBER_OF_RINGS>
1

> <JCHEM_PHYSIOLOGICAL_CHARGE>
0

> <JCHEM_PKA_STRONGEST_BASIC>
3.8754774501691434

> <JCHEM_POLAR_SURFACE_AREA>
29.96

> <JCHEM_REFRACTIVITY>
30.4851

> <JCHEM_ROTATABLE_BOND_COUNT>
1

> <JCHEM_RULE_OF_FIVE>
1

> <ALOGPS_SOLUBILITY>
1.87e+02 g/l

> <JCHEM_TRADITIONAL_IUPAC>
3-pyridinecarboxaldehyde

> <JCHEM_VEBER_RULE>
1

> <DRUGBANK_ID>
DB15905

> <DRUG_GROUPS>
experimental

> <GENERIC_NAME>
Nicotinaldehyde

> <SYNONYMS>
3-Formylpyridine; 3-Pyridinaldehyde; 3-Pyridinecarboxaldehyde; Nicotinic aldehyde

$$$$
