
  Mrv1533004261519062D          

 16 16  0  0  0  0            999 V2000
    1.4289   -4.1250    0.0000 C   0  0  0  0  0  0  0  0  0  0  0  0
    2.1434   -3.7125    0.0000 C   0  0  0  0  0  0  0  0  0  0  0  0
    2.8579   -4.1250    0.0000 C   0  0  0  0  0  0  0  0  0  0  0  0
    3.5724   -3.7125    0.0000 O   0  0  0  0  0  0  0  0  0  0  0  0
    4.2868   -4.1250    0.0000 C   0  0  0  0  0  0  0  0  0  0  0  0
    4.2868   -4.9500    0.0000 O   0  0  0  0  0  0  0  0  0  0  0  0
    5.0013   -3.7125    0.0000 C   0  0  0  0  0  0  0  0  0  0  0  0
    5.7158   -4.1250    0.0000 N   0  0  0  0  0  0  0  0  0  0  0  0
    6.4302   -3.7125    0.0000 C   0  0  0  0  0  0  0  0  0  0  0  0
    7.1447   -4.1250    0.0000 C   0  0  0  0  0  0  0  0  0  0  0  0
    7.1447   -4.9500    0.0000 C   0  0  0  0  0  0  0  0  0  0  0  0
    7.8592   -5.3625    0.0000 O   0  0  0  0  0  0  0  0  0  0  0  0
    6.4302   -5.3625    0.0000 C   0  0  0  0  0  0  0  0  0  0  0  0
    5.7158   -4.9500    0.0000 C   0  0  0  0  0  0  0  0  0  0  0  0
    6.4302   -6.1875    0.0000 I   0  0  0  0  0  0  0  0  0  0  0  0
    7.8592   -3.7125    0.0000 I   0  0  0  0  0  0  0  0  0  0  0  0
  1  2  1  0  0  0  0
  2  3  1  0  0  0  0
  3  4  1  0  0  0  0
  4  5  1  0  0  0  0
  5  6  2  0  0  0  0
  5  7  1  0  0  0  0
  7  8  1  0  0  0  0
  8  9  1  0  0  0  0
  9 10  2  0  0  0  0
 10 11  1  0  0  0  0
 11 12  2  0  0  0  0
 11 13  1  0  0  0  0
 13 14  2  0  0  0  0
  8 14  1  0  0  0  0
 13 15  1  0  0  0  0
 10 16  1  0  0  0  0
M  END
> <DATABASE_ID>
DB09366

> <DATABASE_NAME>
drugbank

> <SMILES>
CCCOC(=O)CN1C=C(I)C(=O)C(I)=C1

> <INCHI_IDENTIFIER>
InChI=1S/C10H11I2NO3/c1-2-3-16-9(14)6-13-4-7(11)10(15)8(12)5-13/h4-5H,2-3,6H2,1H3

> <INCHI_KEY>
ROSXARVHJNYYDO-UHFFFAOYSA-N

> <FORMULA>
C10H11I2NO3

> <MOLECULAR_WEIGHT>
447.011

> <EXACT_MASS>
446.88283

> <JCHEM_ACCEPTOR_COUNT>
3

> <JCHEM_ATOM_COUNT>
27

> <JCHEM_AVERAGE_POLARIZABILITY>
31.19715888374548

> <JCHEM_BIOAVAILABILITY>
1

> <JCHEM_DONOR_COUNT>
0

> <JCHEM_FORMAL_CHARGE>
0

> <JCHEM_GHOSE_FILTER>
1

> <JCHEM_IUPAC>
propyl 2-(3,5-diiodo-4-oxo-1,4-dihydropyridin-1-yl)acetate

> <ALOGPS_LOGP>
2.28

> <JCHEM_LOGP>
3.1313782060000004

> <ALOGPS_LOGS>
-3.27

> <JCHEM_MDDR_LIKE_RULE>
0

> <JCHEM_NUMBER_OF_RINGS>
1

> <JCHEM_PHYSIOLOGICAL_CHARGE>
0

> <JCHEM_PKA_STRONGEST_BASIC>
-7.171762314127285

> <JCHEM_POLAR_SURFACE_AREA>
46.61

> <JCHEM_REFRACTIVITY>
79.73540000000001

> <JCHEM_ROTATABLE_BOND_COUNT>
5

> <JCHEM_RULE_OF_FIVE>
1

> <ALOGPS_SOLUBILITY>
2.38e-01 g/l

> <JCHEM_TRADITIONAL_IUPAC>
propyliodone

> <JCHEM_VEBER_RULE>
0

> <DRUGBANK_ID>
DB09366

> <DRUG_GROUPS>
approved

> <GENERIC_NAME>
Propyliodone

> <SYNONYMS>
Propiliodona; Propiodone; Propyliodone; Propyliodonum

> <INTERNATIONAL_BRANDS>
Dionosil

$$$$
