
  Mrv1909 05201914462D          

 39 43  0  0  1  0            999 V2000
    0.8549    6.3267    0.0000 C   0  0  0  0  0  0  0  0  0  0  0  0
    0.1875    6.8116    0.0000 O   0  0  0  0  0  0  0  0  0  0  0  0
   -0.5662    6.4760    0.0000 C   0  0  2  0  0  0  0  0  0  0  0  0
   -0.7377    5.6691    0.0000 C   0  0  2  0  0  0  0  0  0  0  0  0
   -0.1857    5.0560    0.0000 O   0  0  0  0  0  0  0  0  0  0  0  0
   -0.4406    4.2713    0.0000 P   0  0  0  0  0  0  0  0  0  0  0  0
    0.3440    4.0164    0.0000 S   0  0  0  0  0  0  0  0  0  0  0  0
   -1.2252    4.5263    0.0000 O   0  0  0  0  0  0  0  0  0  0  0  0
   -0.6955    3.4867    0.0000 O   0  0  0  0  0  0  0  0  0  0  0  0
   -0.1435    2.8736    0.0000 C   0  0  0  0  0  0  0  0  0  0  0  0
   -0.3984    2.0890    0.0000 C   0  0  1  0  0  0  0  0  0  0  0  0
    0.0865    1.4216    0.0000 O   0  0  0  0  0  0  0  0  0  0  0  0
   -0.3984    0.7541    0.0000 C   0  0  2  0  0  0  0  0  0  0  0  0
   -1.1831    1.0091    0.0000 C   0  0  0  0  0  0  0  0  0  0  0  0
   -1.1831    1.8341    0.0000 C   0  0  2  0  0  0  0  0  0  0  0  0
   -1.8505    2.3190    0.0000 O   0  0  0  0  0  0  0  0  0  0  0  0
   -0.1435   -0.0305    0.0000 N   0  0  0  0  0  0  0  0  0  0  0  0
   -0.6284   -0.6979    0.0000 C   0  0  0  0  0  0  0  0  0  0  0  0
   -0.1435   -1.3654    0.0000 N   0  0  0  0  0  0  0  0  0  0  0  0
    0.6411   -1.1104    0.0000 C   0  0  0  0  0  0  0  0  0  0  0  0
    0.6411   -0.2854    0.0000 C   0  0  0  0  0  0  0  0  0  0  0  0
    1.3556    0.1271    0.0000 N   0  0  0  0  0  0  0  0  0  0  0  0
    2.0701   -0.2854    0.0000 C   0  0  0  0  0  0  0  0  0  0  0  0
    2.0701   -1.1104    0.0000 N   0  0  0  0  0  0  0  0  0  0  0  0
    1.3556   -1.5229    0.0000 C   0  0  0  0  0  0  0  0  0  0  0  0
    1.3556   -2.3479    0.0000 N   0  0  0  0  0  0  0  0  0  0  0  0
   -1.5582    5.5828    0.0000 C   0  0  1  0  0  0  0  0  0  0  0  0
   -1.9707    4.8683    0.0000 C   0  0  0  0  0  0  0  0  0  0  0  0
   -2.7957    4.8683    0.0000 O   0  0  0  0  0  0  0  0  0  0  0  0
   -1.8937    6.3365    0.0000 O   0  0  0  0  0  0  0  0  0  0  0  0
   -1.2806    6.8885    0.0000 C   0  0  1  0  0  0  0  0  0  0  0  0
   -1.3669    7.7090    0.0000 N   0  0  0  0  0  0  0  0  0  0  0  0
   -2.1205    8.0446    0.0000 C   0  0  0  0  0  0  0  0  0  0  0  0
   -2.2068    8.8650    0.0000 C   0  0  0  0  0  0  0  0  0  0  0  0
   -1.5393    9.3500    0.0000 C   0  0  0  0  0  0  0  0  0  0  0  0
   -1.6256   10.1704    0.0000 O   0  0  0  0  0  0  0  0  0  0  0  0
   -0.7857    9.0144    0.0000 N   0  0  0  0  0  0  0  0  0  0  0  0
   -0.6994    8.1939    0.0000 C   0  0  0  0  0  0  0  0  0  0  0  0
    0.0542    7.8584    0.0000 O   0  0  0  0  0  0  0  0  0  0  0  0
  1  2  1  0  0  0  0
  3  2  1  6  0  0  0
  3  4  1  0  0  0  0
  4  5  1  6  0  0  0
  5  6  1  0  0  0  0
  6  7  1  0  0  0  0
  6  8  2  0  0  0  0
  6  9  1  0  0  0  0
  9 10  1  0  0  0  0
 11 10  1  1  0  0  0
 11 12  1  0  0  0  0
 13 12  1  0  0  0  0
 13 14  1  0  0  0  0
 15 14  1  0  0  0  0
 11 15  1  0  0  0  0
 15 16  1  6  0  0  0
 13 17  1  1  0  0  0
 17 18  1  0  0  0  0
 18 19  2  0  0  0  0
 19 20  1  0  0  0  0
 20 21  2  0  0  0  0
 17 21  1  0  0  0  0
 21 22  1  0  0  0  0
 22 23  2  0  0  0  0
 23 24  1  0  0  0  0
 24 25  2  0  0  0  0
 20 25  1  0  0  0  0
 25 26  1  0  0  0  0
  4 27  1  0  0  0  0
 27 28  1  1  0  0  0
 28 29  1  0  0  0  0
 27 30  1  0  0  0  0
 31 30  1  0  0  0  0
  3 31  1  0  0  0  0
 31 32  1  1  0  0  0
 32 33  1  0  0  0  0
 33 34  2  0  0  0  0
 34 35  1  0  0  0  0
 35 36  2  0  0  0  0
 35 37  1  0  0  0  0
 37 38  1  0  0  0  0
 32 38  1  0  0  0  0
 38 39  2  0  0  0  0
M  END
> <DATABASE_ID>
DB15062

> <DATABASE_NAME>
drugbank

> <SMILES>
CO[C@@H]1[C@H](OP(S)(=O)OC[C@H]2O[C@H](C[C@@H]2O)N2C=NC3=C2N=CN=C3N)[C@@H](CO)O[C@H]1N1C=CC(=O)NC1=O

> <INCHI_IDENTIFIER>
InChI=1S/C20H26N7O10PS/c1-33-16-15(10(5-28)36-19(16)26-3-2-12(30)25-20(26)31)37-38(32,39)34-6-11-9(29)4-13(35-11)27-8-24-14-17(21)22-7-23-18(14)27/h2-3,7-11,13,15-16,19,28-29H,4-6H2,1H3,(H,32,39)(H2,21,22,23)(H,25,30,31)/t9-,10+,11+,13+,15+,16+,19+,38?/m0/s1

> <INCHI_KEY>
LYMICVBGNUEHGE-FUQPUAIBSA-N

> <FORMULA>
C20H26N7O10PS

> <MOLECULAR_WEIGHT>
587.5

> <EXACT_MASS>
587.119948237

> <JCHEM_ACCEPTOR_COUNT>
12

> <JCHEM_ATOM_COUNT>
65

> <JCHEM_AVERAGE_POLARIZABILITY>
54.44074099104697

> <JCHEM_BIOAVAILABILITY>
0

> <JCHEM_DONOR_COUNT>
5

> <JCHEM_FORMAL_CHARGE>
0

> <JCHEM_GHOSE_FILTER>
0

> <JCHEM_IUPAC>
[(2R,3S,5R)-5-(6-amino-9H-purin-9-yl)-3-hydroxyoxolan-2-yl]methyl (2R,3R,4R,5R)-5-(2,4-dioxo-1,2,3,4-tetrahydropyrimidin-1-yl)-2-(hydroxymethyl)-4-methoxyoxolan-3-yl sulfanylphosphonate

> <ALOGPS_LOGP>
-0.60

> <JCHEM_LOGP>
-4.0560322997310365

> <ALOGPS_LOGS>
-2.51

> <JCHEM_MDDR_LIKE_RULE>
1

> <JCHEM_NUMBER_OF_RINGS>
5

> <JCHEM_PHYSIOLOGICAL_CHARGE>
-1

> <JCHEM_PKA>
9.701307113127736

> <JCHEM_PKA_STRONGEST_ACIDIC>
0.9731824449266532

> <JCHEM_PKA_STRONGEST_BASIC>
3.9589247957592963

> <JCHEM_POLAR_SURFACE_AREA>
222.70999999999998

> <JCHEM_REFRACTIVITY>
130.08679999999998

> <JCHEM_ROTATABLE_BOND_COUNT>
9

> <JCHEM_RULE_OF_FIVE>
0

> <ALOGPS_SOLUBILITY>
1.81e+00 g/l

> <JCHEM_TRADITIONAL_IUPAC>
(2R)-14-fluoro-2-methyl-6,9,10,19-tetraazapentacyclo[14.2.1.0^{2,6}.0^{8,18}.0^{12,17}]nonadeca-1(18),8,12(17),13,15-pentaen-11-one

> <JCHEM_VEBER_RULE>
0

> <DRUGBANK_ID>
DB15062

> <DRUG_GROUPS>
investigational

> <GENERIC_NAME>
Inarigivir

$$$$
