
  Mrv1909 02102017442D          

 12 12  0  0  0  0            999 V2000
    0.7145    0.8250    0.0000 O   0  0  0  0  0  0  0  0  0  0  0  0
    0.0000    0.4125    0.0000 C   0  0  0  0  0  0  0  0  0  0  0  0
   -0.7145   -0.8250    0.0000 C   0  0  0  0  0  0  0  0  0  0  0  0
   -1.4289    0.4125    0.0000 C   0  0  0  0  0  0  0  0  0  0  0  0
   -0.7145    0.8250    0.0000 C   0  0  0  0  0  0  0  0  0  0  0  0
    0.0000   -0.4125    0.0000 C   0  0  0  0  0  0  0  0  0  0  0  0
    0.7145   -0.8250    0.0000 C   0  0  0  0  0  0  0  0  0  0  0  0
   -1.4289   -0.4125    0.0000 C   0  0  0  0  0  0  0  0  0  0  0  0
    1.4289    0.4125    0.0000 O   0  0  0  0  0  0  0  0  0  0  0  0
    1.4289   -0.4125    0.0000 C   0  0  0  0  0  0  0  0  0  0  0  0
   -2.1434   -0.8250    0.0000 O   0  0  0  0  0  0  0  0  0  0  0  0
    2.1434   -0.8250    0.0000 O   0  0  0  0  0  0  0  0  0  0  0  0
  2  1  1  0  0  0  0
  5  2  2  0  0  0  0
  4  5  1  0  0  0  0
  6  2  1  0  0  0  0
  3  6  2  0  0  0  0
  7  6  1  0  0  0  0
  8  4  2  0  0  0  0
  3  8  1  0  0  0  0
  8 11  1  0  0  0  0
  9 10  2  0  0  0  0
  7 10  1  0  0  0  0
 10 12  1  0  0  0  0
M  END
> <DATABASE_ID>
DB08327

> <DATABASE_NAME>
drugbank

> <SMILES>
OC(=O)CC1=CC(O)=CC=C1O

> <INCHI_IDENTIFIER>
InChI=1S/C8H8O4/c9-6-1-2-7(10)5(3-6)4-8(11)12/h1-3,9-10H,4H2,(H,11,12)

> <INCHI_KEY>
IGMNYECMUMZDDF-UHFFFAOYSA-N

> <FORMULA>
C8H8O4

> <MOLECULAR_WEIGHT>
168.1467

> <EXACT_MASS>
168.042258744

> <JCHEM_ACCEPTOR_COUNT>
4

> <JCHEM_ATOM_COUNT>
20

> <JCHEM_AVERAGE_NEUTRAL_MICROSPECIES_CHARGE>
-1.0023986916816066

> <JCHEM_AVERAGE_POLARIZABILITY>
15.568374170369944

> <JCHEM_BIOAVAILABILITY>
1

> <JCHEM_DONOR_COUNT>
3

> <JCHEM_FORMAL_CHARGE>
0

> <JCHEM_GHOSE_FILTER>
1

> <JCHEM_IUPAC>
2-(2,5-dihydroxyphenyl)acetic acid

> <ALOGPS_LOGP>
0.81

> <JCHEM_LOGP>
1.0038634619999998

> <ALOGPS_LOGS>
-1.32

> <JCHEM_MDDR_LIKE_RULE>
0

> <JCHEM_NEUTRAL_CHARGE>
-1

> <JCHEM_NUMBER_OF_RINGS>
1

> <JCHEM_PHYSIOLOGICAL_CHARGE>
-1

> <JCHEM_PKA>
9.566007893833087

> <JCHEM_PKA_STRONGEST_ACIDIC>
3.57380421430248

> <JCHEM_PKA_STRONGEST_BASIC>
-5.8957883775917175

> <JCHEM_POLAR_SURFACE_AREA>
77.75999999999999

> <JCHEM_REFRACTIVITY>
41.3274

> <JCHEM_ROTATABLE_BOND_COUNT>
2

> <JCHEM_RULE_OF_FIVE>
1

> <ALOGPS_SOLUBILITY>
8.10e+00 g/l

> <JCHEM_TRADITIONAL_IUPAC>
9-hydroxyminocycline

> <JCHEM_VEBER_RULE>
0

> <DRUGBANK_ID>
DB08327

> <DRUG_GROUPS>
experimental

> <GENERIC_NAME>
Homogentisic acid

> <SYNONYMS>
2,5-Dihydroxyphenylacetic acid; Homogentisate acid; Homogentisic acid; Homogentisinic acid

$$$$
