
  Mrv1652305301723412D          

 24 24  0  0  1  0            999 V2000
    6.3118  -19.5337    0.0000 C   0  0  0  0  0  0  0  0  0  0  0  0
    5.0420  -19.9453    0.0000 C   0  0  0  0  0  0  0  0  0  0  0  0
    6.3112  -20.3587    0.0000 C   0  0  0  0  0  0  0  0  0  0  0  0
    5.5265  -20.6131    0.0000 C   0  0  0  0  0  0  0  0  0  0  0  0
    7.0252  -19.1195    0.0000 C   0  0  0  0  0  0  0  0  0  0  0  0
    7.0258  -20.7709    0.0000 C   0  0  0  0  0  0  0  0  0  0  0  0
    7.7401  -20.3581    0.0000 C   0  0  0  0  0  0  0  0  0  0  0  0
    9.1691  -20.3576    0.0000 C   0  0  0  0  0  0  0  0  0  0  0  0
    9.8838  -20.7698    0.0000 C   0  0  0  0  0  0  0  0  0  0  0  0
   10.5980  -20.3570    0.0000 C   0  0  0  0  0  0  0  0  0  0  0  0
   11.3126  -20.7692    0.0000 C   0  0  0  0  0  0  0  0  0  0  0  0
   12.0270  -20.3564    0.0000 C   0  0  0  0  0  0  0  0  0  0  0  0
    8.4548  -20.7703    0.0000 C   0  0  2  0  0  0  0  0  0  0  0  0
    8.4548  -21.5953    0.0000 O   0  0  0  0  0  0  0  0  0  0  0  0
    5.5273  -19.2782    0.0000 C   0  0  0  0  0  0  0  0  0  0  0  0
    5.3138  -18.4814    0.0000 O   0  0  0  0  0  0  0  0  0  0  0  0
    9.9150  -16.6831    0.0000 C   0  0  0  0  0  0  0  0  0  0  0  0
   10.6232  -17.1080    0.0000 O   0  0  0  0  0  0  0  0  0  0  0  0
    7.7335  -19.5445    0.0000 C   0  0  0  0  0  0  0  0  0  0  0  0
    8.4701  -19.1478    0.0000 C   0  0  0  0  0  0  0  0  0  0  0  0
    9.9256  -15.8713    0.0000 O   0  0  0  0  0  0  0  0  0  0  0  0
    9.2067  -17.0797    0.0000 C   0  0  0  0  0  0  0  0  0  0  0  0
    8.4701  -18.3263    0.0000 C   0  0  0  0  0  0  0  0  0  0  0  0
    9.2067  -17.9296    0.0000 C   0  0  0  0  0  0  0  0  0  0  0  0
  1 15  1  0  0  0  0
 15  2  1  0  0  0  0
  3  1  2  0  0  0  0
  4  2  1  0  0  0  0
  4  3  1  0  0  0  0
  1  5  1  0  0  0  0
  3  6  1  0  0  0  0
  7  6  2  0  0  0  0
 13  7  1  0  0  0  0
  8 13  1  0  0  0  0
  9  8  1  0  0  0  0
 10  9  1  0  0  0  0
 11 10  1  0  0  0  0
 12 11  1  0  0  0  0
 13 14  1  6  0  0  0
 15 16  2  0  0  0  0
 22 17  1  0  0  0  0
 18 17  1  0  0  0  0
 21 17  2  0  0  0  0
  5 19  1  0  0  0  0
 20 19  2  0  0  0  0
 23 20  1  0  0  0  0
 24 22  1  0  0  0  0
 24 23  1  0  0  0  0
M  END
> <DATABASE_ID>
DB02304

> <DATABASE_NAME>
drugbank

> <SMILES>
CCCCC[C@H](O)\C=C\C1=C(C\C=C/CCCC(O)=O)C(=O)CC1

> <INCHI_IDENTIFIER>
InChI=1S/C20H30O4/c1-2-3-6-9-17(21)14-12-16-13-15-19(22)18(16)10-7-4-5-8-11-20(23)24/h4,7,12,14,17,21H,2-3,5-6,8-11,13,15H2,1H3,(H,23,24)/b7-4-,14-12+/t17-/m0/s1

> <INCHI_KEY>
PRFXRIUZNKLRHM-HKVRTXJWSA-N

> <FORMULA>
C20H30O4

> <MOLECULAR_WEIGHT>
334.456

> <EXACT_MASS>
334.214409446

> <JCHEM_ACCEPTOR_COUNT>
4

> <JCHEM_ATOM_COUNT>
54

> <JCHEM_AVERAGE_POLARIZABILITY>
39.32241125285137

> <JCHEM_BIOAVAILABILITY>
1

> <JCHEM_DONOR_COUNT>
2

> <JCHEM_FORMAL_CHARGE>
0

> <JCHEM_GHOSE_FILTER>
1

> <JCHEM_IUPAC>
(5Z)-7-{2-[(1E,3S)-3-hydroxyoct-1-en-1-yl]-5-oxocyclopent-1-en-1-yl}hept-5-enoic acid

> <ALOGPS_LOGP>
4.07

> <JCHEM_LOGP>
4.18485735

> <ALOGPS_LOGS>
-4.05

> <JCHEM_MDDR_LIKE_RULE>
0

> <JCHEM_NUMBER_OF_RINGS>
1

> <JCHEM_PHYSIOLOGICAL_CHARGE>
-1

> <JCHEM_PKA>
17.769121310332174

> <JCHEM_PKA_STRONGEST_ACIDIC>
4.25375476006069

> <JCHEM_PKA_STRONGEST_BASIC>
-1.587391578492345

> <JCHEM_POLAR_SURFACE_AREA>
74.6

> <JCHEM_REFRACTIVITY>
98.60589999999998

> <JCHEM_ROTATABLE_BOND_COUNT>
12

> <JCHEM_RULE_OF_FIVE>
1

> <ALOGPS_SOLUBILITY>
2.99e-02 g/l

> <JCHEM_TRADITIONAL_IUPAC>
prostaglandin B2

> <JCHEM_VEBER_RULE>
0

> <DRUGBANK_ID>
DB02304

> <SECONDARY_ACCESSION_NUMBERS>
EXPT01314

> <DRUG_GROUPS>
experimental

> <GENERIC_NAME>
Prostaglandin B2

$$$$
