
  Mrv1909 04132016112D          

 67 75  0  0  0  0            999 V2000
   -2.3544    0.5462    0.0000 C   0  0  0  0  0  0  0  0  0  0  0  0
   -2.4413    1.3724    0.0000 C   0  0  0  0  0  0  0  0  0  0  0  0
   -3.1929    1.7059    0.0000 C   0  0  0  0  0  0  0  0  0  0  0  0
   -3.3647    2.5139    0.0000 C   0  0  0  0  0  0  0  0  0  0  0  0
   -4.1869    2.5995    0.0000 N   0  0  0  0  0  0  0  0  0  0  0  0
   -4.5246    1.8479    0.0000 C   0  0  0  0  0  0  0  0  0  0  0  0
   -3.9072    1.2946    0.0000 N   0  0  0  0  0  0  0  0  0  0  0  0
   -1.7719    1.8526    0.0000 C   0  0  0  0  0  0  0  0  0  0  0  0
   -1.0223    1.5155    0.0000 C   0  0  0  0  0  0  0  0  0  0  0  0
   -0.9361    0.6946    0.0000 C   0  0  0  0  0  0  0  0  0  0  0  0
   -1.6024    0.2130    0.0000 C   0  0  0  0  0  0  0  0  0  0  0  0
   -0.1272    0.5253    0.0000 N   0  0  0  0  0  0  0  0  0  0  0  0
    0.2835    1.2401    0.0000 C   0  0  0  0  0  0  0  0  0  0  0  0
   -0.2665    1.8493    0.0000 C   0  0  0  0  0  0  0  0  0  0  0  0
    1.1105    1.2401    0.0000 C   0  0  0  0  0  0  0  0  0  0  0  0
    1.5246    1.9513    0.0000 C   0  0  0  0  0  0  0  0  0  0  0  0
    2.3474    1.9512    0.0000 C   0  0  0  0  0  0  0  0  0  0  0  0
    2.7629    1.2440    0.0000 C   0  0  0  0  0  0  0  0  0  0  0  0
    2.3503    0.5249    0.0000 C   0  0  0  0  0  0  0  0  0  0  0  0
    1.5223    0.5249    0.0000 C   0  0  0  0  0  0  0  0  0  0  0  0
    1.1114   -0.1897    0.0000 O   0  0  0  0  0  0  0  0  0  0  0  0
    0.2843   -0.1897    0.0000 C   0  0  1  0  0  0  0  0  0  0  0  0
    3.5788    1.3298    0.0000 C   0  0  0  0  0  0  0  0  0  0  0  0
    4.1336    0.7127    0.0000 N   0  0  0  0  0  0  0  0  0  0  0  0
    4.8837    1.0502    0.0000 C   0  0  0  0  0  0  0  0  0  0  0  0
    4.7975    1.8701    0.0000 N   0  0  0  0  0  0  0  0  0  0  0  0
    3.9941    2.0397    0.0000 C   0  0  0  0  0  0  0  0  0  0  0  0
   -0.1286   -0.9040    0.0000 C   0  0  0  0  0  0  0  0  0  0  0  0
    0.2834   -1.6188    0.0000 C   0  0  0  0  0  0  0  0  0  0  0  0
   -0.9538   -0.9034    0.0000 C   0  0  0  0  0  0  0  0  0  0  0  0
   -0.1296   -2.3331    0.0000 C   0  0  0  0  0  0  0  0  0  0  0  0
   -1.3668   -1.6177    0.0000 C   0  0  0  0  0  0  0  0  0  0  0  0
   -0.9547   -2.3325    0.0000 C   0  0  0  0  0  0  0  0  0  0  0  0
    5.5991    0.6391    0.0000 C   0  0  2  0  0  0  0  0  0  0  0  0
    6.3521    0.9762    0.0000 C   0  0  0  0  0  0  0  0  0  0  0  0
    5.6870   -0.1812    0.0000 N   0  0  0  0  0  0  0  0  0  0  0  0
    6.9056    0.3642    0.0000 C   0  0  0  0  0  0  0  0  0  0  0  0
    6.4945   -0.3511    0.0000 C   0  0  0  0  0  0  0  0  0  0  0  0
    5.0755   -0.7341    0.0000 C   0  0  0  0  0  0  0  0  0  0  0  0
    4.2908   -0.4809    0.0000 O   0  0  0  0  0  0  0  0  0  0  0  0
    5.2485   -1.5402    0.0000 C   0  0  1  0  0  0  0  0  0  0  0  0
    4.6369   -2.0930    0.0000 N   0  0  0  0  0  0  0  0  0  0  0  0
    3.8517   -1.8397    0.0000 C   0  0  0  0  0  0  0  0  0  0  0  0
    3.6785   -1.0330    0.0000 O   0  0  0  0  0  0  0  0  0  0  0  0
    3.2396   -2.3929    0.0000 O   0  0  0  0  0  0  0  0  0  0  0  0
    2.4545   -2.1396    0.0000 C   0  0  0  0  0  0  0  0  0  0  0  0
    6.0331   -1.7934    0.0000 C   0  0  0  0  0  0  0  0  0  0  0  0
    6.2062   -2.5995    0.0000 C   0  0  0  0  0  0  0  0  0  0  0  0
    6.6446   -1.2405    0.0000 C   0  0  0  0  0  0  0  0  0  0  0  0
    5.5935    1.5014    0.0000 H   0  0  0  0  0  0  0  0  0  0  0  0
   -5.3317    1.6768    0.0000 C   0  0  1  0  0  0  0  0  0  0  0  0
   -5.6677    0.9233    0.0000 N   0  0  0  0  0  0  0  0  0  0  0  0
   -5.9446    2.2292    0.0000 C   0  0  0  0  0  0  0  0  0  0  0  0
   -6.4882    1.0099    0.0000 C   0  0  0  0  0  0  0  0  0  0  0  0
   -6.6594    1.8169    0.0000 C   0  0  0  0  0  0  0  0  0  0  0  0
   -5.2559    0.2090    0.0000 C   0  0  0  0  0  0  0  0  0  0  0  0
   -5.6685   -0.5047    0.0000 C   0  0  2  0  0  0  0  0  0  0  0  0
   -4.4315    0.2086    0.0000 O   0  0  0  0  0  0  0  0  0  0  0  0
   -6.4929   -0.5042    0.0000 C   0  0  0  0  0  0  0  0  0  0  0  0
   -6.9048    0.2099    0.0000 C   0  0  0  0  0  0  0  0  0  0  0  0
   -6.9056   -1.2180    0.0000 C   0  0  0  0  0  0  0  0  0  0  0  0
   -5.2566   -1.2188    0.0000 N   0  0  0  0  0  0  0  0  0  0  0  0
   -4.4316   -1.2192    0.0000 C   0  0  0  0  0  0  0  0  0  0  0  0
   -4.0186   -0.5050    0.0000 O   0  0  0  0  0  0  0  0  0  0  0  0
   -4.0195   -1.9341    0.0000 O   0  0  0  0  0  0  0  0  0  0  0  0
   -3.1943   -1.9345    0.0000 C   0  0  0  0  0  0  0  0  0  0  0  0
   -5.2690    2.4975    0.0000 H   0  0  0  0  0  0  0  0  0  0  0  0
  1  2  1  0  0  0  0
  2  3  1  0  0  0  0
  4  3  2  0  0  0  0
  4  5  1  0  0  0  0
  5  6  2  0  0  0  0
  6  7  1  0  0  0  0
  7  3  1  0  0  0  0
  2  8  2  0  0  0  0
  8  9  1  0  0  0  0
  9 10  2  0  0  0  0
 10 11  1  0  0  0  0
 11  1  2  0  0  0  0
 10 12  1  0  0  0  0
 13 12  1  0  0  0  0
 14 13  2  0  0  0  0
  9 14  1  0  0  0  0
 13 15  1  0  0  0  0
 15 16  1  0  0  0  0
 17 16  2  0  0  0  0
 18 17  1  0  0  0  0
 19 18  2  0  0  0  0
 20 19  1  0  0  0  0
 20 15  2  0  0  0  0
 21 20  1  0  0  0  0
 22 21  1  0  0  0  0
 12 22  1  0  0  0  0
 18 23  1  0  0  0  0
 24 23  1  0  0  0  0
 24 25  1  0  0  0  0
 25 26  2  0  0  0  0
 26 27  1  0  0  0  0
 27 23  2  0  0  0  0
 29 28  1  0  0  0  0
 30 28  2  0  0  0  0
 31 29  2  0  0  0  0
 32 30  1  0  0  0  0
 33 31  1  0  0  0  0
 33 32  2  0  0  0  0
 22 28  1  1  0  0  0
 35 34  1  0  0  0  0
 36 34  1  0  0  0  0
 37 35  1  0  0  0  0
 38 36  1  0  0  0  0
 38 37  1  0  0  0  0
 25 34  1  0  0  0  0
 36 39  1  0  0  0  0
 39 40  2  0  0  0  0
 39 41  1  0  0  0  0
 41 42  1  0  0  0  0
 44 43  2  0  0  0  0
 45 43  1  0  0  0  0
 46 45  1  0  0  0  0
 42 43  1  0  0  0  0
 41 47  1  6  0  0  0
 47 48  1  0  0  0  0
 47 49  1  0  0  0  0
 34 50  1  1  0  0  0
 52 51  1  0  0  0  0
 53 51  1  0  0  0  0
 54 52  1  0  0  0  0
 55 53  1  0  0  0  0
 55 54  1  0  0  0  0
  6 51  1  0  0  0  0
 52 56  1  0  0  0  0
 56 57  1  0  0  0  0
 56 58  2  0  0  0  0
 57 59  1  1  0  0  0
 59 60  1  0  0  0  0
 59 61  1  0  0  0  0
 57 62  1  0  0  0  0
 64 63  2  0  0  0  0
 65 63  1  0  0  0  0
 66 65  1  0  0  0  0
 62 63  1  0  0  0  0
 51 67  1  6  0  0  0
M  END
> <DATABASE_ID>
DB11574

> <DATABASE_NAME>
drugbank

> <SMILES>
[H][C@]1(CCCN1C(=O)[C@@H](NC(=O)OC)C(C)C)C1=NC=C(N1)C1=CC2=C(C=C1)N1[C@@H](OC3=C(C=CC(=C3)C3=CN=C(N3)[C@]3([H])CCCN3C(=O)[C@@H](NC(=O)OC)C(C)C)C1=C2)C1=CC=CC=C1

> <INCHI_IDENTIFIER>
InChI=1S/C49H55N9O7/c1-27(2)41(54-48(61)63-5)45(59)56-20-10-14-37(56)43-50-25-34(52-43)30-17-19-36-32(22-30)23-39-33-18-16-31(24-40(33)65-47(58(36)39)29-12-8-7-9-13-29)35-26-51-44(53-35)38-15-11-21-57(38)46(60)42(28(3)4)55-49(62)64-6/h7-9,12-13,16-19,22-28,37-38,41-42,47H,10-11,14-15,20-21H2,1-6H3,(H,50,52)(H,51,53)(H,54,61)(H,55,62)/t37-,38-,41-,42-,47-/m0/s1

> <INCHI_KEY>
BVAZQCUMNICBAQ-PZHYSIFUSA-N

> <FORMULA>
C49H55N9O7

> <MOLECULAR_WEIGHT>
882.035

> <EXACT_MASS>
881.422445147

> <JCHEM_ACCEPTOR_COUNT>
7

> <JCHEM_ATOM_COUNT>
120

> <JCHEM_AVERAGE_NEUTRAL_MICROSPECIES_CHARGE>
2.000294838948297

> <JCHEM_AVERAGE_POLARIZABILITY>
100.14531134299966

> <JCHEM_BIOAVAILABILITY>
0

> <JCHEM_DONOR_COUNT>
4

> <JCHEM_FORMAL_CHARGE>
0

> <JCHEM_GHOSE_FILTER>
0

> <JCHEM_IUPAC>
methyl N-[(2S)-1-[(2S)-2-{5-[(9S)-14-{2-[(2S)-1-[(2S)-2-[(methoxycarbonyl)amino]-3-methylbutanoyl]pyrrolidin-2-yl]-1H-imidazol-5-yl}-9-phenyl-8-oxa-10-azatetracyclo[8.7.0.0^{2,7}.0^{11,16}]heptadeca-1(17),2(7),3,5,11(16),12,14-heptaen-5-yl]-1H-imidazol-2-yl}pyrrolidin-1-yl]-3-methyl-1-oxobutan-2-yl]carbamate

> <ALOGPS_LOGP>
5.60

> <JCHEM_LOGP>
6.14053560633333

> <ALOGPS_LOGS>
-5.29

> <JCHEM_MDDR_LIKE_RULE>
1

> <JCHEM_NEUTRAL_CHARGE>
0

> <JCHEM_NUMBER_OF_RINGS>
9

> <JCHEM_PHYSIOLOGICAL_CHARGE>
0

> <JCHEM_PKA>
11.703025669180528

> <JCHEM_PKA_STRONGEST_ACIDIC>
11.106176822101656

> <JCHEM_PKA_STRONGEST_BASIC>
6.0593611017339555

> <JCHEM_POLAR_SURFACE_AREA>
188.79999999999998

> <JCHEM_REFRACTIVITY>
241.52390000000008

> <JCHEM_ROTATABLE_BOND_COUNT>
13

> <JCHEM_RULE_OF_FIVE>
0

> <ALOGPS_SOLUBILITY>
4.57e-03 g/l

> <JCHEM_TRADITIONAL_IUPAC>
methyl N-[(2S)-1-[(2S)-2-{4-[(9S)-14-{2-[(2S)-1-[(2S)-2-[(methoxycarbonyl)amino]-3-methylbutanoyl]pyrrolidin-2-yl]-3H-imidazol-4-yl}-9-phenyl-8-oxa-10-azatetracyclo[8.7.0.0^{2,7}.0^{11,16}]heptadeca-1(17),2(7),3,5,11(16),12,14-heptaen-5-yl]-3H-imidazol-2-yl}pyrrolidin-1-yl]-3-methyl-1-oxobutan-2-yl]carbamate

> <JCHEM_VEBER_RULE>
0

> <DRUGBANK_ID>
DB11574

> <DRUG_GROUPS>
approved

> <GENERIC_NAME>
Elbasvir

> <SYNONYMS>
Elbasvir

> <PRODUCTS>
Zepatier

$$$$
