
  Mrv1652306131722032D          

 22 22  0  0  0  0            999 V2000
    5.0013  -10.3125    0.0000 C   0  0  0  0  0  0  0  0  0  0  0  0
    5.7158   -9.9000    0.0000 C   0  0  0  0  0  0  0  0  0  0  0  0
    6.4302  -10.3125    0.0000 C   0  0  0  0  0  0  0  0  0  0  0  0
    7.1447   -9.9000    0.0000 C   0  0  0  0  0  0  0  0  0  0  0  0
    7.8592  -10.3125    0.0000 C   0  0  0  0  0  0  0  0  0  0  0  0
    8.5737   -9.9000    0.0000 C   0  0  0  0  0  0  0  0  0  0  0  0
    9.2881  -10.3125    0.0000 C   0  0  0  0  0  0  0  0  0  0  0  0
   10.0026   -9.9000    0.0000 C   0  0  0  0  0  0  0  0  0  0  0  0
   10.7171  -10.3125    0.0000 C   0  0  0  0  0  0  0  0  0  0  0  0
   11.4315   -9.9000    0.0000 C   0  0  0  0  0  0  0  0  0  0  0  0
   12.1460  -10.3125    0.0000 C   0  0  0  0  0  0  0  0  0  0  0  0
   12.8605   -9.9000    0.0000 C   0  0  0  0  0  0  0  0  0  0  0  0
   13.5749  -10.3125    0.0000 C   0  0  0  0  0  0  0  0  0  0  0  0
   14.2894   -9.9000    0.0000 C   0  0  0  0  0  0  0  0  0  0  0  0
   15.0039  -10.3125    0.0000 C   0  0  0  0  0  0  0  0  0  0  0  0
   15.7184   -9.9000    0.0000 C   0  0  0  0  0  0  0  0  0  0  0  0
   16.4328  -10.3125    0.0000 N   0  3  0  0  0  0  0  0  0  0  0  0
   17.1473   -9.9000    0.0000 C   0  0  0  0  0  0  0  0  0  0  0  0
   17.8618  -10.3125    0.0000 C   0  0  0  0  0  0  0  0  0  0  0  0
   17.8618  -11.1375    0.0000 C   0  0  0  0  0  0  0  0  0  0  0  0
   17.1473  -11.5500    0.0000 C   0  0  0  0  0  0  0  0  0  0  0  0
   16.4328  -11.1375    0.0000 C   0  0  0  0  0  0  0  0  0  0  0  0
  1  2  1  0  0  0  0
  2  3  1  0  0  0  0
  3  4  1  0  0  0  0
  4  5  1  0  0  0  0
  5  6  1  0  0  0  0
  6  7  1  0  0  0  0
  7  8  1  0  0  0  0
  8  9  1  0  0  0  0
  9 10  1  0  0  0  0
 10 11  1  0  0  0  0
 11 12  1  0  0  0  0
 12 13  1  0  0  0  0
 13 14  1  0  0  0  0
 14 15  1  0  0  0  0
 15 16  1  0  0  0  0
 16 17  1  0  0  0  0
 17 18  2  0  0  0  0
 18 19  1  0  0  0  0
 19 20  2  0  0  0  0
 20 21  1  0  0  0  0
 21 22  2  0  0  0  0
 17 22  1  0  0  0  0
M  CHG  1  17   1
M  END
> <DATABASE_ID>
DB11073

> <DATABASE_NAME>
drugbank

> <SMILES>
CCCCCCCCCCCCCCCC[N+]1=CC=CC=C1

> <INCHI_IDENTIFIER>
InChI=1S/C21H38N/c1-2-3-4-5-6-7-8-9-10-11-12-13-14-16-19-22-20-17-15-18-21-22/h15,17-18,20-21H,2-14,16,19H2,1H3/q+1

> <INCHI_KEY>
NEUSVAOJNUQRTM-UHFFFAOYSA-N

> <FORMULA>
C21H38N

> <MOLECULAR_WEIGHT>
304.541

> <EXACT_MASS>
304.299876648

> <JCHEM_ACCEPTOR_COUNT>
0

> <JCHEM_ATOM_COUNT>
60

> <JCHEM_AVERAGE_POLARIZABILITY>
42.21159267197228

> <JCHEM_BIOAVAILABILITY>
1

> <JCHEM_DONOR_COUNT>
0

> <JCHEM_FORMAL_CHARGE>
1

> <JCHEM_GHOSE_FILTER>
1

> <JCHEM_IUPAC>
1-hexadecylpyridin-1-ium

> <ALOGPS_LOGP>
3.18

> <JCHEM_LOGP>
3.4709280238615885

> <ALOGPS_LOGS>
-7.72

> <JCHEM_MDDR_LIKE_RULE>
0

> <JCHEM_NUMBER_OF_RINGS>
1

> <JCHEM_PHYSIOLOGICAL_CHARGE>
1

> <JCHEM_POLAR_SURFACE_AREA>
3.88

> <JCHEM_REFRACTIVITY>
99.1421

> <JCHEM_ROTATABLE_BOND_COUNT>
15

> <JCHEM_RULE_OF_FIVE>
1

> <ALOGPS_SOLUBILITY>
6.53e-06 g/l

> <JCHEM_TRADITIONAL_IUPAC>
cetylpyridinium

> <JCHEM_VEBER_RULE>
0

> <DRUGBANK_ID>
DB11073

> <SECONDARY_ACCESSION_NUMBERS>
DB05748

> <DRUG_GROUPS>
approved

> <GENERIC_NAME>
Cetylpyridinium

> <SYNONYMS>
1-hexadecylpyridinium

> <PRODUCTS>
(badiful) Antibacterial Wipes; ACT Advanced Care Plaque Guard Antigingivitis Antiplaque Clean Mint; ACT Advanced Care Plaque Guard Antigingivitis Antiplaque Frosted Mint; Actisep; Advanced Guard; Alcohol Free; Alcohol Free Antiseptic; Alcohol Free Antiseptic Oral; Alcohol Wet Tissue; Alcohol Wipes; Antibiotic Lozenges; Antigingivitis/Antiplaque; Antiplaque solution; Antiseptic; Antiseptic Hand Wipes; Antiseptic Night Rinse; Antiseptic Oral Rinse; Antiseptic Oral Rinse With Cpc; Antispetic; Assured Oral Health Fresh Mint; Aurora Alcohol Free Clean Mint; Balminil Loz; Beyond Antiseptic Mouthwash; BioShell; BioShell Oral Antiseptic; Breath mellow Azalea Peach; Breath mellow Water Lily; BreathAway Mouth Rinse Cinnamon; BreathAway Mouth Rinse Fresh Mint; BreathRx with Zytex; CPH Anti-bacterial Breath Mist; CVS Antiseptic; CVS Complete Care Anticavity Mouthwash; Cart Cleaning Wipes; Cepacol Antibacterial; Cepacol Antiseptic Lozenges; Cepacol Cherry Lozenges 1.4mg; Cepacol Citrus Extra Strength Lozenges; Cepacol Extra Strength Lozenge; Cepacol Extra Strength Orange Citrus Lozenge; Cepacol Honey Lemon Lozenges 1.4mg; Cepacol Mouthwash With Fluoride; Cepacol Mouthwash/gargle; Cepacol Peppermint Mouthwash With Fluoride; Cepacol Sore Throat Extra Strength Sucrose-free Lozenge (cherry Flavour); Cetylpyridinium Chloride Antiseptic Oral Rinse 0.07 % W/w; CleanZing; Colgate Antigingivitis Antiplaque Total; Colgate Simply Fresh Mint; Colgate Swish Invigorating Mint; Colgate Swish Mild Mint; Colgate Swish Refreshing Mint; Colgate Total; Colgate Total 12 Hr Pro-Shield Spearmint Surge; Colgate Total 12Hr Pro-Shield Peppermint Blast; Colgate Total 12h Pro-shield; Colgate Total Advanced Gum Health Mouthwash; Colgate Total Advanced Pro-Shield Peppermint Blast; Colgate Total Advanced Pro-Shield Spearmint Surge; Colgate Total Advanced Pro-Shield Wintermint Rush; Colgate Total Freshmint; Colgate Total Gentle Care Softmint; Colgate Total Gum Health; Colgate Total Peppermint; Colgate Total Ultra Fresh; Colgate Total Whitening Sparklemint; Colgate Zero Fresh Breath; Colgate Zero Healthy Gums; Corinz; Crest Gum Care; Crest Pro Health; Crest Pro Health Gum plus Bacteria Guard; Crest Pro-Health; Crest Pro-Health Advantage; Crest Pro-Health Bacteria Guard; Crest Pro-Health Breath Purify and Gum Care; Crest Pro-Health Clinical; Crest Pro-Health For Life; Crest Pro-Health Germ Guard; Crest Pro-Health Gum Care; Crest Pro-Health Gum and Breath Purify; Crest Pro-Health Intense Clean Mint; Crest Pro-Health Intense Fresh Mint; Crest Pro-Health Multi-Protection Refreshing Clean Mint; Crest Pro-Health Pro Active Defense Whole Mouth Clean; Crest Pro-health Gum & Breath Purify; Crest Pro-health Invigorating Clean Multi-protection; Crest Pro-health Multi Protection; Crest Pro-health for Life Multi-protection; Daily Oral Cleansing Kit Petite Size with Antiseptic Oral Rinse; Denti Whoo Bubble Concentrated Gargle; Discount Drug Mart Mint Mouthwash; Disinfect Wipes; Disinfectant Wipes; Disinfectant wet wipe; Disinfecting Wipes; Double X CONCENTRATED; Dr. Protector; Duble X Concentration Gargle Liquid; DuoCare Clinical Oral Rinse; E-zen Gargle; Emerald Mint Health; Emercol Loz; Emercreme No4 Ont Efa; Emereze Plus Loz 1.34mg; Equaline Multi-Action Antiseptic; Exoden Powder; Extra Strength Cepacol Sore Throat; Family Wellness Total Health; Fixodent Gum Care; Fluoride Mouthwash; G.U.m; Green Antiseptic Mwh & Gargle; Health; Hello peace out, plaque antigingivitis; Hyvee Pro Clean Blue Mint; Kalaya Breath Refresh; Kank-A; Killfire mouth freshener; Kimvent Oral Care Q4 Kit; Kimvent Oral Care Toothbrush pack; Lander Orl Hygienic Mwh and Gargle; Laryngets Loz; Mastikis fresh gargle; Maximuim Strength; Mint; Mint Alcohol Free; Mouth Fresh; Mouth Rinse 0.05%; Mouthwash; Mouthwash 0.05%; Mouthwash and Gargle; Multi-Action Antiseptic; Niguo Disinfectant wipes-80 Sheets; Olio Activ Mouthwash Cinnamon; Olio Activ Mouthwash Freshmint; Olio Activ Mouthwash Spearmint; OptiRinse Plus; Orajle Anti-Bacterial Rinse for Bleeding Gums; Oral B Anti-bacterial With Fluoride; Oral B Gum Detoxify Special Care Rinse; Oral B Plaque Defense Special Care Oral Rinse; Oral Care Q4 Kit; Oral Cleansing and Suctioning System, Q2; Oral Defense; Oral Plan Antibacterial Mouthrinse With Fluoride; Oral-B Anti-Bacterial; Oral-B Anti-bacterial With Fluoride; Oral-B Antibacterial With Fluoride Alc.free; Oral-B Gum Therapy; Orasep; Parodontax Active Gum Health Clear Mint; Parodontax Active Gum Health Mint; Pastilles Antiseptiques Jener; Pastilles Merol; Pearlie White; PerCara Oral Health Rinse Fresh Mint; Pulmosirum Pastille; Puricia Sanitizing Wipes ( Blossom); Puricia Sanitizing Wipes (Citrus); Puricia Sanitizing Wipes (Lavender); Puricia Sanitizing Wipes (Mint); QCare; QCare Oral Cleansing and Suctioning System Q2; QCare Oral Cleansing and Suctioning System Q4 Antiseptic Oral Rinse; QCare Oral Cleansing and Suctioning System compatible with 0.12% Chlorhexidine Gluconate (CHG) Oral Rinse; QCare Oral Cleansing and Suctioning System, Q2; QCare Oral Cleansing and Suctioning System, Q4; QCare Oral Cleansing and Suctioning System, Q8; QCare Oral Cleansing and Suctioning System, q2; QCare Petite Size Oral Cleansing and Suctioning System; QCare Rx Oral Cleansing and Suctioning System; QCare Rx Petite Oral Cleansing and Suctioning System; Qcare Oral Cleansing and Suctioning System; Quality Choice Mint; Reach Anti Plaque; ReddyPort Antiplaque Solution; ReddyPort NIV Maintenance Kit; Rince Bouche Antiseptique; Roccos Old School Peircing Armor; Sanitize/Disinfect Wipes; Sarina Antiseptic; Scope All Day CPC Antigingivitis/Antiplaque Mouthwash All Day; Scope Get Fresh CPC Antigingivitis/Antiplaque Mouthwash; Shopko Alcohol Free Multi Action; Short Term Oral Swab System; Single Use System with Antiseptic Oral Rinse and Mouth Moisturizer; Skin Antisepsis, Oral Cleansing and Nasal Antisepsis System; Smart Sense Alcohol Free; SmartMouth Advance Clinical DDS Formula Mint; SmartMouth Advance Clinical Formula Cinnamon; SmartMouth Advance Clinical Formula Mint; SmartMouth Advanced Clinical DDS Formula Mint (ACF); SmartMouth Clinical Gum and Plaque Formula; SmartMouth Gum and Plaque Formula; SmartMouth Mouthwash Clinical DDS Formula; Suction Swab System; Suction Swab with Corinz Oral Rinse; Suction Toothbrush with Antiseptic Oral Rinse; Suction Toothbrush with Corinz Oral Rinse; Suction Toothbrushes; TheraBreath Healthy Gums Oral Rinse; TheraStom; Throat Lozenges; Throat Lozenges 1.5mg; Toothette Oral Care Single Use System with Antiseptic Oral Rinse; Total Advanced Health Fresh Mint; Walgreen Antiseptic Oral Health Rinse; Xylocaine Oral Spray; Zero Fresh Breath; Zero Healthy Gums; Zestymint Antiseptic; rrub Body Sanitizing; rrub Rinse Free Hand Wash-non Alcohol version

> <SALTS>
Cetylpyridinium bromide; Cetylpyridinium chloride

$$$$
