
  Mrv1718010161816442D          

 35 39  0  0  0  0            999 V2000
   -1.4573   -0.7640    0.0000 C   0  0  2  0  0  0  0  0  0  0  0  0
   -1.4573   -1.5846    0.0000 C   0  0  0  0  0  0  0  0  0  0  0  0
   -2.1648   -0.3395    0.0000 C   0  0  0  0  0  0  0  0  0  0  0  0
   -2.1648   -1.9808    0.0000 C   0  0  0  0  0  0  0  0  0  0  0  0
   -2.9004   -0.7640    0.0000 C   0  0  0  0  0  0  0  0  0  0  0  0
   -2.9004   -1.5846    0.0000 C   0  0  0  0  0  0  0  0  0  0  0  0
   -0.7215   -0.3395    0.0000 C   0  0  2  0  0  0  0  0  0  0  0  0
   -0.0141   -0.7640    0.0000 C   0  0  1  0  0  0  0  0  0  0  0  0
   -0.7215   -1.9808    0.0000 C   0  0  2  0  0  0  0  0  0  0  0  0
   -0.0141   -1.5846    0.0000 C   0  0  0  0  0  0  0  0  0  0  0  0
   -0.7215    0.5093    0.0000 C   0  0  2  0  0  0  0  0  0  0  0  0
   -0.0141    0.9054    0.0000 C   0  0  0  0  0  0  0  0  0  0  0  0
    0.6933   -0.3395    0.0000 C   0  0  1  0  0  0  0  0  0  0  0  0
    0.6933    0.5093    0.0000 C   0  0  1  0  0  0  0  0  0  0  0  0
    1.4856   -0.5942    0.0000 C   0  0  0  0  0  0  0  0  0  0  0  0
    1.9666    0.0848    0.0000 C   0  0  2  0  0  0  0  0  0  0  0  0
    1.4856    0.7640    0.0000 C   0  0  1  0  0  0  0  0  0  0  0  0
    2.7872    0.3395    0.0000 O   0  0  0  0  0  0  0  0  0  0  0  0
    2.7872    1.1601    0.0000 C   0  0  0  0  0  0  0  0  0  0  0  0
    1.9666    1.4148    0.0000 O   0  0  0  0  0  0  0  0  0  0  0  0
   -3.6079   -1.9808    0.0000 O   0  0  0  0  0  0  0  0  0  0  0  0
   -0.7215   -2.8297    0.0000 F   0  0  0  0  0  0  0  0  0  0  0  0
   -1.4573    0.0848    0.0000 C   0  0  0  0  0  0  0  0  0  0  0  0
   -0.7215   -1.1602    0.0000 F   0  0  0  0  0  0  0  0  0  0  0  0
   -1.4573    0.9054    0.0000 O   0  0  0  0  0  0  0  0  0  0  0  0
   -0.0141    0.0848    0.0000 H   0  0  0  0  0  0  0  0  0  0  0  0
    0.6933   -1.1602    0.0000 H   0  0  0  0  0  0  0  0  0  0  0  0
    0.6933    1.3299    0.0000 C   0  0  0  0  0  0  0  0  0  0  0  0
    1.4856    1.5846    0.0000 C   0  0  0  0  0  0  0  0  0  0  0  0
    2.1930    2.0090    0.0000 C   0  0  0  0  0  0  0  0  0  0  0  0
    0.7781    1.9807    0.0000 O   0  0  0  0  0  0  0  0  0  0  0  0
    2.1930    2.8297    0.0000 O   0  0  0  0  0  0  0  0  0  0  0  0
    3.1834    1.8676    0.0000 C   0  0  0  0  0  0  0  0  0  0  0  0
    3.6079    1.1601    0.0000 C   0  0  0  0  0  0  0  0  0  0  0  0
    1.9983    0.7926    0.0000 H   0  0  0  0  0  0  0  0  0  0  0  0
  3  1  1  0  0  0  0
  7  1  1  0  0  0  0
  2  1  1  0  0  0  0
  1 23  1  1  0  0  0
  4  2  2  0  0  0  0
  9  2  1  0  0  0  0
  5  3  2  0  0  0  0
  6  4  1  0  0  0  0
  6  5  1  0  0  0  0
 21  6  2  0  0  0  0
 11  7  1  0  0  0  0
  8  7  1  0  0  0  0
  7 24  1  6  0  0  0
 10  8  1  0  0  0  0
 13  8  1  0  0  0  0
  8 26  1  1  0  0  0
 10  9  1  0  0  0  0
  9 22  1  6  0  0  0
 12 11  1  0  0  0  0
 11 25  1  1  0  0  0
 14 12  1  0  0  0  0
 15 13  1  0  0  0  0
 14 13  1  0  0  0  0
 13 27  1  6  0  0  0
 17 14  1  0  0  0  0
 14 28  1  1  0  0  0
 16 15  1  0  0  0  0
 18 16  1  0  0  0  0
 17 16  1  0  0  0  0
 16 35  1  1  0  0  0
 20 17  1  0  0  0  0
 17 29  1  1  0  0  0
 19 18  1  0  0  0  0
 20 19  1  0  0  0  0
 33 19  1  0  0  0  0
 34 19  1  0  0  0  0
 30 29  1  0  0  0  0
 31 29  2  0  0  0  0
 32 30  1  0  0  0  0
M  END
> <DATABASE_ID>
DB00591

> <DATABASE_NAME>
drugbank

> <SMILES>
[H][C@@]12C[C@@]3([H])[C@]4([H])C[C@H](F)C5=CC(=O)C=C[C@]5(C)[C@@]4(F)[C@@H](O)C[C@]3(C)[C@@]1(OC(C)(C)O2)C(=O)CO

> <INCHI_IDENTIFIER>
InChI=1S/C24H30F2O6/c1-20(2)31-19-9-13-14-8-16(25)15-7-12(28)5-6-21(15,3)23(14,26)17(29)10-22(13,4)24(19,32-20)18(30)11-27/h5-7,13-14,16-17,19,27,29H,8-11H2,1-4H3/t13-,14-,16-,17-,19+,21-,22-,23-,24+/m0/s1

> <INCHI_KEY>
FEBLZLNTKCEFIT-VSXGLTOVSA-N

> <FORMULA>
C24H30F2O6

> <MOLECULAR_WEIGHT>
452.4882

> <EXACT_MASS>
452.201045102

> <JCHEM_ACCEPTOR_COUNT>
6

> <JCHEM_ATOM_COUNT>
62

> <JCHEM_AVERAGE_POLARIZABILITY>
44.84182741241134

> <JCHEM_BIOAVAILABILITY>
1

> <JCHEM_DONOR_COUNT>
2

> <JCHEM_FORMAL_CHARGE>
0

> <JCHEM_GHOSE_FILTER>
1

> <JCHEM_IUPAC>
(1S,2S,4R,8S,9S,11S,12R,13S,19S)-12,19-difluoro-11-hydroxy-8-(2-hydroxyacetyl)-6,6,9,13-tetramethyl-5,7-dioxapentacyclo[10.8.0.0^{2,9}.0^{4,8}.0^{13,18}]icosa-14,17-dien-16-one

> <ALOGPS_LOGP>
2.47

> <JCHEM_LOGP>
1.6043985689999987

> <ALOGPS_LOGS>
-3.92

> <JCHEM_MDDR_LIKE_RULE>
0

> <JCHEM_NUMBER_OF_RINGS>
5

> <JCHEM_PHYSIOLOGICAL_CHARGE>
0

> <JCHEM_PKA>
13.963875396267586

> <JCHEM_PKA_STRONGEST_ACIDIC>
13.383678459258373

> <JCHEM_PKA_STRONGEST_BASIC>
-3.332086186104937

> <JCHEM_POLAR_SURFACE_AREA>
93.06

> <JCHEM_REFRACTIVITY>
111.4132

> <JCHEM_ROTATABLE_BOND_COUNT>
2

> <JCHEM_RULE_OF_FIVE>
1

> <ALOGPS_SOLUBILITY>
5.47e-02 g/l

> <JCHEM_TRADITIONAL_IUPAC>
(1S,2S,4R,8S,9S,11S,12R,13S,19S)-12,19-difluoro-11-hydroxy-8-(2-hydroxyacetyl)-6,6,9,13-tetramethyl-5,7-dioxapentacyclo[10.8.0.0^{2,9}.0^{4,8}.0^{13,18}]icosa-14,17-dien-16-one

> <JCHEM_VEBER_RULE>
0

> <DRUGBANK_ID>
DB00591

> <SECONDARY_ACCESSION_NUMBERS>
APRD00977

> <DRUG_GROUPS>
approved; investigational; vet_approved

> <GENERIC_NAME>
Fluocinolone acetonide

> <SYNONYMS>
6alpha-fluorotriamcinolone acetonide; 6alpha,9alpha-difluoro-16alpha-hydroxyprednisolone 16,17-acetonide; 6α-fluorotriamcinolone acetonide; 6α,9α-difluoro-16α-hydroxyprednisolone 16,17-acetonide; acétonide de fluocinolone; acetónido de fluocinolona; fluocinolon acetonid; fluocinolone 16,17-acetonide; Fluocinolone acetonide; fluocinoloni acetonidum

> <PRODUCTS>
Capex; Ciprofloxacin and Fluocinolone Acetonide; DermOtic; Derma Smoothe/fs Liq 0.01%; Derma-Smoothe/FS; Dermotic Oil Ear Drops; FS Shampoo-0.01%; Flac Otic Oil; Fluocinolone Acetonide; Fluocinolone Acetonide 0.01% / Minoxidil 5% / Tretinoin 0.025%; Fluocinolone Acetonide 0.01% / Minoxidil 7% / Progesterone 0.1%; Fluocinolone Acetonide 0.01% / Niacinamide 4%; Fluocinolone Acetonide 0.01/ Niacinamide 4; Fluocinolone Acetonide 0.025% / Lidocaine HCl Monohydrate 1%; Fluocinolone Acetonide Oil; Fluocinolone Acetonide Oil, 0.01% (Ear Drops); Fluocinolone Acetonide Topical; Fluocinolone Acetonide Topical Solution USP, 0.01%; Fluocinolone acetonide; Fluocinolone acetonide 0.01%; Fluoderm Crm 0.01%; Fluoderm Crm 0.025%; Fluoderm Ont 0.01%; Fluoderm Ont 0.025%; Iluvien; Neo-Synalar; Noxipak; Otixal; Otovel; Retisert; Synalar; Synalar Bi-otic Solution; Synalar Cream 0.025%; Synalar Cream Mild 0.01%; Synalar Ointment Mild 0.01%; Synalar Ont Regular 0.025%; Synalar TS; Synamol Mild 0.01% Cream; Synamol Regular 0.025% Cream; Tri-luma; Triderma; Xilapak; Yutiq

> <INTERNATIONAL_BRANDS>
Biscosal; Boniderma; Co-FIuosin; Coderma; Cordes F; Coriphate; Cortalar; Cortiderma; Cortiespec; Cortiphate; Cortiplastol; Cortoderm; Derma-Smoothe/FS; Dermaisom; Dermalar; Dermaplus; Dermil; Dermobeta; Dermobiomar; Dermofil; Dermolin; Dermomagis; Dermophyl; Dermotergol; Doricum; Esacinone; Esilon; Eskaton; Fellin; Flucinar; Flucort; Fluocet; Fluocinil; Fluocinone; Fluocit; Fluoderm; Fluodermol; Fluogisol; Fluolar; Fluomix; Fluonid; Fluonide Dermica; Fluordima; Fluoskin; Fluotrex; Fluovean; Fluovitef; Fluovitif; Flupollon; Fluzon; Futocan; Gelargin; Gelidina; Iluvien; Intradermo; Isnaderm; Isoderma; Jellin; Locafluo; Localyn; Mecloderm; Monoderm; Omniderm; Oxidermiol Fuerte; Percutina; Prodermin; Radiocin; Roliderm; Sinalar; Sterolone; Straderm; Synalar; Synamol; Synandone; Synandrone; Synemol; Synotic; Synsac; Tefunote; Topifluor; Ultraderm; Ungovac

$$$$
