
  Mrv1718012211812492D          

 17 17  0  0  0  0            999 V2000
   -1.1129    0.4125    0.0000 C   0  0  0  0  0  0  0  0  0  0  0  0
   -1.1129   -1.2375    0.0000 C   0  0  0  0  0  0  0  0  0  0  0  0
   -0.3984   -0.8250    0.0000 C   0  0  0  0  0  0  0  0  0  0  0  0
   -1.8273   -0.8250    0.0000 C   0  0  0  0  0  0  0  0  0  0  0  0
   -2.5418   -1.2375    0.0000 O   0  0  0  0  0  0  0  0  0  0  0  0
   -1.8273    0.0000    0.0000 C   0  0  0  0  0  0  0  0  0  0  0  0
   -2.5418    0.4125    0.0000 C   0  0  0  0  0  0  0  0  0  0  0  0
   -3.2563    0.0000    0.0000 O   0  0  0  0  0  0  0  0  0  0  0  0
   -0.3984    0.0000    0.0000 C   0  0  0  0  0  0  0  0  0  0  0  0
    1.0305    0.0000    0.0000 C   0  0  0  0  0  0  0  0  0  0  0  0
    1.7449    0.4125    0.0000 N   0  0  0  0  0  0  0  0  0  0  0  0
    3.0428    0.5833    0.0000 C   0  0  0  0  0  0  0  0  0  0  0  0
    2.6729   -0.7968    0.0000 C   0  0  0  0  0  0  0  0  0  0  0  0
    2.4594    0.0000    0.0000 C   0  0  0  0  0  0  0  0  0  0  0  0
    3.2563   -0.2135    0.0000 C   0  0  0  0  0  0  0  0  0  0  0  0
    0.3160    0.4125    0.0000 C   0  0  2  0  0  0  0  0  0  0  0  0
    0.3160    1.2375    0.0000 O   0  0  0  0  0  0  0  0  0  0  0  0
  1  6  1  0  0  0  0
  1  9  2  0  0  0  0
  6  4  2  0  0  0  0
  4  2  1  0  0  0  0
  2  3  2  0  0  0  0
  3  9  1  0  0  0  0
  4  5  1  0  0  0  0
  6  7  1  0  0  0  0
  7  8  1  0  0  0  0
  9 16  1  0  0  0  0
 16 10  1  0  0  0  0
 10 11  1  0  0  0  0
 11 14  1  0  0  0  0
 14 12  1  0  0  0  0
 14 13  1  0  0  0  0
 14 15  1  0  0  0  0
 16 17  1  1  0  0  0
M  END
> <DATABASE_ID>
DB13139

> <DATABASE_NAME>
drugbank

> <SMILES>
CC(C)(C)NC[C@H](O)C1=CC(CO)=C(O)C=C1

> <INCHI_IDENTIFIER>
InChI=1S/C13H21NO3/c1-13(2,3)14-7-12(17)9-4-5-11(16)10(6-9)8-15/h4-6,12,14-17H,7-8H2,1-3H3/t12-/m0/s1

> <INCHI_KEY>
NDAUXUAQIAJITI-LBPRGKRZSA-N

> <FORMULA>
C13H21NO3

> <MOLECULAR_WEIGHT>
239.3107

> <EXACT_MASS>
239.152143543

> <JCHEM_ACCEPTOR_COUNT>
4

> <JCHEM_ATOM_COUNT>
38

> <JCHEM_AVERAGE_POLARIZABILITY>
26.866307645499337

> <JCHEM_BIOAVAILABILITY>
1

> <JCHEM_DONOR_COUNT>
4

> <JCHEM_FORMAL_CHARGE>
0

> <JCHEM_GHOSE_FILTER>
1

> <JCHEM_IUPAC>
4-[(1R)-2-(tert-butylamino)-1-hydroxyethyl]-2-(hydroxymethyl)phenol

> <ALOGPS_LOGP>
0.44

> <JCHEM_LOGP>
0.3444161509994905

> <ALOGPS_LOGS>
-2.05

> <JCHEM_MDDR_LIKE_RULE>
0

> <JCHEM_NUMBER_OF_RINGS>
1

> <JCHEM_PHYSIOLOGICAL_CHARGE>
1

> <JCHEM_PKA>
14.17970015088174

> <JCHEM_PKA_STRONGEST_ACIDIC>
10.121162873207071

> <JCHEM_PKA_STRONGEST_BASIC>
9.403548944560061

> <JCHEM_POLAR_SURFACE_AREA>
72.72

> <JCHEM_REFRACTIVITY>
67.87090000000002

> <JCHEM_ROTATABLE_BOND_COUNT>
5

> <JCHEM_RULE_OF_FIVE>
1

> <ALOGPS_SOLUBILITY>
2.15e+00 g/l

> <JCHEM_TRADITIONAL_IUPAC>
ventolin

> <JCHEM_VEBER_RULE>
0

> <DRUGBANK_ID>
DB13139

> <SECONDARY_ACCESSION_NUMBERS>
DB05761

> <DRUG_GROUPS>
approved; investigational

> <GENERIC_NAME>
Levosalbutamol

> <SYNONYMS>
(-)-Albuterol; (-)-Salbutamol; (R)-salbutamol; Levalbuterol; Levosalbutamol; R-salbutamol

> <PRODUCTS>
Levalbuterol; Levalbuterol Hydrochloride; Levalbuterol Inhalation; Levalbuterol Inhalation Solution; Levalbuterol tartrate HFA inhalation; Xopenex; Xopenex HFA

> <SALTS>
Levosalbutamol hydrochloride; Levosalbutamol sulfate; Levosalbutamol tartrate

$$$$
