
  Mrv1718003251811092D          

  7  5  0  0  0  0            999 V2000
   -0.1930   -0.2049    0.0000 C   0  0  0  0  0  0  0  0  0  0  0  0
    0.5210    0.2098    0.0000 O   0  5  0  0  0  0  0  0  0  0  0  0
   -0.1930   -1.0299    0.0000 O   0  0  0  0  0  0  0  0  0  0  0  0
   -0.9022    0.2049    0.0000 C   0  0  0  0  0  0  0  0  0  0  0  0
    1.6160    0.0940    0.0000 K   0  3  0  0  0  0  0  0  0  0  0  0
   -0.9069    1.0299    0.0000 O   0  0  0  0  0  0  0  0  0  0  0  0
   -1.6160   -0.2098    0.0000 C   0  0  0  0  0  0  0  0  0  0  0  0
  2  1  1  0  0  0  0
  3  1  2  0  0  0  0
  4  1  1  0  0  0  0
  6  4  1  0  0  0  0
  7  4  1  0  0  0  0
M  CHG  2   2  -1   5   1
M  END
> <DATABASE_ID>
DB09483

> <DATABASE_NAME>
drugbank

> <SMILES>
[K+].CC(O)C([O-])=O

> <INCHI_IDENTIFIER>
InChI=1S/C3H6O3.K/c1-2(4)3(5)6;/h2,4H,1H3,(H,5,6);/q;+1/p-1

> <INCHI_KEY>
PHZLMBHDXVLRIX-UHFFFAOYSA-M

> <FORMULA>
C3H5KO3

> <MOLECULAR_WEIGHT>
128.1683

> <EXACT_MASS>
127.987575887

> <JCHEM_ACCEPTOR_COUNT>
3

> <JCHEM_ATOM_COUNT>
12

> <JCHEM_AVERAGE_POLARIZABILITY>
7.647122088275667

> <JCHEM_BIOAVAILABILITY>
1

> <JCHEM_DONOR_COUNT>
1

> <JCHEM_FORMAL_CHARGE>
0

> <JCHEM_GHOSE_FILTER>
0

> <JCHEM_IUPAC>
potassium 2-hydroxypropanoate

> <ALOGPS_LOGP>
-0.63

> <JCHEM_LOGP>
-0.47182951800000017

> <ALOGPS_LOGS>
0.79

> <JCHEM_MDDR_LIKE_RULE>
0

> <JCHEM_NUMBER_OF_RINGS>
0

> <JCHEM_PHYSIOLOGICAL_CHARGE>
-1

> <JCHEM_PKA>
14.593508084825753

> <JCHEM_PKA_STRONGEST_ACIDIC>
3.784942414122654

> <JCHEM_PKA_STRONGEST_BASIC>
-3.6696493832413326

> <JCHEM_POLAR_SURFACE_AREA>
60.36

> <JCHEM_REFRACTIVITY>
29.676900000000003

> <JCHEM_ROTATABLE_BOND_COUNT>
1

> <JCHEM_RULE_OF_FIVE>
1

> <ALOGPS_SOLUBILITY>
7.86e+02 g/l

> <JCHEM_TRADITIONAL_IUPAC>
potassium lactate

> <JCHEM_VEBER_RULE>
0

> <DRUGBANK_ID>
DB09483

> <DRUG_GROUPS>
approved

> <GENERIC_NAME>
Potassium lactate

> <SYNONYMS>
Lactic acid, potassium salt; Monopotassium 2-hydroxypropanoate; Monopotassium lactate

> <PRODUCTS>
Ionosol and Dextrose

$$$$
