
  Mrv1572004221603192D          

 31 34  0  0  1  0            999 V2000
   -1.3626    2.0417    0.0000 C   0  0  0  0  0  0  0  0  0  0  0  0
    2.6232    0.6018    0.0000 C   0  0  0  0  0  0  0  0  0  0  0  0
    0.1073    0.1997    0.0000 C   0  0  0  0  0  0  0  0  0  0  0  0
    2.6520    2.7844    0.0000 C   0  0  0  0  0  0  0  0  0  0  0  0
    1.8399    2.6391    0.0000 C   0  0  0  0  0  0  0  0  0  0  0  0
    4.2475    0.8922    0.0000 C   0  0  0  0  0  0  0  0  0  0  0  0
    3.4354    0.7470    0.0000 C   0  0  0  0  0  0  0  0  0  0  0  0
    0.0962    2.2244    0.0000 C   0  0  0  0  0  0  0  0  0  0  0  0
    3.9960    2.2989    0.0000 C   0  0  0  0  0  0  0  0  0  0  0  0
    0.9990    0.3114    0.0000 C   0  0  0  0  0  0  0  0  0  0  0  0
   -1.4498    0.0477    0.0000 C   0  0  0  0  0  0  0  0  0  0  0  0
   -0.5867    1.7614    0.0000 C   0  0  1  0  0  0  0  0  0  0  0  0
    3.1838    2.1537    0.0000 C   0  0  0  0  0  0  0  0  0  0  0  0
    4.5278    1.6682    0.0000 C   0  0  0  0  0  0  0  0  0  0  0  0
    1.5596    1.8632    0.0000 C   0  0  1  0  0  0  0  0  0  0  0  0
    0.7475    1.7180    0.0000 C   0  0  1  0  0  0  0  0  0  0  0  0
    1.8111    0.4566    0.0000 C   0  0  0  0  0  0  0  0  0  0  0  0
   -1.1695    0.8237    0.0000 C   0  0  0  0  0  0  0  0  0  0  0  0
    2.0914    1.2325    0.0000 C   0  0  2  0  0  0  0  0  0  0  0  0
    2.9035    1.3777    0.0000 C   0  0  2  0  0  0  0  0  0  0  0  0
    0.4672    0.9421    0.0000 C   0  0  2  0  0  0  0  0  0  0  0  0
   -0.3574    0.9689    0.0000 C   0  0  2  0  0  0  0  0  0  0  0  0
   -0.9180   -0.5830    0.0000 O   0  0  0  0  0  0  0  0  0  0  0  0
    5.3399    1.8134    0.0000 O   0  0  0  0  0  0  0  0  0  0  0  0
    2.3429   -0.1741    0.0000 O   0  0  0  0  0  0  0  0  0  0  0  0
   -1.7013    1.4544    0.0000 O   0  0  0  0  0  0  0  0  0  0  0  0
   -0.2978    0.1460    0.0000 O   0  0  0  0  0  0  0  0  0  0  0  0
   -1.1887    1.1973    0.0000 H   0  0  0  0  0  0  0  0  0  0  0  0
    1.0278    2.4939    0.0000 H   0  0  0  0  0  0  0  0  0  0  0  0
    1.2793    1.0873    0.0000 H   0  0  0  0  0  0  0  0  0  0  0  0
    2.3717    2.0084    0.0000 H   0  0  0  0  0  0  0  0  0  0  0  0
  5  4  1  0  0  0  0
  7  6  2  0  0  0  0
 12  1  1  1  0  0  0
 12  8  1  0  0  0  0
 13  4  1  0  0  0  0
 13  9  2  0  0  0  0
 14  6  1  0  0  0  0
 14  9  1  0  0  0  0
 15  5  1  0  0  0  0
 16  8  1  0  0  0  0
 16 15  1  0  0  0  0
 17 10  1  0  0  0  0
 18 11  1  0  0  0  0
 19 15  1  0  0  0  0
 19 17  1  0  0  0  0
 20  2  1  1  0  0  0
 20  7  1  0  0  0  0
 20 13  1  0  0  0  0
 20 19  1  0  0  0  0
 21  3  1  1  0  0  0
 21 10  1  0  0  0  0
 21 16  1  0  0  0  0
 22 12  1  0  0  0  0
 22 18  1  1  0  0  0
 22 21  1  0  0  0  0
 23 11  1  0  0  0  0
 24 14  2  0  0  0  0
 25 17  2  0  0  0  0
 26 18  2  0  0  0  0
 22 27  1  6  0  0  0
 12 28  1  6  0  0  0
 15 29  1  1  0  0  0
 16 30  1  6  0  0  0
 19 31  1  6  0  0  0
M  END
> <DATABASE_ID>
DB09383

> <DATABASE_NAME>
drugbank

> <SMILES>
[H][C@]1(C)C[C@@]2([H])[C@]3([H])CCC4=CC(=O)C=C[C@]4(C)[C@@]3([H])C(=O)C[C@]2(C)[C@@]1(O)C(=O)CO

> <INCHI_IDENTIFIER>
InChI=1S/C22H28O5/c1-12-8-16-15-5-4-13-9-14(24)6-7-20(13,2)19(15)17(25)10-21(16,3)22(12,27)18(26)11-23/h6-7,9,12,15-16,19,23,27H,4-5,8,10-11H2,1-3H3/t12-,15-,16-,19+,20-,21-,22-/m0/s1

> <INCHI_KEY>
PIDANAQULIKBQS-RNUIGHNZSA-N

> <FORMULA>
C22H28O5

> <MOLECULAR_WEIGHT>
372.461

> <EXACT_MASS>
372.193674002

> <JCHEM_ACCEPTOR_COUNT>
5

> <JCHEM_ATOM_COUNT>
55

> <JCHEM_AVERAGE_POLARIZABILITY>
40.191281701789705

> <JCHEM_BIOAVAILABILITY>
1

> <JCHEM_DONOR_COUNT>
2

> <JCHEM_FORMAL_CHARGE>
0

> <JCHEM_GHOSE_FILTER>
1

> <JCHEM_IUPAC>
(1S,2R,10S,11S,13S,14R,15S)-14-hydroxy-14-(2-hydroxyacetyl)-2,13,15-trimethyltetracyclo[8.7.0.0²,⁷.0¹¹,¹⁵]heptadeca-3,6-diene-5,17-dione

> <ALOGPS_LOGP>
2.09

> <JCHEM_LOGP>
2.0234770043333326

> <ALOGPS_LOGS>
-3.72

> <JCHEM_MDDR_LIKE_RULE>
0

> <JCHEM_NUMBER_OF_RINGS>
4

> <JCHEM_PHYSIOLOGICAL_CHARGE>
0

> <JCHEM_PKA>
13.895704579476138

> <JCHEM_PKA_STRONGEST_ACIDIC>
12.440328739155845

> <JCHEM_PKA_STRONGEST_BASIC>
-3.330181506976283

> <JCHEM_POLAR_SURFACE_AREA>
91.67

> <JCHEM_REFRACTIVITY>
102.03969999999994

> <JCHEM_ROTATABLE_BOND_COUNT>
2

> <JCHEM_RULE_OF_FIVE>
1

> <ALOGPS_SOLUBILITY>
7.11e-02 g/l

> <JCHEM_TRADITIONAL_IUPAC>
methylprednisone

> <JCHEM_VEBER_RULE>
0

> <DRUGBANK_ID>
DB09383

> <DRUG_GROUPS>
approved; investigational

> <GENERIC_NAME>
Meprednisone

> <SYNONYMS>
Meprednisone

$$$$
