
  Mrv1718003251823072D          

 32 36  0  0  0  0            999 V2000
   -0.2752    0.1919    0.0000 O   0  0  0  0  0  0  0  0  0  0  0  0
   -4.0200    1.1802    0.0000 N   0  0  0  0  0  0  0  0  0  0  0  0
   -1.7042    1.0169    0.0000 N   0  0  0  0  0  0  0  0  0  0  0  0
    1.1537   -1.4580    0.0000 N   0  0  0  0  0  0  0  0  0  0  0  0
    5.4967    1.0341    0.0000 N   0  0  0  0  0  0  0  0  0  0  0  0
   -3.1332    0.1919    0.0000 C   0  0  0  0  0  0  0  0  0  0  0  0
   -2.4187   -0.2205    0.0000 C   0  0  0  0  0  0  0  0  0  0  0  0
   -1.7042    0.1919    0.0000 C   0  0  1  0  0  0  0  0  0  0  0  0
   -3.8821   -0.1422    0.0000 C   0  0  0  0  0  0  0  0  0  0  0  0
   -3.2182    1.0076    0.0000 C   0  0  0  0  0  0  0  0  0  0  0  0
   -0.9897   -0.2205    0.0000 C   0  0  0  0  0  0  0  0  0  0  0  0
   -4.4331    0.4718    0.0000 C   0  0  0  0  0  0  0  0  0  0  0  0
   -4.1384   -0.9264    0.0000 C   0  0  0  0  0  0  0  0  0  0  0  0
   -5.2403    0.3016    0.0000 C   0  0  0  0  0  0  0  0  0  0  0  0
   -4.9457   -1.0966    0.0000 C   0  0  0  0  0  0  0  0  0  0  0  0
   -5.4967   -0.4825    0.0000 C   0  0  0  0  0  0  0  0  0  0  0  0
    0.4391   -0.2205    0.0000 C   0  0  0  0  0  0  0  0  0  0  0  0
    1.8682   -0.2205    0.0000 C   0  0  0  0  0  0  0  0  0  0  0  0
    1.1537    0.1919    0.0000 C   0  0  0  0  0  0  0  0  0  0  0  0
    2.5826    0.1919    0.0000 C   0  0  0  0  0  0  0  0  0  0  0  0
    0.4391   -1.0455    0.0000 C   0  0  0  0  0  0  0  0  0  0  0  0
    4.0116    0.1919    0.0000 C   0  0  0  0  0  0  0  0  0  0  0  0
    3.2971   -0.2205    0.0000 C   0  0  0  0  0  0  0  0  0  0  0  0
    4.0116    1.0169    0.0000 C   0  0  0  0  0  0  0  0  0  0  0  0
    2.5826    1.0169    0.0000 C   0  0  0  0  0  0  0  0  0  0  0  0
    1.8682   -1.0455    0.0000 C   0  0  0  0  0  0  0  0  0  0  0  0
    3.2971    1.4295    0.0000 C   0  0  0  0  0  0  0  0  0  0  0  0
    4.7491   -0.2491    0.0000 C   0  0  0  0  0  0  0  0  0  0  0  0
    4.7491    1.4580    0.0000 C   0  0  0  0  0  0  0  0  0  0  0  0
    5.4967    0.1748    0.0000 C   0  0  0  0  0  0  0  0  0  0  0  0
   -2.1472    1.2727    0.0000 H   0  0  0  0  0  0  0  0  0  0  0  0
   -1.2612    1.2727    0.0000 H   0  0  0  0  0  0  0  0  0  0  0  0
  1 11  1  0  0  0  0
  1 17  1  0  0  0  0
  2 10  2  0  0  0  0
  2 12  1  0  0  0  0
  8  3  1  6  0  0  0
  3 31  1  0  0  0  0
  3 32  1  0  0  0  0
  4 21  1  0  0  0  0
  4 26  2  0  0  0  0
  5 29  2  0  0  0  0
  5 30  1  0  0  0  0
  6  7  1  0  0  0  0
  6  9  1  0  0  0  0
  6 10  1  0  0  0  0
  7  8  1  0  0  0  0
  8 11  1  0  0  0  0
  9 12  1  0  0  0  0
  9 13  2  0  0  0  0
 12 14  2  0  0  0  0
 13 15  1  0  0  0  0
 14 16  1  0  0  0  0
 15 16  2  0  0  0  0
 17 19  1  0  0  0  0
 17 21  2  0  0  0  0
 18 19  2  0  0  0  0
 18 20  1  0  0  0  0
 18 26  1  0  0  0  0
 20 23  2  0  0  0  0
 20 25  1  0  0  0  0
 22 23  1  0  0  0  0
 22 24  2  0  0  0  0
 22 28  1  0  0  0  0
 24 27  1  0  0  0  0
 24 29  1  0  0  0  0
 25 27  2  0  0  0  0
 28 30  2  0  0  0  0
M  END
> <DATABASE_ID>
DB06959

> <DATABASE_NAME>
drugbank

> <SMILES>
[H]N([H])[C@H](COC1=CN=CC(=C1)C1=CC2=C(C=C1)C=NC=C2)CC1C=NC2=CC=CC=C12

> <INCHI_IDENTIFIER>
InChI=1S/C25H22N4O/c26-22(10-21-14-29-25-4-2-1-3-24(21)25)16-30-23-11-20(13-28-15-23)17-5-6-19-12-27-8-7-18(19)9-17/h1-9,11-15,21-22H,10,16,26H2/t21?,22-/m0/s1

> <INCHI_KEY>
BUCZDJYEOAQTHL-KEKNWZKVSA-N

> <FORMULA>
C25H22N4O

> <MOLECULAR_WEIGHT>
394.4684

> <EXACT_MASS>
394.179361346

> <JCHEM_ACCEPTOR_COUNT>
5

> <JCHEM_ATOM_COUNT>
52

> <JCHEM_AVERAGE_POLARIZABILITY>
44.235968276689476

> <JCHEM_BIOAVAILABILITY>
1

> <JCHEM_DONOR_COUNT>
1

> <JCHEM_FORMAL_CHARGE>
0

> <JCHEM_GHOSE_FILTER>
1

> <JCHEM_IUPAC>
(2S)-1-(3H-indol-3-yl)-3-{[5-(isoquinolin-6-yl)pyridin-3-yl]oxy}propan-2-amine

> <ALOGPS_LOGP>
3.33

> <JCHEM_LOGP>
2.9900590766666664

> <ALOGPS_LOGS>
-6.09

> <JCHEM_MDDR_LIKE_RULE>
1

> <JCHEM_NUMBER_OF_RINGS>
5

> <JCHEM_PHYSIOLOGICAL_CHARGE>
1

> <JCHEM_PKA_STRONGEST_ACIDIC>
14.150124693025955

> <JCHEM_PKA_STRONGEST_BASIC>
9.529598092900386

> <JCHEM_POLAR_SURFACE_AREA>
73.39

> <JCHEM_REFRACTIVITY>
119.38449999999999

> <JCHEM_ROTATABLE_BOND_COUNT>
6

> <JCHEM_RULE_OF_FIVE>
1

> <ALOGPS_SOLUBILITY>
3.20e-04 g/l

> <JCHEM_TRADITIONAL_IUPAC>
(2S)-1-(3H-indol-3-yl)-3-{[5-(isoquinolin-6-yl)pyridin-3-yl]oxy}propan-2-amine

> <JCHEM_VEBER_RULE>
0

> <DRUGBANK_ID>
DB06959

> <DRUG_GROUPS>
experimental

> <GENERIC_NAME>
(2S)-1-(3H-Indol-3-yl)-3-{[5-(6-isoquinolinyl)-3-pyridinyl]oxy}-2-propanamine

$$$$
