
  Mrv1652309121709242D          

  9  8  0  0  0  0            999 V2000
   -0.1914    0.7145    0.0000 C   0  0  0  0  0  0  0  0  0  0  0  0
    0.5230    1.1270    0.0000 C   0  0  0  0  0  0  0  0  0  0  0  0
    0.5230    1.9520    0.0000 C   0  0  0  0  0  0  0  0  0  0  0  0
    1.2375    0.7145    0.0000 C   0  0  0  0  0  0  0  0  0  0  0  0
    1.9520    1.1270    0.0000 C   0  0  0  0  0  0  0  0  0  0  0  0
    1.9520    1.9520    0.0000 O   0  0  0  0  0  0  0  0  0  0  0  0
    2.6664    0.7145    0.0000 C   0  0  0  0  0  0  0  0  0  0  0  0
    3.3809    1.1270    0.0000 O   0  0  0  0  0  0  0  0  0  0  0  0
    2.6664   -0.1105    0.0000 O   0  0  0  0  0  0  0  0  0  0  0  0
  1  2  1  0  0  0  0
  2  3  1  0  0  0  0
  2  4  1  0  0  0  0
  4  5  1  0  0  0  0
  5  6  2  0  0  0  0
  5  7  1  0  0  0  0
  7  8  2  0  0  0  0
  7  9  1  0  0  0  0
M  END
> <DATABASE_ID>
DB03229

> <DATABASE_NAME>
drugbank

> <SMILES>
CC(C)CC(=O)C(O)=O

> <INCHI_IDENTIFIER>
InChI=1S/C6H10O3/c1-4(2)3-5(7)6(8)9/h4H,3H2,1-2H3,(H,8,9)

> <INCHI_KEY>
BKAJNAXTPSGJCU-UHFFFAOYSA-N

> <FORMULA>
C6H10O3

> <MOLECULAR_WEIGHT>
130.1418

> <EXACT_MASS>
130.062994186

> <JCHEM_ACCEPTOR_COUNT>
3

> <JCHEM_ATOM_COUNT>
19

> <JCHEM_AVERAGE_POLARIZABILITY>
12.995994785498697

> <JCHEM_BIOAVAILABILITY>
1

> <JCHEM_DONOR_COUNT>
1

> <JCHEM_FORMAL_CHARGE>
0

> <JCHEM_GHOSE_FILTER>
0

> <JCHEM_IUPAC>
4-methyl-2-oxopentanoic acid

> <ALOGPS_LOGP>
0.82

> <JCHEM_LOGP>
1.4979975616666668

> <ALOGPS_LOGS>
-1.28

> <JCHEM_MDDR_LIKE_RULE>
0

> <JCHEM_NUMBER_OF_RINGS>
0

> <JCHEM_PHYSIOLOGICAL_CHARGE>
-1

> <JCHEM_PKA_STRONGEST_ACIDIC>
3.528051095084082

> <JCHEM_PKA_STRONGEST_BASIC>
-9.662090237480372

> <JCHEM_POLAR_SURFACE_AREA>
54.37

> <JCHEM_REFRACTIVITY>
31.7662

> <JCHEM_ROTATABLE_BOND_COUNT>
3

> <JCHEM_RULE_OF_FIVE>
1

> <ALOGPS_SOLUBILITY>
6.76e+00 g/l

> <JCHEM_TRADITIONAL_IUPAC>
ketoisocaproate

> <JCHEM_VEBER_RULE>
0

> <DRUGBANK_ID>
DB03229

> <SECONDARY_ACCESSION_NUMBERS>
EXPT00985

> <DRUG_GROUPS>
experimental

> <GENERIC_NAME>
alpha-Ketoisocaproic acid

> <SYNONYMS>
2-oxo-4-methylpentanoic acid; 2-Oxoisocaproate; 2-oxoleucine; 4-Methyl-2-oxopentanoate; 4-methyl-2-oxopentanoic acid; 4-methyl-2-oxovaleric acid; alpha-Ketoisocaproate; Ketoleucine; Î±-ketoisocaproic acid

> <SALTS>
Calcium 4-methyl-2-oxovalerate

$$$$
