
  Mrv1718009211810142D          

  5  3  0  0  0  0            999 V2000
    0.0000    0.6040    0.0000 V   0  0  0  0  0  0  0  0  0  0  0  0
    0.7145    1.0166    0.0000 O   0  0  0  0  0  0  0  0  0  0  0  0
   -0.7145    1.0166    0.0000 O   0  0  0  0  0  0  0  0  0  0  0  0
    0.0000   -0.2209    0.0000 O   0  5  0  0  0  0  0  0  0  0  0  0
    0.0000   -1.0166    0.0000 Na  0  3  0  0  0  0  0  0  0  0  0  0
  1  2  2  0  0  0  0
  1  3  2  0  0  0  0
  1  4  1  0  0  0  0
M  CHG  2   4  -1   5   1
M  END
> <DATABASE_ID>
DB14702

> <DATABASE_NAME>
drugbank

> <SMILES>
[Na+].[O-][V](=O)=O

> <INCHI_IDENTIFIER>
InChI=1S/Na.3O.V/q+1;;;-1;

> <INCHI_KEY>
CMZUMMUJMWNLFH-UHFFFAOYSA-N

> <FORMULA>
NaO3V

> <MOLECULAR_WEIGHT>
121.9295

> <EXACT_MASS>
121.918477216

> <JCHEM_ACCEPTOR_COUNT>
3

> <JCHEM_ATOM_COUNT>
5

> <JCHEM_AVERAGE_POLARIZABILITY>
5.101303276117812

> <JCHEM_BIOAVAILABILITY>
1

> <JCHEM_DONOR_COUNT>
0

> <JCHEM_FORMAL_CHARGE>
0

> <JCHEM_GHOSE_FILTER>
0

> <JCHEM_IUPAC>
sodium vanadiumoylolate

> <JCHEM_LOGP>
-1.2389999999999999

> <JCHEM_MDDR_LIKE_RULE>
0

> <JCHEM_NUMBER_OF_RINGS>
0

> <JCHEM_PHYSIOLOGICAL_CHARGE>
-1

> <JCHEM_PKA_STRONGEST_ACIDIC>
-2.0

> <JCHEM_POLAR_SURFACE_AREA>
57.2

> <JCHEM_REFRACTIVITY>
4.3287

> <JCHEM_ROTATABLE_BOND_COUNT>
0

> <JCHEM_RULE_OF_FIVE>
1

> <JCHEM_TRADITIONAL_IUPAC>
sodium vanadate

> <JCHEM_VEBER_RULE>
0

> <DRUGBANK_ID>
DB14702

> <DRUG_GROUPS>
approved; experimental

> <GENERIC_NAME>
Sodium metavanadate

> <SYNONYMS>
Sodium trioxovanadate; Sodium vanadate; Sodium vanadate(V); Sodium vanadium oxide; Vanadic acid, monosodium salt

> <PRODUCTS>
B.E.T. Complex; High Potency Multivitamins & Minerals Caplets; Milltrium Senior Vitamin and Mineral Supplement; Mineral Support; Multivitamins and Minerals Tablets; Spectrum Performa Multivitamins and Minerals Tablets

> <SALTS>
Sodium metavanadate tetrahydrate

$$$$
