
  Mrv1718009051812492D          

 34 38  0  0  0  0            999 V2000
   -2.1371    0.0787    0.0000 C   0  0  1  0  0  0  0  0  0  0  0  0
   -2.8516   -0.3337    0.0000 C   0  0  2  0  0  0  0  0  0  0  0  0
   -2.8516   -1.1587    0.0000 C   0  0  0  0  0  0  0  0  0  0  0  0
   -2.1371   -1.5712    0.0000 C   0  0  0  0  0  0  0  0  0  0  0  0
   -1.4227   -1.1587    0.0000 C   0  0  0  0  0  0  0  0  0  0  0  0
   -1.4227   -0.3337    0.0000 C   0  0  1  0  0  0  0  0  0  0  0  0
   -0.7083    0.0787    0.0000 C   0  0  2  0  0  0  0  0  0  0  0  0
   -0.7083   -1.5712    0.0000 C   0  0  0  0  0  0  0  0  0  0  0  0
    0.0062   -1.1587    0.0000 C   0  0  0  0  0  0  0  0  0  0  0  0
    0.0062   -0.3337    0.0000 C   0  0  1  0  0  0  0  0  0  0  0  0
    0.0062    1.3162    0.0000 C   0  0  0  0  0  0  0  0  0  0  0  0
   -0.7083    0.9037    0.0000 C   0  0  0  0  0  0  0  0  0  0  0  0
    0.7206    0.0787    0.0000 C   0  0  1  0  0  0  0  0  0  0  0  0
    0.7206    0.9037    0.0000 C   0  0  1  0  0  0  0  0  0  0  0  0
    1.5052    1.1587    0.0000 C   0  0  2  0  0  0  0  0  0  0  0  0
    1.5052   -0.1761    0.0000 C   0  0  0  0  0  0  0  0  0  0  0  0
    1.9901    0.4912    0.0000 C   0  0  0  0  0  0  0  0  0  0  0  0
   -3.5661   -1.5712    0.0000 O   0  0  0  0  0  0  0  0  0  0  0  0
   -0.7083   -2.3962    0.0000 Cl  0  0  0  0  0  0  0  0  0  0  0  0
    1.5052    1.9837    0.0000 C   0  0  0  0  0  0  0  0  0  0  0  0
    0.7907    2.3962    0.0000 C   0  0  0  0  0  0  0  0  0  0  0  0
    2.2197    2.3962    0.0000 O   0  0  0  0  0  0  0  0  0  0  0  0
    2.2197    1.5712    0.0000 O   0  0  0  0  0  0  0  0  0  0  0  0
    0.7206    1.7287    0.0000 C   0  0  0  0  0  0  0  0  0  0  0  0
   -1.4227    0.4912    0.0000 C   0  0  0  0  0  0  0  0  0  0  0  0
   -2.8516    0.4912    0.0000 C   0  0  0  0  0  0  0  0  0  0  0  0
   -1.9236    0.8756    0.0000 H   0  0  0  0  0  0  0  0  0  0  0  0
   -3.6486   -0.1202    0.0000 H   0  0  0  0  0  0  0  0  0  0  0  0
   -0.7083   -0.7462    0.0000 H   0  0  0  0  0  0  0  0  0  0  0  0
    0.7206   -0.7462    0.0000 H   0  0  0  0  0  0  0  0  0  0  0  0
    0.0062    0.4912    0.0000 H   0  0  0  0  0  0  0  0  0  0  0  0
    2.9341    1.1587    0.0000 C   0  0  0  0  0  0  0  0  0  0  0  0
    3.6486    1.5712    0.0000 C   0  0  0  0  0  0  0  0  0  0  0  0
    2.9341    0.3337    0.0000 O   0  0  0  0  0  0  0  0  0  0  0  0
  1  2  1  0  0  0  0
  2  3  1  0  0  0  0
  3  4  1  0  0  0  0
  4  5  2  0  0  0  0
  1  6  1  0  0  0  0
  7  6  1  0  0  0  0
  6  5  1  0  0  0  0
  5  8  1  0  0  0  0
  8  9  2  0  0  0  0
  9 10  1  0  0  0  0
 10 13  1  0  0  0  0
  7 10  1  0  0  0  0
 12  7  1  0  0  0  0
 11 12  1  0  0  0  0
 11 14  1  0  0  0  0
 15 14  1  0  0  0  0
 14 13  1  0  0  0  0
 13 16  1  0  0  0  0
 16 17  1  0  0  0  0
 15 17  1  0  0  0  0
  3 18  2  0  0  0  0
  8 19  1  0  0  0  0
 15 20  1  0  0  0  0
 20 21  1  0  0  0  0
 20 22  2  0  0  0  0
 15 23  1  6  0  0  0
 14 24  1  1  0  0  0
  6 25  1  1  0  0  0
  2 26  1  0  0  0  0
  1 26  1  0  0  0  0
  1 27  1  1  0  0  0
  2 28  1  1  0  0  0
  7 29  1  6  0  0  0
 13 30  1  6  0  0  0
 10 31  1  1  0  0  0
 23 32  1  0  0  0  0
 32 33  1  0  0  0  0
 32 34  2  0  0  0  0
M  END
> <DATABASE_ID>
DB04839

> <DATABASE_NAME>
drugbank

> <SMILES>
[H][C@@]12C[C@]1([H])[C@@]1(C)C(=CC2=O)C(Cl)=C[C@@]2([H])[C@]3([H])CC[C@](OC(C)=O)(C(C)=O)[C@@]3(C)CC[C@]12[H]

> <INCHI_IDENTIFIER>
InChI=1S/C24H29ClO4/c1-12(26)24(29-13(2)27)8-6-16-14-10-20(25)19-11-21(28)15-9-18(15)23(19,4)17(14)5-7-22(16,24)3/h10-11,14-18H,5-9H2,1-4H3/t14-,15+,16-,17-,18-,22-,23-,24-/m0/s1

> <INCHI_KEY>
UWFYSQMTEOIJJG-FDTZYFLXSA-N

> <FORMULA>
C24H29ClO4

> <MOLECULAR_WEIGHT>
416.938

> <EXACT_MASS>
416.175437123

> <JCHEM_ACCEPTOR_COUNT>
3

> <JCHEM_ATOM_COUNT>
58

> <JCHEM_AVERAGE_POLARIZABILITY>
44.64003432789231

> <JCHEM_BIOAVAILABILITY>
1

> <JCHEM_DONOR_COUNT>
0

> <JCHEM_FORMAL_CHARGE>
0

> <JCHEM_GHOSE_FILTER>
1

> <JCHEM_IUPAC>
(1S,2S,3S,5R,11R,12S,15R,16S)-15-acetyl-9-chloro-2,16-dimethyl-6-oxopentacyclo[9.7.0.0^{2,8}.0^{3,5}.0^{12,16}]octadeca-7,9-dien-15-yl acetate

> <ALOGPS_LOGP>
3.81

> <JCHEM_LOGP>
3.6388569373333333

> <ALOGPS_LOGS>
-5.44

> <JCHEM_MDDR_LIKE_RULE>
0

> <JCHEM_NUMBER_OF_RINGS>
5

> <JCHEM_PHYSIOLOGICAL_CHARGE>
0

> <JCHEM_PKA_STRONGEST_ACIDIC>
17.829681246045016

> <JCHEM_PKA_STRONGEST_BASIC>
-5.60002622848816

> <JCHEM_POLAR_SURFACE_AREA>
60.440000000000005

> <JCHEM_REFRACTIVITY>
111.80949999999997

> <JCHEM_ROTATABLE_BOND_COUNT>
3

> <JCHEM_RULE_OF_FIVE>
1

> <ALOGPS_SOLUBILITY>
1.52e-03 g/l

> <JCHEM_TRADITIONAL_IUPAC>
(1S,2S,3S,5R,11R,12S,15R,16S)-15-acetyl-9-chloro-2,16-dimethyl-6-oxopentacyclo[9.7.0.0^{2,8}.0^{3,5}.0^{12,16}]octadeca-7,9-dien-15-yl acetate

> <JCHEM_VEBER_RULE>
0

> <DRUGBANK_ID>
DB04839

> <DRUG_GROUPS>
approved; investigational

> <GENERIC_NAME>
Cyproterone acetate

> <SYNONYMS>
Cyproterone 17-O-acetate; Cyproterone acetate

> <PRODUCTS>
Alti-cpa; Androcur; Androcur Depot; ClÃ©o -35; Cyestra-35; Cyproterone; Diane-35; Med-cyproterone; Mylan-cyproterone; Mylan-cyproterone / Ethinylestradiol; Novo-cyproterone; Riva-cyproterone; Riva-cyproterone 50 mg; Taro-cyproterone/ethinyl Estradiol; Teva-cyproterone / Ethinyl Estradiol

> <INTERNATIONAL_BRANDS>
Cyprostat

$$$$
