
  Mrv1909 11202017402D          

164178  0  0  0  0            999 V2000
   -1.3597   -6.7126    0.0000 C   0  0  2  0  0  0  0  0  0  0  0  0
   -1.3597   -7.5325    0.0000 C   0  0  2  0  0  0  0  0  0  0  0  0
   -0.6472   -7.9263    0.0000 C   0  0  1  0  0  0  0  0  0  0  0  0
    0.0653   -7.5325    0.0000 C   0  0  2  0  0  0  0  0  0  0  0  0
    0.0653   -6.7126    0.0000 C   0  0  1  0  0  0  0  0  0  0  0  0
   -0.6472   -6.2940    0.0000 O   0  0  0  0  0  0  0  0  0  0  0  0
   -3.2458   -3.7848    0.0000 C   0  0  2  0  0  0  0  0  0  0  0  0
   -3.2458   -4.6050    0.0000 C   0  0  2  0  0  0  0  0  0  0  0  0
   -2.5252   -5.0150    0.0000 C   0  0  1  0  0  0  0  0  0  0  0  0
   -1.8209   -4.6050    0.0000 C   0  0  2  0  0  0  0  0  0  0  0  0
   -1.8209   -3.7848    0.0000 C   0  0  1  0  0  0  0  0  0  0  0  0
   -2.5252   -3.3828    0.0000 O   0  0  0  0  0  0  0  0  0  0  0  0
    0.7625   -3.4197    0.0000 C   0  0  2  0  0  0  0  0  0  0  0  0
    0.0468   -3.8407    0.0000 C   0  0  2  0  0  0  0  0  0  0  0  0
    0.0627   -4.6523    0.0000 C   0  0  1  0  0  0  0  0  0  0  0  0
    0.7639   -5.0516    0.0000 C   0  0  2  0  0  0  0  0  0  0  0  0
    1.4715   -4.6471    0.0000 C   0  0  1  0  0  0  0  0  0  0  0  0
    1.4779   -3.8271    0.0000 O   0  0  0  0  0  0  0  0  0  0  0  0
    2.1817   -5.0547    0.0000 O   0  0  0  0  0  0  0  0  0  0  0  0
    9.2842   -0.9636    0.0000 O   0  0  0  0  0  0  0  0  0  0  0  0
    9.9895   -1.3654    0.0000 C   0  0  0  0  0  0  0  0  0  0  0  0
    9.9895   -2.1691    0.0000 O   0  0  0  0  0  0  0  0  0  0  0  0
   10.6865   -0.9636    0.0000 C   0  0  0  0  0  0  0  0  0  0  0  0
   11.3919   -1.3573    0.0000 C   0  0  0  0  0  0  0  0  0  0  0  0
   11.4000   -1.9970    0.0000 C   0  0  0  0  0  0  0  0  0  0  0  0
   10.6867   -0.1517    0.0000 C   0  0  0  0  0  0  0  0  0  0  0  0
    8.5716   -1.3654    0.0000 C   0  0  1  0  0  0  0  0  0  0  0  0
    8.5716   -2.1854    0.0000 C   0  0  2  0  0  0  0  0  0  0  0  0
    9.3007   -2.6038    0.0000 O   0  0  0  0  0  0  0  0  0  0  0  0
   10.0624   -3.0384    0.0000 C   0  0  0  0  0  0  0  0  0  0  0  0
   10.0950   -3.8177    0.0000 O   0  0  0  0  0  0  0  0  0  0  0  0
    7.1529   -1.3654    0.0000 C   0  0  0  0  0  0  0  0  0  0  0  0
    7.1529   -2.1854    0.0000 C   0  0  0  0  0  0  0  0  0  0  0  0
    7.8653   -2.6036    0.0000 C   0  0  1  0  0  0  0  0  0  0  0  0
    7.8653   -0.9636    0.0000 C   0  0  0  0  0  0  0  0  0  0  0  0
    6.4377   -2.6038    0.0000 C   0  0  0  0  0  0  0  0  0  0  0  0
    6.4377   -3.4156    0.0000 C   0  0  1  0  0  0  0  0  0  0  0  0
    7.1501   -3.8177    0.0000 C   0  0  0  0  0  0  0  0  0  0  0  0
    7.8625   -3.4156    0.0000 C   0  0  1  0  0  0  0  0  0  0  0  0
    5.0207   -2.6038    0.0000 C   0  0  0  0  0  0  0  0  0  0  0  0
    5.0207   -3.4156    0.0000 C   0  0  0  0  0  0  0  0  0  0  0  0
    5.7333   -3.8177    0.0000 C   0  0  1  0  0  0  0  0  0  0  0  0
    5.7333   -2.1854    0.0000 C   0  0  0  0  0  0  0  0  0  0  0  0
    4.3073   -3.8257    0.0000 C   0  0  2  0  0  0  0  0  0  0  0  0
    4.3073   -4.6459    0.0000 C   0  0  0  0  0  0  0  0  0  0  0  0
    5.0280   -5.0478    0.0000 C   0  0  0  0  0  0  0  0  0  0  0  0
    5.7404   -4.6459    0.0000 C   0  0  0  0  0  0  0  0  0  0  0  0
    2.8965   -3.8257    0.0000 C   0  0  0  0  0  0  0  0  0  0  0  0
    2.8965   -4.6459    0.0000 C   0  0  0  0  0  0  0  0  0  0  0  0
    3.6091   -5.0478    0.0000 C   0  0  1  0  0  0  0  0  0  0  0  0
    3.6091   -3.4156    0.0000 C   0  0  0  0  0  0  0  0  0  0  0  0
    2.8803   -5.4495    0.0000 C   0  0  0  0  0  0  0  0  0  0  0  0
    4.1840   -5.6217    0.0000 C   0  0  0  0  0  0  0  0  0  0  0  0
    4.1760   -6.4337    0.0000 O   0  0  0  0  0  0  0  0  0  0  0  0
    4.3073   -3.0138    0.0000 C   0  0  0  0  0  0  0  0  0  0  0  0
    5.7259   -3.0056    0.0000 C   0  0  0  0  0  0  0  0  0  0  0  0
    6.4312   -4.2276    0.0000 C   0  0  0  0  0  0  0  0  0  0  0  0
    8.5636   -3.8257    0.0000 O   0  0  0  0  0  0  0  0  0  0  0  0
    8.5307   -3.1697    0.0000 C   0  0  0  0  0  0  0  0  0  0  0  0
    9.1540   -3.1697    0.0000 O   0  0  0  0  0  0  0  0  0  0  0  0
    7.1448   -0.5616    0.0000 C   0  0  0  0  0  0  0  0  0  0  0  0
    8.4405   -0.3812    0.0000 C   0  0  0  0  0  0  0  0  0  0  0  0
   10.7369   -2.6448    0.0000 C   0  0  0  0  0  0  0  0  0  0  0  0
    1.4696   -5.4576    0.0000 H   0  0  0  0  0  0  0  0  0  0  0  0
    0.7479   -2.6119    0.0000 C   0  0  0  0  0  0  0  0  0  0  0  0
    0.0426   -2.2019    0.0000 O   0  0  0  0  0  0  0  0  0  0  0  0
    1.4615   -2.1938    0.0000 O   0  0  0  0  0  0  0  0  0  0  0  0
    0.7644   -6.2942    0.0000 O   0  0  0  0  0  0  0  0  0  0  0  0
   -0.5068   -5.0231    0.0000 O   0  0  0  0  0  0  0  0  0  0  0  0
   -0.8840   -3.3255    0.0000 O   0  0  0  0  0  0  0  0  0  0  0  0
   -1.8271   -2.9809    0.0000 H   0  0  0  0  0  0  0  0  0  0  0  0
   -1.3514   -4.9329    0.0000 O   0  0  0  0  0  0  0  0  0  0  0  0
   -2.5486   -5.8266    0.0000 O   0  0  0  0  0  0  0  0  0  0  0  0
   -3.9594   -5.0150    0.0000 O   0  0  0  0  0  0  0  0  0  0  0  0
   -3.9594   -3.3828    0.0000 C   0  0  0  0  0  0  0  0  0  0  0  0
   -4.6811   -3.6618    0.0000 O   0  0  0  0  0  0  0  0  0  0  0  0
    0.7644   -7.9345    0.0000 O   0  0  0  0  0  0  0  0  0  0  0  0
   -0.6542   -8.7463    0.0000 O   0  0  0  0  0  0  0  0  0  0  0  0
   -2.0732   -7.9263    0.0000 O   0  0  0  0  0  0  0  0  0  0  0  0
   -1.9255   -6.3599    0.0000 C   0  0  0  0  0  0  0  0  0  0  0  0
   -2.5651   -6.6959    0.0000 O   0  0  0  0  0  0  0  0  0  0  0  0
    0.7644   -7.1145    0.0000 H   0  0  0  0  0  0  0  0  0  0  0  0
   -8.0131    2.0708    0.0000 C   0  0  2  0  0  0  0  0  0  0  0  0
   -8.0131    1.2342    0.0000 C   0  0  2  0  0  0  0  0  0  0  0  0
   -7.2924    0.8241    0.0000 C   0  0  1  0  0  0  0  0  0  0  0  0
   -6.5635    1.2342    0.0000 C   0  0  2  0  0  0  0  0  0  0  0  0
   -6.5635    2.0708    0.0000 C   0  0  1  0  0  0  0  0  0  0  0  0
   -7.2924    2.4971    0.0000 O   0  0  0  0  0  0  0  0  0  0  0  0
   -9.9404    5.0478    0.0000 C   0  0  2  0  0  0  0  0  0  0  0  0
   -9.9404    4.2113    0.0000 C   0  0  2  0  0  0  0  0  0  0  0  0
   -9.2113    3.8011    0.0000 C   0  0  1  0  0  0  0  0  0  0  0  0
   -8.4826    4.2113    0.0000 C   0  0  2  0  0  0  0  0  0  0  0  0
   -8.4826    5.0478    0.0000 C   0  0  1  0  0  0  0  0  0  0  0  0
   -9.2113    5.4659    0.0000 O   0  0  0  0  0  0  0  0  0  0  0  0
   -5.8498    5.4127    0.0000 C   0  0  2  0  0  0  0  0  0  0  0  0
   -6.5737    4.9999    0.0000 C   0  0  2  0  0  0  0  0  0  0  0  0
   -6.5660    4.1635    0.0000 C   0  0  1  0  0  0  0  0  0  0  0  0
   -5.8485    3.7564    0.0000 C   0  0  2  0  0  0  0  0  0  0  0  0
   -5.1327    4.1690    0.0000 C   0  0  1  0  0  0  0  0  0  0  0  0
   -5.1263    5.0054    0.0000 O   0  0  0  0  0  0  0  0  0  0  0  0
   -4.3978    3.7532    0.0000 O   0  0  0  0  0  0  0  0  0  0  0  0
    2.8357    7.9263    0.0000 O   0  0  0  0  0  0  0  0  0  0  0  0
    3.5575    7.5244    0.0000 C   0  0  0  0  0  0  0  0  0  0  0  0
    3.5575    6.6961    0.0000 O   0  0  0  0  0  0  0  0  0  0  0  0
    4.2710    7.9345    0.0000 C   0  0  0  0  0  0  0  0  0  0  0  0
    4.9845    7.5244    0.0000 C   0  0  0  0  0  0  0  0  0  0  0  0
    5.5587    7.9591    0.0000 C   0  0  0  0  0  0  0  0  0  0  0  0
    4.2629    8.7463    0.0000 C   0  0  0  0  0  0  0  0  0  0  0  0
    2.1150    7.5081    0.0000 C   0  0  1  0  0  0  0  0  0  0  0  0
    2.1150    6.6796    0.0000 C   0  0  2  0  0  0  0  0  0  0  0  0
    2.8604    6.2533    0.0000 O   0  0  0  0  0  0  0  0  0  0  0  0
    3.6386    5.8022    0.0000 C   0  0  0  0  0  0  0  0  0  0  0  0
    3.6630    5.0150    0.0000 O   0  0  0  0  0  0  0  0  0  0  0  0
    0.6634    7.5081    0.0000 C   0  0  0  0  0  0  0  0  0  0  0  0
    0.6634    6.6796    0.0000 C   0  0  0  0  0  0  0  0  0  0  0  0
    1.3925    6.2615    0.0000 C   0  0  1  0  0  0  0  0  0  0  0  0
    1.3925    7.9263    0.0000 C   0  0  0  0  0  0  0  0  0  0  0  0
   -0.0600    6.2533    0.0000 C   0  0  0  0  0  0  0  0  0  0  0  0
   -0.0600    5.4332    0.0000 C   0  0  1  0  0  0  0  0  0  0  0  0
    0.6606    5.0150    0.0000 C   0  0  0  0  0  0  0  0  0  0  0  0
    1.3895    5.4332    0.0000 C   0  0  1  0  0  0  0  0  0  0  0  0
   -1.5096    6.2533    0.0000 C   0  0  0  0  0  0  0  0  0  0  0  0
   -1.5096    5.4332    0.0000 C   0  0  0  0  0  0  0  0  0  0  0  0
   -0.7889    5.0150    0.0000 C   0  0  1  0  0  0  0  0  0  0  0  0
   -0.7889    6.6796    0.0000 C   0  0  0  0  0  0  0  0  0  0  0  0
   -2.2314    4.9986    0.0000 C   0  0  2  0  0  0  0  0  0  0  0  0
   -2.2314    4.1701    0.0000 C   0  0  0  0  0  0  0  0  0  0  0  0
   -1.5024    3.7602    0.0000 C   0  0  0  0  0  0  0  0  0  0  0  0
   -0.7898    4.1701    0.0000 C   0  0  0  0  0  0  0  0  0  0  0  0
   -3.6749    4.9986    0.0000 C   0  0  0  0  0  0  0  0  0  0  0  0
   -3.6749    4.1701    0.0000 C   0  0  0  0  0  0  0  0  0  0  0  0
   -2.9540    3.7602    0.0000 C   0  0  1  0  0  0  0  0  0  0  0  0
   -2.9540    5.4332    0.0000 C   0  0  0  0  0  0  0  0  0  0  0  0
   -3.6913    3.3501    0.0000 C   0  0  0  0  0  0  0  0  0  0  0  0
   -2.3627    3.1780    0.0000 C   0  0  0  0  0  0  0  0  0  0  0  0
   -2.3707    2.3495    0.0000 O   0  0  0  0  0  0  0  0  0  0  0  0
   -2.2314    5.8431    0.0000 C   0  0  0  0  0  0  0  0  0  0  0  0
   -0.7963    5.8433    0.0000 C   0  0  0  0  0  0  0  0  0  0  0  0
   -0.0663    4.5887    0.0000 C   0  0  0  0  0  0  0  0  0  0  0  0
    2.1069    5.0067    0.0000 O   0  0  0  0  0  0  0  0  0  0  0  0
    2.0741    5.6792    0.0000 C   0  0  0  0  0  0  0  0  0  0  0  0
    2.7057    5.6792    0.0000 O   0  0  0  0  0  0  0  0  0  0  0  0
    0.6553    8.3444    0.0000 C   0  0  0  0  0  0  0  0  0  0  0  0
    1.9757    8.5249    0.0000 C   0  0  0  0  0  0  0  0  0  0  0  0
    4.3211    6.2124    0.0000 C   0  0  0  0  0  0  0  0  0  0  0  0
   -5.1346    3.3499    0.0000 H   0  0  0  0  0  0  0  0  0  0  0  0
   -5.8644    6.2451    0.0000 C   0  0  0  0  0  0  0  0  0  0  0  0
   -6.5861    6.6714    0.0000 O   0  0  0  0  0  0  0  0  0  0  0  0
   -5.1426    6.6716    0.0000 O   0  0  0  0  0  0  0  0  0  0  0  0
   -5.8481    2.4891    0.0000 O   0  0  0  0  0  0  0  0  0  0  0  0
   -7.1439    3.7848    0.0000 O   0  0  0  0  0  0  0  0  0  0  0  0
   -7.5291    5.5233    0.0000 O   0  0  0  0  0  0  0  0  0  0  0  0
   -8.4888    5.8760    0.0000 H   0  0  0  0  0  0  0  0  0  0  0  0
   -8.0048    3.8751    0.0000 O   0  0  0  0  0  0  0  0  0  0  0  0
   -9.2267    2.9728    0.0000 O   0  0  0  0  0  0  0  0  0  0  0  0
  -10.6620    3.8011    0.0000 O   0  0  0  0  0  0  0  0  0  0  0  0
  -10.6620    5.4578    0.0000 C   0  0  0  0  0  0  0  0  0  0  0  0
  -11.4000    5.1626    0.0000 O   0  0  0  0  0  0  0  0  0  0  0  0
   -5.8481    0.8241    0.0000 O   0  0  0  0  0  0  0  0  0  0  0  0
   -7.2996    0.0040    0.0000 O   0  0  0  0  0  0  0  0  0  0  0  0
   -8.7512    0.8241    0.0000 O   0  0  0  0  0  0  0  0  0  0  0  0
   -8.5870    2.4316    0.0000 C   0  0  0  0  0  0  0  0  0  0  0  0
   -9.2433    2.0872    0.0000 O   0  0  0  0  0  0  0  0  0  0  0  0
   -5.8481    1.6525    0.0000 H   0  0  0  0  0  0  0  0  0  0  0  0
 14 70  1  6  0  0  0
 70 11  1  0  0  0  0
 34 28  1  0  0  0  0
 11 71  1  6  0  0  0
 27 35  1  0  0  0  0
 10 72  1  6  0  0  0
 36 37  1  0  0  0  0
  9 73  1  1  0  0  0
 15 16  1  0  0  0  0
  8 74  1  6  0  0  0
 16 17  1  0  0  0  0
  7 75  1  1  0  0  0
 17 18  1  0  0  0  0
 75 76  1  0  0  0  0
 68  5  1  0  0  0  0
  1  6  1  0  0  0  0
  4 77  1  6  0  0  0
 36 33  1  0  0  0  0
  3 78  1  1  0  0  0
 37 38  1  0  0  0  0
  2 79  1  6  0  0  0
 38 39  1  0  0  0  0
  1 80  1  1  0  0  0
 39 34  1  0  0  0  0
 80 81  1  0  0  0  0
 40 41  1  0  0  0  0
  5 82  1  6  0  0  0
 17 19  1  0  0  0  0
  2  3  1  0  0  0  0
  3  4  1  0  0  0  0
 20 21  1  0  0  0  0
 40 43  1  0  0  0  0
 41 42  1  0  0  0  0
 42 37  1  0  0  0  0
 36 43  2  0  0  0  0
 44 45  1  0  0  0  0
  7 12  1  0  0  0  0
 21 22  2  0  0  0  0
  8  9  1  0  0  0  0
 21 23  1  0  0  0  0
 44 41  1  0  0  0  0
 45 46  1  0  0  0  0
 46 47  1  0  0  0  0
 47 42  1  0  0  0  0
 48 49  1  0  0  0  0
  9 10  1  0  0  0  0
 23 24  2  0  0  0  0
 10 11  1  0  0  0  0
 24 25  1  0  0  0  0
 48 51  1  0  0  0  0
 49 50  1  0  0  0  0
 50 45  1  0  0  0  0
 44 51  1  0  0  0  0
 11 12  1  0  0  0  0
 50 52  1  6  0  0  0
 23 26  1  0  0  0  0
 50 53  1  1  0  0  0
 27 28  1  0  0  0  0
 53 54  1  0  0  0  0
 13 14  1  0  0  0  0
 44 55  1  1  0  0  0
  4  5  1  0  0  0  0
 42 56  1  1  0  0  0
  5  6  1  0  0  0  0
 37 57  1  6  0  0  0
  7  8  1  0  0  0  0
 39 58  1  6  0  0  0
 34 59  1  1  0  0  0
 27 20  1  1  0  0  0
 59 60  1  0  0  0  0
 28 29  1  6  0  0  0
 35 61  1  0  0  0  0
 29 30  1  0  0  0  0
 35 62  1  0  0  0  0
 30 31  2  0  0  0  0
 30 63  1  0  0  0  0
 49 19  1  0  0  0  0
 32 33  1  0  0  0  0
 17 64  1  6  0  0  0
 13 65  1  1  0  0  0
  1  2  1  0  0  0  0
 65 66  1  0  0  0  0
 13 18  1  0  0  0  0
 65 67  2  0  0  0  0
 14 15  1  0  0  0  0
 16 68  1  6  0  0  0
 32 35  1  0  0  0  0
 15 69  1  1  0  0  0
 33 34  1  0  0  0  0
 83 84  1  0  0  0  0
 83 88  1  0  0  0  0
 84 85  1  0  0  0  0
 85 86  1  0  0  0  0
 86 87  1  0  0  0  0
 87 88  1  0  0  0  0
 89 90  1  0  0  0  0
 89 94  1  0  0  0  0
 90 91  1  0  0  0  0
 91 92  1  0  0  0  0
 92 93  1  0  0  0  0
 93 94  1  0  0  0  0
 95 96  1  0  0  0  0
 95100  1  0  0  0  0
 96 97  1  0  0  0  0
 97 98  1  0  0  0  0
 98 99  1  0  0  0  0
 99100  1  0  0  0  0
 99101  1  0  0  0  0
102103  1  0  0  0  0
103104  2  0  0  0  0
103105  1  0  0  0  0
105106  2  0  0  0  0
106107  1  0  0  0  0
105108  1  0  0  0  0
109110  1  0  0  0  0
109102  1  1  0  0  0
110111  1  6  0  0  0
111112  1  0  0  0  0
112113  2  0  0  0  0
114115  1  0  0  0  0
114117  1  0  0  0  0
115116  1  0  0  0  0
116110  1  0  0  0  0
109117  1  0  0  0  0
118119  1  0  0  0  0
118115  1  0  0  0  0
119120  1  0  0  0  0
120121  1  0  0  0  0
121116  1  0  0  0  0
122123  1  0  0  0  0
122125  1  0  0  0  0
123124  1  0  0  0  0
124119  1  0  0  0  0
118125  2  0  0  0  0
126127  1  0  0  0  0
126123  1  0  0  0  0
127128  1  0  0  0  0
128129  1  0  0  0  0
129124  1  0  0  0  0
130131  1  0  0  0  0
130133  1  0  0  0  0
131132  1  0  0  0  0
132127  1  0  0  0  0
126133  1  0  0  0  0
132134  1  6  0  0  0
132135  1  1  0  0  0
135136  1  0  0  0  0
126137  1  1  0  0  0
124138  1  1  0  0  0
119139  1  6  0  0  0
121140  1  6  0  0  0
116141  1  1  0  0  0
141142  1  0  0  0  0
117143  1  0  0  0  0
117144  1  0  0  0  0
112145  1  0  0  0  0
131101  1  0  0  0  0
 99146  1  6  0  0  0
 95147  1  1  0  0  0
147148  1  0  0  0  0
147149  2  0  0  0  0
 98150  1  6  0  0  0
 97151  1  1  0  0  0
 96152  1  6  0  0  0
152 93  1  0  0  0  0
 93153  1  6  0  0  0
 92154  1  6  0  0  0
 91155  1  1  0  0  0
 90156  1  6  0  0  0
 89157  1  1  0  0  0
157158  1  0  0  0  0
150 87  1  0  0  0  0
 86159  1  6  0  0  0
 85160  1  1  0  0  0
 84161  1  6  0  0  0
 83162  1  1  0  0  0
162163  1  0  0  0  0
 87164  1  6  0  0  0
M  END
> <DATABASE_ID>
DB15907

> <DATABASE_NAME>
drugbank

> <SMILES>
[H][C@@]1(O[C@H]2[C@H](O)[C@@H](O[C@]3([H])O[C@H](CO)[C@@H](O)[C@H](O)[C@H]3O)[C@]([H])(OC3CC[C@@]4(C)C(CC[C@]5(C)C4CC=C4C6CC(C)(C)[C@@H](OC(=O)C(\C)=C/C)[C@H](OC(C)=O)[C@]6(CO)[C@H](O)C[C@@]54C)[C@@]3(C)CO)O[C@@H]2C(O)=O)O[C@H](CO)[C@@H](O)[C@H](O)[C@H]1O.[H][C@@]1(O[C@H]2[C@H](O)[C@@H](O[C@]3([H])O[C@H](CO)[C@@H](O)[C@H](O)[C@H]3O)[C@]([H])(OC3CC[C@@]4(C)C(CC[C@]5(C)C4CC=C4C6CC(C)(C)[C@@H](OC(=O)C(\C)=C\C)[C@H](OC(C)=O)[C@]6(CO)[C@H](O)C[C@@]54C)[C@@]3(C)CO)O[C@@H]2C(O)=O)O[C@H](CO)[C@@H](O)[C@H](O)[C@H]1O

> <INCHI_IDENTIFIER>
InChI=1S/2C55H86O24/c2*1-10-23(2)46(71)79-43-44(72-24(3)60)55(22-59)26(17-50(43,4)5)25-11-12-30-51(6)15-14-32(52(7,21-58)29(51)13-16-53(30,8)54(25,9)18-31(55)61)75-49-41(77-48-38(67)36(65)34(63)28(20-57)74-48)39(68)40(42(78-49)45(69)70)76-47-37(66)35(64)33(62)27(19-56)73-47/h2*10-11,26-44,47-49,56-59,61-68H,12-22H2,1-9H3,(H,69,70)/b23-10+;23-10-/t2*26?,27-,28-,29?,30?,31-,32?,33-,34-,35+,36+,37-,38-,39+,40+,41-,42+,43+,44+,47+,48+,49-,51+,52-,53-,54-,55+/m11/s1

> <INCHI_KEY>
YFESOSRPNPYODN-RSMWSHJLSA-N

> <FORMULA>
C110H172O48

> <MOLECULAR_WEIGHT>
2262.538

> <EXACT_MASS>
2261.101807298

> <JCHEM_ACCEPTOR_COUNT>
22

> <JCHEM_ATOM_COUNT>
330

> <JCHEM_AVERAGE_NEUTRAL_MICROSPECIES_CHARGE>
-0.9997989552927097

> <JCHEM_AVERAGE_POLARIZABILITY>
118.9878866142404

> <JCHEM_BIOAVAILABILITY>
0

> <JCHEM_DONOR_COUNT>
13

> <JCHEM_FORMAL_CHARGE>
0

> <JCHEM_GHOSE_FILTER>
0

> <JCHEM_IUPAC>
(2S,3S,4S,5R,6R)-6-{[(4S,6aR,6bS,8R,8aR,9R,10R,14bR)-9-(acetyloxy)-8-hydroxy-4,8a-bis(hydroxymethyl)-4,6a,6b,11,11,14b-hexamethyl-10-{[(2E)-2-methylbut-2-enoyl]oxy}-1,2,3,4,4a,5,6,6a,6b,7,8,8a,9,10,11,12,12a,14,14a,14b-icosahydropicen-3-yl]oxy}-4-hydroxy-3,5-bis({[(2S,3R,4S,5S,6R)-3,4,5-trihydroxy-6-(hydroxymethyl)oxan-2-yl]oxy})oxane-2-carboxylic acid; (2S,3S,4S,5R,6R)-6-{[(4S,6aR,6bS,8R,8aR,9R,10R,14bR)-9-(acetyloxy)-8-hydroxy-4,8a-bis(hydroxymethyl)-4,6a,6b,11,11,14b-hexamethyl-10-{[(2Z)-2-methylbut-2-enoyl]oxy}-1,2,3,4,4a,5,6,6a,6b,7,8,8a,9,10,11,12,12a,14,14a,14b-icosahydropicen-3-yl]oxy}-4-hydroxy-3,5-bis({[(2S,3R,4S,5S,6R)-3,4,5-trihydroxy-6-(hydroxymethyl)oxan-2-yl]oxy})oxane-2-carboxylic acid

> <ALOGPS_LOGP>
1.17

> <JCHEM_LOGP>
-0.8771895139999987

> <ALOGPS_LOGS>
-3.17

> <JCHEM_MDDR_LIKE_RULE>
1

> <JCHEM_NEUTRAL_CHARGE>
-1

> <JCHEM_NUMBER_OF_RINGS>
16

> <JCHEM_PHYSIOLOGICAL_CHARGE>
-1

> <JCHEM_PKA>
11.904149483257454

> <JCHEM_PKA_STRONGEST_ACIDIC>
3.3492294373675984

> <JCHEM_PKA_STRONGEST_BASIC>
-3.6483775957536886

> <JCHEM_POLAR_SURFACE_AREA>
388.0400000000001

> <JCHEM_REFRACTIVITY>
269.7838000000001

> <JCHEM_ROTATABLE_BOND_COUNT>
32

> <JCHEM_RULE_OF_FIVE>
0

> <ALOGPS_SOLUBILITY>
7.73e-01 g/l

> <JCHEM_TRADITIONAL_IUPAC>
acetylene

> <JCHEM_VEBER_RULE>
0

> <DRUGBANK_ID>
DB15907

> <DRUG_GROUPS>
experimental

> <GENERIC_NAME>
Escin

> <SYNONYMS>
Aescin

> <SALTS>
Escin sodium

$$$$
