
  Mrv1652310201622402D          

 28 31  0  0  1  0            999 V2000
    3.3523    1.9354    0.0000 C   0  0  0  0  0  0  0  0  0  0  0  0
    3.3523    1.1104    0.0000 C   0  0  0  0  0  0  0  0  0  0  0  0
    2.6378    0.6979    0.0000 C   0  0  0  0  0  0  0  0  0  0  0  0
    1.9233    1.1104    0.0000 C   0  0  0  0  0  0  0  0  0  0  0  0
    1.9233    1.9354    0.0000 C   0  0  0  0  0  0  0  0  0  0  0  0
    2.6378    2.3479    0.0000 C   0  0  0  0  0  0  0  0  0  0  0  0
    1.1387    2.1904    0.0000 C   0  0  0  0  0  0  0  0  0  0  0  0
    0.6538    1.5229    0.0000 C   0  0  0  0  0  0  0  0  0  0  0  0
    1.1387    0.8555    0.0000 S   0  0  0  0  0  0  0  0  0  0  0  0
   -0.1712    1.5229    0.0000 C   0  0  0  0  0  0  0  0  0  0  0  0
   -0.5837    2.2374    0.0000 C   0  0  0  0  0  0  0  0  0  0  0  0
   -1.4087    2.2374    0.0000 C   0  0  0  0  0  0  0  0  0  0  0  0
   -1.8212    2.9519    0.0000 C   0  0  0  0  0  0  0  0  0  0  0  0
   -1.4087    3.6664    0.0000 C   0  0  0  0  0  0  0  0  0  0  0  0
   -0.5837    3.6664    0.0000 C   0  0  0  0  0  0  0  0  0  0  0  0
   -0.1712    2.9519    0.0000 C   0  0  0  0  0  0  0  0  0  0  0  0
    0.6538    2.9519    0.0000 F   0  0  0  0  0  0  0  0  0  0  0  0
   -2.6462    2.9519    0.0000 C   0  0  1  0  0  0  0  0  0  0  0  0
   -3.0587    2.2374    0.0000 C   0  0  1  0  0  0  0  0  0  0  0  0
   -3.8837    2.2374    0.0000 C   0  0  2  0  0  0  0  0  0  0  0  0
   -4.2962    2.9519    0.0000 C   0  0  1  0  0  0  0  0  0  0  0  0
   -3.8837    3.6664    0.0000 C   0  0  2  0  0  0  0  0  0  0  0  0
   -3.0587    3.6664    0.0000 O   0  0  0  0  0  0  0  0  0  0  0  0
   -4.2962    4.3808    0.0000 C   0  0  0  0  0  0  0  0  0  0  0  0
   -5.1212    4.3808    0.0000 O   0  0  0  0  0  0  0  0  0  0  0  0
   -5.1212    2.9519    0.0000 O   0  0  0  0  0  0  0  0  0  0  0  0
   -4.2962    1.5229    0.0000 O   0  0  0  0  0  0  0  0  0  0  0  0
   -2.6462    1.5229    0.0000 O   0  0  0  0  0  0  0  0  0  0  0  0
  1  2  2  0  0  0  0
  2  3  1  0  0  0  0
  3  4  2  0  0  0  0
  4  5  1  0  0  0  0
  5  6  2  0  0  0  0
  1  6  1  0  0  0  0
  5  7  1  0  0  0  0
  7  8  2  0  0  0  0
  8  9  1  0  0  0  0
  4  9  1  0  0  0  0
  8 10  1  0  0  0  0
 10 11  1  0  0  0  0
 11 12  2  0  0  0  0
 12 13  1  0  0  0  0
 13 14  2  0  0  0  0
 14 15  1  0  0  0  0
 15 16  2  0  0  0  0
 11 16  1  0  0  0  0
 16 17  1  0  0  0  0
 18 13  1  1  0  0  0
 18 19  1  0  0  0  0
 19 20  1  0  0  0  0
 20 21  1  0  0  0  0
 21 22  1  0  0  0  0
 22 23  1  0  0  0  0
 18 23  1  0  0  0  0
 22 24  1  1  0  0  0
 24 25  1  0  0  0  0
 21 26  1  6  0  0  0
 20 27  1  1  0  0  0
 19 28  1  6  0  0  0
M  END
> <DATABASE_ID>
DB11698

> <DATABASE_NAME>
drugbank

> <SMILES>
OC[C@H]1O[C@H]([C@H](O)[C@@H](O)[C@@H]1O)C1=CC=C(F)C(CC2=CC3=CC=CC=C3S2)=C1

> <INCHI_IDENTIFIER>
InChI=1S/C21H21FO5S/c22-15-6-5-12(21-20(26)19(25)18(24)16(10-23)27-21)7-13(15)9-14-8-11-3-1-2-4-17(11)28-14/h1-8,16,18-21,23-26H,9-10H2/t16-,18-,19+,20-,21+/m1/s1

> <INCHI_KEY>
AHFWIQIYAXSLBA-RQXATKFSSA-N

> <FORMULA>
C21H21FO5S

> <MOLECULAR_WEIGHT>
404.45

> <EXACT_MASS>
404.109373113

> <JCHEM_ACCEPTOR_COUNT>
5

> <JCHEM_ATOM_COUNT>
49

> <JCHEM_AVERAGE_POLARIZABILITY>
40.70251059735369

> <JCHEM_BIOAVAILABILITY>
1

> <JCHEM_DONOR_COUNT>
4

> <JCHEM_FORMAL_CHARGE>
0

> <JCHEM_GHOSE_FILTER>
1

> <JCHEM_IUPAC>
(2S,3R,4R,5S,6R)-2-{3-[(1-benzothiophen-2-yl)methyl]-4-fluorophenyl}-6-(hydroxymethyl)oxane-3,4,5-triol

> <ALOGPS_LOGP>
2.49

> <JCHEM_LOGP>
2.4588850906666666

> <ALOGPS_LOGS>
-4.13

> <JCHEM_MDDR_LIKE_RULE>
0

> <JCHEM_NUMBER_OF_RINGS>
4

> <JCHEM_PHYSIOLOGICAL_CHARGE>
0

> <JCHEM_PKA>
13.460978726426944

> <JCHEM_PKA_STRONGEST_ACIDIC>
12.570859112601628

> <JCHEM_PKA_STRONGEST_BASIC>
-2.9791903690608255

> <JCHEM_POLAR_SURFACE_AREA>
90.15

> <JCHEM_REFRACTIVITY>
102.40809999999996

> <JCHEM_ROTATABLE_BOND_COUNT>
4

> <JCHEM_RULE_OF_FIVE>
1

> <ALOGPS_SOLUBILITY>
2.99e-02 g/l

> <JCHEM_TRADITIONAL_IUPAC>
(2S,3R,4R,5S,6R)-2-[3-(1-benzothiophen-2-ylmethyl)-4-fluorophenyl]-6-(hydroxymethyl)oxane-3,4,5-triol

> <JCHEM_VEBER_RULE>
0

> <DRUGBANK_ID>
DB11698

> <DRUG_GROUPS>
investigational

> <GENERIC_NAME>
Ipragliflozin

> <SYNONYMS>
Ipragliflozin

$$$$
