
  Mrv1652310211602592D          

 26 28  0  0  0  0            999 V2000
   -2.3310   -4.4025    0.0000 C   0  0  0  0  0  0  0  0  0  0  0  0
   -2.9441   -4.9545    0.0000 N   0  0  0  0  0  0  0  0  0  0  0  0
   -2.8579   -5.7750    0.0000 C   0  0  0  0  0  0  0  0  0  0  0  0
   -3.6116   -6.1106    0.0000 N   0  0  0  0  0  0  0  0  0  0  0  0
   -4.1636   -5.4975    0.0000 C   0  0  0  0  0  0  0  0  0  0  0  0
   -3.7511   -4.7830    0.0000 N   0  0  0  0  0  0  0  0  0  0  0  0
   -4.9841   -5.5837    0.0000 C   0  0  0  0  0  0  0  0  0  0  0  0
   -5.4690   -4.9163    0.0000 O   0  0  0  0  0  0  0  0  0  0  0  0
   -2.1434   -6.1875    0.0000 N   0  0  0  0  0  0  0  0  0  0  0  0
   -1.4289   -5.7750    0.0000 C   0  0  0  0  0  0  0  0  0  0  0  0
   -0.7145   -6.1875    0.0000 C   0  0  0  0  0  0  0  0  0  0  0  0
    0.0000   -5.7750    0.0000 C   0  0  0  0  0  0  0  0  0  0  0  0
    0.7145   -6.1875    0.0000 O   0  0  0  0  0  0  0  0  0  0  0  0
    1.4289   -5.7750    0.0000 C   0  0  0  0  0  0  0  0  0  0  0  0
    1.4289   -4.9500    0.0000 C   0  0  0  0  0  0  0  0  0  0  0  0
    2.1434   -4.5375    0.0000 C   0  0  0  0  0  0  0  0  0  0  0  0
    2.8579   -4.9500    0.0000 C   0  0  0  0  0  0  0  0  0  0  0  0
    2.8579   -5.7750    0.0000 C   0  0  0  0  0  0  0  0  0  0  0  0
    2.1434   -6.1875    0.0000 C   0  0  0  0  0  0  0  0  0  0  0  0
    3.5724   -6.1875    0.0000 C   0  0  0  0  0  0  0  0  0  0  0  0
    4.2868   -5.7750    0.0000 N   0  0  0  0  0  0  0  0  0  0  0  0
    4.2868   -4.9500    0.0000 C   0  0  0  0  0  0  0  0  0  0  0  0
    5.0013   -4.5375    0.0000 C   0  0  0  0  0  0  0  0  0  0  0  0
    5.7158   -4.9500    0.0000 C   0  0  0  0  0  0  0  0  0  0  0  0
    5.7158   -5.7750    0.0000 C   0  0  0  0  0  0  0  0  0  0  0  0
    5.0013   -6.1875    0.0000 C   0  0  0  0  0  0  0  0  0  0  0  0
  1  2  1  0  0  0  0
  2  3  1  0  0  0  0
  3  4  2  0  0  0  0
  4  5  1  0  0  0  0
  5  6  2  0  0  0  0
  2  6  1  0  0  0  0
  5  7  1  0  0  0  0
  7  8  1  0  0  0  0
  3  9  1  0  0  0  0
  9 10  1  0  0  0  0
 10 11  1  0  0  0  0
 11 12  1  0  0  0  0
 12 13  1  0  0  0  0
 13 14  1  0  0  0  0
 14 15  2  0  0  0  0
 15 16  1  0  0  0  0
 16 17  2  0  0  0  0
 17 18  1  0  0  0  0
 18 19  2  0  0  0  0
 14 19  1  0  0  0  0
 18 20  1  0  0  0  0
 20 21  1  0  0  0  0
 21 22  1  0  0  0  0
 22 23  1  0  0  0  0
 23 24  1  0  0  0  0
 24 25  1  0  0  0  0
 25 26  1  0  0  0  0
 21 26  1  0  0  0  0
M  END
> <DATABASE_ID>
DB12884

> <DATABASE_NAME>
drugbank

> <SMILES>
CN1N=C(CO)N=C1NCCCOC1=CC=CC(CN2CCCCC2)=C1

> <INCHI_IDENTIFIER>
InChI=1S/C19H29N5O2/c1-23-19(21-18(15-25)22-23)20-9-6-12-26-17-8-5-7-16(13-17)14-24-10-3-2-4-11-24/h5,7-8,13,25H,2-4,6,9-12,14-15H2,1H3,(H,20,21,22)

> <INCHI_KEY>
VTLNPNNUIJHJQB-UHFFFAOYSA-N

> <FORMULA>
C19H29N5O2

> <MOLECULAR_WEIGHT>
359.474

> <EXACT_MASS>
359.232125194

> <JCHEM_ACCEPTOR_COUNT>
6

> <JCHEM_ATOM_COUNT>
55

> <JCHEM_AVERAGE_POLARIZABILITY>
41.31155095592193

> <JCHEM_BIOAVAILABILITY>
1

> <JCHEM_DONOR_COUNT>
2

> <JCHEM_FORMAL_CHARGE>
0

> <JCHEM_GHOSE_FILTER>
1

> <JCHEM_IUPAC>
{1-methyl-5-[(3-{3-[(piperidin-1-yl)methyl]phenoxy}propyl)amino]-1H-1,2,4-triazol-3-yl}methanol

> <ALOGPS_LOGP>
2.94

> <JCHEM_LOGP>
2.026130452666668

> <ALOGPS_LOGS>
-3.09

> <JCHEM_MDDR_LIKE_RULE>
1

> <JCHEM_NUMBER_OF_RINGS>
3

> <JCHEM_PHYSIOLOGICAL_CHARGE>
1

> <JCHEM_PKA>
19.775033400846226

> <JCHEM_PKA_STRONGEST_ACIDIC>
13.451417075574067

> <JCHEM_PKA_STRONGEST_BASIC>
8.743723460368575

> <JCHEM_POLAR_SURFACE_AREA>
75.44

> <JCHEM_REFRACTIVITY>
116.23149999999998

> <JCHEM_ROTATABLE_BOND_COUNT>
9

> <JCHEM_RULE_OF_FIVE>
1

> <ALOGPS_SOLUBILITY>
2.91e-01 g/l

> <JCHEM_TRADITIONAL_IUPAC>
loxtidine

> <JCHEM_VEBER_RULE>
0

> <DRUGBANK_ID>
DB12884

> <DRUG_GROUPS>
investigational

> <GENERIC_NAME>
Lavoltidine

> <SYNONYMS>
lavoltidina; Lavoltidine; Loxtidina

$$$$
