
  Mrv1909 10112215512D          

 19 22  0  0  0  0            999 V2000
    3.4623    2.3118    0.0000 C   0  0  0  0  0  0  0  0  0  0  0  0
    3.2997    1.5030    0.0000 C   0  0  0  0  0  0  0  0  0  0  0  0
    3.9189    0.9577    0.0000 C   0  0  0  0  0  0  0  0  0  0  0  0
    4.7006    1.2213    0.0000 C   0  0  0  0  0  0  0  0  0  0  0  0
    5.3198    0.6761    0.0000 C   0  0  0  0  0  0  0  0  0  0  0  0
    5.1571   -0.1327    0.0000 N   0  0  0  0  0  0  0  0  0  0  0  0
    4.3754   -0.3963    0.0000 C   0  0  0  0  0  0  0  0  0  0  0  0
    3.7562    0.1489    0.0000 C   0  0  0  0  0  0  0  0  0  0  0  0
    2.9745   -0.1146    0.0000 C   0  0  0  0  0  0  0  0  0  0  0  0
    2.8119   -0.9235    0.0000 C   0  0  0  0  0  0  0  0  0  0  0  0
    2.3553    0.4306    0.0000 C   0  0  0  0  0  0  0  0  0  0  0  0
    2.5180    1.2394    0.0000 C   0  0  0  0  0  0  0  0  0  0  0  0
    1.7990    1.6440    0.0000 N   0  0  0  0  0  0  0  0  0  0  0  0
    1.1920    1.0852    0.0000 C   0  0  0  0  0  0  0  0  0  0  0  0
    1.5359    0.3353    0.0000 C   0  0  0  0  0  0  0  0  0  0  0  0
    1.0583   -0.3374    0.0000 C   0  0  0  0  0  0  0  0  0  0  0  0
    0.2369   -0.2602    0.0000 C   0  0  0  0  0  0  0  0  0  0  0  0
   -0.1069    0.4897    0.0000 C   0  0  0  0  0  0  0  0  0  0  0  0
    0.3706    1.1624    0.0000 C   0  0  0  0  0  0  0  0  0  0  0  0
  1  2  1  0  0  0  0
  2  3  2  0  0  0  0
  3  4  1  0  0  0  0
  4  5  2  0  0  0  0
  5  6  1  0  0  0  0
  6  7  2  0  0  0  0
  7  8  1  0  0  0  0
  3  8  1  0  0  0  0
  8  9  2  0  0  0  0
  9 10  1  0  0  0  0
  9 11  1  0  0  0  0
 11 12  2  0  0  0  0
  2 12  1  0  0  0  0
 12 13  1  0  0  0  0
 13 14  1  0  0  0  0
 14 15  2  0  0  0  0
 11 15  1  0  0  0  0
 15 16  1  0  0  0  0
 16 17  2  0  0  0  0
 17 18  1  0  0  0  0
 18 19  2  0  0  0  0
 14 19  1  0  0  0  0
M  END
> <DATABASE_ID>
DB17026

> <DATABASE_NAME>
drugbank

> <SMILES>
CC1=C2C=CN=CC2=C(C)C2=C1NC1=C2C=CC=C1

> <INCHI_IDENTIFIER>
InChI=1S/C17H14N2/c1-10-14-9-18-8-7-12(14)11(2)17-16(10)13-5-3-4-6-15(13)19-17/h3-9,19H,1-2H3

> <INCHI_KEY>
CTSPAMFJBXKSOY-UHFFFAOYSA-N

> <FORMULA>
C17H14N2

> <MOLECULAR_WEIGHT>
246.313

> <EXACT_MASS>
246.115698459

> <JCHEM_ACCEPTOR_COUNT>
1

> <JCHEM_ATOM_COUNT>
33

> <JCHEM_AVERAGE_NEUTRAL_MICROSPECIES_CHARGE>
0.013113030138726557

> <JCHEM_AVERAGE_POLARIZABILITY>
28.246488824023814

> <JCHEM_BIOAVAILABILITY>
1

> <JCHEM_DONOR_COUNT>
1

> <JCHEM_FORMAL_CHARGE>
0

> <JCHEM_GHOSE_FILTER>
1

> <JCHEM_IUPAC>
5,11-dimethyl-6H-pyrido[4,3-b]carbazole

> <ALOGPS_LOGP>
4.34

> <JCHEM_LOGP>
3.8895327976666665

> <ALOGPS_LOGS>
-4.83

> <JCHEM_MDDR_LIKE_RULE>
0

> <JCHEM_NEUTRAL_CHARGE>
0

> <JCHEM_NUMBER_OF_RINGS>
4

> <JCHEM_PHYSIOLOGICAL_CHARGE>
0

> <JCHEM_PKA_STRONGEST_ACIDIC>
15.044886967101736

> <JCHEM_PKA_STRONGEST_BASIC>
5.123435947070323

> <JCHEM_POLAR_SURFACE_AREA>
28.68

> <JCHEM_REFRACTIVITY>
77.8479

> <JCHEM_ROTATABLE_BOND_COUNT>
0

> <JCHEM_RULE_OF_FIVE>
1

> <ALOGPS_SOLUBILITY>
3.64e-03 g/l

> <JCHEM_TRADITIONAL_IUPAC>
6-cyclopropaneamido-N-[hydroxy(2H2)methyl]-4-{[2-methoxy-3-(1-methyl-1,2,4-triazol-3-yl)phenyl]amino}pyridazine-3-carboxamide

> <JCHEM_VEBER_RULE>
1

> <DRUGBANK_ID>
DB17026

> <DRUG_GROUPS>
investigational

> <GENERIC_NAME>
Ellipticine

> <SYNONYMS>
5,11-dimethyl-6h-pyrido(4,3-b)carbazole

$$$$
