
  Mrv1909 12022220352D          

 21 21  0  0  0  0            999 V2000
    0.0000    4.1250    0.0000 C   0  0  0  0  0  0  0  0  0  0  0  0
    0.0000    3.3000    0.0000 C   0  0  0  0  0  0  0  0  0  0  0  0
   -0.8250    3.3000    0.0000 C   0  0  0  0  0  0  0  0  0  0  0  0
    0.8250    3.3000    0.0000 C   0  0  0  0  0  0  0  0  0  0  0  0
    0.0000    2.4750    0.0000 N   0  3  0  0  0  0  0  0  0  0  0  0
   -0.7145    2.0625    0.0000 O   0  5  0  0  0  0  0  0  0  0  0  0
    0.7145    2.0625    0.0000 C   0  0  0  0  0  0  0  0  0  0  0  0
    0.7145    1.2375    0.0000 C   0  0  0  0  0  0  0  0  0  0  0  0
    1.4289    0.8250    0.0000 C   0  0  0  0  0  0  0  0  0  0  0  0
    1.4289   -0.0000    0.0000 C   0  0  0  0  0  0  0  0  0  0  0  0
    0.7145   -0.4125    0.0000 C   0  0  0  0  0  0  0  0  0  0  0  0
    0.0000    0.0000    0.0000 C   0  0  0  0  0  0  0  0  0  0  0  0
    0.0000    0.8250    0.0000 C   0  0  0  0  0  0  0  0  0  0  0  0
    0.7145   -1.2375    0.0000 S   0  0  0  0  0  0  0  0  0  0  0  0
    0.7145   -2.0625    0.0000 O   0  0  0  0  0  0  0  0  0  0  0  0
   -0.1105   -1.2375    0.0000 O   0  0  0  0  0  0  0  0  0  0  0  0
    1.5395   -1.2375    0.0000 O   0  0  0  0  0  0  0  0  0  0  0  0
    2.1434    1.2375    0.0000 S   0  0  0  0  0  0  0  0  0  0  0  0
    2.8579    1.6500    0.0000 O   0  0  0  0  0  0  0  0  0  0  0  0
    2.5559    0.5230    0.0000 O   0  0  0  0  0  0  0  0  0  0  0  0
    1.7309    1.9520    0.0000 O   0  0  0  0  0  0  0  0  0  0  0  0
  1  2  1  0  0  0  0
  2  3  1  0  0  0  0
  2  4  1  0  0  0  0
  2  5  1  0  0  0  0
  5  6  1  0  0  0  0
  5  7  2  0  0  0  0
  7  8  1  0  0  0  0
  8  9  2  0  0  0  0
  9 10  1  0  0  0  0
 10 11  2  0  0  0  0
 11 12  1  0  0  0  0
 12 13  2  0  0  0  0
  8 13  1  0  0  0  0
 11 14  1  0  0  0  0
 14 15  1  0  0  0  0
 14 16  2  0  0  0  0
 14 17  2  0  0  0  0
  9 18  1  0  0  0  0
 18 19  1  0  0  0  0
 18 20  2  0  0  0  0
 18 21  2  0  0  0  0
M  CHG  2   5   1   6  -1
M  END
> <DATABASE_ID>
DB17298

> <DATABASE_NAME>
drugbank

> <SMILES>
CC(C)(C)[N+](\[O-])=C\C1=C(C=C(C=C1)S(O)(=O)=O)S(O)(=O)=O

> <INCHI_IDENTIFIER>
InChI=1S/C11H15NO7S2/c1-11(2,3)12(13)7-8-4-5-9(20(14,15)16)6-10(8)21(17,18)19/h4-7H,1-3H3,(H,14,15,16)(H,17,18,19)/b12-7-

> <INCHI_KEY>
OVTCHWSLKGENKP-GHXNOFRVSA-N

> <FORMULA>
C11H15NO7S2

> <MOLECULAR_WEIGHT>
337.36

> <EXACT_MASS>
337.028994175

> <JCHEM_ACCEPTOR_COUNT>
7

> <JCHEM_ATOM_COUNT>
36

> <JCHEM_AVERAGE_NEUTRAL_MICROSPECIES_CHARGE>
-1.682243031950279

> <JCHEM_AVERAGE_POLARIZABILITY>
31.54648634789814

> <JCHEM_BIOAVAILABILITY>
1

> <JCHEM_DONOR_COUNT>
2

> <JCHEM_FORMAL_CHARGE>
0

> <JCHEM_GHOSE_FILTER>
0

> <JCHEM_IUPAC>
(Z)-tert-butyl[(2,4-disulfophenyl)methylidene]oxidoazanium

> <ALOGPS_LOGP>
-2.11

> <JCHEM_LOGP>
-2.080781705805079

> <ALOGPS_LOGS>
-2.93

> <JCHEM_MDDR_LIKE_RULE>
0

> <JCHEM_NEUTRAL_CHARGE>
-2

> <JCHEM_NUMBER_OF_RINGS>
1

> <JCHEM_PHYSIOLOGICAL_CHARGE>
-2

> <JCHEM_PKA>
-1.9632476945069488

> <JCHEM_PKA_STRONGEST_ACIDIC>
-2.873912054561945

> <JCHEM_POLAR_SURFACE_AREA>
134.81

> <JCHEM_REFRACTIVITY>
78.10349999999998

> <JCHEM_ROTATABLE_BOND_COUNT>
4

> <JCHEM_RULE_OF_FIVE>
1

> <ALOGPS_SOLUBILITY>
3.98e-01 g/l

> <JCHEM_TRADITIONAL_IUPAC>
(Z)-tert-butyl[(2,4-disulfophenyl)methylidene]oxidoazanium

> <JCHEM_VEBER_RULE>
0

> <DRUGBANK_ID>
DB17298

> <DRUG_GROUPS>
investigational

> <GENERIC_NAME>
Disufenton

> <SYNONYMS>
1,3-benzenedisulfonic acid, 4-(((1,1-dimethylethyl)oxidoimino)methyl)-; 2,4-disulfonyl-.alpha.-phenyl-tert-butylnitrone; 4-(((1,1-dimethylethyl)imino)methyl)benzene-1,3-disulfonate n-oxide; 4-(((1,1-dimethylethyl)imino)methyl)benzene-1,3-disulphonate n-oxide; 4-(((1,1-dimethylethyl)oxidoimino)methyl)-1,3-benzenedisulfonic acid; 4-tert-butyliminomethyl)benzene-,3-disulfonate n-oxide; 4-tert-butyliminomethyl)benzene-,3-disulphonate n-oxide

> <SALTS>
Disufenton sodium

$$$$
