
  Mrv1652306231722422D          

 26 30  0  0  1  0            999 V2000
    4.3228    1.7357    0.0000 C   0  0  0  0  0  0  0  0  0  0  0  0
    3.9629    0.9934    0.0000 C   0  0  2  0  0  0  0  0  0  0  0  0
    3.4311    1.6241    0.0000 C   0  0  0  0  0  0  0  0  0  0  0  0
    2.6190    1.4789    0.0000 C   0  0  0  0  0  0  0  0  0  0  0  0
    2.3387    0.7029    0.0000 C   0  0  1  0  0  0  0  0  0  0  0  0
    2.8705    0.0722    0.0000 C   0  0  2  0  0  0  0  0  0  0  0  0
    3.6826    0.2174    0.0000 C   0  0  2  0  0  0  0  0  0  0  0  0
    4.3340   -0.2889    0.0000 C   0  0  0  0  0  0  0  0  0  0  0  0
    5.0168    0.1741    0.0000 C   0  0  0  0  0  0  0  0  0  0  0  0
    4.7875    0.9666    0.0000 C   0  0  2  0  0  0  0  0  0  0  0  0
    5.2939    1.6179    0.0000 O   0  0  0  0  0  0  0  0  0  0  0  0
    6.1111    1.5050    0.0000 C   0  0  0  0  0  0  0  0  0  0  0  0
    6.6828    2.0999    0.0000 C   0  0  0  0  0  0  0  0  0  0  0  0
    7.4251    1.7400    0.0000 C   0  0  0  0  0  0  0  0  0  0  0  0
    7.3123    0.9228    0.0000 C   0  0  0  0  0  0  0  0  0  0  0  0
    6.5002    0.7775    0.0000 C   0  0  0  0  0  0  0  0  0  0  0  0
    2.5902   -0.7037    0.0000 C   0  0  0  0  0  0  0  0  0  0  0  0
    1.7781   -0.8489    0.0000 C   0  0  0  0  0  0  0  0  0  0  0  0
    1.2463   -0.2182    0.0000 C   0  0  0  0  0  0  0  0  0  0  0  0
    0.4342   -0.3634    0.0000 C   0  0  0  0  0  0  0  0  0  0  0  0
   -0.0976    0.2673    0.0000 C   0  0  0  0  0  0  0  0  0  0  0  0
   -0.9098    0.1221    0.0000 O   0  0  0  0  0  0  0  0  0  0  0  0
    0.1827    1.0432    0.0000 C   0  0  0  0  0  0  0  0  0  0  0  0
    0.9948    1.1884    0.0000 C   0  0  0  0  0  0  0  0  0  0  0  0
    1.5266    0.5577    0.0000 C   0  0  2  0  0  0  0  0  0  0  0  0
    1.8069    1.3336    0.0000 C   0  0  0  0  0  0  0  0  0  0  0  0
  2  1  1  1  0  0  0
  2  3  1  0  0  0  0
  3  4  1  0  0  0  0
  5  4  1  1  0  0  0
  5  6  1  0  0  0  0
  6  7  1  0  0  0  0
  2  7  1  0  0  0  0
  7  8  1  1  0  0  0
  8  9  1  0  0  0  0
  9 10  1  0  0  0  0
  2 10  1  0  0  0  0
 10 11  1  1  0  0  0
 11 12  1  0  0  0  0
 12 13  2  0  0  0  0
 13 14  1  0  0  0  0
 14 15  1  0  0  0  0
 15 16  1  0  0  0  0
 12 16  1  0  0  0  0
  6 17  1  6  0  0  0
 17 18  1  0  0  0  0
 18 19  1  0  0  0  0
 19 20  2  0  0  0  0
 20 21  1  0  0  0  0
 21 22  2  0  0  0  0
 21 23  1  0  0  0  0
 23 24  2  0  0  0  0
 24 25  1  0  0  0  0
  5 25  1  0  0  0  0
 19 25  1  0  0  0  0
 25 26  1  1  0  0  0
M  END
> <DATABASE_ID>
DB13484

> <DATABASE_NAME>
drugbank

> <SMILES>
C[C@]12CC[C@H]3[C@@H](CCC4=CC(=O)C=C[C@]34C)[C@@H]1CC[C@@H]2OC1=CCCC1

> <INCHI_IDENTIFIER>
InChI=1S/C24H32O2/c1-23-13-11-17(25)15-16(23)7-8-19-20-9-10-22(26-18-5-3-4-6-18)24(20,2)14-12-21(19)23/h5,11,13,15,19-22H,3-4,6-10,12,14H2,1-2H3/t19-,20-,21-,22-,23-,24-/m0/s1

> <INCHI_KEY>
IUVKMZGDUIUOCP-BTNSXGMBSA-N

> <FORMULA>
C24H32O2

> <MOLECULAR_WEIGHT>
352.518

> <EXACT_MASS>
352.24023027

> <JCHEM_ACCEPTOR_COUNT>
2

> <JCHEM_ATOM_COUNT>
58

> <JCHEM_AVERAGE_POLARIZABILITY>
42.18614187219289

> <JCHEM_BIOAVAILABILITY>
1

> <JCHEM_DONOR_COUNT>
0

> <JCHEM_FORMAL_CHARGE>
0

> <JCHEM_GHOSE_FILTER>
1

> <JCHEM_IUPAC>
(1S,2R,10R,11S,14S,15S)-14-(cyclopent-1-en-1-yloxy)-2,15-dimethyltetracyclo[8.7.0.0^{2,7}.0^{11,15}]heptadeca-3,6-dien-5-one

> <ALOGPS_LOGP>
4.64

> <JCHEM_LOGP>
5.028818554666666

> <ALOGPS_LOGS>
-5.55

> <JCHEM_MDDR_LIKE_RULE>
0

> <JCHEM_NUMBER_OF_RINGS>
5

> <JCHEM_PHYSIOLOGICAL_CHARGE>
0

> <JCHEM_PKA_STRONGEST_ACIDIC>
18.863603573834954

> <JCHEM_PKA_STRONGEST_BASIC>
-4.572677695945815

> <JCHEM_POLAR_SURFACE_AREA>
26.3

> <JCHEM_REFRACTIVITY>
108.1809

> <JCHEM_ROTATABLE_BOND_COUNT>
2

> <JCHEM_RULE_OF_FIVE>
0

> <ALOGPS_SOLUBILITY>
1.00e-03 g/l

> <JCHEM_TRADITIONAL_IUPAC>
(1S,2R,10R,11S,14S,15S)-14-(cyclopent-1-en-1-yloxy)-2,15-dimethyltetracyclo[8.7.0.0^{2,7}.0^{11,15}]heptadeca-3,6-dien-5-one

> <JCHEM_VEBER_RULE>
1

> <DRUGBANK_ID>
DB13484

> <DRUG_GROUPS>
experimental

> <GENERIC_NAME>
Quinbolone

> <SYNONYMS>
Quinbolone

$$$$
