
  Mrv1909 01292018092D          

 29 28  0  0  0  0            999 V2000
   -2.2755    2.1149    0.0000 C   0  0  0  0  0  0  0  0  0  0  0  0
   -1.5610    2.5275    0.0000 C   0  0  0  0  0  0  0  0  0  0  0  0
   -0.8465    2.1149    0.0000 C   0  0  0  0  0  0  0  0  0  0  0  0
   -0.8465    1.2899    0.0000 C   0  0  0  0  0  0  0  0  0  0  0  0
   -1.5610    0.8775    0.0000 C   0  0  0  0  0  0  0  0  0  0  0  0
   -2.2755    1.2899    0.0000 C   0  0  0  0  0  0  0  0  0  0  0  0
   -1.5610    0.0524    0.0000 I   0  0  0  0  0  0  0  0  0  0  0  0
   -0.1320    2.5275    0.0000 C   0  0  0  0  0  0  0  0  0  0  0  0
    0.5823    2.1149    0.0000 N   0  0  0  0  0  0  0  0  0  0  0  0
    1.2968    2.5275    0.0000 C   0  0  0  0  0  0  0  0  0  0  0  0
    2.0113    2.1149    0.0000 N   0  0  0  0  0  0  0  0  0  0  0  0
    1.2968    3.3525    0.0000 N   0  0  0  0  0  0  0  0  0  0  0  0
    4.1068    0.3742    0.0000 S   0  0  0  0  0  0  0  0  0  0  0  0
    4.9318    0.3742    0.0000 O   0  0  0  0  0  0  0  0  0  0  0  0
    4.1124    1.1991    0.0000 O   0  0  0  0  0  0  0  0  0  0  0  0
    4.1068   -0.4507    0.0000 O   0  0  0  0  0  0  0  0  0  0  0  0
    3.2818    0.3742    0.0000 O   0  0  0  0  0  0  0  0  0  0  0  0
   -2.2755   -1.5233    0.0000 C   0  0  0  0  0  0  0  0  0  0  0  0
   -1.5610   -1.1108    0.0000 C   0  0  0  0  0  0  0  0  0  0  0  0
   -0.8465   -1.5233    0.0000 C   0  0  0  0  0  0  0  0  0  0  0  0
   -0.8465   -2.3484    0.0000 C   0  0  0  0  0  0  0  0  0  0  0  0
   -1.5610   -2.7608    0.0000 C   0  0  0  0  0  0  0  0  0  0  0  0
   -2.2755   -2.3484    0.0000 C   0  0  0  0  0  0  0  0  0  0  0  0
   -1.5610   -3.5858    0.0000 I   0  0  0  0  0  0  0  0  0  0  0  0
   -0.1320   -1.1108    0.0000 C   0  0  0  0  0  0  0  0  0  0  0  0
    0.5823   -1.5233    0.0000 N   0  0  0  0  0  0  0  0  0  0  0  0
    1.2968   -1.1108    0.0000 C   0  0  0  0  0  0  0  0  0  0  0  0
    2.0113   -1.5233    0.0000 N   0  0  0  0  0  0  0  0  0  0  0  0
    1.2968   -0.2858    0.0000 N   0  0  0  0  0  0  0  0  0  0  0  0
  5  6  2  0  0  0  0
  6  1  1  0  0  0  0
  1  2  2  0  0  0  0
  5  7  1  0  0  0  0
  3  8  1  0  0  0  0
  2  3  1  0  0  0  0
  8  9  1  0  0  0  0
  9 10  1  0  0  0  0
  3  4  2  0  0  0  0
 10 11  1  0  0  0  0
 10 12  2  0  0  0  0
  4  5  1  0  0  0  0
 13 14  1  0  0  0  0
 13 15  2  0  0  0  0
 13 16  2  0  0  0  0
 13 17  1  0  0  0  0
 23 18  1  0  0  0  0
 18 19  2  0  0  0  0
 19 20  1  0  0  0  0
 20 25  1  0  0  0  0
 20 21  2  0  0  0  0
 21 22  1  0  0  0  0
 22 23  2  0  0  0  0
 22 24  1  0  0  0  0
 25 26  1  0  0  0  0
 26 27  1  0  0  0  0
 27 28  1  0  0  0  0
 27 29  2  0  0  0  0
M  ISO  2   7 123  24 123
M  END
> <DATABASE_ID>
DB09546

> <DATABASE_NAME>
drugbank

> <SMILES>
OS(O)(=O)=O.NC(=N)NCC1=CC([123I])=CC=C1.NC(=N)NCC1=CC([123I])=CC=C1

> <INCHI_IDENTIFIER>
InChI=1S/2C8H10IN3.H2O4S/c2*9-7-3-1-2-6(4-7)5-12-8(10)11;1-5(2,3)4/h2*1-4H,5H2,(H4,10,11,12);(H2,1,2,3,4)/i2*9-4;

> <INCHI_KEY>
XNACDNPGABUBFR-FKNPGSCZSA-N

> <FORMULA>
C16H22I2N6O4S

> <MOLECULAR_WEIGHT>
640.26

> <EXACT_MASS>
639.953520274

> <JCHEM_ACCEPTOR_COUNT>
3

> <JCHEM_ATOM_COUNT>
51

> <JCHEM_AVERAGE_NEUTRAL_MICROSPECIES_CHARGE>
0.9999820823702288

> <JCHEM_AVERAGE_POLARIZABILITY>
21.905396396228344

> <JCHEM_BIOAVAILABILITY>
1

> <JCHEM_DONOR_COUNT>
3

> <JCHEM_FORMAL_CHARGE>
0

> <JCHEM_GHOSE_FILTER>
0

> <JCHEM_IUPAC>
bis(N-{[3-(¹²³I)iodophenyl]methyl}guanidine); sulfuric acid

> <ALOGPS_LOGP>
1.42

> <JCHEM_LOGP>
1.6941879796666663

> <ALOGPS_LOGS>
-3.44

> <JCHEM_MDDR_LIKE_RULE>
0

> <JCHEM_NEUTRAL_CHARGE>
1

> <JCHEM_NUMBER_OF_RINGS>
2

> <JCHEM_PHYSIOLOGICAL_CHARGE>
1

> <JCHEM_PKA_STRONGEST_BASIC>
11.746651842565164

> <JCHEM_POLAR_SURFACE_AREA>
61.9

> <JCHEM_REFRACTIVITY>
68.60849999999999

> <JCHEM_ROTATABLE_BOND_COUNT>
4

> <JCHEM_RULE_OF_FIVE>
0

> <ALOGPS_SOLUBILITY>
1.00e-01 g/l

> <JCHEM_TRADITIONAL_IUPAC>
fidaxomicin

> <JCHEM_VEBER_RULE>
0

> <DRUGBANK_ID>
DB09546

> <DRUG_GROUPS>
approved; investigational

> <GENERIC_NAME>
Iobenguane sulfate I-123

> <SYNONYMS>
Iobenguane sulfate I 123

> <PRODUCTS>
i 123 MIBG meta iodobenzylguanidine

$$$$
