
  Mrv1909 11242221292D          

 36 37  0  0  1  0            999 V2000
   -2.3138   -2.9749    0.0000 C   0  0  0  0  0  0  0  0  0  0  0  0
   -2.3138   -3.7999    0.0000 C   0  0  0  0  0  0  0  0  0  0  0  0
   -1.5994   -4.2124    0.0000 C   0  0  0  0  0  0  0  0  0  0  0  0
   -1.5994   -5.0374    0.0000 C   0  0  0  0  0  0  0  0  0  0  0  0
   -0.8849   -5.4499    0.0000 C   0  0  0  0  0  0  0  0  0  0  0  0
   -0.8849   -6.2749    0.0000 C   0  0  0  0  0  0  0  0  0  0  0  0
   -0.1704   -6.6874    0.0000 C   0  0  0  0  0  0  0  0  0  0  0  0
   -0.1704   -7.5124    0.0000 C   0  0  0  0  0  0  0  0  0  0  0  0
    0.5441   -7.9249    0.0000 C   0  0  0  0  0  0  0  0  0  0  0  0
    0.5441   -8.7499    0.0000 C   0  0  0  0  0  0  0  0  0  0  0  0
    1.2585   -9.1624    0.0000 C   0  0  0  0  0  0  0  0  0  0  0  0
    1.9730   -8.7499    0.0000 C   0  0  0  0  0  0  0  0  0  0  0  0
    2.6875   -9.1624    0.0000 C   0  0  0  0  0  0  0  0  0  0  0  0
    3.4019   -8.7499    0.0000 C   0  0  0  0  0  0  0  0  0  0  0  0
    4.1164   -9.1624    0.0000 C   0  0  0  0  0  0  0  0  0  0  0  0
    4.8309   -8.7499    0.0000 C   0  0  0  0  0  0  0  0  0  0  0  0
    5.5454   -9.1624    0.0000 C   0  0  0  0  0  0  0  0  0  0  0  0
    6.2598   -8.7499    0.0000 C   0  0  0  0  0  0  0  0  0  0  0  0
    6.2598   -7.9249    0.0000 O   0  0  0  0  0  0  0  0  0  0  0  0
    6.9743   -9.1624    0.0000 O   0  0  0  0  0  0  0  0  0  0  0  0
    7.6888   -8.7499    0.0000 C   0  0  0  0  0  0  0  0  0  0  0  0
    8.4032   -9.1624    0.0000 C   0  0  1  0  0  0  0  0  0  0  0  0
    9.1569   -8.8269    0.0000 O   0  0  0  0  0  0  0  0  0  0  0  0
    9.7089   -9.4400    0.0000 C   0  0  2  0  0  0  0  0  0  0  0  0
    9.2964  -10.1544    0.0000 C   0  0  2  0  0  0  0  0  0  0  0  0
    9.6320  -10.9081    0.0000 O   0  0  0  0  0  0  0  0  0  0  0  0
    8.4895   -9.9829    0.0000 C   0  0  2  0  0  0  0  0  0  0  0  0
    7.8764  -10.5349    0.0000 O   0  0  0  0  0  0  0  0  0  0  0  0
   10.5294   -9.3537    0.0000 N   0  0  0  0  0  0  0  0  0  0  0  0
   10.9419   -8.6393    0.0000 C   0  0  0  0  0  0  0  0  0  0  0  0
   11.7489   -8.8108    0.0000 N   0  0  0  0  0  0  0  0  0  0  0  0
   11.8351   -9.6313    0.0000 C   0  0  0  0  0  0  0  0  0  0  0  0
   11.0815   -9.9668    0.0000 N   0  0  0  0  0  0  0  0  0  0  0  0
   12.5496  -10.0438    0.0000 C   0  0  0  0  0  0  0  0  0  0  0  0
   13.2641   -9.6313    0.0000 N   0  0  0  0  0  0  0  0  0  0  0  0
   12.5496  -10.8688    0.0000 O   0  0  0  0  0  0  0  0  0  0  0  0
  1  2  1  0  0  0  0
  2  3  1  0  0  0  0
  3  4  1  0  0  0  0
  4  5  1  0  0  0  0
  5  6  1  0  0  0  0
  6  7  1  0  0  0  0
  7  8  1  0  0  0  0
  8  9  1  0  0  0  0
  9 10  2  0  0  0  0
 10 11  1  0  0  0  0
 11 12  1  0  0  0  0
 12 13  1  0  0  0  0
 13 14  1  0  0  0  0
 14 15  1  0  0  0  0
 15 16  1  0  0  0  0
 16 17  1  0  0  0  0
 17 18  1  0  0  0  0
 18 19  2  0  0  0  0
 18 20  1  0  0  0  0
 20 21  1  0  0  0  0
 22 21  1  1  0  0  0
 22 23  1  0  0  0  0
 24 23  1  0  0  0  0
 25 24  1  0  0  0  0
 25 26  1  6  0  0  0
 25 27  1  0  0  0  0
 27 22  1  0  0  0  0
 27 28  1  6  0  0  0
 24 29  1  1  0  0  0
 29 30  1  0  0  0  0
 30 31  2  0  0  0  0
 31 32  1  0  0  0  0
 32 33  2  0  0  0  0
 29 33  1  0  0  0  0
 32 34  1  0  0  0  0
 34 35  1  0  0  0  0
 34 36  2  0  0  0  0
M  END
> <DATABASE_ID>
DB17193

> <DATABASE_NAME>
drugbank

> <SMILES>
CCCCCCCC\C=C\CCCCCCCC(=O)OC[C@H]1O[C@H]([C@H](O)[C@@H]1O)N1C=NC(=N1)C(N)=O

> <INCHI_IDENTIFIER>
InChI=1S/C26H44N4O6/c1-2-3-4-5-6-7-8-9-10-11-12-13-14-15-16-17-21(31)35-18-20-22(32)23(33)26(36-20)30-19-28-25(29-30)24(27)34/h9-10,19-20,22-23,26,32-33H,2-8,11-18H2,1H3,(H2,27,34)/b10-9+/t20-,22-,23-,26-/m1/s1

> <INCHI_KEY>
HNJWVTLAOZFLEK-OOWZQQDUSA-N

> <FORMULA>
C26H44N4O6

> <MOLECULAR_WEIGHT>
508.66

> <EXACT_MASS>
508.326085153

> <JCHEM_ACCEPTOR_COUNT>
7

> <JCHEM_ATOM_COUNT>
80

> <JCHEM_AVERAGE_NEUTRAL_MICROSPECIES_CHARGE>
-1.7112514260110968e-05

> <JCHEM_AVERAGE_POLARIZABILITY>
58.368331080508625

> <JCHEM_BIOAVAILABILITY>
0

> <JCHEM_DONOR_COUNT>
3

> <JCHEM_FORMAL_CHARGE>
0

> <JCHEM_GHOSE_FILTER>
0

> <JCHEM_IUPAC>
[(2R,3S,4R,5R)-5-(3-carbamoyl-1H-1,2,4-triazol-1-yl)-3,4-dihydroxyoxolan-2-yl]methyl (9E)-octadec-9-enoate

> <ALOGPS_LOGP>
5.11

> <JCHEM_LOGP>
4.298334323333334

> <ALOGPS_LOGS>
-5.17

> <JCHEM_MDDR_LIKE_RULE>
0

> <JCHEM_NEUTRAL_CHARGE>
0

> <JCHEM_NUMBER_OF_RINGS>
2

> <JCHEM_PHYSIOLOGICAL_CHARGE>
0

> <JCHEM_PKA>
12.564588348729478

> <JCHEM_PKA_STRONGEST_ACIDIC>
11.879427587920897

> <JCHEM_PKA_STRONGEST_BASIC>
-1.158968486862378

> <JCHEM_POLAR_SURFACE_AREA>
149.79000000000002

> <JCHEM_REFRACTIVITY>
148.48440000000002

> <JCHEM_ROTATABLE_BOND_COUNT>
20

> <JCHEM_RULE_OF_FIVE>
0

> <ALOGPS_SOLUBILITY>
3.44e-03 g/l

> <JCHEM_TRADITIONAL_IUPAC>
altiratinib

> <JCHEM_VEBER_RULE>
0

> <DRUGBANK_ID>
DB17193

> <DRUG_GROUPS>
investigational

> <GENERIC_NAME>
Ribavirin elaidate

> <SYNONYMS>
1h-1,2,4-triazole-3-carboxamide, 1-(5-o-((9e)-1-oxo-9-octadecen-1-yl)-.beta.-d-ribofuranosyl)-; Ribavirin-5'-elaidic acid ester

$$$$
