
  Mrv1909 02092019542D          

 48 47  0  0  0  0            999 V2000
    3.9290    0.3623    0.0000 C   0  0  1  0  0  0  0  0  0  0  0  0
    3.2148    0.7738    0.0000 C   0  0  0  0  0  0  0  0  0  0  0  0
    2.5005    0.3623    0.0000 O   0  0  0  0  0  0  0  0  0  0  0  0
    1.7860    0.7738    0.0000 C   0  0  0  0  0  0  0  0  0  0  0  0
    1.7860    1.5995    0.0000 O   0  0  0  0  0  0  0  0  0  0  0  0
    4.3417   -0.3516    0.0000 H   0  0  0  0  0  0  0  0  0  0  0  0
    3.5161   -0.3516    0.0000 O   0  0  0  0  0  0  0  0  0  0  0  0
    4.6434    0.7752    0.0000 C   0  0  0  0  0  0  0  0  0  0  0  0
    5.3579    0.3623    0.0000 O   0  0  0  0  0  0  0  0  0  0  0  0
    2.7678   -0.7738    0.0000 C   0  0  0  0  0  0  0  0  0  0  0  0
    2.7678   -1.5999    0.0000 O   0  0  0  0  0  0  0  0  0  0  0  0
    2.0536   -0.3613    0.0000 C   0  0  0  0  0  0  0  0  0  0  0  0
    1.0717    0.3610    0.0000 C   0  0  0  0  0  0  0  0  0  0  0  0
    6.7866    0.3627    0.0000 O   0  0  0  0  0  0  0  0  0  0  0  0
    7.5012    0.7752    0.0000 C   0  0  0  0  0  0  0  0  0  0  0  0
    8.2158    0.3627    0.0000 C   0  0  0  0  0  0  0  0  0  0  0  0
    8.9304    0.7752    0.0000 N   0  0  0  0  0  0  0  0  0  0  0  0
    6.0722    0.7750    0.0000 P   0  0  0  0  0  0  0  0  0  0  0  0
    6.0720    1.5999    0.0000 O   0  0  0  0  0  0  0  0  0  0  0  0
    6.2856   -0.0217    0.0000 O   0  0  0  0  0  0  0  0  0  0  0  0
    0.3572    0.7735    0.0000 C   0  0  0  0  0  0  0  0  0  0  0  0
   -0.3570    0.3610    0.0000 C   0  0  0  0  0  0  0  0  0  0  0  0
   -1.0715    0.7735    0.0000 C   0  0  0  0  0  0  0  0  0  0  0  0
   -1.7860    0.3610    0.0000 C   0  0  0  0  0  0  0  0  0  0  0  0
   -2.5004    0.7735    0.0000 C   0  0  0  0  0  0  0  0  0  0  0  0
   -3.2148    0.3610    0.0000 C   0  0  0  0  0  0  0  0  0  0  0  0
   -3.9292    0.7735    0.0000 C   0  0  0  0  0  0  0  0  0  0  0  0
   -4.6437    0.3610    0.0000 C   0  0  0  0  0  0  0  0  0  0  0  0
   -5.3582    0.7735    0.0000 C   0  0  0  0  0  0  0  0  0  0  0  0
   -6.0726    0.3610    0.0000 C   0  0  0  0  0  0  0  0  0  0  0  0
   -6.7871    0.7735    0.0000 C   0  0  0  0  0  0  0  0  0  0  0  0
   -7.5015    0.3610    0.0000 C   0  0  0  0  0  0  0  0  0  0  0  0
   -8.2160    0.7735    0.0000 C   0  0  0  0  0  0  0  0  0  0  0  0
   -8.9304    0.3610    0.0000 C   0  0  0  0  0  0  0  0  0  0  0  0
    1.3391   -0.7737    0.0000 C   0  0  0  0  0  0  0  0  0  0  0  0
    0.6246   -0.3613    0.0000 C   0  0  0  0  0  0  0  0  0  0  0  0
   -0.0897   -0.7737    0.0000 C   0  0  0  0  0  0  0  0  0  0  0  0
   -0.8042   -0.3613    0.0000 C   0  0  0  0  0  0  0  0  0  0  0  0
   -1.5186   -0.7737    0.0000 C   0  0  0  0  0  0  0  0  0  0  0  0
   -2.2330   -0.3613    0.0000 C   0  0  0  0  0  0  0  0  0  0  0  0
   -2.9475   -0.7737    0.0000 C   0  0  0  0  0  0  0  0  0  0  0  0
   -3.6619   -0.3613    0.0000 C   0  0  0  0  0  0  0  0  0  0  0  0
   -4.3764   -0.7737    0.0000 C   0  0  0  0  0  0  0  0  0  0  0  0
   -5.0909   -0.3613    0.0000 C   0  0  0  0  0  0  0  0  0  0  0  0
   -5.8053   -0.7737    0.0000 C   0  0  0  0  0  0  0  0  0  0  0  0
   -6.5198   -0.3613    0.0000 C   0  0  0  0  0  0  0  0  0  0  0  0
   -7.2341   -0.7737    0.0000 C   0  0  0  0  0  0  0  0  0  0  0  0
   -7.9486   -0.3613    0.0000 C   0  0  0  0  0  0  0  0  0  0  0  0
  1  2  1  0  0  0  0
  2  3  1  0  0  0  0
  3  4  1  0  0  0  0
  4  5  2  0  0  0  0
  1  7  1  6  0  0  0
  1  6  1  1  0  0  0
  8  1  1  0  0  0  0
  9  8  1  0  0  0  0
 10 11  2  0  0  0  0
 10 12  1  0  0  0  0
 10  7  1  0  0  0  0
  4 13  1  0  0  0  0
 15 14  1  0  0  0  0
 16 15  1  0  0  0  0
 17 16  1  0  0  0  0
  9 18  1  0  0  0  0
 18 14  1  0  0  0  0
 18 19  2  0  0  0  0
 18 20  1  0  0  0  0
 13 21  1  0  0  0  0
 21 22  1  0  0  0  0
 22 23  1  0  0  0  0
 23 24  1  0  0  0  0
 24 25  1  0  0  0  0
 25 26  1  0  0  0  0
 26 27  1  0  0  0  0
 27 28  1  0  0  0  0
 28 29  1  0  0  0  0
 29 30  1  0  0  0  0
 30 31  1  0  0  0  0
 31 32  1  0  0  0  0
 32 33  1  0  0  0  0
 33 34  1  0  0  0  0
 12 35  1  0  0  0  0
 35 36  1  0  0  0  0
 36 37  1  0  0  0  0
 37 38  1  0  0  0  0
 38 39  1  0  0  0  0
 39 40  1  0  0  0  0
 40 41  1  0  0  0  0
 41 42  1  0  0  0  0
 42 43  1  0  0  0  0
 43 44  1  0  0  0  0
 44 45  1  0  0  0  0
 45 46  1  0  0  0  0
 46 47  1  0  0  0  0
 47 48  1  0  0  0  0
M  END
> <DATABASE_ID>
DB01728

> <DATABASE_NAME>
drugbank

> <SMILES>
[H][C@@](COC(=O)CCCCCCCCCCCCCCC)(COP(O)(=O)OCCN)OC(=O)CCCCCCCCCCCCCCC

> <INCHI_IDENTIFIER>
InChI=1S/C37H74NO8P/c1-3-5-7-9-11-13-15-17-19-21-23-25-27-29-36(39)43-33-35(34-45-47(41,42)44-32-31-38)46-37(40)30-28-26-24-22-20-18-16-14-12-10-8-6-4-2/h35H,3-34,38H2,1-2H3,(H,41,42)/t35-/m1/s1

> <INCHI_KEY>
SLKDGVPOSSLUAI-PGUFJCEWSA-N

> <FORMULA>
C37H74NO8P

> <MOLECULAR_WEIGHT>
691.972

> <EXACT_MASS>
691.515205345

> <JCHEM_ACCEPTOR_COUNT>
5

> <JCHEM_ATOM_COUNT>
121

> <JCHEM_AVERAGE_NEUTRAL_MICROSPECIES_CHARGE>
-0.000992001480615401

> <JCHEM_AVERAGE_POLARIZABILITY>
85.5861854463454

> <JCHEM_BIOAVAILABILITY>
0

> <JCHEM_DONOR_COUNT>
2

> <JCHEM_FORMAL_CHARGE>
0

> <JCHEM_GHOSE_FILTER>
0

> <JCHEM_IUPAC>
(2-aminoethoxy)[(2R)-2,3-bis(hexadecanoyloxy)propoxy]phosphinic acid

> <ALOGPS_LOGP>
8.08

> <JCHEM_LOGP>
10.450915359136756

> <ALOGPS_LOGS>
-6.86

> <JCHEM_MDDR_LIKE_RULE>
0

> <JCHEM_NEUTRAL_CHARGE>
0

> <JCHEM_NUMBER_OF_RINGS>
0

> <JCHEM_PHYSIOLOGICAL_CHARGE>
0

> <JCHEM_PKA_STRONGEST_ACIDIC>
1.8688003136581992

> <JCHEM_PKA_STRONGEST_BASIC>
9.999929336362278

> <JCHEM_POLAR_SURFACE_AREA>
134.38

> <JCHEM_REFRACTIVITY>
191.00390000000002

> <JCHEM_ROTATABLE_BOND_COUNT>
39

> <JCHEM_RULE_OF_FIVE>
0

> <ALOGPS_SOLUBILITY>
9.45e-05 g/l

> <JCHEM_TRADITIONAL_IUPAC>
N-{4-[(3-bromophenyl)amino]quinazolin-6-yl}prop-2-enamide

> <JCHEM_VEBER_RULE>
0

> <DRUGBANK_ID>
DB01728

> <SECONDARY_ACCESSION_NUMBERS>
EXPT02544

> <DRUG_GROUPS>
experimental

> <GENERIC_NAME>
1,2-dihexadecanoyl-sn-glycero-3-phosphoethanolamine

> <SYNONYMS>
1,2-dipalmitoyl-sn-glycero-3-phosphoethanolamine; 2-aminoethyl (2R)-2,3-bis(hexadecanoyloxy)propyl hydrogen phosphate; 2-aminoethyl (2R)-2,3-bis(palmitoyloxy)propyl hydrogen phosphate; Dipalmitoyl phosphatidylethanolamine

$$$$
