
  Mrv1909 11231916142D          

 29 30  0  0  0  0            999 V2000
    4.2869    2.4750    0.0000 I   0  0  0  0  0  0  0  0  0  0  0  0
    1.4289   -2.4750    0.0000 Br  0  0  0  0  0  0  0  0  0  0  0  0
    2.8579    0.0000    0.0000 F   0  0  0  0  0  0  0  0  0  0  0  0
    2.8579   -1.6500    0.0000 F   0  0  0  0  0  0  0  0  0  0  0  0
    1.4289    2.4750    0.0000 F   0  0  0  0  0  0  0  0  0  0  0  0
   -1.4289    0.0000    0.0000 O   0  0  0  0  0  0  0  0  0  0  0  0
   -2.8579    0.8250    0.0000 O   0  0  0  0  0  0  0  0  0  0  0  0
   -4.2869    0.0000    0.0000 O   0  0  0  0  0  0  0  0  0  0  0  0
    0.0000    0.8250    0.0000 O   0  0  0  0  0  0  0  0  0  0  0  0
    1.4289    0.8250    0.0000 N   0  0  0  0  0  0  0  0  0  0  0  0
   -0.7144   -0.4125    0.0000 N   0  0  0  0  0  0  0  0  0  0  0  0
    1.4289    0.0000    0.0000 C   0  0  0  0  0  0  0  0  0  0  0  0
    0.7145   -0.4125    0.0000 C   0  0  0  0  0  0  0  0  0  0  0  0
   -2.8579    0.0000    0.0000 C   0  0  2  0  0  0  0  0  0  0  0  0
   -2.1434   -0.4125    0.0000 C   0  0  0  0  0  0  0  0  0  0  0  0
    2.1435    1.2375    0.0000 C   0  0  0  0  0  0  0  0  0  0  0  0
    2.1435   -0.4125    0.0000 C   0  0  0  0  0  0  0  0  0  0  0  0
    0.7145   -1.2375    0.0000 C   0  0  0  0  0  0  0  0  0  0  0  0
   -3.5723   -0.4125    0.0000 C   0  0  0  0  0  0  0  0  0  0  0  0
    0.0000    0.0000    0.0000 C   0  0  0  0  0  0  0  0  0  0  0  0
    2.1435   -1.2375    0.0000 C   0  0  0  0  0  0  0  0  0  0  0  0
    1.4289   -1.6500    0.0000 C   0  0  0  0  0  0  0  0  0  0  0  0
    2.1435    2.0625    0.0000 C   0  0  0  0  0  0  0  0  0  0  0  0
    2.8579    0.8250    0.0000 C   0  0  0  0  0  0  0  0  0  0  0  0
    2.8579    2.4750    0.0000 C   0  0  0  0  0  0  0  0  0  0  0  0
    3.5724    1.2375    0.0000 C   0  0  0  0  0  0  0  0  0  0  0  0
    3.5724    2.0625    0.0000 C   0  0  0  0  0  0  0  0  0  0  0  0
    0.9860    1.0807    0.0000 H   0  0  0  0  0  0  0  0  0  0  0  0
   -0.7144   -0.9240    0.0000 H   0  0  0  0  0  0  0  0  0  0  0  0
  1 27  1  0  0  0  0
  2 22  1  0  0  0  0
  3 17  1  0  0  0  0
  4 21  1  0  0  0  0
  5 23  1  0  0  0  0
  6 11  1  0  0  0  0
  6 15  1  0  0  0  0
 14  7  1  6  0  0  0
  8 19  1  0  0  0  0
  9 20  2  0  0  0  0
 10 12  1  0  0  0  0
 10 16  1  0  0  0  0
 10 28  1  0  0  0  0
 11 20  1  0  0  0  0
 11 29  1  0  0  0  0
 12 13  1  0  0  0  0
 12 17  2  0  0  0  0
 13 18  2  0  0  0  0
 13 20  1  0  0  0  0
 14 15  1  0  0  0  0
 14 19  1  0  0  0  0
 16 23  2  0  0  0  0
 16 24  1  0  0  0  0
 17 21  1  0  0  0  0
 18 22  1  0  0  0  0
 21 22  2  0  0  0  0
 23 25  1  0  0  0  0
 24 26  2  0  0  0  0
 25 27  2  0  0  0  0
 26 27  1  0  0  0  0
M  END
> <DATABASE_ID>
DB03115

> <DATABASE_NAME>
drugbank

> <SMILES>
[H]N(OC[C@@H](O)CO)C(=O)C1=CC(Br)=C(F)C(F)=C1N([H])C1=C(F)C=C(I)C=C1

> <INCHI_IDENTIFIER>
InChI=1S/C16H13BrF3IN2O4/c17-10-4-9(16(26)23-27-6-8(25)5-24)15(14(20)13(10)19)22-12-2-1-7(21)3-11(12)18/h1-4,8,22,24-25H,5-6H2,(H,23,26)/t8-/m0/s1

> <INCHI_KEY>
XXSSGBYXSKOLAM-QMMMGPOBSA-N

> <FORMULA>
C16H13BrF3IN2O4

> <MOLECULAR_WEIGHT>
561.089

> <EXACT_MASS>
559.905547596

> <JCHEM_ACCEPTOR_COUNT>
5

> <JCHEM_ATOM_COUNT>
40

> <JCHEM_AVERAGE_POLARIZABILITY>
41.60618943789627

> <JCHEM_BIOAVAILABILITY>
1

> <JCHEM_DONOR_COUNT>
4

> <JCHEM_FORMAL_CHARGE>
0

> <JCHEM_GHOSE_FILTER>
0

> <JCHEM_IUPAC>
5-bromo-N-[(2S)-2,3-dihydroxypropoxy]-3,4-difluoro-2-[(2-fluoro-4-iodophenyl)amino]benzamide

> <ALOGPS_LOGP>
3.17

> <JCHEM_LOGP>
4.743956839666667

> <ALOGPS_LOGS>
-4.69

> <JCHEM_MDDR_LIKE_RULE>
0

> <JCHEM_NUMBER_OF_RINGS>
2

> <JCHEM_PHYSIOLOGICAL_CHARGE>
0

> <JCHEM_PKA>
13.71172081717091

> <JCHEM_PKA_STRONGEST_ACIDIC>
11.669760767009215

> <JCHEM_PKA_STRONGEST_BASIC>
-2.9698575385597836

> <JCHEM_POLAR_SURFACE_AREA>
90.82

> <JCHEM_REFRACTIVITY>
103.7588

> <JCHEM_ROTATABLE_BOND_COUNT>
7

> <JCHEM_RULE_OF_FIVE>
0

> <ALOGPS_SOLUBILITY>
1.15e-02 g/l

> <JCHEM_TRADITIONAL_IUPAC>
N-(3-{[4-(benzyloxy)-3,5-dimethoxyphenyl]formamido}-2-hydroxy-4-phenylbutyl)-3-(1,3-dioxoisoindol-2-yl)-N-{2-[(5S)-hexahydro-2H-1,3-benzodioxol-5-yl]ethyl}propanamide

> <JCHEM_VEBER_RULE>
0

> <DRUGBANK_ID>
DB03115

> <SECONDARY_ACCESSION_NUMBERS>
EXPT00634

> <DRUG_GROUPS>
experimental

> <GENERIC_NAME>
5-Bromo-N-[(2S)-2,3-dihydroxypropoxy]-3,4-difluoro-2-[(2-fluoro-4-iodophenyl)amino]benzamide

$$$$
