
  Mrv1909 05201915212D          

  1  0  0  0  0  0            999 V2000
    0.0000    0.0000    0.0000 Co  0  0  0  0  0  0  0  0  0  0  0  0
M  ISO  1   1  60
M  END
> <DATABASE_ID>
DB15374

> <DATABASE_NAME>
drugbank

> <SMILES>
[60Co]

> <INCHI_IDENTIFIER>
InChI=1S/Co/i1+1

> <INCHI_KEY>
GUTLYIVDDKVIGB-OUBTZVSYSA-N

> <FORMULA>
Co

> <MOLECULAR_WEIGHT>
59.9338

> <EXACT_MASS>
59.933822196

> <JCHEM_ACCEPTOR_COUNT>
0

> <JCHEM_ATOM_COUNT>
1

> <JCHEM_AVERAGE_POLARIZABILITY>
1.7784

> <JCHEM_BIOAVAILABILITY>
1

> <JCHEM_DONOR_COUNT>
0

> <JCHEM_FORMAL_CHARGE>
0

> <JCHEM_GHOSE_FILTER>
0

> <JCHEM_IUPAC>
(60Co)cobalt

> <ALOGPS_LOGP>
-1.31

> <JCHEM_LOGP>
0.22999999999999998

> <ALOGPS_LOGS>
1.08

> <JCHEM_MDDR_LIKE_RULE>
0

> <JCHEM_NUMBER_OF_RINGS>
0

> <JCHEM_PHYSIOLOGICAL_CHARGE>
0

> <JCHEM_POLAR_SURFACE_AREA>
0.0

> <JCHEM_REFRACTIVITY>
0.0

> <JCHEM_ROTATABLE_BOND_COUNT>
0

> <JCHEM_RULE_OF_FIVE>
1

> <ALOGPS_SOLUBILITY>
0.00e+00 g/l

> <JCHEM_TRADITIONAL_IUPAC>
(2R)-14-fluoro-2-methyl-6,9,10,19-tetraazapentacyclo[14.2.1.0^{2,6}.0^{8,18}.0^{12,17}]nonadeca-1(18),8,12(17),13,15-pentaen-11-one

> <JCHEM_VEBER_RULE>
1

> <DRUGBANK_ID>
DB15374

> <DRUG_GROUPS>
investigational

> <GENERIC_NAME>
Cobalt Co-60

$$$$
