
  Mrv1652310211603042D          

 45 50  0  0  1  0            999 V2000
   -1.6077   -4.3885    0.0000 C   0  0  0  0  0  0  0  0  0  0  0  0
   -1.6077   -5.2135    0.0000 C   0  0  0  0  0  0  0  0  0  0  0  0
   -2.3221   -5.6260    0.0000 C   0  0  0  0  0  0  0  0  0  0  0  0
   -3.0366   -5.2135    0.0000 C   0  0  0  0  0  0  0  0  0  0  0  0
   -3.0366   -4.3885    0.0000 C   0  0  0  0  0  0  0  0  0  0  0  0
   -2.3221   -3.9760    0.0000 C   0  0  0  0  0  0  0  0  0  0  0  0
   -3.7511   -3.9760    0.0000 F   0  0  0  0  0  0  0  0  0  0  0  0
   -2.3221   -6.4510    0.0000 C   0  0  0  0  0  0  0  0  0  0  0  0
   -1.6547   -6.9359    0.0000 C   0  0  0  0  0  0  0  0  0  0  0  0
   -1.9096   -7.7206    0.0000 N   0  0  0  0  0  0  0  0  0  0  0  0
   -2.7346   -7.7206    0.0000 N   0  0  0  0  0  0  0  0  0  0  0  0
   -2.9896   -6.9359    0.0000 N   0  0  0  0  0  0  0  0  0  0  0  0
   -1.4247   -8.3880    0.0000 C   0  0  1  0  0  0  0  0  0  0  0  0
   -0.6042   -8.3018    0.0000 C   0  0  2  0  0  0  0  0  0  0  0  0
   -0.1193   -8.9692    0.0000 C   0  0  2  0  0  0  0  0  0  0  0  0
   -0.4549   -9.7229    0.0000 O   0  0  0  0  0  0  0  0  0  0  0  0
   -1.2753   -9.8091    0.0000 C   0  0  2  0  0  0  0  0  0  0  0  0
   -1.7603   -9.1417    0.0000 C   0  0  2  0  0  0  0  0  0  0  0  0
   -2.5807   -9.2279    0.0000 O   0  0  0  0  0  0  0  0  0  0  0  0
   -1.6109  -10.5628    0.0000 S   0  0  0  0  0  0  0  0  0  0  0  0
   -2.4314  -10.6490    0.0000 C   0  0  1  0  0  0  0  0  0  0  0  0
   -2.7669  -11.4027    0.0000 C   0  0  1  0  0  0  0  0  0  0  0  0
   -3.5874  -11.4889    0.0000 C   0  0  2  0  0  0  0  0  0  0  0  0
   -4.0723  -10.8215    0.0000 C   0  0  2  0  0  0  0  0  0  0  0  0
   -3.7368  -10.0678    0.0000 C   0  0  2  0  0  0  0  0  0  0  0  0
   -2.9163   -9.9816    0.0000 O   0  0  0  0  0  0  0  0  0  0  0  0
   -4.2217   -9.4004    0.0000 C   0  0  0  0  0  0  0  0  0  0  0  0
   -3.8861   -8.6467    0.0000 O   0  0  0  0  0  0  0  0  0  0  0  0
   -4.8928  -10.9077    0.0000 O   0  0  0  0  0  0  0  0  0  0  0  0
   -3.9230  -12.2426    0.0000 N   0  0  0  0  0  0  0  0  0  0  0  0
   -3.5105  -12.9571    0.0000 C   0  0  0  0  0  0  0  0  0  0  0  0
   -4.0625  -13.5702    0.0000 C   0  0  0  0  0  0  0  0  0  0  0  0
   -4.8162  -13.2346    0.0000 N   0  0  0  0  0  0  0  0  0  0  0  0
   -4.7299  -12.4141    0.0000 N   0  0  0  0  0  0  0  0  0  0  0  0
   -3.8910  -14.3771    0.0000 C   0  0  0  0  0  0  0  0  0  0  0  0
   -3.1064  -14.6321    0.0000 C   0  0  0  0  0  0  0  0  0  0  0  0
   -2.9348  -15.4390    0.0000 C   0  0  0  0  0  0  0  0  0  0  0  0
   -3.5479  -15.9911    0.0000 C   0  0  0  0  0  0  0  0  0  0  0  0
   -4.3325  -15.7361    0.0000 C   0  0  0  0  0  0  0  0  0  0  0  0
   -4.5041  -14.9292    0.0000 C   0  0  0  0  0  0  0  0  0  0  0  0
   -4.9456  -16.2882    0.0000 F   0  0  0  0  0  0  0  0  0  0  0  0
   -2.2820  -12.0701    0.0000 O   0  0  0  0  0  0  0  0  0  0  0  0
    0.7012   -8.8830    0.0000 C   0  0  0  0  0  0  0  0  0  0  0  0
    1.1861   -9.5504    0.0000 O   0  0  0  0  0  0  0  0  0  0  0  0
   -0.2687   -7.5481    0.0000 O   0  0  0  0  0  0  0  0  0  0  0  0
  1  2  2  0  0  0  0
  2  3  1  0  0  0  0
  3  4  2  0  0  0  0
  4  5  1  0  0  0  0
  5  6  2  0  0  0  0
  1  6  1  0  0  0  0
  5  7  1  0  0  0  0
  3  8  1  0  0  0  0
  8  9  2  0  0  0  0
  9 10  1  0  0  0  0
 10 11  1  0  0  0  0
 11 12  2  0  0  0  0
  8 12  1  0  0  0  0
 13 10  1  1  0  0  0
 13 14  1  0  0  0  0
 14 15  1  0  0  0  0
 15 16  1  0  0  0  0
 16 17  1  0  0  0  0
 17 18  1  0  0  0  0
 13 18  1  0  0  0  0
 18 19  1  6  0  0  0
 17 20  1  1  0  0  0
 21 20  1  1  0  0  0
 21 22  1  0  0  0  0
 22 23  1  0  0  0  0
 23 24  1  0  0  0  0
 24 25  1  0  0  0  0
 25 26  1  0  0  0  0
 21 26  1  0  0  0  0
 25 27  1  1  0  0  0
 27 28  1  0  0  0  0
 24 29  1  1  0  0  0
 23 30  1  1  0  0  0
 30 31  1  0  0  0  0
 31 32  2  0  0  0  0
 32 33  1  0  0  0  0
 33 34  2  0  0  0  0
 30 34  1  0  0  0  0
 32 35  1  0  0  0  0
 35 36  2  0  0  0  0
 36 37  1  0  0  0  0
 37 38  2  0  0  0  0
 38 39  1  0  0  0  0
 39 40  2  0  0  0  0
 35 40  1  0  0  0  0
 39 41  1  0  0  0  0
 22 42  1  6  0  0  0
 15 43  1  1  0  0  0
 43 44  1  0  0  0  0
 14 45  1  1  0  0  0
M  END
> <DATABASE_ID>
DB12895

> <DATABASE_NAME>
drugbank

> <SMILES>
OC[C@H]1O[C@@H](S[C@@H]2O[C@H](CO)[C@H](O)[C@@H]([C@H]2O)N2C=C(N=N2)C2=CC=CC(F)=C2)[C@H](O)[C@H]([C@H]1O)N1C=C(N=N1)C1=CC(F)=CC=C1

> <INCHI_IDENTIFIER>
InChI=1S/C28H30F2N6O8S/c29-15-5-1-3-13(7-15)17-9-35(33-31-17)21-23(39)19(11-37)43-27(25(21)41)45-28-26(42)22(24(40)20(12-38)44-28)36-10-18(32-34-36)14-4-2-6-16(30)8-14/h1-10,19-28,37-42H,11-12H2/t19-,20-,21+,22+,23+,24+,25-,26-,27+,28+/m1/s1

> <INCHI_KEY>
YGIDGBAHDZEYMT-MQFIMZJJSA-N

> <FORMULA>
C28H30F2N6O8S

> <MOLECULAR_WEIGHT>
648.64

> <EXACT_MASS>
648.18138945

> <JCHEM_ACCEPTOR_COUNT>
12

> <JCHEM_ATOM_COUNT>
75

> <JCHEM_AVERAGE_POLARIZABILITY>
64.92867357260641

> <JCHEM_BIOAVAILABILITY>
0

> <JCHEM_DONOR_COUNT>
6

> <JCHEM_FORMAL_CHARGE>
0

> <JCHEM_GHOSE_FILTER>
0

> <JCHEM_IUPAC>
(2S,3R,4S,5R,6R)-4-[4-(3-fluorophenyl)-1H-1,2,3-triazol-1-yl]-2-{[(2S,3R,4S,5R,6R)-4-[4-(3-fluorophenyl)-1H-1,2,3-triazol-1-yl]-3,5-dihydroxy-6-(hydroxymethyl)oxan-2-yl]sulfanyl}-6-(hydroxymethyl)oxane-3,5-diol

> <ALOGPS_LOGP>
0.58

> <JCHEM_LOGP>
1.048746941

> <ALOGPS_LOGS>
-2.92

> <JCHEM_MDDR_LIKE_RULE>
1

> <JCHEM_NUMBER_OF_RINGS>
6

> <JCHEM_PHYSIOLOGICAL_CHARGE>
0

> <JCHEM_PKA>
12.997429949717201

> <JCHEM_PKA_STRONGEST_ACIDIC>
12.537499610188956

> <JCHEM_PKA_STRONGEST_BASIC>
0.020659622852211013

> <JCHEM_POLAR_SURFACE_AREA>
201.26

> <JCHEM_REFRACTIVITY>
174.77329999999995

> <JCHEM_ROTATABLE_BOND_COUNT>
8

> <JCHEM_RULE_OF_FIVE>
0

> <ALOGPS_SOLUBILITY>
7.74e-01 g/l

> <JCHEM_TRADITIONAL_IUPAC>
(2S,3R,4S,5R,6R)-4-[4-(3-fluorophenyl)-1,2,3-triazol-1-yl]-2-{[(2S,3R,4S,5R,6R)-4-[4-(3-fluorophenyl)-1,2,3-triazol-1-yl]-3,5-dihydroxy-6-(hydroxymethyl)oxan-2-yl]sulfanyl}-6-(hydroxymethyl)oxane-3,5-diol

> <JCHEM_VEBER_RULE>
0

> <DRUGBANK_ID>
DB12895

> <DRUG_GROUPS>
investigational

> <GENERIC_NAME>
TD-139

$$$$
