
  Mrv1652310211605062D          

 39 43  0  0  1  0            999 V2000
    6.4302    4.5375    0.0000 C   0  0  0  0  0  0  0  0  0  0  0  0
    6.4302    3.7125    0.0000 C   0  0  1  0  0  0  0  0  0  0  0  0
    7.1447    3.3000    0.0000 C   0  0  2  0  0  0  0  0  0  0  0  0
    7.1447    2.4750    0.0000 C   0  0  2  0  0  0  0  0  0  0  0  0
    6.4302    2.0625    0.0000 C   0  0  0  0  0  0  0  0  0  0  0  0
    5.7158    2.4750    0.0000 C   0  0  1  0  0  0  0  0  0  0  0  0
    5.7158    3.3000    0.0000 O   0  0  0  0  0  0  0  0  0  0  0  0
    5.0013    2.0625    0.0000 O   0  0  0  0  0  0  0  0  0  0  0  0
    5.0013    1.2375    0.0000 C   0  0  1  0  0  0  0  0  0  0  0  0
    5.7158    0.8250    0.0000 C   0  0  0  0  0  0  0  0  0  0  0  0
    5.7158    0.0000    0.0000 C   0  0  1  0  0  0  0  0  0  0  0  0
    5.0013   -0.4125    0.0000 C   0  0  0  0  0  0  0  0  0  0  0  0
    4.2868    0.0000    0.0000 C   0  0  0  0  0  0  0  0  0  0  0  0
    4.2868    0.8250    0.0000 C   0  0  0  0  0  0  0  0  0  0  0  0
    3.5724    1.2375    0.0000 C   0  0  0  0  0  0  0  0  0  0  0  0
    2.8579    0.8250    0.0000 C   0  0  0  0  0  0  0  0  0  0  0  0
    2.8579    0.0000    0.0000 C   0  0  0  0  0  0  0  0  0  0  0  0
    3.5724   -0.4125    0.0000 C   0  0  0  0  0  0  0  0  0  0  0  0
    3.5724   -1.2375    0.0000 O   0  0  0  0  0  0  0  0  0  0  0  0
    2.1434   -0.4125    0.0000 C   0  0  0  0  0  0  0  0  0  0  0  0
    2.1434   -1.2375    0.0000 O   0  0  0  0  0  0  0  0  0  0  0  0
    1.4289   -0.0000    0.0000 C   0  0  0  0  0  0  0  0  0  0  0  0
    0.7145   -0.4125    0.0000 C   0  0  0  0  0  0  0  0  0  0  0  0
   -0.0000    0.0000    0.0000 C   0  0  0  0  0  0  0  0  0  0  0  0
    0.0000    0.8250    0.0000 C   0  0  0  0  0  0  0  0  0  0  0  0
    0.7145    1.2375    0.0000 C   0  0  0  0  0  0  0  0  0  0  0  0
    1.4289    0.8250    0.0000 C   0  0  0  0  0  0  0  0  0  0  0  0
    2.1434    1.2375    0.0000 C   0  0  0  0  0  0  0  0  0  0  0  0
    2.1434    2.0625    0.0000 N   0  0  0  0  0  0  0  0  0  0  0  0
    0.7145    2.0625    0.0000 O   0  0  0  0  0  0  0  0  0  0  0  0
    1.4289    2.4750    0.0000 C   0  0  0  0  0  0  0  0  0  0  0  0
    3.5724    2.0625    0.0000 O   0  0  0  0  0  0  0  0  0  0  0  0
    6.5403   -0.0288    0.0000 C   0  0  0  0  0  0  0  0  0  0  0  0
    6.9276   -0.7572    0.0000 O   0  0  0  0  0  0  0  0  0  0  0  0
    6.9774    0.6708    0.0000 C   0  0  0  0  0  0  0  0  0  0  0  0
    6.5901    1.3993    0.0000 O   0  0  0  0  0  0  0  0  0  0  0  0
    6.1530   -0.6996    0.0000 O   0  0  0  0  0  0  0  0  0  0  0  0
    7.8592    2.0625    0.0000 N   0  0  0  0  0  0  0  0  0  0  0  0
    7.8592    3.7125    0.0000 O   0  0  0  0  0  0  0  0  0  0  0  0
  2  1  1  1  0  0  0
  2  3  1  0  0  0  0
  3  4  1  0  0  0  0
  4  5  1  0  0  0  0
  5  6  1  0  0  0  0
  6  7  1  0  0  0  0
  2  7  1  0  0  0  0
  6  8  1  6  0  0  0
  9  8  1  1  0  0  0
  9 10  1  0  0  0  0
 10 11  1  0  0  0  0
 11 12  1  0  0  0  0
 12 13  1  0  0  0  0
 13 14  2  0  0  0  0
  9 14  1  0  0  0  0
 14 15  1  0  0  0  0
 15 16  2  0  0  0  0
 16 17  1  0  0  0  0
 17 18  2  0  0  0  0
 13 18  1  0  0  0  0
 18 19  1  0  0  0  0
 17 20  1  0  0  0  0
 20 21  2  0  0  0  0
 20 22  1  0  0  0  0
 22 23  2  0  0  0  0
 23 24  1  0  0  0  0
 24 25  2  0  0  0  0
 25 26  1  0  0  0  0
 26 27  2  0  0  0  0
 22 27  1  0  0  0  0
 27 28  1  0  0  0  0
 16 28  1  0  0  0  0
 28 29  2  0  0  0  0
 26 30  1  0  0  0  0
 30 31  1  0  0  0  0
 15 32  1  0  0  0  0
 11 33  1  6  0  0  0
 33 34  2  0  0  0  0
 33 35  1  0  0  0  0
 35 36  1  0  0  0  0
 11 37  1  1  0  0  0
  4 38  1  1  0  0  0
  3 39  1  1  0  0  0
M  END
> <DATABASE_ID>
DB13103

> <DATABASE_NAME>
drugbank

> <SMILES>
COC1=C2C(=N)C3=C(O)C4=C(C[C@](O)(C[C@@H]4O[C@H]4C[C@H](N)[C@H](O)[C@H](C)O4)C(=O)CO)C(O)=C3C(=O)C2=CC=C1

> <INCHI_IDENTIFIER>
InChI=1S/C27H30N2O10/c1-10-23(32)13(28)6-17(38-10)39-15-8-27(36,16(31)9-30)7-12-19(15)26(35)20-21(25(12)34)24(33)11-4-3-5-14(37-2)18(11)22(20)29/h3-5,10,13,15,17,23,29-30,32,34-36H,6-9,28H2,1-2H3/t10-,13-,15-,17-,23+,27-/m0/s1

> <INCHI_KEY>
UNNWAMSRSUVXCZ-PNISCQLKSA-N

> <FORMULA>
C27H30N2O10

> <MOLECULAR_WEIGHT>
542.541

> <EXACT_MASS>
542.190045174

> <JCHEM_ACCEPTOR_COUNT>
12

> <JCHEM_ATOM_COUNT>
69

> <JCHEM_AVERAGE_POLARIZABILITY>
54.934298083973644

> <JCHEM_BIOAVAILABILITY>
0

> <JCHEM_DONOR_COUNT>
7

> <JCHEM_FORMAL_CHARGE>
0

> <JCHEM_GHOSE_FILTER>
0

> <JCHEM_IUPAC>
(8S,10S)-10-{[(2R,4S,5S,6S)-4-amino-5-hydroxy-6-methyloxan-2-yl]oxy}-6,8,11-trihydroxy-8-(2-hydroxyacetyl)-12-imino-1-methoxy-5,7,8,9,10,12-hexahydrotetracen-5-one

> <ALOGPS_LOGP>
0.82

> <JCHEM_LOGP>
-0.09889453426166221

> <ALOGPS_LOGS>
-3.22

> <JCHEM_MDDR_LIKE_RULE>
0

> <JCHEM_NUMBER_OF_RINGS>
5

> <JCHEM_PHYSIOLOGICAL_CHARGE>
1

> <JCHEM_PKA>
10.093716293204945

> <JCHEM_PKA_STRONGEST_ACIDIC>
8.104120789709063

> <JCHEM_PKA_STRONGEST_BASIC>
9.360338199884328

> <JCHEM_POLAR_SURFACE_AREA>
212.85

> <JCHEM_REFRACTIVITY>
147.06570000000005

> <JCHEM_ROTATABLE_BOND_COUNT>
5

> <JCHEM_RULE_OF_FIVE>
0

> <ALOGPS_SOLUBILITY>
3.31e-01 g/l

> <JCHEM_TRADITIONAL_IUPAC>
(8S,10S)-10-{[(2R,4S,5S,6S)-4-amino-5-hydroxy-6-methyloxan-2-yl]oxy}-6,8,11-trihydroxy-8-(2-hydroxyacetyl)-12-imino-1-methoxy-9,10-dihydro-7H-tetracen-5-one

> <JCHEM_VEBER_RULE>
0

> <DRUGBANK_ID>
DB13103

> <DRUG_GROUPS>
investigational

> <GENERIC_NAME>
Camsirubicin

> <SYNONYMS>
5-imino-13-deoxydoxorubicin; 5(8H)-Naphthacenone, 10-((3-amino-2,3,6-trideoxy-alpha-L-lyxo-hexopyranosyl)oxy)-7,9,10,12-tetrahydro-6,8,11-trihydroxy-8-(2-hydroxyethyl)-12-imino-1-methoxy-, (8R,10S)-

> <SALTS>
Camsirubicin hydrochloride

$$$$
