
  Mrv1718007121815242D          

  1  0  0  0  0  0            999 V2000
    0.0000    0.0000    0.0000 Cr  0  1  0  0  0  0  0  0  0  0  0  0
M  CHG  1   1   3
M  END
> <DATABASE_ID>
DB14525

> <DATABASE_NAME>
drugbank

> <SMILES>
[Cr+3]

> <INCHI_IDENTIFIER>
InChI=1S/Cr/q+3

> <INCHI_KEY>
BFGKITSFLPAWGI-UHFFFAOYSA-N

> <FORMULA>
Cr

> <MOLECULAR_WEIGHT>
51.9961

> <EXACT_MASS>
51.940511904

> <JCHEM_ACCEPTOR_COUNT>
0

> <JCHEM_ATOM_COUNT>
1

> <JCHEM_AVERAGE_POLARIZABILITY>
1.7784

> <JCHEM_BIOAVAILABILITY>
1

> <JCHEM_DONOR_COUNT>
0

> <JCHEM_FORMAL_CHARGE>
3

> <JCHEM_GHOSE_FILTER>
0

> <JCHEM_IUPAC>
chromium(3+) ion

> <JCHEM_LOGP>
-0.156

> <JCHEM_MDDR_LIKE_RULE>
0

> <JCHEM_NUMBER_OF_RINGS>
0

> <JCHEM_PHYSIOLOGICAL_CHARGE>
3

> <JCHEM_PKA>
3.55

> <JCHEM_PKA_STRONGEST_ACIDIC>
3.09

> <JCHEM_POLAR_SURFACE_AREA>
0.0

> <JCHEM_REFRACTIVITY>
0.0

> <JCHEM_ROTATABLE_BOND_COUNT>
0

> <JCHEM_RULE_OF_FIVE>
1

> <JCHEM_TRADITIONAL_IUPAC>
chromium(3+) ion

> <JCHEM_VEBER_RULE>
1

> <DRUGBANK_ID>
DB14525

> <DRUG_GROUPS>
experimental

> <GENERIC_NAME>
Chromic cation

> <SYNONYMS>
Chromic ion; Chromium (3+); Chromium cation (3+); Chromium cation (Cr3+); Chromium ion (3+); Chromium, ion (Cr3+); Chromium(III); Chromium(III) cation; Chromium(III) ion; Cr3+

$$$$
