
  Mrv1718005031817112D          

 10  4  0  0  0  0            999 V2000
   -1.0312    0.1105    0.0000 C   0  0  0  0  0  0  0  0  0  0  0  0
   -1.4437    0.8250    0.0000 C   0  0  0  0  0  0  0  0  0  0  0  0
   -0.2062    0.1105    0.0000 N   0  0  0  0  0  0  0  0  0  0  0  0
   -1.0312    1.5394    0.0000 O   0  0  0  0  0  0  0  0  0  0  0  0
   -2.2687    0.8250    0.0000 O   0  5  0  0  0  0  0  0  0  0  0  0
   -3.0937    0.8250    0.0000 Al  0  1  0  0  0  0  0  0  0  0  0  0
    3.0937    0.7059    0.0000 Cl  0  5  0  0  0  0  0  0  0  0  0  0
   -1.5125   -1.5394    0.0000 O   0  0  0  0  0  0  0  0  0  0  0  0
    0.8446   -1.5394    0.0000 O   0  0  0  0  0  0  0  0  0  0  0  0
    2.2687    0.7059    0.0000 Zr  0  0  0  0  0  0  0  0  0  0  0  0
  2  1  1  0  0  0  0
  3  1  1  0  0  0  0
  4  2  2  0  0  0  0
  5  2  1  0  0  0  0
M  CHG  4   5  -1   6   3   7  -1  10   4
M  END
> <DATABASE_ID>
DB11200

> <DATABASE_NAME>
drugbank

> <SMILES>
O.O.[Al+3].[Cl-].[Zr+4].NCC([O-])=O

> <INCHI_IDENTIFIER>
InChI=1S/C2H5NO2.Al.ClH.2H2O.Zr/c3-1-2(4)5;;;;;/h1,3H2,(H,4,5);;1H;2*1H2;/q;+3;;;;+4/p-2

> <INCHI_KEY>
WYANSMZYIOPJFV-UHFFFAOYSA-L

> <FORMULA>
C2H8AlClNO4Zr

> <MOLECULAR_WEIGHT>
263.74

> <EXACT_MASS>
261.89768

> <JCHEM_ACCEPTOR_COUNT>
3

> <JCHEM_ATOM_COUNT>
18

> <JCHEM_AVERAGE_POLARIZABILITY>
6.2458071632050665

> <JCHEM_BIOAVAILABILITY>
1

> <JCHEM_DONOR_COUNT>
1

> <JCHEM_FORMAL_CHARGE>
5

> <JCHEM_GHOSE_FILTER>
0

> <JCHEM_IUPAC>
zirconium(4+) aluminium(3+) 2-aminoacetate dihydrate chloride

> <ALOGPS_LOGP>
0.36

> <JCHEM_LOGP>
-3.409459573132419

> <ALOGPS_LOGS>
-1.16

> <JCHEM_MDDR_LIKE_RULE>
0

> <JCHEM_NUMBER_OF_RINGS>
0

> <JCHEM_PHYSIOLOGICAL_CHARGE>
0

> <JCHEM_PKA_STRONGEST_ACIDIC>
2.3074568824727404

> <JCHEM_PKA_STRONGEST_BASIC>
9.240341660583645

> <JCHEM_POLAR_SURFACE_AREA>
66.15

> <JCHEM_REFRACTIVITY>
26.8405

> <JCHEM_ROTATABLE_BOND_COUNT>
1

> <JCHEM_RULE_OF_FIVE>
1

> <ALOGPS_SOLUBILITY>
1.19e+01 g/l

> <JCHEM_TRADITIONAL_IUPAC>
zirconium(4+) aluminium(3+) aminoacetate dihydrate chloride

> <JCHEM_VEBER_RULE>
0

> <DRUGBANK_ID>
DB11200

> <DRUG_GROUPS>
approved

> <GENERIC_NAME>
Aluminum zirconium octachlorohydrex gly

> <SYNONYMS>
Aluminium zirconium octachlorohydrex gly; Aluminium zirconium octachlorohydrex glycine complex; Aluminum zirconium octachlorohydrex gly; Aluminum zirconium octachlorohydrex glycine complex

> <PRODUCTS>
24 Hour High Performance Antiperspirant; 5 Day; ARRID EXTRA DRY Antiperspirant Deodorant Cool Shower; ARRID EXTRA DRY Antiperspirant Deodorant Morning Clean; ARRID EXTRA DRY Antiperspirant Deodorant Ultra Fresh; ARRID XX Extra Extra Dry Invisible Solid Antiperspirant Deodorant Cool Blast; ART OF SPORT ANTIPERSPIRANT plus DEODORANT CHALLENGE; ART OF SPORT ANTIPERSPIRANT plus DEODORANT COMPETE; ART OF SPORT ANTIPERSPIRANT plus DEODORANT RISE; Active Antiperspirant and Deodorant for Men; Adidas 24H Anti Perspirant Deep Energy 2.8; Adidas 24H Anti Perspirant Dynamic Pulse 2.8; Adidas 24H Anti Perspirant Pure Game 2.8; Adidas Action 3 Control; Adidas Action 3 Fresh; Adidas Action 3 Intense; Adidas Action 3 Pure; Adidas for Women Action 3 Fresh; Adidas for Women Action 3 Intensive; Adidas for Women Action 3 Pure; Affinia Antiperspirant Deodorant Sweet Cream and Willow; Affinia Antiperspirant Deodorant Vanilla Musk and Jasmine; Alloy Antiperspirant and Deodorant; Amazing Grace Antiperspirant and Deodorant; Amerfresh Antiperspirant Deodorant; Anti-Perspirant Deodorant; Antiperspirant Maximum Security; Aqua Sport Antiperspirant and Deodorant for Men; Aramis 24 Hour High Performance Antiperspirant; Aramis Antiperspirant; Arrid Extra Extra Dry Cool Shower; Arrid Extra Extra Dry Regular; Arrid Extra Extra Dry Ultra Fresh; Arrid Extra Extra Unscented Solid; Arrid XX Extra Extra Dry Antiperspirant Deodorant Cool Shower; Arrid XX Extra Extra Dry Antiperspirant Deodorant Regular; Arrid XX Extra Extra Dry Antiperspirant Deodorant Ultra Fresh; Arrid XX Unscented Antiperspirant Deodorant Unscented; Art Of Sport Antiperspirant Compete; Art Of Sport Antiperspirant Defy; Art Of Sport Antiperspirant Rise; Art Of Sport Antiperspirant Victory; Axe; Axe Adrenaline Antiperspirant; Axe Advanced Protection Antiperspirant and Deodorant; Axe Air Antiperspirant Deodorant; Axe Apollo Antiperspirant and Deodorant; Axe Black Antiperspirant; Axe Black Antiperspirant and Deodorant; Axe Black Chill Antiperspirant and Deodorant; Axe Black Eclipse Antiperspirant and Deodorant; Axe Charge Up Antiperspirant and Deodorant; Axe Clinical Protection Antiperspirant and Deodorant; Axe Clix Antiperspirant and Deodorant; Axe Dark Temptation Antiperspirant and Deodorant; Axe Dark Temptation Invisible Solid Antiperspirant and Deodorant; Axe Dry Anarchy; Axe Dry Apollo Antiperspirant Deodorant; Axe Dry Black Chill Antiperspirant Deodorant; Axe Dry Clix; Axe Dry Dark Temptation; Axe Dry Essence; Axe Dry Excite; Axe Dry Harmony Antiperspirant Deodorant; Axe Dry Kilo; Axe Dry Peace Antiperspirant Deodorant; Axe Dry Phoenix; Axe Dry Sharp Focus; Axe Dry Twist; Axe Essence Antiperspirant and Deodorant; Axe Essence Invisible Solid Antiperspirant and Deodorant; Axe Excite Antiperspirant and Deodorant; Axe Forest Antiperspirant and Deodorant; Axe Gold Antiperspirant and Deodorant; Axe Gold Temptation Antiperspirant Deodorant; Axe Gold Temptation Antiperspirant and Deodorant; Axe Instinct Antiperspirant and Deodorant; Axe Island Antiperspirant Deodorant; Axe Island Antiperspirant and Deodorant; Axe Kilo Antiperspirant and Deodorant; Axe Kilo Invisible Solid Antiperspirant and Deodorant; Axe Night Antiperspirant Deodorant; Axe Night Antiperspirant and Deodorant; Axe Phoenix Antiperspirant and Deodorant; Axe Phoenix Invisible Solid; Axe Sharp Focus Invisible Solid Antiperspirant and Deodorant; Axe Signature Air Antiperspirant Deodorant; Axe Signature Forest Antiperspirant; Axe Signature Forest Antiperspirant Deodorant; Axe Signature Gold 48HR Antiperspirant; Axe Signature Island Antiperspirant; Axe Signature Island Antiperspirant Deodorant; Axe Signature Night Antiperspirant; Axe Signature Night Antiperspirant Deodorant; Axe Touch Antiperspirant and Deodorant; Axe Twist Invisible Solid; Axe Urban Antiperspirant; Axe You Antiperspirant; Axe You Got Something Antiperspirant and Deodorant; BRUT Active Sport; Ban Clear Antiperspirant Deodorant Cool Sport; Ban Clear Antiperspirant Deodorant Powder Fresh; Ban Invisible Solid Antiperspirant Deodorant Island Falls; Ban Invisible Solid Antiperspirant Deodorant Paradise Winds; Ban Invisible Solid Antiperspirant Deodorant Powder Fresh; Ban Invisible Solid Antiperspirant Deodorant Shower Fresh; Ban Invisible Solid Antiperspirant Deodorant Simply Clean; Ban Invisible Solid Antiperspirant Deodorant Sweet Simplicity; Ban Invisible Solid Antiperspirant Deodorant Unscented; Ban Invisible Solid Antiperspirant Deodorant Vanilla Softness; Bath and Body Works Bourbon; Bath and Body Works Graphite; Bath and Body Works Marble; Bath and Body Works Ocean; Bath and Body Works Teakwood; Bio-Strike Antiperspirant/Deodorant; Body Guard Sport Clear; Body Satin Antiperspirant and Deodorant; Body Series Invisible Solid Deodorant and Antiperspirant Clean Scent; Bone Collector; Brut ACTIVE SPORT; Brut Anti-perspirant and Deodorant Original Fragrance; Brut Antiperspirant; Brut Antiperspirant Arctic Force; Brut Arctic Force; Brut Black Ice; Brut Blue Wave; Brut Classic Anti-perspirant and Deodorant; Brut Overdrive; Brut Stamina; CERTAIN DRI A.M. Roll-On; CERTAIN DRI Everyday Strength Antiperspirant Deodorant SOLID; CVS pharmacy Clinical Strength; Certain Dri A.M.; Certain Dri Am Roll-ON; Certain Dri Am Solid; Certain Dri Everyday Strength Clinical SOLID; Charm-Tex ANTIPERSPIRANT ROLL-ON DEODORANT; Charm-Tex Antiperspirant Roll On Deodorant; Charm-Tex Antiperspirant Stick Deodorant; Charm-Tex Deodorant; Clear-N-Smooth; Clear-N-Smooth Antiperspirant - Perpetual; Clinical Strength MiracleDry Antiperspirant Deodorant AM; Clinique For Men Antiperspirant Deodorant Stick; Code Blue Scent Elimination; Control Freak Pit Stick; Cremo Anti-Perspirant Deodorant Activated Charcoal; Cremo Anti-Perspirant Deodorant Blue Cedar and Cypress; Cremo Anti-Perspirant Deodorant Bourbon Vanilla Blend; Cremo Anti-Perspirant Deodorant Bourbon and Oak; Cremo Anti-Perspirant Deodorant Citrus and Mint Leaf; Cremo Anti-Perspirant Deodorant Fresh Citrus Blend; Cremo Anti-Perspirant Deodorant Reserve Blend; Cremo Anti-Perspirant Deodorant Sage and Citrus; Cremo Anti-Perspirant Deodorant Silver Water and Birch; Cremo Antiperspirant Citrus; Cremo Antiperspirant Reserve; Cremo Antiperspirant Sage; Cremo Antiperspirant Silver Water; Cremo Antiperspirant Sliver Water; Cremo antiperspirant blue cedar; DELTA RON 2019 AMENITY With Colgate Cavity Protection; DIOR HOMME Eau For Men; DOVE Antiperspirant; DURADRY AM Barca; DURADRY AM Clear Sky; DURADRY AM End Game; DURADRY AM Limitless; Dead Down Wind Antiperspirant Scent Prevent; Dead Down Wind Unscented Soft Solid Antiperspirant and Deodorant; Degree; Degree 5 In 1 Clinical Protection Antiperspirant and Deodorant; Degree Active Clean Antiperspirant and Deodorant; Degree Adrenaline Adventure Antiperspirant and Deodorant; Degree Adrenaline Everest Antiperspirant and Deodorant; Degree Adrenaline Extreme Antiperspirant Deodorant; Degree Adrenaline Ironman Antiperspirant Deodorant; Degree Adrenaline Sport Defense Antiperspirant and Deodorant; Degree Adrenaline Sport Defense Invisible Stick Antiperspirant and Deodorant; Degree Adventure Antiperspirant and Deodorant; Degree Antiperspirant Deodorant 5 In 1 Clinical Protection; Degree Classic Romance Antiperspirant and Deodorant; Degree Clean Antiperspirant and Deodorant; Degree Clear Solid Floral Breeze Antiperspirant and Deodorant; Degree Clear Solid Lightly Scented Antiperspirant and Deodorant; Degree Clear Solid Sheer Powder Antiperspirant and Deodorant; Degree Clear Solid Shower Clean Antiperspirant and Deodorant; Degree Clear Solid Silky Fresh Antiperspirant and Deodorant; Degree Clinical Adventure Antiperspirant and Deodorant; Degree Clinical Antiperspirant and Deodorant Sheer Powder; Degree Clinical Men Clean Antiperspirant and Deodorant; Degree Clinical Men Extreme Fresh Antiperspirant and Deodorant; Degree Clinical Men Sport Strength Antiperspirant and Deodorant; Degree Clinical Men Thermo Dry Antiperspirant and Deodorant; Degree Clinical Protection Active Clean Antiperspirant and Deodorant; Degree Clinical Protection Active Shield Antiperspirant; Degree Clinical Protection Antiperspirant Deodorant Shower Clean; Degree Clinical Protection Classic Romance Antiperspirant and Deodorant; Degree Clinical Protection Clean Antiperspirant and Deodorant; Degree Clinical Protection Cool Rush Antiperspirant and Deodorant; Degree Clinical Protection Fresh Energy Antiperspirant and Deodorant; Degree Clinical Protection Motion Sense Classic Romance Antiperspirant and Deodorant; Degree Clinical Protection Motion Sense Cotton Fresh Antiperspirant and Deodorant; Degree Clinical Protection Motion Sense Linen Dry Antiperspirant and Deodorant; Degree Clinical Protection Motion Sense Sexy Intrigue Antiperspirant and Deodorant; Degree Clinical Protection Motion Sense Sheer Powder Antiperspirant and Deodorant; Degree Clinical Protection Motion Sense Stress Control Antiperspirant and Deodorant; Degree Clinical Protection Motion Sense Summer Strength Antiperspirant and Deodorant; Degree Clinical Protection Sheer Powder Antiperspirant and Deodorant; Degree Clinical Protection Shower Clean Antiperspirant and Deodorant; Degree Clinical Sheer Powder Antiperspirant and Deodorant; Degree Clinical Shower Clean Antiperspirant and Deodorant; Degree Cool Comfort Antiperspirant and Deodorant; Degree Cool Rush Antiperspirant and Deodorant; Degree Cotton Fresh Antiperspirant and Deodorant; Degree Expert Protection Motion Sense Daisy Fresh; Degree Expert Protection Motion Sense Peach Burst; Degree Extreme Antiperspirant and Deodorant; Degree Extreme Blast Antiperspirant and Deodorant; Degree For Women Classic Romance Antiperspirant and Deodorant; Degree For Women Delicious Bliss Antiperspirant and Deodorant; Degree For Women Sexy Intrique Antiperspirant and Deodorant; Degree Fresh Antiperspirant and Deodorant; Degree Fresh Energy Antiperspirant and Deodorant; Degree Fresh Oxygen Antiperspirant and Deodorant; Degree Girl Friends Forever Antiperspirant and Deodorant; Degree Girl Friends Forever Invisible Solid Antiperspirant and Deodorant; Degree Girl Just Dance Antiperspirant and Deodorant; Degree Girl Just Dance Invisible Solid Antiperspirant and Deodorant; Degree Girl Love Antiperspirant and Deodorant; Degree Girl Twilight Kiss Antiperspirant and Deodorant; Degree Honeysuckle and Tea Tree Oil Antiperspirant and Deodorant; Degree Invisible Solid Fresh Oxygen Antiperspirant and Deodorant; Degree Ironman Antiperspirant and Deodorant; Degree Love Antiperspirant and Deodorant; Degree Men; Degree Men Adventure; Degree Men Clinical Clean Antiperspirant and Deodorant; Degree Men Clinical Cool Rush Antiperspirant and Deodorant; Degree Men Clinical Protection Adventure; Degree Men Cool Comfort 48H Antiperspirant; Degree Men Cool Rush 48H Antiperspirant; Degree Men Everest Antiperspirant and Deodorant; Degree Men MotionSense Active Shield 48H Antiperspirant; Degree Men MotionSense Active Shield Antiperspirant; Degree Men MotionSense Adventure 48H Antiperspirant; Degree Men MotionSense Cool Rush 48H Antiperspirant; Degree Men MotionSense Everest 48H Antiperspirant; Degree Men MotionSense Extreme 48H Antiperspirant; Degree Men MotionSense Extreme Blast 48H Antiperspirant; Degree Men MotionSense Overtime 48H Antiperspirant; Degree Men MotionSense Sport Defense 48H Antiperspirant; Degree Men Motionsense Stress Control 48H Antiperspirant; Degree Men Motionsense UltraClear Black and White 48H Antiperspirant; Degree Men Motionsense UltraClear Black and White Fresh 48H Antiperspirant; Degree Men Sport 48H Antiperspirant; Degree Men Sport Defense; Degree Motion Sense Berry Cool Antiperspirant and Deodorant; Degree Motion Sense Blossoming Orchid Antiperspirant and Deodorant; Degree Motion Sense Daisy Fresh Antiperspirant and Deodorant; Degree Motion Sense Fresh Energy Antiperspirant and Deodorant; Degree Motion Sense Linen Dry Antiperspirant and Deodorant; Degree Motion Sense Peach Burst Antiperspirant and Deodorant; Degree Motion Sense Sexy Intrigue Antiperspirant and Deodorant; Degree Motion Sense Sheer Powder Antiperspirant and Deodorant; Degree Motion Sense Shower Clean Antiperspirant and Deodorant; Degree Motion Sense Tropical Rush Antiperspirant and Deodorant; Degree MotionSense Active Shield Antiperspirant Deodorant; Degree MotionSense Adventure Antiperspirant Deodorant; Degree MotionSense Cool Rush Antiperspirant Deodorant; Degree MotionSense Daisy Fresh and Aloe Vera Scent Antiperspirant; Degree MotionSense Everest Antiperspirant Deodorant; Degree MotionSense Extreme Antiperspirant Deodorant; Degree MotionSense Grapefruit and Verbena Scent Antiperspirant; Degree MotionSense Ironman Antiperspirant Deodorant; Degree MotionSense Overtime Antiperspirant Deodorant; Degree MotionSense Sport Defense Antiperspirant Deodorant; Degree MotionSense White Flowers and Lychee Scent Antiperspirant; Degree Motionsense Stress Control Invisible Solid Antiperspirant; Degree Motionsense UltraClear Black and White Invisible Solid 48H Antiperspirant; Degree Motionsense UltraClear Black and White Pure Clean Invisible Solid 48H Antiperspirant; Degree Nature Effects Absorbent Sea Salt Antiperspirant and Deodorant; Degree Nature Effects Honeysuckle and Tea Tree Oil Antiperspirant and Deodorant; Degree Nature Effects Orange Flower and Cranberry Antiperspirant and Deodorant; Degree Orange Flower and Cranberry Antiperspirant and Deodorant; Degree Overtime Antiperspirant and Deodorant; Degree Power Antiperspirant and Deodorant; Degree Pure Clean Antiperspirant and Deodorant; Degree Pure Rain Antiperspirant and Deodorant; Degree Red Satin Antiperspirant and Deodorant; Degree Sexy Intrigue Antiperspirant and Deodorant; Degree Sheer Lilac Antiperspirant and Deodorant; Degree Sheer Powder Antiperspirant and Deodorant; Degree Shower Clean Anti-perspirant and Deodorant; Degree Shower Clean Antiperspirant and Deodorant; Degree Sport Antiperspirant and Deodorant; Degree Sport Defense Antiperspirant and Deodorant; Degree UltraClear Pure Clean Antiperspirant and Deodorant; Degree UltraClear Pure Satin Antiperspirant and Deodorant; Degree Ultraclear Red Satin; Degree V12 Antiperspirant and Deodorant; Degree White Flower Basil Antiperspirant and Deodorant; Degree Women Clinical Protection Sexy Intrigue; Degree Women Nature Effects Honeysuckle and Tea Tree Oil; Degree Women Nature Effects Olive Leaf and Pink Pepper; Degree Women Nature Effects Orange Flower and Cranberry; Degree Women Sheer Powder Antiperspirant and Deodorant; Degree Women Shower Clean Antiperspirant and Deodorant; Degree Women UltraClear Pure Rain Antiperspirant and Deodorant; Degree for Men Absolute Protection Cool Rush Antiperspirant and Deodorant; Degree for Men Absolute Protection V12 Antiperspirant and Deodorant; Degree for Men Clean Antiperspirant and Deodorant; Degree for Men Cool Comfort Antiperspirant and Deodorant; Degree for Men Cool Rush Antiperspirant and Deodorant; Degree for Men Extreme Blast Antiperspirant and Deodorant; Degree for Men Power Antiperspirant and Deodorant; Degree for Men Sport Antiperspirant and Deodorant; Dior Homme Sans Alcohol Free Antiperspirant; Dior Homme Sport; Dividends; Dollar Shave Club Grounds Keeper; Donna Karan Cashmere Mist Deodorant Anti-perspirant; Dove; Dove Advanced Care Beauty Finish Antiperspirant and Deodorant; Dove Advanced Care Caring Coconut Antiperspirant and Deodorant; Dove Advanced Care Cool Essentials Antiperspirant and Deodorant; Dove Advanced Care Invisible Clear Finish 48h Antiperspirant; Dove Advanced Care Invisible Sheer Fresh 48h Antiperspirant; Dove Advanced Care Lavender Fresh 48h Antiperspirant; Dove Advanced Care Nourished Beauty Antiperspirant and Deodorant; Dove Advanced Care Original Clean Antiperspirant and Deodorant; Dove Advanced Care Pink Rosa Antiperspirant Deodorant; Dove Advanced Care Powder Soft Antiperspirant and Deodorant; Dove Advanced Care Rebalance Antiperspirant and Deodorant; Dove Advanced Care Restore Antiperspirant Deodorant; Dove Advanced Care Revive Antiperspirant and Deodorant; Dove Advanced Care Sensitive Antiperspirant and Deodorant; Dove Advanced Care Shea Butter Antiperspirant Deodorant; Dove Advanced Care Sheer Touch Antiperspirant Deodorant; Dove Advanced Care Skin Renew Antiperspirant Deodorant; Dove Advanced Care Soothing Chamomile Antiperspirant Deodorant; Dove Clean Comfort Antiperspirant and Deodorant; Dove Clear Solid Beauty Finish Antiperspirant and Deodorant; Dove Clear Solid Rebalance Antiperspirant and Deodorant; Dove Clear Solid Revive Antiperspirant and Deodorant; Dove Clear Solid Soothing Chamomile Antiperspirant and Deodorant; Dove Cleartone Pink Antiperspirant Deodorant; Dove Cleartone Sheer Touch Antiperspirant Deodorant; Dove Cleartone Skin Renew Antiperspirant Deodorant; Dove Clinical Protection Cleartone Antiperspirant and Deodorant; Dove Clinical Protection Cool Energizing Antiperspirant and Deodorant; Dove Clinical Protection Cool Essentials Antiperspirant and Deodorant; Dove Clinical Protection Original Clean Antiperspirant and Deodorant; Dove Clinical Protection Powder Soft Antiperspirant and Deodorant; Dove Clinical Protection Rebalance Antiperspirant and Deodorant; Dove Clinical Protection Revive Antiperspirant and Deodorant; Dove Clinical Protection Skin Renew Antiperspirant; Dove Clinical Protection Soothing Chamomile Antiperspirant and Deodorant; Dove Clinical Protection Visibly Smooth Wild Rose Antiperspirant and Deodorant; Dove Cool Essentials Antiperspirant and Deodorant; Dove Extra Fresh Antiperspirant and Deodorant; Dove Fresh Antiperspirant and Deodorant; Dove Go Fresh Burst Antiperspirant and Deodorant; Dove Go Fresh Energizing Antiperspirant and Deodorant; Dove Go Fresh Rebalance Antiperspirant and Deodorant; Dove Go Fresh Restore Antiperspirant and Deodorant; Dove Go Sleeveless Beauty Finish Antiperspirant and Deodorant; Dove Go Sleeveless Fragrance Free Antiperspirant and Deodorant; Dove Go Sleeveless Nourished Beauty Antiperspirant and Deodorant; Dove Go Sleeveless Original Clean Antiperspirant and Deodorant; Dove Go Sleeveless Sensitive Antiperspirant and Deodorant; Dove Go Sleeveless Shea Butter Antiperspirant and Deodorant; Dove Go Sleeveless Soothing Chamomile Antiperspirant and Deodorant; Dove IS Fresh Antiperspirant and Deodorant; Dove IS Original Clean Antiperspirant and Deodorant; Dove IS Powder Antiperspirant and Deodorant; Dove Jasmine Finish Dry Serum Antiperspirant; Dove Men Clinical Protection Clean Comfort Antiperspirant and Deodorant; Dove Men plus Care Aqua Impact Antiperspirant and Deodorant; Dove Men plus Care Clean Comfort Antiperspirant and Deodorant; Dove Men plus Care Cool Fresh Antiperspirant; Dove Men plus Care Cool Silver Antiperspirant and Deodorant; Dove Men plus Care Elements Mineral Powder and Sandalwood Antiperspirant; Dove Men plus Care Elements Mineral and Sage Antiperspirant; Dove Men plus Care Extra Fresh Antiperspirant and Deodorant; Dove Men plus Care Fresh Awake Antiperspirant and Deodorant; Dove Men plus Care Invisible 48h Powerful Protection Antiperspirant; Dove Men plus Care Invisible Fresh Antiperspirant; Dove Men plus Care Sensitive Shield Antiperspirant and Deodorant; Dove Men plus Care Unscented Antiperspirant and Deodorant; Dove Nature Fresh Antiperspirant and Deodorant; Dove Nourished Beauty Antiperspirant Deodorant; Dove Original Clean Antiperspirant and Deodorant; Dove Pearl Finish Antiperspirant Deodorant; Dove Powder Antiperspirant and Deodorant; Dove Powder Finish Dry Serum Antiperspirant; Dove Radiant Silk Antiperspirant and Deodorant; Dove Revive Antiperspirant and Deodorant; Dove Rose Finish Dry Serum Antiperspirant; Dove Sensitive Skin Antiperspirant and Deodorant; Dove Ultimate Beauty Care Light Radiance; Dove Ultimate Beauty Care Original Clean Antiperspirant and Deodorant; Dove Ultimate Beauty Care Sheer Silk; Dove Ultimate Beauty Care Silk Powder Antiperspirant and Deodorant; Dove Ultimate Beauty Care Smooth Cashmere Antiperspirant and Deodorant; Dove Ultimate Go Fresh Burst Antiperspirant and Deodorant; Dove Ultimate Go Fresh Cool Essentials; Dove Ultimate Go Fresh Energizing Antiperspirant and Deodorant; Dove Ultimate Go Fresh Rebalance Antiperspirant and Deodorant; Dove Ultimate Go Fresh Refreshing Antiperspirant and Deodorant; Dove Ultimate Go Fresh Revive; Dove Ultimate Sensitive Care Fragrance Free Antiperspirant and Deodorant; Dove Ultimate Visibly Smooth Nature Fresh Antiperspirant and Deodorant; Dove Ultimate Visibly Smooth Wild Rose Antiperspirant and Deodorant; Dove Visibly Clear Cool Essentials Antiperspirant and Deodorant; Dove Wild Rose Antiperspirant and Deodorant; Dr. Nona; Dry Idea A.Dry Antiperspirant Solid Powder Fresh; Dry Idea A.Dry Antiperspirant Solid Unscented; Dry Idea A.Dry Antiperspirant Unscented; Dry Idea A.Dry Inv.Sol. Antiperspirant Cool Blast; Dry Idea AD Antiperspirant Roll-On Powder Fresh; Dry Idea Advanced Dry; Dry Idea Advanced Dry Fresh; Dry Idea Advanced Dry-Cotton Dry; Dry Idea Advanced Dry-Powder Fresh; Dry Idea AdvancedDry Antiperspirant Unscented; Dry Idea Antiperspirant; Dry Idea Clean; Dry Idea Clinical Clear Clean; Dry Idea Stress Shield Inspire Antiperspirant Deodorant Roll-On; Duke Cannon Antiperspirant; Duke Cannon Bay Rum; Duke Cannon Cooling Antiperspirant; Duke Cannon Fresh Antiperspirant; Duke Cannon Midnight Swim; Duke Cannon Naval Diplomacy; Duke Cannon Prescott; Duke Cannon Sawtooth; Duke Cannon Superior; Duke Cooling Antiperspirant; Duradry Am; Duradry Antiperspirant; Duradry Antiperspirant Deoderant; Duradry Deodorant stick; EQUATE Clinical Strength; Edge Antiperspirant Deodorant - Active Endurance; Edge Antiperspirant Deodorant - Glacier Fresh; Everyday Strength Underarm Antiperspirant Fresh Lavender; FAMILY DOLLAR Clinical Strength; Face Saver Gel; Family Dollar Celsius Antiperspirant Deodorant 2 oz stick; Gillette Clear Advanced 5in1 Cool Wave; Gillette Clear Arctic Ice; Gillette Clear Brisa Tropical; Gillette Clear Cool Wave; Gillette Clear Gel Antiperspirant; Gillette Clear Ocean Blast; Gillette Clear Pacific Tide; Gillette Clear Plus Dri-Tech Arctic Ice; Gillette Clear Plus Dri-Tech Clear Shield; Gillette Clear Plus Dri-Tech Cool Wave; Gillette Clear Plus Dri-Tech Pacific Tide; Gillette Clear Plus Dri-Tech Power Rush; Gillette Clear Plus Dri-Tech Scent Xtend; Gillette Clear Plus Dri-Tech Skin Guard; Gillette Clear Plus Dri-Tech Sport Active; Gillette Clear Plus Dri-Tech Unscented; Gillette Clear Plus Dri-Tech Wild Rain; Gillette Clear Plus Scent Boost Cool Wave; Gillette Clear Power Rush; Gillette Clear Sport Triumph; Gillette Clear Ultimate Fresh; Gillette Clear Undefeated; Gillette Clear Wild Rain; Gillette Clinical Advanced Fresh; Gillette Clinical Advanced Sport Triumph; Gillette Clinical Advanced Training Day; Gillette Clinical Advanced Ultimate Fresh; Gillette Clinical Clear Undefeated; Gillette Clinical Cool Wave Clear; Gillette Clinical Endurance Clear Cool Wave; Gillette Clinical Odor Shield; Gillette Clinical Pressure Defense Clear; Gillette Clinical Protection Cool Wave Clear; Gillette Clinical Protection Fresh Xtend Invisible; Gillette Clinical Sensitive Skin; Gillette Clinical Soft Sport Triumph; Gillette Clinical Soft Ultimate Fresh; Gillette Clinical Sport Advanced Training Day; Gillette Clinical Sport Clear Power Rush; Gillette Clinical Sport Triumph; Gillette Clinical Strength All Day Fresh; Gillette Comfort plus Dri-Tech Clean Rush; Gillette Comfort plus Dri-Tech Cool Wave; Gillette Comfort plus Dri-Tech Fresh Xtend; Gillette Comfort plus Dri-Tech Unscented; Gillette Endurance Arctic Ice Clear; Gillette Endurance Clear Brisa Tropical; Gillette Endurance Cool Wave Clear; Gillette Endurance Power Beads Cool Wave Clear; Gillette Endurance Ultimate Fresh Clear; Gillette Endurance Wild Rain Clear; Gillette Fresh; Gillette Hydra Aloe; Gillette Hydra Eucalyptus; Gillette Hydra Tea Tree; Gillette Hydra Vitamin E; Gillette Mach 3 Invisible Clean; Gillette Mach 3 Invisible Fresh; Gillette Odor Shield All Day Clean; Gillette Odor Shield Fresh Response; Gillette Odor Shield Invisible Arctic Ice; Gillette Odor Shield Invisible Cool Wave; Gillette Odor Shield Sport; Gillette Power Beads Antiperspirant; Gillette Power Beads Cool Wave; Gillette Power Beads Power Rush; Gillette Sport Clear Sport Triumph; Gillette Sport Clear and Refreshing; Gillette Sport Invisible Sport Triumph; Gillette Sport Invisible Training Day; Gillette Sport Power Beads Power Rush Clear; Gillette Sport Power Rush Clear; Gillette Sport Sport Triumph Clear; Gillette Sport Undefeated Clear; Gillette Sport Undefeated Invisible; Gorilla Warfare; Guy Laroche Paris Drakkar Essence Antiperspirant Deodorant; Hand Antiperspirant Daily Use; Hand Saver; Handy Solutions Dove Cool Essential Cucumber and Green Tea Scent Anti-perspirant; Harrys Antiperspirant Fig; Harrys Antiperspirant Redwood; Harrys Antiperspirant Shiso; Harrys Antiperspirant Stone; Harrys Antiperspirant Wildlands; Harrys Extra Strength Antiperspirant Fig; Harrys Extra Strength Antiperspirant Redwood; Harrys Extra Strength Antiperspirant Shiso; Harrys Extra Strength Antiperspirant Stone; Harrys Extra Strength Antiperspirant Wildlands; Hello; Helmm Antiperspirant Deodorant Coastline; Helmm Antiperspirant Deodorant Hudson; Helmm Antiperspirant Deodorant Night Market; Helmm Antiperspirant Deodorant Trailblazer; Irish Spring Legendary Classic Antiperspirant Deodorant; Jack Black Clean and Cool Body Basics; Jack Black Grab N Go Traveler; Jafra Daily Floral Mist for Women; Lab Series Antiperspirant Deodorant Skincare for Men; Lab Series Skin Supplies for Men Antiperspirant Deodorant; Lactovit DEODORANT AND ANTIPERSPIRANT INVISIBLE ANTISTAIN; Lactovit DEODORANT ROLL-ON MEN INVISIBLE; Lactovit Deodorant Antiperspirant Invisible; Lactovit Deodorant Antiperspirant Men Invisible; Lactovit INVISIBLE ANTISTAIN DEODORANT AND ANTIPERSPIRANT; Lactovit Invisible Antistain Deodorant and Antiperspirant; Lactovit Men Invisible Antistain Deodorant and Antiperspirant; Lacura Body Care Powder Fresh; Lacura Body Care Shower Fresh; Lacura Extreme Blast anti-perspirant deodorant; Lacura Invisible Solid Powder Fresh anti-perspirant deodorant; Lacura Invisible Solid Shower Fresh anti-perspirant deodorant; Lacura Ultimate Endurance Pure Sport anti-perspirant deodorant; Lacura for Men Extreme Blast; Lacura for Men Ultimate Endurance; Ladies Speed Stick 24/7 Smooth Perfection; Lady Speed INVISIBLE DRY antiperspirant deodorant; Lady Speed Stick 24/7 Fresh Fusion; Lady Speed Stick 24/7 Powder Burst; Lady Speed Stick 24x7 Cool Breeze; Lady Speed Stick 24x7 Floral Splash; Lady Speed Stick 24x7 Powder Burst; Lady Speed Stick 24x7 Spa Lotus Glow; Lady Speed Stick 24x7 Spa Valencia Mist; Lady Speed Stick Clinical Proof pH active; Lady Speed Stick Clinical Shower Fresh; Lady Speed Stick Double Defense Active Fresh - antiperspirant/deodorant; Lady Speed Stick Double Defense Floral Fresh - antiperspirant/deodorant; Lady Speed Stick Enchanted Cherry Blossom Antiperspirant Deodorant; Lady Speed Stick Fresh Fusion; Lady Speed Stick Fresh Infusions Sparkling Lime Coconut; Lady Speed Stick Invisible Dry; Lady Speed Stick Invisible Dry Aloe Soothing; Lady Speed Stick Invisible Dry Powder Fresh; Lady Speed Stick Invisible Dry Power Powder Fresh; Lady Speed Stick Invisible Dry Power Spring Blossom; Lady Speed Stick Invisible Dry Power Spring Blossom - antiperspirant/deodorant; Lady Speed Stick Invisible Dry Power Wild Freesia; Lady Speed Stick Invisible Dry Shower Fresh; Lady Speed Stick Invisible Dry Shower Fresh Antiperspirant Deodorant; Lady Speed Stick Invisible Dry Wild Freesia; Lady Speed Stick Orchard Blossom Antiperspirant Deodorant; Lady Speed Stick Power Wild Freesia; Lady Speed Stick Rainkissed Water Lily; Lady Speed Stick Satin Pear; Lady Speed Stick Stainguard Daringly Fresh; Lady Speed Stick Stainguard Powder Fresh; Lady Speed Stick Stainguard Silky Chiffon Scent; Lady Speed Stick Teen Spirit Berry Blossom; Lady Speed Stick Teen Spirit Pink Crush; Lady Speed Stick Teen Spirit Pop Star; Lady Speed Stick Unstoppable Bold - antiperspirant/deodorant; Lady Speed Stick Unstoppable Charismatic - antiperspirant/deodorant; Lady Speed Stick Unstoppable Irresistible - antiperspirant/deodorant; Marine Antiperspirant and Deodorant for Men; Melaleuca Alloy Original; Melaleuca Alloy Sport; Mens Mitchum Advanced Invisible Roll-On Antiperspirant Deodorant; Mens Mitchum Advanced Invisible Roll-On Antiperspirant Deodorant Sport; Mens Speed Irish Spring Charcoal - antiperspirant/deodorant; Mens Speed Irish Spring Pure Fresh - antiperspirant/deodorant; Mens Speed Overtime Odor Control with Charcoal - antiperspirant/deodorant; Mens Speed Stick Fresh Rush - antiperspirant/deodorant; Mens Speed Stick Irish Spring Celtic Ice - antiperspirant/deodorant; Mens Speed Stick Irish Spring Original - antiperspirant/deodorant; Mens Speed Stick Overtime - antiperspirant/deodorant; Mens Speed Stick Overtime Odor Control with Charcoal - antiperspirant/deodorant; Mens Speed Stick Stainguard Clean - antiperspirant/deodorant; Mitchum Advanced Control Solid; Mitchum Clinical Soft Solid; Mitchum Invisible Solid; Mitchum Roll On; Mitchum Sensitive Skin; Mitchum Smart Solid; Molton Brown Anti-Perspirant Stick Cool Buchu; Mossy Oak Eclipse; Novadore Duradry AM; Ocean Salt Antiperspirant and Deodorant for Men; Okay Mens Aluminium Free Deodorant Stick; Okay Womens Aluminium Free Deodorant Stick; Old Spice; Old Spice After Hours; Old Spice Alpine; Old Spice Aqua Reef; Old Spice Arrrrrrg In A Box Krakengard; Old Spice Bearglove; Old Spice Blast Off; Old Spice Canyon; Old Spice Clase Mundial; Old Spice Classic Original Scent; Old Spice Clinical Sweat Defense Extra Fresh Soft; Old Spice Clinical Sweat Defense Pure Sport Plus Soft; Old Spice Clinical Sweat Defense Stronger Swagger Soft; Old Spice Deep Sea with Ocean Elements; Old Spice Desperado Anti-perspirant and Deodorant; Old Spice Dynasty Anti-perspirant; Old Spice Elklord; Old Spice Fiji Invisible with Palm Tree; Old Spice Fiji with Palm Tree; Old Spice Fresh Collection Belize; Old Spice Fresh Collection Cyprus; Old Spice Fresh Collection Komodo; Old Spice Fresh Collection Matterhorn; Old Spice Fresh Collection Zanzibar Anti-Perspirant and Deodorant; Old Spice Fresh High Endurance; Old Spice Fresh High Endurance Antiperspirant and Deodorant; Old Spice Fresher Collection Amber with Black Currant; Old Spice Fresher Collection Citron with Sandalwood; Old Spice Fresher Collection Denali; Old Spice Fresher Collection Fiji Invisible; Old Spice Fresher Collection Timber with Mint; Old Spice Game Day High Endurance; Old Spice Game Day High Endurance Antiperspirant and Deodorant; Old Spice GentleMan s Blend Aloe and Wild Sage; Old Spice GentleMan s Blend Amber and Driftwood; Old Spice GentleMan s Blend Mandarin and Musk; Old Spice GentleMan s Blend Tea Tree and Spring Water; Old Spice Grassland; Old Spice Guitar Solo; Old Spice High Endurance Clear Fresh; Old Spice High Endurance Clear Pure Sport; Old Spice High Endurance Fresh; Old Spice High Endurance Invisible Solid Game Day; Old Spice High Endurance Long Lasting Stick Playmaker; Old Spice High Endurance Original; Old Spice High Endurance Pure Sport; Old Spice High Endurance Smooth Blast; Old Spice Invisible After Hours; Old Spice Knockout; Old Spice Krakengard; Old Spice MVP; Old Spice Mambaking; Old Spice Midnight Run; Old Spice Nightpanther; Old Spice North Star; Old Spice Oasis with Vanilla Notes; Old Spice Odor Blocker Bolder Bearglove; Old Spice Odor Blocker Extra Fresh; Old Spice Odor Blocker Lasting Legend; Old Spice Odor Blocker Pure Sport Plus; Old Spice Odor Blocker Steel Courage; Old Spice Odor Blocker Stronger Swagger; Old Spice Odor Blocker Tougher Timber; Old Spice Original High Endurance; Old Spice Original High Endurance Antiperspirant and Deodorant; Old Spice Pacific Paradise Refillable; Old Spice Palm Trees In A Box Fiji; Old Spice Playmaker High Endurance; Old Spice Pure Sport; Old Spice Pure Sport High Endurance; Old Spice Pure Sport High Endurance DTV; Old Spice Red Collection After Hours; Old Spice Red Collection Ambassador Scent of Excellence; Old Spice Red Collection Captain; Old Spice Red Collection Captain Scent of Command; Old Spice Red Collection Icon; Old Spice Red Collection Nomad Scent of Adventure; Old Spice Red Collection Swagger; Old Spice Red Sky; Old Spice Red Zone Collection After Hours; Old Spice Red Zone Collection Aqua Reef; Old Spice Red Zone Collection Danger Zone; Old Spice Red Zone Collection Invisible Pure Sport; Old Spice Red Zone Collection Swagger; Old Spice Red Zone Invisible Solid Champion; Old Spice Red Zone Sweat Defense After Hours; Old Spice Red Zone Sweat Defense Champion; Old Spice Red Zone Sweat Defense Fresh; Old Spice Red Zone Sweat Defense Pure Sport; Old Spice Red Zone Sweat Defense Showtime; Old Spice Red Zone Sweat Defense Swagger; Old Spice Royalty Anti-perspirant and Deodorant; Old Spice Sea Antiperspirant and Deodorant; Old Spice SeaSpray; Old Spice Steel Titan; Old Spice Swagger Refillable; Old Spice Sweat Defense After Hours; Old Spice Sweat Defense Bearglove; Old Spice Sweat Defense Bolder Bearglove; Old Spice Sweat Defense Champion; Old Spice Sweat Defense Extra Fresh Extra Strong Anti-perspirant Deodorant; Old Spice Sweat Defense Extra Fresh Invisible; Old Spice Sweat Defense Fiji; Old Spice Sweat Defense Fresher Fiji Extra Strong Anti-perspirant Deodorant; Old Spice Sweat Defense Knockout Soft; Old Spice Sweat Defense Lasting Legend Extra Strong Anti-perspirant Deodorant; Old Spice Sweat Defense Pure Sport Plus; Old Spice Sweat Defense Steel Courage; Old Spice Sweat Defense Stronger Swagger Extra Strong Anti-perspirant Deodorant; Old Spice Sweat Defense Swagger Clear; Old Spice Sweat Defense Timber; Old Spice Tigerclaw; Old Spice Timber with Sandalwood; Old Spice Timber with Sandalwood Invisible; Old Spice Top Sail Refillable; Old Spice Tundra with Mint; Old Spice Ultimate 4in1 Swagger; Old Spice Ultra Smooth Clean Slate; Old Spice Ultra Smooth Fresh Start; Old Spice Ultra Smooth Smooth Finish; Old Spice Vista Verde; Old Spice Volcano with Charcoal; Old Spice Wild Collection Bearglove Invisible; Old Spice Wild Collection Dragonblast; Old Spice Wild Collection Dragonblast Invisible; Old Spice Wild Collection Foxcrest Invisible; Old Spice Wild Collection Hawkridge Invisible; Old Spice Wild Collection Lionpride Invisible; Old Spice Wild Collection Wolfthorn Invisible; Old Spice Wild Collection Yetifrost Invisible; Old Spice Wilderness with Lavender; Old Spice Wolfthorn; Oscar Anti Perspirant Deodorant; POWER UP for Women Bloom; Pit Boss Antiperspirant and Deodorant; Pit Boss Antiperspirant and Deodorant Stick; Pour Homme Classic Antiperspirant and Deodorant for Men; Power Stick XJ Chaos; Power Stick XJ Eclipse; Power Stick XJ Indulgence; Power Up Drive; Power Up Force; Pure Grace Antiperspirant and Deodorant; RG Sport Inv.Solid Antiperspirant Deodorant Cool; RG Sport Inv.Solid Antiperspirant Deodorant Fresh; RG TD5 Inv.Solid Antiperspirant Deodorant Cooling; RG TD5 Inv.Solid Antiperspirant Deodorant Fresh Blast; Ralph Lauren Romance Antiperspirant Deodorant; Re-Charge Black Pepper Antiperspirant Molton Brown; Revlon Mitchum Clinical Gel; Revlon Mitchum Clinical Strength Soft Solid; Right Guard Antiperspirant; Right Guard Clinical Clear Clean; Right Guard Sport Active; Right Guard Sport Fresh; Right Guard Sport Fresh Invisible Solid Antiperspirant and Deodorant; Right Guard Sport I.S. Antiperspirant Deodorant Active; Right Guard Sport I.S. Antiperspirant Deodorant Triathlon; Right Guard Sport Power Caps Clear Gel; Right Guard Sport Triathlon; Right Guard Total Defense 5 Arctic Refresh; Right Guard Total Defense Cool Peak; Right Guard Total Defense Fresh Blast; Right Guard Xtreme Clear Clean; Right Guard Xtreme Clear Fresh; Risk Force Invisible Solid Antiperspirant; Risk Friction Invisible Solid Antiperspirant; Risk Seduction Invisible Solid Antiperspirant; Risk True Invisible Solid Antiperspirant; Ron 2; Sandal Wood Antiperspirant and Deodorant for Men; Scent Blocker; Scent Killer Anti-Perspirant and Deodorant Odorless Formula; Scent Killer Gold; Scent-A-Way Anti-Perspirant Extended Protection; Scent-A-Way Odor Control; Scent-A-Way Odor Control Max; Scentlok Technologies Antiperspirant; Secret; Secret Active Cool Clear; Secret Active Cool Invisible; Secret Active Fresh Clear; Secret Active Fresh Invisible; Secret Active Sport Clear; Secret Active Sport Invisible; Secret American Bloom Invisible; Secret American Chic Invisible; Secret Antiperspirant/Deodorant Powder Fresh; Secret Antiperspirant/Deodorant Shower Fresh; Secret Australia Eucalyptus Blossom Invisible; Secret Australia Eucalyptus Blossoms Clear; Secret Berry Clear; Secret Berry Invisible; Secret Birchwater Clear; Secret Birchwater Invisible; Secret Boho Berry Invisible; Secret Bora Bora Fresh Orchid Clear; Secret Brazil Clear Rainforest Mist; Secret Brazil Invisible Rainforest Mist; Secret Brazil Rainforest Mist Clear; Secret Calm Birch Water Clear; Secret Calm Birch Water Invisible; Secret Capri Island Retreat Clear; Secret Chill Ocean Clear; Secret Chill Ocean Invisible; Secret Citrus Clear; Secret Citrus Invisible; Secret Classic Cocoa Butter Scent Clear; Secret Classic Cocoa Butter Scent Invisible; Secret Clean Lavender Invisible Antiperspirant/Deodorant; Secret Clinical Advanced Sport Fresh; Secret Clinical Clear Completely Clean; Secret Clinical Clear Ooh La La Lavender; Secret Clinical Clear Powder Protection; Secret Clinical Clear Sport Fresh; Secret Clinical Invisible Completely Clean; Secret Clinical Invisible Ooh La La Lavender; Secret Clinical Invisible Powder Protection; Secret Clinical Invisible Sport Fresh; Secret Clinical Strength Active Fresh Soft; Secret Clinical Strength Active Soft Sport Fresh; Secret Clinical Strength Advanced Powder Protection; Secret Clinical Strength Clear Clean Lavender; Secret Clinical Strength Clear Cooling Breeze; Secret Clinical Strength Clear Olay Beauty Skin Conditioners; Secret Clinical Strength Clear Sensitive Hypoallergenic Unscented; Secret Clinical Strength Clear Stress Response; Secret Clinical Strength Clear Waterproof; Secret Clinical Strength Cocoa Butter Kiss; Secret Clinical Strength FREE Soft Unscented; Secret Clinical Strength Fast Acting Invisible; Secret Clinical Strength Fast Acting Invisible Fresh Burst; Secret Clinical Strength Fearlessly Fresh; Secret Clinical Strength Free and Sensitive Soft; Secret Clinical Strength Fresh and Sensitive Invisible; Secret Clinical Strength Invisible Clean Lavender; Secret Clinical Strength Invisible Completely Clean; Secret Clinical Strength Invisible Ooh La La Lavender Scent; Secret Clinical Strength Invisible Protection; Secret Clinical Strength Invisible Sensitive Hypoallergenic Unscented; Secret Clinical Strength Invisible Stress Response; Secret Clinical Strength Invisible Waterproof; Secret Clinical Strength Invisible With Olay Beauty Skin Conditioners; Secret Clinical Strength Invisible with Olay Beauty Skin Conditioners; Secret Clinical Strength Light and Fresh; Secret Clinical Strength Night Treatment Soft Soothing Lavender; Secret Clinical Strength Odor Shield with Charcoal Invisible; Secret Clinical Strength Ooh La La Lavender; Secret Clinical Strength Sensitive Skin/Hypoallergenic; Secret Clinical Strength Sensitive Unscented Invisible; Secret Clinical Strength Shower Fresh Invisible; Secret Clinical Strength Smooth Calming Aloe Scent; Secret Clinical Strength Smooth Fresh Water Orchid; Secret Clinical Strength Smooth Light and Fresh; Secret Clinical Strength Smooth Mean Stinks Fearlessly Fresh; Secret Clinical Strength Smooth Olay Beauty Skin Conditioners; Secret Clinical Strength Smooth Protection; Secret Clinical Strength Smooth Sensitive Hypoallergenic Unscented; Secret Clinical Strength Smooth Sport Fresh; Secret Clinical Strength Smooth Stress Response; Secret Clinical Strength Smooth Waterproof; Secret Clinical Strength Smooth ooh la la lavender scent; Secret Clinical Strength Soft Clean Lavender; Secret Clinical Strength Soft Cooling Breeze; Secret Clinical Strength Soft Light and Fresh; Secret Clinical Strength Soft Protection; Secret Clinical Strength Soft Sensitive Unscented; Secret Clinical Strength Soft Sport Fresh; Secret Clinical Strength Soft Stress Response; Secret Clinical Strength Soft Waterproof; Secret Clinical Strength Soothing Calming Aloe Scent; Secret Clinical Strength Sport Marathon Fresh; Secret Clinical Strength Stress Response Serene Citrus Scent; Secret Clinical Strength Waterproof All-Day Fresh; Secret Cocoa Butter Clear; Secret Cocoa Butter Invisible; Secret Coconut Clear; Secret Coconut Invisible; Secret Cool Waterlily Clear; Secret Cool Waterlily Invisible; Secret Cozy Vanilla Invisible; Secret Cucumber Water Invisible Solid; Secret Derma Plus Antiperspirant Cooling; Secret Derma Plus Antiperspirant Even Tone; Secret Derma Plus Antiperspirant Fragrance Free; Secret Derma Plus Antiperspirant Nourishing; Secret Eucalyptus Invisible; Secret Flawless Clear Clean; Secret Flawless Clear Refreshingly Floral; Secret Flawless Clear Unscented; Secret Flawless Renewal Protecting Powder; Secret Flawless Renewal Satiny Tropical; Secret Flawless Renewal Unscented; Secret Fresh Effects; Secret Fresh Effects Invisible Refreshing Nectarine; Secret Fresh Effects Invisible Soothing Cucumber Scent; Secret Fresh Effects Invisible Spring Cotton; Secret Fresh For You Luxe Lavender; Secret Fresh Invisible Antiperspirant/Deodorant; Secret Fresh Linen Invisible; Secret Fresh Orchid Clear; Secret Fresh Orchid Invisible; Secret Fresh and Free Invisible; Secret Freshies On-The-Go Invisible Calm Birch Water; Secret Freshies On-The-Go Invisible Chill Ocean; Secret Freshies On-The-Go Invisible Cool Waterlily; Secret Freshies On-The-Go Invisible Lavender; Secret Freshies On-The-Go Invisible Luxe Lavender; Secret Freshies On-The-Go Invisible Paris Rose; Secret Freshies On-The-Go Invisible Rose; Secret Freshies On-The-Go Invisible Waterlily; Secret Green Tea Invisible; Secret Hawaii Citrus Breeze Clear; Secret Hawaii Citrus Clear; Secret Hawaii Citrus Invisible; Secret Hawaii Clear Citrus Breeze; Secret Hawaii Invisible Citrus Breeze; Secret Honeysuckle Clear; Secret Honeysuckle Invisible; Secret Invisible Berry Fresh; Secret Invisible Bora Bora Fresh Orchid; Secret Invisible Capri Island Retreat; Secret Invisible Citrus Blossom; Secret Invisible Powder Fresh; Secret Invisible Sheer Clean; Secret Invisible Shower Fresh; Secret Invisible Solid Clean Lavender; Secret Invisible Solid Powder Fresh; Secret Invisible Solid Sheer Clean; Secret Invisible Solid Shower Fresh; Secret Invisible Solid Spring Breeze; Secret Invisible Solid Unscented; Secret Invisible Spring Breeze; Secret Invisible Tropical Orchid; Secret Invisible Unscented; Secret Lavender Clear; Secret Lavender Invisible; Secret Lavender Refillable Invisible; Secret Luxe Lavender Clear; Secret Luxe Lavender Invisible; Secret Natural Mineral Eucalyptus Blossom; Secret Natural Mineral Lemongrass Mint; Secret Natural Mineral Unscented; Secret Nectarine Clear; Secret Nectarine Invisible; Secret Oceanside Clear; Secret Oceanside Invisible; Secret Outlast Active Fresh Clear; Secret Outlast Advanced Invisible Completely Clean; Secret Outlast Almond Oil Invisible; Secret Outlast Argan Oil Invisible; Secret Outlast Clean Lavender Clear; Secret Outlast Clean Lavender Invisible; Secret Outlast Clear Clean Lavender; Secret Outlast Clear Completely Clean; Secret Outlast Clear Fresh Lotus; Secret Outlast Clear Protecting; Secret Outlast Clear Sport Fresh; Secret Outlast Clear Unscented; Secret Outlast Completely Clean; Secret Outlast Invisible Active Fresh; Secret Outlast Invisible Completely Clean; Secret Outlast Invisible Fresh Lotus; Secret Outlast Invisible Protecting; Secret Outlast Invisible Protecting Powder; Secret Outlast Invisible Sheer Energy; Secret Outlast Invisible Sport Fresh; Secret Outlast Invisible Unscented; Secret Outlast Protecting Clear; Secret Outlast Shower Fresh Invisible; Secret Outlast Sport Fresh Clear; Secret Outlast Tea Tree Oil Invisible; Secret Outlast Unscented Clear; Secret Outlast Xtend Invisible Active Fresh; Secret Outlast Xtend Invisible Clean Lavender; Secret Outlast Xtend Invisible Sensitive Clean; Secret Outlast Xtend Technology Clear Active Fresh; Secret Outlast Xtend Technology Clear Clean Lavender; Secret Outlast Xtend Technology Clear Completely Clean; Secret Outlast Xtend Technology Clear Protecting; Secret Outlast Xtend Technology Clear Sensitive Clean; Secret Outlast Xtend Technology Clear Sheer Energy; Secret Outlast Xtend Technology Clear Sport Fresh; Secret Outlast Xtend Technology Clear Unscented; Secret Outlast Xtend Technology Invisible Completely Clean; Secret Outlast Xtend Technology Invisible Protecting Powder; Secret Outlast Xtend Technology Invisible Sport Fresh; Secret Outlast Xtend Technology Invisible Unscented; Secret Outlast and Olay Smooth Completely Clean; Secret Outlast and Olay Smooth Protecting; Secret Outlast and Olay Smooth Protecting Powder; Secret Outlast and Olay Smooth Sport Fresh; Secret Outlast pH Balanced Invisible; Secret Outlast pH Balanced Invisible Shower Fresh; Secret Paris Clear Romantic Rose; Secret Paris Invisible Romantic Rose; Secret Paris Romantic Rose Clear; Secret Paris Rose Clear; Secret Paris Rose Invisible; Secret Pasion de Tango Clear; Secret Pasion de Tango Invisible; Secret Peace and Love Invisible; Secret Pomegranate Invisible Solid; Secret Powder Fresh Antiperspirant and Deodorant Wide; Secret Relaxing Lavender Invisible; Secret Rose Clear; Secret Rose Invisible; Secret Rose Refillable Invisible; Secret Scent Expressions Bella Bloom; Secret Scent Expressions CRYSTAL CLEAR CHERRY MISCHIEF; Secret Scent Expressions Cabana Cool Clear; Secret Scent Expressions Clear Cocoa Butter Kiss; Secret Scent Expressions Clear Coconut Splash; Secret Scent Expressions Clear Macaroon Delight; Secret Scent Expressions Clear Ooh La La Lavender; Secret Scent Expressions Clear So Very Summerberry; Secret Scent Expressions Clear Va Va Vanilla; Secret Scent Expressions Coco Butter Kiss; Secret Scent Expressions Crystal Clear Mystic Melon; Secret Scent Expressions Crystal Clear Passionista Fruit; Secret Scent Expressions Crystal Clear So Very Summerberry; Secret Scent Expressions Crystal Clear Truth or Pear; Secret Scent Expressions Diva La Daisy; Secret Scent Expressions Invisible Coconut Splash; Secret Scent Expressions Invisible Macaroon Delight; Secret Scent Expressions Invisible Solid Ooh-La-La Lavender; Secret Scent Expressions Invisible Solid Truth or Pear; Secret Scent Expressions Invisible Solid Va Va Vanilla; Secret Scent Expressions Invisible Sunny Citrus; Secret Scent Expressions Rockstar Rose; Secret Scent Expressions So Very Summerberry; Secret Scent Expressions Sunny Citrus Clear; Secret Scent Expressions Truth or Pear Clear; Secret Scent Expresssions Clear Pasion de tango; Secret Scent Expresssions Invisible Pasion de tango; Secret Sheer Clean Invisible Antiperspirant/Deodorant; Secret Shower Fresh Antiperspirant and Deodorant Wide; Secret Shower Fresh Invisible Antiperspirant/Deodorant; Secret Smooth Effects Refreshingly Floral; Secret Smooth Effects Satiny Tropical; Secret Smooth Effects Silky Botanical; Secret Smooth Effects Wildflower Fresh; Secret Soothing Effects Calming Garden; Secret Soothing Effects Invigorating Rain; Secret Spring Breeze Invisible Antiperspirant/Deodorant; Secret Summer Berry Clear; Secret Summer Berry Invisible; Secret Tropical Orchid Invisible Antiperspirant/Deodorant; Secret Ultimate Fresh Scent Invisible; Secret Unscented Invisible; Secret Va Va Vanilla Clear; Secret Va Va Vanilla Invisible; Secret Vanilla Clear; Secret Vanilla Invisible; Secret Vibrant Yuzu Clear; Secret Vibrant Yuzu Invisible; Secret Waterlily Clear; Secret Waterlily Invisible; Secret Waterlily Refillable Invisible; Secret Wild Sugar Clear; Secret Wild Sugar Invisible; Secret with Essential Oils Bergamot and Orange Blossom Invisible; Secret with Essential Oils Cedarwood and Citrus Invisible; Secret with Essential Oils Coconut Oil and Mandarin Invisible; Secret with Essential Oils Lavender and Eucalyptus Invisible; Secret with Essential Oils Rose and Charcoal Invisible; Secret with Essential Oils Vanilla and Sandalwood Invisible; Sheer Confidence Antiperspirant Deodorant Caribbean Sunset; Sheer Confidence Antiperspirant Deodorant Moonlit Orchid; Sheer Confidence Antiperspirant Deodorant Perfect Powder; Sheer Confidence Antiperspirant Deodorant aribbean Sunset; Skin Supplies for Men Antiperspirant; Skin Supplies for Men antiperspirant Clinique; Soft & Dri - Dri Gel With Microbeads; Soft and Dri Clear Glide IS Antiperspirant Floral Bouquet; Soft and Dri Clear Glide IS Antiperspirant Powder Soft; Soft and Dri Clinical Protection Everfresh Blossom; Soft and Dri Clinical Protection Fresh Pomegranate; Soft and Dri Dri Gel Soft Scent; Soft and Dri Soft Glide Solid; Soft and Dri drigel; Speed Stick 24/7 Cool Fusion; Speed Stick 24/7 Fresh Rush; Speed Stick 24/7 Gametime; Speed Stick 24X7 MOMENTUM; Speed Stick Apline Force; Speed Stick Clean Antiperspirant Deodorant; Speed Stick Cool Fusion; Speed Stick Crisp Cucumber; Speed Stick Fresh; Speed Stick Fresh Antiperspirant Deodorant; Speed Stick Gametime; Speed Stick Gear Clean Peak; Speed Stick Gear Cool Motion Antiperspirant Deodorant; Speed Stick Gear Fresh Force; Speed Stick Gear Overtime Invigorate Antiperspirant Deodorant; Speed Stick Gear Overtime Relentless Antiperspirant Deodorant; Speed Stick Irish Spring Icy Blast; Speed Stick Irish Spring Original; Speed Stick Irish Spring Original Antiperspirant Deodorant; Speed Stick Overtime Clear Gel; Speed Stick Power Energy Surge; Speed Stick Power Fresh; Speed Stick Power Fresh Power Fresh; Speed Stick Power Invigorate Antiperspirant Deodorant; Speed Stick Power Ultimate Sport; Speed Stick Pro Clean; Speed Stick Pro Extra Dry; Speed Stick Pro Extra Fresh; Speed Stick Pro Skin; Speed Stick Sport Talc; Speed Stick Sport Talc Antiperspirant Deodorant; Speed Stick Stainguard Clean; Speed Stick Stainguard Fresh; Speed Stick Teen Spirit Sweet Stawberry; Speed Stick Unscented; Speed Stick Unscented Antiperspirant Deodorant; Speed stick Cool Clean; Sport Anti-Perpirant Sportstick Molton Brown London; Suave; Suave Clinical Protection Almond Verbena; Suave Clinical Protection Antiperspirant and Deodorant Powder Fresh; Suave Clinical Protection Coconut Kiss; Suave Clinical Protection Everlasting Sunshine Antiperspirant and Deodorant; Suave Clinical Protection Lavender Fresh Anti-Perspirant; Suave Clinical Protection Powder Fresh Antiperspirant and Deodorant; Suave Clinical Protection Sweet Pea and Violet Anti-Perspirant; Suave Clinical Protection Tropical Paradise Anti-Perspirant; Suave Clinical Protection Wild Cherry Blossom Antiperspirant and Deodorant; Suave Cocoa Butter Antiperspirant and Deodorant; Suave IS Fresh Antiperspirant and Deodorant; Suave IS Men Sport Antiperspirant and Deodorant; Suave IS Pacific Breeze Antiperspirant and Deodorant; Suave IS Powder Antiperspirant and Deodorant; Suave IS Sweet Pea and Violet Antiperspirant and Deodorant; Suave IS Tropical Paradise Antiperspirant and Deodorant; Suave IS Wild Cherry Blossom Antiperspirant and Deodorant; Suave Men Sport Antiperspirant and Deodorant; Suave Powder Antiperspirant and Deodorant; Sure Condition and Care; Sure Conditioning Solid Pure Essence; Sure Conditioning Solid Vitamin Infusion; Sure Fresh Essence; Sure Invisible Solid Fresh Scent; Sure Invisible Solid Fresh and Cool; Sure Invisible Solid Nourishing Coconut; Sure Invisible Solid Powder Scent; Sure Invisible Solid Regular; Sure Invisible Solid Unscented; Sure Invisible Solid with Natural Extracts Cooling; Sure Invisible Solid with Natural Extracts Refreshing; Sure Original Solid Fresh Scent; Sure Original Solid Fresh and Cool; Sure Original Solid Powder; Sure Original Solid Regular; Sure Original Solid Unscented; Sure for Men; Sure for Men Invisible Solid Antiperspirant Outdoor Sport; Sure for Women; SureMAX Strong Solid Regular Scent; Sweatblock; TAG Get Yours; TAG Make Moves; TAG Spin It; TAG Stay Up; Tommy Girl Antiperspirant Deodorant; Tommy Hilfiger Antiperspirant Deodorant; Trench Warfare Antiperspirant and Deodorant; Ultra Max Tropical Sunset; UltraMax Antiperspirant Deodorant Cool Blast; UltraMax Invisible Solid Antiperspirant Deodorant Active Sport; UltraMax Invisible Solid Antiperspirant Deodorant Cool Blast; UltraMax Invisible Solid Antiperspirant Deodorant Fresh; UltraMax Invisible Solid Antiperspirant Deodorant Powder Fresh; UltraMax Invisible Solid Antiperspirant Deodorant Unscented; UltraMax Roll On Antiperspirant Deodorant Powder Fresh; Underarm Antiperspirant Daily Use Fresh Linen Scent; Underarm Antiperspirant Daily Use Mandarin Scent; Underarm Antiperspirant Daily use Charcoal Linen Scent; Underarm Antiperspirant PM Wipes Clean Lavender Scent; Vanicream Anti-perspirant/Deodorant; Vanicream Antiperspirant Deodorant; Walgreens Active Stick Antiperspirant Deodorant 3 oz; Walgreens Original Antiperspirant Deodorant 2.7 oz; Womens Mitchum Advanced Invisible Antiperspirant Deodorant Solid Clean Control; Womens Mitchum Advanced Invisible Antiperspirant Deodorant Solid Powder Fresh; Womens Mitchum Advanced Invisible Antiperspirant Deodorant Solid Pure Fresh; Womens Mitchum Advanced Invisible Antiperspirant Deodorant Solid Sport; Womens Mitchum Advanced Invisible Roll-On Antiperspirant Deodorant Powder Fresh; Womens Mitchum Clinical Antiperspirant Deodorant Soft Solid Powder Fresh; Zuska Icon; Zuska Odyssey; Zuska Rhythm; Zuska Viva; equate ANTIPERSPIRANT; equate Clinical Strength Antiperspirant/Deodorant; equate MEN COOL OCEAN ANTIPERSPIRANT; nosudamas Carrying Kit; nosudamas for MEN; nosudamas for Normal to Dry Skin; nosudamas for for Normal to Fat Skin; studio 35 beauty Clinical Strength

$$$$
