
  Mrv1909 05201914512D          

 26 29  0  0  1  0            999 V2000
    2.0630   -1.4167    0.0000 C   0  0  0  0  0  0  0  0  0  0  0  0
    2.8390   -1.6970    0.0000 C   0  0  2  0  0  0  0  0  0  0  0  0
    3.5218   -1.2340    0.0000 C   0  0  0  0  0  0  0  0  0  0  0  0
    4.1731   -1.7404    0.0000 C   0  0  1  0  0  0  0  0  0  0  0  0
    4.9853   -1.5952    0.0000 C   0  0  2  0  0  0  0  0  0  0  0  0
    5.2655   -0.8192    0.0000 C   0  0  0  0  0  0  0  0  0  0  0  0
    6.0777   -0.6740    0.0000 C   0  0  0  0  0  0  0  0  0  0  0  0
    6.6095   -1.3047    0.0000 C   0  0  0  0  0  0  0  0  0  0  0  0
    7.4216   -1.1595    0.0000 C   0  0  0  0  0  0  0  0  0  0  0  0
    7.9534   -1.7902    0.0000 C   0  0  0  0  0  0  0  0  0  0  0  0
    8.7655   -1.6450    0.0000 O   0  0  0  0  0  0  0  0  0  0  0  0
    7.6731   -2.5662    0.0000 C   0  0  0  0  0  0  0  0  0  0  0  0
    6.8610   -2.7114    0.0000 C   0  0  0  0  0  0  0  0  0  0  0  0
    6.3292   -2.0807    0.0000 C   0  0  1  0  0  0  0  0  0  0  0  0
    6.0489   -2.8566    0.0000 C   0  0  0  0  0  0  0  0  0  0  0  0
    5.5171   -2.2259    0.0000 C   0  0  0  0  0  0  0  0  0  0  0  0
    5.2368   -3.0018    0.0000 C   0  0  0  0  0  0  0  0  0  0  0  0
    4.4247   -3.1470    0.0000 C   0  0  0  0  0  0  0  0  0  0  0  0
    3.8928   -2.5163    0.0000 C   0  0  1  0  0  0  0  0  0  0  0  0
    3.5330   -3.2587    0.0000 C   0  0  0  0  0  0  0  0  0  0  0  0
    3.0683   -2.4895    0.0000 C   0  0  2  0  0  0  0  0  0  0  0  0
    2.9469   -3.3055    0.0000 O   0  0  0  0  0  0  0  0  0  0  0  0
    2.3074   -2.8084    0.0000 C   0  0  0  0  0  0  0  0  0  0  0  0
    2.2031   -3.6268    0.0000 O   0  0  0  0  0  0  0  0  0  0  0  0
    1.6508   -2.3089    0.0000 C   0  0  0  0  0  0  0  0  0  0  0  0
    0.8899   -2.6277    0.0000 O   0  0  0  0  0  0  0  0  0  0  0  0
  2  1  1  6  0  0  0
  2  3  1  0  0  0  0
  4  3  1  1  0  0  0
  4  5  1  0  0  0  0
  5  6  1  6  0  0  0
  6  7  1  0  0  0  0
  7  8  1  0  0  0  0
  8  9  2  0  0  0  0
  9 10  1  0  0  0  0
 10 11  2  0  0  0  0
 10 12  1  0  0  0  0
 12 13  2  0  0  0  0
 14 13  1  0  0  0  0
 14  8  1  0  0  0  0
 14 15  1  1  0  0  0
 14 16  1  0  0  0  0
  5 16  1  0  0  0  0
 16 17  2  0  0  0  0
 17 18  1  0  0  0  0
 19 18  1  0  0  0  0
  4 19  1  0  0  0  0
 19 20  1  1  0  0  0
 19 21  1  0  0  0  0
 21  2  1  0  0  0  0
 21 22  1  6  0  0  0
 21 23  1  1  0  0  0
 23 24  2  0  0  0  0
 23 25  1  0  0  0  0
 25 26  1  0  0  0  0
M  END
> <DATABASE_ID>
DB15114

> <DATABASE_NAME>
drugbank

> <SMILES>
C[C@@H]1C[C@H]2[C@@H]3CCC4=CC(=O)C=C[C@]4(C)C3=CC[C@]2(C)[C@@]1(O)C(=O)CO

> <INCHI_IDENTIFIER>
InChI=1S/C22H28O4/c1-13-10-18-16-5-4-14-11-15(24)6-8-20(14,2)17(16)7-9-21(18,3)22(13,26)19(25)12-23/h6-8,11,13,16,18,23,26H,4-5,9-10,12H2,1-3H3/t13-,16-,18+,20+,21+,22+/m1/s1

> <INCHI_KEY>
ZYTXTXAMMDTYDQ-DGEXFFLYSA-N

> <FORMULA>
C22H28O4

> <MOLECULAR_WEIGHT>
356.462

> <EXACT_MASS>
356.198759382

> <JCHEM_ACCEPTOR_COUNT>
4

> <JCHEM_ATOM_COUNT>
54

> <JCHEM_AVERAGE_POLARIZABILITY>
39.2587440077795

> <JCHEM_BIOAVAILABILITY>
1

> <JCHEM_DONOR_COUNT>
2

> <JCHEM_FORMAL_CHARGE>
0

> <JCHEM_GHOSE_FILTER>
1

> <JCHEM_IUPAC>
(1R,2R,3aS,3bS,9aS,11aS)-1-hydroxy-1-(2-hydroxyacetyl)-2,9a,11a-trimethyl-1H,2H,3H,3aH,3bH,4H,5H,7H,9aH,11H,11aH-cyclopenta[a]phenanthren-7-one

> <ALOGPS_LOGP>
3.36

> <JCHEM_LOGP>
2.541148066333333

> <ALOGPS_LOGS>
-4.16

> <JCHEM_MDDR_LIKE_RULE>
0

> <JCHEM_NUMBER_OF_RINGS>
4

> <JCHEM_PHYSIOLOGICAL_CHARGE>
0

> <JCHEM_PKA>
13.902385240392102

> <JCHEM_PKA_STRONGEST_ACIDIC>
12.446758809123468

> <JCHEM_PKA_STRONGEST_BASIC>
-3.3301807139236472

> <JCHEM_POLAR_SURFACE_AREA>
74.6

> <JCHEM_REFRACTIVITY>
102.22239999999998

> <JCHEM_ROTATABLE_BOND_COUNT>
2

> <JCHEM_RULE_OF_FIVE>
1

> <ALOGPS_SOLUBILITY>
2.46e-02 g/l

> <JCHEM_TRADITIONAL_IUPAC>
(2R)-14-fluoro-2-methyl-6,9,10,19-tetraazapentacyclo[14.2.1.0^{2,6}.0^{8,18}.0^{12,17}]nonadeca-1(18),8,12(17),13,15-pentaen-11-one

> <JCHEM_VEBER_RULE>
0

> <DRUGBANK_ID>
DB15114

> <DRUG_GROUPS>
investigational

> <GENERIC_NAME>
Vamorolone

> <SYNONYMS>
Vamorolone

$$$$
