
  Mrv1909 01012019162D          

123128  0  0  0  0            999 V2000
   -6.8464    1.8036    0.0000 C   0  0  0  0  0  0  0  0  0  0  0  0
   -7.0178    0.9966    0.0000 O   0  0  0  0  0  0  0  0  0  0  0  0
   -8.2442    2.1007    0.0000 N   0  0  0  0  0  0  0  0  0  0  0  0
   -7.4595    2.3556    0.0000 C   0  0  0  0  0  0  0  0  0  0  0  0
   -4.6642    1.7615    0.0000 C   0  0  0  0  0  0  0  0  0  0  0  0
   -4.4925    2.5684    0.0000 O   0  0  0  0  0  0  0  0  0  0  0  0
   -6.0618    2.0585    0.0000 N   0  0  0  0  0  0  0  0  0  0  0  0
   -5.4487    1.5065    0.0000 C   0  0  1  0  0  0  0  0  0  0  0  0
   -5.6202    0.6995    0.0000 C   0  0  0  0  0  0  0  0  0  0  0  0
   -7.7798   -4.8989    0.0000 S   0  0  0  0  0  0  0  0  0  0  0  0
   -2.6533    0.9123    0.0000 C   0  0  0  0  0  0  0  0  0  0  0  0
   -1.8687    1.1673    0.0000 O   0  0  0  0  0  0  0  0  0  0  0  0
   -4.0510    1.2094    0.0000 N   0  0  0  0  0  0  0  0  0  0  0  0
   -3.2662    1.4644    0.0000 C   0  0  1  0  0  0  0  0  0  0  0  0
   -3.0948    2.2713    0.0000 C   0  0  0  0  0  0  0  0  0  0  0  0
   -2.3103    2.5263    0.0000 S   0  0  0  0  0  0  0  0  0  0  0  0
   -2.3832   -1.2535    0.0000 C   0  0  0  0  0  0  0  0  0  0  0  0
   -3.1679   -1.5085    0.0000 O   0  0  0  0  0  0  0  0  0  0  0  0
   -2.8248    0.1054    0.0000 N   0  0  0  0  0  0  0  0  0  0  0  0
   -2.2117   -0.4466    0.0000 C   0  0  1  0  0  0  0  0  0  0  0  0
   -1.4272   -0.1916    0.0000 C   0  0  0  0  0  0  0  0  0  0  0  0
   -1.1579    0.8500    0.0000 O   0  0  0  0  0  0  0  0  0  0  0  0
   -1.3285   -3.1646    0.0000 C   0  0  0  0  0  0  0  0  0  0  0  0
   -0.5440   -2.9096    0.0000 O   0  0  0  0  0  0  0  0  0  0  0  0
   -1.7701   -1.8057    0.0000 N   0  0  0  0  0  0  0  0  0  0  0  0
   -1.9417   -2.6126    0.0000 C   0  0  1  0  0  0  0  0  0  0  0  0
   -2.7065   -2.3035    0.0000 C   0  0  0  0  0  0  0  0  0  0  0  0
   -3.3568   -2.8114    0.0000 C   0  0  0  0  0  0  0  0  0  0  0  0
   -3.2848   -3.6333    0.0000 O   0  0  0  0  0  0  0  0  0  0  0  0
   -4.1217   -2.5024    0.0000 O   0  0  0  0  0  0  0  0  0  0  0  0
   -0.1025   -4.2687    0.0000 C   0  0  0  0  0  0  0  0  0  0  0  0
    0.0690   -3.4617    0.0000 O   0  0  0  0  0  0  0  0  0  0  0  0
   -1.5002   -3.9716    0.0000 N   0  0  0  0  0  0  0  0  0  0  0  0
   -0.8871   -4.5237    0.0000 C   0  0  1  0  0  0  0  0  0  0  0  0
   -1.2226   -5.2773    0.0000 C   0  0  0  0  0  0  0  0  0  0  0  0
   -2.0431   -5.1910    0.0000 C   0  0  0  0  0  0  0  0  0  0  0  0
   -2.2144   -4.3840    0.0000 C   0  0  0  0  0  0  0  0  0  0  0  0
    1.9083   -5.1178    0.0000 C   0  0  0  0  0  0  0  0  0  0  0  0
    2.2956   -5.8462    0.0000 O   0  0  0  0  0  0  0  0  0  0  0  0
    0.5105   -4.8207    0.0000 N   0  0  0  0  0  0  0  0  0  0  0  0
    1.2952   -4.5657    0.0000 C   0  0  1  0  0  0  0  0  0  0  0  0
    1.4668   -3.7588    0.0000 C   0  0  0  0  0  0  0  0  0  0  0  0
    0.8536   -3.2066    0.0000 C   0  0  0  0  0  0  0  0  0  0  0  0
    1.0251   -2.3998    0.0000 C   0  0  0  0  0  0  0  0  0  0  0  0
    0.4121   -1.8477    0.0000 N   0  0  0  0  0  0  0  0  0  0  0  0
    0.5836   -1.0408    0.0000 C   0  0  0  0  0  0  0  0  0  0  0  0
    1.3682   -0.7858    0.0000 N   0  0  0  0  0  0  0  0  0  0  0  0
   -0.0293   -0.4887    0.0000 N   0  0  0  0  0  0  0  0  0  0  0  0
    4.0906   -5.1599    0.0000 C   0  0  0  0  0  0  0  0  0  0  0  0
    4.7038   -5.7120    0.0000 O   0  0  0  0  0  0  0  0  0  0  0  0
    2.6929   -4.8628    0.0000 N   0  0  0  0  0  0  0  0  0  0  0  0
    3.3060   -5.4149    0.0000 C   0  0  1  0  0  0  0  0  0  0  0  0
    3.1344   -6.2219    0.0000 C   0  0  0  0  0  0  0  0  0  0  0  0
   -6.6813   -5.8830    0.0000 S   0  0  0  0  0  0  0  0  0  0  0  0
    5.2184   -3.2909    0.0000 C   0  0  0  0  0  0  0  0  0  0  0  0
    4.6052   -2.7390    0.0000 O   0  0  0  0  0  0  0  0  0  0  0  0
    4.2621   -4.3530    0.0000 N   0  0  0  0  0  0  0  0  0  0  0  0
    5.0467   -4.0980    0.0000 C   0  0  1  0  0  0  0  0  0  0  0  0
    5.6599   -4.6501    0.0000 C   0  0  0  0  0  0  0  0  0  0  0  0
    6.4445   -4.3950    0.0000 C   0  0  0  0  0  0  0  0  0  0  0  0
    7.0278   -4.9785    0.0000 O   0  0  0  0  0  0  0  0  0  0  0  0
    6.6581   -3.5982    0.0000 N   0  0  0  0  0  0  0  0  0  0  0  0
    6.9590   -1.9742    0.0000 C   0  0  0  0  0  0  0  0  0  0  0  0
    7.5721   -2.5262    0.0000 O   0  0  0  0  0  0  0  0  0  0  0  0
    6.0030   -3.0361    0.0000 N   0  0  0  0  0  0  0  0  0  0  0  0
    6.1744   -2.2291    0.0000 C   0  0  1  0  0  0  0  0  0  0  0  0
    5.1935   -1.3459    0.0000 C   0  0  0  0  0  0  0  0  0  0  0  0
    4.4089   -1.6009    0.0000 C   0  0  0  0  0  0  0  0  0  0  0  0
    3.7958   -1.0488    0.0000 C   0  0  0  0  0  0  0  0  0  0  0  0
    3.0111   -1.3037    0.0000 C   0  0  0  0  0  0  0  0  0  0  0  0
    2.8396   -2.1107    0.0000 C   0  0  0  0  0  0  0  0  0  0  0  0
    2.0550   -2.3656    0.0000 O   0  0  0  0  0  0  0  0  0  0  0  0
    3.4527   -2.6628    0.0000 C   0  0  0  0  0  0  0  0  0  0  0  0
    4.2374   -2.4079    0.0000 C   0  0  0  0  0  0  0  0  0  0  0  0
    6.6890    0.1917    0.0000 C   0  0  0  0  0  0  0  0  0  0  0  0
    7.4737    0.4466    0.0000 O   0  0  0  0  0  0  0  0  0  0  0  0
    7.1306   -1.1672    0.0000 N   0  0  0  0  0  0  0  0  0  0  0  0
    6.5175   -0.6152    0.0000 C   0  0  1  0  0  0  0  0  0  0  0  0
    5.7329   -0.8701    0.0000 C   0  0  0  0  0  0  0  0  0  0  0  0
    5.1495   -0.2868    0.0000 C   0  0  0  0  0  0  0  0  0  0  0  0
    4.3526   -0.5003    0.0000 O   0  0  0  0  0  0  0  0  0  0  0  0
    5.3630    0.5100    0.0000 O   0  0  0  0  0  0  0  0  0  0  0  0
    5.6344    2.1027    0.0000 C   0  0  0  0  0  0  0  0  0  0  0  0
    4.8497    1.8478    0.0000 O   0  0  0  0  0  0  0  0  0  0  0  0
    6.0760    0.7437    0.0000 N   0  0  0  0  0  0  0  0  0  0  0  0
    6.2474    1.5507    0.0000 C   0  0  1  0  0  0  0  0  0  0  0  0
    7.2674    1.8821    0.0000 C   0  0  0  0  0  0  0  0  0  0  0  0
    7.4905    2.9312    0.0000 C   0  0  0  0  0  0  0  0  0  0  0  0
    6.9384    3.5443    0.0000 C   0  0  0  0  0  0  0  0  0  0  0  0
    7.3510    4.2587    0.0000 N   0  0  0  0  0  0  0  0  0  0  0  0
    8.1579    4.0872    0.0000 C   0  0  0  0  0  0  0  0  0  0  0  0
    8.2442    3.2667    0.0000 N   0  0  0  0  0  0  0  0  0  0  0  0
    4.4082    3.2068    0.0000 C   0  0  0  0  0  0  0  0  0  0  0  0
    4.2367    2.3998    0.0000 O   0  0  0  0  0  0  0  0  0  0  0  0
    5.8059    2.9097    0.0000 N   0  0  0  0  0  0  0  0  0  0  0  0
    5.1929    3.4617    0.0000 C   0  0  1  0  0  0  0  0  0  0  0  0
    5.5283    4.2154    0.0000 C   0  0  0  0  0  0  0  0  0  0  0  0
    6.3489    4.1292    0.0000 C   0  0  0  0  0  0  0  0  0  0  0  0
    6.5203    3.3222    0.0000 C   0  0  0  0  0  0  0  0  0  0  0  0
    2.3973    4.0559    0.0000 C   0  0  0  0  0  0  0  0  0  0  0  0
    2.5689    4.8629    0.0000 O   0  0  0  0  0  0  0  0  0  0  0  0
    3.7952    3.7588    0.0000 N   0  0  0  0  0  0  0  0  0  0  0  0
    3.0104    3.5039    0.0000 C   0  0  1  0  0  0  0  0  0  0  0  0
    2.8390    2.6969    0.0000 C   0  0  0  0  0  0  0  0  0  0  0  0
    3.4520    2.1449    0.0000 C   0  0  0  0  0  0  0  0  0  0  0  0
    3.2805    1.3379    0.0000 C   0  0  0  0  0  0  0  0  0  0  0  0
    2.4959    1.0830    0.0000 O   0  0  0  0  0  0  0  0  0  0  0  0
    3.8936    0.7859    0.0000 O   0  0  0  0  0  0  0  0  0  0  0  0
    0.2150    4.0981    0.0000 C   0  0  0  0  0  0  0  0  0  0  0  0
   -0.3980    4.6501    0.0000 O   0  0  0  0  0  0  0  0  0  0  0  0
    1.6127    3.8010    0.0000 N   0  0  0  0  0  0  0  0  0  0  0  0
    0.9996    4.3530    0.0000 C   0  0  1  0  0  0  0  0  0  0  0  0
    1.1712    5.1600    0.0000 C   0  0  2  0  0  0  0  0  0  0  0  0
    1.9558    5.4149    0.0000 C   0  0  0  0  0  0  0  0  0  0  0  0
    2.1274    6.2219    0.0000 C   0  0  0  0  0  0  0  0  0  0  0  0
    0.5582    5.7120    0.0000 C   0  0  0  0  0  0  0  0  0  0  0  0
   -1.3541    3.5882    0.0000 C   0  0  0  0  0  0  0  0  0  0  0  0
   -2.1388    3.3332    0.0000 O   0  0  0  0  0  0  0  0  0  0  0  0
    0.0435    3.2911    0.0000 N   0  0  0  0  0  0  0  0  0  0  0  0
   -0.7410    3.0361    0.0000 C   0  0  1  0  0  0  0  0  0  0  0  0
   -0.9124    2.2292    0.0000 C   0  0  0  0  0  0  0  0  0  0  0  0
   -1.6972    1.9742    0.0000 S   0  0  0  0  0  0  0  0  0  0  0  0
   -1.1825    4.3952    0.0000 N   0  0  0  0  0  0  0  0  0  0  0  0
  1  2  2  0  0  0  0
  3  4  1  0  0  0  0
  1  4  1  0  0  0  0
  5  6  2  0  0  0  0
  8  7  1  6  0  0  0
  5  8  1  0  0  0  0
  8  9  1  0  0  0  0
  9 10  1  0  0  0  0
  1  7  1  0  0  0  0
 11 12  2  0  0  0  0
 14 13  1  1  0  0  0
 11 14  1  0  0  0  0
 14 15  1  0  0  0  0
 15 16  1  0  0  0  0
  5 13  1  0  0  0  0
 17 18  2  0  0  0  0
 20 19  1  0  0  0  0
 17 20  1  0  0  0  0
 20 21  1  1  0  0  0
 21 22  1  0  0  0  0
 11 19  1  0  0  0  0
 23 24  2  0  0  0  0
 26 25  1  0  0  0  0
 23 26  1  0  0  0  0
 26 27  1  6  0  0  0
 27 28  1  0  0  0  0
 28 29  2  0  0  0  0
 28 30  1  0  0  0  0
 17 25  1  0  0  0  0
 31 32  2  0  0  0  0
 33 34  1  0  0  0  0
 34 31  1  0  0  0  0
 34 35  1  6  0  0  0
 35 36  1  0  0  0  0
 36 37  1  0  0  0  0
 33 37  1  0  0  0  0
 23 33  1  0  0  0  0
 38 39  2  0  0  0  0
 40 41  1  0  0  0  0
 38 41  1  0  0  0  0
 41 42  1  1  0  0  0
 42 43  1  0  0  0  0
 43 44  1  0  0  0  0
 44 45  1  0  0  0  0
 45 46  1  0  0  0  0
 46 47  2  0  0  0  0
 46 48  1  0  0  0  0
 31 40  1  0  0  0  0
 49 50  2  0  0  0  0
 51 52  1  0  0  0  0
 49 52  1  0  0  0  0
 52 53  1  6  0  0  0
 53 54  1  0  0  0  0
 38 51  1  0  0  0  0
 55 56  2  0  0  0  0
 57 58  1  0  0  0  0
 55 58  1  0  0  0  0
 58 59  1  6  0  0  0
 59 60  1  0  0  0  0
 60 61  2  0  0  0  0
 60 62  1  0  0  0  0
 49 57  1  0  0  0  0
 63 64  2  0  0  0  0
 65 66  1  0  0  0  0
 63 66  1  0  0  0  0
 66 67  1  1  0  0  0
 67 68  1  0  0  0  0
 68 69  2  0  0  0  0
 69 70  1  0  0  0  0
 70 71  2  0  0  0  0
 71 72  1  0  0  0  0
 71 73  1  0  0  0  0
 73 74  2  0  0  0  0
 68 74  1  0  0  0  0
 55 65  1  0  0  0  0
 75 76  2  0  0  0  0
 77 78  1  0  0  0  0
 75 78  1  0  0  0  0
 78 79  1  1  0  0  0
 79 80  1  0  0  0  0
 80 81  2  0  0  0  0
 80 82  1  0  0  0  0
 63 77  1  0  0  0  0
 83 84  2  0  0  0  0
 85 86  1  0  0  0  0
 83 86  1  0  0  0  0
 86 87  1  6  0  0  0
 87 88  1  0  0  0  0
 88 89  2  0  0  0  0
 89 90  1  0  0  0  0
 90 91  1  0  0  0  0
 91 92  2  0  0  0  0
 88 92  1  0  0  0  0
 75 85  1  0  0  0  0
 93 94  2  0  0  0  0
 95 96  1  0  0  0  0
 96 93  1  0  0  0  0
 96 97  1  6  0  0  0
 97 98  1  0  0  0  0
 98 99  1  0  0  0  0
 95 99  1  0  0  0  0
 83 95  1  0  0  0  0
100101  2  0  0  0  0
103102  1  0  0  0  0
100103  1  0  0  0  0
103104  1  1  0  0  0
104105  1  0  0  0  0
105106  1  0  0  0  0
106107  2  0  0  0  0
106108  1  0  0  0  0
 93102  1  0  0  0  0
109110  2  0  0  0  0
112111  1  6  0  0  0
109112  1  0  0  0  0
112113  1  0  0  0  0
113114  1  0  0  0  0
114115  1  0  0  0  0
113116  1  1  0  0  0
100111  1  0  0  0  0
117118  2  0  0  0  0
120119  1  0  0  0  0
120117  1  1  0  0  0
120121  1  0  0  0  0
121122  1  0  0  0  0
109119  1  0  0  0  0
123117  1  0  0  0  0
 16122  1  0  0  0  0
 10 54  1  0  0  0  0
M  END
> <DATABASE_ID>
DB05724

> <DATABASE_NAME>
drugbank

> <SMILES>
CC[C@H](C)[C@@H]1NC(=O)[C@H](CCC(O)=O)NC(=O)[C@@H]2CCCN2C(=O)[C@H](CC2=CNC=N2)NC(=O)[C@H](CC(O)=O)NC(=O)[C@H](CC2=CC=C(O)C=C2)NC(=O)[C@H](CC(N)=O)NC(=O)[C@@H]2CSSC[C@H](NC(=O)CN)C(=O)N[C@@H](CSSC[C@H](NC1=O)C(N)=O)C(=O)N[C@@H](CO)C(=O)N[C@@H](CC(O)=O)C(=O)N1CCC[C@H]1C(=O)N[C@@H](CCCNC(N)=N)C(=O)N2

> <INCHI_IDENTIFIER>
InChI=1S/C71H103N23O25S4/c1-3-32(2)55-68(117)89-44(56(74)105)27-120-122-30-47-65(114)88-43(26-95)62(111)87-42(23-54(103)104)70(119)94-18-6-8-48(94)66(115)81-36(7-4-16-78-71(75)76)57(106)90-46(29-123-121-28-45(63(112)91-47)80-51(98)24-72)64(113)84-39(21-50(73)97)60(109)83-38(19-33-10-12-35(96)13-11-33)59(108)85-40(22-53(101)102)61(110)86-41(20-34-25-77-31-79-34)69(118)93-17-5-9-49(93)67(116)82-37(58(107)92-55)14-15-52(99)100/h10-13,25,31-32,36-49,55,95-96H,3-9,14-24,26-30,72H2,1-2H3,(H2,73,97)(H2,74,105)(H,77,79)(H,80,98)(H,81,115)(H,82,116)(H,83,109)(H,84,113)(H,85,108)(H,86,110)(H,87,111)(H,88,114)(H,89,117)(H,90,106)(H,91,112)(H,92,107)(H,99,100)(H,101,102)(H,103,104)(H4,75,76,78)/t32-,36-,37-,38-,39-,40-,41-,42-,43-,44-,45-,46-,47-,48-,49-,55-/m0/s1

> <INCHI_KEY>
KJQOYUHYAZGPIZ-PIJHVLQJSA-N

> <FORMULA>
C71H103N23O25S4

> <MOLECULAR_WEIGHT>
1806.98

> <EXACT_MASS>
1805.637830605

> <JCHEM_ACCEPTOR_COUNT>
30

> <JCHEM_ATOM_COUNT>
226

> <JCHEM_AVERAGE_NEUTRAL_MICROSPECIES_CHARGE>
-0.8818488409638578

> <JCHEM_AVERAGE_POLARIZABILITY>
174.58413569347482

> <JCHEM_BIOAVAILABILITY>
0

> <JCHEM_DONOR_COUNT>
25

> <JCHEM_FORMAL_CHARGE>
0

> <JCHEM_GHOSE_FILTER>
0

> <JCHEM_IUPAC>
3-[(1R,6R,9S,12S,15S,21S,24S,27S,30S,33R,36S,39S,45S,48S,53R)-53-(2-aminoacetamido)-9-[(2S)-butan-2-yl]-36-(3-carbamimidamidopropyl)-6-carbamoyl-30-(carbamoylmethyl)-24,45-bis(carboxymethyl)-48-(hydroxymethyl)-27-[(4-hydroxyphenyl)methyl]-21-[(1H-imidazol-4-yl)methyl]-8,11,14,20,23,26,29,32,35,38,44,47,50,52-tetradecaoxo-3,4,55,56-tetrathia-7,10,13,19,22,25,28,31,34,37,43,46,49,51-tetradecaazatetracyclo[31.17.7.0^{15,19}.0^{39,43}]heptapentacontan-12-yl]propanoic acid

> <ALOGPS_LOGP>
-1.70

> <JCHEM_LOGP>
-18.537011316877788

> <ALOGPS_LOGS>
-3.28

> <JCHEM_MDDR_LIKE_RULE>
1

> <JCHEM_NEUTRAL_CHARGE>
-1

> <JCHEM_NUMBER_OF_RINGS>
6

> <JCHEM_PHYSIOLOGICAL_CHARGE>
-1

> <JCHEM_PKA>
3.5365538790504063

> <JCHEM_PKA_STRONGEST_ACIDIC>
3.0447521537299775

> <JCHEM_PKA_STRONGEST_BASIC>
11.83639045098071

> <JCHEM_POLAR_SURFACE_AREA>
774.06

> <JCHEM_REFRACTIVITY>
443.30000000000007

> <JCHEM_ROTATABLE_BOND_COUNT>
23

> <JCHEM_RULE_OF_FIVE>
0

> <ALOGPS_SOLUBILITY>
9.39e-01 g/l

> <JCHEM_TRADITIONAL_IUPAC>
leuprorelin

> <JCHEM_VEBER_RULE>
0

> <DRUGBANK_ID>
DB05724

> <DRUG_GROUPS>
investigational

> <GENERIC_NAME>
alpha-Conotoxin VC 1.1

> <SYNONYMS>
ACV-1; alpha-Conotoxin VC 1.1; alpha-Conotoxin VC1.1

$$$$
