
  Mrv1909 11182222142D          

 18 19  0  0  0  0            999 V2000
    2.1434   -0.4125    0.0000 C   0  0  0  0  0  0  0  0  0  0  0  0
    2.1434   -1.2375    0.0000 C   0  0  0  0  0  0  0  0  0  0  0  0
    1.4289   -1.6500    0.0000 C   0  0  0  0  0  0  0  0  0  0  0  0
    1.4289   -2.4750    0.0000 C   0  0  0  0  0  0  0  0  0  0  0  0
    2.0964   -2.9599    0.0000 N   0  0  0  0  0  0  0  0  0  0  0  0
    1.8414   -3.7445    0.0000 O   0  0  0  0  0  0  0  0  0  0  0  0
    1.0164   -3.7445    0.0000 C   0  0  0  0  0  0  0  0  0  0  0  0
    0.5315   -4.4120    0.0000 C   0  0  0  0  0  0  0  0  0  0  0  0
    0.8671   -5.1657    0.0000 C   0  0  0  0  0  0  0  0  0  0  0  0
    0.3822   -5.8331    0.0000 C   0  0  0  0  0  0  0  0  0  0  0  0
    0.7177   -6.5868    0.0000 C   0  0  0  0  0  0  0  0  0  0  0  0
    0.2328   -7.2542    0.0000 C   0  0  0  0  0  0  0  0  0  0  0  0
    0.5683   -8.0079    0.0000 O   0  0  0  0  0  0  0  0  0  0  0  0
   -0.5877   -7.1680    0.0000 C   0  0  0  0  0  0  0  0  0  0  0  0
   -1.0726   -7.8354    0.0000 O   0  0  0  0  0  0  0  0  0  0  0  0
   -0.9232   -6.4143    0.0000 C   0  0  0  0  0  0  0  0  0  0  0  0
   -0.4383   -5.7469    0.0000 C   0  0  0  0  0  0  0  0  0  0  0  0
    0.7615   -2.9599    0.0000 N   0  0  0  0  0  0  0  0  0  0  0  0
  1  2  1  0  0  0  0
  2  3  1  0  0  0  0
  3  4  1  0  0  0  0
  4  5  2  0  0  0  0
  5  6  1  0  0  0  0
  6  7  1  0  0  0  0
  7  8  1  0  0  0  0
  8  9  2  0  0  0  0
  9 10  1  0  0  0  0
 10 11  2  0  0  0  0
 11 12  1  0  0  0  0
 12 13  1  0  0  0  0
 12 14  2  0  0  0  0
 14 15  1  0  0  0  0
 14 16  1  0  0  0  0
 16 17  2  0  0  0  0
 10 17  1  0  0  0  0
  7 18  2  0  0  0  0
  4 18  1  0  0  0  0
M  END
> <DATABASE_ID>
DB17138

> <DATABASE_NAME>
drugbank

> <SMILES>
CCCC1=NOC(\C=C\C2=CC(O)=C(O)C=C2)=N1

> <INCHI_IDENTIFIER>
InChI=1S/C13H14N2O3/c1-2-3-12-14-13(18-15-12)7-5-9-4-6-10(16)11(17)8-9/h4-8,16-17H,2-3H2,1H3/b7-5+

> <INCHI_KEY>
MAWOOXDYMFRJNN-FNORWQNLSA-N

> <FORMULA>
C13H14N2O3

> <MOLECULAR_WEIGHT>
246.266

> <EXACT_MASS>
246.100442319

> <JCHEM_ACCEPTOR_COUNT>
4

> <JCHEM_ATOM_COUNT>
32

> <JCHEM_AVERAGE_NEUTRAL_MICROSPECIES_CHARGE>
-0.01848742898990426

> <JCHEM_AVERAGE_POLARIZABILITY>
26.776680152271712

> <JCHEM_BIOAVAILABILITY>
1

> <JCHEM_DONOR_COUNT>
2

> <JCHEM_FORMAL_CHARGE>
0

> <JCHEM_GHOSE_FILTER>
1

> <JCHEM_IUPAC>
4-[(1E)-2-(3-propyl-1,2,4-oxadiazol-5-yl)ethenyl]benzene-1,2-diol

> <ALOGPS_LOGP>
2.97

> <JCHEM_LOGP>
3.6261258499999993

> <ALOGPS_LOGS>
-2.99

> <JCHEM_MDDR_LIKE_RULE>
0

> <JCHEM_NEUTRAL_CHARGE>
0

> <JCHEM_NUMBER_OF_RINGS>
2

> <JCHEM_PHYSIOLOGICAL_CHARGE>
0

> <JCHEM_PKA>
12.131255533784698

> <JCHEM_PKA_STRONGEST_ACIDIC>
8.725347602129798

> <JCHEM_PKA_STRONGEST_BASIC>
-0.7570578663717975

> <JCHEM_POLAR_SURFACE_AREA>
79.38000000000001

> <JCHEM_REFRACTIVITY>
69.34510000000002

> <JCHEM_ROTATABLE_BOND_COUNT>
4

> <JCHEM_RULE_OF_FIVE>
1

> <ALOGPS_SOLUBILITY>
2.51e-01 g/l

> <JCHEM_TRADITIONAL_IUPAC>
4-iodophenylalanine i-131

> <JCHEM_VEBER_RULE>
0

> <DRUGBANK_ID>
DB17138

> <DRUG_GROUPS>
investigational

> <GENERIC_NAME>
4-(2-(3-Propyl-(1,2,4)oxadiazol-5-yl)-vinyl)-benzene-1,2-diol

$$$$
