
  Mrv1718001051815262D          

 29 32  0  0  0  0            999 V2000
    1.8097    3.2065    0.0000 C   0  0  0  0  0  0  0  0  0  0  0  0
    1.2577    2.5934    0.0000 N   0  0  0  0  0  0  0  0  0  0  0  0
    1.5126    1.8088    0.0000 C   0  0  0  0  0  0  0  0  0  0  0  0
    0.9606    1.1957    0.0000 C   0  0  0  0  0  0  0  0  0  0  0  0
    0.1536    1.3672    0.0000 N   0  0  0  0  0  0  0  0  0  0  0  0
   -0.1014    2.1518    0.0000 C   0  0  0  0  0  0  0  0  0  0  0  0
    0.4507    2.7649    0.0000 C   0  0  0  0  0  0  0  0  0  0  0  0
   -0.3984    0.7541    0.0000 C   0  0  0  0  0  0  0  0  0  0  0  0
   -0.1435   -0.0305    0.0000 C   0  0  0  0  0  0  0  0  0  0  0  0
   -0.6284   -0.6979    0.0000 C   0  0  0  0  0  0  0  0  0  0  0  0
   -0.1435   -1.3654    0.0000 N   0  0  0  0  0  0  0  0  0  0  0  0
    0.6411   -1.1104    0.0000 C   0  0  0  0  0  0  0  0  0  0  0  0
    0.6411   -0.2854    0.0000 C   0  0  0  0  0  0  0  0  0  0  0  0
    1.3556    0.1271    0.0000 C   0  0  0  0  0  0  0  0  0  0  0  0
    2.0701   -0.2854    0.0000 C   0  0  0  0  0  0  0  0  0  0  0  0
    2.0701   -1.1104    0.0000 C   0  0  0  0  0  0  0  0  0  0  0  0
    1.3556   -1.5229    0.0000 C   0  0  0  0  0  0  0  0  0  0  0  0
    2.7845    0.1271    0.0000 O   0  0  0  0  0  0  0  0  0  0  0  0
    3.4990   -0.2854    0.0000 C   0  0  0  0  0  0  0  0  0  0  0  0
   -0.3984   -2.1500    0.0000 S   0  0  0  0  0  0  0  0  0  0  0  0
   -1.1831   -1.8951    0.0000 O   0  0  0  0  0  0  0  0  0  0  0  0
    0.3862   -2.4049    0.0000 O   0  0  0  0  0  0  0  0  0  0  0  0
   -0.6534   -2.9346    0.0000 C   0  0  0  0  0  0  0  0  0  0  0  0
   -0.1014   -3.5477    0.0000 C   0  0  0  0  0  0  0  0  0  0  0  0
   -0.3563   -4.3323    0.0000 C   0  0  0  0  0  0  0  0  0  0  0  0
   -1.1633   -4.5039    0.0000 C   0  0  0  0  0  0  0  0  0  0  0  0
   -1.7153   -3.8908    0.0000 C   0  0  0  0  0  0  0  0  0  0  0  0
   -1.4604   -3.1062    0.0000 C   0  0  0  0  0  0  0  0  0  0  0  0
   -2.0124   -2.4931    0.0000 Br  0  0  0  0  0  0  0  0  0  0  0  0
  1  2  1  0  0  0  0
  2  3  1  0  0  0  0
  3  4  1  0  0  0  0
  4  5  1  0  0  0  0
  5  6  1  0  0  0  0
  6  7  1  0  0  0  0
  2  7  1  0  0  0  0
  5  8  1  0  0  0  0
  8  9  1  0  0  0  0
  9 10  2  0  0  0  0
 10 11  1  0  0  0  0
 11 12  1  0  0  0  0
 12 13  1  0  0  0  0
  9 13  1  0  0  0  0
 13 14  2  0  0  0  0
 14 15  1  0  0  0  0
 15 16  2  0  0  0  0
 16 17  1  0  0  0  0
 12 17  2  0  0  0  0
 15 18  1  0  0  0  0
 18 19  1  0  0  0  0
 11 20  1  0  0  0  0
 20 21  2  0  0  0  0
 20 22  2  0  0  0  0
 20 23  1  0  0  0  0
 23 24  2  0  0  0  0
 24 25  1  0  0  0  0
 25 26  2  0  0  0  0
 26 27  1  0  0  0  0
 27 28  2  0  0  0  0
 23 28  1  0  0  0  0
 28 29  1  0  0  0  0
M  END
> <DATABASE_ID>
DB06140

> <DATABASE_NAME>
drugbank

> <SMILES>
COC1=CC=C2N(C=C(CN3CCN(C)CC3)C2=C1)S(=O)(=O)C1=CC=CC=C1Br

> <INCHI_IDENTIFIER>
InChI=1S/C21H24BrN3O3S/c1-23-9-11-24(12-10-23)14-16-15-25(20-8-7-17(28-2)13-18(16)20)29(26,27)21-6-4-3-5-19(21)22/h3-8,13,15H,9-12,14H2,1-2H3

> <INCHI_KEY>
GWCYPEHWIZXYFZ-UHFFFAOYSA-N

> <FORMULA>
C21H24BrN3O3S

> <MOLECULAR_WEIGHT>
478.41

> <EXACT_MASS>
477.072176

> <JCHEM_ACCEPTOR_COUNT>
5

> <JCHEM_ATOM_COUNT>
53

> <JCHEM_AVERAGE_POLARIZABILITY>
46.57302600297976

> <JCHEM_BIOAVAILABILITY>
1

> <JCHEM_DONOR_COUNT>
0

> <JCHEM_FORMAL_CHARGE>
0

> <JCHEM_GHOSE_FILTER>
1

> <JCHEM_IUPAC>
1-(2-bromobenzenesulfonyl)-5-methoxy-3-[(4-methylpiperazin-1-yl)methyl]-1H-indole

> <ALOGPS_LOGP>
2.84

> <JCHEM_LOGP>
3.4009795376666667

> <ALOGPS_LOGS>
-3.94

> <JCHEM_MDDR_LIKE_RULE>
0

> <JCHEM_NUMBER_OF_RINGS>
4

> <JCHEM_PHYSIOLOGICAL_CHARGE>
1

> <JCHEM_PKA_STRONGEST_BASIC>
7.789772167864627

> <JCHEM_POLAR_SURFACE_AREA>
54.78

> <JCHEM_REFRACTIVITY>
118.84360000000001

> <JCHEM_ROTATABLE_BOND_COUNT>
4

> <JCHEM_RULE_OF_FIVE>
1

> <ALOGPS_SOLUBILITY>
5.44e-02 g/l

> <JCHEM_TRADITIONAL_IUPAC>
1-(2-bromobenzenesulfonyl)-5-methoxy-3-[(4-methylpiperazin-1-yl)methyl]indole

> <JCHEM_VEBER_RULE>
0

> <DRUGBANK_ID>
DB06140

> <DRUG_GROUPS>
investigational

> <GENERIC_NAME>
SUVN-502

> <SALTS>
SUVN-502 dimesylate; SUVN-502 dimesylate monohydrate

$$$$
