
  Mrv1572004101615572D          

 49 42  0  0  0  0            999 V2000
   -6.7841    1.5748    0.0000 C   0  0  0  0  0  0  0  0  0  0  0  0
   -5.3551    2.3998    0.0000 C   0  0  0  0  0  0  0  0  0  0  0  0
   -4.0071    1.2729    0.0000 C   0  5  0  0  0  0  0  0  0  0  0  0
   -7.3071    2.7018    0.0000 C   0  0  0  0  0  0  0  0  0  0  0  0
   -5.6571    1.2729    0.0000 C   0  0  0  0  0  0  0  0  0  0  0  0
   -6.0696    1.9873    0.0000 C   0  0  0  0  0  0  0  0  0  0  0  0
   -4.8321    1.2729    0.0000 N   0  3  0  0  0  0  0  0  0  0  0  0
   -6.4821    2.7018    0.0000 O   0  0  0  0  0  0  0  0  0  0  0  0
    0.4125    2.4750    0.0000 C   0  0  0  0  0  0  0  0  0  0  0  0
    0.4125    0.8250    0.0000 C   0  0  0  0  0  0  0  0  0  0  0  0
    2.0625    3.0789    0.0000 C   0  5  0  0  0  0  0  0  0  0  0  0
   -0.8250    0.9355    0.0000 C   0  0  0  0  0  0  0  0  0  0  0  0
    1.2375    1.6500    0.0000 C   0  0  0  0  0  0  0  0  0  0  0  0
    0.4125    1.6500    0.0000 C   0  0  0  0  0  0  0  0  0  0  0  0
    1.6500    2.3644    0.0000 N   0  3  0  0  0  0  0  0  0  0  0  0
   -0.4125    1.6500    0.0000 O   0  0  0  0  0  0  0  0  0  0  0  0
    5.6571    2.4750    0.0000 C   0  0  0  0  0  0  0  0  0  0  0  0
    5.6571    0.8250    0.0000 C   0  0  0  0  0  0  0  0  0  0  0  0
    7.3071    3.0789    0.0000 C   0  5  0  0  0  0  0  0  0  0  0  0
    4.4196    0.9355    0.0000 C   0  0  0  0  0  0  0  0  0  0  0  0
    6.4821    1.6500    0.0000 C   0  0  0  0  0  0  0  0  0  0  0  0
    5.6571    1.6500    0.0000 C   0  0  0  0  0  0  0  0  0  0  0  0
    6.8946    2.3644    0.0000 N   0  3  0  0  0  0  0  0  0  0  0  0
    4.8321    1.6500    0.0000 O   0  0  0  0  0  0  0  0  0  0  0  0
   -5.7258   -1.4289    0.0000 C   0  0  0  0  0  0  0  0  0  0  0  0
   -5.7258   -3.0789    0.0000 C   0  0  0  0  0  0  0  0  0  0  0  0
   -4.0758   -0.8250    0.0000 C   0  5  0  0  0  0  0  0  0  0  0  0
   -6.9633   -2.9684    0.0000 C   0  0  0  0  0  0  0  0  0  0  0  0
   -4.9008   -2.2539    0.0000 C   0  0  0  0  0  0  0  0  0  0  0  0
   -5.7258   -2.2539    0.0000 C   0  0  0  0  0  0  0  0  0  0  0  0
   -4.4883   -1.5394    0.0000 N   0  3  0  0  0  0  0  0  0  0  0  0
   -6.5508   -2.2539    0.0000 O   0  0  0  0  0  0  0  0  0  0  0  0
   -0.4812   -1.4289    0.0000 C   0  0  0  0  0  0  0  0  0  0  0  0
   -0.4812   -3.0789    0.0000 C   0  0  0  0  0  0  0  0  0  0  0  0
    1.1687   -0.8250    0.0000 C   0  5  0  0  0  0  0  0  0  0  0  0
   -1.7187   -2.9684    0.0000 C   0  0  0  0  0  0  0  0  0  0  0  0
    0.3437   -2.2539    0.0000 C   0  0  0  0  0  0  0  0  0  0  0  0
   -0.4812   -2.2539    0.0000 C   0  0  0  0  0  0  0  0  0  0  0  0
    0.7562   -1.5394    0.0000 N   0  3  0  0  0  0  0  0  0  0  0  0
   -1.3062   -2.2539    0.0000 O   0  0  0  0  0  0  0  0  0  0  0  0
    4.7633   -1.4289    0.0000 C   0  0  0  0  0  0  0  0  0  0  0  0
    4.7633   -3.0789    0.0000 C   0  0  0  0  0  0  0  0  0  0  0  0
    6.4133   -0.8250    0.0000 C   0  5  0  0  0  0  0  0  0  0  0  0
    3.5258   -2.9684    0.0000 C   0  0  0  0  0  0  0  0  0  0  0  0
    5.5883   -2.2539    0.0000 C   0  0  0  0  0  0  0  0  0  0  0  0
    4.7633   -2.2539    0.0000 C   0  0  0  0  0  0  0  0  0  0  0  0
    6.0008   -1.5394    0.0000 N   0  3  0  0  0  0  0  0  0  0  0  0
    3.9383   -2.2539    0.0000 O   0  0  0  0  0  0  0  0  0  0  0  0
   -3.1821    1.2729    0.0000 Tc  0  3  0  0  0  0  0  0  0  0  0  0
  6  1  1  0  0  0  0
  6  2  1  0  0  0  0
  6  5  1  0  0  0  0
  7  3  3  0  0  0  0
  7  5  1  0  0  0  0
  8  4  1  0  0  0  0
  8  6  1  0  0  0  0
 14  9  1  0  0  0  0
 14 10  1  0  0  0  0
 14 13  1  0  0  0  0
 15 11  3  0  0  0  0
 15 13  1  0  0  0  0
 16 12  1  0  0  0  0
 16 14  1  0  0  0  0
 22 17  1  0  0  0  0
 22 18  1  0  0  0  0
 22 21  1  0  0  0  0
 23 19  3  0  0  0  0
 23 21  1  0  0  0  0
 24 20  1  0  0  0  0
 24 22  1  0  0  0  0
 30 25  1  0  0  0  0
 30 26  1  0  0  0  0
 30 29  1  0  0  0  0
 31 27  3  0  0  0  0
 31 29  1  0  0  0  0
 32 28  1  0  0  0  0
 32 30  1  0  0  0  0
 38 33  1  0  0  0  0
 38 34  1  0  0  0  0
 38 37  1  0  0  0  0
 39 35  3  0  0  0  0
 39 37  1  0  0  0  0
 40 36  1  0  0  0  0
 40 38  1  0  0  0  0
 46 41  1  0  0  0  0
 46 42  1  0  0  0  0
 46 45  1  0  0  0  0
 47 43  3  0  0  0  0
 47 45  1  0  0  0  0
 48 44  1  0  0  0  0
 48 46  1  0  0  0  0
M  CHG  8   3  -1   7   1  11  -1  15   1  19  -1  23   1  27  -1  31   1
M  CHG  5  35  -1  39   1  43  -1  47   1  49   1
M  END
> <DATABASE_ID>
DB09161

> <DATABASE_NAME>
drugbank

> <SMILES>
[Tc+].COC(C)(C)C[N+]#[C-].COC(C)(C)C[N+]#[C-].COC(C)(C)C[N+]#[C-].COC(C)(C)C[N+]#[C-].COC(C)(C)C[N+]#[C-].COC(C)(C)C[N+]#[C-]

> <INCHI_IDENTIFIER>
InChI=1S/6C6H11NO.Tc/c6*1-6(2,8-4)5-7-3;/h6*5H2,1-2,4H3;/q;;;;;;+1

> <INCHI_KEY>
ZBTQTVSNLRPJHI-UHFFFAOYSA-N

> <FORMULA>
C36H66N6O6Tc

> <MOLECULAR_WEIGHT>
775.96

> <EXACT_MASS>
775.5

> <JCHEM_ACCEPTOR_COUNT>
1

> <JCHEM_ATOM_COUNT>
115

> <JCHEM_AVERAGE_POLARIZABILITY>
12.699504207203661

> <JCHEM_BIOAVAILABILITY>
0

> <JCHEM_DONOR_COUNT>
0

> <JCHEM_FORMAL_CHARGE>
1

> <JCHEM_GHOSE_FILTER>
0

> <JCHEM_IUPAC>
technetium(1+) ion hexakis(1-isocyano-2-methoxy-2-methylpropane)

> <ALOGPS_LOGP>
5.44

> <JCHEM_LOGP>
-1.308232818542612

> <ALOGPS_LOGS>
-5.24

> <JCHEM_MDDR_LIKE_RULE>
0

> <JCHEM_NUMBER_OF_RINGS>
0

> <JCHEM_PHYSIOLOGICAL_CHARGE>
1

> <JCHEM_PKA_STRONGEST_ACIDIC>
16.143754250664134

> <JCHEM_PKA_STRONGEST_BASIC>
-4.182988978399634

> <JCHEM_POLAR_SURFACE_AREA>
13.59

> <JCHEM_REFRACTIVITY>
41.612100000000005

> <JCHEM_ROTATABLE_BOND_COUNT>
12

> <JCHEM_RULE_OF_FIVE>
0

> <ALOGPS_SOLUBILITY>
4.65e-03 g/l

> <JCHEM_TRADITIONAL_IUPAC>
technetium(1+) ion hexakis(1-isocyano-2-methoxy-2-methylpropane)

> <JCHEM_VEBER_RULE>
0

> <DRUGBANK_ID>
DB09161

> <DRUG_GROUPS>
approved; investigational

> <GENERIC_NAME>
Technetium Tc-99m sestamibi

> <SYNONYMS>
99m Tc-sestamibi; 99m-Tc sestamibi; 99mTc sestamibi; 99mTc-sestamibi; Sestamibi; Technetium (99m Tc) sestamibi; Technetium (99mTc) sestamibi; Technetium Tc 99m sestamibi

> <PRODUCTS>
Kit for the Preparation of Technetium Tc99m Sestamibi; Technetium Tc 99m Sestamibi

$$$$
