
  Mrv1909 02212019082D          

 65 73  0  0  0  0            999 V2000
   -0.9475    1.4731    0.0000 C   0  0  2  0  0  0  0  0  0  0  0  0
   -0.9475    2.2880    0.0000 C   0  0  2  0  0  0  0  0  0  0  0  0
   -0.2183    2.7169    0.0000 C   0  0  0  0  0  0  0  0  0  0  0  0
    0.4678    2.2880    0.0000 C   0  0  0  0  0  0  0  0  0  0  0  0
    1.1970    2.7169    0.0000 C   0  0  0  0  0  0  0  0  0  0  0  0
    1.8832    2.2880    0.0000 C   0  0  1  0  0  0  0  0  0  0  0  0
    2.6123    2.7169    0.0000 C   0  0  0  0  0  0  0  0  0  0  0  0
    3.2986    2.2880    0.0000 C   0  0  0  0  0  0  0  0  0  0  0  0
    3.2986    1.4731    0.0000 C   0  0  1  0  0  0  0  0  0  0  0  0
    2.5694    1.0442    0.0000 C   0  0  1  0  0  0  0  0  0  0  0  0
    2.5694    0.2293    0.0000 C   0  0  1  0  0  0  0  0  0  0  0  0
    3.2986   -0.1994    0.0000 C   0  0  1  0  0  0  0  0  0  0  0  0
    4.0276    0.2293    0.0000 C   0  0  1  0  0  0  0  0  0  0  0  0
    4.0276    1.0442    0.0000 O   0  0  0  0  0  0  0  0  0  0  0  0
    1.8403   -0.1994    0.0000 O   0  0  0  0  0  0  0  0  0  0  0  0
    1.8403   -1.0573    0.0000 C   0  0  2  0  0  0  0  0  0  0  0  0
    2.5694   -1.4432    0.0000 C   0  0  0  0  0  0  0  0  0  0  0  0
    3.2986   -1.0573    0.0000 O   0  0  0  0  0  0  0  0  0  0  0  0
    3.8132   -1.4432    0.0000 C   0  0  2  0  0  0  0  0  0  0  0  0
    4.7568   -0.1994    0.0000 C   0  0  2  0  0  0  0  0  0  0  0  0
    1.1111   -1.4432    0.0000 C   0  0  0  0  0  0  0  0  0  0  0  0
    1.1111   -2.3011    0.0000 C   0  0  0  0  0  0  0  0  0  0  0  0
    0.4249   -2.6871    0.0000 C   0  0  1  0  0  0  0  0  0  0  0  0
    0.4249   -3.5449    0.0000 C   0  0  0  0  0  0  0  0  0  0  0  0
   -0.3040   -2.3011    0.0000 O   0  0  0  0  0  0  0  0  0  0  0  0
   -1.0333   -2.7300    0.0000 C   0  0  1  0  0  0  0  0  0  0  0  0
   -1.7623   -2.3011    0.0000 C   0  0  0  0  0  0  0  0  0  0  0  0
   -1.0333   -3.5449    0.0000 C   0  0  0  0  0  0  0  0  0  0  0  0
   -1.7623   -1.4432    0.0000 C   0  0  0  0  0  0  0  0  0  0  0  0
   -1.0333   -1.0573    0.0000 C   0  0  2  0  0  0  0  0  0  0  0  0
   -1.0333   -0.1994    0.0000 O   0  0  0  0  0  0  0  0  0  0  0  0
   -0.3470   -1.4432    0.0000 C   0  0  0  0  0  0  0  0  0  0  0  0
    0.3821   -1.0573    0.0000 C   0  0  2  0  0  0  0  0  0  0  0  0
    0.3821   -0.1994    0.0000 C   0  0  0  0  0  0  0  0  0  0  0  0
   -0.3040    0.2293    0.0000 C   0  0  1  0  0  0  0  0  0  0  0  0
   -0.3040    1.0442    0.0000 C   0  0  0  0  0  0  0  0  0  0  0  0
    1.0254    0.2293    0.0000 C   0  0  0  0  0  0  0  0  0  0  0  0
   -0.9475    3.1029    0.0000 H   0  0  0  0  0  0  0  0  0  0  0  0
   -0.9475    0.6153    0.0000 H   0  0  0  0  0  0  0  0  0  0  0  0
    0.4678    1.4731    0.0000 O   0  0  0  0  0  0  0  0  0  0  0  0
    1.8832    3.1457    0.0000 H   0  0  0  0  0  0  0  0  0  0  0  0
    1.8832    1.4731    0.0000 O   0  0  0  0  0  0  0  0  0  0  0  0
    4.0276    1.9019    0.0000 H   0  0  0  0  0  0  0  0  0  0  0  0
    2.5694   -0.6284    0.0000 O   0  0  0  0  0  0  0  0  0  0  0  0
    2.5694    1.8591    0.0000 H   0  0  0  0  0  0  0  0  0  0  0  0
    1.8403    0.6153    0.0000 H   0  0  0  0  0  0  0  0  0  0  0  0
    3.2986    0.6153    0.0000 H   0  0  0  0  0  0  0  0  0  0  0  0
    4.7568    0.6153    0.0000 H   0  0  0  0  0  0  0  0  0  0  0  0
   -1.7623   -3.1160    0.0000 H   0  0  0  0  0  0  0  0  0  0  0  0
   -0.3470   -0.6284    0.0000 H   0  0  0  0  0  0  0  0  0  0  0  0
   -1.6337   -4.1025    0.0000 C   0  0  0  0  0  0  0  0  0  0  0  0
    4.4566   -2.0438    0.0000 H   0  0  0  0  0  0  0  0  0  0  0  0
    1.2397   -3.1160    0.0000 H   0  0  0  0  0  0  0  0  0  0  0  0
   -1.7225    2.5398    0.0000 C   0  0  2  0  0  0  0  0  0  0  0  0
   -2.2013    1.8806    0.0000 C   0  0  2  0  0  0  0  0  0  0  0  0
   -1.7225    1.2213    0.0000 O   0  0  0  0  0  0  0  0  0  0  0  0
   -1.9889    3.3597    0.0000 O   0  0  0  0  0  0  0  0  0  0  0  0
   -3.0487    1.8803    0.0000 C   0  0  0  0  0  0  0  0  0  0  0  0
   -3.4688    2.6071    0.0000 C   0  0  1  0  0  0  0  0  0  0  0  0
   -4.3355    2.6068    0.0000 C   0  0  0  0  0  0  0  0  0  0  0  0
   -4.7568    3.3355    0.0000 N   0  0  0  0  0  0  0  0  0  0  0  0
   -1.5600    4.1025    0.0000 C   0  0  0  0  0  0  0  0  0  0  0  0
   -3.0507    3.3319    0.0000 O   0  0  0  0  0  0  0  0  0  0  0  0
   -1.7761   -0.6284    0.0000 H   0  0  0  0  0  0  0  0  0  0  0  0
    0.8538   -0.7142    0.0000 C   0  0  0  0  0  0  0  0  0  0  0  0
  1  2  1  0  0  0  0
  2  3  1  0  0  0  0
  3  4  1  0  0  0  0
  4  5  1  0  0  0  0
  5  6  1  0  0  0  0
  6  7  1  0  0  0  0
  7  8  1  0  0  0  0
  8  9  1  0  0  0  0
  9 10  1  0  0  0  0
 10 11  1  0  0  0  0
 11 12  1  0  0  0  0
 12 13  1  0  0  0  0
 13 14  1  0  0  0  0
  9 14  1  0  0  0  0
 11 15  1  0  0  0  0
 15 16  1  0  0  0  0
 16 17  1  0  0  0  0
 12 18  1  0  0  0  0
 17 19  1  0  0  0  0
 13 20  1  0  0  0  0
 20 19  1  0  0  0  0
 16 21  1  0  0  0  0
 21 22  1  0  0  0  0
 22 23  1  0  0  0  0
 23 24  1  0  0  0  0
 23 25  1  0  0  0  0
 25 26  1  0  0  0  0
 26 27  1  0  0  0  0
 26 28  1  0  0  0  0
 28 24  1  0  0  0  0
 27 29  1  0  0  0  0
 29 30  1  0  0  0  0
 30 31  1  0  0  0  0
 30 32  1  0  0  0  0
 32 33  1  0  0  0  0
 33 34  1  0  0  0  0
 34 35  1  0  0  0  0
 31 35  1  0  0  0  0
  1 36  1  0  0  0  0
 36 35  1  0  0  0  0
 34 37  2  0  0  0  0
  2 38  1  6  0  0  0
  1 39  1  1  0  0  0
  4 40  2  0  0  0  0
  6 41  1  6  0  0  0
  6 42  1  0  0  0  0
 42 10  1  0  0  0  0
  9 43  1  1  0  0  0
 16 44  1  1  0  0  0
 20 44  1  1  0  0  0
 19 18  1  0  0  0  0
 10 45  1  6  0  0  0
 11 46  1  6  0  0  0
 12 47  1  6  0  0  0
 13 48  1  6  0  0  0
 26 49  1  1  0  0  0
 35 50  1  1  0  0  0
 28 51  2  0  0  0  0
 19 52  1  6  0  0  0
 23 53  1  6  0  0  0
  2 54  1  0  0  0  0
 54 55  1  0  0  0  0
 55 56  1  0  0  0  0
  1 56  1  0  0  0  0
 54 57  1  6  0  0  0
 55 58  1  6  0  0  0
 58 59  1  0  0  0  0
 59 60  1  0  0  0  0
 60 61  1  0  0  0  0
 57 62  1  0  0  0  0
 59 63  1  1  0  0  0
 30 64  1  1  0  0  0
 33 65  1  6  0  0  0
M  END
> <DATABASE_ID>
DB08871

> <DATABASE_NAME>
drugbank

> <SMILES>
[H][C@@]12CC(=C)[C@]([H])(CC[C@@]3([H])C[C@@H](C)C(=C)[C@@]([H])(C[C@]4([H])O[C@H](C[C@H](O)CN)[C@H](OC)[C@@]4([H])CC(=O)C[C@@]4([H])CC[C@]5([H])O[C@@]6([H])[C@H]7O[C@@]8(C[C@]7([H])O[C@@]6([H])[C@@]([H])(O8)[C@@]5([H])O4)CC1)O3)O2

> <INCHI_IDENTIFIER>
InChI=1S/C40H59NO11/c1-19-11-24-5-7-28-20(2)12-26(45-28)9-10-40-17-33-36(51-40)37-38(50-33)39(52-40)35-29(49-37)8-6-25(47-35)13-22(42)14-27-31(16-30(46-24)21(19)3)48-32(34(27)44-4)15-23(43)18-41/h19,23-39,43H,2-3,5-18,41H2,1,4H3/t19-,23+,24+,25-,26+,27+,28+,29+,30-,31+,32-,33-,34-,35+,36+,37+,38-,39+,40+/m1/s1

> <INCHI_KEY>
UFNVPOGXISZXJD-JBQZKEIOSA-N

> <FORMULA>
C40H59NO11

> <MOLECULAR_WEIGHT>
729.908

> <EXACT_MASS>
729.408811724

> <JCHEM_ACCEPTOR_COUNT>
12

> <JCHEM_ATOM_COUNT>
111

> <JCHEM_AVERAGE_NEUTRAL_MICROSPECIES_CHARGE>
0.9972733119217326

> <JCHEM_AVERAGE_POLARIZABILITY>
82.14806517746374

> <JCHEM_BIOAVAILABILITY>
0

> <JCHEM_DONOR_COUNT>
2

> <JCHEM_FORMAL_CHARGE>
0

> <JCHEM_GHOSE_FILTER>
0

> <JCHEM_IUPAC>
(1S,3S,6S,9S,12S,14R,16R,18S,20R,21R,22S,26R,29S,31R,32S,33S,35R,36S)-20-[(2S)-3-amino-2-hydroxypropyl]-21-methoxy-14-methyl-8,15-dimethylidene-2,19,30,34,37,39,40,41-octaoxanonacyclo[24.9.2.1^{3,32}.1^{3,33}.1^{6,9}.1^{12,16}.0^{18,22}.0^{29,36}.0^{31,35}]hentetracontan-24-one

> <ALOGPS_LOGP>
1.26

> <JCHEM_LOGP>
2.3077780763333315

> <ALOGPS_LOGS>
-3.96

> <JCHEM_MDDR_LIKE_RULE>
0

> <JCHEM_NEUTRAL_CHARGE>
1

> <JCHEM_NUMBER_OF_RINGS>
9

> <JCHEM_PHYSIOLOGICAL_CHARGE>
1

> <JCHEM_PKA>
19.43784524468193

> <JCHEM_PKA_STRONGEST_ACIDIC>
14.816229934967454

> <JCHEM_PKA_STRONGEST_BASIC>
9.563181159256786

> <JCHEM_POLAR_SURFACE_AREA>
146.39000000000001

> <JCHEM_REFRACTIVITY>
185.99539999999996

> <JCHEM_ROTATABLE_BOND_COUNT>
4

> <JCHEM_RULE_OF_FIVE>
0

> <ALOGPS_SOLUBILITY>
7.98e-02 g/l

> <JCHEM_TRADITIONAL_IUPAC>
(5Z,7E)-deca-5,7,9-trien-2-one

> <JCHEM_VEBER_RULE>
0

> <DRUGBANK_ID>
DB08871

> <SECONDARY_ACCESSION_NUMBERS>
DB04940

> <DRUG_GROUPS>
approved; investigational

> <GENERIC_NAME>
Eribulin

> <SYNONYMS>
Eribulin; Eribulina

> <PRODUCTS>
Halaven

> <SALTS>
Eribulin mesylate

$$$$
