
  Mrv1652310211602212D          

 30 34  0  0  1  0            999 V2000
    4.7812    2.1896    0.0000 C   0  0  0  0  0  0  0  0  0  0  0  0
    4.7812    1.3646    0.0000 O   0  0  0  0  0  0  0  0  0  0  0  0
    4.0668    0.9521    0.0000 C   0  0  0  0  0  0  0  0  0  0  0  0
    4.0668    0.1271    0.0000 C   0  0  0  0  0  0  0  0  0  0  0  0
    3.3523   -0.2854    0.0000 C   0  0  0  0  0  0  0  0  0  0  0  0
    2.6378    0.1271    0.0000 C   0  0  0  0  0  0  0  0  0  0  0  0
    2.6378    0.9521    0.0000 C   0  0  0  0  0  0  0  0  0  0  0  0
    3.3523    1.3646    0.0000 C   0  0  0  0  0  0  0  0  0  0  0  0
    3.3523    2.1896    0.0000 O   0  0  0  0  0  0  0  0  0  0  0  0
    2.6378    2.6021    0.0000 C   0  0  0  0  0  0  0  0  0  0  0  0
    1.9233    1.3646    0.0000 O   0  0  0  0  0  0  0  0  0  0  0  0
    1.9233    2.1896    0.0000 C   0  0  0  0  0  0  0  0  0  0  0  0
    3.3523   -1.1104    0.0000 C   0  0  2  0  0  0  0  0  0  0  0  0
    4.0668   -1.5229    0.0000 C   0  0  0  0  0  0  0  0  0  0  0  0
    4.7812   -1.1104    0.0000 C   0  0  0  0  0  0  0  0  0  0  0  0
    5.4957   -1.5229    0.0000 C   0  0  0  0  0  0  0  0  0  0  0  0
    5.4957   -2.3479    0.0000 C   0  0  0  0  0  0  0  0  0  0  0  0
    4.7812   -2.7604    0.0000 C   0  0  0  0  0  0  0  0  0  0  0  0
    4.0668   -2.3479    0.0000 C   0  0  0  0  0  0  0  0  0  0  0  0
    3.3523   -2.7604    0.0000 C   0  0  1  0  0  0  0  0  0  0  0  0
    2.6378   -2.3479    0.0000 C   0  0  2  0  0  0  0  0  0  0  0  0
    2.6378   -1.5229    0.0000 C   0  0  1  0  0  0  0  0  0  0  0  0
    1.8532   -1.2680    0.0000 C   0  0  0  0  0  0  0  0  0  0  0  0
    1.5983   -0.4834    0.0000 O   0  0  0  0  0  0  0  0  0  0  0  0
    1.3683   -1.9354    0.0000 O   0  0  0  0  0  0  0  0  0  0  0  0
    1.8532   -2.6029    0.0000 C   0  0  0  0  0  0  0  0  0  0  0  0
    3.3523   -3.5854    0.0000 O   0  0  0  0  0  0  0  0  0  0  0  0
    6.2803   -2.6029    0.0000 O   0  0  0  0  0  0  0  0  0  0  0  0
    6.7652   -1.9354    0.0000 C   0  0  0  0  0  0  0  0  0  0  0  0
    6.2803   -1.2680    0.0000 O   0  0  0  0  0  0  0  0  0  0  0  0
  1  2  1  0  0  0  0
  2  3  1  0  0  0  0
  3  4  2  0  0  0  0
  4  5  1  0  0  0  0
  5  6  2  0  0  0  0
  6  7  1  0  0  0  0
  7  8  2  0  0  0  0
  3  8  1  0  0  0  0
  8  9  1  0  0  0  0
  9 10  1  0  0  0  0
  7 11  1  0  0  0  0
 11 12  1  0  0  0  0
 13  5  1  6  0  0  0
 13 14  1  0  0  0  0
 14 15  2  0  0  0  0
 15 16  1  0  0  0  0
 16 17  2  0  0  0  0
 17 18  1  0  0  0  0
 18 19  2  0  0  0  0
 14 19  1  0  0  0  0
 19 20  1  0  0  0  0
 20 21  1  0  0  0  0
 21 22  1  0  0  0  0
 13 22  1  0  0  0  0
 22 23  1  1  0  0  0
 23 24  2  0  0  0  0
 23 25  1  0  0  0  0
 25 26  1  0  0  0  0
 21 26  1  1  0  0  0
 20 27  1  6  0  0  0
 17 28  1  0  0  0  0
 28 29  1  0  0  0  0
 29 30  1  0  0  0  0
 16 30  1  0  0  0  0
M  END
> <DATABASE_ID>
DB12802

> <DATABASE_NAME>
drugbank

> <SMILES>
COC1=CC(=CC(OC)=C1OC)[C@H]1[C@H]2[C@H](COC2=O)[C@@H](O)C2=CC3=C(OCO3)C=C12

> <INCHI_IDENTIFIER>
InChI=1S/C22H22O8/c1-25-16-4-10(5-17(26-2)21(16)27-3)18-11-6-14-15(30-9-29-14)7-12(11)20(23)13-8-28-22(24)19(13)18/h4-7,13,18-20,23H,8-9H2,1-3H3/t13-,18+,19+,20-/m0/s1

> <INCHI_KEY>
YJGVMLPVUAXIQN-HAEOHBJNSA-N

> <FORMULA>
C22H22O8

> <MOLECULAR_WEIGHT>
414.41

> <EXACT_MASS>
414.131467668

> <JCHEM_ACCEPTOR_COUNT>
7

> <JCHEM_ATOM_COUNT>
52

> <JCHEM_AVERAGE_POLARIZABILITY>
41.682572164218456

> <JCHEM_BIOAVAILABILITY>
1

> <JCHEM_DONOR_COUNT>
1

> <JCHEM_FORMAL_CHARGE>
0

> <JCHEM_GHOSE_FILTER>
1

> <JCHEM_IUPAC>
(10R,11S,15R,16R)-16-hydroxy-10-(3,4,5-trimethoxyphenyl)-4,6,13-trioxatetracyclo[7.7.0.0^{3,7}.0^{11,15}]hexadeca-1,3(7),8-trien-12-one

> <ALOGPS_LOGP>
2.37

> <JCHEM_LOGP>
1.6227982693333332

> <ALOGPS_LOGS>
-3.56

> <JCHEM_MDDR_LIKE_RULE>
0

> <JCHEM_NUMBER_OF_RINGS>
5

> <JCHEM_PHYSIOLOGICAL_CHARGE>
0

> <JCHEM_PKA_STRONGEST_ACIDIC>
14.015751296514601

> <JCHEM_PKA_STRONGEST_BASIC>
-3.229310382904514

> <JCHEM_POLAR_SURFACE_AREA>
92.68000000000002

> <JCHEM_REFRACTIVITY>
103.905

> <JCHEM_ROTATABLE_BOND_COUNT>
4

> <JCHEM_RULE_OF_FIVE>
1

> <ALOGPS_SOLUBILITY>
1.14e-01 g/l

> <JCHEM_TRADITIONAL_IUPAC>
(10R,11S,15R,16R)-16-hydroxy-10-(3,4,5-trimethoxyphenyl)-4,6,13-trioxatetracyclo[7.7.0.0^{3,7}.0^{11,15}]hexadeca-1,3(7),8-trien-12-one

> <JCHEM_VEBER_RULE>
0

> <DRUGBANK_ID>
DB12802

> <DRUG_GROUPS>
investigational

> <GENERIC_NAME>
Picropodophyllin

$$$$
