
  Mrv1533004241521322D          

 20 20  0  0  0  0            999 V2000
    0.0000    3.3000    0.0000 C   0  0  0  0  0  0  0  0  0  0  0  0
    0.0000    2.4750    0.0000 C   0  0  0  0  0  0  0  0  0  0  0  0
   -0.7145    2.0625    0.0000 O   0  0  0  0  0  0  0  0  0  0  0  0
    0.7145    2.0625    0.0000 N   0  0  0  0  0  0  0  0  0  0  0  0
    0.7145    1.2375    0.0000 C   0  0  0  0  0  0  0  0  0  0  0  0
    1.4289    0.8250    0.0000 C   0  0  0  0  0  0  0  0  0  0  0  0
    1.4289   -0.0000    0.0000 C   0  0  0  0  0  0  0  0  0  0  0  0
    0.7145   -0.4125    0.0000 C   0  0  0  0  0  0  0  0  0  0  0  0
    0.0000    0.0000    0.0000 C   0  0  0  0  0  0  0  0  0  0  0  0
    0.0000    0.8250    0.0000 C   0  0  0  0  0  0  0  0  0  0  0  0
   -0.7145    1.2375    0.0000 I   0  0  0  0  0  0  0  0  0  0  0  0
   -0.7145   -0.4125    0.0000 C   0  0  0  0  0  0  0  0  0  0  0  0
   -1.4289    0.0000    0.0000 O   0  0  0  0  0  0  0  0  0  0  0  0
   -0.7145   -1.2375    0.0000 O   0  0  0  0  0  0  0  0  0  0  0  0
    0.7145   -1.2375    0.0000 I   0  0  0  0  0  0  0  0  0  0  0  0
    2.1434   -0.4125    0.0000 C   0  0  0  0  0  0  0  0  0  0  0  0
    2.8579   -0.0000    0.0000 O   0  0  0  0  0  0  0  0  0  0  0  0
    2.1434   -1.2375    0.0000 N   0  0  0  0  0  0  0  0  0  0  0  0
    2.8579   -1.6500    0.0000 C   0  0  0  0  0  0  0  0  0  0  0  0
    2.1434    1.2375    0.0000 I   0  0  0  0  0  0  0  0  0  0  0  0
  1  2  1  0  0  0  0
  2  3  2  0  0  0  0
  2  4  1  0  0  0  0
  4  5  1  0  0  0  0
  5  6  2  0  0  0  0
  6  7  1  0  0  0  0
  7  8  2  0  0  0  0
  8  9  1  0  0  0  0
  9 10  2  0  0  0  0
  5 10  1  0  0  0  0
 10 11  1  0  0  0  0
  9 12  1  0  0  0  0
 12 13  2  0  0  0  0
 12 14  1  0  0  0  0
  8 15  1  0  0  0  0
  7 16  1  0  0  0  0
 16 17  2  0  0  0  0
 16 18  1  0  0  0  0
 18 19  1  0  0  0  0
  6 20  1  0  0  0  0
M  END
> <DATABASE_ID>
DB09133

> <DATABASE_NAME>
drugbank

> <SMILES>
CNC(=O)C1=C(I)C(C(O)=O)=C(I)C(NC(C)=O)=C1I

> <INCHI_IDENTIFIER>
InChI=1S/C11H9I3N2O4/c1-3(17)16-9-7(13)4(10(18)15-2)6(12)5(8(9)14)11(19)20/h1-2H3,(H,15,18)(H,16,17)(H,19,20)

> <INCHI_KEY>
UXIGWFXRQKWHHA-UHFFFAOYSA-N

> <FORMULA>
C11H9I3N2O4

> <MOLECULAR_WEIGHT>
613.916

> <EXACT_MASS>
613.76964

> <JCHEM_ACCEPTOR_COUNT>
4

> <JCHEM_ATOM_COUNT>
29

> <JCHEM_AVERAGE_POLARIZABILITY>
38.58249968248854

> <JCHEM_BIOAVAILABILITY>
1

> <JCHEM_DONOR_COUNT>
3

> <JCHEM_FORMAL_CHARGE>
0

> <JCHEM_GHOSE_FILTER>
0

> <JCHEM_IUPAC>
3-acetamido-2,4,6-triiodo-5-(methylcarbamoyl)benzoic acid

> <ALOGPS_LOGP>
2.27

> <JCHEM_LOGP>
2.729688886333333

> <ALOGPS_LOGS>
-3.70

> <JCHEM_MDDR_LIKE_RULE>
0

> <JCHEM_NUMBER_OF_RINGS>
1

> <JCHEM_PHYSIOLOGICAL_CHARGE>
-1

> <JCHEM_PKA>
11.936094101739716

> <JCHEM_PKA_STRONGEST_ACIDIC>
2.1324892378063254

> <JCHEM_PKA_STRONGEST_BASIC>
-1.6797692681328966

> <JCHEM_POLAR_SURFACE_AREA>
95.5

> <JCHEM_REFRACTIVITY>
102.2398

> <JCHEM_ROTATABLE_BOND_COUNT>
3

> <JCHEM_RULE_OF_FIVE>
0

> <ALOGPS_SOLUBILITY>
1.23e-01 g/l

> <JCHEM_TRADITIONAL_IUPAC>
iothalamate meglumine

> <JCHEM_VEBER_RULE>
0

> <DRUGBANK_ID>
DB09133

> <DRUG_GROUPS>
approved

> <GENERIC_NAME>
Iothalamic acid

> <SYNONYMS>
1-deoxy-1-(methylamino)-D-glucitol 5-acetamido-2,4,6 triiodo-N-methylisophthalamate; Iotalamic acid; Iothalamate; Iothalamic acid

> <PRODUCTS>
Conray; Conray 30; Conray 325; Conray 400; Conray 43; Conray 60; Cysto Conray Inj 43%; Cysto-Conray II; Glofil-125; Vascoray

> <SALTS>
Iothalamate meglumine; Iothalamate sodium; Iothalamate sodium I-125; Sodium Iothalamate

$$$$
