
  Mrv1652310201623232D          

 34 38  0  0  1  0            999 V2000
   -1.8414   -0.9355    0.0000 C   0  0  0  0  0  0  0  0  0  0  0  0
   -1.4289   -1.6500    0.0000 C   0  0  2  0  0  0  0  0  0  0  0  0
   -2.1434   -2.0625    0.0000 C   0  0  0  0  0  0  0  0  0  0  0  0
   -2.1434   -2.8875    0.0000 C   0  0  0  0  0  0  0  0  0  0  0  0
   -2.8579   -3.3000    0.0000 C   0  0  0  0  0  0  0  0  0  0  0  0
   -3.5724   -2.8875    0.0000 C   0  0  0  0  0  0  0  0  0  0  0  0
   -3.5724   -2.0625    0.0000 C   0  0  0  0  0  0  0  0  0  0  0  0
   -2.8579   -1.6500    0.0000 C   0  0  0  0  0  0  0  0  0  0  0  0
   -0.7145   -1.2375    0.0000 C   0  0  0  0  0  0  0  0  0  0  0  0
    0.0000   -1.6500    0.0000 O   0  0  0  0  0  0  0  0  0  0  0  0
   -0.7145   -0.4125    0.0000 O   0  0  0  0  0  0  0  0  0  0  0  0
   -0.0000    0.0000    0.0000 C   0  0  1  0  0  0  0  0  0  0  0  0
    0.0000    0.8250    0.0000 C   0  0  0  0  0  0  0  0  0  0  0  0
    0.7145    1.2375    0.0000 N   0  3  0  0  0  0  0  0  0  0  0  0
    1.4289    0.8250    0.0000 C   0  0  0  0  0  0  0  0  0  0  0  0
    1.4289    0.0000    0.0000 C   0  0  0  0  0  0  0  0  0  0  0  0
    0.7145   -0.4125    0.0000 C   0  0  0  0  0  0  0  0  0  0  0  0
    0.8520    0.1375    0.0000 C   0  0  0  0  0  0  0  0  0  0  0  0
    0.8520    0.6875    0.0000 C   0  0  0  0  0  0  0  0  0  0  0  0
    0.7145    2.0625    0.0000 C   0  0  0  0  0  0  0  0  0  0  0  0
   -0.0000    2.4750    0.0000 C   0  0  0  0  0  0  0  0  0  0  0  0
   -0.0000    3.3000    0.0000 C   0  0  0  0  0  0  0  0  0  0  0  0
   -0.7145    3.7125    0.0000 C   0  0  0  0  0  0  0  0  0  0  0  0
   -0.7145    4.5375    0.0000 C   0  0  0  0  0  0  0  0  0  0  0  0
   -0.0000    4.9500    0.0000 C   0  0  0  0  0  0  0  0  0  0  0  0
    0.7145    4.5375    0.0000 C   0  0  0  0  0  0  0  0  0  0  0  0
    0.7145    3.7125    0.0000 C   0  0  0  0  0  0  0  0  0  0  0  0
   -0.0000    5.7750    0.0000 F   0  0  0  0  0  0  0  0  0  0  0  0
   -1.0164   -2.3645    0.0000 N   0  0  0  0  0  0  0  0  0  0  0  0
   -0.1914   -2.3645    0.0000 C   0  0  0  0  0  0  0  0  0  0  0  0
    0.2211   -3.0789    0.0000 C   0  0  0  0  0  0  0  0  0  0  0  0
   -0.1914   -3.7934    0.0000 C   0  0  0  0  0  0  0  0  0  0  0  0
   -1.0164   -3.7934    0.0000 C   0  0  0  0  0  0  0  0  0  0  0  0
   -1.4289   -3.0789    0.0000 C   0  0  0  0  0  0  0  0  0  0  0  0
  2  1  1  6  0  0  0
  2  3  1  0  0  0  0
  3  4  2  0  0  0  0
  4  5  1  0  0  0  0
  5  6  2  0  0  0  0
  6  7  1  0  0  0  0
  7  8  2  0  0  0  0
  3  8  1  0  0  0  0
  2  9  1  1  0  0  0
  9 10  2  0  0  0  0
  9 11  1  0  0  0  0
 12 11  1  1  0  0  0
 12 13  1  0  0  0  0
 13 14  1  0  0  0  0
 14 15  1  0  0  0  0
 15 16  1  0  0  0  0
 16 17  1  0  0  0  0
 12 17  1  0  0  0  0
 17 18  1  0  0  0  0
 18 19  1  0  0  0  0
 14 19  1  0  0  0  0
 14 20  1  0  0  0  0
 20 21  1  0  0  0  0
 21 22  1  0  0  0  0
 22 23  2  0  0  0  0
 23 24  1  0  0  0  0
 24 25  2  0  0  0  0
 25 26  1  0  0  0  0
 26 27  2  0  0  0  0
 22 27  1  0  0  0  0
 25 28  1  0  0  0  0
  2 29  1  0  0  0  0
 29 30  1  0  0  0  0
 30 31  1  0  0  0  0
 31 32  1  0  0  0  0
 32 33  1  0  0  0  0
 33 34  1  0  0  0  0
 29 34  1  0  0  0  0
M  CHG  1  14   1
M  END
> <DATABASE_ID>
DB12115

> <DATABASE_NAME>
drugbank

> <SMILES>
C[C@@](N1CCCCC1)(C(=O)O[C@H]1C[N+]2(CCC3=CC=C(F)C=C3)CCC1CC2)C1=CC=CC=C1

> <INCHI_IDENTIFIER>
InChI=1S/C29H38FN2O2/c1-29(25-8-4-2-5-9-25,31-17-6-3-7-18-31)28(33)34-27-22-32(20-15-24(27)16-21-32)19-14-23-10-12-26(30)13-11-23/h2,4-5,8-13,24,27H,3,6-7,14-22H2,1H3/q+1/t24?,27-,29-,32?/m0/s1

> <INCHI_KEY>
FNYFFCOCVNTJCD-NNMXADRKSA-N

> <FORMULA>
C29H38FN2O2

> <MOLECULAR_WEIGHT>
465.633

> <EXACT_MASS>
465.291183055

> <JCHEM_ACCEPTOR_COUNT>
2

> <JCHEM_ATOM_COUNT>
72

> <JCHEM_AVERAGE_POLARIZABILITY>
51.98649069982439

> <JCHEM_BIOAVAILABILITY>
1

> <JCHEM_DONOR_COUNT>
0

> <JCHEM_FORMAL_CHARGE>
1

> <JCHEM_GHOSE_FILTER>
0

> <JCHEM_IUPAC>
(3R)-1-[2-(4-fluorophenyl)ethyl]-3-{[(2S)-2-phenyl-2-(piperidin-1-yl)propanoyl]oxy}-1-azabicyclo[2.2.2]octan-1-ium

> <ALOGPS_LOGP>
3.60

> <JCHEM_LOGP>
1.4027568971949198

> <ALOGPS_LOGS>
-7.07

> <JCHEM_MDDR_LIKE_RULE>
1

> <JCHEM_NUMBER_OF_RINGS>
5

> <JCHEM_PHYSIOLOGICAL_CHARGE>
2

> <JCHEM_PKA_STRONGEST_BASIC>
6.714097063328434

> <JCHEM_POLAR_SURFACE_AREA>
29.54

> <JCHEM_REFRACTIVITY>
145.5229

> <JCHEM_ROTATABLE_BOND_COUNT>
8

> <JCHEM_RULE_OF_FIVE>
1

> <ALOGPS_SOLUBILITY>
4.23e-05 g/l

> <JCHEM_TRADITIONAL_IUPAC>
(3R)-1-[2-(4-fluorophenyl)ethyl]-3-{[(2S)-2-phenyl-2-(piperidin-1-yl)propanoyl]oxy}-1-azabicyclo[2.2.2]octan-1-ium

> <JCHEM_VEBER_RULE>
1

> <DRUGBANK_ID>
DB12115

> <DRUG_GROUPS>
investigational

> <GENERIC_NAME>
AZD-9164

$$$$
