
  Mrv1718007121815172D          

  1  0  0  0  0  0            999 V2000
    0.0000    0.0000    0.0000 Ga  0  1  0  0  0  0  0  0  0  0  0  0
M  CHG  1   1   3
M  END
> <DATABASE_ID>
DB14524

> <DATABASE_NAME>
drugbank

> <SMILES>
[Ga+3]

> <INCHI_IDENTIFIER>
InChI=1S/Ga/q+3

> <INCHI_KEY>
CKHJYUSOUQDYEN-UHFFFAOYSA-N

> <FORMULA>
Ga

> <MOLECULAR_WEIGHT>
69.723

> <EXACT_MASS>
68.925580912

> <JCHEM_ACCEPTOR_COUNT>
0

> <JCHEM_ATOM_COUNT>
1

> <JCHEM_AVERAGE_POLARIZABILITY>
1.7784

> <JCHEM_BIOAVAILABILITY>
1

> <JCHEM_DONOR_COUNT>
0

> <JCHEM_FORMAL_CHARGE>
3

> <JCHEM_GHOSE_FILTER>
0

> <JCHEM_IUPAC>
gallium(3+) ion

> <JCHEM_LOGP>
0.0

> <JCHEM_MDDR_LIKE_RULE>
0

> <JCHEM_NUMBER_OF_RINGS>
0

> <JCHEM_PHYSIOLOGICAL_CHARGE>
3

> <JCHEM_PKA>
3.73

> <JCHEM_PKA_STRONGEST_ACIDIC>
2.68

> <JCHEM_POLAR_SURFACE_AREA>
0.0

> <JCHEM_REFRACTIVITY>
0.0

> <JCHEM_ROTATABLE_BOND_COUNT>
0

> <JCHEM_RULE_OF_FIVE>
1

> <JCHEM_TRADITIONAL_IUPAC>
gallium(3+) ion

> <JCHEM_VEBER_RULE>
1

> <DRUGBANK_ID>
DB14524

> <DRUG_GROUPS>
experimental

> <GENERIC_NAME>
Gallium cation

> <SYNONYMS>
Ga3+; Gallium (ga3+); Gallium ion(3+); Gallium, ion (Ga3+); Gallium(3+) cation; Gallium(III) cation

$$$$
