
  Mrv1718007111817162D          

 13 12  0  0  0  0            999 V2000
    1.0534    0.0000    0.0000 B   0  0  0  0  0  0  0  0  0  0  0  0
   -1.1024    0.0000    0.0000 B   0  0  0  0  0  0  0  0  0  0  0  0
   -0.0244   -1.0779    0.0000 B   0  0  0  0  0  0  0  0  0  0  0  0
   -0.0244    1.0779    0.0000 B   0  0  0  0  0  0  0  0  0  0  0  0
    1.8784    0.0000    0.0000 O   0  5  0  0  0  0  0  0  0  0  0  0
   -1.9274    0.0000    0.0000 O   0  5  0  0  0  0  0  0  0  0  0  0
    0.7377   -0.7622    0.0000 O   0  0  0  0  0  0  0  0  0  0  0  0
    0.7377    0.7622    0.0000 O   0  0  0  0  0  0  0  0  0  0  0  0
   -0.7866   -0.7622    0.0000 O   0  0  0  0  0  0  0  0  0  0  0  0
   -0.7866    0.7622    0.0000 O   0  0  0  0  0  0  0  0  0  0  0  0
    0.2449    0.0000    0.0000 O   0  0  0  0  0  0  0  0  0  0  0  0
    4.1177    0.0000    0.0000 Na  0  3  0  0  0  0  0  0  0  0  0  0
    0.0000   -2.7279    0.0000 Na  0  3  0  0  0  0  0  0  0  0  0  0
  5  1  1  0  0  0  0
  6  2  1  0  0  0  0
  7  1  1  0  0  0  0
  7  3  1  0  0  0  0
  8  1  1  0  0  0  0
  8  4  1  0  0  0  0
  9  2  1  0  0  0  0
  9  3  1  0  0  0  0
 10  2  1  0  0  0  0
 10  4  1  0  0  0  0
 11  3  1  0  0  0  0
 11  4  1  0  0  0  0
M  CHG  4   5  -1   6  -1  12   1  13   1
M  END
> <DATABASE_ID>
DB14505

> <DATABASE_NAME>
drugbank

> <SMILES>
[Na+].[Na+].[O-]B1OB2OB([O-])OB(O1)O2

> <INCHI_IDENTIFIER>
InChI=1S/B4O7.2Na/c5-1-7-3-9-2(6)10-4(8-1)11-3;;/q-2;2*+1

> <INCHI_KEY>
UQGFMSUEHSUPRD-UHFFFAOYSA-N

> <FORMULA>
B4Na2O7

> <MOLECULAR_WEIGHT>
201.219

> <EXACT_MASS>
201.981163568

> <JCHEM_ACCEPTOR_COUNT>
7

> <JCHEM_ATOM_COUNT>
13

> <JCHEM_AVERAGE_POLARIZABILITY>
11.88887716797966

> <JCHEM_BIOAVAILABILITY>
1

> <JCHEM_DONOR_COUNT>
0

> <JCHEM_FORMAL_CHARGE>
0

> <JCHEM_GHOSE_FILTER>
0

> <JCHEM_IUPAC>
disodium bicyclo[3.3.1]tetraboroxane-3,7-bis(olate)

> <JCHEM_LOGP>
4.6836

> <JCHEM_MDDR_LIKE_RULE>
0

> <JCHEM_NUMBER_OF_RINGS>
2

> <JCHEM_PHYSIOLOGICAL_CHARGE>
0

> <JCHEM_PKA>
8.955104071008323

> <JCHEM_PKA_STRONGEST_ACIDIC>
8.34834979906753

> <JCHEM_PKA_STRONGEST_BASIC>
-5.004256346183552

> <JCHEM_POLAR_SURFACE_AREA>
92.27000000000001

> <JCHEM_REFRACTIVITY>
9.636800000000001

> <JCHEM_ROTATABLE_BOND_COUNT>
0

> <JCHEM_RULE_OF_FIVE>
1

> <JCHEM_TRADITIONAL_IUPAC>
disodium bicyclo[3.3.1]tetraboroxane-3,7-bis(olate)

> <JCHEM_VEBER_RULE>
0

> <DRUGBANK_ID>
DB14505

> <SECONDARY_ACCESSION_NUMBERS>
DBSALT002513

> <DRUG_GROUPS>
approved; experimental

> <GENERIC_NAME>
Sodium borate

> <SYNONYMS>
Borax; Sodium borate anhydrous

> <PRODUCTS>
Calcemin Advance; Collyre Hygienique Soker; Eye Eze; Glycothymoline; Ma Ying Long Hemorrhoidal; Miel Rosada; Occu-cal Drops; Occu-cal Lotion; Optrex Eye Drops; Optrex Eye Lotion; Optrex Eye Lotion - Liq Oph; Sel De Perou; Sodium Borate; Thunas Eye Drops; Trimo San Deodorant Vaginal Jelly

> <SALTS>
Sodium borate decahydrate

$$$$
