
  Mrv1909 03172216032D          

 23 23  0  0  0  0            999 V2000
    2.1434   -2.0625    0.0000 C   0  0  0  0  0  0  0  0  0  0  0  0
    1.8414   -0.9355    0.0000 C   0  0  0  0  0  0  0  0  0  0  0  0
    1.0164   -2.3644    0.0000 C   0  0  0  0  0  0  0  0  0  0  0  0
   -2.1434   -2.0625    0.0000 C   0  0  0  0  0  0  0  0  0  0  0  0
   -1.0164   -2.3644    0.0000 C   0  0  0  0  0  0  0  0  0  0  0  0
   -1.8414   -0.9355    0.0000 C   0  0  0  0  0  0  0  0  0  0  0  0
    0.0000    0.8250    0.0000 C   0  0  0  0  0  0  0  0  0  0  0  0
    0.7144   -0.4125    0.0000 C   0  0  0  0  0  0  0  0  0  0  0  0
   -0.7144   -0.4125    0.0000 C   0  0  0  0  0  0  0  0  0  0  0  0
   -1.4289    0.8250    0.0000 C   0  0  0  0  0  0  0  0  0  0  0  0
    0.0000    0.0000    0.0000 C   0  0  0  0  0  0  0  0  0  0  0  0
   -0.7144    1.2375    0.0000 C   0  0  0  0  0  0  0  0  0  0  0  0
    0.7144   -1.2375    0.0000 C   0  0  0  0  0  0  0  0  0  0  0  0
   -0.7144   -1.2375    0.0000 C   0  0  0  0  0  0  0  0  0  0  0  0
    0.0000   -1.6500    0.0000 C   0  0  0  0  0  0  0  0  0  0  0  0
   -0.7144    2.0625    0.0000 C   0  0  0  0  0  0  0  0  0  0  0  0
    1.4289   -1.6500    0.0000 C   0  0  0  0  0  0  0  0  0  0  0  0
   -1.4289   -1.6500    0.0000 C   0  0  0  0  0  0  0  0  0  0  0  0
   -2.1434    0.4125    0.0000 N   0  0  0  0  0  0  0  0  0  0  0  0
   -1.4289    2.4750    0.0000 N   0  0  0  0  0  0  0  0  0  0  0  0
    0.0000   -2.4750    0.0000 O   0  0  0  0  0  0  0  0  0  0  0  0
    0.0000    2.4750    0.0000 S   0  0  0  0  0  0  0  0  0  0  0  0
    0.7144    1.2375    0.0000 H   0  0  0  0  0  0  0  0  0  0  0  0
 11  7  1  0  0  0  0
 11  8  2  0  0  0  0
 11  9  1  0  0  0  0
 12  7  2  0  0  0  0
 12 10  1  0  0  0  0
 13  8  1  0  0  0  0
 14  9  2  0  0  0  0
 15 13  2  0  0  0  0
 15 14  1  0  0  0  0
 16 12  1  0  0  0  0
 17  1  1  0  0  0  0
 17  2  1  0  0  0  0
 17  3  1  0  0  0  0
 17 13  1  0  0  0  0
 18  4  1  0  0  0  0
 18  5  1  0  0  0  0
 18  6  1  0  0  0  0
 18 14  1  0  0  0  0
 19 10  3  0  0  0  0
 20 16  2  0  0  0  0
 21 15  1  0  0  0  0
 22 16  1  0  0  0  0
 23  7  1  0  0  0  0
M  END
> <DATABASE_ID>
DB16776

> <DATABASE_NAME>
drugbank

> <SMILES>
[H]\C(=C(\C#N)C(S)=N)C1=CC(=C(O)C(=C1)C(C)(C)C)C(C)(C)C

> <INCHI_IDENTIFIER>
InChI=1S/C18H24N2OS/c1-17(2,3)13-8-11(7-12(10-19)16(20)22)9-14(15(13)21)18(4,5)6/h7-9,21H,1-6H3,(H2,20,22)/b12-7+

> <INCHI_KEY>
XRZYELWZLNAXGE-KPKJPENVSA-N

> <FORMULA>
C18H24N2OS

> <MOLECULAR_WEIGHT>
316.46

> <EXACT_MASS>
316.160934575

> <JCHEM_ACCEPTOR_COUNT>
3

> <JCHEM_ATOM_COUNT>
46

> <JCHEM_AVERAGE_NEUTRAL_MICROSPECIES_CHARGE>
-0.002242340508736951

> <JCHEM_AVERAGE_POLARIZABILITY>
36.20352120506419

> <JCHEM_BIOAVAILABILITY>
1

> <JCHEM_DONOR_COUNT>
3

> <JCHEM_FORMAL_CHARGE>
0

> <JCHEM_GHOSE_FILTER>
1

> <JCHEM_IUPAC>
(2E)-2-cyano-3-(3,5-di-tert-butyl-4-hydroxyphenyl)prop-2-enimidothioic acid

> <ALOGPS_LOGP>
5.74

> <JCHEM_LOGP>
4.902040279303112

> <ALOGPS_LOGS>
-4.47

> <JCHEM_MDDR_LIKE_RULE>
0

> <JCHEM_NEUTRAL_CHARGE>
0

> <JCHEM_NUMBER_OF_RINGS>
1

> <JCHEM_PHYSIOLOGICAL_CHARGE>
0

> <JCHEM_PKA>
9.50664818050897

> <JCHEM_PKA_STRONGEST_ACIDIC>
2.3853601649004164

> <JCHEM_PKA_STRONGEST_BASIC>
10.189531054424775

> <JCHEM_POLAR_SURFACE_AREA>
67.87

> <JCHEM_REFRACTIVITY>
106.31200000000001

> <JCHEM_ROTATABLE_BOND_COUNT>
4

> <JCHEM_RULE_OF_FIVE>
1

> <ALOGPS_SOLUBILITY>
1.07e-02 g/l

> <JCHEM_TRADITIONAL_IUPAC>
(2E)-2-cyano-3-(3,4-dihydroxyphenyl)-N-(4-phenylbutyl)prop-2-enamide

> <JCHEM_VEBER_RULE>
0

> <DRUGBANK_ID>
DB16776

> <DRUG_GROUPS>
experimental

> <GENERIC_NAME>
Tyrphostin AG 879

> <SYNONYMS>
AG 879; AG-879; AG879; Tyrphostin AG-879; Tyrphostin AG879

$$$$
