
  Mrv1652305301723492D          

 38 41  0  0  1  0            999 V2000
   -1.7029    0.2165    0.0000 C   0  0  0  0  0  0  0  0  0  0  0  0
   -2.4173   -0.1960    0.0000 C   0  0  0  0  0  0  0  0  0  0  0  0
   -1.7029   -1.4335    0.0000 C   0  0  0  0  0  0  0  0  0  0  0  0
   -0.2739   -1.4335    0.0000 C   0  0  0  0  0  0  0  0  0  0  0  0
   -0.9884   -0.1960    0.0000 C   0  0  2  0  0  0  0  0  0  0  0  0
   -0.2739    1.0415    0.0000 C   0  0  0  0  0  0  0  0  0  0  0  0
    1.9396   -0.0384    0.0000 C   0  0  0  0  0  0  0  0  0  0  0  0
    2.4246    0.6290    0.0000 C   0  0  0  0  0  0  0  0  0  0  0  0
   -0.9884    0.6290    0.0000 C   0  0  0  0  0  0  0  0  0  0  0  0
   -0.2739    0.2165    0.0000 C   0  0  1  0  0  0  0  0  0  0  0  0
   -0.2739   -0.6085    0.0000 H   0  0  0  0  0  0  0  0  0  0  0  0
    0.4405   -0.1960    0.0000 C   0  0  2  0  0  0  0  0  0  0  0  0
    0.4405    0.6290    0.0000 H   0  0  0  0  0  0  0  0  0  0  0  0
    1.1550    0.2165    0.0000 C   0  0  1  0  0  0  0  0  0  0  0  0
    1.1550    1.0415    0.0000 C   0  0  1  0  0  0  0  0  0  0  0  0
    1.1550    1.8665    0.0000 C   0  0  0  0  0  0  0  0  0  0  0  0
    1.1550   -0.6085    0.0000 H   0  0  0  0  0  0  0  0  0  0  0  0
    2.6541    1.7089    0.0000 H   0  0  0  0  0  0  0  0  0  0  0  0
   -2.4173   -1.0210    0.0000 C   0  0  2  0  0  0  0  0  0  0  0  0
   -3.1318   -1.4335    0.0000 O   0  0  0  0  0  0  0  0  0  0  0  0
    0.4405   -1.0210    0.0000 C   0  0  2  0  0  0  0  0  0  0  0  0
    1.1550   -1.4335    0.0000 O   0  0  0  0  0  0  0  0  0  0  0  0
   -0.9884   -1.0210    0.0000 C   0  0  1  0  0  0  0  0  0  0  0  0
   -0.9884   -1.8460    0.0000 H   0  0  0  0  0  0  0  0  0  0  0  0
    3.5821    2.0933    0.0000 C   0  0  0  0  0  0  0  0  0  0  0  0
    2.8676    2.5058    0.0000 C   0  0  0  0  0  0  0  0  0  0  0  0
    4.2965    2.5058    0.0000 C   0  0  0  0  0  0  0  0  0  0  0  0
    4.2965    3.3308    0.0000 O   0  0  0  0  0  0  0  0  0  0  0  0
    1.9396    1.2964    0.0000 C   0  0  1  0  0  0  0  0  0  0  0  0
    0.4405    1.4540    0.0000 C   0  0  1  0  0  0  0  0  0  0  0  0
    0.4405    2.2790    0.0000 O   0  0  0  0  0  0  0  0  0  0  0  0
    2.1531    2.0933    0.0000 C   0  0  2  0  0  0  0  0  0  0  0  0
    1.5698    2.6767    0.0000 C   0  0  0  0  0  0  0  0  0  0  0  0
    5.0109    2.0933    0.0000 N   0  0  0  0  0  0  0  0  0  0  0  0
    5.7254    2.5058    0.0000 C   0  0  0  0  0  0  0  0  0  0  0  0
    6.4398    2.0933    0.0000 C   0  0  0  0  0  0  0  0  0  0  0  0
    6.4398    1.2683    0.0000 O   0  0  0  0  0  0  0  0  0  0  0  0
    7.1543    2.5058    0.0000 O   0  5  0  0  0  0  0  0  0  0  0  0
 14 15  1  0  0  0  0
 15 29  1  0  0  0  0
 15 30  1  0  0  0  0
 12 14  1  0  0  0  0
 14  7  1  0  0  0  0
 10  6  1  0  0  0  0
  5 10  1  0  0  0  0
 10 12  1  0  0  0  0
 12 21  1  0  0  0  0
 23  5  1  0  0  0  0
  5  9  1  1  0  0  0
  5  1  1  0  0  0  0
 29  8  1  0  0  0  0
  6 30  1  0  0  0  0
  8  7  1  0  0  0  0
  4 21  1  0  0  0  0
 23  3  1  0  0  0  0
 23  4  1  0  0  0  0
  2  1  1  0  0  0  0
 19  3  1  0  0  0  0
 19  2  1  0  0  0  0
 10 11  1  6  0  0  0
 12 13  1  1  0  0  0
 14 17  1  6  0  0  0
 15 16  1  1  0  0  0
 29 18  1  6  0  0  0
 19 20  1  6  0  0  0
 21 22  1  6  0  0  0
 23 24  1  1  0  0  0
 25 26  1  0  0  0  0
 25 27  1  0  0  0  0
 32 26  1  0  0  0  0
 27 34  1  0  0  0  0
 27 28  2  0  0  0  0
 29 32  1  0  0  0  0
 30 31  1  6  0  0  0
 32 33  1  6  0  0  0
 34 35  1  0  0  0  0
 35 36  1  0  0  0  0
 36 38  1  0  0  0  0
 36 37  2  0  0  0  0
M  CHG  1  38  -1
M  END
> <DATABASE_ID>
DB02691

> <DATABASE_NAME>
drugbank

> <SMILES>
[H][C@@]1(CC[C@@]2([H])[C@]3([H])[C@H](O)C[C@]4([H])C[C@H](O)CC[C@]4(C)[C@@]3([H])C[C@H](O)[C@]12C)[C@H](C)CCC(=O)NCC([O-])=O

> <INCHI_IDENTIFIER>
InChI=1S/C26H43NO6/c1-14(4-7-22(31)27-13-23(32)33)17-5-6-18-24-19(12-21(30)26(17,18)3)25(2)9-8-16(28)10-15(25)11-20(24)29/h14-21,24,28-30H,4-13H2,1-3H3,(H,27,31)(H,32,33)/p-1/t14-,15+,16-,17-,18+,19+,20-,21+,24+,25+,26-/m1/s1

> <INCHI_KEY>
RFDAIACWWDREDC-FRVQLJSFSA-M

> <FORMULA>
C26H42NO6

> <MOLECULAR_WEIGHT>
464.624

> <EXACT_MASS>
464.301761656

> <JCHEM_ACCEPTOR_COUNT>
6

> <JCHEM_ATOM_COUNT>
75

> <JCHEM_AVERAGE_POLARIZABILITY>
52.36750539325707

> <JCHEM_BIOAVAILABILITY>
1

> <JCHEM_DONOR_COUNT>
4

> <JCHEM_FORMAL_CHARGE>
-1

> <JCHEM_GHOSE_FILTER>
0

> <JCHEM_IUPAC>
2-[(4R)-4-[(1S,2S,5R,7S,9R,10R,11S,14R,15R,16S)-5,9,16-trihydroxy-2,15-dimethyltetracyclo[8.7.0.0^{2,7}.0^{11,15}]heptadecan-14-yl]pentanamido]acetate

> <ALOGPS_LOGP>
2.07

> <JCHEM_LOGP>
1.3772112169999984

> <ALOGPS_LOGS>
-4.35

> <JCHEM_MDDR_LIKE_RULE>
1

> <JCHEM_NUMBER_OF_RINGS>
4

> <JCHEM_PHYSIOLOGICAL_CHARGE>
-1

> <JCHEM_PKA>
15.694897850593033

> <JCHEM_PKA_STRONGEST_ACIDIC>
3.7733200967259095

> <JCHEM_PKA_STRONGEST_BASIC>
-0.13936410783518716

> <JCHEM_POLAR_SURFACE_AREA>
129.92000000000002

> <JCHEM_REFRACTIVITY>
134.42989999999995

> <JCHEM_ROTATABLE_BOND_COUNT>
6

> <JCHEM_RULE_OF_FIVE>
1

> <ALOGPS_SOLUBILITY>
2.14e-02 g/l

> <JCHEM_TRADITIONAL_IUPAC>
[(4R)-4-[(1S,2S,5R,7S,9R,10R,11S,14R,15R,16S)-5,9,16-trihydroxy-2,15-dimethyltetracyclo[8.7.0.0^{2,7}.0^{11,15}]heptadecan-14-yl]pentanamido]acetate

> <JCHEM_VEBER_RULE>
0

> <DRUGBANK_ID>
DB02691

> <SECONDARY_ACCESSION_NUMBERS>
EXPT01558

> <DRUG_GROUPS>
experimental; investigational

> <GENERIC_NAME>
Glycocholic acid

> <SYNONYMS>
N-choloylglycine

$$$$
