
  Mrv1572004191604222D          

  6  5  0  0  0  0            999 V2000
    0.8250   -0.8250    0.0000 C   0  0  0  0  0  0  0  0  0  0  0  0
    0.8250    0.0000    0.0000 C   0  0  0  0  0  0  0  0  0  0  0  0
    0.1105   -1.2375    0.0000 F   0  0  0  0  0  0  0  0  0  0  0  0
    0.8250    0.8250    0.0000 F   0  0  0  0  0  0  0  0  0  0  0  0
    1.6500   -0.0000    0.0000 F   0  0  0  0  0  0  0  0  0  0  0  0
    0.0000    0.0000    0.0000 F   0  0  0  0  0  0  0  0  0  0  0  0
  2  1  1  0  0  0  0
  3  1  1  0  0  0  0
  4  2  1  0  0  0  0
  5  2  1  0  0  0  0
  6  2  1  0  0  0  0
M  END
> <DATABASE_ID>
DB13116

> <DATABASE_NAME>
drugbank

> <SMILES>
FCC(F)(F)F

> <INCHI_IDENTIFIER>
InChI=1S/C2H2F4/c3-1-2(4,5)6/h1H2

> <INCHI_KEY>
LVGUZGTVOIAKKC-UHFFFAOYSA-N

> <FORMULA>
C2H2F4

> <MOLECULAR_WEIGHT>
102.032

> <EXACT_MASS>
102.009262716

> <JCHEM_ACCEPTOR_COUNT>
0

> <JCHEM_ATOM_COUNT>
8

> <JCHEM_AVERAGE_POLARIZABILITY>
4.841874918759373

> <JCHEM_BIOAVAILABILITY>
1

> <JCHEM_DONOR_COUNT>
0

> <JCHEM_FORMAL_CHARGE>
0

> <JCHEM_GHOSE_FILTER>
0

> <JCHEM_IUPAC>
1,1,1,2-tetrafluoroethane

> <ALOGPS_LOGP>
1.39

> <JCHEM_LOGP>
1.3276109423333333

> <ALOGPS_LOGS>
-0.74

> <JCHEM_MDDR_LIKE_RULE>
0

> <JCHEM_NUMBER_OF_RINGS>
0

> <JCHEM_PHYSIOLOGICAL_CHARGE>
0

> <JCHEM_POLAR_SURFACE_AREA>
0.0

> <JCHEM_REFRACTIVITY>
12.019299999999998

> <JCHEM_ROTATABLE_BOND_COUNT>
1

> <JCHEM_RULE_OF_FIVE>
1

> <ALOGPS_SOLUBILITY>
1.86e+01 g/l

> <JCHEM_TRADITIONAL_IUPAC>
refrigerant R134a

> <JCHEM_VEBER_RULE>
1

> <DRUGBANK_ID>
DB13116

> <DRUG_GROUPS>
approved; experimental

> <GENERIC_NAME>
Norflurane

> <SYNONYMS>
1,1,1,2 Tetrafluoroethane; Norflurane; Tetrafluoroethane

$$$$
