
  Mrv1652310211602052D          

 54 58  0  0  1  0            999 V2000
    5.7103   -5.7299    0.0000 C   0  0  0  0  0  0  0  0  0  0  0  0
    5.9084   -6.5307    0.0000 N   0  0  0  0  0  0  0  0  0  0  0  0
    5.3140   -7.1028    0.0000 C   0  0  1  0  0  0  0  0  0  0  0  0
    5.5121   -7.9036    0.0000 C   0  0  0  0  0  0  0  0  0  0  0  0
    6.3047   -8.1324    0.0000 C   0  0  0  0  0  0  0  0  0  0  0  0
    6.8992   -7.5604    0.0000 C   0  0  0  0  0  0  0  0  0  0  0  0
    7.6919   -7.7892    0.0000 C   0  0  0  0  0  0  0  0  0  0  0  0
    7.8900   -8.5900    0.0000 C   0  0  0  0  0  0  0  0  0  0  0  0
    7.2955   -9.1621    0.0000 C   0  0  0  0  0  0  0  0  0  0  0  0
    6.5029   -8.9333    0.0000 C   0  0  0  0  0  0  0  0  0  0  0  0
    8.6826   -8.8189    0.0000 Cl  0  0  0  0  0  0  0  0  0  0  0  0
    4.5213   -6.8739    0.0000 C   0  0  0  0  0  0  0  0  0  0  0  0
    4.3232   -6.0731    0.0000 O   0  0  0  0  0  0  0  0  0  0  0  0
    3.9268   -7.4460    0.0000 N   0  0  0  0  0  0  0  0  0  0  0  0
    4.1250   -8.2468    0.0000 C   0  0  0  0  0  0  0  0  0  0  0  0
    3.5305   -8.8189    0.0000 C   0  0  0  0  0  0  0  0  0  0  0  0
    3.7287   -9.6197    0.0000 C   0  0  0  0  0  0  0  0  0  0  0  0
    3.1342  -10.1917    0.0000 C   0  0  0  0  0  0  0  0  0  0  0  0
    2.3416   -9.9629    0.0000 C   0  0  0  0  0  0  0  0  0  0  0  0
    2.1434   -9.1621    0.0000 C   0  0  0  0  0  0  0  0  0  0  0  0
    2.7379   -8.5900    0.0000 C   0  0  0  0  0  0  0  0  0  0  0  0
    3.1342   -7.2172    0.0000 C   0  0  0  0  0  0  0  0  0  0  0  0
    2.5397   -7.7892    0.0000 C   0  0  0  0  0  0  0  0  0  0  0  0
    1.7471   -7.5604    0.0000 C   0  0  0  0  0  0  0  0  0  0  0  0
    1.1526   -8.1324    0.0000 C   0  0  0  0  0  0  0  0  0  0  0  0
    1.3508   -8.9333    0.0000 C   0  0  0  0  0  0  0  0  0  0  0  0
    0.7563   -9.5053    0.0000 C   0  0  0  0  0  0  0  0  0  0  0  0
   -0.0363   -9.2765    0.0000 N   0  0  0  0  0  0  0  0  0  0  0  0
   -0.2345   -8.4756    0.0000 C   0  0  0  0  0  0  0  0  0  0  0  0
    0.3600   -7.9036    0.0000 C   0  0  0  0  0  0  0  0  0  0  0  0
    2.9360   -6.4163    0.0000 C   0  0  0  0  0  0  0  0  0  0  0  0
    2.1434   -6.1875    0.0000 C   0  0  0  0  0  0  0  0  0  0  0  0
    1.9453   -5.3867    0.0000 C   0  0  0  0  0  0  0  0  0  0  0  0
    1.1526   -5.1578    0.0000 C   0  0  0  0  0  0  0  0  0  0  0  0
    0.9545   -4.3570    0.0000 C   0  0  0  0  0  0  0  0  0  0  0  0
    1.5489   -3.7850    0.0000 N   0  0  0  0  0  0  0  0  0  0  0  0
    2.3416   -4.0138    0.0000 C   0  0  0  0  0  0  0  0  0  0  0  0
    2.5397   -4.8146    0.0000 C   0  0  0  0  0  0  0  0  0  0  0  0
    6.7011   -6.7595    0.0000 C   0  0  0  0  0  0  0  0  0  0  0  0
    7.3321   -7.2910    0.0000 O   0  0  0  0  0  0  0  0  0  0  0  0
    7.2955   -6.1875    0.0000 C   0  0  0  0  0  0  0  0  0  0  0  0
    7.0974   -5.3867    0.0000 O   0  0  0  0  0  0  0  0  0  0  0  0
    8.0882   -6.4163    0.0000 C   0  0  0  0  0  0  0  0  0  0  0  0
    8.6826   -5.8443    0.0000 C   0  0  0  0  0  0  0  0  0  0  0  0
    9.4753   -6.0731    0.0000 C   0  0  0  0  0  0  0  0  0  0  0  0
    9.6734   -6.8739    0.0000 C   0  0  0  0  0  0  0  0  0  0  0  0
    9.0790   -7.4460    0.0000 C   0  0  0  0  0  0  0  0  0  0  0  0
    8.2863   -7.2172    0.0000 C   0  0  0  0  0  0  0  0  0  0  0  0
    9.2771   -8.2468    0.0000 O   0  0  0  0  0  0  0  0  0  0  0  0
   10.0698   -8.4756    0.0000 C   0  0  0  0  0  0  0  0  0  0  0  0
   10.4661   -7.1028    0.0000 O   0  0  0  0  0  0  0  0  0  0  0  0
   11.0605   -6.5307    0.0000 C   0  0  0  0  0  0  0  0  0  0  0  0
   10.0698   -5.5011    0.0000 O   0  0  0  0  0  0  0  0  0  0  0  0
    9.8716   -4.7002    0.0000 C   0  0  0  0  0  0  0  0  0  0  0  0
  1  2  1  0  0  0  0
  3  2  1  1  0  0  0
  3  4  1  0  0  0  0
  4  5  1  0  0  0  0
  5  6  2  0  0  0  0
  6  7  1  0  0  0  0
  7  8  2  0  0  0  0
  8  9  1  0  0  0  0
  9 10  2  0  0  0  0
  5 10  1  0  0  0  0
  8 11  1  0  0  0  0
  3 12  1  0  0  0  0
 12 13  2  0  0  0  0
 12 14  1  0  0  0  0
 14 15  1  0  0  0  0
 15 16  1  0  0  0  0
 16 17  2  0  0  0  0
 17 18  1  0  0  0  0
 18 19  2  0  0  0  0
 19 20  1  0  0  0  0
 20 21  2  0  0  0  0
 16 21  1  0  0  0  0
 14 22  1  0  0  0  0
 22 23  1  0  0  0  0
 23 24  1  0  0  0  0
 24 25  1  0  0  0  0
 25 26  2  0  0  0  0
 26 27  1  0  0  0  0
 27 28  2  0  0  0  0
 28 29  1  0  0  0  0
 29 30  2  0  0  0  0
 25 30  1  0  0  0  0
 22 31  1  0  0  0  0
 31 32  1  0  0  0  0
 32 33  1  0  0  0  0
 33 34  2  0  0  0  0
 34 35  1  0  0  0  0
 35 36  2  0  0  0  0
 36 37  1  0  0  0  0
 37 38  2  0  0  0  0
 33 38  1  0  0  0  0
  2 39  1  0  0  0  0
 39 40  2  0  0  0  0
 39 41  1  0  0  0  0
 41 42  2  0  0  0  0
 41 43  1  0  0  0  0
 43 44  2  0  0  0  0
 44 45  1  0  0  0  0
 45 46  2  0  0  0  0
 46 47  1  0  0  0  0
 47 48  2  0  0  0  0
 43 48  1  0  0  0  0
 47 49  1  0  0  0  0
 49 50  1  0  0  0  0
 46 51  1  0  0  0  0
 51 52  1  0  0  0  0
 45 53  1  0  0  0  0
 53 54  1  0  0  0  0
M  END
> <DATABASE_ID>
DB12761

> <DATABASE_NAME>
drugbank

> <SMILES>
COC1=CC(=CC(OC)=C1OC)C(=O)C(=O)N(C)[C@@H](CC1=CC=C(Cl)C=C1)C(=O)N(CC1=CC=CC=C1)C(CCC1=CC=NC=C1)CCC1=CC=NC=C1

> <INCHI_IDENTIFIER>
InChI=1S/C43H45ClN4O6/c1-47(43(51)40(49)34-27-38(52-2)41(54-4)39(28-34)53-3)37(26-32-10-14-35(44)15-11-32)42(50)48(29-33-8-6-5-7-9-33)36(16-12-30-18-22-45-23-19-30)17-13-31-20-24-46-25-21-31/h5-11,14-15,18-25,27-28,36-37H,12-13,16-17,26,29H2,1-4H3/t37-/m0/s1

> <INCHI_KEY>
MQSMWZHHUGSULF-QNGWXLTQSA-N

> <FORMULA>
C43H45ClN4O6

> <MOLECULAR_WEIGHT>
749.31

> <EXACT_MASS>
748.3027629

> <JCHEM_ACCEPTOR_COUNT>
8

> <JCHEM_ATOM_COUNT>
99

> <JCHEM_AVERAGE_POLARIZABILITY>
80.09330170947567

> <JCHEM_BIOAVAILABILITY>
0

> <JCHEM_DONOR_COUNT>
0

> <JCHEM_FORMAL_CHARGE>
0

> <JCHEM_GHOSE_FILTER>
0

> <JCHEM_IUPAC>
(2S)-N-benzyl-N-[1,5-bis(pyridin-4-yl)pentan-3-yl]-3-(4-chlorophenyl)-2-[N-methyl-2-oxo-2-(3,4,5-trimethoxyphenyl)acetamido]propanamide

> <ALOGPS_LOGP>
5.85

> <JCHEM_LOGP>
6.869712620666668

> <ALOGPS_LOGS>
-6.62

> <JCHEM_MDDR_LIKE_RULE>
1

> <JCHEM_NUMBER_OF_RINGS>
5

> <JCHEM_PHYSIOLOGICAL_CHARGE>
0

> <JCHEM_PKA_STRONGEST_ACIDIC>
17.898957135652516

> <JCHEM_PKA_STRONGEST_BASIC>
5.353110569909102

> <JCHEM_POLAR_SURFACE_AREA>
111.16000000000001

> <JCHEM_REFRACTIVITY>
208.78499999999997

> <JCHEM_ROTATABLE_BOND_COUNT>
18

> <JCHEM_RULE_OF_FIVE>
0

> <ALOGPS_SOLUBILITY>
1.80e-04 g/l

> <JCHEM_TRADITIONAL_IUPAC>
(2S)-N-benzyl-N-[1,5-bis(pyridin-4-yl)pentan-3-yl]-3-(4-chlorophenyl)-2-[N-methyl-2-oxo-2-(3,4,5-trimethoxyphenyl)acetamido]propanamide

> <JCHEM_VEBER_RULE>
0

> <DRUGBANK_ID>
DB12761

> <DRUG_GROUPS>
investigational

> <GENERIC_NAME>
Timcodar

> <SYNONYMS>
Timcodar

$$$$
