
  Mrv1909 03132022152D          

 23 26  0  0  0  0            999 V2000
    2.7512   -1.7116    0.0000 O   0  0  0  0  0  0  0  0  0  0  0  0
    2.7512   -2.5366    0.0000 C   0  0  0  0  0  0  0  0  0  0  0  0
    3.4186   -3.0215    0.0000 N   0  0  0  0  0  0  0  0  0  0  0  0
    3.1637   -3.8062    0.0000 N   0  0  0  0  0  0  0  0  0  0  0  0
    2.3387   -3.8062    0.0000 C   0  0  0  0  0  0  0  0  0  0  0  0
    2.0837   -3.0215    0.0000 C   0  0  0  0  0  0  0  0  0  0  0  0
    1.2991   -2.7666    0.0000 N   0  0  0  0  0  0  0  0  0  0  0  0
    0.6317   -3.2515    0.0000 C   0  0  0  0  0  0  0  0  0  0  0  0
   -0.0358   -2.7666    0.0000 C   0  0  0  0  0  0  0  0  0  0  0  0
    0.2192   -1.9820    0.0000 N   0  0  0  0  0  0  0  0  0  0  0  0
    1.0442   -1.9820    0.0000 N   0  0  0  0  0  0  0  0  0  0  0  0
    4.2032   -2.7666    0.0000 C   0  0  0  0  0  0  0  0  0  0  0  0
    4.3748   -1.9596    0.0000 N   0  0  0  0  0  0  0  0  0  0  0  0
    5.1594   -1.7047    0.0000 C   0  0  0  0  0  0  0  0  0  0  0  0
    5.7725   -2.2567    0.0000 N   0  0  0  0  0  0  0  0  0  0  0  0
    5.6010   -3.0637    0.0000 C   0  0  0  0  0  0  0  0  0  0  0  0
    4.8163   -3.3186    0.0000 C   0  0  0  0  0  0  0  0  0  0  0  0
    6.2140   -3.6157    0.0000 N   0  0  0  0  0  0  0  0  0  0  0  0
    6.9987   -3.3608    0.0000 C   0  0  0  0  0  0  0  0  0  0  0  0
    7.6118   -3.9128    0.0000 C   0  0  0  0  0  0  0  0  0  0  0  0
    7.4402   -4.7198    0.0000 O   0  0  0  0  0  0  0  0  0  0  0  0
    6.6556   -4.9747    0.0000 C   0  0  0  0  0  0  0  0  0  0  0  0
    6.0425   -4.4227    0.0000 C   0  0  0  0  0  0  0  0  0  0  0  0
  1  2  2  0  0  0  0
  2  3  1  0  0  0  0
  3  4  1  0  0  0  0
  4  5  1  0  0  0  0
  5  6  2  0  0  0  0
  2  6  1  0  0  0  0
  6  7  1  0  0  0  0
  7  8  1  0  0  0  0
  8  9  2  0  0  0  0
  9 10  1  0  0  0  0
 10 11  2  0  0  0  0
  7 11  1  0  0  0  0
  3 12  1  0  0  0  0
 12 13  2  0  0  0  0
 13 14  1  0  0  0  0
 14 15  2  0  0  0  0
 15 16  1  0  0  0  0
 16 17  2  0  0  0  0
 12 17  1  0  0  0  0
 16 18  1  0  0  0  0
 18 19  1  0  0  0  0
 19 20  1  0  0  0  0
 20 21  1  0  0  0  0
 21 22  1  0  0  0  0
 22 23  1  0  0  0  0
 18 23  1  0  0  0  0
M  END
> <DATABASE_ID>
DB15642

> <DATABASE_NAME>
drugbank

> <SMILES>
O=C1N(NC=C1N1C=CN=N1)C1=NC=NC(=C1)N1CCOCC1

> <INCHI_IDENTIFIER>
InChI=1S/C13H14N8O2/c22-13-10(20-2-1-16-18-20)8-17-21(13)12-7-11(14-9-15-12)19-3-5-23-6-4-19/h1-2,7-9,17H,3-6H2

> <INCHI_KEY>
IJMBOKOTALXLKS-UHFFFAOYSA-N

> <FORMULA>
C13H14N8O2

> <MOLECULAR_WEIGHT>
314.309

> <EXACT_MASS>
314.123971723

> <JCHEM_ACCEPTOR_COUNT>
8

> <JCHEM_ATOM_COUNT>
37

> <JCHEM_AVERAGE_NEUTRAL_MICROSPECIES_CHARGE>
-0.48719942062041666

> <JCHEM_AVERAGE_POLARIZABILITY>
31.020552575901537

> <JCHEM_BIOAVAILABILITY>
1

> <JCHEM_DONOR_COUNT>
1

> <JCHEM_FORMAL_CHARGE>
0

> <JCHEM_GHOSE_FILTER>
1

> <JCHEM_IUPAC>
2-[6-(morpholin-4-yl)pyrimidin-4-yl]-4-(1H-1,2,3-triazol-1-yl)-2,3-dihydro-1H-pyrazol-3-one

> <ALOGPS_LOGP>
-0.60

> <JCHEM_LOGP>
-0.3309762211695515

> <ALOGPS_LOGS>
-1.74

> <JCHEM_MDDR_LIKE_RULE>
0

> <JCHEM_NEUTRAL_CHARGE>
0

> <JCHEM_NUMBER_OF_RINGS>
4

> <JCHEM_PHYSIOLOGICAL_CHARGE>
-1

> <JCHEM_PKA_STRONGEST_ACIDIC>
5.204516079824555

> <JCHEM_PKA_STRONGEST_BASIC>
4.697252786124441

> <JCHEM_POLAR_SURFACE_AREA>
101.3

> <JCHEM_REFRACTIVITY>
104.1348

> <JCHEM_ROTATABLE_BOND_COUNT>
3

> <JCHEM_RULE_OF_FIVE>
1

> <ALOGPS_SOLUBILITY>
5.68e+00 g/l

> <JCHEM_TRADITIONAL_IUPAC>
3-{tricyclo[9.4.0.0^{3,8}]pentadeca-1(15),3,5,7,11,13-hexaen-2-ylidene}propan-1-amine

> <JCHEM_VEBER_RULE>
0

> <DRUGBANK_ID>
DB15642

> <DRUG_GROUPS>
investigational

> <GENERIC_NAME>
Molidustat

> <SYNONYMS>
Molidustat

> <SALTS>
Molidustat sodium

$$$$
