
  Mrv1652310211602052D          

 17 17  0  0  1  0            999 V2000
    0.0000    2.4750    0.0000 C   0  0  0  0  0  0  0  0  0  0  0  0
    0.7145    2.0625    0.0000 C   0  0  1  0  0  0  0  0  0  0  0  0
    0.7145    1.2375    0.0000 C   0  0  0  0  0  0  0  0  0  0  0  0
    1.4289    0.8250    0.0000 C   0  0  0  0  0  0  0  0  0  0  0  0
    1.4289   -0.0000    0.0000 C   0  0  0  0  0  0  0  0  0  0  0  0
    0.7145   -0.4125    0.0000 C   0  0  0  0  0  0  0  0  0  0  0  0
    0.0000    0.0000    0.0000 C   0  0  0  0  0  0  0  0  0  0  0  0
    0.0000    0.8250    0.0000 C   0  0  0  0  0  0  0  0  0  0  0  0
    0.7145   -1.2375    0.0000 C   0  0  1  0  0  0  0  0  0  0  0  0
    1.4289   -1.6500    0.0000 C   0  0  0  0  0  0  0  0  0  0  0  0
    1.4289   -2.4750    0.0000 N   0  0  0  0  0  0  0  0  0  0  0  0
    2.1434   -2.8875    0.0000 C   0  0  0  0  0  0  0  0  0  0  0  0
    2.8579   -3.3000    0.0000 C   0  0  0  0  0  0  0  0  0  0  0  0
    1.7309   -3.6020    0.0000 C   0  0  0  0  0  0  0  0  0  0  0  0
    2.5559   -2.1730    0.0000 C   0  0  0  0  0  0  0  0  0  0  0  0
   -0.0000   -1.6500    0.0000 O   0  0  0  0  0  0  0  0  0  0  0  0
    1.4289    2.4750    0.0000 N   0  0  0  0  0  0  0  0  0  0  0  0
  1  2  1  0  0  0  0
  2  3  1  0  0  0  0
  3  4  2  0  0  0  0
  4  5  1  0  0  0  0
  5  6  2  0  0  0  0
  6  7  1  0  0  0  0
  7  8  2  0  0  0  0
  3  8  1  0  0  0  0
  6  9  1  0  0  0  0
  9 10  1  0  0  0  0
 10 11  1  0  0  0  0
 11 12  1  0  0  0  0
 12 13  1  0  0  0  0
 12 14  1  0  0  0  0
 12 15  1  0  0  0  0
  9 16  1  1  0  0  0
  2 17  1  6  0  0  0
M  END
> <DATABASE_ID>
DB12763

> <DATABASE_NAME>
drugbank

> <SMILES>
C[C@H](N)C1=CC=C(C=C1)[C@H](O)CNC(C)(C)C

> <INCHI_IDENTIFIER>
InChI=1S/C14H24N2O/c1-10(15)11-5-7-12(8-6-11)13(17)9-16-14(2,3)4/h5-8,10,13,16-17H,9,15H2,1-4H3/t10-,13+/m0/s1

> <INCHI_KEY>
KUHBBYPXWKYKKR-GXFFZTMASA-N

> <FORMULA>
C14H24N2O

> <MOLECULAR_WEIGHT>
236.359

> <EXACT_MASS>
236.188863401

> <JCHEM_ACCEPTOR_COUNT>
3

> <JCHEM_ATOM_COUNT>
41

> <JCHEM_AVERAGE_POLARIZABILITY>
28.387550858403234

> <JCHEM_BIOAVAILABILITY>
1

> <JCHEM_DONOR_COUNT>
3

> <JCHEM_FORMAL_CHARGE>
0

> <JCHEM_GHOSE_FILTER>
1

> <JCHEM_IUPAC>
(1S)-1-{4-[(1S)-1-aminoethyl]phenyl}-2-(tert-butylamino)ethan-1-ol

> <ALOGPS_LOGP>
1.76

> <JCHEM_LOGP>
1.4975628120000004

> <ALOGPS_LOGS>
-2.71

> <JCHEM_MDDR_LIKE_RULE>
0

> <JCHEM_NUMBER_OF_RINGS>
1

> <JCHEM_PHYSIOLOGICAL_CHARGE>
2

> <JCHEM_PKA_STRONGEST_ACIDIC>
14.10881354510678

> <JCHEM_PKA_STRONGEST_BASIC>
9.905137982708071

> <JCHEM_POLAR_SURFACE_AREA>
58.28

> <JCHEM_REFRACTIVITY>
71.96629999999999

> <JCHEM_ROTATABLE_BOND_COUNT>
5

> <JCHEM_RULE_OF_FIVE>
1

> <ALOGPS_SOLUBILITY>
4.61e-01 g/l

> <JCHEM_TRADITIONAL_IUPAC>
(1S)-1-{4-[(1S)-1-aminoethyl]phenyl}-2-(tert-butylamino)ethanol

> <JCHEM_VEBER_RULE>
0

> <DRUGBANK_ID>
DB12763

> <DRUG_GROUPS>
investigational

> <GENERIC_NAME>
MK-1496

$$$$
