
  Mrv1533007101513152D          

 19 20  0  0  0  0            999 V2000
    2.8578    2.4750    0.0000 C   0  0  0  0  0  0  0  0  0  0  0  0
    1.4289    0.0000    0.0000 C   0  0  0  0  0  0  0  0  0  0  0  0
    1.4289    0.8250    0.0000 C   0  0  0  0  0  0  0  0  0  0  0  0
    4.2868    0.0000    0.0000 C   0  0  0  0  0  0  0  0  0  0  0  0
    4.2868    0.8250    0.0000 C   0  0  0  0  0  0  0  0  0  0  0  0
    2.1434   -2.8875    0.0000 C   0  0  0  0  0  0  0  0  0  0  0  0
    1.4289   -1.6500    0.0000 C   0  0  0  0  0  0  0  0  0  0  0  0
    2.8578   -2.4750    0.0000 C   0  0  0  0  0  0  0  0  0  0  0  0
    2.1434   -1.2375    0.0000 C   0  0  0  0  0  0  0  0  0  0  0  0
    3.5723   -1.2375    0.0000 C   0  0  0  0  0  0  0  0  0  0  0  0
    3.5723   -0.4125    0.0000 C   0  0  0  0  0  0  0  0  0  0  0  0
    3.5723    1.2375    0.0000 C   0  0  0  0  0  0  0  0  0  0  0  0
    2.8578    0.0000    0.0000 C   0  0  0  0  0  0  0  0  0  0  0  0
    2.8578    0.8250    0.0000 C   0  0  0  0  0  0  0  0  0  0  0  0
    1.4289   -2.4750    0.0000 N   0  0  0  0  0  0  0  0  0  0  0  0
    2.8578   -1.6500    0.0000 N   0  0  0  0  0  0  0  0  0  0  0  0
    3.5723    2.0625    0.0000 O   0  0  0  0  0  0  0  0  0  0  0  0
    2.1434   -0.4125    0.0000 O   0  0  0  0  0  0  0  0  0  0  0  0
    2.1434    1.2375    0.0000 O   0  0  0  0  0  0  0  0  0  0  0  0
  5  4  2  0  0  0  0
  8  6  1  0  0  0  0
  9  7  1  0  0  0  0
 11  4  1  0  0  0  0
 11 10  1  0  0  0  0
 12  5  1  0  0  0  0
 13 11  2  0  0  0  0
 14 12  2  0  0  0  0
 14 13  1  0  0  0  0
 15  6  1  0  0  0  0
 15  7  1  0  0  0  0
 17  1  1  0  0  0  0
 17 12  1  0  0  0  0
 18  2  1  0  0  0  0
 18 13  1  0  0  0  0
 19  3  1  0  0  0  0
 19 14  1  0  0  0  0
 16  8  1  0  0  0  0
 16  9  1  0  0  0  0
 16 10  1  0  0  0  0
M  END
> <DATABASE_ID>
DB09069

> <DATABASE_NAME>
drugbank

> <SMILES>
COC1=C(OC)C(OC)=C(CN2CCNCC2)C=C1

> <INCHI_IDENTIFIER>
InChI=1S/C14H22N2O3/c1-17-12-5-4-11(13(18-2)14(12)19-3)10-16-8-6-15-7-9-16/h4-5,15H,6-10H2,1-3H3

> <INCHI_KEY>
UHWVSEOVJBQKBE-UHFFFAOYSA-N

> <FORMULA>
C14H22N2O3

> <MOLECULAR_WEIGHT>
266.341

> <EXACT_MASS>
266.163042576

> <JCHEM_ACCEPTOR_COUNT>
5

> <JCHEM_ATOM_COUNT>
41

> <JCHEM_AVERAGE_POLARIZABILITY>
29.154820146078933

> <JCHEM_BIOAVAILABILITY>
1

> <JCHEM_DONOR_COUNT>
1

> <JCHEM_FORMAL_CHARGE>
0

> <JCHEM_GHOSE_FILTER>
1

> <JCHEM_IUPAC>
1-[(2,3,4-trimethoxyphenyl)methyl]piperazine

> <ALOGPS_LOGP>
0.85

> <JCHEM_LOGP>
0.9057004276666669

> <ALOGPS_LOGS>
-2.55

> <JCHEM_MDDR_LIKE_RULE>
0

> <JCHEM_NUMBER_OF_RINGS>
2

> <JCHEM_PHYSIOLOGICAL_CHARGE>
1

> <JCHEM_PKA_STRONGEST_BASIC>
9.2147612185944

> <JCHEM_POLAR_SURFACE_AREA>
42.96000000000001

> <JCHEM_REFRACTIVITY>
74.74570000000001

> <JCHEM_ROTATABLE_BOND_COUNT>
5

> <JCHEM_RULE_OF_FIVE>
1

> <ALOGPS_SOLUBILITY>
7.54e-01 g/l

> <JCHEM_TRADITIONAL_IUPAC>
trimetazidine

> <JCHEM_VEBER_RULE>
0

> <DRUGBANK_ID>
DB09069

> <DRUG_GROUPS>
approved; investigational

> <GENERIC_NAME>
Trimetazidine

> <SYNONYMS>
1-[2,3,4-trimethoxybenzyl] piperazine dihydrochloride; Trimetazidina; Trimetazidine

> <INTERNATIONAL_BRANDS>
Vastarel MR

> <SALTS>
Trimetazidine dihydrochloride

$$$$
