
  Mrv1572004221603222D          

 17 18  0  0  0  0            999 V2000
    3.4656    3.5277    0.0000 C   0  0  0  0  0  0  0  0  0  0  0  0
    2.0367    3.5277    0.0000 C   0  0  0  0  0  0  0  0  0  0  0  0
    4.2032    2.0602    0.0000 C   0  0  0  0  0  0  0  0  0  0  0  0
    3.6486    0.3532    0.0000 C   0  0  0  0  0  0  0  0  0  0  0  0
    0.8839   -0.9817    0.0000 C   0  0  0  0  0  0  0  0  0  0  0  0
    1.7044   -1.0679    0.0000 C   0  0  0  0  0  0  0  0  0  0  0  0
    0.5484   -0.2280    0.0000 C   0  0  0  0  0  0  0  0  0  0  0  0
    2.1893   -0.4005    0.0000 C   0  0  0  0  0  0  0  0  0  0  0  0
    1.0333    0.4394    0.0000 C   0  0  0  0  0  0  0  0  0  0  0  0
    2.7512    3.1152    0.0000 C   0  0  0  0  0  0  0  0  0  0  0  0
    3.4186    1.8053    0.0000 C   0  0  0  0  0  0  0  0  0  0  0  0
    1.8538    0.3532    0.0000 C   0  0  0  0  0  0  0  0  0  0  0  0
    2.7512    2.2902    0.0000 C   0  0  0  0  0  0  0  0  0  0  0  0
    2.0837    1.8053    0.0000 C   0  0  0  0  0  0  0  0  0  0  0  0
    3.1637    1.0206    0.0000 N   0  0  0  0  0  0  0  0  0  0  0  0
    2.3387    1.0206    0.0000 N   0  0  0  0  0  0  0  0  0  0  0  0
    1.2991    2.0602    0.0000 O   0  0  0  0  0  0  0  0  0  0  0  0
  6  5  2  0  0  0  0
  7  5  1  0  0  0  0
  8  6  1  0  0  0  0
  9  7  2  0  0  0  0
 10  1  1  0  0  0  0
 10  2  1  0  0  0  0
 11  3  1  0  0  0  0
 12  8  2  0  0  0  0
 12  9  1  0  0  0  0
 13 10  1  0  0  0  0
 13 11  2  0  0  0  0
 14 13  1  0  0  0  0
 15  4  1  0  0  0  0
 15 11  1  0  0  0  0
 16 12  1  0  0  0  0
 16 14  1  0  0  0  0
 16 15  1  0  0  0  0
 17 14  2  0  0  0  0
M  END
> <DATABASE_ID>
DB13524

> <DATABASE_NAME>
drugbank

> <SMILES>
CC(C)C1=C(C)N(C)N(C1=O)C1=CC=CC=C1

> <INCHI_IDENTIFIER>
InChI=1S/C14H18N2O/c1-10(2)13-11(3)15(4)16(14(13)17)12-8-6-5-7-9-12/h5-10H,1-4H3

> <INCHI_KEY>
PXWLVJLKJGVOKE-UHFFFAOYSA-N

> <FORMULA>
C14H18N2O

> <MOLECULAR_WEIGHT>
230.311

> <EXACT_MASS>
230.141913208

> <JCHEM_ACCEPTOR_COUNT>
2

> <JCHEM_ATOM_COUNT>
35

> <JCHEM_AVERAGE_POLARIZABILITY>
26.427495335214473

> <JCHEM_BIOAVAILABILITY>
1

> <JCHEM_DONOR_COUNT>
0

> <JCHEM_FORMAL_CHARGE>
0

> <JCHEM_GHOSE_FILTER>
1

> <JCHEM_IUPAC>
1,5-dimethyl-2-phenyl-4-(propan-2-yl)-2,3-dihydro-1H-pyrazol-3-one

> <ALOGPS_LOGP>
1.94

> <JCHEM_LOGP>
2.3461100943333335

> <ALOGPS_LOGS>
-1.40

> <JCHEM_MDDR_LIKE_RULE>
0

> <JCHEM_NUMBER_OF_RINGS>
2

> <JCHEM_PHYSIOLOGICAL_CHARGE>
0

> <JCHEM_PKA_STRONGEST_BASIC>
0.47294779469232606

> <JCHEM_POLAR_SURFACE_AREA>
23.55

> <JCHEM_REFRACTIVITY>
69.9235

> <JCHEM_ROTATABLE_BOND_COUNT>
2

> <JCHEM_RULE_OF_FIVE>
1

> <ALOGPS_SOLUBILITY>
9.26e+00 g/l

> <JCHEM_TRADITIONAL_IUPAC>
demex

> <JCHEM_VEBER_RULE>
1

> <DRUGBANK_ID>
DB13524

> <DRUG_GROUPS>
experimental

> <GENERIC_NAME>
Propyphenazone

> <SYNONYMS>
1-Phenyl-2,3-dimethyl-4-isopropyl-3-pyrazolin-5-one; 1-Phenyl-2,3-dimethyl-4-isopropylpyrazol-5-one; 4-Isopropyl-1,5-dimethyl-2-phenyl-1,2-dihydro-pyrazol-3-one; 4-Isopropylantipyrine; Isopropylantipyrine; Isopropylphenazone; Propifenazona; Propyphenazone; Propyphenazonum

> <PRODUCTS>
Geworin

> <INTERNATIONAL_BRANDS>
Yoshipyrin

$$$$
