
  Mrv1718003231814082D          

 15 14  0  0  0  0            999 V2000
    0.0000    0.2062    0.0000 O   0  0  0  0  0  0  0  0  0  0  0  0
    0.7145   -0.2062    0.0000 C   0  0  0  0  0  0  0  0  0  0  0  0
    1.4289    0.2062    0.0000 C   0  0  0  0  0  0  0  0  0  0  0  0
    2.1434   -0.2062    0.0000 O   0  0  0  0  0  0  0  0  0  0  0  0
    2.8579    0.2062    0.0000 C   0  0  0  0  0  0  0  0  0  0  0  0
    3.5724   -0.2062    0.0000 C   0  0  0  0  0  0  0  0  0  0  0  0
    4.2868    0.2062    0.0000 O   0  0  0  0  0  0  0  0  0  0  0  0
    5.0012   -0.2062    0.0000 C   0  0  0  0  0  0  0  0  0  0  0  0
   -0.7145   -0.2062    0.0000 C   0  0  0  0  0  0  0  0  0  0  0  0
   -1.4289    0.2062    0.0000 C   0  0  0  0  0  0  0  0  0  0  0  0
   -2.1434   -0.2062    0.0000 O   0  0  0  0  0  0  0  0  0  0  0  0
   -2.8579    0.2062    0.0000 C   0  0  0  0  0  0  0  0  0  0  0  0
   -3.5724   -0.2062    0.0000 C   0  0  0  0  0  0  0  0  0  0  0  0
   -4.2868    0.2062    0.0000 O   0  0  0  0  0  0  0  0  0  0  0  0
   -5.0012   -0.2062    0.0000 C   0  0  0  0  0  0  0  0  0  0  0  0
  2  1  1  0  0  0  0
  9  1  1  0  0  0  0
  3  2  1  0  0  0  0
  4  3  1  0  0  0  0
  5  4  1  0  0  0  0
  6  5  1  0  0  0  0
  7  6  1  0  0  0  0
  8  7  1  0  0  0  0
 10  9  1  0  0  0  0
 11 10  1  0  0  0  0
 12 11  1  0  0  0  0
 13 12  1  0  0  0  0
 14 13  1  0  0  0  0
 15 14  1  0  0  0  0
M  END
> <DATABASE_ID>
DB14000

> <DATABASE_NAME>
drugbank

> <SMILES>
COCCOCCOCCOCCOC

> <INCHI_IDENTIFIER>
InChI=1S/C10H22O5/c1-11-3-5-13-7-9-15-10-8-14-6-4-12-2/h3-10H2,1-2H3

> <INCHI_KEY>
ZUHZGEOKBKGPSW-UHFFFAOYSA-N

> <FORMULA>
C10H22O5

> <MOLECULAR_WEIGHT>
222.281

> <EXACT_MASS>
222.146723808

> <JCHEM_ACCEPTOR_COUNT>
5

> <JCHEM_ATOM_COUNT>
37

> <JCHEM_AVERAGE_POLARIZABILITY>
26.178672260450277

> <JCHEM_BIOAVAILABILITY>
1

> <JCHEM_DONOR_COUNT>
0

> <JCHEM_FORMAL_CHARGE>
0

> <JCHEM_GHOSE_FILTER>
1

> <JCHEM_IUPAC>
2,5,8,11,14-pentaoxapentadecane

> <ALOGPS_LOGP>
-0.12

> <JCHEM_LOGP>
-0.06335259833333345

> <ALOGPS_LOGS>
-1.76

> <JCHEM_MDDR_LIKE_RULE>
0

> <JCHEM_NUMBER_OF_RINGS>
0

> <JCHEM_PHYSIOLOGICAL_CHARGE>
0

> <JCHEM_PKA_STRONGEST_BASIC>
-3.4402456646496753

> <JCHEM_POLAR_SURFACE_AREA>
46.150000000000006

> <JCHEM_REFRACTIVITY>
57.18650000000002

> <JCHEM_ROTATABLE_BOND_COUNT>
12

> <JCHEM_RULE_OF_FIVE>
1

> <ALOGPS_SOLUBILITY>
3.88e+00 g/l

> <JCHEM_TRADITIONAL_IUPAC>
tetraglyme

> <JCHEM_VEBER_RULE>
0

> <DRUGBANK_ID>
DB14000

> <DRUG_GROUPS>
experimental

> <GENERIC_NAME>
Tetraglyme

> <SYNONYMS>
bis[2-(2-methoxyethoxy)ethyl] ether; dimethoxytetraethylene glycol; Glyme 5; TEGDME; tetraethylene glycol dimethyl ether

$$$$
