
  Mrv1909 08131921162D          

 56 59  0  0  0  0            999 V2000
    7.8582    3.7125    0.0000 C   0  0  0  0  0  0  0  0  0  0  0  0
   -7.8582   -1.2375    0.0000 C   0  0  0  0  0  0  0  0  0  0  0  0
    5.7166    4.9499    0.0000 C   0  0  0  0  0  0  0  0  0  0  0  0
   -4.2874    0.0000    0.0000 C   0  0  0  0  0  0  0  0  0  0  0  0
   -2.9708   -2.8875    0.0000 C   0  0  0  0  0  0  0  0  0  0  0  0
   -1.3208   -2.8875    0.0000 C   0  0  0  0  0  0  0  0  0  0  0  0
   -2.1458   -2.0625    0.0000 C   0  0  0  0  0  0  0  0  0  0  0  0
   -1.4292   -4.9499    0.0000 O   0  0  0  0  0  0  0  0  0  0  0  0
    2.1416    3.7125    0.0000 O   0  0  0  0  0  0  0  0  0  0  0  0
   -2.8582   -2.4749    0.0000 O   0  0  0  0  0  0  0  0  0  0  0  0
    0.7124   -3.7125    0.0000 C   0  0  0  0  0  0  0  0  0  0  0  0
    0.0000   -2.4749    0.0000 C   0  0  0  0  0  0  0  0  0  0  0  0
    2.1416    1.2375    0.0000 C   0  0  0  0  0  0  0  0  0  0  0  0
    3.5707    1.2375    0.0000 C   0  0  0  0  0  0  0  0  0  0  0  0
   -0.7166   -1.2375    0.0000 C   0  0  0  0  0  0  0  0  0  0  0  0
   -1.4292    0.0000    0.0000 C   0  0  0  0  0  0  0  0  0  0  0  0
    0.0000   -4.1249    0.0000 C   0  0  0  0  0  0  0  0  0  0  0  0
   -0.7166   -2.8875    0.0000 C   0  0  0  0  0  0  0  0  0  0  0  0
    2.1416    2.0625    0.0000 C   0  0  0  0  0  0  0  0  0  0  0  0
    3.5707    2.0625    0.0000 C   0  0  0  0  0  0  0  0  0  0  0  0
   -1.4292   -1.6499    0.0000 C   0  0  0  0  0  0  0  0  0  0  0  0
   -2.1458   -0.4125    0.0000 C   0  0  0  0  0  0  0  0  0  0  0  0
    7.1457    3.2999    0.0000 C   0  0  0  0  0  0  0  0  0  0  0  0
   -7.1457   -1.6499    0.0000 C   0  0  0  0  0  0  0  0  0  0  0  0
    6.4291    3.7125    0.0000 C   0  0  0  0  0  0  0  0  0  0  0  0
   -6.4291   -1.2375    0.0000 C   0  0  0  0  0  0  0  0  0  0  0  0
    4.9999    4.5375    0.0000 C   0  0  0  0  0  0  0  0  0  0  0  0
   -4.9999   -0.4125    0.0000 C   0  0  0  0  0  0  0  0  0  0  0  0
    5.7166    3.2999    0.0000 C   0  0  0  0  0  0  0  0  0  0  0  0
   -5.7166   -1.6499    0.0000 C   0  0  0  0  0  0  0  0  0  0  0  0
    4.2874    3.2999    0.0000 C   0  0  0  0  0  0  0  0  0  0  0  0
   -4.2874   -1.6499    0.0000 C   0  0  0  0  0  0  0  0  0  0  0  0
    2.1416   -1.2375    0.0000 N   0  0  0  0  0  0  0  0  0  0  0  0
    0.7124   -1.2375    0.0000 N   0  0  0  0  0  0  0  0  0  0  0  0
    1.4292    0.0000    0.0000 N   0  0  0  0  0  0  0  0  0  0  0  0
    1.4292   -2.4749    0.0000 N   0  0  0  0  0  0  0  0  0  0  0  0
    2.8582    0.0000    0.0000 N   0  0  0  0  0  0  0  0  0  0  0  0
    0.0000    0.0000    0.0000 N   0  0  0  0  0  0  0  0  0  0  0  0
   -2.1458   -3.7125    0.0000 N   0  0  0  0  0  0  0  0  0  0  0  0
    3.5707    3.7125    0.0000 O   0  0  0  0  0  0  0  0  0  0  0  0
   -3.5707   -1.2375    0.0000 O   0  0  0  0  0  0  0  0  0  0  0  0
   -1.4292   -4.1249    0.0000 C   0  0  0  0  0  0  0  0  0  0  0  0
    2.8582    3.2999    0.0000 C   0  0  0  0  0  0  0  0  0  0  0  0
   -2.8582   -1.6499    0.0000 C   0  0  0  0  0  0  0  0  0  0  0  0
    0.7124   -2.8875    0.0000 C   0  0  0  0  0  0  0  0  0  0  0  0
    2.8582    0.8250    0.0000 C   0  0  0  0  0  0  0  0  0  0  0  0
   -0.7166   -0.4125    0.0000 C   0  0  0  0  0  0  0  0  0  0  0  0
   -0.7166   -3.7125    0.0000 C   0  0  0  0  0  0  0  0  0  0  0  0
    2.8582    2.4749    0.0000 C   0  0  0  0  0  0  0  0  0  0  0  0
   -2.1458   -1.2375    0.0000 C   0  0  0  0  0  0  0  0  0  0  0  0
    1.4292   -1.6499    0.0000 C   0  0  0  0  0  0  0  0  0  0  0  0
    2.1416   -0.4125    0.0000 C   0  0  0  0  0  0  0  0  0  0  0  0
    0.7124   -0.4125    0.0000 C   0  0  0  0  0  0  0  0  0  0  0  0
    4.9999    3.7125    0.0000 C   0  0  0  0  0  0  0  0  0  0  0  0
   -4.9999   -1.2375    0.0000 C   0  0  0  0  0  0  0  0  0  0  0  0
   -2.1458   -2.8875    0.0000 C   0  0  0  0  0  0  0  0  0  0  0  0
  1 23  1  0  0  0  0
  2 24  1  0  0  0  0
  3 27  1  0  0  0  0
  4 28  1  0  0  0  0
  5 56  1  0  0  0  0
  6 56  1  0  0  0  0
  7 56  1  0  0  0  0
  8 42  2  0  0  0  0
  9 43  2  0  0  0  0
 10 44  2  0  0  0  0
 11 17  2  0  0  0  0
 11 45  1  0  0  0  0
 12 18  1  0  0  0  0
 12 45  2  0  0  0  0
 13 19  2  0  0  0  0
 13 46  1  0  0  0  0
 14 20  1  0  0  0  0
 14 46  2  0  0  0  0
 15 21  1  0  0  0  0
 15 47  2  0  0  0  0
 16 22  2  0  0  0  0
 16 47  1  0  0  0  0
 17 48  1  0  0  0  0
 18 48  2  0  0  0  0
 19 49  1  0  0  0  0
 20 49  2  0  0  0  0
 21 50  2  0  0  0  0
 22 50  1  0  0  0  0
 23 25  1  0  0  0  0
 24 26  1  0  0  0  0
 25 29  1  0  0  0  0
 26 30  1  0  0  0  0
 27 54  1  0  0  0  0
 28 55  1  0  0  0  0
 29 54  1  0  0  0  0
 30 55  1  0  0  0  0
 31 40  1  0  0  0  0
 31 54  1  0  0  0  0
 32 41  1  0  0  0  0
 32 55  1  0  0  0  0
 33 51  1  0  0  0  0
 33 52  2  0  0  0  0
 34 51  2  0  0  0  0
 34 53  1  0  0  0  0
 35 52  1  0  0  0  0
 35 53  2  0  0  0  0
 36 45  1  0  0  0  0
 36 51  1  0  0  0  0
 37 46  1  0  0  0  0
 37 52  1  0  0  0  0
 38 47  1  0  0  0  0
 38 53  1  0  0  0  0
 39 42  1  0  0  0  0
 39 56  1  0  0  0  0
 40 43  1  0  0  0  0
 41 44  1  0  0  0  0
 42 48  1  0  0  0  0
 43 49  1  0  0  0  0
 44 50  1  0  0  0  0
M  END
> <DATABASE_ID>
DB15468

> <DATABASE_NAME>
drugbank

> <SMILES>
CCCCC(CC)COC(=O)C1=CC=C(NC2=NC(NC3=CC=C(C=C3)C(=O)OCC(CC)CCCC)=NC(NC3=CC=C(C=C3)C(=O)NC(C)(C)C)=N2)C=C1

> <INCHI_IDENTIFIER>
InChI=1S/C44H59N7O5/c1-8-12-14-30(10-3)28-55-39(53)33-18-24-36(25-19-33)46-42-48-41(45-35-22-16-32(17-23-35)38(52)51-44(5,6)7)49-43(50-42)47-37-26-20-34(21-27-37)40(54)56-29-31(11-4)15-13-9-2/h16-27,30-31H,8-15,28-29H2,1-7H3,(H,51,52)(H3,45,46,47,48,49,50)

> <INCHI_KEY>
OSCJHTSDLYVCQC-UHFFFAOYSA-N

> <FORMULA>
C44H59N7O5

> <MOLECULAR_WEIGHT>
766.0

> <EXACT_MASS>
765.457768028

> <JCHEM_ACCEPTOR_COUNT>
9

> <JCHEM_ATOM_COUNT>
115

> <JCHEM_AVERAGE_POLARIZABILITY>
87.6316197518637

> <JCHEM_BIOAVAILABILITY>
0

> <JCHEM_DONOR_COUNT>
4

> <JCHEM_FORMAL_CHARGE>
0

> <JCHEM_GHOSE_FILTER>
0

> <JCHEM_IUPAC>
2-ethylhexyl 4-[(4-{[4-(tert-butylcarbamoyl)phenyl]amino}-6-[(4-{[(2-ethylhexyl)oxy]carbonyl}phenyl)amino]-1,3,5-triazin-2-yl)amino]benzoate

> <ALOGPS_LOGP>
8.11

> <JCHEM_LOGP>
12.392253016666665

> <ALOGPS_LOGS>
-5.92

> <JCHEM_MDDR_LIKE_RULE>
1

> <JCHEM_NUMBER_OF_RINGS>
4

> <JCHEM_PHYSIOLOGICAL_CHARGE>
0

> <JCHEM_PKA>
12.425895480070297

> <JCHEM_PKA_STRONGEST_ACIDIC>
11.350710036303456

> <JCHEM_PKA_STRONGEST_BASIC>
3.7286866575528492

> <JCHEM_POLAR_SURFACE_AREA>
156.45999999999998

> <JCHEM_REFRACTIVITY>
223.9459

> <JCHEM_ROTATABLE_BOND_COUNT>
24

> <JCHEM_RULE_OF_FIVE>
0

> <ALOGPS_SOLUBILITY>
9.13e-04 g/l

> <JCHEM_TRADITIONAL_IUPAC>
sundare

> <JCHEM_VEBER_RULE>
0

> <DRUGBANK_ID>
DB15468

> <DRUG_GROUPS>
experimental

> <GENERIC_NAME>
Iscotrizinol

> <SYNONYMS>
Iscotrizinol

> <PRODUCTS>
Calming Days Vegan Sunscreen; Sun Project Skin-relief Suncream

$$$$
