
  Mrv1652310211604252D          

 46 53  0  0  1  0            999 V2000
    2.0630   -1.4167    0.0000 C   0  0  0  0  0  0  0  0  0  0  0  0
    2.8390   -1.6970    0.0000 C   0  0  2  0  0  0  0  0  0  0  0  0
    3.5218   -1.2340    0.0000 C   0  0  0  0  0  0  0  0  0  0  0  0
    4.1731   -1.7404    0.0000 C   0  0  1  0  0  0  0  0  0  0  0  0
    4.9853   -1.5952    0.0000 C   0  0  2  0  0  0  0  0  0  0  0  0
    5.2655   -0.8192    0.0000 C   0  0  0  0  0  0  0  0  0  0  0  0
    6.0777   -0.6740    0.0000 C   0  0  0  0  0  0  0  0  0  0  0  0
    6.6095   -1.3047    0.0000 C   0  0  0  0  0  0  0  0  0  0  0  0
    7.4216   -1.1595    0.0000 C   0  0  0  0  0  0  0  0  0  0  0  0
    7.9534   -1.7902    0.0000 C   0  0  0  0  0  0  0  0  0  0  0  0
    8.7655   -1.6450    0.0000 O   0  0  0  0  0  0  0  0  0  0  0  0
    7.6731   -2.5662    0.0000 C   0  0  0  0  0  0  0  0  0  0  0  0
    6.8610   -2.7114    0.0000 C   0  0  0  0  0  0  0  0  0  0  0  0
    6.3292   -2.0807    0.0000 C   0  0  2  0  0  0  0  0  0  0  0  0
    5.5171   -2.2259    0.0000 C   0  0  0  0  0  0  0  0  0  0  0  0
    5.2368   -3.0018    0.0000 C   0  0  0  0  0  0  0  0  0  0  0  0
    4.4247   -3.1470    0.0000 C   0  0  0  0  0  0  0  0  0  0  0  0
    3.8928   -2.5163    0.0000 C   0  0  2  0  0  0  0  0  0  0  0  0
    3.0683   -2.4895    0.0000 C   0  0  1  0  0  0  0  0  0  0  0  0
    2.5619   -3.1408    0.0000 C   0  0  0  0  0  0  0  0  0  0  0  0
    1.7447   -3.0280    0.0000 O   0  0  0  0  0  0  0  0  0  0  0  0
    2.8728   -3.9050    0.0000 C   0  0  0  0  0  0  0  0  0  0  0  0
    2.3665   -4.5563    0.0000 N   0  0  0  0  0  0  0  0  0  0  0  0
    2.6773   -5.3205    0.0000 C   0  0  0  0  0  0  0  0  0  0  0  0
    2.1710   -5.9718    0.0000 C   0  0  0  0  0  0  0  0  0  0  0  0
    1.3537   -5.8590    0.0000 N   0  0  0  0  0  0  0  0  0  0  0  0
    1.0429   -5.0948    0.0000 C   0  0  0  0  0  0  0  0  0  0  0  0
    1.5492   -4.4435    0.0000 C   0  0  0  0  0  0  0  0  0  0  0  0
    0.8474   -6.5103    0.0000 C   0  0  0  0  0  0  0  0  0  0  0  0
    1.1583   -7.2745    0.0000 C   0  0  0  0  0  0  0  0  0  0  0  0
    0.6519   -7.9258    0.0000 C   0  0  0  0  0  0  0  0  0  0  0  0
   -0.1653   -7.8130    0.0000 N   0  0  0  0  0  0  0  0  0  0  0  0
   -0.4762   -7.0488    0.0000 C   0  0  0  0  0  0  0  0  0  0  0  0
    0.0301   -6.3975    0.0000 N   0  0  0  0  0  0  0  0  0  0  0  0
   -1.2935   -6.9360    0.0000 N   0  0  0  0  0  0  0  0  0  0  0  0
   -1.8651   -7.5308    0.0000 C   0  0  0  0  0  0  0  0  0  0  0  0
   -2.6075   -7.1709    0.0000 C   0  0  0  0  0  0  0  0  0  0  0  0
   -2.4946   -6.3537    0.0000 C   0  0  0  0  0  0  0  0  0  0  0  0
   -1.6825   -6.2085    0.0000 C   0  0  0  0  0  0  0  0  0  0  0  0
    0.9628   -8.6900    0.0000 N   0  0  0  0  0  0  0  0  0  0  0  0
    1.7638   -8.8877    0.0000 C   0  0  0  0  0  0  0  0  0  0  0  0
    1.8233   -9.7105    0.0000 C   0  0  0  0  0  0  0  0  0  0  0  0
    1.0591  -10.0214    0.0000 C   0  0  0  0  0  0  0  0  0  0  0  0
    0.5273   -9.3907    0.0000 C   0  0  0  0  0  0  0  0  0  0  0  0
    3.5330   -3.2587    0.0000 C   0  0  0  0  0  0  0  0  0  0  0  0
    6.0489   -2.8566    0.0000 C   0  0  0  0  0  0  0  0  0  0  0  0
  2  1  1  6  0  0  0
  2  3  1  0  0  0  0
  4  3  1  1  0  0  0
  4  5  1  0  0  0  0
  5  6  1  6  0  0  0
  6  7  1  0  0  0  0
  7  8  1  0  0  0  0
  8  9  2  0  0  0  0
  9 10  1  0  0  0  0
 10 11  2  0  0  0  0
 10 12  1  0  0  0  0
 12 13  2  0  0  0  0
 13 14  1  0  0  0  0
  8 14  1  0  0  0  0
 14 15  1  0  0  0  0
  5 15  1  0  0  0  0
 15 16  2  0  0  0  0
 16 17  1  0  0  0  0
 17 18  1  0  0  0  0
  4 18  1  0  0  0  0
 18 19  1  0  0  0  0
  2 19  1  0  0  0  0
 19 20  1  1  0  0  0
 20 21  2  0  0  0  0
 20 22  1  0  0  0  0
 22 23  1  0  0  0  0
 23 24  1  0  0  0  0
 24 25  1  0  0  0  0
 25 26  1  0  0  0  0
 26 27  1  0  0  0  0
 27 28  1  0  0  0  0
 23 28  1  0  0  0  0
 26 29  1  0  0  0  0
 29 30  2  0  0  0  0
 30 31  1  0  0  0  0
 31 32  2  0  0  0  0
 32 33  1  0  0  0  0
 33 34  2  0  0  0  0
 29 34  1  0  0  0  0
 33 35  1  0  0  0  0
 35 36  1  0  0  0  0
 36 37  1  0  0  0  0
 37 38  1  0  0  0  0
 38 39  1  0  0  0  0
 35 39  1  0  0  0  0
 31 40  1  0  0  0  0
 40 41  1  0  0  0  0
 41 42  1  0  0  0  0
 42 43  1  0  0  0  0
 43 44  1  0  0  0  0
 40 44  1  0  0  0  0
 18 45  1  1  0  0  0
 14 46  1  1  0  0  0
M  END
> <DATABASE_ID>
DB13050

> <DATABASE_NAME>
drugbank

> <SMILES>
C[C@@H]1C[C@H]2[C@@H]3CCC4=CC(=O)C=C[C@]4(C)C3=CC[C@]2(C)[C@H]1C(=O)CN1CCN(CC1)C1=CC(=NC(=N1)N1CCCC1)N1CCCC1

> <INCHI_IDENTIFIER>
InChI=1S/C38H52N6O2/c1-26-22-31-29-9-8-27-23-28(45)10-12-37(27,2)30(29)11-13-38(31,3)35(26)32(46)25-41-18-20-43(21-19-41)34-24-33(42-14-4-5-15-42)39-36(40-34)44-16-6-7-17-44/h10-12,23-24,26,29,31,35H,4-9,13-22,25H2,1-3H3/t26-,29-,31+,35-,37+,38+/m1/s1

> <INCHI_KEY>
RBKASMJPSJDQKY-RBFSKHHSSA-N

> <FORMULA>
C38H52N6O2

> <MOLECULAR_WEIGHT>
624.874

> <EXACT_MASS>
624.415174938

> <JCHEM_ACCEPTOR_COUNT>
8

> <JCHEM_ATOM_COUNT>
98

> <JCHEM_AVERAGE_POLARIZABILITY>
73.64610353951485

> <JCHEM_BIOAVAILABILITY>
0

> <JCHEM_DONOR_COUNT>
0

> <JCHEM_FORMAL_CHARGE>
0

> <JCHEM_GHOSE_FILTER>
0

> <JCHEM_IUPAC>
(2S,10S,11S,13R,14S,15S)-14-(2-{4-[2,6-bis(pyrrolidin-1-yl)pyrimidin-4-yl]piperazin-1-yl}acetyl)-2,13,15-trimethyltetracyclo[8.7.0.0^{2,7}.0^{11,15}]heptadeca-1(17),3,6-trien-5-one

> <ALOGPS_LOGP>
5.45

> <JCHEM_LOGP>
6.629479154333336

> <ALOGPS_LOGS>
-3.91

> <JCHEM_MDDR_LIKE_RULE>
1

> <JCHEM_NUMBER_OF_RINGS>
8

> <JCHEM_PHYSIOLOGICAL_CHARGE>
0

> <JCHEM_PKA>
19.227940935359722

> <JCHEM_PKA_STRONGEST_ACIDIC>
18.263302100930282

> <JCHEM_PKA_STRONGEST_BASIC>
6.58657000260419

> <JCHEM_POLAR_SURFACE_AREA>
72.88

> <JCHEM_REFRACTIVITY>
190.35129999999995

> <JCHEM_ROTATABLE_BOND_COUNT>
6

> <JCHEM_RULE_OF_FIVE>
0

> <ALOGPS_SOLUBILITY>
7.73e-02 g/l

> <JCHEM_TRADITIONAL_IUPAC>
(2S,10S,11S,13R,14S,15S)-14-(2-{4-[2,6-bis(pyrrolidin-1-yl)pyrimidin-4-yl]piperazin-1-yl}acetyl)-2,13,15-trimethyltetracyclo[8.7.0.0^{2,7}.0^{11,15}]heptadeca-1(17),3,6-trien-5-one

> <JCHEM_VEBER_RULE>
0

> <DRUGBANK_ID>
DB13050

> <DRUG_GROUPS>
investigational

> <GENERIC_NAME>
Tirilazad

> <SYNONYMS>
Tirilazad

$$$$
