
  Mrv1909 05201914552D          

 43 46  0  0  1  0            999 V2000
    2.1434    2.8875    0.0000 C   0  0  0  0  0  0  0  0  0  0  0  0
    2.8579    3.3000    0.0000 C   0  0  0  0  0  0  0  0  0  0  0  0
    3.5724    2.8875    0.0000 C   0  0  0  0  0  0  0  0  0  0  0  0
    4.2868    3.3000    0.0000 C   0  0  0  0  0  0  0  0  0  0  0  0
    5.0013    2.8875    0.0000 O   0  0  0  0  0  0  0  0  0  0  0  0
    5.7158    3.3000    0.0000 C   0  0  0  0  0  0  0  0  0  0  0  0
    5.7158    4.1250    0.0000 O   0  0  0  0  0  0  0  0  0  0  0  0
    6.4302    2.8875    0.0000 N   0  0  0  0  0  0  0  0  0  0  0  0
    7.1447    3.3000    0.0000 C   0  0  0  0  0  0  0  0  0  0  0  0
    7.8592    2.8875    0.0000 C   0  0  0  0  0  0  0  0  0  0  0  0
    7.8592    2.0625    0.0000 N   0  0  0  0  0  0  0  0  0  0  0  0
    7.1447    1.6500    0.0000 C   0  0  0  0  0  0  0  0  0  0  0  0
    6.4302    2.0625    0.0000 C   0  0  0  0  0  0  0  0  0  0  0  0
    8.5737    1.6500    0.0000 C   0  0  0  0  0  0  0  0  0  0  0  0
    9.2881    2.0625    0.0000 O   0  0  0  0  0  0  0  0  0  0  0  0
    8.5737    0.8250    0.0000 C   0  0  2  0  0  0  0  0  0  0  0  0
    9.2881    0.4125    0.0000 C   0  0  0  0  0  0  0  0  0  0  0  0
   10.0026    0.8250    0.0000 P   0  0  0  0  0  0  0  0  0  0  0  0
    9.5901    1.5395    0.0000 O   0  0  0  0  0  0  0  0  0  0  0  0
   10.7171    1.2375    0.0000 O   0  0  0  0  0  0  0  0  0  0  0  0
   10.4151    0.1105    0.0000 O   0  0  0  0  0  0  0  0  0  0  0  0
    7.8592    0.4125    0.0000 N   0  0  0  0  0  0  0  0  0  0  0  0
    7.8592   -0.4125    0.0000 C   0  0  0  0  0  0  0  0  0  0  0  0
    8.5737   -0.8250    0.0000 O   0  0  0  0  0  0  0  0  0  0  0  0
    7.1447   -0.8250    0.0000 C   0  0  0  0  0  0  0  0  0  0  0  0
    7.1447   -1.6500    0.0000 C   0  0  0  0  0  0  0  0  0  0  0  0
    6.4302   -2.0625    0.0000 C   0  0  0  0  0  0  0  0  0  0  0  0
    5.7158   -1.6500    0.0000 N   0  0  0  0  0  0  0  0  0  0  0  0
    5.7158   -0.8250    0.0000 C   0  0  0  0  0  0  0  0  0  0  0  0
    6.4302   -0.4125    0.0000 N   0  0  0  0  0  0  0  0  0  0  0  0
    5.0013   -0.4125    0.0000 C   0  0  0  0  0  0  0  0  0  0  0  0
    4.2868   -0.8250    0.0000 C   0  0  0  0  0  0  0  0  0  0  0  0
    3.5724   -0.4125    0.0000 C   0  0  0  0  0  0  0  0  0  0  0  0
    3.5724    0.4125    0.0000 C   0  0  0  0  0  0  0  0  0  0  0  0
    4.2868    0.8250    0.0000 C   0  0  0  0  0  0  0  0  0  0  0  0
    5.0013    0.4125    0.0000 C   0  0  0  0  0  0  0  0  0  0  0  0
    6.4302   -2.8875    0.0000 N   0  0  0  0  0  0  0  0  0  0  0  0
    7.0977   -3.3724    0.0000 C   0  0  0  0  0  0  0  0  0  0  0  0
    6.8427   -4.1570    0.0000 C   0  0  0  0  0  0  0  0  0  0  0  0
    6.0177   -4.1570    0.0000 C   0  0  1  0  0  0  0  0  0  0  0  0
    5.7628   -3.3724    0.0000 C   0  0  0  0  0  0  0  0  0  0  0  0
    5.5328   -4.8245    0.0000 O   0  0  0  0  0  0  0  0  0  0  0  0
    5.8684   -5.5782    0.0000 C   0  0  0  0  0  0  0  0  0  0  0  0
  1  2  1  0  0  0  0
  2  3  1  0  0  0  0
  3  4  1  0  0  0  0
  4  5  1  0  0  0  0
  5  6  1  0  0  0  0
  6  7  2  0  0  0  0
  6  8  1  0  0  0  0
  8  9  1  0  0  0  0
  9 10  1  0  0  0  0
 10 11  1  0  0  0  0
 11 12  1  0  0  0  0
 12 13  1  0  0  0  0
  8 13  1  0  0  0  0
 11 14  1  0  0  0  0
 14 15  2  0  0  0  0
 16 14  1  0  0  0  0
 16 17  1  0  0  0  0
 17 18  1  0  0  0  0
 18 19  1  0  0  0  0
 18 20  1  0  0  0  0
 18 21  2  0  0  0  0
 16 22  1  6  0  0  0
 22 23  1  0  0  0  0
 23 24  2  0  0  0  0
 23 25  1  0  0  0  0
 25 26  2  0  0  0  0
 26 27  1  0  0  0  0
 27 28  2  0  0  0  0
 28 29  1  0  0  0  0
 29 30  2  0  0  0  0
 25 30  1  0  0  0  0
 29 31  1  0  0  0  0
 31 32  2  0  0  0  0
 32 33  1  0  0  0  0
 33 34  2  0  0  0  0
 34 35  1  0  0  0  0
 35 36  2  0  0  0  0
 31 36  1  0  0  0  0
 27 37  1  0  0  0  0
 37 38  1  0  0  0  0
 38 39  1  0  0  0  0
 40 39  1  0  0  0  0
 40 41  1  0  0  0  0
 37 41  1  0  0  0  0
 40 42  1  6  0  0  0
 42 43  1  0  0  0  0
M  END
> <DATABASE_ID>
DB15163

> <DATABASE_NAME>
drugbank

> <SMILES>
CCCCOC(=O)N1CCN(CC1)C(=O)[C@H](CP(O)(O)=O)NC(=O)C1=CC(=NC(=N1)C1=CC=CC=C1)N1CC[C@@H](C1)OC

> <INCHI_IDENTIFIER>
InChI=1S/C28H39N6O8P/c1-3-4-16-42-28(37)33-14-12-32(13-15-33)27(36)23(19-43(38,39)40)30-26(35)22-17-24(34-11-10-21(18-34)41-2)31-25(29-22)20-8-6-5-7-9-20/h5-9,17,21,23H,3-4,10-16,18-19H2,1-2H3,(H,30,35)(H2,38,39,40)/t21-,23-/m0/s1

> <INCHI_KEY>
FYXHWMQPCJOJCH-GMAHTHKFSA-N

> <FORMULA>
C28H39N6O8P

> <MOLECULAR_WEIGHT>
618.628

> <EXACT_MASS>
618.256699238

> <JCHEM_ACCEPTOR_COUNT>
10

> <JCHEM_ATOM_COUNT>
82

> <JCHEM_AVERAGE_POLARIZABILITY>
63.931239731510814

> <JCHEM_BIOAVAILABILITY>
0

> <JCHEM_DONOR_COUNT>
3

> <JCHEM_FORMAL_CHARGE>
0

> <JCHEM_GHOSE_FILTER>
0

> <JCHEM_IUPAC>
[(2R)-3-[4-(butoxycarbonyl)piperazin-1-yl]-2-({6-[(3S)-3-methoxypyrrolidin-1-yl]-2-phenylpyrimidin-4-yl}formamido)-3-oxopropyl]phosphonic acid

> <ALOGPS_LOGP>
1.37

> <JCHEM_LOGP>
-0.5226933000696473

> <ALOGPS_LOGS>
-3.30

> <JCHEM_MDDR_LIKE_RULE>
1

> <JCHEM_NUMBER_OF_RINGS>
4

> <JCHEM_PHYSIOLOGICAL_CHARGE>
-1

> <JCHEM_PKA>
8.263947498920295

> <JCHEM_PKA_STRONGEST_ACIDIC>
1.7690897959717746

> <JCHEM_PKA_STRONGEST_BASIC>
3.6807340057019005

> <JCHEM_POLAR_SURFACE_AREA>
174.73

> <JCHEM_REFRACTIVITY>
168.68549999999996

> <JCHEM_ROTATABLE_BOND_COUNT>
12

> <JCHEM_RULE_OF_FIVE>
0

> <ALOGPS_SOLUBILITY>
3.09e-01 g/l

> <JCHEM_TRADITIONAL_IUPAC>
(2R)-14-fluoro-2-methyl-6,9,10,19-tetraazapentacyclo[14.2.1.0^{2,6}.0^{8,18}.0^{12,17}]nonadeca-1(18),8,12(17),13,15-pentaen-11-one

> <JCHEM_VEBER_RULE>
0

> <DRUGBANK_ID>
DB15163

> <DRUG_GROUPS>
investigational

> <GENERIC_NAME>
Selatogrel

> <SYNONYMS>
ACT-246475; Selatogrel

$$$$
