
  Mrv1902 02051922172D          

 62 63  0  0  0  0            999 V2000
   -2.1433   -0.6174    0.0000 C   0  0  0  0  0  0  0  0  0  0  0  0
   -2.8574   -1.0305    0.0000 C   0  0  0  0  0  0  0  0  0  0  0  0
   -3.5715   -0.6174    0.0000 C   0  0  0  0  0  0  0  0  0  0  0  0
   -3.5715    0.2089    0.0000 C   0  0  0  0  0  0  0  0  0  0  0  0
   -2.8574    0.6176    0.0000 C   0  0  0  0  0  0  0  0  0  0  0  0
   -2.1433    0.2089    0.0000 C   0  0  0  0  0  0  0  0  0  0  0  0
   -1.4292    0.6176    0.0000 I   0  0  0  0  0  0  0  0  0  0  0  0
   -2.8574    1.4440    0.0000 C   0  0  0  0  0  0  0  0  0  0  0  0
   -3.5715    1.8572    0.0000 N   0  0  0  0  0  0  0  0  0  0  0  0
   -3.5715    2.6835    0.0000 C   0  0  0  0  0  0  0  0  0  0  0  0
   -4.2856    3.0967    0.0000 C   0  0  0  0  0  0  0  0  0  0  0  0
   -4.2856    3.9184    0.0000 C   0  0  0  0  0  0  0  0  0  0  0  0
   -4.9997    4.3318    0.0000 O   0  0  0  0  0  0  0  0  0  0  0  0
   -4.9997    2.6835    0.0000 O   0  0  0  0  0  0  0  0  0  0  0  0
   -2.1433    1.8572    0.0000 O   0  0  0  0  0  0  0  0  0  0  0  0
   -4.2856    0.6176    0.0000 I   0  0  0  0  0  0  0  0  0  0  0  0
   -4.2856   -1.0305    0.0000 C   0  0  0  0  0  0  0  0  0  0  0  0
   -4.9997   -0.6173    0.0000 O   0  0  0  0  0  0  0  0  0  0  0  0
   -2.8574   -1.8569    0.0000 I   0  0  0  0  0  0  0  0  0  0  0  0
   -1.4292   -1.0305    0.0000 N   0  0  0  0  0  0  0  0  0  0  0  0
   -0.7151   -0.6174    0.0000 C   0  0  0  0  0  0  0  0  0  0  0  0
    0.0033   -1.0305    0.0000 C   0  0  0  0  0  0  0  0  0  0  0  0
    0.7173   -0.6174    0.0000 C   0  0  0  0  0  0  0  0  0  0  0  0
    1.4314   -1.0305    0.0000 N   0  0  0  0  0  0  0  0  0  0  0  0
    2.1456   -0.6174    0.0000 C   0  0  0  0  0  0  0  0  0  0  0  0
    2.1456    0.2089    0.0000 C   0  0  0  0  0  0  0  0  0  0  0  0
    2.8597    0.6176    0.0000 C   0  0  0  0  0  0  0  0  0  0  0  0
    3.5738    0.2089    0.0000 C   0  0  0  0  0  0  0  0  0  0  0  0
    3.5738   -0.6174    0.0000 C   0  0  0  0  0  0  0  0  0  0  0  0
    2.8597   -1.0305    0.0000 C   0  0  0  0  0  0  0  0  0  0  0  0
    2.8597   -1.8569    0.0000 I   0  0  0  0  0  0  0  0  0  0  0  0
    4.2879   -1.0305    0.0000 C   0  0  0  0  0  0  0  0  0  0  0  0
    4.2879    0.6176    0.0000 I   0  0  0  0  0  0  0  0  0  0  0  0
    2.8597    1.4440    0.0000 C   0  0  0  0  0  0  0  0  0  0  0  0
    3.5738    1.8572    0.0000 N   0  0  0  0  0  0  0  0  0  0  0  0
    3.5738    2.6835    0.0000 C   0  0  0  0  0  0  0  0  0  0  0  0
    4.2879    3.0967    0.0000 C   0  0  0  0  0  0  0  0  0  0  0  0
    4.2879    3.9184    0.0000 C   0  0  0  0  0  0  0  0  0  0  0  0
    5.0019    4.3318    0.0000 O   0  0  0  0  0  0  0  0  0  0  0  0
    5.0019    2.6835    0.0000 O   0  0  0  0  0  0  0  0  0  0  0  0
    2.1456    1.8572    0.0000 O   0  0  0  0  0  0  0  0  0  0  0  0
    1.4314    0.6176    0.0000 I   0  0  0  0  0  0  0  0  0  0  0  0
    1.4314   -1.8569    0.0000 C   0  0  0  0  0  0  0  0  0  0  0  0
    0.7173   -2.2657    0.0000 O   0  0  0  0  0  0  0  0  0  0  0  0
    2.1456   -2.2657    0.0000 C   0  0  0  0  0  0  0  0  0  0  0  0
    0.0033   -1.8569    0.0000 O   0  0  0  0  0  0  0  0  0  0  0  0
   -1.4292   -1.8569    0.0000 C   0  0  0  0  0  0  0  0  0  0  0  0
   -0.7151   -2.2657    0.0000 O   0  0  0  0  0  0  0  0  0  0  0  0
   -2.1433   -2.2657    0.0000 C   0  0  0  0  0  0  0  0  0  0  0  0
   -4.2856   -1.8555    0.0000 N   0  0  0  0  0  0  0  0  0  0  0  0
   -5.0001   -2.2681    0.0000 C   0  0  0  0  0  0  0  0  0  0  0  0
   -5.0001   -3.0930    0.0000 C   0  0  0  0  0  0  0  0  0  0  0  0
   -5.7147   -3.5056    0.0000 C   0  0  0  0  0  0  0  0  0  0  0  0
   -4.2857   -3.5056    0.0000 O   0  0  0  0  0  0  0  0  0  0  0  0
   -5.7147   -4.3305    0.0000 O   0  0  0  0  0  0  0  0  0  0  0  0
    4.2872   -1.8555    0.0000 N   0  0  0  0  0  0  0  0  0  0  0  0
    5.0027   -0.6186    0.0000 O   0  0  0  0  0  0  0  0  0  0  0  0
    5.0013   -2.2686    0.0000 C   0  0  0  0  0  0  0  0  0  0  0  0
    5.0006   -3.0936    0.0000 C   0  0  0  0  0  0  0  0  0  0  0  0
    5.7147   -3.5068    0.0000 C   0  0  0  0  0  0  0  0  0  0  0  0
    5.7140   -4.3318    0.0000 O   0  0  0  0  0  0  0  0  0  0  0  0
    4.2858   -3.5056    0.0000 O   0  0  0  0  0  0  0  0  0  0  0  0
  1  2  1  0  0  0  0
  2  3  2  0  0  0  0
  3  4  1  0  0  0  0
  5  4  2  0  0  0  0
  6  5  1  0  0  0  0
  1  6  2  0  0  0  0
  6  7  1  0  0  0  0
  5  8  1  0  0  0  0
  8  9  1  0  0  0  0
  9 10  1  0  0  0  0
 10 11  1  0  0  0  0
 11 12  1  0  0  0  0
 12 13  1  0  0  0  0
 11 14  1  0  0  0  0
  8 15  2  0  0  0  0
  4 16  1  0  0  0  0
  3 17  1  0  0  0  0
 17 18  2  0  0  0  0
  2 19  1  0  0  0  0
  1 20  1  0  0  0  0
 20 21  1  0  0  0  0
 21 22  1  0  0  0  0
 22 23  1  0  0  0  0
 23 24  1  0  0  0  0
 24 25  1  0  0  0  0
 25 26  1  0  0  0  0
 26 27  2  0  0  0  0
 27 28  1  0  0  0  0
 29 28  2  0  0  0  0
 30 29  1  0  0  0  0
 25 30  2  0  0  0  0
 30 31  1  0  0  0  0
 29 32  1  0  0  0  0
 28 33  1  0  0  0  0
 27 34  1  0  0  0  0
 34 35  1  0  0  0  0
 35 36  1  0  0  0  0
 36 37  1  0  0  0  0
 37 38  1  0  0  0  0
 38 39  1  0  0  0  0
 37 40  1  0  0  0  0
 34 41  2  0  0  0  0
 26 42  1  0  0  0  0
 24 43  1  0  0  0  0
 43 44  2  0  0  0  0
 43 45  1  0  0  0  0
 22 46  1  0  0  0  0
 20 47  1  0  0  0  0
 47 48  2  0  0  0  0
 47 49  1  0  0  0  0
 17 50  1  0  0  0  0
 50 51  1  0  0  0  0
 51 52  1  0  0  0  0
 52 53  1  0  0  0  0
 52 54  1  0  0  0  0
 53 55  1  0  0  0  0
 32 56  1  0  0  0  0
 32 57  2  0  0  0  0
 56 58  1  0  0  0  0
 58 59  1  0  0  0  0
 59 60  1  0  0  0  0
 60 61  1  0  0  0  0
 59 62  1  0  0  0  0
M  END
> <DATABASE_ID>
DB01249

> <DATABASE_NAME>
drugbank

> <SMILES>
CC(=O)N(CC(O)CN(C(C)=O)C1=C(I)C(C(=O)NCC(O)CO)=C(I)C(C(=O)NCC(O)CO)=C1I)C1=C(I)C(C(=O)NCC(O)CO)=C(I)C(C(=O)NCC(O)CO)=C1I

> <INCHI_IDENTIFIER>
InChI=1S/C35H44I6N6O15/c1-13(52)46(30-26(38)20(32(59)42-3-15(54)9-48)24(36)21(27(30)39)33(60)43-4-16(55)10-49)7-19(58)8-47(14(2)53)31-28(40)22(34(61)44-5-17(56)11-50)25(37)23(29(31)41)35(62)45-6-18(57)12-51/h15-19,48-51,54-58H,3-12H2,1-2H3,(H,42,59)(H,43,60)(H,44,61)(H,45,62)

> <INCHI_KEY>
NBQNWMBBSKPBAY-UHFFFAOYSA-N

> <FORMULA>
C35H44I6N6O15

> <MOLECULAR_WEIGHT>
1550.1819

> <EXACT_MASS>
1549.713275288

> <JCHEM_ACCEPTOR_COUNT>
15

> <JCHEM_ATOM_COUNT>
106

> <JCHEM_AVERAGE_POLARIZABILITY>
111.5599208837644

> <JCHEM_BIOAVAILABILITY>
0

> <JCHEM_DONOR_COUNT>
13

> <JCHEM_FORMAL_CHARGE>
0

> <JCHEM_GHOSE_FILTER>
0

> <JCHEM_IUPAC>
5-{N-[3-(N-{3,5-bis[(2,3-dihydroxypropyl)carbamoyl]-2,4,6-triiodophenyl}acetamido)-2-hydroxypropyl]acetamido}-N1,N3-bis(2,3-dihydroxypropyl)-2,4,6-triiodobenzene-1,3-dicarboxamide

> <ALOGPS_LOGP>
-2.91

> <JCHEM_LOGP>
-2.0626308873333334

> <ALOGPS_LOGS>
-3.92

> <JCHEM_MDDR_LIKE_RULE>
0

> <JCHEM_NUMBER_OF_RINGS>
2

> <JCHEM_PHYSIOLOGICAL_CHARGE>
0

> <JCHEM_PKA>
11.944537855828374

> <JCHEM_PKA_STRONGEST_ACIDIC>
11.43394900991981

> <JCHEM_PKA_STRONGEST_BASIC>
-3.193473073108399

> <JCHEM_POLAR_SURFACE_AREA>
339.08999999999986

> <JCHEM_REFRACTIVITY>
277.1618999999999

> <JCHEM_ROTATABLE_BOND_COUNT>
22

> <JCHEM_RULE_OF_FIVE>
0

> <ALOGPS_SOLUBILITY>
1.85e-01 g/l

> <JCHEM_TRADITIONAL_IUPAC>
iodixanol

> <JCHEM_VEBER_RULE>
0

> <DRUGBANK_ID>
DB01249

> <DRUG_GROUPS>
approved

> <GENERIC_NAME>
Iodixanol

> <SYNONYMS>
5,5'-((2-hydroxytrimethylene)bis(acetylimino))bis(N,N'-bis(2,3-dihydroxypropyl)-2,4,6-triiodoisophthalamide); Indixanol; Iodixanol; Iodixanolum

> <PRODUCTS>
Iodixanol; Visipaque; Visipaque 270; Visipaque 320

> <INTERNATIONAL_BRANDS>
Visipaque; Visipaque 270; Visipaque 320

$$$$
