
  Mrv1572001261617282D          

 18 18  0  0  0  0            999 V2000
    0.0000    4.9500    0.0000 C   0  0  0  0  0  0  0  0  0  0  0  0
    1.2375    4.0145    0.0000 C   0  0  0  0  0  0  0  0  0  0  0  0
   -0.8250    3.3000    0.0000 C   0  0  0  0  0  0  0  0  0  0  0  0
    0.0000    4.1250    0.0000 C   0  0  0  0  0  0  0  0  0  0  0  0
    0.8250    3.3000    0.0000 C   0  0  0  0  0  0  0  0  0  0  0  0
    0.7145   -0.4125    0.0000 C   0  0  0  0  0  0  0  0  0  0  0  0
    1.4289    0.0000    0.0000 C   0  0  0  0  0  0  0  0  0  0  0  0
   -0.0000    0.0000    0.0000 C   0  0  0  0  0  0  0  0  0  0  0  0
    1.4289    0.8250    0.0000 C   0  0  0  0  0  0  0  0  0  0  0  0
    0.0000    0.8250    0.0000 C   0  0  0  0  0  0  0  0  0  0  0  0
    0.7145    1.2375    0.0000 C   0  0  0  0  0  0  0  0  0  0  0  0
   -0.7145    1.2375    0.0000 C   0  0  0  0  0  0  0  0  0  0  0  0
    0.7145    2.0625    0.0000 C   0  0  0  0  0  0  0  0  0  0  0  0
    0.0000    3.3000    0.0000 C   0  0  0  0  0  0  0  0  0  0  0  0
   -0.7145    2.0625    0.0000 O   0  0  0  0  0  0  0  0  0  0  0  0
   -1.4289    0.8250    0.0000 O   0  0  0  0  0  0  0  0  0  0  0  0
    1.4289    2.4750    0.0000 O   0  0  0  0  0  0  0  0  0  0  0  0
    0.0000    2.4750    0.0000 O   0  0  0  0  0  0  0  0  0  0  0  0
  4  1  3  0  0  0  0
  5  2  1  0  0  0  0
  7  6  2  0  0  0  0
  8  6  1  0  0  0  0
  9  7  1  0  0  0  0
 10  8  2  0  0  0  0
 11  9  2  0  0  0  0
 11 10  1  0  0  0  0
 12 10  1  0  0  0  0
 13 11  1  0  0  0  0
 14  3  1  0  0  0  0
 14  4  1  0  0  0  0
 14  5  1  0  0  0  0
 15 12  2  0  0  0  0
 16 12  1  0  0  0  0
 17 13  2  0  0  0  0
 18 13  1  0  0  0  0
 18 14  1  0  0  0  0
M  END
> <DATABASE_ID>
DB11449

> <DATABASE_NAME>
drugbank

> <SMILES>
CCC(C)(OC(=O)C1=CC=CC=C1C(O)=O)C#C

> <INCHI_IDENTIFIER>
InChI=1S/C14H14O4/c1-4-14(3,5-2)18-13(17)11-9-7-6-8-10(11)12(15)16/h1,6-9H,5H2,2-3H3,(H,15,16)

> <INCHI_KEY>
CZGIRAWWWHPJHM-UHFFFAOYSA-N

> <FORMULA>
C14H14O4

> <MOLECULAR_WEIGHT>
246.262

> <EXACT_MASS>
246.089208931

> <JCHEM_ACCEPTOR_COUNT>
3

> <JCHEM_ATOM_COUNT>
32

> <JCHEM_AVERAGE_POLARIZABILITY>
25.388151960778735

> <JCHEM_BIOAVAILABILITY>
1

> <JCHEM_DONOR_COUNT>
1

> <JCHEM_FORMAL_CHARGE>
0

> <JCHEM_GHOSE_FILTER>
1

> <JCHEM_IUPAC>
2-{[(3-methylpent-1-yn-3-yl)oxy]carbonyl}benzoic acid

> <ALOGPS_LOGP>
2.42

> <JCHEM_LOGP>
3.0820628219999993

> <ALOGPS_LOGS>
-4.03

> <JCHEM_MDDR_LIKE_RULE>
0

> <JCHEM_NUMBER_OF_RINGS>
1

> <JCHEM_PHYSIOLOGICAL_CHARGE>
-1

> <JCHEM_PKA_STRONGEST_ACIDIC>
3.0795698990208606

> <JCHEM_PKA_STRONGEST_BASIC>
-6.999954905497152

> <JCHEM_POLAR_SURFACE_AREA>
63.599999999999994

> <JCHEM_REFRACTIVITY>
66.50070000000001

> <JCHEM_ROTATABLE_BOND_COUNT>
5

> <JCHEM_RULE_OF_FIVE>
1

> <ALOGPS_SOLUBILITY>
2.32e-02 g/l

> <JCHEM_TRADITIONAL_IUPAC>
phthalofyne

> <JCHEM_VEBER_RULE>
0

> <DRUGBANK_ID>
DB11449

> <DRUG_GROUPS>
experimental; vet_approved

> <GENERIC_NAME>
Phthalofyne

> <SYNONYMS>
Ftalofino; Ftalofyne; Ftalofynum; Phthalofyne

$$$$
