
  Mrv1572004221603082D          

 26 27  0  0  0  0            999 V2000
   -0.7145    2.8875    0.0000 C   0  0  0  0  0  0  0  0  0  0  0  0
   -0.7145    1.2375    0.0000 C   0  0  0  0  0  0  0  0  0  0  0  0
    2.1434    2.8875    0.0000 C   0  0  0  0  0  0  0  0  0  0  0  0
    2.1434   -1.2375    0.0000 C   0  0  0  0  0  0  0  0  0  0  0  0
    4.2868    1.6500    0.0000 C   0  0  0  0  0  0  0  0  0  0  0  0
    2.8579   -0.8250    0.0000 C   0  0  0  0  0  0  0  0  0  0  0  0
    1.4289   -0.8250    0.0000 C   0  0  0  0  0  0  0  0  0  0  0  0
    3.5724    1.2375    0.0000 C   0  0  0  0  0  0  0  0  0  0  0  0
    5.0013    1.2375    0.0000 C   0  0  0  0  0  0  0  0  0  0  0  0
    2.8579    0.0000    0.0000 C   0  0  0  0  0  0  0  0  0  0  0  0
    1.4289    0.0000    0.0000 C   0  0  0  0  0  0  0  0  0  0  0  0
    2.8579    1.6500    0.0000 C   0  0  0  0  0  0  0  0  0  0  0  0
    5.7158    1.6500    0.0000 C   0  0  0  0  0  0  0  0  0  0  0  0
    0.0000    2.4750    0.0000 C   0  0  0  0  0  0  0  0  0  0  0  0
   -0.0000    1.6500    0.0000 C   0  0  0  0  0  0  0  0  0  0  0  0
    1.4289    2.4750    0.0000 C   0  0  0  0  0  0  0  0  0  0  0  0
    2.1434    0.4125    0.0000 C   0  0  0  0  0  0  0  0  0  0  0  0
    2.1434    1.2375    0.0000 C   0  0  0  0  0  0  0  0  0  0  0  0
    6.4302    1.2375    0.0000 C   0  0  0  0  0  0  0  0  0  0  0  0
    1.4289    1.6500    0.0000 C   0  0  0  0  0  0  0  0  0  0  0  0
    0.7145    2.8875    0.0000 C   0  0  0  0  0  0  0  0  0  0  0  0
    0.7145    1.2375    0.0000 C   0  0  0  0  0  0  0  0  0  0  0  0
    7.1447    1.6500    0.0000 O   0  0  0  0  0  0  0  0  0  0  0  0
    6.4302    0.4125    0.0000 O   0  0  0  0  0  0  0  0  0  0  0  0
    0.7145    3.7125    0.0000 O   0  0  0  0  0  0  0  0  0  0  0  0
    0.7145    0.4125    0.0000 O   0  0  0  0  0  0  0  0  0  0  0  0
  6  4  2  0  0  0  0
  7  4  1  0  0  0  0
  8  5  1  0  0  0  0
  9  5  1  0  0  0  0
 10  6  1  0  0  0  0
 11  7  2  0  0  0  0
 12  8  1  0  0  0  0
 13  9  1  0  0  0  0
 14  1  1  0  0  0  0
 15  2  1  0  0  0  0
 15 14  2  0  0  0  0
 16  3  1  0  0  0  0
 17 10  2  0  0  0  0
 17 11  1  0  0  0  0
 18 12  1  0  0  0  0
 18 17  1  0  0  0  0
 19 13  1  0  0  0  0
 20 16  2  0  0  0  0
 20 18  1  0  0  0  0
 21 14  1  0  0  0  0
 21 16  1  0  0  0  0
 22 15  1  0  0  0  0
 22 20  1  0  0  0  0
 23 19  2  0  0  0  0
 24 19  1  0  0  0  0
 25 21  2  0  0  0  0
 26 22  2  0  0  0  0
M  END
> <DATABASE_ID>
DB06739

> <DATABASE_NAME>
drugbank

> <SMILES>
CC1=C(C)C(=O)C(C(CCCCCC(O)=O)C2=CC=CC=C2)=C(C)C1=O

> <INCHI_IDENTIFIER>
InChI=1S/C22H26O4/c1-14-15(2)22(26)20(16(3)21(14)25)18(17-10-6-4-7-11-17)12-8-5-9-13-19(23)24/h4,6-7,10-11,18H,5,8-9,12-13H2,1-3H3,(H,23,24)

> <INCHI_KEY>
ZBVKEHDGYSLCCC-UHFFFAOYSA-N

> <FORMULA>
C22H26O4

> <MOLECULAR_WEIGHT>
354.446

> <EXACT_MASS>
354.183109317

> <JCHEM_ACCEPTOR_COUNT>
4

> <JCHEM_ATOM_COUNT>
52

> <JCHEM_AVERAGE_POLARIZABILITY>
39.76601414894483

> <JCHEM_BIOAVAILABILITY>
1

> <JCHEM_DONOR_COUNT>
1

> <JCHEM_FORMAL_CHARGE>
0

> <JCHEM_GHOSE_FILTER>
1

> <JCHEM_IUPAC>
7-phenyl-7-(2,4,5-trimethyl-3,6-dioxocyclohexa-1,4-dien-1-yl)heptanoic acid

> <ALOGPS_LOGP>
3.35

> <JCHEM_LOGP>
5.374309062666667

> <ALOGPS_LOGS>
-4.99

> <JCHEM_MDDR_LIKE_RULE>
0

> <JCHEM_NUMBER_OF_RINGS>
2

> <JCHEM_PHYSIOLOGICAL_CHARGE>
-1

> <JCHEM_PKA_STRONGEST_ACIDIC>
4.300119375364979

> <JCHEM_PKA_STRONGEST_BASIC>
-7.910929003137934

> <JCHEM_POLAR_SURFACE_AREA>
71.44

> <JCHEM_REFRACTIVITY>
102.37219999999996

> <JCHEM_ROTATABLE_BOND_COUNT>
8

> <JCHEM_RULE_OF_FIVE>
0

> <ALOGPS_SOLUBILITY>
3.59e-03 g/l

> <JCHEM_TRADITIONAL_IUPAC>
seratrodast

> <JCHEM_VEBER_RULE>
0

> <DRUGBANK_ID>
DB06739

> <DRUG_GROUPS>
experimental

> <GENERIC_NAME>
Seratrodast

> <SYNONYMS>
Seratrodast

> <INTERNATIONAL_BRANDS>
Bronica

$$$$
