
  Mrv1909 11201903242D          

 77 79  0  0  0  0            999 V2000
   -4.3485    2.8170    0.0000 O   0  0  0  0  0  0  0  0  0  0  0  0
   -3.2749    4.9965    0.0000 O   0  0  0  0  0  0  0  0  0  0  0  0
   -3.6340   -0.0705    0.0000 O   0  0  0  0  0  0  0  0  0  0  0  0
   -0.7761   -0.8955    0.0000 O   0  0  0  0  0  0  0  0  0  0  0  0
   -5.2857    5.8456    0.0000 O   0  0  0  0  0  0  0  0  0  0  0  0
   -3.8880    5.5485    0.0000 O   0  0  0  0  0  0  0  0  0  0  0  0
   -0.0615   -1.3080    0.0000 O   0  0  0  0  0  0  0  0  0  0  0  0
    2.0818   -3.3706    0.0000 O   0  0  0  0  0  0  0  0  0  0  0  0
   -2.2050   -5.8456    0.0000 O   0  0  0  0  0  0  0  0  0  0  0  0
    4.2252   -1.3080    0.0000 O   0  0  0  0  0  0  0  0  0  0  0  0
   -2.9195    2.8170    0.0000 N   0  0  0  0  0  0  0  0  0  0  0  0
   -2.9195    1.1669    0.0000 N   0  0  0  0  0  0  0  0  0  0  0  0
   -4.2310    3.9345    0.0000 N   0  0  0  0  0  0  0  0  0  0  0  0
   -2.2050   -0.8955    0.0000 N   0  0  0  0  0  0  0  0  0  0  0  0
   -5.8167    1.2438    0.0000 N   0  0  0  0  0  0  0  0  0  0  0  0
   -0.7761   -2.5455    0.0000 N   0  0  0  0  0  0  0  0  0  0  0  0
    1.3673   -2.1330    0.0000 N   0  0  0  0  0  0  0  0  0  0  0  0
   -5.9562    2.5714    0.0000 N   0  0  0  0  0  0  0  0  0  0  0  0
    3.5108   -2.5455    0.0000 N   0  0  0  0  0  0  0  0  0  0  0  0
    4.2252    0.3419    0.0000 N   0  0  0  0  0  0  0  0  0  0  0  0
    5.6543   -2.1330    0.0000 N   0  0  0  0  0  0  0  0  0  0  0  0
    3.5108    1.5794    0.0000 N   0  0  0  0  0  0  0  0  0  0  0  0
    4.9397    1.5794    0.0000 N   0  0  0  0  0  0  0  0  0  0  0  0
   -2.8333    3.6375    0.0000 C   0  0  1  0  0  0  0  0  0  0  0  0
   -2.0263    3.8090    0.0000 C   0  0  0  0  0  0  0  0  0  0  0  0
   -1.6138    3.0945    0.0000 C   0  0  0  0  0  0  0  0  0  0  0  0
   -2.1658    2.4814    0.0000 C   0  0  0  0  0  0  0  0  0  0  0  0
   -3.6340    2.4045    0.0000 C   0  0  0  0  0  0  0  0  0  0  0  0
   -3.6340    1.5794    0.0000 C   0  0  2  0  0  0  0  0  0  0  0  0
   -3.4464    4.1895    0.0000 C   0  0  0  0  0  0  0  0  0  0  0  0
   -4.3485    1.1669    0.0000 C   0  0  0  0  0  0  0  0  0  0  0  0
   -2.2050   -0.0705    0.0000 C   0  0  2  0  0  0  0  0  0  0  0  0
   -2.9195    0.3419    0.0000 C   0  0  0  0  0  0  0  0  0  0  0  0
   -1.4906    0.3419    0.0000 C   0  0  0  0  0  0  0  0  0  0  0  0
   -4.8442    4.4866    0.0000 C   0  0  1  0  0  0  0  0  0  0  0  0
   -5.0630    1.5794    0.0000 C   0  0  0  0  0  0  0  0  0  0  0  0
   -1.4906   -2.1330    0.0000 C   0  0  2  0  0  0  0  0  0  0  0  0
   -1.4906    1.1669    0.0000 C   0  0  0  0  0  0  0  0  0  0  0  0
   -0.7761   -0.0705    0.0000 C   0  0  0  0  0  0  0  0  0  0  0  0
   -5.6288    4.2316    0.0000 C   0  0  0  0  0  0  0  0  0  0  0  0
   -1.4906   -1.3080    0.0000 C   0  0  0  0  0  0  0  0  0  0  0  0
    0.6528   -2.5455    0.0000 C   0  0  1  0  0  0  0  0  0  0  0  0
   -5.1493    2.3999    0.0000 C   0  0  0  0  0  0  0  0  0  0  0  0
   -4.6726    5.2936    0.0000 C   0  0  0  0  0  0  0  0  0  0  0  0
    0.6528   -3.3706    0.0000 C   0  0  0  0  0  0  0  0  0  0  0  0
   -2.2050   -2.5455    0.0000 C   0  0  0  0  0  0  0  0  0  0  0  0
   -0.0615   -2.1330    0.0000 C   0  0  0  0  0  0  0  0  0  0  0  0
   -6.3687    1.8570    0.0000 C   0  0  0  0  0  0  0  0  0  0  0  0
    2.7963   -2.1330    0.0000 C   0  0  2  0  0  0  0  0  0  0  0  0
   -2.2050   -3.3706    0.0000 C   0  0  0  0  0  0  0  0  0  0  0  0
   -0.0615   -3.7831    0.0000 C   0  0  0  0  0  0  0  0  0  0  0  0
    1.3673   -3.7831    0.0000 C   0  0  0  0  0  0  0  0  0  0  0  0
    2.0818   -2.5455    0.0000 C   0  0  0  0  0  0  0  0  0  0  0  0
    2.7963   -1.3080    0.0000 C   0  0  0  0  0  0  0  0  0  0  0  0
    3.5108   -0.8955    0.0000 C   0  0  0  0  0  0  0  0  0  0  0  0
   -1.4906   -3.7831    0.0000 C   0  0  0  0  0  0  0  0  0  0  0  0
   -2.9195   -3.7831    0.0000 C   0  0  0  0  0  0  0  0  0  0  0  0
    3.5108   -0.0705    0.0000 C   0  0  0  0  0  0  0  0  0  0  0  0
   -1.4906   -4.6081    0.0000 C   0  0  0  0  0  0  0  0  0  0  0  0
   -2.9195   -4.6081    0.0000 C   0  0  0  0  0  0  0  0  0  0  0  0
    4.2252   -2.1330    0.0000 C   0  0  0  0  0  0  0  0  0  0  0  0
   -2.2050   -5.0206    0.0000 C   0  0  0  0  0  0  0  0  0  0  0  0
    4.9397   -2.5455    0.0000 C   0  0  0  0  0  0  0  0  0  0  0  0
    4.2252    1.1669    0.0000 C   0  0  0  0  0  0  0  0  0  0  0  0
    6.3687   -2.5455    0.0000 C   0  0  0  0  0  0  0  0  0  0  0  0
   -2.4765    1.4227    0.0000 H   0  0  0  0  0  0  0  0  0  0  0  0
   -4.3374    3.4343    0.0000 H   0  0  0  0  0  0  0  0  0  0  0  0
   -2.6481   -1.1513    0.0000 H   0  0  0  0  0  0  0  0  0  0  0  0
   -5.9230    0.7435    0.0000 H   0  0  0  0  0  0  0  0  0  0  0  0
   -0.7761   -3.0571    0.0000 H   0  0  0  0  0  0  0  0  0  0  0  0
    1.3673   -1.6215    0.0000 H   0  0  0  0  0  0  0  0  0  0  0  0
    3.5108   -3.0571    0.0000 H   0  0  0  0  0  0  0  0  0  0  0  0
    5.6543   -1.6215    0.0000 H   0  0  0  0  0  0  0  0  0  0  0  0
    3.0677    1.3237    0.0000 H   0  0  0  0  0  0  0  0  0  0  0  0
    3.5108    2.0910    0.0000 H   0  0  0  0  0  0  0  0  0  0  0  0
    5.3827    1.3237    0.0000 H   0  0  0  0  0  0  0  0  0  0  0  0
    4.9397    2.0910    0.0000 H   0  0  0  0  0  0  0  0  0  0  0  0
  1 28  2  0  0  0  0
  2 30  2  0  0  0  0
  3 33  2  0  0  0  0
  4 41  2  0  0  0  0
  5 44  1  0  0  0  0
  6 44  2  0  0  0  0
  7 47  2  0  0  0  0
  8 53  2  0  0  0  0
  9 62  1  0  0  0  0
 10 61  2  0  0  0  0
 11 24  1  0  0  0  0
 11 27  1  0  0  0  0
 11 28  1  0  0  0  0
 29 12  1  1  0  0  0
 12 33  1  0  0  0  0
 12 66  1  0  0  0  0
 13 30  1  0  0  0  0
 35 13  1  1  0  0  0
 13 67  1  0  0  0  0
 32 14  1  6  0  0  0
 14 41  1  0  0  0  0
 14 68  1  0  0  0  0
 15 36  1  0  0  0  0
 15 48  1  0  0  0  0
 15 69  1  0  0  0  0
 37 16  1  1  0  0  0
 16 47  1  0  0  0  0
 16 70  1  0  0  0  0
 42 17  1  1  0  0  0
 17 53  1  0  0  0  0
 17 71  1  0  0  0  0
 18 43  1  0  0  0  0
 18 48  2  0  0  0  0
 49 19  1  6  0  0  0
 19 61  1  0  0  0  0
 19 72  1  0  0  0  0
 20 58  1  0  0  0  0
 20 64  2  0  0  0  0
 21 63  1  0  0  0  0
 21 65  1  0  0  0  0
 21 73  1  0  0  0  0
 22 64  1  0  0  0  0
 22 74  1  0  0  0  0
 22 75  1  0  0  0  0
 23 64  1  0  0  0  0
 23 76  1  0  0  0  0
 23 77  1  0  0  0  0
 24 25  1  0  0  0  0
 24 30  1  6  0  0  0
 25 26  1  0  0  0  0
 26 27  1  0  0  0  0
 28 29  1  0  0  0  0
 29 31  1  0  0  0  0
 31 36  1  0  0  0  0
 32 33  1  0  0  0  0
 32 34  1  0  0  0  0
 34 38  1  0  0  0  0
 34 39  1  0  0  0  0
 35 40  1  0  0  0  0
 35 44  1  0  0  0  0
 36 43  2  0  0  0  0
 37 41  1  0  0  0  0
 37 46  1  0  0  0  0
 42 45  1  0  0  0  0
 42 47  1  0  0  0  0
 45 51  1  0  0  0  0
 45 52  1  0  0  0  0
 46 50  1  0  0  0  0
 49 53  1  0  0  0  0
 49 54  1  0  0  0  0
 50 56  2  0  0  0  0
 50 57  1  0  0  0  0
 54 55  1  0  0  0  0
 55 58  1  0  0  0  0
 56 59  1  0  0  0  0
 57 60  2  0  0  0  0
 59 62  2  0  0  0  0
 60 62  1  0  0  0  0
 61 63  1  0  0  0  0
M  END
> <DATABASE_ID>
DB06763

> <DATABASE_NAME>
drugbank

> <SMILES>
[H]N([H])C(=NCCC[C@H](N([H])C(=O)CN([H])C)C(=O)N([H])[C@@H](C(C)C)C(=O)N([H])[C@@H](CC1=CC=C(O)C=C1)C(=O)N([H])[C@@H](C(C)C)C(=O)N([H])[C@@H](CC1=CN=CN1[H])C(=O)N1CCC[C@H]1C(=O)N([H])[C@@H](C)C(O)=O)N([H])[H]

> <INCHI_IDENTIFIER>
InChI=1S/C42H65N13O10/c1-22(2)33(53-35(58)28(50-32(57)20-45-6)9-7-15-47-42(43)44)38(61)51-29(17-25-11-13-27(56)14-12-25)36(59)54-34(23(3)4)39(62)52-30(18-26-19-46-21-48-26)40(63)55-16-8-10-31(55)37(60)49-24(5)41(64)65/h11-14,19,21-24,28-31,33-34,45,56H,7-10,15-18,20H2,1-6H3,(H,46,48)(H,49,60)(H,50,57)(H,51,61)(H,52,62)(H,53,58)(H,54,59)(H,64,65)(H4,43,44,47)/t24-,28-,29-,30-,31-,33-,34-/m0/s1

> <INCHI_KEY>
PFGWGEPQIUAZME-NXSMLHPHSA-N

> <FORMULA>
C42H65N13O10

> <MOLECULAR_WEIGHT>
912.063

> <EXACT_MASS>
911.497735345

> <JCHEM_ACCEPTOR_COUNT>
15

> <JCHEM_ATOM_COUNT>
130

> <JCHEM_AVERAGE_POLARIZABILITY>
94.21215700135872

> <JCHEM_BIOAVAILABILITY>
0

> <JCHEM_DONOR_COUNT>
12

> <JCHEM_FORMAL_CHARGE>
0

> <JCHEM_GHOSE_FILTER>
0

> <JCHEM_IUPAC>
(2S)-2-{[(2S)-1-[(2S)-2-[(2S)-2-[(2S)-2-[(2S)-2-[(2S)-5-[(diaminomethylidene)amino]-2-[2-(methylamino)acetamido]pentanamido]-3-methylbutanamido]-3-(4-hydroxyphenyl)propanamido]-3-methylbutanamido]-3-(1H-imidazol-5-yl)propanoyl]pyrrolidin-2-yl]formamido}propanoic acid

> <ALOGPS_LOGP>
0.27

> <JCHEM_LOGP>
-4.689107169086711

> <ALOGPS_LOGS>
-4.32

> <JCHEM_MDDR_LIKE_RULE>
1

> <JCHEM_NUMBER_OF_RINGS>
3

> <JCHEM_PHYSIOLOGICAL_CHARGE>
2

> <JCHEM_PKA>
9.522462382834496

> <JCHEM_PKA_STRONGEST_ACIDIC>
3.4140317235537734

> <JCHEM_PKA_STRONGEST_BASIC>
10.838318269678723

> <JCHEM_POLAR_SURFACE_AREA>
357.5499999999999

> <JCHEM_REFRACTIVITY>
234.83469999999997

> <JCHEM_ROTATABLE_BOND_COUNT>
25

> <JCHEM_RULE_OF_FIVE>
0

> <ALOGPS_SOLUBILITY>
4.39e-02 g/l

> <JCHEM_TRADITIONAL_IUPAC>
(Z)-N'-cyano-N-(3,3-dimethylbutan-2-yl)-N''-(pyridin-4-yl)guanidine

> <JCHEM_VEBER_RULE>
0

> <DRUGBANK_ID>
DB06763

> <DRUG_GROUPS>
investigational

> <GENERIC_NAME>
Saralasin

> <SYNONYMS>
Saralasin

> <SALTS>
Saralasin acetate

$$$$
