
  Mrv1909 08131921212D          

 63 66  0  0  0  0            999 V2000
    2.8476   -0.5778    0.0000 O   0  0  0  0  0  0  0  0  0  0  0  0
    2.8478   -4.8648    0.0000 O   0  0  0  0  0  0  0  0  0  0  0  0
   -5.8149    0.1366    0.0000 O   0  0  0  0  0  0  0  0  0  0  0  0
    2.8479   -2.0067    0.0000 O   0  0  0  0  0  0  0  0  0  0  0  0
    2.8478   -3.4356    0.0000 O   0  0  0  0  0  0  0  0  0  0  0  0
   -4.5772    0.8512    0.0000 O   0  0  0  0  0  0  0  0  0  0  0  0
   -0.8646   -1.2922    0.0000 N   0  0  0  0  0  0  0  0  0  0  0  0
   -0.8648   -4.1503    0.0000 N   0  0  0  0  0  0  0  0  0  0  0  0
   -3.3397   -2.7214    0.0000 N   0  0  0  0  0  0  0  0  0  0  0  0
   -0.8647   -2.7213    0.0000 N   0  0  0  0  0  0  0  0  0  0  0  0
   -2.1022   -2.0068    0.0000 N   0  0  0  0  0  0  0  0  0  0  0  0
   -2.1022   -3.4358    0.0000 N   0  0  0  0  0  0  0  0  0  0  0  0
    4.0853    0.1365    0.0000 C   0  0  0  0  0  0  0  0  0  0  0  0
    4.0854   -5.5792    0.0000 C   0  0  0  0  0  0  0  0  0  0  0  0
   -7.0525    0.8511    0.0000 C   0  0  0  0  0  0  0  0  0  0  0  0
    4.9102    0.1365    0.0000 C   0  0  0  0  0  0  0  0  0  0  0  0
    4.9104   -5.5792    0.0000 C   0  0  0  0  0  0  0  0  0  0  0  0
   -7.4649    1.5656    0.0000 C   0  0  0  0  0  0  0  0  0  0  0  0
    3.6726    0.8511    0.0000 C   0  0  0  0  0  0  0  0  0  0  0  0
    3.6729   -6.2938    0.0000 C   0  0  0  0  0  0  0  0  0  0  0  0
   -7.4650    0.1366    0.0000 C   0  0  0  0  0  0  0  0  0  0  0  0
    5.3227    0.8509    0.0000 C   0  0  0  0  0  0  0  0  0  0  0  0
    5.3228   -6.2937    0.0000 C   0  0  0  0  0  0  0  0  0  0  0  0
   -8.2900    1.5656    0.0000 C   0  0  0  0  0  0  0  0  0  0  0  0
    3.6728   -0.5778    0.0000 C   0  0  0  0  0  0  0  0  0  0  0  0
    3.6727   -4.8647    0.0000 C   0  0  0  0  0  0  0  0  0  0  0  0
   -6.2274    0.8511    0.0000 C   0  0  0  0  0  0  0  0  0  0  0  0
    6.1478    0.8510    0.0000 C   0  0  0  0  0  0  0  0  0  0  0  0
    6.1478   -6.2936    0.0000 C   0  0  0  0  0  0  0  0  0  0  0  0
   -8.7025    2.2800    0.0000 C   0  0  0  0  0  0  0  0  0  0  0  0
    4.0851    1.5655    0.0000 C   0  0  0  0  0  0  0  0  0  0  0  0
    4.0853   -7.0083    0.0000 C   0  0  0  0  0  0  0  0  0  0  0  0
   -8.2900    0.1365    0.0000 C   0  0  0  0  0  0  0  0  0  0  0  0
    6.5603    1.5655    0.0000 C   0  0  0  0  0  0  0  0  0  0  0  0
    6.5604   -7.0082    0.0000 C   0  0  0  0  0  0  0  0  0  0  0  0
   -9.5275    2.2800    0.0000 C   0  0  0  0  0  0  0  0  0  0  0  0
    2.4350   -1.2924    0.0000 C   0  0  0  0  0  0  0  0  0  0  0  0
    2.4352   -4.1502    0.0000 C   0  0  0  0  0  0  0  0  0  0  0  0
   -4.9898    0.1365    0.0000 C   0  0  0  0  0  0  0  0  0  0  0  0
    1.6103   -1.2922    0.0000 C   0  0  0  0  0  0  0  0  0  0  0  0
    1.6102   -4.1503    0.0000 C   0  0  0  0  0  0  0  0  0  0  0  0
   -4.5773   -0.5778    0.0000 C   0  0  0  0  0  0  0  0  0  0  0  0
    1.1978   -2.0068    0.0000 C   0  0  0  0  0  0  0  0  0  0  0  0
    1.1977   -4.8648    0.0000 C   0  0  0  0  0  0  0  0  0  0  0  0
   -3.7524   -0.5777    0.0000 C   0  0  0  0  0  0  0  0  0  0  0  0
    1.1976   -0.5780    0.0000 C   0  0  0  0  0  0  0  0  0  0  0  0
    1.1976   -3.4357    0.0000 C   0  0  0  0  0  0  0  0  0  0  0  0
   -4.9899   -1.2923    0.0000 C   0  0  0  0  0  0  0  0  0  0  0  0
    0.3728   -2.0067    0.0000 C   0  0  0  0  0  0  0  0  0  0  0  0
    0.3726   -4.8647    0.0000 C   0  0  0  0  0  0  0  0  0  0  0  0
   -3.3398   -1.2923    0.0000 C   0  0  0  0  0  0  0  0  0  0  0  0
    0.3728   -0.5777    0.0000 C   0  0  0  0  0  0  0  0  0  0  0  0
    0.3727   -3.4357    0.0000 C   0  0  0  0  0  0  0  0  0  0  0  0
   -4.5774   -2.0068    0.0000 C   0  0  0  0  0  0  0  0  0  0  0  0
   -0.0397   -1.2923    0.0000 C   0  0  0  0  0  0  0  0  0  0  0  0
   -0.0397   -4.1503    0.0000 C   0  0  0  0  0  0  0  0  0  0  0  0
   -3.7523   -2.0068    0.0000 C   0  0  0  0  0  0  0  0  0  0  0  0
   -1.2772   -2.0068    0.0000 C   0  0  0  0  0  0  0  0  0  0  0  0
   -1.2772   -3.4358    0.0000 C   0  0  0  0  0  0  0  0  0  0  0  0
   -2.5147   -2.7214    0.0000 C   0  0  0  0  0  0  0  0  0  0  0  0
   -1.1205   -0.8494    0.0000 H   0  0  0  0  0  0  0  0  0  0  0  0
   -1.1205   -4.5932    0.0000 H   0  0  0  0  0  0  0  0  0  0  0  0
   -3.5955   -3.1643    0.0000 H   0  0  0  0  0  0  0  0  0  0  0  0
  1 25  1  0  0  0  0
  1 37  1  0  0  0  0
  2 26  1  0  0  0  0
  2 38  1  0  0  0  0
  3 27  1  0  0  0  0
  3 39  1  0  0  0  0
  4 37  2  0  0  0  0
  5 38  2  0  0  0  0
  6 39  2  0  0  0  0
  7 55  1  0  0  0  0
  7 58  1  0  0  0  0
  7 61  1  0  0  0  0
  8 56  1  0  0  0  0
  8 59  1  0  0  0  0
  8 62  1  0  0  0  0
  9 57  1  0  0  0  0
  9 60  1  0  0  0  0
  9 63  1  0  0  0  0
 10 58  2  0  0  0  0
 10 59  1  0  0  0  0
 11 58  1  0  0  0  0
 11 60  2  0  0  0  0
 12 59  2  0  0  0  0
 12 60  1  0  0  0  0
 13 16  1  0  0  0  0
 13 19  1  0  0  0  0
 13 25  1  0  0  0  0
 14 17  1  0  0  0  0
 14 20  1  0  0  0  0
 14 26  1  0  0  0  0
 15 18  1  0  0  0  0
 15 21  1  0  0  0  0
 15 27  1  0  0  0  0
 16 22  1  0  0  0  0
 17 23  1  0  0  0  0
 18 24  1  0  0  0  0
 19 31  1  0  0  0  0
 20 32  1  0  0  0  0
 21 33  1  0  0  0  0
 22 28  1  0  0  0  0
 23 29  1  0  0  0  0
 24 30  1  0  0  0  0
 28 34  1  0  0  0  0
 29 35  1  0  0  0  0
 30 36  1  0  0  0  0
 37 40  1  0  0  0  0
 38 41  1  0  0  0  0
 39 42  1  0  0  0  0
 40 43  2  0  0  0  0
 40 46  1  0  0  0  0
 41 44  2  0  0  0  0
 41 47  1  0  0  0  0
 42 45  2  0  0  0  0
 42 48  1  0  0  0  0
 43 49  1  0  0  0  0
 44 50  1  0  0  0  0
 45 51  1  0  0  0  0
 46 52  2  0  0  0  0
 47 53  2  0  0  0  0
 48 54  2  0  0  0  0
 49 55  2  0  0  0  0
 50 56  2  0  0  0  0
 51 57  2  0  0  0  0
 52 55  1  0  0  0  0
 53 56  1  0  0  0  0
 54 57  1  0  0  0  0
M  END
> <DATABASE_ID>
DB15469

> <DATABASE_NAME>
drugbank

> <SMILES>
[H]N(C1=CC=C(C=C1)C(=O)OCC(CC)CCCC)C1=NC(=NC(=N1)N([H])C1=CC=C(C=C1)C(=O)OCC(CC)CCCC)N([H])C1=CC=C(C=C1)C(=O)OCC(CC)CCCC

> <INCHI_IDENTIFIER>
InChI=1S/C48H66N6O6/c1-7-13-16-34(10-4)31-58-43(55)37-19-25-40(26-20-37)49-46-52-47(50-41-27-21-38(22-28-41)44(56)59-32-35(11-5)17-14-8-2)54-48(53-46)51-42-29-23-39(24-30-42)45(57)60-33-36(12-6)18-15-9-3/h19-30,34-36H,7-18,31-33H2,1-6H3,(H3,49,50,51,52,53,54)

> <INCHI_KEY>
JGUMTYWKIBJSTN-UHFFFAOYSA-N

> <FORMULA>
C48H66N6O6

> <MOLECULAR_WEIGHT>
823.092

> <EXACT_MASS>
822.504383869

> <JCHEM_ACCEPTOR_COUNT>
9

> <JCHEM_ATOM_COUNT>
126

> <JCHEM_AVERAGE_POLARIZABILITY>
97.67342150547881

> <JCHEM_BIOAVAILABILITY>
0

> <JCHEM_DONOR_COUNT>
3

> <JCHEM_FORMAL_CHARGE>
0

> <JCHEM_GHOSE_FILTER>
0

> <JCHEM_IUPAC>
2-ethylhexyl 4-({4,6-bis[(4-{[(2-ethylhexyl)oxy]carbonyl}phenyl)amino]-1,3,5-triazin-2-yl}amino)benzoate

> <ALOGPS_LOGP>
9.02

> <JCHEM_LOGP>
15.290031808999998

> <ALOGPS_LOGS>
-6.71

> <JCHEM_MDDR_LIKE_RULE>
1

> <JCHEM_NUMBER_OF_RINGS>
4

> <JCHEM_PHYSIOLOGICAL_CHARGE>
0

> <JCHEM_PKA>
12.305678134735267

> <JCHEM_PKA_STRONGEST_ACIDIC>
11.25652631382314

> <JCHEM_PKA_STRONGEST_BASIC>
3.655820177860346

> <JCHEM_POLAR_SURFACE_AREA>
153.66000000000003

> <JCHEM_REFRACTIVITY>
240.33869999999985

> <JCHEM_ROTATABLE_BOND_COUNT>
30

> <JCHEM_RULE_OF_FIVE>
0

> <ALOGPS_SOLUBILITY>
1.60e-04 g/l

> <JCHEM_TRADITIONAL_IUPAC>
sundare

> <JCHEM_VEBER_RULE>
0

> <DRUGBANK_ID>
DB15469

> <DRUG_GROUPS>
experimental

> <GENERIC_NAME>
Octyl triazone

> <PRODUCTS>
BRING GREEN Tea Tree CICA Cooling Sun; CC Cream SPF 50; Calming Days Vegan Sunscreen; Celgen Mild Sun; EXODERMA Silky Sun Cream; Hydro Multi-shield; Kiehls Activated Sun Protector Sunscreen SPF 30 For Face and Body For All Skin Types; Kiehls Activated Sun Protector Sunscreen SPF 50 For Face and Body For All Skin Types; Kiehls Ultra Light Daily UV Defense Aqua Gel SPF 50 Anti-Pollution; LAPOTHICELL Sunscreen; PURITO Centella Green Level Safe Sun; SPF 30; SPF 50; SUN PROJECT SILKY CALMING SUN stick; Sun Project Skin-relief Suncream; The Classeum Co., Ltd.; Xoul 60days sun

> <INTERNATIONAL_BRANDS>
Uvasorb ET; Uvinul T 150

$$$$
