
  Mrv1652310201623022D          

 38 42  0  0  1  0            999 V2000
   -3.8837   -1.4124    0.0000 C   0  0  0  0  0  0  0  0  0  0  0  0
   -3.0587   -1.4124    0.0000 C   0  0  0  0  0  0  0  0  0  0  0  0
   -2.6462   -0.6979    0.0000 C   0  0  2  0  0  0  0  0  0  0  0  0
   -3.0587    0.0165    0.0000 C   0  0  0  0  0  0  0  0  0  0  0  0
   -1.8212   -0.6979    0.0000 C   0  0  2  0  0  0  0  0  0  0  0  0
   -1.4087   -1.4124    0.0000 C   0  0  0  0  0  0  0  0  0  0  0  0
   -1.8212   -2.1269    0.0000 O   0  0  0  0  0  0  0  0  0  0  0  0
   -0.5837   -1.4124    0.0000 N   0  0  0  0  0  0  0  0  0  0  0  0
   -0.1712   -0.6979    0.0000 C   0  0  1  0  0  0  0  0  0  0  0  0
   -0.5837    0.0165    0.0000 C   0  0  0  0  0  0  0  0  0  0  0  0
   -0.1712    0.7310    0.0000 O   0  0  0  0  0  0  0  0  0  0  0  0
   -1.4087    0.0165    0.0000 N   0  0  0  0  0  0  0  0  0  0  0  0
   -1.8212    0.7310    0.0000 C   0  0  2  0  0  0  0  0  0  0  0  0
   -1.4087    1.4455    0.0000 C   0  0  0  0  0  0  0  0  0  0  0  0
   -1.8212    2.1599    0.0000 C   0  0  0  0  0  0  0  0  0  0  0  0
   -1.4087    2.8744    0.0000 C   0  0  0  0  0  0  0  0  0  0  0  0
   -0.5837    2.8744    0.0000 C   0  0  0  0  0  0  0  0  0  0  0  0
   -0.1712    2.1599    0.0000 N   0  0  0  0  0  0  0  0  0  0  0  0
   -0.5837    1.4455    0.0000 C   0  0  0  0  0  0  0  0  0  0  0  0
    0.1700    1.1099    0.0000 C   0  0  0  0  0  0  0  0  0  0  0  0
   -0.1712    3.5889    0.0000 C   0  0  0  0  0  0  0  0  0  0  0  0
   -2.6462    0.7310    0.0000 C   0  0  0  0  0  0  0  0  0  0  0  0
   -3.3999    0.3954    0.0000 O   0  0  0  0  0  0  0  0  0  0  0  0
   -3.0587    1.4455    0.0000 N   0  0  0  0  0  0  0  0  0  0  0  0
   -3.8837    1.4455    0.0000 C   0  0  0  0  0  0  0  0  0  0  0  0
   -4.2962    2.1599    0.0000 C   0  0  0  0  0  0  0  0  0  0  0  0
   -3.8837    2.8744    0.0000 O   0  0  0  0  0  0  0  0  0  0  0  0
   -3.0587    2.8744    0.0000 C   0  0  0  0  0  0  0  0  0  0  0  0
   -2.6462    2.1599    0.0000 C   0  0  0  0  0  0  0  0  0  0  0  0
    0.6538   -0.6979    0.0000 C   0  0  0  0  0  0  0  0  0  0  0  0
    1.1387   -0.0305    0.0000 C   0  0  0  0  0  0  0  0  0  0  0  0
    1.9233   -0.2854    0.0000 C   0  0  0  0  0  0  0  0  0  0  0  0
    2.6378    0.1271    0.0000 C   0  0  0  0  0  0  0  0  0  0  0  0
    3.3523   -0.2854    0.0000 C   0  0  0  0  0  0  0  0  0  0  0  0
    3.3523   -1.1104    0.0000 C   0  0  0  0  0  0  0  0  0  0  0  0
    2.6378   -1.5229    0.0000 C   0  0  0  0  0  0  0  0  0  0  0  0
    1.9233   -1.1104    0.0000 C   0  0  0  0  0  0  0  0  0  0  0  0
    1.1387   -1.3654    0.0000 C   0  0  0  0  0  0  0  0  0  0  0  0
  1  2  1  0  0  0  0
  2  3  1  0  0  0  0
  3  4  1  6  0  0  0
  5  3  1  1  0  0  0
  5  6  1  0  0  0  0
  6  7  2  0  0  0  0
  6  8  1  0  0  0  0
  8  9  1  0  0  0  0
  9 10  1  0  0  0  0
 10 11  2  0  0  0  0
 10 12  1  0  0  0  0
  5 12  1  0  0  0  0
 12 13  1  0  0  0  0
 13 14  1  0  0  0  0
 14 15  2  0  0  0  0
 15 16  1  0  0  0  0
 16 17  2  0  0  0  0
 17 18  1  0  0  0  0
 18 19  2  0  0  0  0
 14 19  1  0  0  0  0
 19 20  1  0  0  0  0
 17 21  1  0  0  0  0
 13 22  1  1  0  0  0
 22 23  2  0  0  0  0
 22 24  1  0  0  0  0
 24 25  1  0  0  0  0
 25 26  1  0  0  0  0
 26 27  1  0  0  0  0
 27 28  1  0  0  0  0
 28 29  1  0  0  0  0
 24 29  1  0  0  0  0
  9 30  1  1  0  0  0
 30 31  1  0  0  0  0
 31 32  1  0  0  0  0
 32 33  2  0  0  0  0
 33 34  1  0  0  0  0
 34 35  2  0  0  0  0
 35 36  1  0  0  0  0
 36 37  2  0  0  0  0
 32 37  1  0  0  0  0
 37 38  1  0  0  0  0
 30 38  1  0  0  0  0
M  END
> <DATABASE_ID>
DB11934

> <DATABASE_NAME>
drugbank

> <SMILES>
CC[C@H](C)[C@H]1N([C@@H](C(=O)N2CCOCC2)C2=CC=C(C)N=C2C)C(=O)[C@H](NC1=O)C1CC2=CC=CC=C2C1

> <INCHI_IDENTIFIER>
InChI=1S/C30H38N4O4/c1-5-18(2)26-28(35)32-25(23-16-21-8-6-7-9-22(21)17-23)29(36)34(26)27(24-11-10-19(3)31-20(24)4)30(37)33-12-14-38-15-13-33/h6-11,18,23,25-27H,5,12-17H2,1-4H3,(H,32,35)/t18-,25+,26+,27+/m0/s1

> <INCHI_KEY>
UWHCWRQFNKUYCG-QUZACWSFSA-N

> <FORMULA>
C30H38N4O4

> <MOLECULAR_WEIGHT>
518.658

> <EXACT_MASS>
518.28930572

> <JCHEM_ACCEPTOR_COUNT>
5

> <JCHEM_ATOM_COUNT>
76

> <JCHEM_AVERAGE_POLARIZABILITY>
56.90217988421479

> <JCHEM_BIOAVAILABILITY>
1

> <JCHEM_DONOR_COUNT>
1

> <JCHEM_FORMAL_CHARGE>
0

> <JCHEM_GHOSE_FILTER>
0

> <JCHEM_IUPAC>
(3R,6R)-6-[(2S)-butan-2-yl]-3-(2,3-dihydro-1H-inden-2-yl)-1-[(1R)-1-(2,6-dimethylpyridin-3-yl)-2-(morpholin-4-yl)-2-oxoethyl]piperazine-2,5-dione

> <ALOGPS_LOGP>
2.93

> <JCHEM_LOGP>
2.4350863283333335

> <ALOGPS_LOGS>
-3.72

> <JCHEM_MDDR_LIKE_RULE>
1

> <JCHEM_NUMBER_OF_RINGS>
5

> <JCHEM_PHYSIOLOGICAL_CHARGE>
0

> <JCHEM_PKA>
18.283134804284604

> <JCHEM_PKA_STRONGEST_ACIDIC>
11.193512640337328

> <JCHEM_PKA_STRONGEST_BASIC>
6.209972614864506

> <JCHEM_POLAR_SURFACE_AREA>
91.84

> <JCHEM_REFRACTIVITY>
143.5764

> <JCHEM_ROTATABLE_BOND_COUNT>
6

> <JCHEM_RULE_OF_FIVE>
0

> <ALOGPS_SOLUBILITY>
9.85e-02 g/l

> <JCHEM_TRADITIONAL_IUPAC>
(3R,6R)-6-[(2S)-butan-2-yl]-3-(2,3-dihydro-1H-inden-2-yl)-1-[(1R)-1-(2,6-dimethylpyridin-3-yl)-2-(morpholin-4-yl)-2-oxoethyl]piperazine-2,5-dione

> <JCHEM_VEBER_RULE>
0

> <DRUGBANK_ID>
DB11934

> <DRUG_GROUPS>
investigational

> <GENERIC_NAME>
Epelsiban

> <SYNONYMS>
Epelsiban

$$$$
