
  Mrv1652310201622452D          

 74 79  0  0  1  0            999 V2000
  -27.1499   -4.9500    0.0000 C   0  0  0  0  0  0  0  0  0  0  0  0
  -26.4354   -4.5375    0.0000 N   0  0  0  0  0  0  0  0  0  0  0  0
  -25.7210   -4.9500    0.0000 C   0  0  0  0  0  0  0  0  0  0  0  0
  -25.0065   -4.5375    0.0000 C   0  0  0  0  0  0  0  0  0  0  0  0
  -25.0065   -3.7125    0.0000 C   0  0  0  0  0  0  0  0  0  0  0  0
  -24.2920   -3.3000    0.0000 C   0  0  0  0  0  0  0  0  0  0  0  0
  -23.5775   -3.7125    0.0000 C   0  0  0  0  0  0  0  0  0  0  0  0
  -23.5775   -4.5375    0.0000 C   0  0  0  0  0  0  0  0  0  0  0  0
  -24.2920   -4.9500    0.0000 C   0  0  0  0  0  0  0  0  0  0  0  0
  -24.2920   -5.7750    0.0000 Cl  0  0  0  0  0  0  0  0  0  0  0  0
  -22.8631   -3.3000    0.0000 Cl  0  0  0  0  0  0  0  0  0  0  0  0
  -25.7210   -3.3000    0.0000 C   0  0  1  0  0  0  0  0  0  0  0  0
  -26.4354   -3.7125    0.0000 C   0  0  0  0  0  0  0  0  0  0  0  0
  -25.7210   -2.4750    0.0000 C   0  0  0  0  0  0  0  0  0  0  0  0
  -26.4354   -2.0625    0.0000 C   0  0  0  0  0  0  0  0  0  0  0  0
  -26.4354   -1.2375    0.0000 C   0  0  0  0  0  0  0  0  0  0  0  0
  -25.7210   -0.8250    0.0000 C   0  0  0  0  0  0  0  0  0  0  0  0
  -25.0065   -1.2375    0.0000 C   0  0  0  0  0  0  0  0  0  0  0  0
  -25.0065   -2.0625    0.0000 C   0  0  0  0  0  0  0  0  0  0  0  0
  -24.2920   -0.8250    0.0000 S   0  0  0  0  0  0  0  0  0  0  0  0
  -23.8795   -1.5395    0.0000 O   0  0  0  0  0  0  0  0  0  0  0  0
  -24.7045   -0.1105    0.0000 O   0  0  0  0  0  0  0  0  0  0  0  0
  -23.5775   -0.4125    0.0000 N   0  0  0  0  0  0  0  0  0  0  0  0
  -22.8631   -0.8250    0.0000 C   0  0  0  0  0  0  0  0  0  0  0  0
  -22.1486   -0.4125    0.0000 C   0  0  0  0  0  0  0  0  0  0  0  0
  -21.4341   -0.8250    0.0000 O   0  0  0  0  0  0  0  0  0  0  0  0
  -20.7197   -0.4125    0.0000 C   0  0  0  0  0  0  0  0  0  0  0  0
  -20.0052   -0.8250    0.0000 C   0  0  0  0  0  0  0  0  0  0  0  0
  -19.2907   -0.4125    0.0000 O   0  0  0  0  0  0  0  0  0  0  0  0
  -18.5762   -0.8250    0.0000 C   0  0  0  0  0  0  0  0  0  0  0  0
  -17.8618   -0.4125    0.0000 C   0  0  0  0  0  0  0  0  0  0  0  0
  -17.1473   -0.8250    0.0000 N   0  0  0  0  0  0  0  0  0  0  0  0
  -16.4328   -0.4125    0.0000 C   0  0  0  0  0  0  0  0  0  0  0  0
  -16.4328    0.4125    0.0000 O   0  0  0  0  0  0  0  0  0  0  0  0
  -15.7184   -0.8250    0.0000 N   0  0  0  0  0  0  0  0  0  0  0  0
  -15.0039   -0.4125    0.0000 C   0  0  0  0  0  0  0  0  0  0  0  0
  -14.2894   -0.8250    0.0000 C   0  0  0  0  0  0  0  0  0  0  0  0
  -13.5749   -0.4125    0.0000 C   0  0  0  0  0  0  0  0  0  0  0  0
  -12.8605   -0.8250    0.0000 C   0  0  0  0  0  0  0  0  0  0  0  0
  -12.1460   -0.4125    0.0000 N   0  0  0  0  0  0  0  0  0  0  0  0
  -11.4315   -0.8250    0.0000 C   0  0  0  0  0  0  0  0  0  0  0  0
  -11.4315   -1.6500    0.0000 O   0  0  0  0  0  0  0  0  0  0  0  0
  -10.7171   -0.4125    0.0000 N   0  0  0  0  0  0  0  0  0  0  0  0
  -10.0026   -0.8250    0.0000 C   0  0  0  0  0  0  0  0  0  0  0  0
   -9.2881   -0.4125    0.0000 C   0  0  0  0  0  0  0  0  0  0  0  0
   -8.5737   -0.8250    0.0000 O   0  0  0  0  0  0  0  0  0  0  0  0
   -7.8592   -0.4125    0.0000 C   0  0  0  0  0  0  0  0  0  0  0  0
   -7.1447   -0.8250    0.0000 C   0  0  0  0  0  0  0  0  0  0  0  0
   -6.4302   -0.4125    0.0000 O   0  0  0  0  0  0  0  0  0  0  0  0
   -5.7158   -0.8250    0.0000 C   0  0  0  0  0  0  0  0  0  0  0  0
   -5.0013   -0.4125    0.0000 C   0  0  0  0  0  0  0  0  0  0  0  0
   -4.2868   -0.8250    0.0000 N   0  0  0  0  0  0  0  0  0  0  0  0
   -3.5724   -0.4125    0.0000 S   0  0  0  0  0  0  0  0  0  0  0  0
   -3.1599   -1.1270    0.0000 O   0  0  0  0  0  0  0  0  0  0  0  0
   -3.9849    0.3020    0.0000 O   0  0  0  0  0  0  0  0  0  0  0  0
   -2.8579    0.0000    0.0000 C   0  0  0  0  0  0  0  0  0  0  0  0
   -2.8579    0.8250    0.0000 C   0  0  0  0  0  0  0  0  0  0  0  0
   -2.1434    1.2375    0.0000 C   0  0  0  0  0  0  0  0  0  0  0  0
   -1.4289    0.8250    0.0000 C   0  0  0  0  0  0  0  0  0  0  0  0
   -1.4289    0.0000    0.0000 C   0  0  0  0  0  0  0  0  0  0  0  0
   -2.1434   -0.4125    0.0000 C   0  0  0  0  0  0  0  0  0  0  0  0
   -0.7145   -0.4125    0.0000 C   0  0  2  0  0  0  0  0  0  0  0  0
   -0.7145   -1.2375    0.0000 C   0  0  0  0  0  0  0  0  0  0  0  0
    0.0000   -1.6500    0.0000 N   0  0  0  0  0  0  0  0  0  0  0  0
    0.7145   -1.2375    0.0000 C   0  0  0  0  0  0  0  0  0  0  0  0
    0.7145   -0.4125    0.0000 C   0  0  0  0  0  0  0  0  0  0  0  0
    0.0000    0.0000    0.0000 C   0  0  0  0  0  0  0  0  0  0  0  0
   -0.0000    0.8250    0.0000 C   0  0  0  0  0  0  0  0  0  0  0  0
    0.7145    1.2375    0.0000 C   0  0  0  0  0  0  0  0  0  0  0  0
    1.4289    0.8250    0.0000 C   0  0  0  0  0  0  0  0  0  0  0  0
    1.4289    0.0000    0.0000 C   0  0  0  0  0  0  0  0  0  0  0  0
    2.1434   -0.4125    0.0000 Cl  0  0  0  0  0  0  0  0  0  0  0  0
    0.7145    2.0625    0.0000 Cl  0  0  0  0  0  0  0  0  0  0  0  0
    0.0000   -2.4750    0.0000 C   0  0  0  0  0  0  0  0  0  0  0  0
  1  2  1  0  0  0  0
  2  3  1  0  0  0  0
  3  4  1  0  0  0  0
  4  5  2  0  0  0  0
  5  6  1  0  0  0  0
  6  7  2  0  0  0  0
  7  8  1  0  0  0  0
  8  9  2  0  0  0  0
  4  9  1  0  0  0  0
  9 10  1  0  0  0  0
  7 11  1  0  0  0  0
  5 12  1  0  0  0  0
 12 13  1  0  0  0  0
  2 13  1  0  0  0  0
 12 14  1  1  0  0  0
 14 15  2  0  0  0  0
 15 16  1  0  0  0  0
 16 17  2  0  0  0  0
 17 18  1  0  0  0  0
 18 19  2  0  0  0  0
 14 19  1  0  0  0  0
 18 20  1  0  0  0  0
 20 21  2  0  0  0  0
 20 22  2  0  0  0  0
 20 23  1  0  0  0  0
 23 24  1  0  0  0  0
 24 25  1  0  0  0  0
 25 26  1  0  0  0  0
 26 27  1  0  0  0  0
 27 28  1  0  0  0  0
 28 29  1  0  0  0  0
 29 30  1  0  0  0  0
 30 31  1  0  0  0  0
 31 32  1  0  0  0  0
 32 33  1  0  0  0  0
 33 34  2  0  0  0  0
 33 35  1  0  0  0  0
 35 36  1  0  0  0  0
 36 37  1  0  0  0  0
 37 38  1  0  0  0  0
 38 39  1  0  0  0  0
 39 40  1  0  0  0  0
 40 41  1  0  0  0  0
 41 42  2  0  0  0  0
 41 43  1  0  0  0  0
 43 44  1  0  0  0  0
 44 45  1  0  0  0  0
 45 46  1  0  0  0  0
 46 47  1  0  0  0  0
 47 48  1  0  0  0  0
 48 49  1  0  0  0  0
 49 50  1  0  0  0  0
 50 51  1  0  0  0  0
 51 52  1  0  0  0  0
 52 53  1  0  0  0  0
 53 54  2  0  0  0  0
 53 55  2  0  0  0  0
 53 56  1  0  0  0  0
 56 57  2  0  0  0  0
 57 58  1  0  0  0  0
 58 59  2  0  0  0  0
 59 60  1  0  0  0  0
 60 61  2  0  0  0  0
 56 61  1  0  0  0  0
 62 60  1  1  0  0  0
 62 63  1  0  0  0  0
 63 64  1  0  0  0  0
 64 65  1  0  0  0  0
 65 66  1  0  0  0  0
 66 67  2  0  0  0  0
 62 67  1  0  0  0  0
 67 68  1  0  0  0  0
 68 69  2  0  0  0  0
 69 70  1  0  0  0  0
 70 71  2  0  0  0  0
 66 71  1  0  0  0  0
 71 72  1  0  0  0  0
 69 73  1  0  0  0  0
 64 74  1  0  0  0  0
M  END
> <DATABASE_ID>
DB11761

> <DATABASE_NAME>
drugbank

> <SMILES>
CN1C[C@@H](C2=CC(=CC=C2)S(=O)(=O)NCCOCCOCCNC(=O)NCCCCNC(=O)NCCOCCOCCNS(=O)(=O)C2=CC(=CC=C2)[C@@H]2CN(C)CC3=C2C=C(Cl)C=C3Cl)C2=C(C1)C(Cl)=CC(Cl)=C2

> <INCHI_IDENTIFIER>
InChI=1S/C50H66Cl4N8O10S2/c1-61-31-43(41-27-37(51)29-47(53)45(41)33-61)35-7-5-9-39(25-35)73(65,66)59-15-19-71-23-21-69-17-13-57-49(63)55-11-3-4-12-56-50(64)58-14-18-70-22-24-72-20-16-60-74(67,68)40-10-6-8-36(26-40)44-32-62(2)34-46-42(44)28-38(52)30-48(46)54/h5-10,25-30,43-44,59-60H,3-4,11-24,31-34H2,1-2H3,(H2,55,57,63)(H2,56,58,64)/t43-,44-/m0/s1

> <INCHI_KEY>
DNHPDWGIXIMXSA-CXNSMIOJSA-N

> <FORMULA>
C50H66Cl4N8O10S2

> <MOLECULAR_WEIGHT>
1145.04

> <EXACT_MASS>
1142.3097435

> <JCHEM_ACCEPTOR_COUNT>
12

> <JCHEM_ATOM_COUNT>
140

> <JCHEM_AVERAGE_POLARIZABILITY>
120.94953192556139

> <JCHEM_BIOAVAILABILITY>
0

> <JCHEM_DONOR_COUNT>
6

> <JCHEM_FORMAL_CHARGE>
0

> <JCHEM_GHOSE_FILTER>
0

> <JCHEM_IUPAC>
3-{2-[2-(2-{3-[(4S)-6,8-dichloro-2-methyl-1,2,3,4-tetrahydroisoquinolin-4-yl]benzenesulfonamido}ethoxy)ethoxy]ethyl}-1-{4-[({2-[2-(2-{3-[(4S)-6,8-dichloro-2-methyl-1,2,3,4-tetrahydroisoquinolin-4-yl]benzenesulfonamido}ethoxy)ethoxy]ethyl}carbamoyl)amino]butyl}urea

> <ALOGPS_LOGP>
4.55

> <JCHEM_LOGP>
5.024090238666666

> <ALOGPS_LOGS>
-5.59

> <JCHEM_MDDR_LIKE_RULE>
1

> <JCHEM_NUMBER_OF_RINGS>
6

> <JCHEM_PHYSIOLOGICAL_CHARGE>
1

> <JCHEM_PKA>
10.458543042131051

> <JCHEM_PKA_STRONGEST_ACIDIC>
9.856716811268504

> <JCHEM_PKA_STRONGEST_BASIC>
6.844237907260733

> <JCHEM_POLAR_SURFACE_AREA>
217.99999999999997

> <JCHEM_REFRACTIVITY>
291.93120000000005

> <JCHEM_ROTATABLE_BOND_COUNT>
27

> <JCHEM_RULE_OF_FIVE>
0

> <ALOGPS_SOLUBILITY>
2.92e-03 g/l

> <JCHEM_TRADITIONAL_IUPAC>
3-{2-[2-(2-{3-[(4S)-6,8-dichloro-2-methyl-3,4-dihydro-1H-isoquinolin-4-yl]benzenesulfonamido}ethoxy)ethoxy]ethyl}-1-{4-[({2-[2-(2-{3-[(4S)-6,8-dichloro-2-methyl-3,4-dihydro-1H-isoquinolin-4-yl]benzenesulfonamido}ethoxy)ethoxy]ethyl}carbamoyl)amino]butyl}urea

> <JCHEM_VEBER_RULE>
0

> <DRUGBANK_ID>
DB11761

> <DRUG_GROUPS>
approved; investigational

> <GENERIC_NAME>
Tenapanor

> <SYNONYMS>
Tenapanor

> <PRODUCTS>
Ibsrela

> <SALTS>
Tenapanor hydrochloride

$$$$
