
  Mrv1572004241616242D          

 20 21  0  0  0  0            999 V2000
    2.5006    1.8562    0.0000 C   0  0  0  0  0  0  0  0  0  0  0  0
    1.7861    1.4437    0.0000 C   0  0  0  0  0  0  0  0  0  0  0  0
    1.0717    1.8562    0.0000 C   0  0  0  0  0  0  0  0  0  0  0  0
    1.7861    0.6187    0.0000 C   0  0  2  0  0  0  0  0  0  0  0  0
    2.5006    0.2062    0.0000 C   0  0  0  0  0  0  0  0  0  0  0  0
    2.5006   -0.6187    0.0000 C   0  0  0  0  0  0  0  0  0  0  0  0
    1.7861   -1.0312    0.0000 C   0  0  1  0  0  0  0  0  0  0  0  0
    1.7861   -1.8562    0.0000 C   0  0  0  0  0  0  0  0  0  0  0  0
    1.0717   -0.6187    0.0000 C   0  0  0  0  0  0  0  0  0  0  0  0
    1.0717    0.2062    0.0000 C   0  0  1  0  0  0  0  0  0  0  0  0
    0.3572    0.6187    0.0000 O   0  0  0  0  0  0  0  0  0  0  0  0
   -0.3572    0.2062    0.0000 C   0  0  0  0  0  0  0  0  0  0  0  0
   -0.3572   -0.6187    0.0000 O   0  0  0  0  0  0  0  0  0  0  0  0
   -1.0717    0.6187    0.0000 C   0  0  0  0  0  0  0  0  0  0  0  0
   -1.7861    0.2062    0.0000 C   0  0  0  0  0  0  0  0  0  0  0  0
   -2.5006    0.6187    0.0000 C   0  0  0  0  0  0  0  0  0  0  0  0
   -2.5006    1.4437    0.0000 C   0  0  0  0  0  0  0  0  0  0  0  0
   -1.7861    1.8562    0.0000 C   0  0  0  0  0  0  0  0  0  0  0  0
   -1.0717    1.4437    0.0000 C   0  0  0  0  0  0  0  0  0  0  0  0
   -0.3572    1.8562    0.0000 O   0  0  0  0  0  0  0  0  0  0  0  0
  1  2  1  0  0  0  0
  2  3  1  0  0  0  0
  4  2  1  6  0  0  0
  4  5  1  0  0  0  0
  5  6  1  0  0  0  0
  6  7  1  0  0  0  0
  7  8  1  1  0  0  0
  7  9  1  0  0  0  0
  9 10  1  0  0  0  0
  4 10  1  0  0  0  0
 10 11  1  1  0  0  0
 11 12  1  0  0  0  0
 12 13  2  0  0  0  0
 12 14  1  0  0  0  0
 14 15  2  0  0  0  0
 15 16  1  0  0  0  0
 16 17  2  0  0  0  0
 17 18  1  0  0  0  0
 18 19  2  0  0  0  0
 14 19  1  0  0  0  0
 19 20  1  0  0  0  0
M  END
> <DATABASE_ID>
DB11201

> <DATABASE_NAME>
drugbank

> <SMILES>
CC(C)[C@@H]1CC[C@@H](C)C[C@H]1OC(=O)C1=CC=CC=C1O

> <INCHI_IDENTIFIER>
InChI=1S/C17H24O3/c1-11(2)13-9-8-12(3)10-16(13)20-17(19)14-6-4-5-7-15(14)18/h4-7,11-13,16,18H,8-10H2,1-3H3/t12-,13+,16-/m1/s1

> <INCHI_KEY>
SJOXEWUZWQYCGL-DVOMOZLQSA-N

> <FORMULA>
C17H24O3

> <MOLECULAR_WEIGHT>
276.376

> <EXACT_MASS>
276.172544633

> <JCHEM_ACCEPTOR_COUNT>
2

> <JCHEM_ATOM_COUNT>
44

> <JCHEM_AVERAGE_POLARIZABILITY>
31.135933044705073

> <JCHEM_BIOAVAILABILITY>
1

> <JCHEM_DONOR_COUNT>
1

> <JCHEM_FORMAL_CHARGE>
0

> <JCHEM_GHOSE_FILTER>
1

> <JCHEM_IUPAC>
(1R,2S,5R)-5-methyl-2-(propan-2-yl)cyclohexyl 2-hydroxybenzoate

> <ALOGPS_LOGP>
4.24

> <JCHEM_LOGP>
5.506007674000001

> <ALOGPS_LOGS>
-4.00

> <JCHEM_MDDR_LIKE_RULE>
0

> <JCHEM_NUMBER_OF_RINGS>
2

> <JCHEM_PHYSIOLOGICAL_CHARGE>
0

> <JCHEM_PKA_STRONGEST_ACIDIC>
9.716364416890826

> <JCHEM_PKA_STRONGEST_BASIC>
-4.287835199584802

> <JCHEM_POLAR_SURFACE_AREA>
46.53

> <JCHEM_REFRACTIVITY>
79.24820000000001

> <JCHEM_ROTATABLE_BOND_COUNT>
4

> <JCHEM_RULE_OF_FIVE>
0

> <ALOGPS_SOLUBILITY>
2.75e-02 g/l

> <JCHEM_TRADITIONAL_IUPAC>
(1R,2S,5R)-2-isopropyl-5-methylcyclohexyl 2-hydroxybenzoate

> <JCHEM_VEBER_RULE>
0

> <DRUGBANK_ID>
DB11201

> <DRUG_GROUPS>
approved

> <GENERIC_NAME>
Menthyl salicylate

> <SYNONYMS>
1-Menthyl salicylate; Menthyl salicylate, (+/-)-

> <PRODUCTS>
Calmomusc Liq; Dr. Ds Super 7 Pain Relief; Extra Strength Hua Tuo Medicated Plaster; Flexall Stick; Muscle Rub Ultra; Pain Relief Patch; Pain Relief Rub; Pain Relieving Foot; Rx Act; TheraPlus Plus; Topcare Pain Relieving 40ct; Valtrum Analgesic; Zims Max Freeze

$$$$
