
  Mrv1652306231722492D          

 15 15  0  0  1  0            999 V2000
    1.4289    0.8250    0.0000 C   0  0  0  0  0  0  0  0  0  0  0  0
    1.4289   -0.0000    0.0000 C   0  0  0  0  0  0  0  0  0  0  0  0
    0.7145   -0.4125    0.0000 C   0  0  0  0  0  0  0  0  0  0  0  0
    0.0000   -0.0000    0.0000 C   0  0  0  0  0  0  0  0  0  0  0  0
    0.0000    0.8250    0.0000 C   0  0  0  0  0  0  0  0  0  0  0  0
    0.7145    1.2375    0.0000 C   0  0  0  0  0  0  0  0  0  0  0  0
    0.7145    2.0625    0.0000 O   0  0  0  0  0  0  0  0  0  0  0  0
   -0.7145    1.2375    0.0000 O   0  0  0  0  0  0  0  0  0  0  0  0
    0.7145   -1.2375    0.0000 F   0  0  0  0  0  0  0  0  0  0  0  0
    2.1434   -0.4125    0.0000 C   0  0  0  0  0  0  0  0  0  0  0  0
    2.8579   -0.0000    0.0000 C   0  0  1  0  0  0  0  0  0  0  0  0
    3.5724   -0.4125    0.0000 C   0  0  0  0  0  0  0  0  0  0  0  0
    4.2868   -0.0000    0.0000 O   0  0  0  0  0  0  0  0  0  0  0  0
    3.5724   -1.2375    0.0000 O   0  0  0  0  0  0  0  0  0  0  0  0
    2.8579    0.8250    0.0000 N   0  0  0  0  0  0  0  0  0  0  0  0
  1  2  2  0  0  0  0
  2  3  1  0  0  0  0
  3  4  2  0  0  0  0
  4  5  1  0  0  0  0
  5  6  2  0  0  0  0
  1  6  1  0  0  0  0
  6  7  1  0  0  0  0
  5  8  1  0  0  0  0
  3  9  1  0  0  0  0
  2 10  1  0  0  0  0
 10 11  1  0  0  0  0
 11 12  1  0  0  0  0
 12 13  2  0  0  0  0
 12 14  1  0  0  0  0
 11 15  1  6  0  0  0
M  ISO  1   9  18
M  END
> <DATABASE_ID>
DB13848

> <DATABASE_NAME>
drugbank

> <SMILES>
N[C@@H](CC1=CC(O)=C(O)C=C1[18F])C(O)=O

> <INCHI_IDENTIFIER>
InChI=1S/C9H10FNO4/c10-5-3-8(13)7(12)2-4(5)1-6(11)9(14)15/h2-3,6,12-13H,1,11H2,(H,14,15)/t6-/m0/s1/i10-1

> <INCHI_KEY>
PAXWQORCRCBOCU-RPDRGXCHSA-N

> <FORMULA>
C9H10FNO4

> <MOLECULAR_WEIGHT>
214.183

> <EXACT_MASS>
214.061920473

> <JCHEM_ACCEPTOR_COUNT>
5

> <JCHEM_ATOM_COUNT>
25

> <JCHEM_AVERAGE_POLARIZABILITY>
19.094498615975215

> <JCHEM_BIOAVAILABILITY>
1

> <JCHEM_DONOR_COUNT>
4

> <JCHEM_FORMAL_CHARGE>
0

> <JCHEM_GHOSE_FILTER>
0

> <JCHEM_IUPAC>
(2S)-2-amino-3-[2-(¹⁸F)fluoro-4,5-dihydroxyphenyl]propanoic acid

> <ALOGPS_LOGP>
-2.01

> <JCHEM_LOGP>
-1.6495564408471752

> <ALOGPS_LOGS>
-1.95

> <JCHEM_MDDR_LIKE_RULE>
0

> <JCHEM_NUMBER_OF_RINGS>
1

> <JCHEM_PHYSIOLOGICAL_CHARGE>
0

> <JCHEM_PKA>
8.444176933858317

> <JCHEM_PKA_STRONGEST_ACIDIC>
1.3217422869485103

> <JCHEM_PKA_STRONGEST_BASIC>
9.403405380031595

> <JCHEM_POLAR_SURFACE_AREA>
103.78

> <JCHEM_REFRACTIVITY>
49.2945

> <JCHEM_ROTATABLE_BOND_COUNT>
3

> <JCHEM_RULE_OF_FIVE>
1

> <ALOGPS_SOLUBILITY>
2.39e+00 g/l

> <JCHEM_TRADITIONAL_IUPAC>
6-(18F)Fluoro-L-DOPA

> <JCHEM_VEBER_RULE>
0

> <DRUGBANK_ID>
DB13848

> <DRUG_GROUPS>
approved; experimental

> <GENERIC_NAME>
Fluorodopa (18F)

> <SYNONYMS>
Fluorodopa (18F); Fluorodopa F-18

> <PRODUCTS>
Fluorodopa F18

$$$$
