
  Mrv1652310211600452D          

 31 33  0  0  1  0            999 V2000
   -5.7158    2.4750    0.0000 C   0  0  0  0  0  0  0  0  0  0  0  0
   -5.0013    2.0625    0.0000 C   0  0  1  0  0  0  0  0  0  0  0  0
   -4.2868    2.4750    0.0000 C   0  0  0  0  0  0  0  0  0  0  0  0
   -3.5724    2.8875    0.0000 F   0  0  0  0  0  0  0  0  0  0  0  0
   -4.6993    3.1895    0.0000 F   0  0  0  0  0  0  0  0  0  0  0  0
   -3.8743    1.7605    0.0000 F   0  0  0  0  0  0  0  0  0  0  0  0
   -5.0013    1.2375    0.0000 N   0  0  0  0  0  0  0  0  0  0  0  0
   -5.7158    0.8250    0.0000 C   0  0  0  0  0  0  0  0  0  0  0  0
   -5.7158   -0.0000    0.0000 C   0  0  0  0  0  0  0  0  0  0  0  0
   -6.4302   -0.4125    0.0000 C   0  0  0  0  0  0  0  0  0  0  0  0
   -7.1447   -0.0000    0.0000 N   0  0  0  0  0  0  0  0  0  0  0  0
   -7.1447    0.8250    0.0000 C   0  0  0  0  0  0  0  0  0  0  0  0
   -6.4302    1.2375    0.0000 N   0  0  0  0  0  0  0  0  0  0  0  0
   -6.6018    2.0445    0.0000 N   0  0  0  0  0  0  0  0  0  0  0  0
   -7.4222    2.1307    0.0000 C   0  0  0  0  0  0  0  0  0  0  0  0
   -7.7578    1.3770    0.0000 N   0  0  0  0  0  0  0  0  0  0  0  0
   -6.4302   -1.2375    0.0000 Cl  0  0  0  0  0  0  0  0  0  0  0  0
   -5.0013   -0.4125    0.0000 C   0  0  0  0  0  0  0  0  0  0  0  0
   -4.2868   -0.0000    0.0000 C   0  0  0  0  0  0  0  0  0  0  0  0
   -3.5724   -0.4125    0.0000 C   0  0  0  0  0  0  0  0  0  0  0  0
   -3.5724   -1.2375    0.0000 C   0  0  0  0  0  0  0  0  0  0  0  0
   -4.2868   -1.6500    0.0000 C   0  0  0  0  0  0  0  0  0  0  0  0
   -5.0013   -1.2375    0.0000 C   0  0  0  0  0  0  0  0  0  0  0  0
   -5.7158   -1.6500    0.0000 F   0  0  0  0  0  0  0  0  0  0  0  0
   -2.8579   -1.6500    0.0000 O   0  0  0  0  0  0  0  0  0  0  0  0
   -2.1434   -1.2375    0.0000 C   0  0  0  0  0  0  0  0  0  0  0  0
   -1.4289   -1.6500    0.0000 C   0  0  0  0  0  0  0  0  0  0  0  0
   -0.7145   -1.2375    0.0000 C   0  0  0  0  0  0  0  0  0  0  0  0
   -0.0000   -1.6500    0.0000 N   0  0  0  0  0  0  0  0  0  0  0  0
    0.7145   -1.2375    0.0000 C   0  0  0  0  0  0  0  0  0  0  0  0
   -4.2868    0.8250    0.0000 F   0  0  0  0  0  0  0  0  0  0  0  0
  2  1  1  1  0  0  0
  2  3  1  0  0  0  0
  3  4  1  0  0  0  0
  3  5  1  0  0  0  0
  3  6  1  0  0  0  0
  2  7  1  0  0  0  0
  7  8  1  0  0  0  0
  8  9  2  0  0  0  0
  9 10  1  0  0  0  0
 10 11  2  0  0  0  0
 11 12  1  0  0  0  0
 12 13  1  0  0  0  0
  8 13  1  0  0  0  0
 13 14  1  0  0  0  0
 14 15  2  0  0  0  0
 15 16  1  0  0  0  0
 12 16  2  0  0  0  0
 10 17  1  0  0  0  0
  9 18  1  0  0  0  0
 18 19  2  0  0  0  0
 19 20  1  0  0  0  0
 20 21  2  0  0  0  0
 21 22  1  0  0  0  0
 22 23  2  0  0  0  0
 18 23  1  0  0  0  0
 23 24  1  0  0  0  0
 21 25  1  0  0  0  0
 25 26  1  0  0  0  0
 26 27  1  0  0  0  0
 27 28  1  0  0  0  0
 28 29  1  0  0  0  0
 29 30  1  0  0  0  0
 19 31  1  0  0  0  0
M  END
> <DATABASE_ID>
DB12533

> <DATABASE_NAME>
drugbank

> <SMILES>
CNCCCOC1=CC(F)=C(C(F)=C1)C1=C(N[C@@H](C)C(F)(F)F)N2N=CN=C2N=C1Cl

> <INCHI_IDENTIFIER>
InChI=1S/C18H18ClF5N6O/c1-9(18(22,23)24)28-16-14(15(19)29-17-26-8-27-30(16)17)13-11(20)6-10(7-12(13)21)31-5-3-4-25-2/h6-9,25,28H,3-5H2,1-2H3/t9-/m0/s1

> <INCHI_KEY>
ZUZPCOQWSYNWLU-VIFPVBQESA-N

> <FORMULA>
C18H18ClF5N6O

> <MOLECULAR_WEIGHT>
464.83

> <EXACT_MASS>
464.1150777

> <JCHEM_ACCEPTOR_COUNT>
6

> <JCHEM_ATOM_COUNT>
49

> <JCHEM_AVERAGE_POLARIZABILITY>
40.74950724807736

> <JCHEM_BIOAVAILABILITY>
1

> <JCHEM_DONOR_COUNT>
2

> <JCHEM_FORMAL_CHARGE>
0

> <JCHEM_GHOSE_FILTER>
1

> <JCHEM_IUPAC>
5-chloro-6-{2,6-difluoro-4-[3-(methylamino)propoxy]phenyl}-N-[(2S)-1,1,1-trifluoropropan-2-yl]-[1,2,4]triazolo[1,5-a]pyrimidin-7-amine

> <ALOGPS_LOGP>
3.96

> <JCHEM_LOGP>
3.4410291363333325

> <ALOGPS_LOGS>
-4.23

> <JCHEM_MDDR_LIKE_RULE>
1

> <JCHEM_NUMBER_OF_RINGS>
3

> <JCHEM_PHYSIOLOGICAL_CHARGE>
1

> <JCHEM_PKA_STRONGEST_ACIDIC>
15.676668243644027

> <JCHEM_PKA_STRONGEST_BASIC>
10.103270344554172

> <JCHEM_POLAR_SURFACE_AREA>
76.37

> <JCHEM_REFRACTIVITY>
118.40899999999998

> <JCHEM_ROTATABLE_BOND_COUNT>
8

> <JCHEM_RULE_OF_FIVE>
1

> <ALOGPS_SOLUBILITY>
2.75e-02 g/l

> <JCHEM_TRADITIONAL_IUPAC>
5-chloro-6-{2,6-difluoro-4-[3-(methylamino)propoxy]phenyl}-N-[(2S)-1,1,1-trifluoropropan-2-yl]-[1,2,4]triazolo[1,5-a]pyrimidin-7-amine

> <JCHEM_VEBER_RULE>
0

> <DRUGBANK_ID>
DB12533

> <DRUG_GROUPS>
investigational

> <GENERIC_NAME>
Cevipabulin

> <SYNONYMS>
Cevipabulin

$$$$
