
  Mrv1652310201623052D          

 27 30  0  0  1  0            999 V2000
    4.9524   -2.0625    0.0000 C   0  0  0  0  0  0  0  0  0  0  0  0
    4.1274   -2.0625    0.0000 C   0  0  0  0  0  0  0  0  0  0  0  0
    3.6425   -1.3951    0.0000 C   0  0  0  0  0  0  0  0  0  0  0  0
    2.8579   -1.6500    0.0000 C   0  0  0  0  0  0  0  0  0  0  0  0
    2.8579   -2.4750    0.0000 C   0  0  0  0  0  0  0  0  0  0  0  0
    3.6425   -2.7299    0.0000 N   0  0  0  0  0  0  0  0  0  0  0  0
    2.1434   -2.8875    0.0000 C   0  0  0  0  0  0  0  0  0  0  0  0
    1.4289   -2.4750    0.0000 C   0  0  0  0  0  0  0  0  0  0  0  0
    1.4289   -1.6500    0.0000 C   0  0  0  0  0  0  0  0  0  0  0  0
    2.1434   -1.2375    0.0000 C   0  0  0  0  0  0  0  0  0  0  0  0
    2.1434   -0.4125    0.0000 F   0  0  0  0  0  0  0  0  0  0  0  0
    0.7145   -1.2375    0.0000 O   0  0  0  0  0  0  0  0  0  0  0  0
    0.7145   -0.4125    0.0000 C   0  0  0  0  0  0  0  0  0  0  0  0
    0.0000    0.0000    0.0000 C   0  0  0  0  0  0  0  0  0  0  0  0
   -0.7846   -0.2549    0.0000 C   0  0  0  0  0  0  0  0  0  0  0  0
   -1.2695    0.4125    0.0000 C   0  0  0  0  0  0  0  0  0  0  0  0
   -0.7846    1.0799    0.0000 C   0  0  0  0  0  0  0  0  0  0  0  0
    0.0000    0.8250    0.0000 N   0  0  0  0  0  0  0  0  0  0  0  0
    0.7145    1.2375    0.0000 N   0  0  0  0  0  0  0  0  0  0  0  0
    1.4289    0.8250    0.0000 C   0  0  0  0  0  0  0  0  0  0  0  0
    1.4289    0.0000    0.0000 N   0  0  0  0  0  0  0  0  0  0  0  0
   -2.0945    0.4125    0.0000 O   0  0  0  0  0  0  0  0  0  0  0  0
   -2.5070   -0.3020    0.0000 C   0  0  0  0  0  0  0  0  0  0  0  0
   -3.3320   -0.3020    0.0000 C   0  0  1  0  0  0  0  0  0  0  0  0
   -3.7445   -1.0164    0.0000 C   0  0  0  0  0  0  0  0  0  0  0  0
   -3.7445    0.4125    0.0000 O   0  0  0  0  0  0  0  0  0  0  0  0
   -1.0396   -1.0396    0.0000 C   0  0  0  0  0  0  0  0  0  0  0  0
  1  2  1  0  0  0  0
  2  3  2  0  0  0  0
  3  4  1  0  0  0  0
  4  5  1  0  0  0  0
  5  6  1  0  0  0  0
  2  6  1  0  0  0  0
  5  7  2  0  0  0  0
  7  8  1  0  0  0  0
  8  9  2  0  0  0  0
  9 10  1  0  0  0  0
  4 10  2  0  0  0  0
 10 11  1  0  0  0  0
  9 12  1  0  0  0  0
 12 13  1  0  0  0  0
 13 14  1  0  0  0  0
 14 15  2  0  0  0  0
 15 16  1  0  0  0  0
 16 17  2  0  0  0  0
 17 18  1  0  0  0  0
 14 18  1  0  0  0  0
 18 19  1  0  0  0  0
 19 20  2  0  0  0  0
 20 21  1  0  0  0  0
 13 21  2  0  0  0  0
 16 22  1  0  0  0  0
 22 23  1  0  0  0  0
 23 24  1  0  0  0  0
 24 25  1  0  0  0  0
 24 26  1  1  0  0  0
 15 27  1  0  0  0  0
M  END
> <DATABASE_ID>
DB11958

> <DATABASE_NAME>
drugbank

> <SMILES>
C[C@@H](O)COC1=CN2N=CN=C(OC3=CC=C4NC(C)=CC4=C3F)C2=C1C

> <INCHI_IDENTIFIER>
InChI=1S/C19H19FN4O3/c1-10-6-13-14(23-10)4-5-15(17(13)20)27-19-18-12(3)16(26-8-11(2)25)7-24(18)22-9-21-19/h4-7,9,11,23,25H,8H2,1-3H3/t11-/m1/s1

> <INCHI_KEY>
WCWUXEGQKLTGDX-LLVKDONJSA-N

> <FORMULA>
C19H19FN4O3

> <MOLECULAR_WEIGHT>
370.384

> <EXACT_MASS>
370.144118651

> <JCHEM_ACCEPTOR_COUNT>
4

> <JCHEM_ATOM_COUNT>
46

> <JCHEM_AVERAGE_POLARIZABILITY>
37.81998101807521

> <JCHEM_BIOAVAILABILITY>
1

> <JCHEM_DONOR_COUNT>
2

> <JCHEM_FORMAL_CHARGE>
0

> <JCHEM_GHOSE_FILTER>
1

> <JCHEM_IUPAC>
(2R)-1-({4-[(4-fluoro-2-methyl-1H-indol-5-yl)oxy]-5-methylpyrrolo[2,1-f][1,2,4]triazin-6-yl}oxy)propan-2-ol

> <ALOGPS_LOGP>
3.32

> <JCHEM_LOGP>
3.415338161666666

> <ALOGPS_LOGS>
-3.88

> <JCHEM_MDDR_LIKE_RULE>
0

> <JCHEM_NUMBER_OF_RINGS>
4

> <JCHEM_PHYSIOLOGICAL_CHARGE>
0

> <JCHEM_PKA>
16.59474595815243

> <JCHEM_PKA_STRONGEST_ACIDIC>
14.826877968059684

> <JCHEM_PKA_STRONGEST_BASIC>
2.0367585470603746

> <JCHEM_POLAR_SURFACE_AREA>
84.67

> <JCHEM_REFRACTIVITY>
110.0215

> <JCHEM_ROTATABLE_BOND_COUNT>
5

> <JCHEM_RULE_OF_FIVE>
1

> <ALOGPS_SOLUBILITY>
4.90e-02 g/l

> <JCHEM_TRADITIONAL_IUPAC>
(2R)-1-({4-[(4-fluoro-2-methyl-1H-indol-5-yl)oxy]-5-methylpyrrolo[2,1-f][1,2,4]triazin-6-yl}oxy)propan-2-ol

> <JCHEM_VEBER_RULE>
0

> <DRUGBANK_ID>
DB11958

> <DRUG_GROUPS>
investigational

> <GENERIC_NAME>
Brivanib

> <SYNONYMS>
Brivanib

$$$$
