
  Mrv1572004221603232D          

 19 20  0  0  0  0            999 V2000
   -0.7145    7.0125    0.0000 C   0  0  0  0  0  0  0  0  0  0  0  0
    3.5724    2.8875    0.0000 C   0  0  0  0  0  0  0  0  0  0  0  0
    2.1434    2.8875    0.0000 C   0  0  0  0  0  0  0  0  0  0  0  0
    3.5724    3.7125    0.0000 C   0  0  0  0  0  0  0  0  0  0  0  0
    2.1434    3.7125    0.0000 C   0  0  0  0  0  0  0  0  0  0  0  0
    1.4289    7.4250    0.0000 C   0  0  0  0  0  0  0  0  0  0  0  0
    0.7145    6.1875    0.0000 C   0  0  0  0  0  0  0  0  0  0  0  0
    2.8579    2.4750    0.0000 C   0  0  0  0  0  0  0  0  0  0  0  0
    0.7145    7.0125    0.0000 C   0  0  0  0  0  0  0  0  0  0  0  0
    2.8579    4.1250    0.0000 C   0  0  0  0  0  0  0  0  0  0  0  0
    2.1434    6.1875    0.0000 C   0  0  0  0  0  0  0  0  0  0  0  0
    2.8579    1.6500    0.0000 N   0  0  0  0  0  0  0  0  0  0  0  0
    2.1434    7.0125    0.0000 N   0  0  0  0  0  0  0  0  0  0  0  0
    1.4289    5.7750    0.0000 N   0  0  0  0  0  0  0  0  0  0  0  0
    2.8579    5.7750    0.0000 N   0  0  0  0  0  0  0  0  0  0  0  0
    2.0329    4.9500    0.0000 O   0  0  0  0  0  0  0  0  0  0  0  0
    3.6829    4.9500    0.0000 O   0  0  0  0  0  0  0  0  0  0  0  0
   -0.0000    7.4250    0.0000 O   0  0  0  0  0  0  0  0  0  0  0  0
    2.8579    4.9500    0.0000 S   0  0  0  0  0  0  0  0  0  0  0  0
  4  2  1  0  0  0  0
  5  3  2  0  0  0  0
  8  2  2  0  0  0  0
  8  3  1  0  0  0  0
  9  6  2  0  0  0  0
  9  7  1  0  0  0  0
 10  4  2  0  0  0  0
 10  5  1  0  0  0  0
 12  8  1  0  0  0  0
 13  6  1  0  0  0  0
 13 11  2  0  0  0  0
 14  7  2  0  0  0  0
 14 11  1  0  0  0  0
 15 11  1  0  0  0  0
 18  1  1  0  0  0  0
 18  9  1  0  0  0  0
 19 10  1  0  0  0  0
 19 15  1  0  0  0  0
 19 16  2  0  0  0  0
 19 17  2  0  0  0  0
M  END
> <DATABASE_ID>
DB06821

> <DATABASE_NAME>
drugbank

> <SMILES>
COC1=CN=C(NS(=O)(=O)C2=CC=C(N)C=C2)N=C1

> <INCHI_IDENTIFIER>
InChI=1S/C11H12N4O3S/c1-18-9-6-13-11(14-7-9)15-19(16,17)10-4-2-8(12)3-5-10/h2-7H,12H2,1H3,(H,13,14,15)

> <INCHI_KEY>
GPTONYMQFTZPKC-UHFFFAOYSA-N

> <FORMULA>
C11H12N4O3S

> <MOLECULAR_WEIGHT>
280.3

> <EXACT_MASS>
280.063011436

> <JCHEM_ACCEPTOR_COUNT>
6

> <JCHEM_ATOM_COUNT>
31

> <JCHEM_AVERAGE_POLARIZABILITY>
26.238214075487782

> <JCHEM_BIOAVAILABILITY>
1

> <JCHEM_DONOR_COUNT>
2

> <JCHEM_FORMAL_CHARGE>
0

> <JCHEM_GHOSE_FILTER>
1

> <JCHEM_IUPAC>
4-amino-N-(5-methoxypyrimidin-2-yl)benzene-1-sulfonamide

> <ALOGPS_LOGP>
0.53

> <JCHEM_LOGP>
0.22958954233333378

> <ALOGPS_LOGS>
-2.95

> <JCHEM_MDDR_LIKE_RULE>
0

> <JCHEM_NUMBER_OF_RINGS>
2

> <JCHEM_PHYSIOLOGICAL_CHARGE>
0

> <JCHEM_PKA_STRONGEST_ACIDIC>
7.056920961685731

> <JCHEM_PKA_STRONGEST_BASIC>
1.977163645647217

> <JCHEM_POLAR_SURFACE_AREA>
107.2

> <JCHEM_REFRACTIVITY>
70.66409999999999

> <JCHEM_ROTATABLE_BOND_COUNT>
3

> <JCHEM_RULE_OF_FIVE>
1

> <ALOGPS_SOLUBILITY>
3.13e-01 g/l

> <JCHEM_TRADITIONAL_IUPAC>
kiron

> <JCHEM_VEBER_RULE>
0

> <DRUGBANK_ID>
DB06821

> <DRUG_GROUPS>
approved

> <GENERIC_NAME>
Sulfameter

> <SYNONYMS>
Sulfa-5-methoxypyrimidine; Sulfameter; Sulfamethoxydiazine; Sulfametoxidiazina; Sulfametoxydiazine; Sulfametoxydiazinum

$$$$
