
  Mrv1902 01311921422D          

 37 43  0  0  0  0            999 V2000
   -1.6996   -1.3816    0.0000 C   0  0  2  0  0  0  0  0  0  0  0  0
   -2.4422   -0.9691    0.0000 C   0  0  0  0  0  0  0  0  0  0  0  0
   -3.1433   -1.4228    0.0000 C   0  0  0  0  0  0  0  0  0  0  0  0
   -3.1433   -2.2478    0.0000 C   0  0  0  0  0  0  0  0  0  0  0  0
   -2.4009   -2.6190    0.0000 C   0  0  0  0  0  0  0  0  0  0  0  0
   -1.6996   -2.2066    0.0000 C   0  0  1  0  0  0  0  0  0  0  0  0
   -1.4521    2.6190    0.0000 C   0  0  0  0  0  0  0  0  0  0  0  0
   -0.6272    2.6190    0.0000 C   0  0  0  0  0  0  0  0  0  0  0  0
   -0.2149    1.8767    0.0000 C   0  0  2  0  0  0  0  0  0  0  0  0
   -0.6272    1.1342    0.0000 C   0  0  2  0  0  0  0  0  0  0  0  0
   -1.4521    1.1342    0.0000 C   0  0  2  0  0  0  0  0  0  0  0  0
   -1.8647    1.8354    0.0000 C   0  0  1  0  0  0  0  0  0  0  0  0
   -0.3798    0.3919    0.0000 C   0  0  0  0  0  0  0  0  0  0  0  0
   -0.9985   -0.1442    0.0000 N   0  0  0  0  0  0  0  0  0  0  0  0
   -1.6996    0.3506    0.0000 C   0  0  0  0  0  0  0  0  0  0  0  0
   -2.4833    0.1444    0.0000 O   0  0  0  0  0  0  0  0  0  0  0  0
    0.4037    0.1444    0.0000 O   0  0  0  0  0  0  0  0  0  0  0  0
   -1.0811    1.6291    0.0000 C   0  0  0  0  0  0  0  0  0  0  0  0
   -2.2358    1.1342    0.0000 H   0  0  0  0  0  0  0  0  0  0  0  0
    0.1975    1.1755    0.0000 H   0  0  0  0  0  0  0  0  0  0  0  0
   -0.9985   -0.9279    0.0000 C   0  0  0  0  0  0  0  0  0  0  0  0
   -1.0165   -2.6098    0.0000 C   0  0  0  0  0  0  0  0  0  0  0  0
   -0.3137   -2.1779    0.0000 N   0  0  0  0  0  0  0  0  0  0  0  0
   -0.3292   -1.3646    0.0000 C   0  0  0  0  0  0  0  0  0  0  0  0
    0.3735   -0.9329    0.0000 C   0  0  0  0  0  0  0  0  0  0  0  0
    1.1136   -1.3497    0.0000 N   0  0  0  0  0  0  0  0  0  0  0  0
    1.0939   -2.1845    0.0000 C   0  0  0  0  0  0  0  0  0  0  0  0
    0.3912   -2.6164    0.0000 C   0  0  0  0  0  0  0  0  0  0  0  0
    1.8166   -0.9179    0.0000 C   0  0  0  0  0  0  0  0  0  0  0  0
    1.8927   -0.0965    0.0000 C   0  0  0  0  0  0  0  0  0  0  0  0
    2.7116    0.0676    0.0000 C   0  0  0  0  0  0  0  0  0  0  0  0
    3.1433   -0.6351    0.0000 S   0  0  0  0  0  0  0  0  0  0  0  0
    2.5700   -1.2777    0.0000 N   0  0  0  0  0  0  0  0  0  0  0  0
    1.3204    0.5200    0.0000 C   0  0  0  0  0  0  0  0  0  0  0  0
    1.5669    1.3007    0.0000 C   0  0  0  0  0  0  0  0  0  0  0  0
    2.3859    1.4648    0.0000 C   0  0  0  0  0  0  0  0  0  0  0  0
    2.9581    0.8483    0.0000 C   0  0  0  0  0  0  0  0  0  0  0  0
  1  2  1  0  0  0  0
  2  3  1  0  0  0  0
  3  4  1  0  0  0  0
  4  5  1  0  0  0  0
  5  6  1  0  0  0  0
  1  6  1  0  0  0  0
  7  8  1  0  0  0  0
  8  9  1  0  0  0  0
  9 10  1  0  0  0  0
 10 11  1  0  0  0  0
 11 12  1  0  0  0  0
  7 12  1  0  0  0  0
 13 14  1  0  0  0  0
 14 15  1  0  0  0  0
 11 15  1  0  0  0  0
 15 16  2  0  0  0  0
 13 17  2  0  0  0  0
 12 18  1  1  0  0  0
  9 18  1  1  0  0  0
 11 19  1  6  0  0  0
 10 20  1  6  0  0  0
 10 13  1  0  0  0  0
 14 21  1  0  0  0  0
  1 21  1  1  0  0  0
  6 22  1  6  0  0  0
 22 23  1  0  0  0  0
 23 24  1  0  0  0  0
 24 25  1  0  0  0  0
 25 26  1  0  0  0  0
 26 27  1  0  0  0  0
 27 28  1  0  0  0  0
 23 28  1  0  0  0  0
 26 29  1  0  0  0  0
 29 30  1  0  0  0  0
 30 31  1  0  0  0  0
 31 32  1  0  0  0  0
 32 33  1  0  0  0  0
 29 33  2  0  0  0  0
 30 34  2  0  0  0  0
 34 35  1  0  0  0  0
 35 36  2  0  0  0  0
 36 37  1  0  0  0  0
 31 37  2  0  0  0  0
M  END
> <DATABASE_ID>
DB08815

> <DATABASE_NAME>
drugbank

> <SMILES>
[H][C@@]12[C@H]3CC[C@H](C3)[C@]1([H])C(=O)N(C[C@@H]1CCCC[C@H]1CN1CCN(CC1)C1=NSC3=CC=CC=C13)C2=O

> <INCHI_IDENTIFIER>
InChI=1S/C28H36N4O2S/c33-27-24-18-9-10-19(15-18)25(24)28(34)32(27)17-21-6-2-1-5-20(21)16-30-11-13-31(14-12-30)26-22-7-3-4-8-23(22)35-29-26/h3-4,7-8,18-21,24-25H,1-2,5-6,9-17H2/t18-,19+,20-,21-,24+,25-/m0/s1

> <INCHI_KEY>
PQXKDMSYBGKCJA-CVTJIBDQSA-N

> <FORMULA>
C28H36N4O2S

> <MOLECULAR_WEIGHT>
492.676

> <EXACT_MASS>
492.255897106

> <JCHEM_ACCEPTOR_COUNT>
5

> <JCHEM_ATOM_COUNT>
71

> <JCHEM_AVERAGE_POLARIZABILITY>
56.258770647832364

> <JCHEM_BIOAVAILABILITY>
1

> <JCHEM_DONOR_COUNT>
0

> <JCHEM_FORMAL_CHARGE>
0

> <JCHEM_GHOSE_FILTER>
0

> <JCHEM_IUPAC>
(1R,2S,6R,7S)-4-{[(1R,2R)-2-{[4-(1,2-benzothiazol-3-yl)piperazin-1-yl]methyl}cyclohexyl]methyl}-4-azatricyclo[5.2.1.0^{2,6}]decane-3,5-dione

> <ALOGPS_LOGP>
5.25

> <JCHEM_LOGP>
4.556549749333332

> <ALOGPS_LOGS>
-4.80

> <JCHEM_MDDR_LIKE_RULE>
0

> <JCHEM_NUMBER_OF_RINGS>
7

> <JCHEM_PHYSIOLOGICAL_CHARGE>
1

> <JCHEM_PKA_STRONGEST_BASIC>
8.496545558673262

> <JCHEM_POLAR_SURFACE_AREA>
56.75000000000001

> <JCHEM_REFRACTIVITY>
139.33039999999997

> <JCHEM_ROTATABLE_BOND_COUNT>
5

> <JCHEM_RULE_OF_FIVE>
1

> <ALOGPS_SOLUBILITY>
7.89e-03 g/l

> <JCHEM_TRADITIONAL_IUPAC>
(1R,2S,6R,7S)-4-{[(1R,2R)-2-{[4-(1,2-benzothiazol-3-yl)piperazin-1-yl]methyl}cyclohexyl]methyl}-4-azatricyclo[5.2.1.0^{2,6}]decane-3,5-dione

> <JCHEM_VEBER_RULE>
0

> <DRUGBANK_ID>
DB08815

> <DRUG_GROUPS>
approved; investigational

> <GENERIC_NAME>
Lurasidone

> <SYNONYMS>
Lurasidona; Lurasidone; Lurasidonum

> <PRODUCTS>
Auro-lurasidone; Jamp Lurasidone; Latuda; Lurasidone Hydrochloride; PMS-lurasidone; Sandoz Lurasidone; Taro-lurasidone

> <SALTS>
Lurasidone hydrochloride

$$$$
