
  Mrv1718007121812362D          

  1  0  0  0  0  0            999 V2000
    0.0000    0.0000    0.0000 Na  0  3  0  0  0  0  0  0  0  0  0  0
M  CHG  1   1   1
M  END
> <DATABASE_ID>
DB14516

> <DATABASE_NAME>
drugbank

> <SMILES>
[Na+]

> <INCHI_IDENTIFIER>
InChI=1S/Na/q+1

> <INCHI_KEY>
FKNQFGJONOIPTF-UHFFFAOYSA-N

> <FORMULA>
Na

> <MOLECULAR_WEIGHT>
22.9898

> <EXACT_MASS>
22.989769675

> <JCHEM_ACCEPTOR_COUNT>
0

> <JCHEM_ATOM_COUNT>
1

> <JCHEM_AVERAGE_POLARIZABILITY>
1.7784

> <JCHEM_BIOAVAILABILITY>
1

> <JCHEM_DONOR_COUNT>
0

> <JCHEM_FORMAL_CHARGE>
1

> <JCHEM_GHOSE_FILTER>
0

> <JCHEM_IUPAC>
sodium(1+) ion

> <JCHEM_LOGP>
-0.77

> <JCHEM_MDDR_LIKE_RULE>
0

> <JCHEM_NUMBER_OF_RINGS>
0

> <JCHEM_PHYSIOLOGICAL_CHARGE>
1

> <JCHEM_PKA>
3.55

> <JCHEM_PKA_STRONGEST_ACIDIC>
3.09

> <JCHEM_POLAR_SURFACE_AREA>
0.0

> <JCHEM_REFRACTIVITY>
0.0

> <JCHEM_ROTATABLE_BOND_COUNT>
0

> <JCHEM_RULE_OF_FIVE>
1

> <JCHEM_TRADITIONAL_IUPAC>
sodium(1+) ion

> <JCHEM_VEBER_RULE>
1

> <DRUGBANK_ID>
DB14516

> <DRUG_GROUPS>
experimental

> <GENERIC_NAME>
Sodium cation

> <SYNONYMS>
Sodium (ion); Sodium ion; sodium(1+)

> <PRODUCTS>
NinePercent

$$$$
