
  Mrv1572004221603172D          

 26 28  0  0  0  0            999 V2000
    4.2868   -0.0000    0.0000 C   0  0  0  0  0  0  0  0  0  0  0  0
    4.2868   -1.6500    0.0000 C   0  0  0  0  0  0  0  0  0  0  0  0
    2.8579   -1.6500    0.0000 C   0  0  0  0  0  0  0  0  0  0  0  0
   -0.7145   -0.4125    0.0000 C   0  0  0  0  0  0  0  0  0  0  0  0
   -1.4289    0.8250    0.0000 C   0  0  0  0  0  0  0  0  0  0  0  0
    5.0013    1.2375    0.0000 C   0  0  0  0  0  0  0  0  0  0  0  0
    5.0013    2.0625    0.0000 C   0  0  0  0  0  0  0  0  0  0  0  0
    4.2868    0.8250    0.0000 C   0  0  0  0  0  0  0  0  0  0  0  0
    4.2868    2.4750    0.0000 C   0  0  0  0  0  0  0  0  0  0  0  0
    0.7145    2.0625    0.0000 C   0  0  0  0  0  0  0  0  0  0  0  0
    1.4289    2.4750    0.0000 C   0  0  0  0  0  0  0  0  0  0  0  0
    1.4289    0.8250    0.0000 C   0  0  0  0  0  0  0  0  0  0  0  0
    2.8579    0.0000    0.0000 C   0  0  0  0  0  0  0  0  0  0  0  0
    3.5724   -0.4125    0.0000 C   0  0  0  0  0  0  0  0  0  0  0  0
    0.7145    1.2375    0.0000 C   0  0  0  0  0  0  0  0  0  0  0  0
    3.5724    1.2375    0.0000 C   0  0  0  0  0  0  0  0  0  0  0  0
    2.1434    1.2375    0.0000 C   0  0  0  0  0  0  0  0  0  0  0  0
    3.5724    2.0625    0.0000 C   0  0  0  0  0  0  0  0  0  0  0  0
    2.1434    2.0625    0.0000 C   0  0  0  0  0  0  0  0  0  0  0  0
    3.5724   -1.2375    0.0000 N   0  0  0  0  0  0  0  0  0  0  0  0
   -0.7145    0.4125    0.0000 N   0  0  0  0  0  0  0  0  0  0  0  0
    2.8579    0.8250    0.0000 N   0  0  0  0  0  0  0  0  0  0  0  0
   -0.4125    1.5395    0.0000 O   0  0  0  0  0  0  0  0  0  0  0  0
    0.4125    0.1105    0.0000 O   0  0  0  0  0  0  0  0  0  0  0  0
    2.8579    2.4750    0.0000 S   0  0  0  0  0  0  0  0  0  0  0  0
   -0.0000    0.8250    0.0000 S   0  0  0  0  0  0  0  0  0  0  0  0
  7  6  2  0  0  0  0
  8  6  1  0  0  0  0
  9  7  1  0  0  0  0
 11 10  2  0  0  0  0
 14  1  1  0  0  0  0
 14 13  1  0  0  0  0
 15 10  1  0  0  0  0
 15 12  2  0  0  0  0
 16  8  2  0  0  0  0
 17 12  1  0  0  0  0
 18  9  2  0  0  0  0
 18 16  1  0  0  0  0
 19 11  1  0  0  0  0
 19 17  2  0  0  0  0
 20  2  1  0  0  0  0
 20  3  1  0  0  0  0
 20 14  1  0  0  0  0
 21  4  1  0  0  0  0
 21  5  1  0  0  0  0
 22 13  1  0  0  0  0
 22 16  1  0  0  0  0
 22 17  1  0  0  0  0
 25 18  1  0  0  0  0
 25 19  1  0  0  0  0
 26 15  1  0  0  0  0
 26 21  1  0  0  0  0
 26 23  2  0  0  0  0
 26 24  2  0  0  0  0
M  END
> <DATABASE_ID>
DB08967

> <DATABASE_NAME>
drugbank

> <SMILES>
CC(CN1C2=CC=CC=C2SC2=C1C=C(C=C2)S(=O)(=O)N(C)C)N(C)C

> <INCHI_IDENTIFIER>
InChI=1S/C19H25N3O2S2/c1-14(20(2)3)13-22-16-8-6-7-9-18(16)25-19-11-10-15(12-17(19)22)26(23,24)21(4)5/h6-12,14H,13H2,1-5H3

> <INCHI_KEY>
VWNWVCJGUMZDIU-UHFFFAOYSA-N

> <FORMULA>
C19H25N3O2S2

> <MOLECULAR_WEIGHT>
391.55

> <EXACT_MASS>
391.138819405

> <JCHEM_ACCEPTOR_COUNT>
4

> <JCHEM_ATOM_COUNT>
51

> <JCHEM_AVERAGE_POLARIZABILITY>
41.7854832140316

> <JCHEM_BIOAVAILABILITY>
1

> <JCHEM_DONOR_COUNT>
0

> <JCHEM_FORMAL_CHARGE>
0

> <JCHEM_GHOSE_FILTER>
1

> <JCHEM_IUPAC>
10-[2-(dimethylamino)propyl]-N,N-dimethyl-10H-phenothiazine-2-sulfonamide

> <ALOGPS_LOGP>
3.47

> <JCHEM_LOGP>
3.3409537526666657

> <ALOGPS_LOGS>
-3.78

> <JCHEM_MDDR_LIKE_RULE>
0

> <JCHEM_NUMBER_OF_RINGS>
3

> <JCHEM_PHYSIOLOGICAL_CHARGE>
1

> <JCHEM_PKA_STRONGEST_BASIC>
8.991057515337458

> <JCHEM_POLAR_SURFACE_AREA>
43.86

> <JCHEM_REFRACTIVITY>
110.45619999999997

> <JCHEM_ROTATABLE_BOND_COUNT>
4

> <JCHEM_RULE_OF_FIVE>
1

> <ALOGPS_SOLUBILITY>
6.47e-02 g/l

> <JCHEM_TRADITIONAL_IUPAC>
dimethothiazine

> <JCHEM_VEBER_RULE>
0

> <DRUGBANK_ID>
DB08967

> <DRUG_GROUPS>
approved

> <GENERIC_NAME>
Dimetotiazine

> <SYNONYMS>
Dimetotiazine

> <SALTS>
Fonazine mesylate

$$$$
