
  Mrv1909 12152020022D          

 24 28  0  0  1  0            999 V2000
    0.4525   -2.9454    0.0000 C   0  0  0  0  0  0  0  0  0  0  0  0
   -0.3545   -2.7739    0.0000 C   0  0  0  0  0  0  0  0  0  0  0  0
   -0.9676   -3.3259    0.0000 N   0  0  0  0  0  0  0  0  0  0  0  0
   -1.6820   -2.9134    0.0000 N   0  0  0  0  0  0  0  0  0  0  0  0
   -1.5105   -2.1064    0.0000 C   0  0  0  0  0  0  0  0  0  0  0  0
   -0.6900   -2.0202    0.0000 C   0  0  0  0  0  0  0  0  0  0  0  0
   -0.2775   -1.3057    0.0000 C   0  0  0  0  0  0  0  0  0  0  0  0
    0.5429   -1.2195    0.0000 C   0  0  0  0  0  0  0  0  0  0  0  0
    0.7145   -0.4125    0.0000 C   0  0  0  0  0  0  0  0  0  0  0  0
    0.0000    0.0000    0.0000 C   0  0  0  0  0  0  0  0  0  0  0  0
   -0.6131   -0.5520    0.0000 S   0  0  0  0  0  0  0  0  0  0  0  0
   -0.0000    0.8250    0.0000 C   0  0  0  0  0  0  0  0  0  0  0  0
   -0.7145    1.2375    0.0000 O   0  0  0  0  0  0  0  0  0  0  0  0
    0.7145    1.2375    0.0000 N   0  0  0  0  0  0  0  0  0  0  0  0
    1.4289    0.8250    0.0000 C   0  0  0  0  0  0  0  0  0  0  0  0
    1.4289    0.0000    0.0000 N   0  0  0  0  0  0  0  0  0  0  0  0
    2.1434    1.2375    0.0000 C   0  0  2  0  0  0  0  0  0  0  0  0
    2.1434    2.0625    0.0000 C   0  0  0  0  0  0  0  0  0  0  0  0
    2.8579    2.4750    0.0000 C   0  0  0  0  0  0  0  0  0  0  0  0
    3.5724    2.0625    0.0000 C   0  0  0  0  0  0  0  0  0  0  0  0
    3.5724    1.2375    0.0000 C   0  0  0  0  0  0  0  0  0  0  0  0
    2.8579    0.8250    0.0000 N   0  0  0  0  0  0  0  0  0  0  0  0
    2.9954    1.3750    0.0000 C   0  0  0  0  0  0  0  0  0  0  0  0
    2.9954    1.9250    0.0000 C   0  0  0  0  0  0  0  0  0  0  0  0
  1  2  1  0  0  0  0
  2  3  2  0  0  0  0
  3  4  1  0  0  0  0
  4  5  1  0  0  0  0
  5  6  2  0  0  0  0
  2  6  1  0  0  0  0
  6  7  1  0  0  0  0
  7  8  2  0  0  0  0
  8  9  1  0  0  0  0
  9 10  2  0  0  0  0
 10 11  1  0  0  0  0
  7 11  1  0  0  0  0
 10 12  1  0  0  0  0
 12 13  2  0  0  0  0
 12 14  1  0  0  0  0
 14 15  1  0  0  0  0
 15 16  2  0  0  0  0
  9 16  1  0  0  0  0
 17 15  1  6  0  0  0
 17 18  1  0  0  0  0
 18 19  1  0  0  0  0
 19 20  1  0  0  0  0
 20 21  1  0  0  0  0
 21 22  1  0  0  0  0
 17 22  1  0  0  0  0
 22 23  1  0  0  0  0
 23 24  1  0  0  0  0
 19 24  1  0  0  0  0
M  END
> <DATABASE_ID>
DB16330

> <DATABASE_NAME>
drugbank

> <SMILES>
CC1=NNC=C1C1=CC2=C(S1)C(=O)NC(=N2)[C@@H]1CC2CCN1CC2

> <INCHI_IDENTIFIER>
InChI=1S/C17H19N5OS/c1-9-11(8-18-21-9)14-7-12-15(24-14)17(23)20-16(19-12)13-6-10-2-4-22(13)5-3-10/h7-8,10,13H,2-6H2,1H3,(H,18,21)(H,19,20,23)/t13-/m0/s1

> <INCHI_KEY>
XGVXKJKTISMIOW-ZDUSSCGKSA-N

> <FORMULA>
C17H19N5OS

> <MOLECULAR_WEIGHT>
341.43

> <EXACT_MASS>
341.131031426

> <JCHEM_ACCEPTOR_COUNT>
4

> <JCHEM_ATOM_COUNT>
43

> <JCHEM_AVERAGE_NEUTRAL_MICROSPECIES_CHARGE>
0.09505399613326602

> <JCHEM_AVERAGE_POLARIZABILITY>
36.48128722138426

> <JCHEM_BIOAVAILABILITY>
1

> <JCHEM_DONOR_COUNT>
2

> <JCHEM_FORMAL_CHARGE>
0

> <JCHEM_GHOSE_FILTER>
1

> <JCHEM_IUPAC>
2-[(2S)-1-azabicyclo[2.2.2]octan-2-yl]-6-(3-methyl-1H-pyrazol-4-yl)-3H,4H-thieno[3,2-d]pyrimidin-4-one

> <ALOGPS_LOGP>
2.46

> <JCHEM_LOGP>
1.5331146050000002

> <ALOGPS_LOGS>
-3.58

> <JCHEM_MDDR_LIKE_RULE>
0

> <JCHEM_NEUTRAL_CHARGE>
0

> <JCHEM_NUMBER_OF_RINGS>
5

> <JCHEM_PHYSIOLOGICAL_CHARGE>
0

> <JCHEM_PKA>
14.45754545989428

> <JCHEM_PKA_STRONGEST_ACIDIC>
8.907294972359736

> <JCHEM_PKA_STRONGEST_BASIC>
6.080236066304328

> <JCHEM_POLAR_SURFACE_AREA>
73.38

> <JCHEM_REFRACTIVITY>
95.61229999999998

> <JCHEM_ROTATABLE_BOND_COUNT>
2

> <JCHEM_RULE_OF_FIVE>
1

> <ALOGPS_SOLUBILITY>
8.89e-02 g/l

> <JCHEM_TRADITIONAL_IUPAC>
8-[(3R)-3-[1-({1-[(E)-{[(7S,9E,11S,12S,13S,14S,15R,16R,17S,18S,19E)-13-(acetyloxy)-2,15,17,27,29-pentahydroxy-11-methoxy-3,7,12,14,16,18,22-heptamethyl-6,23-dioxo-8,30-dioxa-24-azatetracyclo[23.3.1.1^{4,7}.0^{5,28}]triaconta-1(28),2,4,9,19,21,25(29),26-octaen-26-yl]methylidene}amino]piperidin-4-yl}(methyl)amino)cyclopropyl]pyrrolidin-1-yl]-1-cyclopropyl-7-fluoro-9-methyl-4-oxoquinolizine-3-carboxylic acid

> <JCHEM_VEBER_RULE>
0

> <DRUGBANK_ID>
DB16330

> <DRUG_GROUPS>
investigational

> <GENERIC_NAME>
Simurosertib

> <SYNONYMS>
2-[(2S)-1-azabicyclo[2.2.2]oct-2-yl]-6-(3-methyl-1H-pyrazol-4-yl)thieno[3,2-d]pyrimidin-4(3H)-one; Simurosertib

> <SALTS>
Simurosertib hemihydrate

$$$$
