
  Mrv1572004221606522D          

 23 25  0  0  0  0            999 V2000
   -0.7145   -0.4125    0.0000 C   0  0  0  0  0  0  0  0  0  0  0  0
    5.0013   -0.4125    0.0000 C   0  0  0  0  0  0  0  0  0  0  0  0
    5.0013   -1.2375    0.0000 C   0  0  0  0  0  0  0  0  0  0  0  0
    0.0000   -0.0000    0.0000 C   0  0  0  0  0  0  0  0  0  0  0  0
   -0.7145   -3.7125    0.0000 C   0  0  0  0  0  0  0  0  0  0  0  0
    0.0000   -4.1250    0.0000 C   0  0  0  0  0  0  0  0  0  0  0  0
   -0.7145   -2.8875    0.0000 C   0  0  0  0  0  0  0  0  0  0  0  0
    0.7145   -3.7125    0.0000 C   0  0  0  0  0  0  0  0  0  0  0  0
    0.0000   -2.4750    0.0000 C   0  0  0  0  0  0  0  0  0  0  0  0
    1.4289   -2.4750    0.0000 C   0  0  0  0  0  0  0  0  0  0  0  0
    1.4289    0.0000    0.0000 C   0  0  0  0  0  0  0  0  0  0  0  0
    2.8579    0.0000    0.0000 C   0  0  0  0  0  0  0  0  0  0  0  0
    2.8579   -1.6500    0.0000 C   0  0  0  0  0  0  0  0  0  0  0  0
    0.7145   -2.8875    0.0000 C   0  0  0  0  0  0  0  0  0  0  0  0
    2.1434   -0.4125    0.0000 C   0  0  0  0  0  0  0  0  0  0  0  0
    0.7145   -0.4125    0.0000 C   0  0  0  0  0  0  0  0  0  0  0  0
    2.1434   -1.2375    0.0000 C   0  0  0  0  0  0  0  0  0  0  0  0
    1.4289   -1.6500    0.0000 C   0  0  0  0  0  0  0  0  0  0  0  0
    3.5724   -0.4125    0.0000 C   0  0  0  0  0  0  0  0  0  0  0  0
    3.5724   -1.2375    0.0000 C   0  0  0  0  0  0  0  0  0  0  0  0
    0.7145   -1.2375    0.0000 N   0  0  0  0  0  0  0  0  0  0  0  0
    4.2868   -0.0000    0.0000 O   0  0  0  0  0  0  0  0  0  0  0  0
    4.2868   -1.6500    0.0000 O   0  0  0  0  0  0  0  0  0  0  0  0
  4  1  1  0  0  0  0
  6  5  2  0  0  0  0
  7  5  1  0  0  0  0
  8  6  1  0  0  0  0
  9  7  2  0  0  0  0
 14  8  2  0  0  0  0
 14  9  1  0  0  0  0
 14 10  1  0  0  0  0
 15 11  2  0  0  0  0
 15 12  1  0  0  0  0
 16  4  1  0  0  0  0
 16 11  1  0  0  0  0
 17 13  1  0  0  0  0
 17 15  1  0  0  0  0
 18 10  1  0  0  0  0
 18 17  2  0  0  0  0
 19 12  2  0  0  0  0
 20 13  2  0  0  0  0
 20 19  1  0  0  0  0
 21 16  2  0  0  0  0
 21 18  1  0  0  0  0
 22  2  1  0  0  0  0
 22 19  1  0  0  0  0
 23  3  1  0  0  0  0
 23 20  1  0  0  0  0
M  END
> <DATABASE_ID>
DB12251

> <DATABASE_NAME>
drugbank

> <SMILES>
CCC1=NC(CC2=CC=CC=C2)=C2C=C(OC)C(OC)=CC2=C1

> <INCHI_IDENTIFIER>
InChI=1S/C20H21NO2/c1-4-16-11-15-12-19(22-2)20(23-3)13-17(15)18(21-16)10-14-8-6-5-7-9-14/h5-9,11-13H,4,10H2,1-3H3

> <INCHI_KEY>
MYCMTMIGRXJNSO-UHFFFAOYSA-N

> <FORMULA>
C20H21NO2

> <MOLECULAR_WEIGHT>
307.393

> <EXACT_MASS>
307.15722892

> <JCHEM_ACCEPTOR_COUNT>
3

> <JCHEM_ATOM_COUNT>
44

> <JCHEM_AVERAGE_POLARIZABILITY>
35.01797798744707

> <JCHEM_BIOAVAILABILITY>
1

> <JCHEM_DONOR_COUNT>
0

> <JCHEM_FORMAL_CHARGE>
0

> <JCHEM_GHOSE_FILTER>
1

> <JCHEM_IUPAC>
1-benzyl-3-ethyl-6,7-dimethoxyisoquinoline

> <ALOGPS_LOGP>
5.01

> <JCHEM_LOGP>
4.227323619

> <ALOGPS_LOGS>
-5.48

> <JCHEM_MDDR_LIKE_RULE>
0

> <JCHEM_NUMBER_OF_RINGS>
3

> <JCHEM_PHYSIOLOGICAL_CHARGE>
0

> <JCHEM_PKA_STRONGEST_BASIC>
6.489882525472209

> <JCHEM_POLAR_SURFACE_AREA>
31.35

> <JCHEM_REFRACTIVITY>
91.80949999999999

> <JCHEM_ROTATABLE_BOND_COUNT>
5

> <JCHEM_RULE_OF_FIVE>
1

> <ALOGPS_SOLUBILITY>
1.02e-03 g/l

> <JCHEM_TRADITIONAL_IUPAC>
kollateral

> <JCHEM_VEBER_RULE>
1

> <DRUGBANK_ID>
DB12251

> <DRUG_GROUPS>
investigational

> <GENERIC_NAME>
Moxaverine

> <SYNONYMS>
Moxaverine

> <SALTS>
Moxaverine Hydrochloride

$$$$
