
  Mrv1909 01132020162D          

 35 39  0  0  0  0            999 V2000
   -0.6727   -1.0216    0.0000 C   0  0  0  0  0  0  0  0  0  0  0  0
   -0.6727   -0.1891    0.0000 C   0  0  0  0  0  0  0  0  0  0  0  0
   -0.6643    1.4841    0.0000 C   0  0  0  0  0  0  0  0  0  0  0  0
    0.0588    1.0637    0.0000 C   0  0  0  0  0  0  0  0  0  0  0  0
    0.0588    0.2312    0.0000 O   0  0  0  0  0  0  0  0  0  0  0  0
   -2.0601    2.2829    0.0000 O   0  0  0  0  0  0  0  0  0  0  0  0
   -1.3453    2.6950    0.0000 C   0  0  0  0  0  0  0  0  0  0  0  0
   -0.6643    2.3166    0.0000 C   0  0  0  0  0  0  0  0  0  0  0  0
   -2.0516    1.4336    0.0000 C   0  0  0  0  0  0  0  0  0  0  0  0
   -3.4980   -0.2060    0.0000 C   0  0  0  0  0  0  0  0  0  0  0  0
   -2.7748    0.1892    0.0000 C   0  0  0  0  0  0  0  0  0  0  0  0
   -2.7665    1.0132    0.0000 C   0  0  0  0  0  0  0  0  0  0  0  0
   -3.4644    1.4420    0.0000 C   0  0  0  0  0  0  0  0  0  0  0  0
   -4.1875    1.0385    0.0000 C   0  0  0  0  0  0  0  0  0  0  0  0
   -4.2043    0.2143    0.0000 C   0  0  0  0  0  0  0  0  0  0  0  0
   -2.8337   -1.4253    0.0000 N   0  0  0  0  0  0  0  0  0  0  0  0
   -3.4980   -1.0300    0.0000 C   0  0  0  0  0  0  0  0  0  0  0  0
   -4.1706   -1.4000    0.0000 C   0  0  0  0  0  0  0  0  0  0  0  0
   -4.1875   -2.1736    0.0000 C   0  0  0  0  0  0  0  0  0  0  0  0
   -3.5232   -2.5688    0.0000 N   0  0  0  0  0  0  0  0  0  0  0  0
   -2.8505   -2.1988    0.0000 C   0  0  0  0  0  0  0  0  0  0  0  0
   -1.3958   -1.4336    0.0000 C   0  0  0  0  0  0  0  0  0  0  0  0
   -1.4042   -2.2745    0.0000 C   0  0  0  0  0  0  0  0  0  0  0  0
   -0.6810   -2.6950    0.0000 C   0  0  0  0  0  0  0  0  0  0  0  0
    0.0504   -2.2745    0.0000 C   0  0  0  0  0  0  0  0  0  0  0  0
    0.0504   -1.4420    0.0000 C   0  0  0  0  0  0  0  0  0  0  0  0
   -2.1189   -2.6782    0.0000 N   0  0  0  0  0  0  0  0  0  0  0  0
    0.7651   -1.0300    0.0000 O   0  0  0  0  0  0  0  0  0  0  0  0
    1.4715   -1.4420    0.0000 C   0  0  0  0  0  0  0  0  0  0  0  0
    2.1862   -1.0300    0.0000 C   0  0  0  0  0  0  0  0  0  0  0  0
    2.9010   -1.4336    0.0000 N   0  0  0  0  0  0  0  0  0  0  0  0
    2.9935   -2.2493    0.0000 C   0  0  0  0  0  0  0  0  0  0  0  0
    3.7923   -2.4175    0.0000 C   0  0  0  0  0  0  0  0  0  0  0  0
    4.2043   -1.7028    0.0000 C   0  0  0  0  0  0  0  0  0  0  0  0
    3.6493   -1.0973    0.0000 C   0  0  0  0  0  0  0  0  0  0  0  0
  1  2  1  0  0  0  0
  1 22  2  0  0  0  0
  1 26  1  0  0  0  0
  2  5  1  0  0  0  0
  3  4  1  0  0  0  0
  3  8  2  0  0  0  0
  4  5  1  0  0  0  0
  6  7  1  0  0  0  0
  6  9  1  0  0  0  0
  7  8  1  0  0  0  0
  9 12  1  0  0  0  0
 10 11  2  0  0  0  0
 10 17  1  0  0  0  0
 10 15  1  0  0  0  0
 11 12  1  0  0  0  0
 12 13  2  0  0  0  0
 13 14  1  0  0  0  0
 14 15  2  0  0  0  0
 16 21  1  0  0  0  0
 16 17  2  0  0  0  0
 17 18  1  0  0  0  0
 18 19  2  0  0  0  0
 19 20  1  0  0  0  0
 20 21  2  0  0  0  0
 21 27  1  0  0  0  0
 22 23  1  0  0  0  0
 23 24  2  0  0  0  0
 23 27  1  0  0  0  0
 24 25  1  0  0  0  0
 25 26  2  0  0  0  0
 26 28  1  0  0  0  0
 28 29  1  0  0  0  0
 29 30  1  0  0  0  0
 30 31  1  0  0  0  0
 31 32  1  0  0  0  0
 31 35  1  0  0  0  0
 32 33  1  0  0  0  0
 33 34  1  0  0  0  0
 34 35  1  0  0  0  0
M  END
> <DATABASE_ID>
DB11697

> <DATABASE_NAME>
drugbank

> <SMILES>
C(CN1CCCC1)OC1=CC=C2NC3=NC=CC(=N3)C3=CC(COC\C=C\COCC1=C2)=CC=C3

> <INCHI_IDENTIFIER>
InChI=1S/C28H32N4O3/c1-2-13-32(12-1)14-17-35-27-9-8-25-19-24(27)21-34-16-4-3-15-33-20-22-6-5-7-23(18-22)26-10-11-29-28(30-25)31-26/h3-11,18-19H,1-2,12-17,20-21H2,(H,29,30,31)/b4-3+

> <INCHI_KEY>
HWXVIOGONBBTBY-ONEGZZNKSA-N

> <FORMULA>
C28H32N4O3

> <MOLECULAR_WEIGHT>
472.589

> <EXACT_MASS>
472.247440906

> <JCHEM_ACCEPTOR_COUNT>
7

> <JCHEM_ATOM_COUNT>
67

> <JCHEM_AVERAGE_NEUTRAL_MICROSPECIES_CHARGE>
0.9864454758567004

> <JCHEM_AVERAGE_POLARIZABILITY>
52.321591302384874

> <JCHEM_BIOAVAILABILITY>
1

> <JCHEM_DONOR_COUNT>
1

> <JCHEM_FORMAL_CHARGE>
0

> <JCHEM_GHOSE_FILTER>
0

> <JCHEM_IUPAC>
(16E)-11-[2-(pyrrolidin-1-yl)ethoxy]-14,19-dioxa-5,7,27-triazatetracyclo[19.3.1.1^{2,6}.1^{8,12}]heptacosa-1(25),2(27),3,5,8,10,12(26),16,21,23-decaene

> <ALOGPS_LOGP>
4.78

> <JCHEM_LOGP>
4.575537867000001

> <ALOGPS_LOGS>
-4.09

> <JCHEM_MDDR_LIKE_RULE>
0

> <JCHEM_NEUTRAL_CHARGE>
1

> <JCHEM_NUMBER_OF_RINGS>
5

> <JCHEM_PHYSIOLOGICAL_CHARGE>
1

> <JCHEM_PKA_STRONGEST_ACIDIC>
14.096381834345566

> <JCHEM_PKA_STRONGEST_BASIC>
8.85704273495768

> <JCHEM_POLAR_SURFACE_AREA>
68.74

> <JCHEM_REFRACTIVITY>
139.42579999999998

> <JCHEM_ROTATABLE_BOND_COUNT>
4

> <JCHEM_RULE_OF_FIVE>
1

> <ALOGPS_SOLUBILITY>
3.81e-02 g/l

> <JCHEM_TRADITIONAL_IUPAC>
incyclinide

> <JCHEM_VEBER_RULE>
0

> <DRUGBANK_ID>
DB11697

> <DRUG_GROUPS>
approved; investigational

> <GENERIC_NAME>
Pacritinib

> <SYNONYMS>
Pacritinib; Pacritinibum

> <PRODUCTS>
Vonjo

$$$$
