
  Mrv1909 10252019072D          

 42 45  0  0  0  0            999 V2000
    3.8883   -0.9076    0.0000 C   0  0  1  0  0  0  0  0  0  0  0  0
    3.1772   -0.4056    0.0000 O   0  0  0  0  0  0  0  0  0  0  0  0
    3.5954   -1.7442    0.0000 C   0  0  1  0  0  0  0  0  0  0  0  0
    2.5078   -0.9076    0.0000 C   0  0  1  0  0  0  0  0  0  0  0  0
    2.7589   -1.7442    0.0000 C   0  0  1  0  0  0  0  0  0  0  0  0
    4.1393   -2.4134    0.0000 O   0  0  0  0  0  0  0  0  0  0  0  0
    2.2987   -2.4134    0.0000 O   0  0  0  0  0  0  0  0  0  0  0  0
    4.5993   -1.3259    0.0000 C   0  0  0  0  0  0  0  0  0  0  0  0
    5.3523   -1.7442    0.0000 N   0  0  0  0  0  0  0  0  0  0  0  0
    1.7968   -0.4893    0.0000 C   0  0  0  0  0  0  0  0  0  0  0  0
    1.0857   -0.9076    0.0000 O   0  0  0  0  0  0  0  0  0  0  0  0
    0.3577   -0.4952    0.0000 P   0  0  1  0  0  0  0  0  0  0  0  0
   -0.3667   -0.9135    0.0000 N   0  0  0  0  0  0  0  0  0  0  0  0
   -1.1024   -0.4887    0.0000 C   0  0  2  0  0  0  0  0  0  0  0  0
   -1.8173   -0.9015    0.0000 C   0  0  0  0  0  0  0  0  0  0  0  0
   -1.1025    0.3471    0.0000 C   0  0  0  0  0  0  0  0  0  0  0  0
   -2.5266   -0.4920    0.0000 O   0  0  0  0  0  0  0  0  0  0  0  0
   -1.8174   -1.7439    0.0000 O   0  0  0  0  0  0  0  0  0  0  0  0
   -3.2386   -0.9033    0.0000 C   0  0  0  0  0  0  0  0  0  0  0  0
   -3.9493   -0.4929    0.0000 C   0  0  0  0  0  0  0  0  0  0  0  0
   -4.6605   -0.9037    0.0000 C   0  0  0  0  0  0  0  0  0  0  0  0
   -3.9495    0.3471    0.0000 C   0  0  0  0  0  0  0  0  0  0  0  0
   -4.6622    0.7585    0.0000 C   0  0  0  0  0  0  0  0  0  0  0  0
   -5.3716   -0.4932    0.0000 C   0  0  0  0  0  0  0  0  0  0  0  0
    4.3365   -0.2132    0.0000 C   0  0  0  0  0  0  0  0  0  0  0  0
    4.0386    0.5562    0.0000 N   0  0  0  0  0  0  0  0  0  0  0  0
    5.1602   -0.1677    0.0000 C   0  0  0  0  0  0  0  0  0  0  0  0
    4.6785    1.0770    0.0000 C   0  0  0  0  0  0  0  0  0  0  0  0
    5.3716    0.6297    0.0000 C   0  0  0  0  0  0  0  0  0  0  0  0
    3.2677    0.8496    0.0000 N   0  0  0  0  0  0  0  0  0  0  0  0
    3.1365    1.6641    0.0000 C   0  0  0  0  0  0  0  0  0  0  0  0
    4.5471    1.8915    0.0000 C   0  0  0  0  0  0  0  0  0  0  0  0
    3.7761    2.1850    0.0000 N   0  0  0  0  0  0  0  0  0  0  0  0
    5.1880    2.4134    0.0000 N   0  0  0  0  0  0  0  0  0  0  0  0
   -0.0575    0.2174    0.0000 O   0  0  0  0  0  0  0  0  0  0  0  0
    0.7673    0.2209    0.0000 O   0  0  0  0  0  0  0  0  0  0  0  0
    0.3527    0.9349    0.0000 C   0  0  0  0  0  0  0  0  0  0  0  0
   -0.0626    1.6477    0.0000 C   0  0  0  0  0  0  0  0  0  0  0  0
    1.1778    0.9383    0.0000 C   0  0  0  0  0  0  0  0  0  0  0  0
    0.3469    2.3639    0.0000 C   0  0  0  0  0  0  0  0  0  0  0  0
    1.5873    1.6544    0.0000 C   0  0  0  0  0  0  0  0  0  0  0  0
    1.1719    2.3672    0.0000 C   0  0  0  0  0  0  0  0  0  0  0  0
  1  2  1  0  0  0  0
  1  3  1  0  0  0  0
  2  4  1  0  0  0  0
  3  5  1  0  0  0  0
  3  6  1  6  0  0  0
  5  7  1  6  0  0  0
  4  5  1  0  0  0  0
  1  8  1  6  0  0  0
  8  9  3  0  0  0  0
 10 11  1  0  0  0  0
  4 10  1  1  0  0  0
 11 12  1  0  0  0  0
 12 13  1  6  0  0  0
 13 14  1  0  0  0  0
 14 15  1  0  0  0  0
 14 16  1  6  0  0  0
 15 17  1  0  0  0  0
 15 18  2  0  0  0  0
 17 19  1  0  0  0  0
 19 20  1  0  0  0  0
 20 21  1  0  0  0  0
 20 22  1  0  0  0  0
 22 23  1  0  0  0  0
 21 24  1  0  0  0  0
  1 25  1  1  0  0  0
 25 26  1  0  0  0  0
 25 27  2  0  0  0  0
 27 29  1  0  0  0  0
 28 29  2  0  0  0  0
 26 30  1  0  0  0  0
 26 28  1  0  0  0  0
 30 31  2  0  0  0  0
 28 32  1  0  0  0  0
 31 33  1  0  0  0  0
 32 33  2  0  0  0  0
 32 34  1  0  0  0  0
 12 35  1  1  0  0  0
 12 36  2  0  0  0  0
 35 37  1  0  0  0  0
 37 38  1  0  0  0  0
 37 39  2  0  0  0  0
 38 40  2  0  0  0  0
 39 41  1  0  0  0  0
 40 42  1  0  0  0  0
 41 42  2  0  0  0  0
M  END
> <DATABASE_ID>
DB14761

> <DATABASE_NAME>
drugbank

> <SMILES>
CCC(CC)COC(=O)[C@H](C)N[P@](=O)(OC[C@H]1O[C@](C#N)([C@H](O)[C@@H]1O)C1=CC=C2N1N=CN=C2N)OC1=CC=CC=C1

> <INCHI_IDENTIFIER>
InChI=1S/C27H35N6O8P/c1-4-18(5-2)13-38-26(36)17(3)32-42(37,41-19-9-7-6-8-10-19)39-14-21-23(34)24(35)27(15-28,40-21)22-12-11-20-25(29)30-16-31-33(20)22/h6-12,16-18,21,23-24,34-35H,4-5,13-14H2,1-3H3,(H,32,37)(H2,29,30,31)/t17-,21+,23+,24+,27-,42-/m0/s1

> <INCHI_KEY>
RWWYLEGWBNMMLJ-YSOARWBDSA-N

> <FORMULA>
C27H35N6O8P

> <MOLECULAR_WEIGHT>
602.585

> <EXACT_MASS>
602.225399109

> <JCHEM_ACCEPTOR_COUNT>
9

> <JCHEM_ATOM_COUNT>
77

> <JCHEM_AVERAGE_NEUTRAL_MICROSPECIES_CHARGE>
0.7965833328220823

> <JCHEM_AVERAGE_POLARIZABILITY>
59.88312412190663

> <JCHEM_BIOAVAILABILITY>
0

> <JCHEM_DONOR_COUNT>
4

> <JCHEM_FORMAL_CHARGE>
0

> <JCHEM_GHOSE_FILTER>
0

> <JCHEM_IUPAC>
2-ethylbutyl (2S)-2-{[(S)-{[(2R,3S,4R,5R)-5-{4-aminopyrrolo[2,1-f][1,2,4]triazin-7-yl}-5-cyano-3,4-dihydroxyoxolan-2-yl]methoxy}(phenoxy)phosphoryl]amino}propanoate

> <JCHEM_LOGP>
2.007206492000001

> <JCHEM_MDDR_LIKE_RULE>
1

> <JCHEM_NEUTRAL_CHARGE>
0

> <JCHEM_NUMBER_OF_RINGS>
4

> <JCHEM_PHYSIOLOGICAL_CHARGE>
0

> <JCHEM_PKA>
12.140645473906023

> <JCHEM_PKA_STRONGEST_ACIDIC>
10.234209703292144

> <JCHEM_PKA_STRONGEST_BASIC>
0.6479240250511147

> <JCHEM_POLAR_SURFACE_AREA>
203.54999999999995

> <JCHEM_REFRACTIVITY>
161.8087

> <JCHEM_ROTATABLE_BOND_COUNT>
14

> <JCHEM_RULE_OF_FIVE>
0

> <JCHEM_TRADITIONAL_IUPAC>
remdesivir

> <JCHEM_VEBER_RULE>
0

> <DRUGBANK_ID>
DB14761

> <DRUG_GROUPS>
approved; investigational

> <GENERIC_NAME>
Remdesivir

> <SYNONYMS>
Remdesivir; RemdÃ©sivir; Remdesivirum

> <PRODUCTS>
Veklury

$$$$
