
  Mrv1909 05112117362D          

 27 28  0  0  0  0            999 V2000
   -2.1403   -0.2105    0.0000 C   0  0  0  0  0  0  0  0  0  0  0  0
   -2.1510    0.6079    0.0000 C   0  0  0  0  0  0  0  0  0  0  0  0
   -2.8524   -0.6280    0.0000 C   0  0  0  0  0  0  0  0  0  0  0  0
   -1.4282   -0.6135    0.0000 C   0  0  0  0  0  0  0  0  0  0  0  0
   -1.4437    1.0330    0.0000 C   0  0  0  0  0  0  0  0  0  0  0  0
   -2.8721    1.0082    0.0000 C   0  0  0  0  0  0  0  0  0  0  0  0
   -2.8480   -1.4522    0.0000 C   0  0  0  0  0  0  0  0  0  0  0  0
   -3.5713   -0.2177    0.0000 C   0  0  0  0  0  0  0  0  0  0  0  0
   -0.7145   -0.1981    0.0000 C   0  0  0  0  0  0  0  0  0  0  0  0
   -1.4206   -1.4368    0.0000 C   0  0  0  0  0  0  0  0  0  0  0  0
   -1.4554    1.8574    0.0000 C   0  0  0  0  0  0  0  0  0  0  0  0
   -2.8876    1.8363    0.0000 C   0  0  0  0  0  0  0  0  0  0  0  0
   -3.5541   -1.8617    0.0000 C   0  0  0  0  0  0  0  0  0  0  0  0
   -4.2848   -0.6349    0.0000 C   0  0  0  0  0  0  0  0  0  0  0  0
   -0.0073   -0.5999    0.0000 O   0  0  0  0  0  0  0  0  0  0  0  0
   -0.7254    0.6246    0.0000 O   0  0  0  0  0  0  0  0  0  0  0  0
   -1.4121   -2.2551    0.0000 N   0  0  0  0  0  0  0  0  0  0  0  0
   -2.1906    2.2551    0.0000 C   0  0  0  0  0  0  0  0  0  0  0  0
   -4.2755   -1.4594    0.0000 C   0  0  0  0  0  0  0  0  0  0  0  0
    0.7068   -0.1885    0.0000 C   0  0  0  0  0  0  0  0  0  0  0  0
    1.4215   -0.5976    0.0000 C   0  0  0  0  0  0  0  0  0  0  0  0
    2.1381   -0.1835    0.0000 C   0  0  0  0  0  0  0  0  0  0  0  0
    1.4275   -1.4226    0.0000 C   0  0  0  0  0  0  0  0  0  0  0  0
    2.8546   -0.5969    0.0000 C   0  0  0  0  0  0  0  0  0  0  0  0
    0.7206   -1.8335    0.0000 C   0  0  0  0  0  0  0  0  0  0  0  0
    3.5690   -0.1838    0.0000 C   0  0  0  0  0  0  0  0  0  0  0  0
    4.2848   -0.5942    0.0000 C   0  0  0  0  0  0  0  0  0  0  0  0
  1  2  1  0  0  0  0
  1  3  1  0  0  0  0
  1  4  2  0  0  0  0
  2  5  1  0  0  0  0
  2  6  2  0  0  0  0
  3  7  1  0  0  0  0
  3  8  2  0  0  0  0
  4  9  1  0  0  0  0
  4 10  1  0  0  0  0
  5 11  2  0  0  0  0
  6 12  1  0  0  0  0
  7 13  2  0  0  0  0
  8 14  1  0  0  0  0
  9 15  1  0  0  0  0
  9 16  2  0  0  0  0
 10 17  3  0  0  0  0
 11 18  1  0  0  0  0
 13 19  1  0  0  0  0
 15 20  1  0  0  0  0
 20 21  1  0  0  0  0
 21 22  1  0  0  0  0
 21 23  1  0  0  0  0
 22 24  1  0  0  0  0
 23 25  1  0  0  0  0
 24 26  1  0  0  0  0
 26 27  1  0  0  0  0
 12 18  2  0  0  0  0
 14 19  2  0  0  0  0
M  END
> <DATABASE_ID>
DB09535

> <DATABASE_NAME>
drugbank

> <SMILES>
CCCCC(CC)COC(=O)C(C#N)=C(C1=CC=CC=C1)C1=CC=CC=C1

> <INCHI_IDENTIFIER>
InChI=1S/C24H27NO2/c1-3-5-12-19(4-2)18-27-24(26)22(17-25)23(20-13-8-6-9-14-20)21-15-10-7-11-16-21/h6-11,13-16,19H,3-5,12,18H2,1-2H3

> <INCHI_KEY>
FMJSMJQBSVNSBF-UHFFFAOYSA-N

> <FORMULA>
C24H27NO2

> <MOLECULAR_WEIGHT>
361.485

> <EXACT_MASS>
361.204179113

> <JCHEM_ACCEPTOR_COUNT>
2

> <JCHEM_ATOM_COUNT>
54

> <JCHEM_AVERAGE_NEUTRAL_MICROSPECIES_CHARGE>
0.0

> <JCHEM_AVERAGE_POLARIZABILITY>
41.42933663199116

> <JCHEM_BIOAVAILABILITY>
1

> <JCHEM_DONOR_COUNT>
0

> <JCHEM_FORMAL_CHARGE>
0

> <JCHEM_GHOSE_FILTER>
0

> <JCHEM_IUPAC>
2-ethylhexyl 2-cyano-3,3-diphenylprop-2-enoate

> <ALOGPS_LOGP>
6.23

> <JCHEM_LOGP>
6.782948684666667

> <ALOGPS_LOGS>
-5.36

> <JCHEM_MDDR_LIKE_RULE>
0

> <JCHEM_NEUTRAL_CHARGE>
0

> <JCHEM_NUMBER_OF_RINGS>
2

> <JCHEM_PHYSIOLOGICAL_CHARGE>
0

> <JCHEM_PKA_STRONGEST_BASIC>
-7.24693222629347

> <JCHEM_POLAR_SURFACE_AREA>
50.09

> <JCHEM_REFRACTIVITY>
118.58350000000003

> <JCHEM_ROTATABLE_BOND_COUNT>
10

> <JCHEM_RULE_OF_FIVE>
0

> <ALOGPS_SOLUBILITY>
1.57e-03 g/l

> <JCHEM_TRADITIONAL_IUPAC>
octocrylene

> <JCHEM_VEBER_RULE>
0

> <DRUGBANK_ID>
DB09535

> <DRUG_GROUPS>
approved; investigational

> <GENERIC_NAME>
Octocrylene

> <SYNONYMS>
Octocrileno; Octocrilenum; Octocrylene

> <PRODUCTS>
(Re)Setting Refreshing Mist SPF 40; 02 Cushion Spf45 Sunscreen; 100 SPF Cream; 1000 Roses Daily Shade Facial SPF 18; 14-day Skin Rescue SPF 30; 15 Continuous Spray Sunscreen With Instant Bronzer; 15 SPF Fps Premium Sunscreen; 15 SPF Fps Sunscreen Lotion Écran Solaire; 15 SPF Sunscreen Uva/uvb Protection Oil-free Milky Spray; 15 SPF Sunscreen Uva/uvb Protection Vitalizing Age-defying Cream; 15 Spray Gel Sunscreen With Instant Bronzer; 15 Tanning CVS; 2 in 1 Sunscreen and Gradual Self-Tanner; 2000dl-cl30; 24/7 Life Kids Sunscreen SPF 50; 24/7 Life Sunscreen SPF 30; 24/7 Life Sunscreen SPF 50; 24/7 Life by 7- Eleven Sunscreen Broad Spectrum SPF50; 24/7 Life by 7-Eleven Broad Spectrum SPF 50; 24/7 life by 7-Eleven Broad Spectrum SPF; 29 by LYDIA MONDAVI Napa Valley BROAD SPECTRUM SPF 30 D VINE DAY; 2X Sunblock SPF 50; 3-in-1 Face Moisturizer Broad Spectrum SPF 20; 30 Continuous Spray Sunscreen With Instant Bronzer; 30 Lotion Sunscreen Moisture Max; 30 SPF Fps Continuous Spray; 30 SPF Fps High Protection Sunscreen; 30 SPF Fps Kids High Protection Sunscreen; 30 SPF Fps Sunscreen Lotion Écran Solaire; 30 SPF Sunscreen Uva/uvb Protection Delicate Skin Ultra Soothing Lotion; 30 SPF Sunscreen Uva/uvb Protection High Protection Age-defying Cream; 30 SPF Sunscreen Uva/uvb Protection Oil-free Milky Spray; 30 SPF/fps Sunscreen Spray Écran Solaire En Vaporisateur; 30 Spray Gel Sunscreen With Instant Bronzer; 360 by QUR Lemon Verbena lip balm; 360 by QUR Spanish lime lip balm; 360 by QUR Vanilla lace lip balm; 360 by QUR Watercress mint lip balm; 3LAB PERFECT Sunscreen SPF 50 Plus Broad Spectrum; 3lab Ww Day Spf40 Broad Spectrum; 4 Spray Gel Sunscreen With Instant Bronzer; 4-IN-1 Broad Spectrum SPF 50 Sunscreen; 45 SPF Fps High Protection Sunscreen; 45 SPF Fps Sunscreen Lotion Écran Solaire; 45 SPF High Protection Uva Uvb Cream; 45 SPF Sunblock Spray; 45 SPF Sunscreen Spray; 50 Lotion Sunscreen Moisture Max; 50 SPF-fps Sunscreen; 50 Spray Gel Sunscreen With Instant Bronzer; 50+ Dry Touch CRème Protection Solaire Large Spectre Fps 50+ / Sun Protection Cream Broad Spectrum SPF 50+; 5281 Sunscreen; 5283 Sunscreen; 5298 Sunscreen; 5299 Sunscreen; 5407 Sunscreen; 5414 Sunscreen; 55 SPF/fps Sunscreen Lotion Écran Solaire; 60 SPF Stick Protection Ciblee Uva Uvb Anthelios XL; 7 In One Cc Tone Correcting; 7 Select Sport SPF 30; 7-Eleven Broad Spectrum SPF; 7-Select Sport SPF 50; 7-in-1 Anti-Aging Vitamin Moisturizer Broad Spectrum SPF15 Sunscreen; 70 Dry Touch SPF 70; 70 SPF Body Mist; 70 SPF Cream; 70 SPF Sunblock; 70 SPF/fps Sunscreen Lotion Écran Solaire; 85 SPF Cream; A Perfect World SPF 25 Age Defense Moisturizer With White Tea; A Perfect World SPF 35 Uv Broad Spectrum Face Protector; A Perfect World SPF 40 Age Defense Broad Spectrum Moisturizer With White Tea; A.H.C. COMPLETE CHOICE Moisture Cream; A.H.c Natural Plus Sun; AGE 20s SIGNATURE ESSENCE COVER PACT INTENSE COVER 13 IVORY; AGE 20s SIGNATURE ESSENCE COVER PACT INTENSE COVER 21 LIGHT BEIGE; AGE 20s SIGNATURE ESSENCE COVER PACT INTENSE COVER 23 MEDIUM BEIGE; AGE 20s SIGNATURE ESSENCE COVER PACT INTENSE COVER 23 MEDIUM TAN; AGE 20s SIGNATURE ESSENCE COVER PACT INTENSE COVER 31 MEDIUM TAN; AGE 20s SIGNATURE ESSENCE COVER PACT LONG STAY 13 IVORY; AGE 20s SIGNATURE ESSENCE COVER PACT LONG STAY 21 LIGHT BEIGE; AGE 20s SIGNATURE ESSENCE COVER PACT LONG STAY 23 MEDIUM BEIGE; AGE 20s SIGNATURE ESSENCE COVER PACT MOISTURE 13 IVORY; AGE 20s SIGNATURE ESSENCE COVER PACT MOISTURE 21 LIGHT BEIGE; AGE 20s SIGNATURE ESSENCE COVER PACT MOISTURE 23 MEDIUM BEIGE; AGE20s ESSENCE COVER PACT ORIGINAL WHITE LATTE 23; AGE20s SIGNATURE ESSENCE COVER PACT INTENSE COVER 13 IVORY; AGE20s SIGNATURE ESSENCE COVER PACT INTENSE COVER 21 LIGHT BEIGE; AGE20s SIGNATURE ESSENCE COVER PACT INTENSE COVER 23 MEDIUM BEIGE; AGE20s SIGNATURE ESSENCE COVER PACT LONG STAY 21 LIGHT BEIGE; AGE20s SIGNATURE ESSENCE COVER PACT MOISTURE 21 LIGHT BEIGE; AGELESS Total Rejuvenating Hand; AHAVA ACTIVE DEADSEA MINERALS AHAVA Age Control Even Tone Moisturizer Broad Spectrum SPF 20; AHAVA ACTIVE DEADSEA MINERALS Mineral Suncare spf 15; AHAVA ACTIVE DEADSEA MINERALS Mineral Suncare spf 30; AHAVA ACTIVE DEADSEA MINERALS Mineral Suncare spf 50; AHAVA ACTIVE DEADSEA MINERALS Mineral Suncare spf 50 face; AHAVA Protecting Body SPF30; AHAVA Protecting Moisturizing SPF50; AL00378 Alba Cool Sport Sunscreen SPF50; AL0038100 Alba HW Sunscreen Coconut Milk SPF50; AL0038100 Alba VE Sunscreen Fragrance Free SPF50; AL0038200 Alba VE Sunscreen Kids SPF50; AL0038400 Alba Botanica Fast Fix Sun SPF30; AL0038502 Alba Tropical Fruit Kids Sunscreen SPF40; AL0039006 Alba Sport Sunscreen Fragrance Free SPF45; AL0043800 Alba Botanica Sheer Shield Sunscreen FF SPF50; AL0082706 Alba Botanica HW Sunscreen Green Tea SPF45; AL0083103 Alba Hawaiian Dry Coconut Sunscreen SPF15; ALGODEFENSE Rides Multi Protectrice Multi-Protective Wrinkle Cream Sunscreen Broad Spectrum SPF20; ALOE UP Broad Spectrum SPF 15 Sunscreen; ALOE UP Broad Spectrum SPF 30 Sunscreen; ALOE UP Broad Spectrum SPF 50 Sunscreen; ALOE UP Kids Broad Spectrum SPF 50 Sunscreen; AMBI Even and Clear Facial Moisturizer SPF-30; AMBI SKINCARE Even and Clear Daily Facial Moisturizer SPF 30; AMBI Sunscreen; AMOREPACIFIC FUTURE RESPONSE Age Defense SPF30; ANEW Solar Advance Sunscreen Body Mist; ANNA LOTAN Clear Protector Free Broad Spectrum SPF 32 Sunscreen; APPLE OF SODOM Deep Wrinkle Broad Spectrum SPF30; ASYSTEM Daily Defense Moisturizer SPF30; Abalone Crystaldouble EX Bb; Abib Quick Sunstick Protection Bar; Absolue Creme SPF 15; Absolue Fluide SPF 15; Absolue Hand SPF 15; Absolue Premium Bx Sunscreen Broad Spectrum SPF 15 Absolute Replenishing; Absolue Velvet Cream With Broad Spectrum SPF 15; Absolutely Ageless Daily Moisturizer; Abyssine Cream + SPF 23; Academy Continuous SPF 50; Academy Continuous Sport SPF 50; Academy SPF 50; Academy Sport SPF 30; Academy Sport SPF 50; Academy Sport Smart Care Kids SPF 50 Sunscreen; Academy Sports Outdoors SUNSCREEN CONTINUOUS BROAD SPECTRUM SPF 50 Water-Resistant; Academy Sports Outdoors SUNSCREEN CONTINUOUS SPORT BROAD SPECTRUM SPF 50 Water-Resistant; Active; Active Protection Fresh Grapefruit Sunscreen Lip Balm; Active Protection Lemon Twist Sunscreen Lip Balm; Active Protection With Aloe; Active Radiance Day Moisture SPF 30; Active SPF 30; Active SPF 45; Active Sport; Active Sport Family Sunscreen SPF 35; Active Sunscreen Lotion SPF 50; Acwell Daily Sun Control; Advanced Anti-Wrinkle Therapy Cicatricure; Advanced Ceramide Lift and Firm Day Cream Broad Spectrum Sunscreen SPF 15; Advanced Dynamics Soothing day Moisture Broad Spectrum SPF 15 Jafra; Advanced Firming and Anti Wrinkle; Advanced Firming and Anti-Wrinkle Moisturizer Day Broad Spectrum SPF18 Sunscreen; Advanced Revital; Advanced Time Zone Age Reversing Line Wrinkle Broad Spectrum SPF 15 Dry Skin; Aegis Daily Facial SPF 25; Affinia Facial Moisturizer; After Shave Broad Spectrum SPF 15; Age 20s ESSENCE COVER PACT ORIGINAL PINK LATTE 13; Age 20s ESSENCE COVER PACT ORIGINAL PINK LATTE 21; Age 20s ESSENCE COVER PACT ORIGINAL PINK LATTE 23; Age 20s ESSENCE COVER PACT ORIGINAL WHITE LATTE 13; Age 20s ESSENCE COVER PACT ORIGINAL WHITE LATTE 21; Age 20s ESSENCE COVER PACT ORIGINAL WHITE LATTE 23; Age 20s ESSENCE COVER PACT ORIGINAL WHITE LATTE 25; Age 20s ESSENCE COVER PACT ORIGINAL WHITE LATTE 35; Age 20s ESSENCE COVER PACT WHITE DARK BE-35; Age 20s ESSENCE COVER PACT WHITE DEEP BE-25; Age Balancing Moisture Broad Spectrum SPF 30 | Pa+++; Age Defying Hydrating Sunscreen SPF 30; Age Fitness Power 2 SPF 15; Age Iq Sunscreen Gel Broad Spectrum SPF 40; Age Minimize 3d Day Cream SPF 30 Broad Spectrum Sunscreen; Age Perfect Glow Renewal SPF 30 Day Lotion Moisturizer; Age Perfect Hydra-nutrition Ultra-nourishing Lotion; Age Perfect Rosy Tone Day Cream; Age Renewal Deep Wrinkle Moisturizer; Age Shield Face + Moisturizing Repair; Age Shield Face Sunscreen SPF 110; Age Shield Face Sunscreen SPF 60; Age Shield Face Sunscreen SPF 85; Age and Pollution protector Broad Spectrum SPF 50; Age-fighting Moisturizer Sunscreen SPF 30; Ahava Active Deadsea Minerals Age Control Even Tone Moisturizer Broad Spectrum Spf20; Ahava Active Deadsea Minerals Time To Energize Age Control Moisturizing Broad Spectrum Spf15; Ahava Active Deadsea Minerals Time To Hydrate Essential Lip Balm Broad Spectrum Spf15; Ahava Active Deadsea Minerals Time To Hydrate Essential Moisturizing Broad Spectrum Spf15; Ahava Age Perfecting Broad Spectrum Spf15; Alba Body Daily Shade SPF15; Alba Botanica Even Advanced Moisturizer SPF15; Alba Botanica Facial Sunscreen FF SPF30; Alba Botanica HW Sunscreen Aloe Vera SPF30; Alba Botanica HW Sunscreen Green Tea SPF45; Alba Botanica Kids SunscreenTropical Fruit SPF45; Alba Botanica Natural Even Advanced Sea Moss Moisturizer SPF15; Alba Botanica Natural Very Emollient Daily Shade SPF15; Alba Botanica Natural Very Emollient Sunscreen Kids SPF40; Alba Botanica Natural Very Emollient Sunscreen Sport Spray SPF40; Alba Botanica Pure Lavender Sunscreen SPF45; Alba Botanica Sensitive FF Sunscreen SPF30; Alba Botanica VE Daily Shade SPF15 Body; Alba Botanica Very Emollient / Très Émollient Lavender Fragrance Sunscreen Lotion/lotion Écran Solaire À Parfum De Lavande SPF Fps 45; Alba Botanica Very Emollient / Très Émollient Sport Sunscreen Lotion / Lotion Écran Solaire Sport SPF Fps 45; Alba Botanica Very Emollient/très Émollient Fragrance Free Facial Sunscreen Lotion/lotion Écran Solaire Non Parfumée Pour Le Visage SPF Fps 30; Alba Botanica Very Emollient/très Émollient Kids Sunscreen Lotion/lotion Écran Solaire Pour Enfants SPF Fps 45; Alba Even Advanced Sea Moss Moisturizer SPF15; Alba HW Sunscreen Soothing Aloe Vera SPF30; Alba Hawaiian Aloe Vera Sunblock SPF 30; Alba Hawaiian Coconut Siscreen SPF 15; Alba Hawaiian Green Tea Sunblock SPF 45; Alba Hawaiian Sunscreen Green Tea SPF45; Alba HawaiianDry Sunscreen SPF15; Alba Lip Care Sunblock SPF 25; Alba Sunblock Natural FF SPF 30; Alba Sunblock Natural Facial SPF 30; Alba Sunblock Natural Kids SPF 45; Alba Sunblock Natural Lavender SPF 45; Alba Sunblock Natural Sport SPF 45; Alba VE Facial Sunscreen SPF30; Alba VE Sunscreen SPF30 Fragrance Free; Alba VE Sunscreen Sport SPF45; Alba Very Emollient Sunscreen Lip Care SPF25; Aldi Lacura Kids SPF 50 Sunscreen; Aldi Lacura Sport SPF 50; All Aglow Perfect Cushion Foundation; All Around Safe Block Aqua Sun Gel; All Day Moisture with AHAs SPF 15 Broad Spectrum Sunscreen; All Sport Non-freeze Face Protector SPF 30; All-IN-one Lightweight Moisturizer Broad Spectrum Sunscreen SPF 30; Almay Healthy Biome Makeup; Aloe Ice SPF 20; Aloe Ice SPF 50; Aloe Ice White SPF 30; Aloe Soothing Moisture Lotion SPF 15; Aloe Soothing Moisture SPF 15; Aloe Sunscreen; Aloe Up Broad Spectrum SPF 15; Aloe Up Broad Spectrum SPF 30; Aloe Up Broad Spectrum SPF 30 Sunscreen; Aloe Up Broad Spectrum SPF 50; Aloe Up Broad Spectrum SPF 50 Sunscreen; Aloe Up Coco-mango SPF-10; Aloe Up Coco-mango SPF-50; Aloe Up Dark Tanning Oil SPF 4; Aloe Up Kids SPF 50; Aloe Up Kids Sport Sunscreen SPF 50; Aloe Up Light Tanning Oil SPF-6; Aloe Up Lil Kids Continuous Sunscreen SPF 50; Aloe Up Lil Kids SPF 50; Aloe Up Medicated Lip Balm SPF 30; Aloe Up Natural Lip Ice Sunscreen SPF 15; Aloe Up Pro 15; Aloe Up Pro 30 Continuous Sunscreen; Aloe Up Pro 50 Continuous Sunscreen; Aloe Up Pro SPF 30 Sunscreen; Aloe Up Pro SPF 30 Ultra Sport Sunscreen; Aloe Up Pro SPF 50 Advanced Formula Ultra Sport Sunscreen; Aloe Up Pro SPF 50 Lotion; Aloe Up SPF 30 C/S Sunscreen with Aloe Vera; Aloe Up SPF 30 Coco-Mango C-spray; Aloe Up SPF 50 C/S Sunscreen with Aloe Vera; Aloe Up SPF 50 Coco-Mango C-spray; Aloe Up Sport Natural Balm SPF-15; Aloe Up Sport SPF 30 C-Spray; Aloe Up Sport SPF 50 C-spray; Aloe Up Sport SPF-15; Aloe Up Sport SPF-50; Aloe Up Sunscreen SPF 50; Alyria Skin Optimizing System-corrective Protection-SPF 30 Mist; Am/pm Anti-wrinkle Complex SPF 15; Ambi Essentials; Ambi Essentials Daily Moisturizer Sunscreen Broad Spectrum SPF15; Ambi Even and Clear Daily Moisturizer Sunscreen Broad Spectrum SPF30; Ambient Lip Shield Stick SPF 45; American Crew All In One Face Balm Broad Spectrum SPF 15; American Crew All-IN-one Face Balm SPF 15; Amerisource Bergen Good Neighbor Pharmacy Sport SPF 50; Amish Origins SPF 15 Lip Balm; Amla Glow Ultra Hydrating Day Moisturizer Broad Spectrum SPF 25 Sunscreen; Amorepacific Future Response Age Defense CRème SPF 30; Amorepacific Future Response Age Defense Dual Eye CRème With SPF 25 Sunscreen; Amorepacific Future Response Age Defense Dual Eye With SPF 25 Sunscreen; Amorepacific Natural Protector; Amorepacific Resort Collection Sun Protection; Amorepacific Resort Collection Sun Protection Mist; Amorepacific Resort Collection Sun Protection Mist Broad Spectrum SPF 30 Sunscreen; Anew Clinical Skinvincible Multi-Shield; Anew Hydra Fusion Daily Beauty Defense; Anew Men Daily Moisturizer; Anew Neutralize; Anew Skinvincible Day; Anew Skinvincible Day Lotion Broad Spectrum SPF 50 Sunscreen; Anew Solar Advance Sunscreen Body; Anew Solor Advance Sunscreen Face; Anew Sun Sunscreen Body Lotion; Anew Sun Sunscreen Body Mist Lotion; Anew Sun Sunscreen Face Lotion; Angelica Protective SPF 15; Anna Lotan Clear Silky Sunscreen Gel Broad Spectrum SPF30; Anthelios - Lait SPF 45; Anthelios Dermo-kids; Anthelios Lotion Corps Ultra-fluide; Anthelios Mist; Anthelios SPF 45; Anthelios Spray SPF 30; Anthelios Spray SPF 45; Anthelios Ultra-fluid Lotion; Anthelios XL Cream SPF 60; Anthelios XL Melt-IN Cream; Anthelios XL Stick; Antherpos; Anti Aging Vitamin Complex; Anti-Aging Complex SPF 30 Merle Norman; Anti-Aging Day Broad Spectrum SPF 30 La Prairie Group AG; Anti-Aging Day SPF 30; Anti-Aging Vitamin Complex 7-in-1 Broad Spectrum SPF15 Sunscreen; Anti-Wrinkle Day Cream Suncreen Broad Spectrum SPF 30; Anti-aging Complex Broad Spectrum SPF 30; Anti-aging Complex Emulsion Broad Spectrum SPF 30; Anti-aging Day Sunscreen Broad Spectrum SPF 30; Anti-aging Facial Moisturizer SPF/fps 70; Anti-aging Follow-UP Daycare SPF 15; Anti-aging Moisturizing Complex-UV Protection; Anti-shine Anthelios XL Dry Touch Gel-cream; Anti-shine Dry Touch Uv Lotion; Anti-wrinkle Intensive Day Cream; Anti-wrinkle and Firming Broad Spectrum Spf18 Sunscreen; Antioxidant Body Sunscreen Creme Spf50 Broad Spectrum; April Skin Magic Snow Cushion SPF50 PLUS (15g) (Natural Beige); April Skin Magic Snow Cushion SPF50 PLUS (15g) (Pink Beige); Aprilskin Magic Essence Shower Cushion 21 Light Beige; Aprilskin Magic Essence Shower Cushion 23 Natural Beige; Aqua Soleil CRème Visage Et Corps Fps 35; Aqua Soleil CRème Visage Fps 30; Aqua Soleil Creme Visage Et Corps Fps 35; Aqua-fluid; Aquaderm-30; Aquaderm-30 Sunscreen Lotion; Aquagel Defense 50; Aqualia Thermal Uv; Aqualia Thermal Uv Defense Moisturizing Cream Spf30; Aqualia Thermal Uv SPF 20; Aquaphor Lip Protectant and Sunscreen; Aquaphor Lip Repair Stick and Sunscreen; Aquaphor Lip Repair and Protect; Aquapower; Aquasource Non Stop SPF 15 - Peau Normale Mixte; Aquasource Non Stop SPF 15 - Peau Seche; Arbonne International Before Sun Water Resistant Sunscreen SPF 30; Arbonne International Lip Saver Sunscreen SPF 30; Arbonne Lip Saver Sunscreen SPF 30; Arbonne Made In The Shade Self-tanner With SPF 15; Arbonne RE9 Advanced Extra Moisture Restorative Day SPF 20; Arbonne RE9 Advanced Restorative Day Broad Spectrum SPF 20; Arbonne RE9 Advanced for Men Facial Moisturizer Broad Spectrum SPF 20; Arbonne RE9 Advanced for Men Facial Moisturizer SPF 20; Arbonne Revelage Age Spot Brightening Day with SPF 30; Arbonne Revelage Age Spot Brightening Hand Therapy with SPF 30; Arbonne Water-resistant Sunscreen SPF 30; Art Of Sport Skin Armor High Performance Broad Spectrum SPF-50 Sunscreen; Artistry Skin Nutrition BALANCING Matte Day; Artistry Skin Nutrition Balancing Matte Day Lotion; Artistry Skin Nutrition HYDRATING Day; Artistry Skin Nutrition Hydrating Day Lotion; Artistry Skin Nutrition RENEWING Reactivation Day Cream SPF 30; Artistry Skin Nutrition RENEWING Reactivation Day SPF 30; Artistry Skin Nutrition Renewing Reactivation Day Cream; Artistry Skin Nutrition Renewing Reactivation Day Lotion; Aruba Aloe Very Water Resistant Sunscreen SPF 50; Aruba Sun SPF 30 Sunscreen; Aruba Sun SPF 50 Sunscreen; Aruba Sun SPF 70 Sunscreen; Atomy Sun; Aubio Hydrating Lip Therapy Broad Spectrum SPF 30 Sunscreen; Aubio Life Sciences Lip; Aureli Broad Spectrum; Austalian Gold Broad Spectrum SPF 15 Sunscreen; Austalian Gold Broad Spectrum SPF 30 Sunscreen; Austalian Gold Broad Spectrum SPF 50 Sunscreen; Austalian Gold SPF 6 Sunscreen LOW PROTECTION; Austalian Gold Sensitive Sun protection SPF 50; Austalian Gold Sunscreen stick SPF 50 high protection; Australian Gold BOAD SPECTRUM SPF 30; Australian Gold BOAD SPECTRUM SPF 50; Australian Gold BROAD SPECTRUM SPF 15; Australian Gold BROAD SPECTRUM SPF 15 Sunscreen; Australian Gold BROAD SPECTRUM SPF 30; Australian Gold BROAD SPECTRUM SPF 30 Sunscreen; Australian Gold BROAD SPECTRUM SPF 30 X-treme Sport Sunscreen; Australian Gold BROAD SPECTRUM SPF 4; Australian Gold BROAD SPECTRUM SPF 50; Australian Gold BROAD SPECTRUM SPF 50 X-treme Sport Sunscreen; Australian Gold BROAD SPECTRUM SPF 8; Australian Gold Botanical 70 Broad Spectrum SPF 70; Australian Gold Botanical Broad Spectrum SPF 70; Australian Gold Botanical SPF 50; Australian Gold Botanical Sunscreen Broad Spectrum SPF 30 Natural; Australian Gold Botanical Sunscreen Broad Spectrum SPF 50 Natural; Australian Gold Broad Spectrum 30; Australian Gold Broad Spectrum SPF 15; Australian Gold Broad Spectrum SPF 30; Australian Gold Broad Spectrum SPF 30 Sheer Sunscreen; Australian Gold Broad Spectrum SPF 30 with invisidry Technology; Australian Gold Broad Spectrum SPF 4; Australian Gold Broad Spectrum SPF 4 Sunscreen; Australian Gold Broad Spectrum SPF 45; Australian Gold Broad Spectrum SPF 50; Australian Gold Broad Spectrum SPF 50 Sunscreen; Australian Gold Broad Spectrum SPF 8; Australian Gold Carrot Oil Formula Broad Spectrum SPF 4; Australian Gold Exotic Blend spf8; Australian Gold Extreme Sport SPF 30; Australian Gold Hello Kitty Broad Spectrum 50; Australian Gold Instant Bronzer 15 sunscreen; Australian Gold Instant Bronzer 30 sunscreen; Australian Gold Instant Bronzer Broad Spectrum SPF 15; Australian Gold Instant Bronzer Broad Spectrum SPF 30; Australian Gold Instant Bronzer Broad Spectrum SPF 4 Sunscreen; Australian Gold Instant Bronzer SPF 15 Sunscreen; Australian Gold Instant Bronzer SPF 8 Sunscreen; Australian Gold Instant Brozer SPF 30 Sunscreen; Australian Gold Invisidry Technology Oil-Free Formula Broad Spectrum SPF 30; Australian Gold Just Shine SPF 50 Glitter Sunscreen; Australian Gold Justice SPF 50 Glitter Sunscreen; Australian Gold Little Joey SPF 50; Australian Gold Mermaid SPF 50 Glitter Sunscreen; Australian Gold SPF 15; Australian Gold SPF 15 C/S Sunscreen with Bronzer; Australian Gold SPF 15 Sheer Coverage Sunscreen; Australian Gold SPF 15 Sunscreen; Australian Gold SPF 30; Australian Gold SPF 30 Sport Ultra Chill; Australian Gold SPF 30 Sunscreen; Australian Gold SPF 30 with insect repellent; Australian Gold SPF 4 Sunscreen; Australian Gold SPF 50; Australian Gold SPF 50 Sunscreen with Instant Bronzer; Australian Gold SPF 6 Bronzer Oxybenzone; Australian Gold SPF 70; Australian Gold X-treme Sport SPF 30 C/S Sunscreen; Australian Gold little joey SPF 50; Autobronzant Creme Fps 15; Autobronzant Vapo Fps 15; Avail Body with Sunscreen; Avail Facial Sunscreen SPF 25; Avail Lip Balm with Sunscreen; Aveeno ABSOLUTELY AGELESS leave-on day mask Broad Spectrum SPF 30; Aveeno ACTIVE NATURALS absolutely ageless leave-on day mask Broad Spectrum SPF30; Aveeno ACTIVE NATURALS positively radiant sheer daily moisturizer Broad Spectrum SPF 30; Aveeno ACTIVE NATURALS protect Plus hydrate sunscreen BROAD SPECTRUM SPF30; Aveeno Absolutely Ageless Daily Moisturizer Broad Spectrum SPF30; Aveeno Absolutely Ageless Daily Moisturizer Sunscreen Broad Spectrum SPF30; Aveeno Active Naturals Ageless Vitality Rejuvenating Day Moisturizer SPF 30; Aveeno Active Naturals Daily Moisturizing Broad Spectrum SPF15; Aveeno Active Naturals Hydrosport Sunblock SPF 50; Aveeno Active Naturals Hydrosport Sunblock SPF 85; Aveeno Active Naturals Hydrosport Sunblock SPF30; Aveeno Active Naturals Hydrosport Sunscreen Broad Spectrum SPF30; Aveeno Active Naturals Hydrosport Sunscreen Broad spectrum SPF30; Aveeno Active Naturals Hydrosport Sunscreen Lotion SPF 85; Aveeno Active Naturals Hydrosport Sunscreen Spray SPF 85; Aveeno Active Naturals Positively Ageless Daily Antioxidant Defense Moisturizer SPF 42; Aveeno Active Naturals Positively Ageless Day; Aveeno Active Naturals Positively Ageless Multidefense Daily Moisturizer SPF 42; Aveeno Active Naturals Positively Ageless Youth Perfecting Moisturizer SPF 30; Aveeno Active Naturals Positively Ageless Youth Perfecting Moisturizer Sunscreen Broad Spectrum SPF30; Aveeno Active Naturals Positively Radiant Daily Moisturizer with sunscreen Broad Spectrum SPF30; Aveeno Active Naturals Protect + Hydrate SPF 30; Aveeno Active Naturals Protect + Hydrate SPF 45; Aveeno Active Naturals Protect + Hydrate SPF 60; Aveeno Active Naturals Protect Plus Hydrate Sunscreen Broad Spectrum SPF 70; Aveeno Active Naturals Protect Plus Hydrate Sunscreen Broad Spectrum SPF50 For Face; Aveeno Active Naturals Protect Plus Hydrate Sunscreen Broad Spectrum SPF50 for face; Aveeno Active Naturals Smart Essentials Daily Nourishing Moisturizer SPF 30; Aveeno Active Naturals Smart Essentials Daily Nourishing Moisturizer Sunscreen Broad Spectrum SPF30; Aveeno Active Naturals Sunscreen Lotion Face Spf60; Aveeno Active Naturals Sunscreen Lotion SPF 30; Aveeno Active Naturals Sunscreen Lotion SPF 45; Aveeno Active Naturals Sunscreen Lotion SPF 55; Aveeno Active Naturals Sunscreen Spray SPF 30; Aveeno Active Naturals Sunscreen Spray SPF 45; Aveeno Baby Continuous Protection Sunscreen Broad Spectrum SPF55; Aveeno Baby Sunblock Lotion SPF 45; Aveeno Baby Sunscreen Lotion SPF 55; Aveeno Clear Complexion Sheer Daily Moisturizer Sunscreen Broad Spectrum SPF 30; Aveeno Continuous Protection Face SPF100 Plus; Aveeno Continuous Protection SPF 30; Aveeno Continuous Protection SPF85; Aveeno DAILY MOISTURIZING SUNSCREEN BROAD SPECTRUM SPF 15; Aveeno Daily Moisturizing SPF15; Aveeno Hydrosport Sunscreen Wet Skin Broad Spectrum SPF 30; Aveeno POSITIVELY RADIANT sheer daily moisturizer sunscreen BROAD SPECTRUM SPF 30; Aveeno PROTECT plus HYDRATE sunscreen BROAD SPECTRUM SPF 50 FOR FACE; Aveeno Positively Ageless Complete; Aveeno Positively Ageless Complete Anti Aging System; Aveeno Positively Ageless Daily Moisturizer SPF 30; Aveeno Positively Ageless Face SPF90; Aveeno Positively Ageless SPF55; Aveeno Positively Ageless SPF70; Aveeno Positively Radiant Daily Moisturizer SPF 15; Aveeno Positively Radiant Daily Moisturizer Sunscreen Broad Spectrum SPF 15; Aveeno Positively Radiant Daily Moisturizer Sunscreen Broad Spectrum SPF 30; Aveeno Positively Radiant Daily Moisturizer sunscreen Broad Spectrum SPF30; Aveeno Protect Plus Hydrate Sunscreen Broad Spectrum Body SPF 30; Aveeno Protect Plus Hydrate Sunscreen Broad Spectrum Body SPF 60; Aveeno Protect Plus Hydrate Sunscreen Broad Spectrum Face SPF 60; Aveeno Protect Plus Hydrate Sunscreen Broad Spectrum SPF 30; Aveeno Protect Plus Hydrate Sunscreen Broad Spectrum SPF 70; Aveeno Protect Plus Hydrate Sunscreen Broad Spectrum SPF30; Aveeno Protect Plus Hydrate Sunscreen Broad Spectrum SPF50; Aveeno Protect Plus Hydrate Sunscreen Broad Spectrum SPF70; Aveeno Protect Plus Refresh Sunscreen Broad Spectrum Body SPF 60; Aveeno Sunblock Spray SPF 45; Aveeno Sunscreen Lotion Face SPF 30; Aveeno Sunscreen Lotion SPF 100; Avobenzone 3% Homosalate 10% Octisalate 5% Octocrylene 10%; Avobenzone, Homosalate, Octisalate, Octocrylene; Avobenzone, Homosalate, Octisalate, Octocrylene, Oxybenzone; Avon Moisture Therapy Soothing Lip Balm SPF 15; Avon Oil-free Sunscreen Spray SPF 15 Liq; Avon Sun Sport Refresh Sunscreen; Avon Sun Sunscreen; Avon Sun Sunscreen Face; Awaken by Quality Choice Anti-Wrinkle and Firming Moisturizer Day Broad Spectrum SPF18 Sunscreen; Awaken by Quality Choice Illuminating Daily Moisturizer Broad Spectrum SPF 15 Sunscreen; Awaken by Quality Choice Long-Lasting Oil-Free Moisturizer Broad Spectrum SPF 15; BABYGANICS SPF 50 Plus SUNSCREEN; BANILA CO Prime Primer Sun; BASK Broad Spectrum SPF 50; BEACH GYPSY Glitter Sunscreen SPF 30; BEAST SPIT and POLISH FACE SPF-20; BENEFIT Triple Performing Facial Broad Spectrum SPF15; BEYOND THE SHAVE For Men; BIOCORNEUM PLUS BROAD SPECTRUM SPF 30 ADVANCED SCAR TREATMENT gel; BLI Holding Miami Beach kids spf 50; BLI Holdings MIAMI BEACH Kids spf 50; BODY DEFENCE SUNSCREEN Broad Spectrum SPF30; BOTANIC HEAL boH Dual Primer Sun No 1; BOTANIC HEAL boH Dual Primer Sun No 2; BOTANIC HEAL boH Smart Tone Up Sun; BRICKELL Element Defense Moisturizer SPF-45; BULLFROG DEET FREE Mosquito Coast Sunscreen with Insect Repellent SPF 30; BULLFROG KIDS Sunscreen Broad Spectrum SPF 50 Plus; BULLFROG Marathon Mist Sunscreen Broad Spectrum SPF 36; BULLFROG Marathon Mist Sunscreen Broad Spectrum SPF 50; BULLFROG Water Armor SPORT 50 Plus InstaCool Sunscreen Broad Spectrum; Baby; Baby Blanket Sunscreen Stick for Babies; Baby Broad Spectrum SPF 50 DG body; Baby Faces 45 SPF Sunscreen Spray; Baby Faces 50 SPF Sunblock; Baby Faces 50 SPF-fps Sunscreen Spray; Baby Faces 50 SPF/fps; Baby Gentle Sunscreen SPF 50; Baby Lotion SPF 50; Baby Sunscreen Broad Spectrum SPF 60 Lotion; Baby Sunscreen SPF 50; Baby Sunscreen SPF 50 tugaboos; Baby Sunscreen Stick Écran Solaire En Bâtonnet SPF Fps 50; Baby Sunstick SPF 55 CVS; Baby Tear Free Sans Larmes Sunscreen Spray Ecran Solaire En Vaporisateur Pour Bebes SPF/fps 50; Baby Tear Free/sans Larmes Sunscreen Spray/écran Solaire En Vaporisateur Pour Bebes SPF Fps 60; Baby Zone SPF 30 Sunscreen; Bain De Soleil 6-hour Waterp.sport Lot.SPF 8; Bain De Soleil 6-hour Waterp.sport Lot.spf15; Bain De Soleil 6-hour Waterproof Lot. SPF 15; Bain De Soleil 6-hour Waterproof Lotion Spf4; Bain De Soleil 6-hour Waterproof Lotion Spf8; Bain De Soleil All Day Lot. for Babies Spf30; Bain De Soleil All Day Lot. for Kids Spf30; Bain De Soleil All Day Lotion SPF 30; Bain De Soleil Fps 4; Bain De Soleil Longue Duree Pur Bebes Spf30; Bain De Soleil Lot Longue Duree Fps 15; Bain De Soleil Lot.longue Dur.pour Enf.fps30; Bain De Soleil Lotion Longue Duree Fps 30; Bain De Soleil Lotion Longue Duree Fps 8; Bain De Soleil Lotion Mega Tan Fps 4; Bain De Soleil Lotion Sport SPF 15; Bain De Soleil Lotion Sport SPF 8; Bain De Soleil Mega Tan Lotion SPF 30; Bain De Soleil Mega Tan Lotion SPF 4 - Lot; Bain De Soleil Oil-free Protecteur SPF-25; Bain De Soleil Orange Gelee SPF 8; Bain De Soleil Orange Gelee SPF-15; Bain De Soleil Sos SPF 15; Bain De Soleil Sos SPF 30; Bain De Soleil Tanning Mist SPF 8; Bain De Soleil Tanning Mist Spf4; Bain de Soleil Mega Tan SPF 4; Balancing Emulsion With Green Tea; Bali Body BB Cream SPF 15; Bali Body BB Cream SPF 15 Natural; Bali Body BB Cream SPF 15 Tan; Bali Body Cacao Tanning Oil SPF15; Bali Body Cacao Tanning Oil SPF6; Bali Body Coconut Lip Balm SPF 15; Bali Body Face and Body Sunscreen SPF 50; Bali Body Hydrating Body Sunscreen SPF50; Bali Body Hydrating Face Sunscreen SPF50; Bali Body Pineapple Tanning Oil SPF6; Bali Body SPF 15 Cacao Tanning Oil; Bali Body SPF 15 Pineapple Tanning Oil; Bali Body SPF 6 Grape Tanning Oil; Bali Body SPF 6 Peach Tanning Oil; Bali Body SPF Cacao Tanning Oil; Bali Body SPF Pineapple Tanning Oil SPF 6; Bali Body Tanning and Body Oil SPF 15; Bali Body Tanning and Body Oil SPF 6; Baléa Face Lip Balm SPF 30; Banana Boat; Banana Boat Aceite Bronceador Seco Tanning Dry SPF 6; Banana Boat Active Kids Sunblock Lot SPF 50; Banana Boat Aloe Vera Lip Balm Spf30; Banana Boat Baby Block Sunblock Lotion SPF 50; Banana Boat Baby Mineral Enriched Sunscreen UVA/UVB Protection Broad Spectrum SPF 50PLUS; Banana Boat Baby Sin Lagrimas SPF 50 Pump; Banana Boat Baby Sunblock Lot SPF 50; Banana Boat Baby Sunblock Lotion SPF 50; Banana Boat Baby Sunscreen Lotion SPF/fps 60; Banana Boat Baby Sunscreen Spray SPF/fps 60; Banana Boat Baby Tear Free Lotion SPF 50; Banana Boat Baby Tear Free Sunscreen SPF 60; Banana Boat Daily Protect Sunscreen Lotion SPF 30; Banana Boat Daily Protect Sunscreen Lotion SPF 50+; Banana Boat Daily Protect Sunscreen Spray SPF 30; Banana Boat Daily Protect Sunscreen Spray SPF 50+; Banana Boat Deep Tanning Dry SPF 4; Banana Boat Deep Tanning Dry SPF 8; Banana Boat Dry Balance Clear Sunscreen Broad Spectrum SPF 30; Banana Boat Dry Balance Clear Sunscreen SPF 50; Banana Boat Everyday Glow; Banana Boat Kids Free 50; Banana Boat Kids Free Continuous Spray Sunscreen SPF 50+; Banana Boat Kids Protect and Play SPF 50; Banana Boat Kids Protect and Play SPF 85; Banana Boat Kids SPF 65 Clear Sunscreen; Banana Boat Kids Sin Lagrimas Pump SPF 50; Banana Boat Kids Sport Sunscreen Roll-On UVA/UVB Broad Spectrum SPF 60 Plus; Banana Boat Kids Sunblock Spf50; Banana Boat Kids Sunblock Stick SPF 30; Banana Boat Kids Sunscreen Lotion SPF/fps 60; Banana Boat Kids Sunscreen Spray SPF 50+; Banana Boat Kids Sunscreen Spray SPF/fps 60; Banana Boat Kids Tear Free Continuous SPF 50; Banana Boat Kids Tear Free Sunscreen SPF 60; Banana Boat Kids Tear-free Sunscreen Spray SPF 50+; Banana Boat Kids UltraMist Tear Free SPF 30; Banana Boat Light as air face SUNSCREEN UVA UVB Broad Spectrum SPF 50; Banana Boat Mens SPF 30; Banana Boat Mens SPF 50 Plus; Banana Boat Protect and Hydrate SPF 30; Banana Boat Protect and Hydrate SPF 50 Plus; Banana Boat Protection Plus Vitamins Face Sunscreen Uva/uvb Broad Spectrum SPF 50; Banana Boat Protection Plus Vitamins Sunscreen Uva/uvb Borad Spectrum SPF 30; Banana Boat Protection Plus Vitamins Sunscreen Uva/uvb Borad Spectrum SPF 50; Banana Boat Protection Plus Vitamins Sunscreen Uva/uvb Broad Spectrum SPF 50; Banana Boat Protective Dry SPF 10; Banana Boat Protective Dry SPF 15; Banana Boat Protective Dry SPF 6; Banana Boat Quik Dri Sport Body and Scalp SPF 30; Banana Boat Simply Protect Baby Baby Sunscreen Spray SPF 50+; Banana Boat Simply Protect Kids Kids Sunscreen Spray SPF 50+; Banana Boat Simply Protect Kids Sunscreen Lotion Spray SPF 50+; Banana Boat Simply Protect Sensitive Faces Visages Suncreen Lotion SPF 50 Plus; Banana Boat Simply Protect Sensitive Sunscreen Lotion SPF 50 Plus; Banana Boat Simply Protect Sport Sunscreen Lotion SPF 50+; Banana Boat Simply Protect Sport Sunscreen Spray SPF 50+; Banana Boat Sport Body and Scalp SPF 30; Banana Boat Sport Performance; Banana Boat Sport Performance Active Dry Protect SPF UVB 50; Banana Boat Sport Performance Active Dry protect; Banana Boat Sport Performance SPF 15; Banana Boat Sport Performance SPF 15 Canada; Banana Boat Sport Performance SPF 30; Banana Boat Sport Performance SPF 30 Canada; Banana Boat Sport Performance SPF 85; Banana Boat Sport Performance With Powerstay Technology Sunscreen Lotion SPF 30; Banana Boat Sport Performance With Powerstay Technology Sunscreen Lotion SPF/fps 60; Banana Boat Sport Performance With Powerstay Technology Sunscreen Spray SPF 30; Banana Boat Sport Performance With Powerstay Technology Sunscreen Spray SPF 50+; Banana Boat Sport SPF 30; Banana Boat Sport SPF 50; Banana Boat Sport SPF 60; Banana Boat Sport Sunblock Ecran Solaire Uva & Uvb SPF Fps 30; Banana Boat Sport Sunblock Lotion SPF 50; Banana Boat Sport Sunblock Lotion Spf50; Banana Boat Sport Ultra Broad Spectrum SPF 50 Plus Sunscreen Lip Balm; Banana Boat Sport Ultra Clear Sunscreen Broad Spectrum SPF 65; Banana Boat Sport Ultra Face SPF30; Banana Boat Sport Ultra Sunscreen Broad Spectrum SPF 65; Banana Boat Sport Ultra Sunscreen Lip Balm Broad Spectrum SPF 40; Banana Boat Sport Ultra Sunscreen Roll-On UVA/UVB Broad Spectrum SPF 60 Plus; Banana Boat Sport coolzone Clear Sunscreen Broad Spectrum SPF 30; Banana Boat Sport coolzone Clear Sunscreen Broad Spectrum SPF 50 Plus; Banana Boat Sport for Kids Sunscreen Stick SPF 50+; Banana Boat SunComfort SPF 30; Banana Boat Suncomfort Sunscreen Lotion SPF 30; Banana Boat Suncomfort Sunscreen Lotion SPF 50+; Banana Boat Suncomfort Sunscreen Spray SPF 30; Banana Boat Suncomfort Sunscreen Spray SPF 50+; Banana Boat Sunscreen Lip Balm UVA/UVB Broad Spectrum SPF 45; Banana Boat Sunscreen Lotion SPF/fps 60; Banana Boat Sunscreen Oil Spray Huile Ecran Solaire En Vaporisateur SPF Fps 15; Banana Boat Sunscreen Spray SPF 30; Banana Boat Sunscreen Spray SPF 50+; Banana Boat Suntanicals Sunscreen Lotion SPF 15; Banana Boat Ultra Defence SPF 30 for UK; Banana Boat Ultra Defense; Banana Boat Ultra Defense Broad Spectrum; Banana Boat Ultra Defense Clear Sunscreen Broad Spectrum SPF 100; Banana Boat Ultra Defense SPF 30 Canada; Banana Boat Ultra Defense SPF 30 for LATAM; Banana Boat Ultra Defense SPF 60 Canada; Banana Boat Ultra Defense SPF 85; Banana Boat Ultra Defense Sheer Protect; Banana Boat Ultra Defense Sheer Protect FPS 50 LATAM; Banana Boat Ultra Defense Sheer Protect SPF 30; Banana Boat Ultra Defense Sheer Protect SPF 50; Banana Boat Ultra Mist Kids FPS 60 LATAM; Banana Boat Ultra Plus Sunblock Ecran Solaire Uva & Uvb SPF/fps 50; Banana Boat Ultra Plus Sunblock SPF 50; Banana Boat Ultra Sport Clear Sunscreen Spray SPF 30; Banana Boat Ultra Sport Clear Sunscreen Spray SPF 50 Plus; Banana Boat Ultra Sport Faces Sunscreen Broad Spectrum SPF 30; Banana Boat Ultra Sport Sunscreen Broad Spectrum SPF 15; Banana Boat Ultra Sport Sunscreen Broad Spectrum SPF 30; Banana Boat Ultra Sport Sunscreen Broad Spectrum SPF 50; Banana Boat Ultra Sport Sunscreen Lotion SPF 30; Banana Boat Ultra Sport Sunscreen Lotion SPF 50+; Banana Boat Ultra Sport Sunscreen Stick SPF 50+; Banana Boat Ultra Sunblock Ecran Solaire Uva & Uvb SPF Fps 30; Banana Boat Ultra defense SPF 50 Canada; Banana Boat UltraMist Baby Tear Free Continuous SPF 50; Banana Boat UltraMist Kids SPF 50 Factor de Proteccion Solar 50; Banana Boat UltraMist Kids Tear Free Lotion SPF 50; Banana Boat Ultramist Sport Performance SPF 50; Banana Boat Vitamin E Lip Balm Spf30; Banana Boat for Men Triple Defense Continuous Spray Sunscreen SPF 30; Banana Boat for Men Triple Defense Continuous Spray Sunscreen SPF 50+; Banana Boat for Men Triple Defense Sunscreen Lotion SPF 30; Banana Boat for Men Triple Defense Sunscreen Lotion SPF 50+; Banana Boat simply protect Sport Mineral Enriched Sunscreen Broad Spectrum SPF 50; Banana Boat simply protect sensitive MINERAL ENRICHED SUNSCREEN UVA/UVB BROAD SPECTRUM SPF 50; Banana Boat simply protect sensitive Mineral Enriched Sunscreen Broad Spectrum SPF 50; Banana Boat simply protect sensitive faces Mineral Enriched Sunscreen Broad Spectrum SPF 50; Bansbao Beauty and Fair Skin Essence; Bare Republic Clearscreen SPF 30; Bare Republic Clearscreen SPF 50; Bare Skin Feel Uv Lotion; Barunu SPF 50; Bask Broad Spectrum SPF 30; Bask Suncare Broad Spectrum SPF; Bask Suncare Broad Spectrum SPF 30; Baume Levres Anti-dessechement Transparent SPF 30; Baxter of California Oil Free Moisturizer Broad Spectrum SPF 15 Sunscreen; Bb Cream Sunscreen SPF 30; Bb Dark; Bb Fair; Bb Light; Bb Medium; Beach Break 2-in-1 Daily Facial Moisturizer Sunscreen SPF 30; Beach Defense Kids; Beach Defense Kids SPF 60; Beach Defense SPF 30; Beach Defense SPF 30 Sunscreen Spray; Beach Defense SPF 60; Beach Defense SPF 60 Sunscreen Lotion; Beach Dream Broad Spectrum SPF 30; Beach Dream Broad Spectrum SPF 50; Beach Dream Glittery Sunscreen SPF 30; Beach Dream Glittery Sunscreen SPF 50; Beach Dream Sunscreen SPF 30; Beach Dream Sunscreen SPF 50; Beach Gypsy SPF-30; Beast Hydrating Face SPF-20; Beauticontrol Sunlogics Water Resist. SPF 30; Beautipharm All Day Moisturizing Balm SPF 10; Beautipharm Body Moisturizer SPF 10; Beautipharm Eye Care Balm SPF 10; Beauty 360 Accelerated Wrinkle Repair Moisturizer; Beauty Dynamics SPF 15 Daily Eye Treatment; Beauty Without Cruelty - Broad Spectrum SPF 18; Beeswax Lip Balm; Beeswax Lip Balm SPF 30 Vertra; Beeswax SPF 15 Broad Spectrum Lip Balm; Beeswax SPF 15 Lip; Beeswax SPF 30 Broad Spectrum Lip Balm; Being True Essentials Absolutely Radiant; Belif SPF/fps 50; Bellagio Sunscreen For Face SPF 30; Bellagio Sunscreen SPF 30; Belo Intensive Brightening; Belo Sun Expert Tinted Sunscreen; Belucie Luxury UV Sun; Benefiance Wrinkle Smoothing Day Cream; Benefiance Wrinkleresist24 Day Cream; Benefiance Wrinkleresist24 Day Emulsion; Benefit Triple Performing Facial Emulsion Broad Spectrum SPF 15; Benefit Weightless Moisture Face Moisturizer Broad Spectrum SPF 15 Sunscreen; Benzac SPF 30 Oil Control Day Moisturizer; Best Choice absolute Daily Moisturizing Broad Spectrum SPF 15 Sunscreen; Best of Glow SPF Discovery Kit; Bevel Hair Mattifying Bald Balm with Sunscreen SPF 25; Bienfait Multi-vital (SPF 30); Bienfait Multi-vital SPF 30; Bienfait Uv SPF 50; Big Cloud Defend Daily Face Moisturizer Broad Spectrum SPF30; Big Cloud Defend Hybrid Formula with Zinc; Big Cloud Sky Master Lip Balm SPF 15; Big Island Basics; Big Kids SPF 30 Sunblock - Lot; Big Lots Soundbody Kids Sunscreen SPF 50; Big Lots Soundbody SPF 30 Sport Sunscreen; Big Lots Soundbody SPF 30 Ultra Sport Sunscreen; Big Lots Soundbody SPF 50 Sport Sunscreen; Big Lots Soundbody SPF 50 Ultra Sport Sunscreen; Big Lots Soundbody SPF 70 Sport Sunscreen; Big Lots Soundbody SPF 70 Sun Defense; Big Lots Soundbody Sheer Sunscreen Broad Spectrum SPF 70; Big Lots Soundbody Sun Defense Screen Broad Spectrum SPF 70; Big V Kids Sunblock Lotion SPF 30; Bilboa Capri Sunscreen SPF 15; Bilboa Capri Sunscreen SPF 30; Bilboa Capri Sunscreen SPF 50 Plus; Biocorneum Plus Broad Spectrum SPF 30 Advanced Scar Treatment; Biocorneum Plus SPF 30 Advanced Scar Treatment; Biokids SPF 35; Bioresist reinforcing effect face moisturizer SPF 30; Biosun Professional Sun Protection - SPF 45 - Crm; Biotherm- Stick Ecran Total Levres SPF 20; Biovi Total Beauty; Birds Garden Lip Balm Cerulean Warbler SPF 30; Birds Garden Lip Balm Dark Eyed Junco SPF 30; Birds Garden Lip Balm Western Tanager - SPF 30; Black Girl Sunscreen SPF 30; Black Girl Sunscreen SPF 45; Black Girl Sunscreen SPF 50 Kids; Black Girl Sunscreen SPF 50 broad Spectrum; Black Girl Sunscreen SPF45; Black Girl Sunscreen Sunscreen SPF 30 broad Spectrum; Black Radiance True Complexion BB Cream SPF 15; Black Rice Platinum Absolute Youth SPF 15; Blackberry Smoothie SPF 15 Broad Spectrum Lip Balm; Blackmonster Day and Night Moisturizer; Bling Day Everyday Sunscreen Broad Spectrum SPF 50; Bliss Triple Oxygen Ultimate Protection UV Moisturizer SPF 33; Blistex Enhancement Series; Blistex Enhancement Series (Deep Renewal and Silk and Shine); Blistex Enhancement Series (Lip Vibrance, Deep Renewal and Ultra-Rich Hydration); Blistex Enhancement Series (Soft and Lush, Deep Renewal and Ultra-Rich Hydration); Blistex Five Star Lip Protection Broad Spectrum; Blistex Lip Massage; Blue Lizard Active; Blue Lizard Active Sunscreen; Blue Lizard Kids; Blue Lizard Kids Sunscreen; Blue Lizard Regular; Blue Lizard Sport; Blue Lizard Sport Original Sunscreen; Blue Lizard Sport Sunscreen; Blue Lizard Sunscreen Australian Formula; Blue Therapy Moisturizing Cream Dry Skin SPF 15; Blue Therapy Moisturizing Cream Normal/combination Skin SPF 15; Blue Therapy Multi-defender Dry Skin; Blue Therapy Multi-defender Normal/combination Skin; Blueberry Moscow Mule SPF 15 Broad Spectrum Lip Balm; Blumingo Anti-aging Am SPF-30 Sunscreen; Blurred Lines CC Creme Broad Spectrum SPF 20 Shade 01 Light; Blurred Lines CC Creme Broad Spectrum SPF 20 Shade 02 Medium; Blurred Lines CC Creme Broad Spectrum SPF 20 Shade 03 Medium/Dark; Bobbi Brown Beach Sunscreen Body Broad Spectrum SPF 15; Bobbi Brown Beach Sunscreen Body Spray SPF 15; Bobbi Brown Primer Plus Protection SPF 50; Bobbi Brown SPF 50 Protective Face Base Broad Spectrum; Body Armor - SPF 30 Sunscreen; Body Butter Broad Spectrum Sunscreen SPF 40; Body Glow Sunscreen SPF 20; Body Mist SPF 55 Wegman; Body Protector Sunscreen Broad Spectrum SPF 50; Body Revive Moisturizing Sunscreen Lot; Body Series Moisture Stick + SPF 30; Body Sunscreen FPS 50; Body Zone SPF 30 Kids Screen; Body Zone SPF 30 Purple Block Screen; Body Zone SPF 30 Sport Screen; Body Zone SPF 30 Sunscreen; Body Zone SPF 40 Kids Sunscreen; Body Zone SPF 45 Suncreeen; Bodypruf All Season Sun Protection SPF 15; Bondi Sands Broad Spectrum Hydra Uv Protect SPF 70 Face Fluid; Bondi Sands Broad Spectrum Hydra Uv Protect SPF 70 Sunscreen; Bondi Sands Fragrance Free Face SPF 50 Sunscreen; Bondi Sands Fragrance Free SPF 30 Sunscreen; Bondi Sands Fragrance Free SPF 50 Sunscreen; Bondi Sands Sport SPF 30 Sunscreen; Bondi Sands Sport SPF 50 Face Sunscreen; Bondi Sands Sport SPF 50 Sunscreen; Bondi Sands Toasted Coconut Lip Balm with SPF 50 Sunscreen; Borba Age Defying Daily Hydrator SPF 30 Plus; Borba Age Defying Super Creme SPF 100 plus; Botanic Heal Boh Probioderm Repair Ampoule Cushion 01 Natural Ivory; Botanic Heal Boh Probioderm Repair Ampoule Cushion 02 Natural Beige; Botanical Effects Hydrate & Protect Broad Spectrum Sunscreen SPF 30; Botanical Effects Moisturizer SPF 30; Botanics All Bright Hydrating Day Cream Sunscreen Broad Spectrum SPF 15; Botanics Hydrating Day All Bright Sunscreen Broad Spectrum SPF 15; Botanics Mattifying Day All Bright Sunscreen Broad Spectrum SPF 15; Botanics Protecting Day Age Defense Sunscreen Broad Spectrum SPF 15; Botanics Radiant Youth Protecting Day Cream Sunscreen Broad Spectrum SPF 15; Botanics Shine Away Mattifying Day Cream Sunscreen Broad Spectrum SPF 15; Botanics Skin Calming Day Ultra Calm Sunscreen Broad Spectrum SPF 15; Botanics Triple Age Renewal Day All Bright Sunscreen Broad Spectrum SPF 15; Botanics Triple Age Renewal Day Cream Sunscreen Broad Spectrum SPF 15; Breath Fresh SPF 15 Broad Spectrum Lip Balm; Bright Boost Moisturizer SPF 30; Brightening & Smoothing Daily Moisturizer; Brightening Daily Protector Broad Spectrum; Brightening Hand Broad Spectrum SPF 20 Jafra; Brightening Hand Care Broad Spectrum SPF 20 Sunscreen; Brightening and moisturizing facial SPF 30; Brighter By Nature SPF 30; Brighter By Nature SPF 30 Correcting Makeup Broad Spectrum; Brighter By Nature SPF 30 Skin Tone Correcting Makeup; Brighter By Nature SPF 35 Skin Tone Correcting Moisturizer; Brighter By Nature SPF 35 Skin Tone Correcting Moisturizer Broad Spectrum; Brite Prep Fx; BritePrep FX; Britto Body Sunscreen Broad Spectrum SPF 50; Britto Facial Sunscreen Broad Spectrum SPF 50; Broad Defense; Broad Spectrum 30 SPF Fps Sunscreen Lotion; Broad Spectrum 50 SPF Fps Sunscreen Lotion; Broad Spectrum SPF 15 CVS; Broad Spectrum SPF 15 Cherry Lip Balm; Broad Spectrum SPF 15 Citrus Lip Balm; Broad Spectrum SPF 15 Daily Eye Treat Jafra; Broad Spectrum SPF 15 Iced Pear Lip Balm; Broad Spectrum SPF 15 Lip Balm; Broad Spectrum SPF 15 Lotion; Broad Spectrum SPF 15 Mint Lip Balm; Broad Spectrum SPF 15 Pomegranate Lip Balm; Broad Spectrum SPF 15 Preferred Plus Pharmacy; Broad Spectrum SPF 15 Sunscreen Continuous Spray; Broad Spectrum SPF 15 Tropical Smoothie Lip Balm; Broad Spectrum SPF 15 Unflavored Lip Balm; Broad Spectrum SPF 15 Vanilla Lip Balm; Broad Spectrum SPF 15 Vanilla Mint Lip Balm; Broad Spectrum SPF 30 Booster Drops; Broad Spectrum SPF 30 Fps; Broad Spectrum SPF 30 Preferred Plus Pharmacy; Broad Spectrum SPF 30 Sport Sunscreen Continuous Spray; Broad Spectrum SPF 30 Sun Stick; Broad Spectrum SPF 30 Sunscreen Continuous Spray; Broad Spectrum SPF 30 Sunscreen Preferred Plus Pharmacy; Broad Spectrum SPF 30 Tropical Sunscreen; Broad Spectrum SPF 30 Ultrathon; Broad Spectrum SPF 50 Baby Sunscreen Preferred Plus Pharmacy; Broad Spectrum SPF 50 CVS; Broad Spectrum SPF 50 CareOne; Broad Spectrum SPF 50 Daylogic; Broad Spectrum SPF 50 Kids Preferred Plus Pharmacy; Broad Spectrum SPF 50 Lotion; Broad Spectrum SPF 50 Sunscreen Bioelements; Broad Spectrum SPF 50 Sunscreen Preferred Plus Pharmacy; Broad Spectrum SPF 50+ Sunscreen; Broad Spectrum SPF 70 CVS; Broad Spectrum SPF 70 Sunscreen Preferred Plus Pharmacy; Broad Spectrum SPF Fps 50; Broad Spectrum SPF/fps 30; Broad Spectrum SPF/fps 50; Broad Spectrum Sculpting Day Cream; Brume Solaire; Brush and Go All Skin types; Brush and Go Oily Problematic Skin; Bubblegum SPF 15 Broad Spectrum Lip Balm; Bull Frog Insta-Cool Mist 50; Bull Frog Kids Continuous Spray Sunscreen Broad Spectrum SPF 50+; Bull Frog Kids Mist 50; Bull Frog Kids Sunscreen 35; Bull Frog Marathon Mist 36; Bull Frog Marathon Mist 50; Bull Frog Marathon Mist Continuous Spray Sunscreen Broad Spectrum SPF 36; Bull Frog Marathon Mist Continuous Spray Sunscreen Broad Spectrum SPF 50; Bull Frog Mosquito Coast Broad Spectrum Cspray w fragrance SPF 50; Bull Frog Mosquito Coast SPL 50 Pump; Bull Frog SPF 50; Bull Frog Water Armor Sport 50; Bull Frog Water Armor Sport Quick Gel Sunscreen Broad Spectrum SPF 50; Bull Frog Water Armor Sport Quick Spray Sunscreen Broad Spectrum SPF 50; Bull Frog Water Armor Sport Quik 50; Bull Frog Water Armor Sport SPF 50+; Bull Frog Water Armor Super 40; BullFrog Land Sport SPF 50 Lip Balm; BullFrog Land Sport SPF 50 Quik; BullFrog Quik; BullFrog Quik Gel Sport; BullFrog SPF 50 Land Sport Quik Gel Sunscreen; BullFrog SPF50 Land Sport C-Spray; BullFrog SPF50 Land Sport Quik; BullFrog SPF50 Water Sport; BullFrog SPF50 Water Sport C-Spray; BullFrog Super Block; BullFrog Ultimate Sheer Protection Face; BullFrog Water Armor Sport Super; Bullet Line; Bullfrog Broad Spectrum SPF 50 Sunscreen; Bullfrog SPF 50 Sunscreen Insect Repellent; Bullfrog Surfer; Butterstick; C Cream SPF 30; CAO Cosmetic Lip Sunscreen SPF 30; CARDINAL HEALTH LEADER SPF 50 General Protection Sunscreen; CARDINAL HEALTH LEADER SPF30 General Protection Sunscreen; CARMEX Lime twist BROAD SPECTRUM SPF 15 SUNSCREEN; CARMEX Pomegranate BROAD SPECTRUM SPF 15 SUNSCREEN; CARMEX Vanilla BROAD SPECTRUM SPF 15 SUNSCREEN; CARMEX cherry lip balm BROAD SPECTRUM SPF 15 SUNSCREEN; CARMEX moisture Plus Ultra Hydrating Lip Balm Broad Spectrum SPF 15 Sunscreen; CARMEX original lip balm BROAD SPECTRUM SPF 15 SUNSCREEN; CARMEX strawberry lip balm BROAD SPECTRUM SPF 15 SUNSCREEN; CC Cream Complexion Corrector Dark Broad Spectrum SPF 15 Jafra; CC Cream Complexion Corrector Light Broad Spectrum SPF 15 Jafra; CC Cream Complexion Corrector Light Medium Broad Spectrum SPF 15 Jafra; CC Cream Complexion Corrector Medium Broad Spectrum SPF 15 Jafra; CC Cream Complexion Corrector Medium Dark Broad Spectrum SPF 15 Jafra; CC Cream Light; CC Cream Medium; CC Creme Concealer Broad Spectrum SPF 20 Jafra; CD Hydra Life Pro-Youth Protective Fluid; CD Hydra Life Pro-Youth Protective SPF 15; CERAMIDE LIFT and FIRM; CHANTECAILLE Ultra Sun Protection Sunscreen Broad Spectrum SPF 30; CHANTECAILLE Ultra Sun Protection Sunscreen Broad Spectrum SPF 45; CHARLOTTE TILBURY Broad Spectrum SPF 50 Sunscreen Invisible UV Flawless Primer; CIZAR Aqua Sun; CLARINS - EXTRA-FIRMING JOUR SPF 15 - Wrinkle, Firming Day all skin types - Broad Spectrum SPF 15 Sunscreen; CLARINS BROAD SPECTRUM SPF 15 - Sunscreen Multi-Active Day Early wrinkle correcting; CLARINS BROAD SPECTRUM SPF 30 Dry Touch Facial Sunscreen Enriched with antioxidants Prevents sun induced age spots; CLARINS BROAD SPECTRUM SPF 30 Sunscreen Body Hydration, Comfort; CLARINS BROAD SPECTRUM SPF 30 Sunscreen Care; CLARINS BROAD SPECTRUM SPF 50 Dry Touch Facial Sunscreen Enriched with antioxidants Prevents sun induced age spots; CLARINS BROAD SPECTRUM SPF 50 Plus - SUNSCREEN CARE MILK; CLARINS BROAD SPECTRUM SPF 50 Plus - SUNSCREEN FOR FACE WRINKLE CONTROL; CLARINS BROAD SPECTRUM SPF 50 Sunscreen Body Hydration, comfort; CLARINS Broad Spectrum SPF 15 Sunscreen Care For Outdoor Sports; CLARINS Broad Spectrum SPF 15 Sunscreen Extra Firming Day Wrinkle Lifting; CLARINS Broad Spectrum SPF 30 Sunscreen For Face Wrinkle Control; CLARINS Daily Energizer SPF 15; CLARINS HYDRA-ESSENTIEL SPF 15 Broad Spectrum SPF 15 Sun Screen; CLARINS HydraQuench Normal to Combination Skin Broad Spectrum SPF 15 Sunscreen; CLARINS HydraQuench Normal to Dry Skin Broad Spectrum SPF 15 Sunscreen; CLARINS Sunscreen Soothing Progressive Tanning; CLARINS Super Restorative Day Illuminating lifting replenishing BROAD SPECTRUM - SPF 20 - Sunscreen; CLARINS UV PLUS ANTI-POLLUTION BROAD SPECTRUM SPF 50 NON-TINTED Sunscreen Multi-Protection; CLARINS UV PLUS ANTI-POLLUTION SUNSCREEN MULTI-PROTECTION BROAD SPECTRUM SPF 50 Oil-Free -DEEP; CLARINS UV PLUS ANTI-POLLUTION SUNSCREEN MULTI-PROTECTION BROAD SPECTRUM SPF 50 Oil-Free -LIGHT; CLE DE PEAU BEAUTE PROTECTIVE FORTIFYING n; CLE DE PEAU BEAUTE SYNACTIF DAYTIME MOISTURIZER n; CLINIQUE SPF 15 with SOLAR SMART ADVANCED PROTECTION; CLINIQUE SPF 30 ADVANCED PROTECTION BODY CREAM with SOLAR SMART; CLINIQUE SPF 30 with SOLAR SMART; CLINIQUE SPF 50 with SOLAR SMART ADVANCED PROTECTION; COOLA CLASSIC BODY SUNSCREEN Guava Mango Broad Spectrum SPF 50; COOLA CLASSIC FACE SUNSCREEN Cucumber Broad Spectrum SPF 30; COOLA CLASSIC FACE SUNSCREEN White Tea Broad Spectrum SPF 50; COOLA Classic Body SPF 30 Pina Colada; COOLA Classic Body SPF 30 Tropical Coconut; COOLA Classic Body SPF 50 Fragrance Free; COOLA Classic Body SPF 50 Guava Mango; COOLA Classic Body SPF 70 Peach Blossom; COOLA Classic Body Sunscreen Fragrance-Free SPF 50; COOLA Classic Body Sunscreen Guava Mango SPF 50; COOLA Classic Body Sunscreen Pina Colada SPF 30; COOLA Classic Body Sunscreen SPF 70 - Peach Blossom; COOLA Classic Body Sunscreen Tropical Coconut SPF 30; COOLA Classic Face Sunscreen Cucumber SPF 30; COOLA Classic Face Sunscreen Fragrance-Free SPF 50; COOLA Classic Face Sunscreen White Tea SPF 50; COOLA Classic Liplux Lip Balm SPF 30 Original; COOLA Classic Liplux Lip Balm SPF 30 Tinted; COOLA Classic Sunscreen Stick SPF 30 - Tropical Coconut; COOLA Full Spectrum 360 Day Eye Cream SPF 30; COOLA Full Spectrum 360 Refreshing Water Cream SPF 50; COOLA Full Spectrum 360 Sun Silk Drops SPF 30; COOLA Liplux Hydrating Oil SPF 30; COOLA Refreshing Water Mist SPF 18; COOLA Refreshing Water Mist Sunscreen SPF 30; COOLA Sun Silk Drops SPF 30; CORETEX Broad Spectrum SPF 30 Sunscreen; CREMO Face with Sunscreen SPF20; CRème Montagne Et Grand Froid; CRème Protectrice SPF 20 Protective Cream SPF 20; CRème Rajeunissante Haute Fermeté Jour; CRème Solaire Anti-rides Visage SPF 15; CRème Solaire Anti-rides Visage SPF 30; CRème Solaire Corps Fps 30; CRème Solaire Fps 30; CRème Solaire Protection Modérée Visage; CRème Solaire Protection Élevée Visage; CRème Solaire Spécial Visage SPF 50; CRème Solaire Très Haute Protection SPF 30; CRème Solaire Très Haute Protection Spécial Visage SPF 30; CRème Solaire Visage Face Sunscreen; CRème Solaire Visage Toucher Sec Fps 30; CRème Solaire Visage Toucher Sec Fps 50+; CRème Solaire Écran Spécial Visage SPF 30; CVS Clear Face SPF 30 3 oz; CVS Clear Zinc SPF 50; CVS Health AM Moisturizing Facial; CVS Health Age Defense SPF 70 Face; CVS Health Baby SPF 50; CVS Health Childrens SPF 70 Plus Wet and Dry; CVS Health Kids SPF 50 Clear; CVS Health SPF 100 Clear; CVS Health SPF 100 Ultra Protection; CVS Health SPF 100 Ultra Sheer; CVS Health SPF 30 Beach Guard Clear; CVS Health SPF 30 Clear; CVS Health SPF 30 Coconut Scented Clear; CVS Health SPF 30 Sheer Mist; CVS Health SPF 30 Ultra Sheer; CVS Health SPF 30 Ultra Sheer Mist; CVS Health SPF 45 Sheer Mist; CVS Health SPF 45 Ultra Sheer; CVS Health SPF 50; CVS Health SPF 50 Beach Guard; CVS Health SPF 50 Clear; CVS Health SPF 50 Coconut Scented Clear; CVS Health SPF 50 Sun; CVS Health SPF 55 Clear Face; CVS Health SPF 55 Clear Face Paraben and Phthalate Free; CVS Health SPF 55 Ultra Sheer; CVS Health SPF 55 Ultra Sheer Face Mist; CVS Health SPF 70 Beach Guard Sun; CVS Health SPF 70 Clear; CVS Health SPF 70 Sheer Mist; CVS Health SPF 70 Sun; CVS Health SPF 70 Ultra Sheer; CVS Health SPF 85 Wet and Dry; CVS Health SPORT SPF 30; CVS Health Sport Clear Broad Spectrum SPF 100 Plus Sunscreen; CVS Health Sport SPF 100 Clear; CVS Health Sport SPF 100 Plus Clear; CVS Health Sport SPF 30; CVS Health Sport SPF 30 Clear; CVS Health Sport SPF 30 Clear Broad Spectrum; CVS Health Sport SPF 50; CVS Health Sport SPF 50 Clear; CVS Health Sport SPF 50 Face; CVS Health Sport SPF 50 Sun; CVS Health Sport SPF 70 Clear; CVS Health Ultra Protection SPF 100; CVS Health Ultra Protection SPF 30; CVS Health Ultra Protection SPF 50; CVS Health Ultra Protection SPF 70; CVS Health Ultra Sheer Broad Spectrum SPF 45 Sunscreen; CVS Health Ultra Sheer Broad Spectrum SPF 70; CVS Health Ultra Sheer SPF 100 Sunscreen; CVS Pharmacy Beauty 360 SPF 15 7-in-1 Complete Daily Moisturizer; CVS Pharmacy Kids SPF 50 Clear; CVS Pharmacy Kids SPF 70 Clear; CVS Pharmacy Oil Free Faces SPF 30; CVS Pharmacy Oil Free SPF 30; CVS Pharmacy SPF 30; CVS Pharmacy SPF 30 Beach Guard Clear; CVS Pharmacy SPF 30 Beach Guard Sun; CVS Pharmacy SPF 30 Wet and Dry; CVS Pharmacy SPF 50 Beach Guard Sun; CVS Pharmacy SPF 70 Beach Guard Clear; CVS Pharmacy Sport SPF 50; CVS Pharmacy Sunscreen SPF 45; CVS SPF 30 Sport; CVS Sheer SFP 30; CVS Sport; Cacao Tanning Oil SPF15; Cacao Tanning Oil SPF6; Califonia Aloe Ice Puff Sun Clear; California Aloe Aqua Sun; California Aloe Daily Moisture Sun Block; California Aloe Fresh Pow Dery Sun; California Tan BROAD SPECTRUM SPF 15; California Tan BROAD SPECTRUM SPF 30; California Tan BROAD SPECTRUM SPF 4; California Tan BROAD SPECTRUM SPF 45; California Tan BROAD SPECTRUM SPF 8; California Tan Broad Spectrum SPF 15; California Tan Broad Spectrum SPF 8; California Tan Continuous Sunscreen Broad Spectrum SPF 30; California Tan SPF 15 Sunscreen; California Tan SPF 30 BROAD SPECTRUM Sunscreen; California Tan SPF 30 Sunscreen; California Tan SPF 45 Face Sunscreen; California Tan SPF 45 Sunscreen; Capital Lumiere Jour SPF 15; Capture Totale Anti-aging Emulsion Uva/uvb Protection; Capture Totale Multi-perfection Creme SPF 20; Cardinal Health Leader Baby Sunscreen SPF 50; Cardinal Health Leader General Protection SPF 70 Sunscreen; Cardinal Health Leader General Protection Sunscreen SPF 30; Cardinal Health Leader General Protection Sunscreen SPF 50; Cardinal Health Leader Kids Sunscreen SPF 50; Cardinal Health Leader SPF 30 General Protection Sunscreen Clear Continuous; Cardinal Health Leader SPF 30 Sport Sunscreen Clear Continuous; Cardinal Health Leader SPF 50 Kids Sunscreen Clear Continuous; Cardinal Health Leader SPF 70 General Protection Sunscreen Clear Continuous; Cardinal Health Leader Sport Sunscreen SPF 30; CareCella Day Cream; CareOne 7-in-1 Anti-Aging Vitamin; CareOne Daily Facial; CareOne Daily Moisturizer Broad Spectrum SPF15 Sunscreen; Carecella Daily Sun Cream; Careline Antigravity; Careline Skin Guard Invisible SPF 50; Careline Skin Guard Kids Invisible SPF 50; Careline Skin Guard SPF 30; Careone Anti Aging Vitamin Complex 7 in 1; Caribbean Beach ADULT Sunscreen; Caribbean Beach ADVANCED Sunscreen; Caribbean Beach KIDS Sunscreen; Caribbean Beach SPORT Sunscreen; Caribbean Breeze SPF 15 Broad Spectrum Lip Balm; Caribbean Breeze SPF 30 Kids Sunscreen Lotion; Caribbean Breeze Spf30 Sunscreen Spray Lotion; Caribbean Breeze Spf45 Sunscreen Spray Lotion; Carnival Adventures 30 SPF Sport Sunscreen; Carnival Adventures 30 Sport Sunscreen; Carols Daughter Monoi Sunscreen Broad Spectrum SPF 30; Castor and Shea SPF Body; Castor and Shea SPF Face; Caudalie Resveratrol Face Lifting Moisturizer Broad Spectrum SPF 20; Cay Skin Isle Body Oil SPF 30; Cay Skin Isle Glow Body SPF 45; Cay Skin Isle Glow Face SPF 45; Cc Cream; Cc+ Nude Glow; Celesty Colors Special Edition With Alix Avien BB Cream; Celesty Colors Special Edition With Alix Avien CC Cream; Celesty Sun Protection Series Solar Protection Cream SPF 50; Celesty Sun Protection Series Solar Protection Fluid SPF 50; Celltrion Uv Perfection Always Sun; Cellular Anti-Wrinkle SunScreen SPF 30 La Prarie; Cellular Anti-wrinkle Sun Cream SPF 30; Cellular Anti-wrinkle Sun Sunscreen Broad Spectrum SPF 30; Cellular Aw Sun Block SPF 50; Cellular Laboratories De-Aging Sunscreen Broad Spectrum SPF 50 Plus; Cellular Protective Body Emulsion SPF 30; Cellular Swiss UV Protection Veil SPF30; CeraVe AM BROAD SPECTRUM SUNSCREEN SPF 30; CeraVe AM Facial Moisturizing Broad Spectrum SPF 30 Sunscreen; CeraVe AM Sunscreen Broad Spectrum 30 SPF; CeraVe Developed with Dermatologists Healing Lip Balm Broad Spectrum SPF 30 Sunscreen; CeraVe Developed with Dermatologists Hydrating Sheer Sunscreen Broad Spectrum SPF 30 Face and Body Water Resistant 80 Minutes Hybrid Formula; CeraVe Developed with Dermotologists Ultra Light Moisturizing Broad Spectrum SPF 30; CeraVe Kids Sunscreen Broad Spectrum SPF 50 WET SKIN; CeraVe Sunscreen Broad Spectrum SPF 30 WET SKIN; CeraVe Sunscreen Broad Spectrum SPF 50 WET SKIN; Ceramide Lift And Firm Day Broad Spectrum Sunscreen SPF 30; Ceramide Lift and Firm Day Cream SPF 30; Ceramide Premier Intense Moisture and Renewal Activation Broad Spectrum SPF 30; Ceramide Premiere Broad Spectrum SPF 30; Ceramide Premiere Intense Moisture and Renewal Activation Cream SPF 30; Cerave; Cetaphil; Cetaphil Daily Facial Moisturizer (SPF 50); Cetaphil Daily Facial Moisturizer SPF 15; Cetaphil Daily Facial Moisturizer SPF 50; Cetaphil Daily Facial Moisturizer with suncreen SPF 35; Cetaphil Daily Facial Moisturizer with suncreen SPF 50; Cetaphil DermaControl SPF 30; Cetaphil Healthy Radiance Whipped Day Cream Broad Spectrum SPF 30; Cetaphil Healthy Radiance Whipped Moisturizer SPF 30; Cetaphil Oil Absorbing SPF 30; Cetaphil PRO Oil Absorbing SPF 30; Cetaphil Pro Dermacontrol Oil Control Moisturizer; Chantecaille Ultra Sun Protection Sunscreen Broad Spectrum SPF 45 Primer; ChapIce SPF 30 Lip Balm; Chapstick Active SPF 30; Chapstick Moisturizer Cool Mint; Chapstick Moisturizer Original; Chapstick Moisturizer Variety Pack; Chapstick Ultra SPF 30; Cherry Lip Balm; Cherry SPF 15 Broad Spectrum Lip Balm; Childrens Sunstick SPF 55 CVS; Chocolate Coffee Stout SPF 15 Broad Spectrum Lip Balm; Chrono Repair Solaire; Cicatricure; Cicatricure Aqua Defense Day With SPF; Cicatricure Gold Day With SPF; Cicatricure Scar SPF 30; Cien Sun By Lidl Kids Sunscreen SPF 50; Cien Sun By Lidl Sport Sunscreen SPF 30; Citrus Mimosa Body SPF 30 Broad Spectrum Sunscreen Continuous; Citrus SPF 15 Broad Spectrum Lip Balm; City Miracle Cc Cream SPF 50; City Sunscreen Serum SPF 30 Doctor Ts Super goop; City Sunscreen serum Broad Spectrum SPF 30 Supergoop; Clarifying Line Broad Spectrum SPF 50 EXEL; Clarins Advanced Extra-Firming Day; Clarins Broad Spectrum SPF 15 - Sunscreen for Face Wrinkle Control; Clarins Broad Spectrum SPF 15 Sunscreen Care For Outdoor Sports; Clarins Broad Spectrum SPF 15 Sunscreen Delectable Self Tanning Mousse; Clarins Broad Spectrum SPF 20 - Sunscreen Care; Clarins Broad Spectrum SPF 20 - Sunscreen Care Milk; Clarins Broad Spectrum SPF 30 - Sunscreen Care; Clarins Broad Spectrum SPF 30 Sunscreen Care; Clarins Extra-Firming Day Wrinkle Lifting SPF 15; Clarins HydraQuench SPF 15; Clarins Sunscreen Care Milk- SPF 50 Plus; Clarins Sunscreen For Face Wrinkle Control SPF 50 PLUS; Clarins Sunscreen High Protection SPF 30; Clarins Sunscreen Progressive Tanning SPF 15; Clarins Sunscreen Smoothing Rapid Tanning SPF10; Clarins Sunscreen Wrinkle Control High Protection SPF 30; Clarins Sunscreen Wrinkle Control Moderate Protection SPF 15; Clarins Super Restorative Day; Clarins Super Restorative Day Broad Spectrum SPF 20 Sunscreen; Clarins UV PLUS ANTI-POLLUTION B.S. SPF 50, Sunscreen Multi-Protection Tint Medium; Clarins Vital Light Day SPF 15; Classic Sport Mango SPF 30 Broad Spectrum; Classic Sport Unscented SPF 30 Broad Spectrum; Classic Sport Unscented SPF 50 Broad Spectrum; Classic Unscented SPF 15 Broad Spectrum; Cle De Peau Beaute 30 Soin Protecteur Uv Pour Les Levres; Cle De Peau Beaute 50+ Creme Teintee Protectrice Uv; Cle De Peau Beaute Gentle Protective I; Cle De Peau Beaute Hand; Cle De Peau Beaute Protective Fortifying; Cle De Peau Beaute Refreshing Protective I; Cle De Peau Beaute Sheer Fluid Veil; Cle De Peau Beaute Synactif Daytime Moisturizer; Cle De Peau Beaute Uv Protection; Cle De Peau Beaute Uv Protective; Cle De Peau Beaute Uv Protective Lip Treatment; Cle De Peau Beaute Uv Protective Tinted Dark; Cle De Peau Beaute Uv Protective Tinted Ivory; Cle De Peau Beaute Uv Protective Tinted Ocher; Cle De Peau Beaute Uv Protective Very High Protection for Body; Cle De Peau Beaute Uv Protective for Body; Clean & Clear Finishes Pore Perfecting Moisturizer; Clean Fresh Sunblock Sunscreen SPF 30 Continuous; Clean and Clear Advantage 2-in-1 Acne and Mark Eraser Kit; Clean and Clear Finishes Pore Perfecting Moisturizer; Clear Complexion Sheer Daily Moisturizer; Clear Cover Invisible Sunscreen Broad Spectrum SPF 30; Clear Day Soon Sun; Clear Face; Clear Face Sunscreen Lotion; Clear SPF 30 Face Sunscreen Wegmans; Clear Smart Shine Control Sunscreen Broad Spectrum SPF 25; Clear Stick Uv Protector; Clear Sunscreen SPF 30 Broad Spectrum; Clear Sunscreen Stick 50+; Clear Ultra-light Daily Mattifying Fluid Broad Spectrum SPF 30; Clearing Defense SPF 30; Cler Zinck 45 SPF Sunblock; Climatik SPF 30 Fps Lip Balm Baume A Levres; Clinique Broad Spectrum SPF 30 Sunscreen Body With Solar Smart; Clinique Broad Spectrum SPF 30 Sunscreen Face With Solar Smart; Clinique Broad Spectrum SPF 50 Sunscreen Body With Solar Smart; Clinique Broad Spectrum SPF 50 Sunscreen Face With Solar Smart; Clinique Even Better Lotion SPF 20; Clinique Even Better Skin Tone Correcting Broad Spectrum SPF 20; Clinique Even Better Skin Tone Correcting Moisturizer SPF 20; Clinique Repairwear Laser Focus All-smooth Makeup SPF 15; Clinique SPF 15 Face/body Cream; Clinique SPF 25 Body Spray; Clinique SPF 30 Body Cream; Clinique SPF 30 Face Cream; Clinique SPF 50 Body Cream; Clinique SPF 50 Face Cream; Clinique Superdefense Age Defense Moisturizer Broad Spectrum SPF 25; Clinique Superdefense Age Defense Moisturizer SPF 25 Combination Oily; Clinique Youth Surge SPF 15 Age Decelerating Moisturizer Very Dry/dry; Clé De Peau Beauté 30 Émulsion Protectrice Uv Pour Le Corps; Clé De Peau Beauté 50+ CRème Protectrice Uv; Clé De Peau Beauté 50+ Émulsion Très Haute Protection Uv Pour Le Corps; Clé De Peau Beauté CRème Fortifiante Protectrice; Clé De Peau Beauté CRème Pour Les Mains; Clé De Peau Beauté Soin Protecteur Pour Les Lèvres Protective Lip Treatment 25; Clé De Peau Beauté Émulsion Fortifiante Protectrice; Coconut Lip Balm SPF15; Coconut SPF 15 Broad Spectrum Lip Balm; Cocooil SPF 15; Cocooil SPF 30; Cocooil SPF 6; Cocooil SPF15; Cocooil SPF30; Cocooil SPF50; Collagen Boost Moisturizer SPF 25; Collagen Dream 50 Radiance All In One Tone Up; Collagen Glow Creme SPF 50; Color Control Oil-free Moisturizer Broad Spectrum SPF 30; Color Extend Sun Take Cover SPF/fps 25; Compact Teinte Protection Intense Galenic SPF 40 (beige Natural); Compact Teinte Protection Intense Galenic SPF 40 (hale Dore); Complete + Care & Protect (80 Minutes) Water / Sweat Resistant Lotion SPF 30; Complete + Care & Protect (80 Minutes) Water / Sweat Resistant Lotion SPF 50+; Complete Acne Therapy System; Complete Advanced (80 Minutes) Water / Sweat Resistant Lotion SPF 15; Complete Advanced (80 Minutes) Water / Sweat Resistant Lotion SPF 30; Complete Advanced (80 Minutes) Water / Sweat Resistant Lotion SPF 50+; Complete Advanced [80 Minutes] Water/sweat Resistant Lotion SPF 60; Complete Dry Mist Spray; Complete Dry Mist Spray Hypoallergenic Uva + Uvb SPF 30; Complete Lightweight Lotion SPF 15; Complete Lightweight Lotion SPF 45; Complete Sensitive Advanced (80 Minutes) Water / Sweat Resistant SPF 50+; Complete Sensitive Advanced [80 Minutes] Water/sweat Resistant Lotion SPF 60; Complete* Dry Touch; Complete* Dry Touch Sunscreen/écran Solaire; Complete+ Care & Protect [80 Minutes] Water/sweat Resistant Lotion SPF 60; Concept II SolScents Broad Spectrum SPF 15 Pina Colada; Concept II SolScents Broad Spectrum SPF 15 Vanilla Silk; Concept II SolScents Broad Spectrum SPF 30 Angelica; Concept II SolScents Broad Spectrum SPF 30 Cucumber Melon; Concept II SolScents Broad Spectrum SPF 30 Deep Love; Concept II SolScents Broad Spectrum SPF 50 Flower Blast; Concept II SolScents Broad Spectrum SPF 50 Raspberry Dreams; Continuous Correction Full Coverage Cc Cream; Continuous Hydration SPF 25; Continuous Spray Lotion; Continuous Spray SPF/fps 70; Continuous Spray Sheer Mist SPF 30; Continuous Spray Sunscreen Sun Bum Broad Spectrum SPF 15; Continuous Spray Sunscreen Sun Bum Broad Spectrum SPF 30; Continuous Spray Sunscreen Sun Bum Broad Spectrum SPF 50; Control Dynamics kit Jafra; Cool Sport SPF 50; Coola Bare Republic Clearscreen Spf30; Coola Bare Republic Clearscreen Spf50; Coola Citrus Mimosa Scent Sunscreen Spray; Coola Classic Body SPF 30 Sunscreen Lotion Pina Colada Scent; Coola Classic Body SPF 30 Sunscreen Lotion Tropical Coconut Scent; Coola Classic Body SPF 50 Sunscreen Lotion Fragrance-free; Coola Classic Body SPF 50 Sunscreen Lotion Guava Mango Scent; Coola Classic Face SPF 30 Sunscreen Lotion Cucumber Scent; Coola Classic Face SPF 50 Sunscreen Lotion Fragrance-free; Coola Classic Face SPF 50 Sunscreen Lotion White Tea Scent; Coola Classic SPF 30 Sunscreen Spray Pina Colada Scent; Coola Classic SPF 30 Sunscreen Spray Tropical Coconut Scent; Coola Classic SPF 50 Sunscreen Spray Fragrance-free; Coola Classic SPF 50 Sunscreen Spray Guava Mango Scent; Coola Classic Sunscreen Fragrance Free; Coola Classic Sunscreen Stick SPF 30 Tropical Coconut Scent; Coola Daily Protection SPF 30 Sun Silk Drops Sunscreen; Coola Daily Protection SPF 50 Refreshing Water Cream Sunscreen; Coola Dew Good Illuminating Serum Sunscreen; Coola Environmental 360° Daily Protection SPF 18 Refreshing Water Mist Sunscreen; Coola Liplux Original; Coola Pina Colada Scent Sunscreen Spray; Coola SPF 50 Classic; Coola Scalp Mist Sunscreen SPF 30 Ocean Salted Sage Scent; Cooldry Sport SPF 30; Cooldry Sport SPF 30 Sunscreen Spray; Cooldry Sport SPF 60; Cooldry Sport SPF 60 Sunscreen Spray; Cooldry Sport Sunscreen Spray SPF 100; Coolzone Instantly Cools & Refreshes Rafraîchit Instantanément Spray Sunscreen Écran Solaire En Vaporisateur SPF/fps 30; Coolzone Instantly Cools & Refreshes Rafraîchit Instantanément Spray Sunscreen Écran Solaire En Vaporisateur SPF/fps 50; Coolzone Instantly Cools & Refreshes Rafraîchit Instantanément Sunscreen Lotion Lotion Écran Solaire SPF/fps 30; Coolzone Instantly Cools & Refreshes Rafraîchit Instantanément Sunscreen Lotion Lotion Écran Solaire SPF/fps 50; Copperstone Water Babies Pure and Simple Whipped Sunscreen Broad Spectrum SPF 50 SPF 50; Coppertone Bug & Sun Block SPF 30; Coppertone Clear Blue Sunscreen; Coppertone Clear Orange Sunscreen; Coppertone Clear Sunscreen SPF 30 Sport; Coppertone Clear Sunscreen SPF 50 Sport; Coppertone Clearly Sheer Faces SPF 50; Coppertone Clearly Sheer For Beach and Pool SPF 30; Coppertone Clearly Sheer For Beach and Pool SPF 50 Plus; Coppertone Clearly Sheer For Beach and Pool SPF 50 Plus Face; Coppertone Clearly Sheer For Sunny Days SPF 15; Coppertone Clearly Sheer For Sunny Days SPF 30; Coppertone Clearly Sheer For Sunny Days SPF 30 Face; Coppertone Clearly Sheer SPF 30; Coppertone Clearly Sheer SPF 50; Coppertone Clearly Sheer Whipped SPF 30; Coppertone Clearly Sheer Whipped SPF 50; Coppertone Clearly Sheer Whipped Sunscreen Broad Spectrum SPF 30 SPF 50; Coppertone Clearly Sheer Whipped Sunscreen Broad Spectrum SPF 50 SPF 50; Coppertone Clearly Sher Faces SPF 30; Coppertone Complete Sunscreen SPF 30; Coppertone Complete Sunscreen SPF 50; Coppertone Defend and Care Face Oil Free SPF 30; Coppertone Defend and Care Face Oil Free SPF 50; Coppertone Defend and Care Face SPF 50; Coppertone Defend and Care Face Sunscreen SPF 50; Coppertone Defend and Care Ultra Hydrate SPF 50; Coppertone Defend and Care Ultra Hydrate Whipped SPF 30; Coppertone Defend and Care Ultra Hydrate Whipped SPF 50; Coppertone Defend and Care Ultra Hydrating SPF 50; Coppertone Gel SPF 15; Coppertone Gel SPF 30; Coppertone General Protection Sunscreen Lotion SPF 60; Coppertone Glow Hydragel SPF 50; Coppertone Glow Hydragel Sunscreen SPF 30; Coppertone Glow Suncreen SPF 30; Coppertone Glow Sunscreen SPF 15; Coppertone Glow Sunscreen SPF 30; Coppertone Glow Sunscreen SPF 50; Coppertone KIDS SPF 30; Coppertone KIDS SPF 50; Coppertone KIDS SPF 55; Coppertone Kids Clear SPF 50; Coppertone Kids Clear Sparkle SPF 50; Coppertone Kids Colorblok SPF 40; Coppertone Kids Continuous Spray SPF 60; Coppertone Kids Foam SPF 40; Coppertone Kids Lotion SPF 30; Coppertone Kids SPF 30 Sunblock Lotion; Coppertone Kids SPF 50; Coppertone Kids SPF 50 Sunscreen; Coppertone Kids SPF 70 Plus; Coppertone Kids Sport SPF 100; Coppertone Kids Sport SPF 50; Coppertone Kids Sport Sunscreen SPF 100; Coppertone Kids Sport Sunscreen SPF 50; Coppertone Kids Sunscreen Lotion SPF 60; Coppertone Kids Sunscreen Mousse SPF 60; Coppertone Kids Sunscreen SPF 50; Coppertone Kids Sunscreen SPF 70; Coppertone Kids Sunscreen Stick SPF 55; Coppertone Kids Wet Protect SPF 50; Coppertone Kids Wet'n Clear Sunscreen Continuous Spray SPF 50; Coppertone Limited Edition Sunscreen SPF 30; Coppertone Limited Edition Sunscreen SPF 50; Coppertone Lotion Spray SPF 30; Coppertone Lotion Sunscreen SPF 15 Glow; Coppertone Lotion Sunscreen SPF 15 Sun Guard; Coppertone Lotion Sunscreen SPF 30 Complete; Coppertone Lotion Sunscreen SPF 30 Glow; Coppertone Lotion Sunscreen SPF 30 Sport; Coppertone Lotion Sunscreen SPF 30 Sun Guard; Coppertone Lotion Sunscreen SPF 50 Complete; Coppertone Lotion Sunscreen SPF 50 Defend & Care; Coppertone Lotion Sunscreen SPF 50 Defend & Care Face; Coppertone Lotion Sunscreen SPF 50 Glow; Coppertone Lotion Sunscreen SPF 50 Kids; Coppertone Lotion Sunscreen SPF 50 Sport; Coppertone Lotion Sunscreen SPF 50 Sun Guard; Coppertone Lotion Sunscreen SPF 50 Waterbabies; Coppertone Mousse Sunscreen SPF 50 Defend & Care; Coppertone Mousse Sunscreen SPF 50 Waterbabies; Coppertone Oil Free Faces SPF 50 Plus; Coppertone Oil Free Faces SPF-30; Coppertone Oil Free Faces Sunscreen Lotion SPF 60; Coppertone Oil Free Lotion SPF 45; Coppertone Oil Free SPF 50 Sunscreen; Coppertone Oil Free Sunscreen Lotion SPF 30; Coppertone Oil Free Sunscreen Mousse SPF 60; Coppertone Oil Free Sunscreen SPF 30; Coppertone Protect and Tan SPF 30; Coppertone Protect and Tan Sunscreen SPF 45; Coppertone Pure and Simple Baby SPF 50; Coppertone SPF 15; Coppertone SPF 4; Coppertone SPF 8; Coppertone SPORT PRO SERIES SPF 15; Coppertone SPORT PRO SERIES SPF 30; Coppertone SPORT PRO SERIES SPF 50; Coppertone SPORT SPF 30; Coppertone SPORT SPF 50; Coppertone SPORT SPF 90; Coppertone SPORT Sunscreen Faces SPF 50; Coppertone SPORT Sunscreen SPF 100PLUS; Coppertone SPORT Sunscreen SPF 30; Coppertone SPORT Sunscreen SPF 50; Coppertone SPORT Sunscreen SPF 80; Coppertone Spectra 3 Babies Lotion SPF 50; Coppertone Spectra 3 Kids Lotion SPF 50; Coppertone Spectra 3 Lotion SPF 30; Coppertone Spectra 3 Lotion SPF 50; Coppertone Sport; Coppertone Sport AccuSpray SPF 30; Coppertone Sport AccuSpray SPF 70; Coppertone Sport Clear SPF 30; Coppertone Sport Clear SPF 50; Coppertone Sport Continuous SPF 100 Plus; Coppertone Sport Continuous Spray SPF 50+ Accuspray Sunscreen; Coppertone Sport Free SPF 50; Coppertone Sport Gel SPF-15; Coppertone Sport Gel SPF-30; Coppertone Sport High Performance Faces SPF 50; Coppertone Sport High Performance SPF 30; Coppertone Sport High Performance SPF 50; Coppertone Sport Lotion Sunscreen SPF 15; Coppertone Sport Pro Series Sunscreen Continuous Spray SPF 30; Coppertone Sport Pro Series Sunscreen Continuous Spray SPF 50+; Coppertone Sport SPF; Coppertone Sport SPF 100; Coppertone Sport SPF 100 plus; Coppertone Sport SPF 15; Coppertone Sport SPF 15 Sunscreen; Coppertone Sport SPF 30; Coppertone Sport SPF 50; Coppertone Sport SPF 50 Sunscreen; Coppertone Sport SPF 55; Coppertone Sport SPF 70; Coppertone Sport SPF 75; Coppertone Sport SPF 80; Coppertone Sport Suncreen SPF 50; Coppertone Sport Sunscreen Lip Balm SPF 30; Coppertone Sport Sunscreen Lotion Face SPF 50; Coppertone Sport Sunscreen Lotion Face SPF 60; Coppertone Sport Sunscreen Lotion SPF 15; Coppertone Sport Sunscreen Lotion SPF 30; Coppertone Sport Sunscreen Lotion SPF 50; Coppertone Sport Sunscreen Lotion SPF 60; Coppertone Sport Sunscreen SPF 100; Coppertone Sport Sunscreen SPF 15; Coppertone Sport Sunscreen SPF 30; Coppertone Sport Sunscreen SPF 40; Coppertone Sport Sunscreen SPF 50; Coppertone Sport Sunscreen SPF 70; Coppertone Sport Sunscreen SPL 15; Coppertone Sport Sunscreen Stick; Coppertone Sport Sunscreen Stick SPF 55; Coppertone Sport Wet Protect SPF 30; Coppertone Spray Sunscreen SPF 30 Complete; Coppertone Spray Sunscreen SPF 30 Glow; Coppertone Spray Sunscreen SPF 30 Sport; Coppertone Spray Sunscreen SPF 30 Sun Guard; Coppertone Spray Sunscreen SPF 50 Complete; Coppertone Spray Sunscreen SPF 50 Defend & Care; Coppertone Spray Sunscreen SPF 50 Glow; Coppertone Spray Sunscreen SPF 50 Kids; Coppertone Spray Sunscreen SPF 50 Sport; Coppertone Spray Sunscreen SPF 50 Sun Guard; Coppertone Sunblock Lotion Spf45; Coppertone Sunscreen Continuous Spray SPF 50+; Coppertone Sunscreen Lotion Clearlysheer Face SPF 30; Coppertone Sunscreen Lotion Clearlysheer Face SPF 50; Coppertone Sunscreen Lotion Clearlysheer SPF 30; Coppertone Sunscreen Lotion Face Oil Free SPF 30; Coppertone Sunscreen Lotion Oil Free SPF 50; Coppertone Sunscreen Lotion Oil Free SPF 60; Coppertone Sunscreen Lotion SPF 15 Sun Guard; Coppertone Sunscreen Lotion SPF 30; Coppertone Sunscreen Lotion SPF 30 Sun Guard; Coppertone Sunscreen Lotion SPF 50 Defend & Care; Coppertone Sunscreen Lotion SPF 50 Kids; Coppertone Sunscreen Lotion SPF 50 Sun Guard; Coppertone Sunscreen Lotion SPF 50+ Sport; Coppertone Sunscreen Lotion SPF 50+ Waterbabies; Coppertone Sunscreen Mousse SPF 50 Defend & Care; Coppertone Sunscreen Mousse SPF 50 Waterbabies Pure & Simple; Coppertone Sunscreen SPF 50; Coppertone Sunscreen Spray Clearlysheer SPF 30; Coppertone Sunscreen Spray Clearlysheer SPF 50; Coppertone Sunscreen Spray SPF 15 Sport; Coppertone Sunscreen Spray SPF 30 Sport; Coppertone Sunscreen Spray SPF 30 Sun Guard; Coppertone Sunscreen Spray SPF 50 Defend & Care; Coppertone Sunscreen Spray SPF 50 Kids; Coppertone Sunscreen Spray SPF 50 Sport; Coppertone Sunscreen Spray SPF 50 Sun Guard; Coppertone Sunscreen Stick SPF 50 Water Babies; Coppertone Sunscreen Stick SPF 55; Coppertone Suntan Lotion Spf4; Coppertone Tanning Defend and Glow SPF 15; Coppertone Tanning Defend and Glow SPF 8; Coppertone Tanning SPF 15; Coppertone Tanning SPF 8; Coppertone Tanning Sunscreen SPF 15; Coppertone Tanning Sunscreen SPF 8; Coppertone Tattoo Guard Sunscreen SPF 50; Coppertone TattooGuard Sunscreen SPF 50 Plus; Coppertone Ultra Guard SPF 30; Coppertone Ultra Guard SPF 50; Coppertone Ultra Guard SPF 70; Coppertone Ultra Guard SPF 70 Sunscreen; Coppertone UltraGuard SPF 30; Coppertone UltraGuard SPF 50; Coppertone UltraGuard SPF 70 Plus; Coppertone UltraGuard SPF 70 Plus Sunscreen; Coppertone Ultraguard SPF 30; Coppertone Ultraguard SPF 50; Coppertone Water BABIES SPF 55; Coppertone Water Babies; Coppertone Water Babies Foaming Sunscreen SPF 75 Plus; Coppertone Water Babies Pure And Simple Whipped SPF 50; Coppertone Water Babies SPF 50; Coppertone Water Babies Stick SPF 50; Coppertone Water Babies Sunscreen SPF 70 Plus; Coppertone WaterBABIES Sunscreen SPF 100plus; Coppertone Waterbabies Continuous Spray Sunscreen Lotion SPF 50; Coppertone Waterbabies Pure and Simple Light SPF 50; Coppertone Waterbabies Pure and Simple SPF 50; Coppertone Waterbabies Pure and Simple Sunscreen SPF 50; Coppertone Waterbabies SPF 50; Coppertone Waterbabies Sunscreen Lotion SPF 60; Coppertone Waterbabies Sunscreen Mousse SPF 60; Coppertone Waterbabies Sunscreen SPF 50; Coppertone Waterbabies Whipped SPF 50; Coppertone Wet and Clear Kids SPF 50 Plus; Coppertone Wet and Clear SPF 50 Plus; Coppertone Wet n Clear Kids SPF 45plus; Coppertone Wet n Clear SPF 30; Coppertone Wet n Clear SPF 45plus; Coppertone Wet'n Clear Sunscreen Continuous Spray SPF 30; Coppertone Wet'n Clear Sunscreen Continuous Spray SPF 50; Coppertone kids SPF 50; Coppertone kids SPF 70 Plus; Coppertone kids SPF 75 Plus; Coppertone oil free Foaming Sunscreen SPF 75 Plus; Coppertone oil free SPF 30; Coppertone oil free faces SPF 15; Coppertone oil free faces Sunscreen SPF 30; Coppertone ultraGUARD SPF 15; Coppertone ultraGUARD SPF 30; Coppertone ultraGUARD SPF 50; Coppertone ultraGUARD SPF 90 plus; Coppertone ultraGUARD Sunscreen SPF 100 Plus; Coppertone ultraGUARD Sunscreen SPF 100plus; Coppertone ultraguard; Coppertone water BABIES SPF 70 plus; Coppertone waterBABIES Pure and Simple Free SPF 50; Coppertone waterBABIES Sunscreen SPF 50; Coppertone wet n clear SPF 30; CorTex SunX 50 Thick; Coral Bay Juicy Lip Fix SPF45; CoreTex Professional Outdoor Skin Protection Wallet; CoreTex Sun X 50; CoreTex Sun X SPF 30 Multipack New; CoreTex Sun X SPF 30 New; Cosmopolitan SPF 15 Broad Spectrum Lip Balm; Cosrx; Cover FX Clear Cover Invisible Sunscreen Broad Spectrum SPF 30; Cover Fx Protection Primer SPF 30; Cover Fx SPF 30 Booster Drops Broad Spectrum Sunscreen; Cover Fx Total Cover Foundation SPF 30; Cover Fx Total Coverage Cream Foundation SPF 30; Cover Me Sunscreen; Cranberry Orange SPF 15 Broad Spectrum Lip Balm; Crema Nera Extrema SPF 14; Creme Antirougeurs Apaisante Fps 25; Creme De Corps Light-weight Body Lotion; Creme Ecran Total SPF 25; Creme Fondante SPF 15; Creme Haute Exigence Jour SPF 20; Creme Pour Peaux Intolerantes Au Soleil; Creme Solaire Fondante Protection Minimale 10 SPF; Creme Solaire Haute Protection 20 SPF; Creme Solaire Haute Protection SPF 20; Creme Solaire Haute Protection Special Enfants Et Peaux Reactives Au Soleil SPF 30; Creme Solaire Haute Protection Special Sports SPF 15; Creme Solaire Haute Protection Special Visage 15 SPF; Creme Solaire Tres Haute Protection Special Intolerances 30 SPF; Creme Solaire Tres Haute Protection Special Intolerances SPF 30; Creme Solaire Tres Haute Protection Special Peaux Sensibles 30 SPF; Creme Visage Fps 30; Creme Visage Fps 45; Cremo All-Season Lip Balm SPF 25 Vanilla Mint; Cremo Sunscreen; Crescent White Uv Protector Broad Spectrum SPF 50; Croc Bloc Broad Spectrum SPF 30 FPS Ecran Solaire; Croc Bloc Broad Spectrum SPF 50 Fps Ecran Solaire; Croc Bloc SPF 30 Fps Ecran Solaire; Cross-terrain SPF 50; Ct SPF 20; Cucumber Agave Sparkling Water SPF 15 Broad Spectrum Lip Balm; Cvs Dry Skin Therapy With SPF 15; Cvs Oil Free SPF 15; Cvs Sport SPF 30; Cyantific Protecting Daily Broad Spectrum SPF 30; Cyberwhite Hd Bb Advanced Brightening Broad Spectrum SPF 50; Cyberwhite Hd Uv Protector Broad Spectrum SPF 50; Cyzone Cy; Cyzone SUN BY ME Sunblock SPF 50; Cyzone Sun By Me Face Screen Fps 50 Amplio Espectro; D-one By Tamdoan Bb Light; D-one By Tamdoan Bb Medium; D-one By Tamdoan Sunscreen 50; DAILY DEFENCE SUNSCREEN Broad Spectrum SPF30; DAYWEAR ADVANCED MULTI-PROTECTION ANTI-OXIDANT oil-free BROAD SPECTRUM SPF 25; DDF Advanced Moisture Defense Broad Spectrum SPF 15; DDF Advanced Moisture Defense UV SPF 15; DDF Daily Protective Moisturizer Broad Spectrum SPF 15; DDF Daily Protective Moisturizer SPF 15; DDF Daily Protective SPF 15; DDF Mattifying Moisturizer Broad Spectrum SPF 15; DDF Mattifying Oil Control UV Moisturizer SPF 15; DDF Protect and Correct UV Moisturizer Broad Spectrum SPF 15; DDF Protect and Correct UV Moisturizer SPF 15; DDF Protective Eye Broad Spectrum SPF 15; DDF Protective Eye SPF 15; DDF Ultra-Lite Moisturizing Dew Broad Spectrum SPF 15; DDF Ultra-Lite Oil-Free Moisturizing Dew UV Moisturizer SPF 15; DDF Weightless Defense Hydrator Broad Spectrum SPF 45; DEAD SEA ESSENTIALS ALGAE Smoothing and Protecting Day Broad Spectrum SPF 20; DEET FREE BULLFROG Mosquito Coast Sunscreen with Insect Repellent SPF 30; DEOPROCE UV WATERFUL CUSHION NO 13 Light Beige; DEOPROCE UV WATERFUL CUSHION NO 21 Natural Beige; DEOPROCE UV WATERFUL CUSHION NO 23 Sand Beige; DR. ANDREW WEIL FOR ORIGINS MEGA-BRIGHT SPF 30 SKIN TONE CORRECTING oil FREE MOISTURIZER BROAD SPECTRUM SPF 30; DR. BABOR DERMA CELLULAR Detoxifying Vitamin SPF 15; DR. BABOR DERMA Cellular Detoxifying Vitamin SPF 15 CP; DR. C Tuna Sunscreen 30 SPF Broad Spectrum Face and body; DRH Intensive Sun Block; DT Collagen; Daily Anti-Aging Moisturizer Broad Spectrum SPF30 Sunscreen UVA-UVB Sunscreen with SolSci-X; Daily Defence Shield SPF 30; Daily Defense; Daily Defense Broad Spectrum SPF 15; Daily Defense Broad Spectrum SPF 30; Daily Defense Broad Spectrum SPF 50; Daily Defense SPF 50; Daily Defense Sunscreen Broad Spectrum SPF15; Daily Deflector Mineral Sunscreen SPF 40; Daily Deflector Moisturizer SPF 50; Daily Dose Hydra-Ceramide Boost Broad Spectrum Sunscreen SPF 40; Daily Dose Vitamin C and Broad Spectrum SPF 40 Serum; Daily Driver Sunscreen Broad Spectrum SPF 30; Daily Essential Moisturiser; Daily Facial Moisturizer Broad Spectrum SPF15 Sunscreen; Daily Facial Moisturizer SPF 25; Daily Moisturizer; Daily Moisturizer Oil Free; Daily Moisturizing Broad Spectrum SPF15 Sunscreen; Daily Moisturizing Lotion SPF 15; Daily Offense SPF 30; Daily Protect Sunscreen Moisturizer Broad Spectrum SPF 30; Daily SPF 30; Daily SPF30; Daily Sheer Broad-spectrum Sunscreen SPF 50; Daily Shield Broad Spectrum SPF 20 Moisturizer; Daily Wear Moisturizer SPF-20; Daily Wear SPF 20; Dal Cara Tone Up Sun Base; Damage Control Water Resistant Sunscreen SPF 30; Dawn Patrol Classic Makeup Primer SPF 30 Broad Spectrum; Day Cream Broad Spectrum SPF 15; Day Creme Broad Spectrum SPF 15; Day Moisturizer Broad Spectrum SPF 30 With Skin Firming Retinol; Day Moisturizer SPF 15; Day Wear Advanced Multi-protection Anti-oxidant and Uv Defense Broad Spectrum SPF 30; Day in the sun kit; Daytime Fluid; Daywear Anti Oxidant 72h-hydration Sorbet Creme Broad Spectrum SPF 15; Ddf Advanced Moisture Defense Uv Cream SPF 15; Ddf Daily Protective Moisturizer Uv Moisturizer SPF 15; Ddf Mattifying Oil-control Uv Moisturizer SPF 15; Ddf Protective Eye Cream Uv Moisturizer SPF 15; Ddf Ultra Lite Oil Free Moisturizing Dew Uv Moisturizer; Ddf Ultra-lite Oil-free Moisturizing Dew Uv Moisturizer SPF 45; Dead Sea Natural Face Moisturizer Broad Spectrum SPF 20; Dearderm Daily Mositure Sunscreen; Deep Moisture; Deep Renewal; Deep Wrinkle Moisture; Defend and Care Hydrate SPF50; Defend and Restore Moisture CRème; Defend and Restore Moisture Lotion; Defense Refresh (Re)Setting Mist SPF 40; Defense Refresh Setting Mist Broad Spectrum Sunscreen SPF 50 Supergoop; Defense Total High Protection SPF 50 No Color Daily Non-Greasy Face Protection; Defense Zone Broad Spectrum SPF 30 Sunscreen; Defense Zone Sport Broad Spectrum SPF 30 Sunscreen; Defense Zone Sport Broad Spectrum SPF 50 Sunscreen; Delon Tropic High Protection Sun Spray SPF 30; Deoproce Hyaluronic Cooling Sun; Deoproce Magic Bb 21 Natural Beige; Deoproce Magic Bb 23 Sand Beige; Deoproce Snail Galac Pearl Shining Bb 21 Natural Beige; Deoproce Snail Galac Pearl Shining Bb 23 Sand Beige; Deoproce Uv Defence Sun; Derma Brilliance Sunscreen SPF 30; Derma Geek Nourishing Facial Moisturizer with Sunscreen Broad Spectrum SPF 30; Derma J Sun; Derma Refiner Day Skin Perfecting Set; Derma Soleil Dry Sport SPF 30; Derma Soleil Dry Sports 30 SPF; Derma Soleil Health Natural Sunblock SPF 15; Derma Soleil Health Natural Sunblock SPF 30; Derma Soleil Health Natural Sunblock SPF 45; Derma Soleil Kids Natural Sunblock SPF 30; Derma Soleil Kids Natural Sunblock SPF 45; Derma Soleil Natural Age-Free Facial Sunblock SPF 30; Derma Soleil Natural Age-free Facial Sunblock SPF 30; Derma Soleil Natural Sunblock SPF 15; Derma Soleil Natural Sunblock SPF 30; Derma Soleil Natural Sunblock SPF 45; Derma-E All Sport Performance Sunscreen SPF 50; Derma-E All sport Performance Face Sunscreen SPF 30; Derma-E Kids Active Sunscreen SPF 50; Derma-E Sensitive 3-in-1 sunscreen SPF 30; Dermablend Professional CC Continuous Correction Full Coverage Makeup Broad Spectrum SPF 50 Plus Sunscreen; Dermablend Professional Leg and Body Makeup Broad Spectrum SPF 25 Sunscreen; Dermablend Professional SkinPerfector Redness Reducing Primer Sunscreen; Dermalogica Dynamic Skin Recovery SPF 50; Dermaspf Sun Protect SPF 15; Dermaspf Sun Protect SPF 30; Dermaspf Sun Protect SPF 45; Dermatological Sun Protection; Dermatone SPF 30; Dermatone SPF 50; Dermatone Sunscreen SPF 30; Dermisa SUNSCREEN SPF 55 BROAD SPECTRUM; Dermoessential Sun Mist; Desert Bambu Facial Sunscreen SPF 30; Desert Bambu Sunscreen SPF 30; Desert Fusion Nutritious Olive Leaf Daily Defense Broad Spectrum SPF 15 Sunscreen; Deserving Health Natural Age-Free Facial Sunblock; Deserving Health Natural Age-Free Facial Sunblock 30 SPF; Deserving Health Natural Sunblock; Destination Brands International BROAD SPECTRUM SPF 50 Sunscreen; Dew Good Illuminating Serum; Dfndr Sunscreen SPF 30; Dfndr Sunscreen SPF 50; Diamond Radiance Rejuvenating Cream SPF 15; Diamond White Matte Finish Sun Protection; Differin Oil Absorbing Moisturizer SPF 30; Differin Oil Control Moisturizer SPF 30; Doc Block Body Essential Sunscreen Broad Spectrum SPF30; Doc Block Daily Sunscreen Broad Spectrum SPF55; Dollar General Studio Selection Sun Sunscreen Broad Spectrum SPF 70; Dollar General Studio Selection Sun Sunscreen Broad Spectrum SPF 85 with Aloe; Dove DermaSeries Dry Skin Relief Replenishing Face Cream SPF 15; Dove Dermaseries Dry Skin Relief Face Cream; Dove Men plus Care Hydrate Face; Dove Men plus Care Sensitive Face; Dove Men+care Face Lotion; Dr. Andrew Weil for Origins Mega-bright SPF 30 Skin Tone Correcting Oil-free Moisturizer; Dr. C. Tuna Lumi Radiance Brightening; Dr. C. Tuna Lumi Radiance Brightening Cream; Dr. C. Tuna Lumi Radiance Brightening Cream 22 SPF; Dr. C. Tuna Resurface Essential Day Cream; Dr. C. Tuna Resurface Essential Day Cream SPF 30; Dr. C. Tuna Sun Face and Body SPF 50; Dr. C. Tuna Sunscreen 50 SPF UVA UVB Protection Face and Body Sun; Dr. C. Tuna Sunscreen SPF30 Broad Spectrum; Dr. Evans Oil-Free DEFENSE DAY TINTED MOISTURIZER SPF 55; Dr. Jart Smart BB 01; Dr. Jart Smart BB 02; Dr. Russo Day Moisturizer SPF 30; Dr. Russo Good Morning Cream SPF 30; Dr. Throwers SPF 30 Face and Body Sunscreen; Dr.G Brightening Up Sun Stick; Dr.G DEEP MOIST UP SUN; Dr.Jart Every Sun Day Illuminating Sunscreen SPF 36; Dr.Jart Every Sun Day Sun Fluid; Dr.Jart Every Sun Day Sun Fluid SPF 30; Dr.Jucre Rebirth White Sun Protection; Dr.althea Aurora Cover Cushion 21; Dr.jart Every Sun Day Sun Fluid; Dream Urban Cover; Drive Sunscreen SPF 50; Dry Balance Sunscreen Lotion SPF 30; Dry Balance Sunscreen Lotion SPF 50+; Dry Balance Sunscreen Spray SPF 30; Dry Balance Sunscreen Spray SPF 50+; Dry Oil Antioxidant Sun Protection; Dry Oil Huile Sèche SPF/fps 4; Dry Oil SPF 15; Dry-touch Sunscreen SPF 45; Dual Spectrum SPF 30; Duane Reade Baby SunscreenSPF 50 SPF 50; Duane Reade Oil Free Sunscreen SPF 30; Duane Reade Prevail Moisturizing Sunscreen SPF 30; Duane Reade Prevail Moisturizing Sunscreen SPF 50; Duane Reade Prevail Moisturizing Sunscreen SPF 80; Duane Reade Sport Sunscreen SPF 50; Duane Reade Sports Sunscreen SPF 30; Duane Reade Sports Sunscreen SPF 50; Duane Reade Sunscreen SPF 30; Duane Reade Sunscreen SPF 45; Duane Reade Sunscreen SPF 50; Duane Reade Sunscreen SPF 70; Duo Defence Sunscreen Lotion SPF 30; Duo Defence Sunscreen Lotion SPF 50+; Dynamic Resurfacing SPF 30; EAD Kids; EAU THERMALE Avene Antirougeurs DAY Redness-relief Soothing BROAD SPECTRUM SPF 25; EAU THERMALE Avene Hydrance Optimale Hydrating BROAD SPECTRUM SPF 25; EAU THERMALE Avene Moderate Protection BROAD SPECTRUM SPF 20; EB Epicurus SPF 50 The Sunscreen; ECO EARTH POWER Aqua Sun; ECO EARTH POWER Light Sun; EIGHT SAINTS Chase The Sun SPF-30; ELF Beautifully Bare Foundation Serum Dark Deep With Goji Berry SPF 25; ELF Beautifully Bare Foundation Serum Deep With Goji Berry SPF 25; ELF Beauty Shield SPF 50 Skin Shielding Moisturizer; ELF Daily Hydration Moisturizer SPF 15; EQUATE Sunscreen BABY Broad Spectrum SPF 50; EQUATE Sunscreen SPORT Broad Spectrum SPF 30; ESIKA Perfect Sun Kids; ESSENTIALS Face and Body Sunscreen; ESTEE LAUDER MULTI-DEFENSE AQUA UV gel BROAD SPECTRUM SPF 50; EVEN TONE and RADIANCE CC Color Correction Skin Protection SPF30; EXTREME AHAVA Extreme Daily Firmness And Protection Broad Spectrum SPF30; Ead; Easydew Daily Fresh Mild Sun; Easydew Daily Water Proof Sun; Easydew EX Fresh Mild SunScreen SPF50 PLUS PA PLUS PLUS PLUS; Eau Thermale Avene Hydrating Sunscreen Balm SPF 50 Plus; Eau Thermale Avene Hydrating Sunscreen SPF 50; Eau Thermale Avene Ultra-Light Hydrating Sunscreen SPF 50; Eco Earth Power Aqua Sun; Eco Earth Power Clear Sun; Eco Earth Power Face and Body Waterproof Sun Block; Eco Earth Power Light Sun; Eco Earth Power Pink Sun; Eco Lips PlantPod Sunscreen Lip Balm Berry SPF 15; Eco Lips PlantPod Sunscreen Lip Balm Mint SPF 15; Eco Soul Bounce Crea m Foundation 01 Light Beige; Eco Soul Bounce Crea m Foundation 02 Natural Beige; Eco Soul Essence Cushion All Cover 13; Eco Soul Essence Cushion All Cover 17; Eco Soul Essence Cushion All Cover 21; Eco Soul Essence Cushion All Cover 23; Eco Soul Spau BB Cake 01 Light Beige; Eco Soul Spau BB Cake 02 Natural Beige; Eco Soul Spau BB Cushion 01 Light Beige; Eco Soul Spau BB Cushion 02 Natural Beige; Ecoglam Sun Sti Ck Plus; Ecran Soleil; Eezy Pro SPF 30; Eezy Pro SPF 50; Eezy Pro SPF30; Eezy Pro SPF50; Eezy Sun SPF 30; Eezy Sun SPF 50; Eezy pro; Effaclar Duo (+) SPF 30; Eight Hour Cream Targeted Sun Defense SPF 50; Elements Anti Aging Vitamin Complex 7 In 1; Elixir FINE Sunscreen Broad Spectrum SPF 15; EltaMD UV Sheer; Emulsion SPF 50+; Enfuselle Lip Treatment SPF 15 Broad Spectrum; Enfuselle Time Repair A.M. SPF15; Enlighten Ee Even Effect Skin Tone Corrector SPF Broad Spectrum SPF 30; Environmental Defense Sunscreen SPF 50; Eos Active Protection Fresh Grapefruit Sunscreen Lip Balm Broad Spectrum SPF 30; Eos Active Protection Lemon Twist Sunscreen Lip Balm Broad Spectrum SPF 15; Eos Lip Balm Sunscreen Broad Spectrum SPF 15; Equaline All Day Moisturizer; Equaline Kids Continuous Sunscreen SPF 50; Equaline Kids SPF 50; Equaline SPORT Sunscreen SPF 30; Equaline Sport Sunscreen Continuous SPF 30; Equaline Sport Sunscreen SPF 30; Equaline Sport Sunscreen SPF 50; Equate; Equate Anti-Wrinkle; Equate Baby Sunscreen; Equate Baby Sunscreen Lotion SPF/fps 60; Equate Beauty Daily Moisturizer SPF-30 Sunscreen; Equate Beauty Hydro Sunscreen SPF 50; Equate Beauty Ultra Light SPF 100; Equate Beauty Ultra Light Sunscreen SPF 70; Equate Beauty Ultra Light Sunscreen SPF70 Broad spectrum; Equate Kids Sunscreen Lotion SPF/fps 60; Equate SPF 50 Sport Sunscreen; Equate SPF 50 Ultra Sunscreen; Equate SPF 50 Ultra Sunscreen Continuous; Equate SPF 50 Ultra Zinc Sunscreen; Equate SPF 70 Ultra Sunscreen; Equate SUNSCREEN spf 50 SPORT broadspectrum; Equate Sport Sunscreen Continuous Spray SPF/fps 60; Equate Sport Sunscreen Lotion SPF/fps 30; Equate Sport Sunscreen Lotion SPF/fps 60; Equate Sunscreen KIDS SPF50 Broad Spectrum; Equate Sunscreen Lotion SPF/fps 30; Equate Sunscreen Mineral Based KIDS Broad Spectrum spf 50; Equate Sunscreen SPF 30 SPORT Broad Spectrum; Equate Sunscreen SPF 50 BABY Broad Spectrum; Equate Sunscreen SPF 50 SPORT Broad Spectrum; Equate Sunscreen SPF 70 SPORT Broad spectrum; Equate Sunscreen SPF100 SPORT Broad Spectrum; Equate Sunscreen SPF70 ULTRA Broad spectrum; Equate Sunscreen SPORT SPF 100; Equate Ultra Light Sunscreen MIST SPF70; Equate beauty road Spectrum SPF30; Equate beauty ultra light Suncreen SPF 55; Equate-Sunscreen Broad Spectrum SPF 50 ULTRA; Eshu Skin Assist SPF 30 Moisturising Sunscreen; Esika Perfect Sun; Esika Perfectblock Multiprotector Solar De Amplio Espectro Para Rostro Y Cuerpo Fps 50plus; Esika Protector Against Solar Rays for Children, Face and Body SPF 50; Essential Energy Day Cream; Essential Shockeye and Lip; Essential-C Day Moisture SPF 30; Estee Lauder Advanced Time Zone Age Reversing Line/wrinkle Creme SPF 15 for Dry Skin; Estee Lauder Daywear 72h-hydration Sorbet Creme CRème Sorbet Hydratation 72h SPF/fps 15; Estee Lauder Daywear Advanced Multi-protection Uv Defense SPF 50; Estee Lauder Daywear Multi-protection 24h-moisture Creme Oil-free SPF 25; Estee Lauder Enlighten Ee Even Effect Skintone Corrector SPF 30; Estee Lauder Genuine Glow Priming Moisture Balm SPF 15; Estee Lauder Resilience Lift Firming/sculpting Face and Neck Creme Oil-free SPF 15 for Normal/combination Skin; Estee Lauder Resilience Lift Firming/sculpting Face and Neck Creme SPF 15 for Dry Skin; Estee Lauder Resilience Lift Firming/sculpting Face and Neck Creme SPF 15 for Normal/combination Skin; Estee Lauder Resilience Multi-effect Tri-peptide Face and Neck Creme CRème Tri-peptide Visage Et Cou SPF/fps 15 Dry Skin Peaux Sèches; Estee Lauder Revitalizing Supreme+ Global Anti-aging Creme SPF 15; Estée Lauder Resilience Multi-effect Tri-peptide Face and Neck Creme CRème Tri-peptide Visage Et Cou SPF/fps 15; Eternal Spirit Beauty SPF 50Sunscreen; Eucerin Advance Hydration Sunscreen SPF 30; Eucerin Advanced Hydration SPF 50 Sunscreen; Eucerin Advanced Hydration Sunscreen SPF 50; Eucerin Age Defense; Eucerin Age Defense SPF 50 Sunscreen; Eucerin Complete Hydration Lotion; Eucerin Complete Hydration Spray; Eucerin Daily Hydration; Eucerin Daily Hydration Hand; Eucerin Oil Control; Eucerin Oil-Control SPF 50 Sunscreen; Eucerin Redness Relief Daily Perfecting; Eve Lom Daily Protection Broad Spectrum SPF 50 Sunscreen; Eve Lom Flawless Radiance Primer Broad Spectrum SPF 30 Sunscreen; Eve Lom Radiant Glow Cream Foundation Broad Spectrum SPF 30 Sunscreen; Even Better Skin Tone Correcting Moisturizer Broad Spectrum SPF 20; Even Better Skin Tone Correcting Mosturizer SPF 20; Even Tone Daily Moisturizer; Even and Bright Moisturizer SPF15; Evervescence Daily Facial Moisturizer Broad Spectrum SPF15 Sunscreen; Every Man Jack Broad Spectrum SPF 30; Every Man Jack SPF 30 Sunscreen; Every. Single. Face. Watery SPF 50; Everyday Face and body Broad Spectrum SPF 30 Supergoop; Everyday Nourishing Broad Spectrum SPF30 Sunscreen UVA-UVB Suncreen; Everyday Sunscreen Broad Spectrum SPF 30 Supergoop; Everyday Sunscreen Broad Spectrum SPF 50 Supergoop; Everyday Superstars SPF Discovery Kit; Everyday Uv Protector Sun Screen; Everyman Jack Broad Spectrum SPF 50; Everyman Jack SPF 50; Exact Cooling and Refreshing Clear Continuous Spray Sunscreen SPF/fps 45; Exact Kids' Sunscreen Lotion SPF Fps 30; Exact Sunscreen Lotion SPF Fps 30; Excel SPF 30; Excel Sport SPF 50; Exchange Select Baby Sunscreen SPF 50; Exchange Select Dark Tanning Sunscreen SPF 4; Exchange Select Kids SPF 50; Exchange Select Kids Sunscreen SPF 50; Exchange Select Sheer Dry Touch Sunscreen SPF 70; Exchange Select Sport SPF 50; Exchange Select Sport Sunscreen Continuous SPF 30; Exchange Select Sport Sunscreen Continuous SPF 70; Exchange Select Sport Sunscreen SPF 30; Exchange Select Sport Sunscreen SPF 50; Exchange Select Sunscreen SPF 30; Exchange Select Sunscreen SPF 45; Exchange Select Sunscreen SPF 50; Exchange Select Sunscreen SPF 70; Exel; Exel Clarifying Line SPF 50; Expedition BackCountry SPF 30; Exsel Sport SPF 15; Exsel Sport SPF 30; Extra-firming Jour Fps/SPF 15; Extreme (UVA/UVB) SPF 33; Extreme Anti-Wrinkle Care SPF 30; Extreme Sport SPF 70; Extreme Tea SPF 15 Broad Spectrum Lip Balm; FC5 Complexion Perfecting Set; FC5 Complexion Revitalizing Set; FC5 Face Normal to Dry Sample Set; FC5 Face Oily Combination Sample Set; FC5 Nurturing Day Broad Spectrum SPF 20 Sunscreen; FC5 Oil-Absorbing Day Broad Spectrum SPF 20 Sunscreen; FEVANZON Isolation Sunscreen; FEVANZON Polypeptide Revitalizing Essence Emulsion; FEVANZON Revitalizing Cream; FEVANZON Revitalizing Lady Cream; FOTOSKINOX Color Face Cream Sunscreen Broad Spectrum SPF 50; FRE Protect Body Broad Spectrum SPF30; Face & Body Sunscreen Broad Spectrum SPF 30; Face & Neck Multi Action Visage Et Cou Multi Action Day Cream / CRème De Jour SPF 30 / Fps 30; Face Anti-shine Cream; Face Balm SPF-15; Face Daily Uv Anti-aging Moisturizer; Face Daily Uv Anti-dry Moisturizer; Face Daily Uv Tinted Moisturizer; Face Guard Advanced; Face Lift Broad Spectrum SPF 20 Jafra Pro; Face Mist; Face Multi-protection Sun Cream SPF 15; Face Multi-protection Sun Cream SPF 30; Face Multi-protection Sun Cream SPF 50; Face Plus Scalp Invisible Daily SPF 30 Broad Spectrum; Face Potion; Face Protector Broad Spectrum SPF 40 Jafra; Face Protector SPF 40; Face SPF 47 Setting; Face SPF 50; Face Stick Premium Endurance Sunscreen 30; Face Sunscreen SPF 45; Face Values - AM Facial Moisturizing Broad Spectrum SPF30 Sunscreen; Face Values Daily Facial Moisturizing SPF 30 Sunscreen; Face Values Refreshing Cooling Body Mist Sunscreen SPF 45; Face Values Ultra Light Body Mist Sunscreen SPF 30; Face Values Ultra Light Dry to the Touch Sunscreen Broad Spectrum SPF 55; Face Values Ultra Sport Active SPF 30 Sunscreen; Face Values Ultra Sport Active SPF 50 Sunscreen; Face Values Wet N Dry Wet Skin SPF 30 Sunscreen; Face Values Wet N Dry Wet Skin SPF 50 Sunscreen; Face Values Wet N Dry Wet Skin Sunscreen SPF 50; Face and Body Protective Lotion SPF 30; Face and Body SPF 30; Face and Body Sunscreen SPF 35 Jafra; Face and Body Sunscreen Spray SPF 35; Faces Sunscreen Lotion for Babies; Facescreen SPF 50; Facet Daily Moisturizer SPF 35; Facial Fuel; Facial Fuel SPF 15; Facial Fuel Uv Guard; Facial Primer Protector SPF 50; Facial Sheer Shield SPF45; Facial Sun Stick SPF 30; Fair BB Cream SPF15; Fair and Square Sport Sunscreen SPF 30; Fair and Square Sport Sunscreen SPF 50; Fair and Square Ultra Protection Sunscreen SPF 15; Fair and Square Ultra Protection Sunscreen SPF 30; Family Dollar Tropic Sun Kids SPF 50 Sunscreen; Family Dollar Tropic Sun SPF 70 Sport Sunscreen; Family Dollar Tropic Sun Sport Sunscreen Continuous SPF 30; Family Sunscreen SPF 36; Fast-drying Sunscreen SPF 30; Fc5 Nurturing Day Lotion With SPF 20; Fc5 Oil-absorbing Day Lotion With SPF 20; Fermitif Neck Renewal Cream Broad Spectrum SPF 15 Sunscreen US; Festival Favorites; Firmalift Firming and Lifting Cream SPF 30; First Aid Beauty FAB Broad Spectrum Sunscreen SPF 30; First Aid Only SunX30 Sunscreen; Fix+ SPF 30 Sun Spray; Flavored Lips SPF 30; Florida Grown Broad Spectrum SPF 15; Florida Grown Sunscreen Broad Spectrum SPF15; Florida Salt Scrub Broad Spectrum SPF 30; Florida Salt Scrubs Broad Spectrum SPF 50; Florida Salt Scrubs Florida Grown Broad Spectrum SPF 15 Sunscreen; Florida Salt Scrubs Florida Snowbird Sunscreen 30 Broad Spectrum SPF 30; Florida Squeeze SPF 30; Florida Squeeze SPF 50; Florida Suncare Broad Spectrum SPF 15; Florida Suncare Broad Spectrum SPF 30; Florida Suncare Broad Spectrum SPF 50; Flormar BB White BW01 Light; Flormar BB White BW02 Light Medium; Flormar BB White BW03 Dark Medium; Flormar BB White BW04 Medium Beige; Flormar BB White BW05 Natural Beige; Flormar BB White BW06 Warm Beige; Flormar Blur Effect BB Sunscreen Broad Spectrum SPF 30 01 Light; Flormar Blur Effect BB Sunscreen Broad Spectrum SPF 30 02 Light Medium; Flormar Blur Effect BB Sunscreen Broad Spectrum SPF 30 03 Dark Medium; Flormar Radiant Pink Skin Highlighter Sunscreen Broad Spectrum SPF 15; Fluid Foundation SPF 30 Color 01; Fluid Foundation SPF 30 Color 02; Fluid Foundation SPF 30 Color 03; Fluide De Jour; Fluide De Jour Fps 20 Pro-derm; Fluide Fondant Desalterant SPF 15 Hydra Quench - Formula B; Fluide Fondant Desalterant Super Hydratant SPF 15; Fluide Fondant Désalterant SPF 15; Fluide Lift Jour Toutes Peaux - Multi Régénérante - SPF 15; Fluide Éclat Du Jour SPF 15; For Kids SPF 45 Sunscreen Lotion; For Men Maca Root Energetic Face Protector SPF 15; For The Face; For The Gardener Lip Balm SPF 30; Forever Sun Lips; Forever Young Hand Broad Spectrum SPF 40 Supergoop; Forever Young Hand Cream With Sea Buckthorn; Fote Block Up Kids SPF 50 Sunscreen; Fote Cabana Beach Club With Manuka Honey and Essential Oils SPF 30 Sunscreen; Fote Sport Sunscreen SPF 50; Fotoskinox face cream sunscreen; Foundation Primer Sunscreen Broad Spectrum SPF 15; Fps 15 Lait Solaire; Fps 30 Lait Solaire; Fps 30 Soin Complet; Fps 45 Soin Complet; Fps 50 Lait Solaire; Fps 60 CRème Uv Hydratante; Fps 60 Lotion Uv Ultra-Légère; Fps 60 Soin Complet; Fre Broad Spectrum; Fresh Cooling Body Mist Sunscreen SPF 30; Fresh Cooling Body Mist Sunscreen SPF 45; Fresh Cooling Sunblock Gel SPF 30; Fresh Cooling Sunblock Gel SPF 45; Fresh Cucumber Classic Body SPF 30 Broad Spectrum; Fresh Essentials Daily Nourishing Moisturizer; Fruit Of The Earth Kids SPF/fps 50; Fruit Of The Earth Moisturizing Aloe Baby SPF 45 Sunblock; Fruit Of The Earth Moisturizing Aloe Kids SPF 30 Sunblock; Fruit Of The Earth Moisturizing Aloe SPF 30 Sunblock; Fruit Of The Earth Moisturizing Aloe SPF 45 Sunblock; Fruit Of The Earth SPF/fps 30; Fruit Of The Earth SPF/fps 50; Fruit Of The Earth Sport SPF/fps 30; Fruit Of The Earth Sport SPF/fps 50; Fruit of The Earth Sun Town City Kids SPF 50 Sunscreen; Fruit of the Earth Block Up Broad Spectrum Baby SPF 50; Fruit of the Earth Block Up Broad Spectrum Sport SPF 50; Fruit of the Earth Block Up Kids SPF 50; Fruit of the Earth Block Up Kids SPF 50 Continuous Sunscreen; Fruit of the Earth Block Up Kids SPF 50 Moisturizing Sunscreen; Fruit of the Earth Block Up SPF 30 General Protection Sunscreen; Fruit of the Earth Block Up SPF 30 Sunscreen; Fruit of the Earth Block Up SPF 50; Fruit of the Earth Block Up SPF 50 Full Spectrum Sunscreen; Fruit of the Earth Block Up SPF 70 General Protection Sunscreen; Fruit of the Earth Block Up Sport SPF 30 Continuous Sunscreen; Fruit of the Earth Block Up Sport SPF 30 Sunscreen; Fruit of the Earth Block Up Sport SPF 50 Continuous Sunscreen; Fruit of the Earth Block Up Sport SPF 50 Moisturizing Sunscreen; Fruit of the Earth Block Up Sport SPF 50 No Mess Sun; Fruit of the Earth Block Up Sport SPF 50 Sunscreen; Fruit of the Earth Cabana Beach Club; Fruit of the Earth Cabana Beach Club Lip Balm with Blood Orange and Essential Oils SPF 30; Fruit of the Earth Cabana Beach Club Lip Balm with Manuka Honey and Essential Oils SPF 30; Fruit of the Earth Cabana Beach Club Lip Balm with Mentha and Essential Oils SPF 30; Fruit of the Earth Cabana Beach Club with Blood Orange and Essential Oils SPF 30; Fruit of the Earth Cabana Beach Club with Manuka Honey and Essential Oils SPF 50; Fruit of the Earth Cabana Beach Club with Mentha and Essential Oils SPF 50; Fruit of the Earth Cabana Beach Clubwith Blood Orange and Essential Oils SPF 50; Fruit of the Earth Lip Balm SPF 30 Sunscreen Stick; Fruit of the Earth SPF 50 Kids Sunscreen; Fruit of the Earth SPF 50 Moisturizing Sunscreen; Fruit of the Earth SpaCology; Fruit of the Earth SpaCology Sport SPF 50; Fruit of the Earth Sport SPF 50; Fruit of the Earth Sport SPF 50 Sunscreen Continuous; Fruit of the Earth Sun Town City; Fruit of the Earth Sun Town City Baby SPF 50 Sunscreen; Fruit of the Earth Sun Town City Dark Tanning SPF 8 Sunscreen; Fruit of the Earth Sun Town City SPF 15 Sunscreen; Fruit of the Earth Sun Town City SPF 30 Sunscreen; Fruit of the Earth Sun Town City SPF 50 Sunscreen; Fruit of the Earth Sun Town City SPF 50 Zinc Sunscreen; Fruit of the Earth, Inc. Luv That Sun Kids SPF 50 Natural Sunscreen; Fruit of the Earth, Inc. Luv That Sun SPF 30 Continuous; Fruit of the Earth, Inc. Luv That Sun SPF 30 Natural Sunscreen; Fruit of the Earth, Inc. Ultra SPF 50 Moisturizing Sunscreen; Futur E SPF 15 Moisturizing Lotion; Future E SPF 15; Future Solution Lx Daytime Protective Cream SPF 15; Future Solution Lx Daytime Protective Cream SPF 18; Future Solution Lx Total Protective Cream E; Future Solution Lx Total Protective Emulsion E; Future Solution Lx Universal Defense; GLYTONE Triple Defense Brightening Complex with Sunscreen Broad Spectrum SPF 30; GM Collin 50Plus DRY TOUCH SUN PROTECTION; GUINOT Large Defense uv Medium protection Sunscreen for the body SPF 20; GUINOT Ultra UV Sunscreen High Protection Sun Cream for the face and body SPF 30; Garnier Moisture Rescue Lightweight UV; Garnier Ombrelle 30 Complete Dry Mist SPF 30 Water Resistant 80 Minutes; Garnier Ombrelle 60 Complete Dry Mist SPF 60 Water Resistant 80 Minutes; Garnier Ombrelle Clear Sport 45 Water Resistant 40 Minutes; Garnier Ombrelle Clear Sport 50 Plus Water Resistant 40 Minutes; Garnier Ombrelle Complete Sensitive Advanced Lightweight hypoallergenic SPF 45 Mexoryl Technology; Garnier Ombrelle Face Anti-Shine SPF 60 Mexoryl Technology; Garnier Ombrelle Kids Ultra Gentle Broad Spectrum SPF 50 Plus Sunscreen Water Resistant 80 Minutes; Garnier Ombrelle Kids Ultra Gentle SPF 50 Plus Water Resistant 80 Minutes; Garnier Ombrelle Kids Wet N Protect Hypoallergenic SPF 45 Mexoryl Technology; Garnier Ombrelle SPF 15 Complete; Garnier Ombrelle SPF 30 Complete Lightweight; Garnier Ombrelle SPF 30 Complete UVA UVB Sensitive Advanced Sunscreen for Sensitive Skin Hypoallergenic Non comedogenic Quick Absorption Water/sweat resistant 80 minutes; Garnier Ombrelle SPF 30 Face Ultra Light; Garnier Ombrelle SPF 30 Kids Water Resistant; Garnier Ombrelle SPF 30 Sport Endurance Water Resistant; Garnier Ombrelle SPF 30 Sport Water Resistant; Garnier Ombrelle SPF 30 UVA UVB Kids Wet N Protect Sunscreen Protection Even on Wet Skin Hypoallergenic Water/sweat resistant 80 minutes Quick Absorption; Garnier Ombrelle SPF 45 Complete Lightweight; Garnier Ombrelle SPF 45 Face Ultra Light; Garnier Ombrelle SPF 45 Kids Hypoallergenic; Garnier Ombrelle SPF 45 Sport; Garnier Ombrelle SPF 50 Kids Water Resistant; Garnier Ombrelle SPF 60 Complete Lightweight; Garnier Ombrelle SPF 60 Complete UVA UVB Sensitive Advanced Sunscreen for Sensitive Skin Hypoallergenic Non comedogenic Quick Absorption Water/sweat resistant 80 minutes; Garnier Ombrelle SPF 60 Face Ultra Light; Garnier Ombrelle SPF 60 UVA UVB Kids Wet N Protect Sunscreen Protection Even on Wet Skin Hypoallergenic Water/sweat resistant 80 minutes Quick Absorption; Garnier Ombrelle Sport 30; Garnier Ombrelle Sport 30 Water Sweat Resistant Sunscreen; Garnier Ombrelle Sport Endurance 60; Garnier Ombrelle Sport Vaporisateur Broad Spectrum SPF 30 Sweat Resistant 80 Minutes; Garnier Ombrelle Ultra Light Advanced 30; Garnier Ombrelle Ultra Light Advanced 60; Garnier Ombrelle Ultra Light Advanced Broad Spectrum SPF 50 Plus Sunscreen Water Resistant 80 Minutes; Garnier Ombrelle Ultra Light Advanced Broad Spectrum SPF 50 Plus Sunscreen Water Resistant 80 Minutes Weightless Body; Garnier Ombrelle Ultra Light Advanced SPF 60 Water Resistant 80 Minutes; Garnier Ombrelle Ultra Light Hydrating Face Sunscreen; Garnier Skin Renew Daily Moisture Anti Sun Damage; Garnier Skin Renew Dark Spot Hand Treatment Broad Spectrum SPF 30; Garnier SkinActive Clearly Brighter AntiSun Damage Daily Moisturizer Broad Spectrum SPF 30 Sunscreen; Garnier SkinActive Clearly Brighter Brightening and Smoothing Daily Moisturizer Broad Spectrum SPF 15 Sunscreen; Garnier SkinActive Moisture Bomb Broad Spectrum SPF 30 Sunscreen; Garnier SkinActive Moisture Rescue Actively Hydrating Daily Fragrance Free Broad Spectrum SPF 15; Garnier SkinActive Moisture Rescue Broad Spectrum SPF 15 Sunscreen Oil Free All Skin Types Actively Hydrating Daily; Garnier SkinActive Ultra Lift AntiWrinkle Firming Daily Moisturizer Broad Spectrum SPF 15 Sunscreen; Garnier Ultra Lift Anti Wrinkle Firming Moisturizer; Garnier Ultra Lift Deep Wrinkle Intensive Day; Garnier Ultra Lift SPF 30 Deep Wrinkle Day; Garnier UltraLift Transformer AntiAge Skin Corrector Broad Spectrum SPF 20 Sunscreen; Garnier green labs Brightening Serum PineaC Broad Spectrum SPF 30 Sunscreen; Garnier green labs Pore Perfecting CannaB Serum Broad Spectrum SPF 30 Sunscreen; Garnier green labs Replumping HyaluMelon Broad Spectrum SPF 30 Sunscreen; Gel Creme Protecteur SPF 15; Gel Protector Solar Protecting Body Milk Lait Corps Protecteur SPF 20; Gel Solaire Bronzage Securite SPF 15; Gelee Fraiche Hydratante SPF 10; Gelee Fraiche Hydratante SPF 15; Gelée Solaire Fraîcheur Protection Faible 8 SPF; General Protection; Generations Nadinola Day Time Protecting Moisturizer SPF 15; Gentle Rejuvenation Fortified Sunscreen Broad Spectrum SPF 30 With Vitamin C; Gentle Rejuvenation System; Gentle Rejuvenation Ultra Light Repair SPF 30 Sunscreen; Gilded Glam Broad Spectrum SPF 10; Gillette Fushion Proseries Instant Hydration UV Moisturizer; Gillette Fusion ProSeries Instant Hydration Moisturizer Broad Spectrum SPF 15; Gillette Fusion ProSeries Instant Hydration UV Moisturizer SPF 15; Giorgio Armani Crema Nera Extrema Essential Defense Fluid Broad Spectrum SPF 14 Sunscreen; Giorgio Armani Crema Nera OMC3 Obsidian Mineral Restoring SPF 15; Giorgio Armani Regenessence High Lift Muti Firming Rejuvenating Broad Spectrum SPF 15 Sunscreen; Giorgio Armani Regenessence High Lift SPF 15; Givenchy Multiprotective Luminescence Moisturizing Fluid SPF 30; Gliza Body Mist Sunscreen Broad Spectrum SPF 100; Glossier sun glaze gleaming sunscreen oil broad spectrum SPF 30 Water Resistant 40 Min; Glow 30; Glow Body Mist SPF 50; Glow Face SPF 15 Sunscreen Lotion; Glow Go Lip Oil; Glow Go Lip Oil SPF50; Glow Oil Broad Spectrum Sunscreen SPF 50; Glow Radiant Moisturizer SPF 15; Glow Screen Body Broad Spectrum Sunscreen SPF 40; Glow Screen SPF 40; Glow Stick Broad Spectrum SPF 50; Glowscreen; Glowstunner Tinted Moisturizer; Glycolic Day Cream SPF 30; Glyquin Xm; Glysomed Face Moisturizer; Glytone Body; Glytone Clarifying SunVanish with Sunscreen; Glytone Daily Body; Glytone SunVanish Skin Lightening; Glytone Suncare SPF 50; Gnarly Head SPF 30; Gold Bond Ultimate 5-in-1 Face; Gold Bond Ultimate Age Defense Hand Cream with SPF 20; Gold Bond Ultimate Neck and Chest Age Defense Cream with SPF 20; Gold Bond Ultimate Protection; Golden Defense - Moisturizing Sun Lotion SPF 15; GolfersSkin Face Sunscreen; GolfersSkin Sunscreen Lip Balm; Good Neighbor Pharmacy Kids SPF 50; Good Neighbor Pharmacy Kids Sunscreen Broad Spectrum SPF 50; Good Neighbor Pharmacy Sport Sunscreen Continuous SPF 30; Good Neighbor Pharmacy Sport Sunscreen SPF 30; GoodSense SPF 30 Sport CSpray Comfort Can; GoodSense SPF 30 Sunscreen; GoodSense SPF 50 CSpray; GoodSense SPF 50 Sport Comfort Can; GoodSense SPF 50 Sunscreen; GoodSense Sport Sunscreen SPF 30; GoodSense Sport Sunscreen SPF 50; GoodSense Sunscreen SPF 30; GoodSense Sunscreen SPF 50; GoodSense Sunscreen SPF 70; Goslings Chopsaver Broad Spectrum SPF Lip Balm; Gp Sunscreen; Gradual Self-tanning sunscreen SPF 20 Doctor Ts Supergoop; Grape Soda SPF 15 Broad Spectrum Lip Balm; Grape Tanning Oil SPF 15; Grape Tanning Oil SPF6; Grapefruit SPF 30 Broad Spectrum; Grapefruit Shandy SPF 15 Broad Spectrum Lip Balm; Gray Malin Kit; Guava Mango Sport SPF 30 Broad Spectrum; Guerlain Super Aqua-Day; H-E-B Dead Sea Organics Protect and Perfect Day Broad Spectrum SPF15; H.E.B Solutions Sunscreen; H.E.B. Solutions Sunscreen; H.E.b; H.E.b Baby; H.E.b Banana; H.E.b Mango; H.E.b Solutions Sunscreen; H.E.b Ultra; H2O Beauty AQUADEFENSE PROTECTIVE MATCHA SPF 40; HAWAIIAN Tropic; HAWAIIAN Tropic Dry Clear Sunscreen Broad Spectrum SPF 12 water resistant; HEB Solutions Sunscreen; HEB Solutions Sunscreen Ultra 30; HUGGIES Little Swimmers; Habana Brisa SPF 30 Sunscreen; Habana Brisa SPF 50 Sunscreen; Habana Brisa SPF 70 Sunscreen; Habana SPF 30 Sunscreen; Habana SPF 50 Sunscreen; Habana SPF 70 Sunscreen; Habit SPF 38 Cucumber Mister; Habit SPF 39 White Peach and Neroli Mister; Habit SPF 41; Hada Labo Tokyo Protecting Day SPF 18; Hada Labo Tokyo Protecting Day SPF 30; Hampton SPF 15; Hampton SPF 8 Bronze; Hampton Sun SPF 15 Silk; Hampton Sun SPF 30 Silk; Hampton Sun SPF 50; Hampton Sun SPF 70; Hand Cream Intensive Anti-ageing SPF 15; Hand Screen Broad Spectrum Sunscreen SPF 40; Hand Treatment Regimen; Hand and Décolleté Cream Sunscreen SPF 15; Hangover Good To Go Moisturizer SPF 25; Hangover Good To Go Skin Protecting SPF 25 Moisturizer; Hanson Daily Moisturizer SPF30; Harmon Face Values Break-out Free SPF 55 Sunscreen; Harmon Face Values Daily Facial; Harmon Face Values Refreshing Cooling Body Mist Sunscreen SPF 45; Harmon Face Values Revitalizing Day; Harmon Face Values Ultra Light Dry to the Touch SPF 100 Sunscreen; Harmon Face Values Ultra Light Dry to the Touch Suncreen SPF 55; Harmon Face Values Ultra Light Dry to the Touch Sunscreen Broad Spectrum SPF 45; Harmon Face Values Ultra Light Dry to the Touch Sunscreen Broad Spectrum SPF 70; Harmon Face Values Ultra Sport Active Sunscreen SPF 30; Harmon Revitalizing Facial Smoother Immediate Skin Smoothing Finishing Broad Spectrum SPF30 Sunscreen; HashtagSUN SPF 50 SunScreen Dabber; Haute Exigence Jour SPF 20 Multi-intensive; Havana Sun SPF 30 Sunscreen; Hawaiian Shaved Ice Lip Balm Broad Spectrum SPF 30; Hawaiian Sunscreen SPF 50+; Hawaiian Tropic; Hawaiian Tropic 30 SPF; Hawaiian Tropic 30 SPF Splash Sunblock; Hawaiian Tropic 45 Plus Sunblock Lotion; Hawaiian Tropic 45 SPF Sunblock; Hawaiian Tropic 45 SPF Sunblock Stick; Hawaiian Tropic 60 SPF Fps Sunscreen Lotion Ecran Solaire; Hawaiian Tropic AntiOxidant Sunscreen SPF 30 Broad Spectrum; Hawaiian Tropic AntiOxidant Sunscreen SPF 50 Broad Spectrum; Hawaiian Tropic Baby; Hawaiian Tropic Baby Faces 50 Sunblock Lot; Hawaiian Tropic Baby Faces Sunblock SPF 35; Hawaiian Tropic Baby Lotion Sunscreen Écran Solaire Pour Bébés 60; Hawaiian Tropic Bioshield 30 SPF Sensitive; Hawaiian Tropic CRème Continuous Flow Sunscreen Écran Solaire À Écoulement Continu 30 SPF/fps; Hawaiian Tropic Carrot Protective Oil SPF 30; Hawaiian Tropic Creme Continuous Flow Sunscreen Ecran Solaire A Ecoulement Continu 10; Hawaiian Tropic Creme Continuous Flow Sunscreen Ecran Solaire A Ecoulement Continu 50; Hawaiian Tropic Dry Oil Huile Sèche Sunscreen Spray Écran Solaire En Vaporisateur 10; Hawaiian Tropic Dry SPF 30; Hawaiian Tropic Duo Defence Refresh Sunscreen Mist SPF 30; Hawaiian Tropic Everyday Active High Performance Sport Sunscreen SPF30; Hawaiian Tropic Everyday Active SPF15; Hawaiian Tropic Everyday Active SPF30; Hawaiian Tropic Everyday Active SPF50; Hawaiian Tropic Herbal Aloe 45 SPF Lip Balm; Hawaiian Tropic Ilk Hydration Weightless; Hawaiian Tropic Invisible Sunscreen Sheer Touch SPF 30; Hawaiian Tropic Invisible Sunscreen Sheer Touch SPF 50; Hawaiian Tropic Island Sport Clear Sunscreen Spray Ecran Solaire Transparent En Vaporisateur 30; Hawaiian Tropic Island Sport SPF 30; Hawaiian Tropic Island Sport SPF 30 for Canada; Hawaiian Tropic Island Sport Sunscreen Broad Spectrum SPF 15; Hawaiian Tropic Island Sport Sunscreen Broad Spectrum SPF 16; Hawaiian Tropic Island Sport Sunscreen Broad Spectrum SPF 30; Hawaiian Tropic Island Sport Sunscreen Broad Spectrum SPF 50; Hawaiian Tropic Island Sport Sunscreen Lotion SPF 50; Hawaiian Tropic Island Sport Sunscreen UVAUVB Broad Spectrum SPF 50; Hawaiian Tropic Island Sport Sweat Resistant Sunscreen Lotion SPF 30; Hawaiian Tropic Island Sport Sweat Resistant Sunscreen Lotion SPF 50; Hawaiian Tropic Island Sport Sweat Resistant Sunscreen Spray SPF 30; Hawaiian Tropic Island Sport Sweat Resistant Sunscreen Spray SPF 50; Hawaiian Tropic Island Tanning Broad Spectrum SPF 15; Hawaiian Tropic Island Tanning Broad Spectrum SPF 25; Hawaiian Tropic Island Tanning Clear Sunscreen Broad Spectrum SPF 30; Hawaiian Tropic Island Tanning Sunscreen Cocoa Butter SPF 4; Hawaiian Tropic Kids Lotion Sunscreen Écran Solaire Pour Enfants 60; Hawaiian Tropic Kids SPF 30; Hawaiian Tropic Kids Sunscreen Clear Spray Écran Solaire Incolore En Vaporisateur Pour Enfants 60; Hawaiian Tropic Kids Sunscreen Lotion SPF/fps 50+; Hawaiian Tropic Lip Balm SPF 45 Cherry; Hawaiian Tropic Lip Balm Sunscreen SPF 25; Hawaiian Tropic Lip Balm Sunscreen SPF 30; Hawaiian Tropic Lip Balm Sunscreen Stick; Hawaiian Tropic Lip Balm Sunscreen Stick Broad Spectrum SPF 45; Hawaiian Tropic Matte Effect Mineral Enriched Sunscreen Lotion SPF 30; Hawaiian Tropic Matte Effect Mineral Enriched Sunscreen Lotion SPF 50; Hawaiian Tropic Matte Effect Mineral Enriched Sunscreen SPF 30; Hawaiian Tropic Matte Effect Mineral Enriched Sunscreen SPF 50; Hawaiian Tropic Oil Spray Huile En Vaporisateur Moisturizing Sunscreen Écran Solaire Hydratant 4 SPF/fps; Hawaiian Tropic Oil Spray Moisturizing Sunscreen SPF 4; Hawaiian Tropic Protective Argan Dry Oil Sunscreen Spray SPF 15; Hawaiian Tropic Protective Dry Oil Sunscreen Spray SPF/fps 10; Hawaiian Tropic SPF 15; Hawaiian Tropic SPF 30 Splash for Kids Sunblock; Hawaiian Tropic SPF 45 Plus Uva/uvb Protection Sunblock Stick; Hawaiian Tropic Sensitive Skin Peau Sensible Face Visage Sunscreen Lotion Écran Solaire 30; Hawaiian Tropic Sensitive Skin Peau Sensible Lotion Sunscreen Spray Lotion Ecran Solaire En Vaporisateur 50; Hawaiian Tropic Sheer Touch; Hawaiian Tropic Sheer Touch Clear Sunscreen Spray SPF 30 Ultra Radiance; Hawaiian Tropic Sheer Touch Clear Sunscreen Spray SPF 50+ Ultra Radiance; Hawaiian Tropic Sheer Touch SPF 30; Hawaiian Tropic Sheer Touch SPF30; Hawaiian Tropic Sheer Touch Sunscreen Broad Spectrum SPF 15; Hawaiian Tropic Sheer Touch Sunscreen Ultra Radiance Broad Spectrum SPF 50; Hawaiian Tropic Sheer Touch Toucher Soyeux Clear Sunscreen Spray Écran Solaire Transparent En Vaporisateur 30; Hawaiian Tropic Sheer Touch Toucher Soyeux Clear Sunscreen Spray Écran Solaire Transparent En Vaporisateur 60; Hawaiian Tropic Sheer Touch Toucher Soyeux Lotion Sunscreen Ecran Solaire 30; Hawaiian Tropic Sheer Touch Toucher Soyeux Lotion Sunscreen Écran Solaire 45; Hawaiian Tropic Sheer Touch Toucher Soyeux Lotion Sunscreen Écran Solaire 60; Hawaiian Tropic Sheer Touch Toucher Soyeux Oil-free Sunscreen Écran Solaire Sans Huile 15 SPF/fps; Hawaiian Tropic Sheer Touch Toucher Soyeux Oil-free Sunscreen Écran Solaire Sans Huile 30 SPF/fps; Hawaiian Tropic Sheer Touch Toucher Soyeux Oil-free Sunscreen Écran Solaire Sans Huile 45 SPF/fps; Hawaiian Tropic Sheer Touch Toucher Soyeux Oil-free Sunscreen Écran Solaire Sans Huile 60 SPF/fps; Hawaiian Tropic Sheer Touch Toucher Soyeux Oil-free Sunscreen Écran Solaire Sans Huile 85 SPF/fps; Hawaiian Tropic Sheer Touch Ultra Radiance Sunscreen Broad Spectrum SPF 30; Hawaiian Tropic Sheet Touch Ultra Radiance Sunscreen SPF 50; Hawaiian Tropic Shimmer Effect Oil-free Sunscreen Écran Solaire Sans Huile 15 SPF/fps; Hawaiian Tropic Shimmer Effect Oil-free Sunscreen Écran Solaire Sans Huile 30 SPF/fps; Hawaiian Tropic Silk Hydration Broad Spectrum SPF 15; Hawaiian Tropic Silk Hydration Clear Sunscreen Broad Spectrum SPF 50; Hawaiian Tropic Silk Hydration Clear Sunscreen Broad Spectrum SPF50; Hawaiian Tropic Silk Hydration Face Oil-free Sunscreen; Hawaiian Tropic Silk Hydration Sunscreen Broad Spectrum SPF 30; Hawaiian Tropic Silk Hydration Sunscreen Broad Spectrum SPF 50; Hawaiian Tropic Silk Hydration Sunscreen Face Broad Spectrum SPF 30; Hawaiian Tropic Silk Hydration Sunscreen Lotion Écran Solaire 10 SPF/fps; Hawaiian Tropic Silk Hydration Sunscreen Lotion Écran Solaire 30 SPF/fps; Hawaiian Tropic Silk Hydration Sunscreen Lotion Écran Solaire 50 SPF/fps; Hawaiian Tropic Silk Hydration Weghtless Face; Hawaiian Tropic Silk Hydration Weightless; Hawaiian Tropic Silk Hydration Weightless Clear Sunscreen SPF 15; Hawaiian Tropic Silk Hydration Weightless Clear Sunscreen SPF30; Hawaiian Tropic Silk Hydration Weightless Clear Sunscreen Spray SPF 50 Plus; Hawaiian Tropic Silk Hydration Weightless Daily Use Sunscreen Mist Spray SPF 30; Hawaiian Tropic Silk Hydration Weightless Sunscreen Lotion With Hydrating Ribbons SPF 30; Hawaiian Tropic Silk Hydration Weightless Sunscreen Lotion With Hydrating Ribbons SPF 50; Hawaiian Tropic Sport 8 SPF Sunscreen; Hawaiian Tropic Sport Sunscreen Everyday Active; Hawaiian Tropic Sunblock Lip Balm SPF 45; Hawaiian Tropic Sunblock Sport 30 Lot; Hawaiian Tropic Sunblock Stick Splash SPF 50; Hawaiian Tropic Sunscreen Clear Weightless Hydration Spf70; Hawaiian Tropic Sunscreen Lotion Écran Solaire 4; Hawaiian Tropic Sunscreen Lotion Écran Solaire 8; Hawaiian Tropic Sunscreen Sheer Touch Face SPF 30; Hawaiian Tropic Sunscreen Sheer Touch Face SPF 50; Hawaiian Tropic Sunscreen Sheer Touch SPF 70; Hawaiian Tropic Tanning; Hawaiian Tropic Tanning Dry SPF 6; Hawaiian Tropic Touch Of Colour Tinted Sunscreen Spray Lotion SPF 15; Hawaiian Tropic Touch Of Colour Tinted Sunscreen Spray Lotion SPF 4; Hawaiian Tropic everyday Active Sport Sunscreen SPF50; Hawaiin Tropic Island Tanning SPF 6; Hawaiin Tropic Silk Hydration Dry Broad Spectrum SPF 30; Head to Toe Kit; Head-to-Toe Favorites Mini Set; Healthy Defense Daily Moisturizer SPF 30; Healthy Defense Daily Moisturizer SPF 45; Healthy Defense Sunblock Lotion SPF 30; Healthy Defense Sunblock Lotion SPF 45; Healthy Skin Lift & Firm; Healthy Wear Tinted Moisturizer SPF 50; Heb; Heb Broad Spectrum SPF 30 Banana Scented Sunscreen; Heb Broad Spectrum SPF 30 Coconut Scented Sunscreen; Heb Broad Spectrum SPF 30 Mango Scented Sunscreen; Heb Broad Spectrum SPF 30 Pomegranate Scented Sunscreen Lip Balm; Help Me Broad Spectrum SPF 30 Sunscreen Retinol Day Treatment Lotion; Herbal Aloe Face and Body SPF 30; Herbalife SKIN 7 Day Results Kit; Herbalife Skin Protective Moisturizer SPF 30; High Performance Sunscreen Lotion SPF 15; High Performance Sunscreen Spray SPF 15; High Performance Sunscreen Spray SPF 50; High Protection Lotion SPF 50+; High Protection Spray SPF 50+; High Protection Suncare Oil SPF 30; Hissyfit Body Double Moisturizer; Hissyfit Handy Work; Holy Hydration! Face Cream SPF 30 Sunscreen; Hope In A Jar Broad Spectrum SPF 25 Sunscreen and Moisturizer for All Skin Types; Hope In A Jar SPF 25; House 99 By David Beckham Bold Statement Body Tattoo Moisturizing Broad Spectrum SPF 50 Sunscreen; Hurley Broad Spectrum SPF; Hurley Broad Spectrum SPF 15; Hurley Broad Spectrum SPF 15 Sunscreen; Hurley Broad Spectrum SPF 30; Hurley Broad Spectrum SPF 50; Hurley Sunscreen Broad Spectrum SPF15; Hurley Sunscreen Broad Spectrum SPF50; Hyalu-melon With Conditioning (hyaluronic Acid + Watermelon); Hydra Beaute SPF 15; Hydra Life CRème Pro-jeunesse Avec Protection Uva/uvb; Hydra Life Fluide Pro-jeunesse Avec Protection Uva/uvb; Hydra-Essential SPF 15 Broad Spectrum - SPF 15 - Sunscreen; Hydra-essentiel Fluide Fondant Désaltérant Peaux Normales À Mixtes Fps/SPF 15; Hydra-total 5 Ultra-even Lotion; Hydraboost Moisturizer SPF 30; Hydraction Visible Defense Creme Legere Hydra-protectrice SPF 20; Hydraction Visible Defense Creme Riche Hydra-protectrice SPF 20; Hydraday; Hydraday Face Moisturizer SPF 15; Hydralife Youth Essential Hydrating Essence-IN-base SPF 30; Hydrance Optimale SPF 25; Hydraphase Uv Intense; Hydraplasty Face; Hydratant Défense Fps 30; Hydrating Antioxidant Moiturizer; Hydrating Body Sunscreen UVA and UVB Broad Spectrum SPF50; Hydrating Glow Mist SPF 50; Hydrating Lip Balm SPF 15 sunscreen ASAP; Hydrating Lip Balm Sunscreen; Hydrating Protection Sunscreen CVS; Hydrating Protection Sunscreen SPF 30 CVS; Hydrating Protection Sunscreen SPF 50 CVS; Hydrating SPF 30; Hydrating SPF 50; Hydrating and Balancing Moisturizer SPF 15; Hydration Invisiblur Perfecting Shield Broad Spectrum SPF 30; Hydrator Plus; Hydrator Plus SPF 30; Hydro Boost City Shield Gel Cream SPF 25; Hydro Boost Gel Cream SPF 15; Hydro Boost Gel Cream SPF 25; Hydro Boost Water Gel Lotion Sunscreen; Hydro Boost Water Gel Lotion Sunscreen SPF 30; Hydro Boost Water Gel Lotion Sunscreen SPF 50; Hydrosport Sunscreen Spray SPF 30; Hydrosport Sunscreen Spray SPF 50; Hylands Naturals Vanilla Sunscreen Lip Balm SPF 15; I KNOW Very Necessary Broad Spectrum SPF-40 Moisturizing Cream; IOPE UV Defense Sun Protector SPF 50plus; ISA KNOX 365 SUNSCREEN BROAD SPECTRUM SPF 50 Plus; IT Cosmetics Your Skin But Better CC Plus Color Correcting Full Coverage Antiaging Hydrating Serum Broad Spectrum SPF 50 Plus Clear Sunscreen; IT Cosmetics Your Skin But Better CC Plus Nude Glow Color Correcting Medium Coverage Skin Tint Brightening Glow Serum Broad Spectrum SPF 40 Sunscreen All Shades; ITK Broad spectrum SPF 30 Sunscreen; Iced Pear Lip Balm; Iced Pear SPF 15 Broad Spectrum Lip Balm; Idc Fps/SPF 50; Ideal Flawless CC Color Corrector; Ideal Flawless Cc Color Corrector Cream; Ideal Moisture Dry Skin; Ideal Moisture Even Tone; Ideal Moisture Normal Skin; Ideal Moisture Sensitive Skin; Ideal Soleil SPF 50+; Idéal Soleil Spf30; Illuminating Daily Moisturizer; Illuminating Daily Moisturizer SPF 30; Iluma Brightening Hand CRème SPF 15; Im Clear Cica Sunstick; Im Derma Relief Sunstick; Image Essentials Daily Illuminating Moisturizer Broad Spectrum SPF 15 Sunscreen; Image MD Restoring Lip Enhancer SPF15; Image Prevention Plus Professional Ultimate Protection Moisturizer SPF50; Image Skincare Prevention Plus Daily Ultimate Protection; Iman Sun Defense Lotion SPF 25; Immortelle Brightening Hand Care SPF 15; In Transit Skin Defence; Infinity; Inspired by Color Lemon Lime SPF 30; InstaReady Face Primer; InstaReady Face Primer SPF 18; Instant Bronzer Instantané 15; Instant Bronzer Instantané 15 Continuous Spray Sunscreen; Instant Bronzer Instantané 30 Continuous Spray Sunscreen; Instant Bronzer Instantané 30 Spray Gel Sunscreen; Instant Bronzer Instantané 4 Spray Gel Sunscreen; Instant Dry Mist SPF 50 Sunscreen Spray; Intense Care Gold 24k Snail Sun; Intensite Creme Lustre Day SPF 30 US; Intensive 3-IN-1 Day Cream SPF 30; Invisible Protect SPF 30 Cool Gel; Invisible Protect SPF 30 Sheer Spray; Invisible Protect SPF 50 Sheer Spray; Invisible Protect SPF 50+ Cool Gel; Invisible Uv Filters SPF 30; Invisiblur Perfecting Shield Broad Spectrum SPF 30 Pa+++; Iope Brightgen; Iope Men Uv Defense Sun Protector; Iope Uv Defense Sun Protector; Iope Uv Defense Sun Protector EX; Iope Uv Men Defense Sun Protector EX; Ipkn City Proof Sun Mist; Ipsa Sun Protector Cream Broad Spectrum SPF 30; Isa Knox Anew Solaire Active Face and Body Protection Broad Spectrum SPF 50 Sunscreen; Isa Knox Anew Solaire Everyday Face Protection Broad Spectrum SPF 50 Sunscreen; Isa Knox Lxnew Platinum Sculpting Day Broad Spectrum SPF 30 Sunscreen; Island Life; Island Sport Sunscreen Lotion SPF 30; Islander Spf6; J0830014 Jason Sun Family Sunscreen SPF45; J0832014 Jason Sun Sport Sunscreen SPF45; J0832212 Jason Kids Sunscreen SPF45; J0832706 Jason Sun Facial Sunscreen SPF20; JACKET SPF-50 Broad Spectrum Sunscreen; JUNGSAEMMOOL Skin Setting Tone Correcting Base; Jafra Pro; Jafra Pro Face Lift SPF 20; Jafra Royal Defy Sample Kit; Jafra Royal Defy Travel Kit; Jafra Royal Jelly Revitalize; Jafra Royal Luna Bright Kit; Jafra Royal Men Sample Set; Jafra Sun body protector sunscreen broad spectrum SPF 50; Jafra Sun sunscreen broad spectrum SPF 50; Jafra Sun tinted face protector sunscreen broad spectrum 50; Jane Seymour Natural Advantage AM SPF 15 All Day Moisture with AHAs; Jane Seymour Oil-Free Tinted Moisturizer with SPF 55; Jason Facial Natural Sunscreen Broad Spectrum SPF20; Jason Pure Natural Sun Family Natural Sunscreen Broad Spectrum SPF45; Jason Pure Natural Sun Kids Natural Sunscren Broad Spectrum SPF45; Jason Pure Natural Sun Sport Natural Sunscreen Broad Spectrum SPF45; Jason Sun Facial Sunscreen Broad Spectrum SPF20; Jason Sun Family Sunscreen Broad Spectrum SPF45; Jason Sun Kids Sunscreen Broad Spectrum SPF45; Jason Sun Sport Sunscreen Broad Spectrum SPF45; Jayjun Wakepure Calming Sun; Jazzy Jellies - Lip Twist; Jergens BB Body; Jergens BB Hand SPF 20; Jergens Bb Hand Perfecting Hand Cream With Sunscreen; Jergens Bb Protect Perfecting Body Cream With Sunscreen; Jergens Natural Glow Daily Moisturizer with Sunscreen SPF 20; Jergens Natural Glow Face Daily Moisturizer for Fair/Medium Skin; Jergens Natural Glow Face Daily Moisturizer for Medium/Tan Skin; Jergens Natural Glow Éclat Naturel Daily Facial Moisturizer With Sunscreen; Jergens Skin Firming Neck and Chest; Juice Box SPF 15 Broad Spectrum Lip Balm; Juicy Lip Balm SPF 15; Julep Lip Shade Sheer Lip Butter Almond Nude SPF 30; Julep Lip Shade Sheer Lip Butter Crimson SPF 30; Julep Lip Shade Sheer Lip Butter Currant SPF 30; Julep Lip Shade Sheer Lip Butter Dahlia SPF 30; Julep Lip Shade Sheer Lip Butter Lace SPF 30; Julep Lip Shade Sheer Lip Butter Macaroon SPF 30; Julep Lip Shade Sheer Lip Butter Petal SPF 30; Julep Lip Shade Sheer Lip Butter Plumeria SPF 30; Julep Lip Shade Sheer Lip Butter Poppy SPF 30; Julep Lip Shade Sheer Lip Butter Primrose SPF 30; Julep Lip Shade Sheer Lip Butter Raisin SPF 30; Jungle Juice SPF 15 Broad Spectrum Lip Balm; Jungsaemmool Skin Setting Tone-UP Sun Base; Jurlique SPF40 High Protection Sunscreen; Just Shine by Australian Gold Broad Spectrum SPF 50 Pink Glitter Sunscreen; Justice by Australian Gold Broad Spectrum SPF 50 Pink Glitter Sunscreen; KINERASE SPF 30 Broad Spectrum UVA/UVB; KISS MY FACE SPF-50 Face Factor; Karanja Tree Sunshield SPF 30 Molton Brown Skin Care; Kelo-cote Uv SPF 30; Key Lime Pie Shake SPF 15 Broad Spectrum Lip Balm; Key West Tan SPF15; Keys Soulcare Daily Moisturizer Broad Spectrum Spf30 Sunscreen; Kid's SPF 30; Kid's Sunscreen SPF 46; Kids (80 Minutes) Water Resistant Lotion SPF 30; Kids 45 SPF Sunscreen Spray; Kids Disappearing Color SPF50 Broad Spectrum Suncreen Green Apple Scented; Kids Disappearing Color SPF50 Broad Spectrum Suncreen Pink Strawberry Scented; Kids Enfants Splash 30 SPF/fps; Kids Enfants Splash 50 SPF/fps Sunscreen Spray Ecran Solaire En Vaporisateur; Kids Pour Enfants Sunscreen Lotion Écran Solaire SPF/fps 60; Kids Powder-dri Pour Enfants Sunscreen Lotion Ecran Solaire SPF/fps 30; Kids SPF 30+ Spray-ON Sunscreen; Kids SPF 45 Sunscreen Spray; Kids SPF 50; Kids SPF 50 Sunscreen; Kids SPF 50 Sunscreen Spray; Kids Spray; Kids Sprayable Sunscreen Lotion SPF 50; Kids Sunscreen; Kids Sunscreen Continuous Spray; Kids Sunscreen Continuous Spray SPF 50+; Kids Sunscreen Continuous Spray SPF/fps 60; Kids Sunscreen Lotion 50+; Kids Sunscreen Lotion SPF 100; Kids Sunscreen Lotion SPF 50+; Kids Sunscreen Lotion SPF/fps 60; Kids Sunscreen SPF 50; Kids Sunscreen SPF 50 Meijer; Kids Sunscreen SPF 50 Wegmans; Kids Sunscreen SPF 70; Kids Sunscreen SPF 70 Meijer; Kids Sunscreen Spray SPF 100; Kids Sunscreen Stick SPF 50+; Kids Sunscreen Stick Écran Solaire En Bâtonnet Pour Enfants SPF Fps 50; Kids Tear Free Sans Larmes Sunscreen Spray Écran Solaire En Vaporisateur Pour Enfants SPF Fps 30; Kids Tear Free Sans Larmes Sunscreen Spray Écran Solaire En Vaporisateur Pour Enfants SPF Fps 50; Kids Tear Free/ Sans Larmes Sunscreen Spray Écran Solaire En Vaporisateur Pour Enfants SPF Fps 60; Kids Uv Lotion; Kids Wet & Dry Sunscreen SPF 60; Kids'sunscreen Broad Spectrum SPF 60 Spray; Kiehls Activated Sun Protector Ultra Light Sunscreen SPF 50 for Body Sweat and Water Resistant; Kiehls Since 1851 Activated Sun Protector Broad Spectrum SPF 30 Sunscreen Water Resistant 80 MInutes; Kiehls Since 1851 Activated Sun Protector Broad Spectrum SPF 30 Sunscreen for Body; Kiehls Since 1851 Activated Sun Protector Broad Spectrum SPF 50 Sunscreen; Kiehls Since 1851 Activated Sun Protector Broad Spectrum SPF 50 Sunscreen Water Resistant 80 MInutes; Kiehls Since 1851 Activated Sun Protector For Body Broad Spectrum SPF 50 Sunscreen; Kiehls Since 1851 Activated Sun Protector for Face Broad Spectrum SPF 50 Sunscreen; Kiehls Since 1851 Broad Spectrum SPF 30 Sunscreen Powerful Wrinkle Reducing; Kiehls Since 1851 Butterstick Lip Treatment Broad Spectrum SPF 25 Sunscreen; Kiehls Since 1851 CrossTerrain UV Skin Protector Broad Spectrum SPF 50 Sunscreen Water Resistant 80 Minutes; Kiehls Since 1851 CrossTerrain UV Skin Protector SPF 50 Water and Swear Resistant Sunscreen; Kiehls Since 1851 Dermatologist Solutions Activated Sun Protector Sunscreen Broad Spectrum SPF 50 For Body; Kiehls Since 1851 Dermatologist Solutions Skin Tone Correcting and Beautifying BB Sunscreen; Kiehls Since 1851 Dermatologist Solutions Super Fluid Daily UV Defense Broad Spectrum SPF 50 plus Sunscreen Antipollution Lightweight Formula; Kiehls Since 1851 Dermatologist Solutions Super Fluid UV Defense Ultra Light Sunscreen SPF 50 Plus; Kiehls Since 1851 Dermatologist Solutions SuperFluid UV Defense Broad Spectrum SPF 50 Plus Sunscreen; Kiehls Since 1851 Facial Fuel Daily Energizing Moisture Treatment for Men Broad Spectrum SPF 20 Sunscreen; Kiehls Since 1851 Facial Fuel Energizing Moisture Treatment for Men Broad Spectrum SPF 15 Sunscreen; Kiehls Since 1851 Facial Fuel UV Guard Broad Spectrum SPF 50 Plus Sunscreen WR80; Kiehls Since 1851 Facial Fuel UV Guard Fast Absorbing Sunscreen for Men SPF 50 Plus; Kiehls Since 1851 Super Multi Corrective Broad Spectrum SPF 30 Sunscreen; Kiehls Since 1851 Ultra Facial Broad Spectrum SPF 30 Sunscreen; Kiehls Since 1851 Ultra Facial Moisturizer Broad Spectrum SPF 30 Sunscreen For All Skin Types; Kiehls Super Fluid Daily UV Defense SPF 50 plus Anti-Pollution Lightweight Formula for All Skin Types; Kiko Milano Bright Lift Day; Kiko Milano Bright Lift Matte; Kiko Milano Hydra Pro Day; Kiko Milano Sublime Youth Day; Kinerase SPF 15 Cream; Kinesys; Kinesys Broad Spectrum SPF 30 Alcohol-Free Performance Sunscreen - Fragrance Free; Kinesys Broad Spectrum SPF 30 Alcohol-Free Performance Sunscreen Fragrance-Free; Kinesys Broad Spectrum SPF 30 Alcohol-Free Sunscreen; Kinesys Broad Spectrum SPF 30 Alcohol-Free Sunscreen - Mango Scent; Kinesys Broad Spectrum SPF 30 Girl Alcohol-Free Sunscreen; Kinesys Broad Spectrum SPF 30 KiDS Alcohol-Free Sunscreen; Kinesys Broad Spectrum SPF 30 Kids Alcohol-Free Sunscreen; Kinesys Broad Spectrum SPF 30 girl Alcohol-Free Sunscreen; Kinesys Broad Spectrum SPF 50 Alcohol Free Sunscreen; Kiss My Face Bare Naked Broad Spectrum SPF 30; Kiss My Face Cool Sport SPF 50 Broad Spectrum; Kiss My Face Kids Defense Broad Spectrum SPF 50; Kiss My Face SPF 30 Face Stick; Kiss My Face SPF 30 Lip Balm; Kiss My Face SPF 30 Sport Lip Balm; Kiss My Face SPF 30 Sport Treatmint Lip Balm; Kiss Therapy SPF 30 Blueberry Lime Lip Balm; Kiss Therapy SPF 30 Cucumber Melon Lip Balm; Kiss Therapy SPF 30 Grapefruit; Kiss Therapy SPF 30 Strawberry; Kiss Therapy SPF 30 Strawberry Mint Lip Balm; Kiss Therapy SPF 30 Superfruit; Kiss Therapy SPF 30 Watermelon Rosemary Lip Balm; Kiss Therapy Sunscreen SPF 30 Lip Balm; Kiss and Shield Lip Balm Lemon Lime SPF 30; Klenskin Broad Spectrum SPF-50; Klenskin Kids Showeron Sunscreen SPF-30; Klenskin Showeron Sunscreen SPF-30; Klenskin Showeron Sunscreen Spa SPF-30; Klenskin Sunbar SPF-20; Klenskin Wash On Sunscreen SPF-30; Korres Quercetin 7 Oak Hydrating Antiageing and Antiwrinkle SPF4; Korres Quercetin and Oak Hydrating Antiageing and Antiwrinkle Day Broad Spectrum SPF15; Korres Quercetin and Oak Hydrating Antiageing and Antiwrinkle Day SPF4; Korres Suncare Yoghurt Nourishing Fluid Veil Face Sunscreen Broad Spectrum SPF 30; Korres Suncare Yoghurt Nourishing Milk Body Sunscreen Broad Spectrum SPF 44; Kroger Baby SPF 50; Kroger Baby SPF 50 Sunscreen; Kroger Baby Sunscreen SPF 70; Kroger Dry Touch Ultra Sheer SPF 100 Sunscreen; Kroger Dry Touch Ultra Sheer SPF 70 Sunscreen; Kroger Kids SPF 50 Sunscreen; Kroger Kids SPF 50 Sunstick; Kroger Kids Sunscreen SPF 70; Kroger Kids Tear Free Spf50; Kroger Kroger Kids Sunscreen SPF 50; Kroger Oil Free Sunscreen SPF 30; Kroger SPF 15; Kroger SPF 30 Sunscreen; Kroger SPF 50; Kroger Sheer Dry Touch Sunscreen SPF 55; Kroger Sheer Dry Touch Sunscreen SPF 70; Kroger Sheer dry-touch SFP 30; Kroger Sport SPF 30 Sunscreen; Kroger Sport SPF 50 Sunstick; Kroger Sport Sunscreen SPF 30; Kroger Sport Sunscreen SPF 50; Kroger Sport sunscreen SPF 50; Kroger Sunscreen SPF 30; L OCCITANE AU BRESIL - JENIPAPO Lip Gloss SPF 25 Broad Spectrum; L OCCITANE AU BRESIL - JENIPAPO Protecting Body Jelly Milk SPF 20 Broad Spectrum; L OCCITANE AU BRESIL - JENIPAPO Protecting Body SPF 15 Broad Spectrum; L OCCITANE FRESH BODY with Organic Verbena Extract SPF25 Broad Spectrum Sunscreen; L Occitane Cade Protective Moisturizing Fluid - for Men Broad Spectrum SPF 20 Sunscreen; L Occitane Immortelle Brightening Hand Care Broad Spectrum SPF 20 Sunscreen; L Occitane Immortelle Precious Protection Broad Spectrum SPF 20 Sunscreen; LA Bodies Eclipse Sunscreen SPF 30; LA Bodies Eclipse Sunscreen SPF 50; LA MER THE REPARATIVE BODY SUN Broad Spectrum SPF 30; LA MER THE REPARATIVE FACE SUN Broad Spectrum SPF 30; LA Mer The Broad Spectrum SPF 50 Uv Protecting Fluid; LA Mer The Reparative Body Sun Lotion SPF 30; LA Mer The Reparative Face Sun Lotion SPF 30; LA Mer The SPF 50 Uv Protecting Fluid; LA Muse Return 2 Blessing Visual; LAPOTHICELL Sunscreen; LAURA GELLER BEAUTY SUN KISSED COLOR LIP BALM TRIO BROAD SPECTRUM SPF 15 Pink - Coral - Berry; LAURA GELLER BETTER THAN BARE TINTED MOISTURIZER BROAD SPECTRUM SUNSCREEN SPF 50 Plus Beige 200; LAURA GELLER BETTER THAN BARE TINTED MOISTURIZER BROAD SPECTRUM SUNSCREEN SPF 50 Plus Deep 430; LAURA GELLER BETTER THAN BARE TINTED MOISTURIZER BROAD SPECTRUM SUNSCREEN SPF 50 Plus Fair 130; LAURA GELLER BETTER THAN BARE TINTED MOISTURIZER BROAD SPECTRUM SUNSCREEN SPF 50 Plus Medium 230; LAURA GELLER BETTER THAN BARE TINTED MOISTURIZER BROAD SPECTRUM SUNSCREEN SPF 50 Plus Sand 400; LAURA GELLER BETTER THAN BARE TINTED MOISTURIZER BROAD SPECTRUM SUNSCREEN SPF 55- Beige 200; LAURA GELLER BETTER THAN BARE TINTED MOISTURIZER BROAD SPECTRUM SUNSCREEN SPF 55- Deep 430; LAURA GELLER BETTER THAN BARE TINTED MOISTURIZER BROAD SPECTRUM SUNSCREEN SPF 55- Fair 130; LAURA GELLER BETTER THAN BARE TINTED MOISTURIZER BROAD SPECTRUM SUNSCREEN SPF 55- Medium 230; LAURA GELLER BETTER THAN BARE TINTED MOISTURIZER BROAD SPECTRUM SUNSCREEN SPF 55- Sand 400; LBEL DEFENSE TOTAL broad spectrum SPF 50 plus sunscreen for face and body; LBEL DEFENSE TOTAL broad spectrum SPF 50plus sunscreen for face and body; LBEL Defense Total Compact Suncreen SPF 50 For Face - Matte Finish; LBEL Defense Total broad spectrum SPF 50 plus sunscreen for face and body; LBEL Defense Total broad spectrum SPF 50plus sunscreen for face and body; LBEL Dermo Clarite; LBEL Dermo Clarite Clarifying and Moisturizing with SPF 30; LBEL ESSENTIAL Deep moisturizing and oxygenating SPF 20 normal to dry skin; LBEL ESSENTIAL Deep moisturizing and oxygenating SPF 20 normal to oily skin; LBEL ESSENTIAL deep moisturizing and oxygenating SPF 20 normal to oily skin; LBEL ESSENTIAL moisturizing and oxygenating SPF 20 normal to dry skin; LBEL LEDERM 35 plus JOUR Facial against first signs of aging; LBEL LEDERM 35plus Jour SPF 15 Facial Treatment Against First Signs of Aging Day - Normal to Dry Skin; LBEL LEDERM 35plus Jour SPF 15 Facial Treatment Against First Signs of Aging Day - Oily Skin; LBEL LEDERM 45 plus JOUR Facial against noticeable signs of aging; LBEL LEDERM 45plus Jour SPF 15 Facial Treatment Against Noticeable Signs of Aging Day - Normal to Dry Skin; LBEL LEDERM 45plus Jour SPF 15 Facial Treatment Against Noticeable Signs of Aging Day - Oily Skin; LBEL LEDERM 55 plus JOUR Facial against advanced signs of aging; LBEL LEDERM 55plus Jour SPF 15 Facial Treatment Against Advanced Signs of Aging Day - All Skin Types; LBEL RENOVANCE JOUR Daytime Face SPF 15 All Skin Types; LBel Paris Renovance Jour; LBel Protege Expert; LEDERM DAY SUNSCREEN BROAD SPECTRUM SPF 15 day facial SPF 15 against noticeable signs of aging all skin types; LIDL Sport SPF 50; LIPSTICK QUEEN ENDLESS SUMMER Broad Spectrum SPF 15 Sunscreen; LOreal Paris Advanced Suncare Invisible Protect Clear Cool 30 Broad Spectrum SPF 30 Sunscreen; LOreal Paris Advanced Suncare Invisible Protect Clear Cool 50 Plus Broad Spectrum SPF 50 Plus Sunscreen; LOreal Paris Advanced Suncare Invisible Protect Dry 15 Sunscreen Broad Spectrum SPF 15; LOreal Paris Advanced Suncare Invisible Protect Dry 30 Broad Spectrum SPF 30 Sunscreen; LOreal Paris Advanced Suncare Invisible Protect Dry 50 Plus Broad Spectrum SPF 50 Plus Sunscreen; LOreal Paris Advanced Suncare Invisible Protect Sheer 30 Broad Spectrum SPF 30 Sunscreen; LOreal Paris Advanced Suncare Invisible Protect Sheer 50 Plus Broad Spectrum SPF 50 Plus; LOreal Paris Advanced Suncare Quick Dry Sheer Finish 30 Broad Spectrum SPF 30 Sunscreen; LOreal Paris Advanced Suncare Quick Dry Sheer Finish 50 Plus Broad Spectrum SPF 50 Plus Sunscreen; LOreal Paris Advanced Suncare Silky Sheer 30 Broad Spectrum SPF 30 Sunscreen; LOreal Paris Advanced Suncare Silky Sheer 50 Plus Broad Spectrum SPF 50 Plus Sunscreen; LOreal Paris Advanced Suncare Silky Sheer BB Face 50 Plus Broad Spectrum SPF 50 Plus Sunscreen; LOreal Paris Advanced Suncare Silky Sheer Face 30 Broad Spectrum SPF 30 Sunscreen; LOreal Paris Advanced Suncare Silky Sheer Face 50 Plus Broad Spectrum SPF 50 Plus Sunscreen; LOreal Paris Age Perfect Cell Renewal Day Moisturizer Broad Spectrum SPF 15 Sunscreen; LOreal Paris Age Perfect Glow Renewal Day Moisturizer Broad Spectrum SPF 30 Sunscreen; LOreal Paris Age Perfect Hydra Nutrition Instant Glow Daily Broad Spectrum SPF 30 Sunscreen; LOreal Paris AntiSagging Plus Even Tone Collagen Expert Moisturizer Broad Spectrum SPF 30 Sunscreen; LOreal Paris Ideal Moisture Dry Skin Broad Spectrum SPF 25 Sunscreen; LOreal Paris Ideal Moisture Even Skin Tone Moisturizer Broad Spectrum SPF 25 Sunscreen; LOreal Paris Ideal Moisture Normal Skin Broad Spectrum SPF 25 Sunscreen; LOreal Paris Ideal Moisture Sensitive Skin Broad Spectrum SPF 25 Sunscreen; LOreal Paris Men Expert Comfort Max Hydra Energetic After Shave Balm Broad Spectrum SPF 15 Sunscreen; LOreal Paris Men Expert Vita Lift Daily Moisturizer Sunscreen Broad Spectrum SPF 15; LOreal Paris Ombrelle SPF 30 Complete Water Resistant; LOreal Paris Revitalift Clinical Repair 10 SPF 20; LOreal Paris Revitalift Derm Intensives Invisible UV Fluid Broad Spectrum SPF 50 Sunscreen; LOreal Paris Revitalift Miracle Blur Broad Spectrum SPF 30 Sunscreen; LOreal Paris Revitalift Triple Power Broad Spectrum SPF 30 Sunscreen; LOreal Paris Skin Expert Revitalift Bright Reveal Brightening Day Moisturizer Broad Spectrum SPF 30 Sunscreen; LOreal Paris Skin Expertise Age Perfect Broad Spectrum SPF 20 Sunscreen BB; LOreal Paris Skin Expertise Revitalift Complete SPF 30 Day Antiwrinkle and Firming Moisturizer; LOreal Paris Skin Expertise Revitalift Deep-Set Wrinkle Repair Eye 24 Hour Eye Repair Duo SPF 15; LOreal Paris Sublime Bronze Summer Express Wash Off Face Bronzer Broad Spectrum SPF 20 Sunscreen; LOreal Paris Sublime Sun 30 Crystal Clear Sunscreen Mist Broad Spectrum SPF 30 Water Resistant; LOreal Paris Sublime Sun Advanced Sunscreen SPF 30; LOreal Paris Sublime Sun Advanced Sunscreen SPF 30 Crystal Clear Mist; LOreal Paris Sublime Sun Advanced Sunscreen SPF 30 Hydra; LOreal Paris Sublime Sun Advanced Sunscreen SPF 50 Plus; LOreal Paris Sublime Sun Advanced Sunscreen SPF 50 Plus Crystal Clear Mist; LOreal Paris Sublime Sun Advanced Sunscreen SPF 50 Plus Hydra; LOreal Paris Sublime Sun Advanced Sunscreen SPF 50 Plus Silk Sunshield For Face; LOreal Paris Visible Lift CC Broad Spectrum SPF 20 Light Medium; LOreal Paris Visible lift Medium Deep CC Broad Spectrum SPF 20; LOreal Paris Wrinkle Expert Age Defense 55 Plus Broad Spectrum SPF 30 Sunscreen; LOreal Paris Youth Code Dark Spot Corrector Broad Spectrum SPF 30 Sunscreen; LOreal Paris Youth Code Day; LUACELL Illuminating White Label Sun Cream; LUMENE Sensitive Touch Daily Moisture SPF 15 Sunscreen; LUMIOR Daylight Moisturizer Broad Spectrum SPF 20; LUMIOR Men Facial Moisturizer Broad Spectrum SPF 15; La Prairie Skin Caviar Essence In Foundation SPF 25 Golden Beige; La Prairie Skin Caviar Essence In Foundation SPF 25 Honey Beige; La Prairie Skin Caviar Essence In Foundation SPF 25 Pure Ivory; La Prairie Skin Caviar Essence In Foundation SPF 25 Satin Nude; La Prairie Skin Caviar Essence-In-Foundation SPF 25 Creme Peche; La Prairie Skin Caviar Essence-In-Foundation SPF 25 Peche; La Prairie Skin Caviar Essence-In-Foundation SPF 25 Porcelaine Blush; La Prairie Skin Caviar Essence-In-Foundation SPF 25 Tender Ivory; La Prairie Sun Protection Face; La Prairie Switzerland Anti-Aging Day Cream SPF 30; La Prairie Switzerland Anti-Wrinkle SunScreen SPF 30; La Roche Posay Anthelios 30 Ultralight Sunscreen; La Roche Posay Anthelios 60 Ultralight Sunscreen; La Roche Posay Anthelios Sunscreen SPF 60 Ultra light; La Roche Posay Face Body Anthelios SPF 60 Melt In Milk Fast absorbing, velvety finish for all skin types with Cell-OC Shield XL; La Roche Posay Laboratoire Dermatologique Anthelios 30 Cooling Water Broad Spectrum SPF 30 Sunscreen; La Roche Posay Laboratoire Dermatologique Anthelios 45 Ultra Light Sunscreen Fluid Broad Spectrum SPF 45 Sunscreen Water Resistant 40 Minutes; La Roche Posay Laboratoire Dermatologique Anthelios 45 Ultra Light Sunscreen Fluid Water Resistant 40; La Roche Posay Laboratoire Dermatologique Anthelios 50 Daily Antiaging Primer with Sunscreen; La Roche Posay Laboratoire Dermatologique Anthelios 60 Breakout Free Oil Free Face Dry Touch Broad Spectrum SPF 60 Sunscreen Water Resistant 80 Minutes; La Roche Posay Laboratoire Dermatologique Anthelios 60 Face Light Fluid Sunscreen Broad Spectrum SPF 60 Water Resistant 80 Minutes; La Roche Posay Laboratoire Dermatologique Anthelios 60 Face Ultra Light Fluid Sunscreen Broad Spectrum SPF 60; La Roche Posay Laboratoire Dermatologique Anthelios 60 Face and Body Cooling Water Broad Spectrum SPF 60 Sunscreen Water Resistant 80 Minutes; La Roche Posay Laboratoire Dermatologique Anthelios 60 Melt In Sunscreen Milk Broad Spectrum SPF 60 Face and Body; La Roche Posay Laboratoire Dermatologique Anthelios 60 Melt In Sunscreen Milk Face and Body Broad Spectrum SPF 60 Water Resistant 80 Minutes; La Roche Posay Laboratoire Dermatologique Anthelios 60 Ultra Light Sunscreen Broad Spectrum SPF 60 Water Resistant 80 Minutes; La Roche Posay Laboratoire Dermatologique Anthelios 60 Ultra Light Sunscreen Fluid; La Roche Posay Laboratoire Dermatologique Anthelios AOX Daily Antioxidant Serum Broad Spectrum SPF 50 Sunscreen; La Roche Posay Laboratoire Dermatologique Anthelios Broad Spectrum SPF 100 Body and Face Melt In Milk Sunscreen Water Resistant 80 Minutes; La Roche Posay Laboratoire Dermatologique Anthelios Clear Skin Face Oil Free Dry Touch Broad Spectrum SPF 60 Sunscreen Water Resistant 80 Minutes; La Roche Posay Laboratoire Dermatologique Anthelios Dermo Kids Gentle Face and Body Broad Spectrum SPF 60 Sunscreen Water Resistant 80 Minutes; La Roche Posay Laboratoire Dermatologique Anthelios Kids Gentle Broad Spectrum SPF 50 Sunscreen for Face and Body Water Resistant 80 Minutes; La Roche Posay Laboratoire Dermatologique Anthelios SX Daily Moisturizing Sunscreen Broad Spectrum SPF 15; La Roche Posay Laboratoire Dermatologique Anthelios UV Correct Broad Spectrum SPF 70 Daily Sunscreen; La Roche Posay Laboratoire Dermatologique Hydraphase UV Intense Broad Spectrum SPF 20 Sunscreen; La Roche Posay Laboratoire Dermatologique Hydraphase UV Intense Moisturizer Broad Spectrum SPF 20 Sunscreen; La Roche Posay Laboratoire Dermatologique Pigmentclar Daily Dark Spot Correcting Moisturizer Broad Spectrum SPF 30 Sunscreen; La Roche Posay Laboratoire Dermatologique Rosaliac Daily Complete Tone Correcting Broad Spectrum SPF 30 Sunscreen CC; La Roche Posay Laboratoire Dermatologique Sport Anthelios Activewear Broad Spectrum SPF 60 Sunscreen; La Roche Posay Laboratoire Dermatologique Toleriane Double Repair Moisturizer UV Broad Spectrum SPF 30 Sunscreen; La Roche Posay Redermic C UV Sunscreen; La Roche Posay Redermic plus UV Intensive Daily Antiwrinkle Firming Fill In Care; La Roche-Posay Laboratoire Dermatologique Anthelios 45 Ultra Light Sunscreen Fluid SPF 45; La Roche-Posay Laboratoire Dermatologique Anthelios 60 Ultra Light Sunscreen Fluid; La Roche-Posay Laboratoire Pharmaceutique Anthelios 60 Melt In Sunscreen Milk SPF 60; La Roche-Posay Laboratoire Pharmaceutique Anthelios 60 Melt In Sunscreen SPF 60; La Roche-Posay Laboratoire Pharmaceutique Rosaliac UV Fortifying Anti Redness Moisturizer SPF 15; Lab Series Day Rescue Defense Lotion SPF 35; Lacura Face Care Q10 Day SPF-15; Lagom Cellus Sun Gel; Lait Bronzant Haute Protection SPF 20; Lait De Soin Solaire Corps; Lait De Soin Solaire Mer Et Tropiques Corps; Lait Ecran SPF 35 Enfants; Lait Ecran Total Intolerances Solaires SPF 30; Lait Ecran Total SPF 25; Lait Ecran Total Special Enfants SPF 25; Lait Protecteur Fps 60; Lait Protecteur SPF 15; Lait Protecteur SPF 8; Lait Solaire Corps Fps 50+; Lait Solaire Corps Lotion Protectrice Corps Fps 30; Lait Solaire Corps Lotion Protectrice Corps Fps 50 Plus; Lait Solaire Corps Protection Solaire Fps 15; Lait Solaire Corps Sunscreen Lotion Body; Lait Solaire Haute Protection SPF 15; Lait Solaire Protection Modérée Corps; Lait Solaire Protection Élevée Corps; Laline Rich Hand Cream; Lancome Absolue Precious Cells Advanced Regenerating and Reconstructing Cream SPF 15 Sunscreen; Lancome Absolue Revitalizing Brightening Velvet SPF 15 with Grand Rose Extracts; Lancome Bienfait UV SPF 50 Plus Super Fluid Facial Sunscreen; Lancome Paris Absolue Hand Premium Bx Broad Spectrum SPF 15 Sunscreen Absolute Anti Age Spot Unifying And Replenishing Treatment; Lancome Paris Absolue Precious Cells Broad Spectrum SPF 15 Sunscreen Intense Revitalizing; Lancome Paris Absolue Precious Cells Sunscreen Repairing and Recovering Day; Lancome Paris Absolue Premium Bx Absolute Replenishing SPF 15; Lancome Paris Absolue Premium Bx Broad Spectrum SPF 15 Sunscreen Absolute Replenishing; Lancome Paris Absolue Premium Bx Replenishing and Rejuvenating Day; Lancome Paris Absolue Revitalizing Brightening Velvet Sunscreen Broad Spectrum SPF 15; Lancome Paris Bienfait MultiVital Broad Spectrum SPF 30 Sunscreen; Lancome Paris Bienfait MultiVital Broad Spectrum SPF 30 Sunscreen 24 Hour Moisturization Antioxidant and Vitamin Enriched; Lancome Paris Bienfait MultiVital Eye Broad Spectrum SPF 30 Sunscreen; Lancome Paris Bienfait UV 50 Plus Broad Spectrum SPF 50 Plus Water Resistant 80 Minutes Super Fluid Facial Sunscreen; Lancome Paris City Miracle Broad Spectrum SPF 50 Sunscreen CC; Lancome Paris Flash Bronzer AntiAge Tinted AntiAge Self Tanning Face SPF 15; Lancome Paris High Resolution Refill 3X Triple Action Renewal Anti Wrinkle Broad Spectrum SPF 15 Sunscreen; Lancome Paris Renergie Lift Multi Action All; Lancome Paris Renergie Lift Multi Action Broad Spectrum SPF 15 Sunscreen Lifting and Firming for Dry Skin; Lancome Paris Renergie Lift MultiAction Dry; Lancome Paris Renergie Lift MultiAction Lifting and Firming For All Skin Types Broad Spectrum SPF 15 Sunscreen; Lancome Paris Renergie Lift MultiAction Sunscreen Broad Spectrum SPF 15 Lift and Firming Face and Neck All Skin Types; Lancome Paris Renergie Lift MultiAction Ultra Firming and Dark Spot Correcting Moisturizer Broad Spectrum SPF 30 Sunscreen; Lancome Paris Renergie Lift MultiAction Ultra Lifting Firming Dark Spot Correcting Broad Spectrum SPF 30 Sunscreen; Lancome Paris Renergie Lift Volumetry Volumetric Lifting and Reshaping SPF 15 Normal Combination Skin; Lancome Paris Renergie Lift Volumetry Volumetric Lifting and Reshaping SPF 15 Normal to Dry Skin; Lancome Paris UV Expert Aquagel Defense 50 Plus Sunscreen Broad Spectrum SPF 50 Plus Primer and Moisturizer; Lancome Paris UV Expert Aquagel Defense 50 Plus Sunscreen Broad Spectrum SPF 50 Plus Primer and Moisturizer with Antioxidant Vitamin E; Lancome Paris Visionnaire Broad Spectrum SPF 20 Sunscreen Advanced Multi Correcting All Skin Types; Lancome UV Expert Aquagel Defense 50 Broad Spectrum SPF 50 with Antioxidant Vitamin E; Lancôme Bienfait Total Uv SPF 15; Land Shark Pups SPF 50; Land Shark SPF 15; Land Shark SPF 20; Land Shark SPF 30; Land Shark SPF 45; Land Shark SPF 50; Land Shark SPF 50 Sport; Laneige Hydro UV Defense; Laneige Triple Sunscreen; Large Defense Uv; Large Ecran Uv; Large Écran Uv Ultra Uv Sunscreen; Lasting Results Moisturizer; Laura Mercier Foundation Primer Protect Broad Spectrum SPF 30 Sunscreen; Laura Mercier Foundation Primer Protect SPF 30; Laura Mercier Pure Canvas Primer Protecting Broad Spectrum SPF 30 Sunscreen; Laura Mercier Tinted Moisturizer Broad Spectrum SPF 30 Sunscreen - 0N1 Petal; Laura Mercier Tinted Moisturizer Broad Spectrum SPF 30 Sunscreen - 0W1 Pearl; Laura Mercier Tinted Moisturizer Broad Spectrum SPF 30 Sunscreen - 1C1 Cameo; Laura Mercier Tinted Moisturizer Broad Spectrum SPF 30 Sunscreen - 1N1 Vanille; Laura Mercier Tinted Moisturizer Broad Spectrum SPF 30 Sunscreen - 1W1 Porcelain; Laura Mercier Tinted Moisturizer Broad Spectrum SPF 30 Sunscreen - 2C1 Blush; Laura Mercier Tinted Moisturizer Broad Spectrum SPF 30 Sunscreen - 2N1 Nude; Laura Mercier Tinted Moisturizer Broad Spectrum SPF 30 Sunscreen - 2W1 Natural; Laura Mercier Tinted Moisturizer Broad Spectrum SPF 30 Sunscreen - 3C1 Fawn; Laura Mercier Tinted Moisturizer Broad Spectrum SPF 30 Sunscreen - 3N1 Sand; Laura Mercier Tinted Moisturizer Broad Spectrum SPF 30 Sunscreen - 3W1 Bisque; Laura Mercier Tinted Moisturizer Broad Spectrum SPF 30 Sunscreen - 4C1 Almond; Laura Mercier Tinted Moisturizer Broad Spectrum SPF 30 Sunscreen - 4N1 Chai; Laura Mercier Tinted Moisturizer Broad Spectrum SPF 30 Sunscreen - 4W1 Tawny; Laura Mercier Tinted Moisturizer Broad Spectrum SPF 30 Sunscreen - 5C1 Nutmeg; Laura Mercier Tinted Moisturizer Broad Spectrum SPF 30 Sunscreen - 5N1 Walnut; Laura Mercier Tinted Moisturizer Broad Spectrum SPF 30 Sunscreen - 5W1 Tan; Laura Mercier Tinted Moisturizer Broad Spectrum SPF 30 Sunscreen - 6C1 Cacao; Laura Mercier Tinted Moisturizer Broad Spectrum SPF 30 Sunscreen - 6N1 Chestnut; Laura Mercier Tinted Moisturizer Broad Spectrum SPF 30 Sunscreen - 6W1 Mocha; Laura Mercier Tinted Moisturizer Creme Compact Broad Spectrum SPF 20 Sunscreen CAMEO; Laura Mercier Tinted Moisturizer Creme Compact Broad Spectrum SPF 20 Sunscreen NATURAL; Laura Mercier Tinted Moisturizer Creme Compact Broad Spectrum SPF 20 Sunscreen OCHRE; Laura Mercier Tinted Moisturizer Light Revealer Natural Skin Illuminator Broad Spectrum SPF 25 Sunscreen 0N1 Petal; Laura Mercier Tinted Moisturizer Light Revealer Natural Skin Illuminator Broad Spectrum SPF 25 Sunscreen 0W1 Pearl; Laura Mercier Tinted Moisturizer Light Revealer Natural Skin Illuminator Broad Spectrum SPF 25 Sunscreen 1C0 Cameo; Laura Mercier Tinted Moisturizer Light Revealer Natural Skin Illuminator Broad Spectrum SPF 25 Sunscreen 1W1 Porcelain; Laura Mercier Tinted Moisturizer Light Revealer Natural Skin Illuminator Broad Spectrum SPF 25 Sunscreen 2N1 Nude; Laura Mercier Tinted Moisturizer Light Revealer Natural Skin Illuminator Broad Spectrum SPF 25 Sunscreen 2W1 Natural; Laura Mercier Tinted Moisturizer Light Revealer Natural Skin Illuminator Broad Spectrum SPF 25 Sunscreen 3N1 Sand; Laura Mercier Tinted Moisturizer Light Revealer Natural Skin Illuminator Broad Spectrum SPF 25 Sunscreen 3W1 Bisque; Laura Mercier Tinted Moisturizer Light Revealer Natural Skin Illuminator Broad Spectrum SPF 25 Sunscreen 4C1 Almond; Laura Mercier Tinted Moisturizer Light Revealer Natural Skin Illuminator Broad Spectrum SPF 25 Sunscreen 4W1 Tawny; Laura Mercier Tinted Moisturizer Light Revealer Natural Skin Illuminator Broad Spectrum SPF 25 Sunscreen 5N1 Walnut; Laura Mercier Tinted Moisturizer Light Revealer Natural Skin Illuminator Broad Spectrum SPF 25 Sunscreen 5W1 Tan; Laura Mercier Tinted Moisturizer Light Revealer Natural Skin Illuminator Broad Spectrum SPF 25 Sunscreen 6C1 Cacao; Laura Mercier Tinted Moisturizer Light Revealer Natural Skin Illuminator Broad Spectrum SPF 25 Sunscreen 6N1 Mocha; Laura Mercier Tinted Moisturizer Natural Skin Perfector Broad Spectrum SPF 30 Sunscreen 0N1 Petal; Laura Mercier Tinted Moisturizer Natural Skin Perfector Broad Spectrum SPF 30 Sunscreen 0W1 Pearl; Laura Mercier Tinted Moisturizer Natural Skin Perfector Broad Spectrum SPF 30 Sunscreen 1C0 Cameo; Laura Mercier Tinted Moisturizer Natural Skin Perfector Broad Spectrum SPF 30 Sunscreen 1N2 Vanille; Laura Mercier Tinted Moisturizer Natural Skin Perfector Broad Spectrum SPF 30 Sunscreen 1W1 Porcelain; Laura Mercier Tinted Moisturizer Natural Skin Perfector Broad Spectrum SPF 30 Sunscreen 2C1 Blush; Laura Mercier Tinted Moisturizer Natural Skin Perfector Broad Spectrum SPF 30 Sunscreen 2N1 Nude; Laura Mercier Tinted Moisturizer Natural Skin Perfector Broad Spectrum SPF 30 Sunscreen 2W1 Natural; Laura Mercier Tinted Moisturizer Natural Skin Perfector Broad Spectrum SPF 30 Sunscreen 3C1 Fawn; Laura Mercier Tinted Moisturizer Natural Skin Perfector Broad Spectrum SPF 30 Sunscreen 3N1 Sand; Laura Mercier Tinted Moisturizer Natural Skin Perfector Broad Spectrum SPF 30 Sunscreen 3W1 Bisque; Laura Mercier Tinted Moisturizer Natural Skin Perfector Broad Spectrum SPF 30 Sunscreen 4C1 Almond; Laura Mercier Tinted Moisturizer Natural Skin Perfector Broad Spectrum SPF 30 Sunscreen 4N1 Wheat; Laura Mercier Tinted Moisturizer Natural Skin Perfector Broad Spectrum SPF 30 Sunscreen 4W1 Tawny; Laura Mercier Tinted Moisturizer Natural Skin Perfector Broad Spectrum SPF 30 Sunscreen 5C1 Nutmeg; Laura Mercier Tinted Moisturizer Natural Skin Perfector Broad Spectrum SPF 30 Sunscreen 5N1 Walnut; Laura Mercier Tinted Moisturizer Natural Skin Perfector Broad Spectrum SPF 30 Sunscreen 5W1 Tan; Laura Mercier Tinted Moisturizer Natural Skin Perfector Broad Spectrum SPF 30 Sunscreen 6C1 Cacao; Laura Mercier Tinted Moisturizer Natural Skin Perfector Broad Spectrum SPF 30 Sunscreen 6N1 Mocha; Laura Mercier Tinted Moisturizer Natural Skin Perfector Broad Spectrum SPF 30 Sunscreen 6W1 Ganache; Lava Lava Lip Balm Broad Spectrum SPF 30; Lbel Dermo Clarite Brightening and Moisturizing Facial SPF 30; Lbel Dermo Clarite Locion Facial Iluminadora Hidratante Con Fps 30 Brightening and Moisturizing Facial SPF 30; Lbel Lederm Day Sunscreen Broad Spectrum SPF 15; Lbio Block Spf50; Leader Baby SPF 50; Leader Baby Sunscreen SPF 50; Leader General Protection SPF 30; Leader General Protection SPF 30 Sunscreen; Leader General Protection SPF 70; Leader General Protection Sunscreen SPF 30; Leader General Protection Sunscreen SPF 50; Leader Kids SPF 50 Sunscreen; Leader Kids SPF 90; Leader Sport SPF 30; Leader Sport SPF 50; Leader Sport Sunscreen SPF 50; Leader Sport Sunscreen SPF 50 Moisturizing; Leader Ultra Sheer SPF 100 Sunscreen; Leaders Sunbuddy Daily Moisture Sunscreen; Leaders Sunbuddy Uv Cut Sun; Lee Hands Free Lip-balm SPF 30; Legend Age Whitening Sunscreen; Lemonade SPF 15 Broad Spectrum Lip Balm; Life Brand Kids Sunscreen Clear Continuous Spray SPF/fps 60; Life Brand Kids Sunscreen Lotion SPF 50+; Life Brand Shimmering Lotion Scintillante Oil Free Sunscreen Écran Solaire Sans Huile 15 SPF/fps Protection Uva/uvb Broad Spectrum À Large Spectre; Life Brand Sport Sunscreen Continuous Spray No Pumping Needed; Life Brand Sport Sunscreen Continuous Spray SPF 50+; Life Brand Sunscreen Continuous Spray No Pumping Needed SPF/fps 85; Life Brand Sunscreen Face Lotion SPF 50+; Life Brand Sunscreen Lotion SPF 30; Life Brand Sunscreen Lotion SPF 50+; Life Brand Sunscreen Lotion Écran Solaire 30 SPF/fps; Life Brand Sunscreen Lotion Écran Solaire 45 SPF/fps; Life Brand Sunthera 3 SPF/fps 30 Sun Protection Lotion Face; Life Brand Sunthera 3 SPF/fps 60 Sun Protection Lotion Face; Life Brand Sunthera3 Sport SPF/fps 60 Sun Protection Lotion Lotion Écran Solaire; Life Extension Shade Factor SPF30; Lifecell BROAD SPECTRUM SPF 50 BB SHEER; Lift & Firm Y-zone CRème Jour Haute Fermeté Fps 20; Lift Therapy Force Lift Day 20 SPF; Liftactiv Cxp Uv SPF 20; Liftactiv Specialist Fps/SPF 30; Liftactiv Supreme; Liftactiv Uv; Liftactivpro SPF 15; Light Care Aqua Sun; Light Day Sunscreen Broad Spectrum SPF 37; Light Day Sunscreen SPF 37; Light Hearted Broad Spectrum SPF 30 Sunscreen; Light and Delicate Sunscreen Spf15; Light and Delicate Sunscreen Spf30; Lightening High Sun Protection Cream; Lightweight Miracle Moisturiser Sunscreen Broad Spectrum SPF 20; Line Interception Power Duo Day Cream Suncreen Broad Spectrum SPF 30; Line Interception Power Duo Day Cream Sunscreen Broad Spectrum SPF 30; Lip Balm; Lip Balm Baume Pour Les Lèvres SPF 30; Lip Balm SPF 15; Lip Balm SPF 30; Lip Balm SPF15 Sunscreen SPF30 Combo; Lip Balm and Sunstick; Lip Gloss; Lip Massage; Lip Naturals Lip Balm; Lip Protector SPF 15 Sunscreen; Lip Saver Sunscreen SPF 30; Lip Screen Broad Spectrum SPF 40; Lip Screen Sheer SPF 30; Lip Treatment; LipLux Original SPF 30 Broad Spectrum; Lipidol; Liplux SPF 30 Lip Balm; Liquid Spray Sunscreen; Loccitane En Provence Immortelle Divine Light Spf20; Loccitane En Provence Immortelle Precieuse Light Spf20; Loccitane En Provence Light Comforting SPF 15; Long-Lasting Oil-Free Moisturizer; Loreal Paris Age Perfect Radiant Serum foundation SPF 50; Loreal Paris Age Perfect Rosy Tone SPF 30 Renew and revive healthy tone Visibly younger-looking skin; Loreal Paris Antispot Revitalift Triple Power Intensive Antiaging Day With Proxylane SPF 20; Loreal Paris Revitalift Anti Wrinkle Firming Moisturizer SPF 25; Loreal Paris Revitalift Miracle Blur Instant Skin Smoother Original Opiblur Technology SPF 30; Loreal Paris Skin Expertise Day Moisturizer Futur E Daily Dose Of Pure Vitamin E Normal To Dry Skin SPF 15; Lotion Hydratante Anti-brillance Fps 15; Lotion SPF 15; Lotion SPF 45; Lotion Solaire Corps Fps 30; Lotion Vapo Fps 15; Lotion Vapo SPF 30; Lubriderm; Lubriderm Daily Moisture Sunscreen Broad Spectrum SPF15; Lubriderm Daily Moisture with Sunscreen Broad Spectrum SPF15; Lubriderm Daily Moisturizer with Sunscreen SPF15; Lubriderm Uv Moisture; Lumasol; Lumene Bright Now Visible Repair Day SPF 15 Sunscreen Broad Spectrum; Lumene Complete Rewind Recovery Day SPF 15 Sunscreen Broad Spectrum; Lumene Excellent Future Age-Defying and Repairing Day SPF 15 Sunscreen; Lumene Sisu Moisture Remedy Day Sunscreen Broad Spectrum SPF 20; Lumene Time Freeze Firming Day SPF 15; Lumene Time Freeze Firming Day SPF 15 Sunscreen Broad Spectrum; Lumiactiv; Lumiere de Vie Daily Brightening Broad Spectrum SPF 50; Luminous Shield SPF 50; Lumipearl Perfect and Protect Day Broad Spectrum SPF 25 Sunscreen; Lycogel Breathable Balm; LypSyl Honeyberry; LypSyl Vanilla Plum Intense Protection; Lypsyl Extreme; Lypsyl Moisture Burst SPF-30; M.A.C. Studio Moisture Fix SPF 15; M.A.c Prep + Prime Bb Beauty Balm SPF 50; M.A.c Prep + Prime Face Protect Lotion SPF 50; M.A.c Suntints SPF 20 Liquid Lip Balm; MAMONDE Daily Sunscreen; MAMONDE UV Fluid; MAY NEW YORK SUPER CLEAR PURE SUN 17g; MAY NEW YORK SUPER CLEAR PURE SUN 22g; MDSOLARSCIENCES Daily Anti Aging Moisturizer SPF 30; MDSolarSciences SPF 40 Quick Dry; MDSolarSciences SPF40 No Touch Body; MDSolarSciences SPF40 Ultra-Sport; MEIJER Sport SPF 30; MIAMI MD SUN SHIELD Broad Spectrum SPF 40; MISSHA All Around Safe Block Daily Sun For Men SPF50; MISSHA All Around Safe Block Fresh Sun SPF50; MISSHA Skin Fit Stick Foundation SPF50 No.21; MISSHA Skin Fit Stick Foundation SPF50 No.23; MK Men Advanced Facial Hydrator Sunscreen SPF 30; MKMen Advanced Facial Hydrator Sunscreen SPF 30; MKRS Broad Spectrum SPF50; MOROCCAN Lightweight Hydrating Sun Protection SPF 30; MURAD - ACNE CONTROL - oil AND PORE CONTROL MATTIFIER SPF-45; Mac Prep and Prime Face Protect Broad Spectrum SPF 50; Macroantioxidant Sun Protection; Malie Organics Reef Safe Sunscreen SPF-50; Mango Bay SPF 15; Mango Bay SPF 30; Mango Bay SPF 30 Gallon; Mango Bay SPF 50; Mango Bay SPF 50 Kids; Mango Bay SPF 50 Sport; Marc Jacobs Lip Lock Moisture BalmSPF 18 SPF 18; Marcelle City High Protection Urban Day Cream Soin Jour Haute Protection Urbaine SPF 30 Fps; Marcelle Newage Precision Anti-wrinkle Day Cream SPF 30; Marie dArgan Day Cream SPF15; Mario Badescu SPF 17; Mario Badescu SPF 30; Market Basket Continuous Sunscreen General Protection SPF 70; Market Basket Kids SPF 50 Sunscreen; Market Basket Moisturizing Sunscreen Broad Spectrum SPF 30; Market Basket Moisturizing Sunscreen Broad Spectrum SPF 50; Mary Kay Botanical Effects SPF/fps 30; Mary Kay Foundation Primer; Mary Kay Foundation Primer SPF 15; Mary Kay Foundation Primer with SPF 15; Mary Kay Suncare Lip Protector Sunscreen Broad Spectrum SPF 15; Mary Kay Suncare SPF 50 Sunscreen; Mary Kay Suncare Sunscreen Broad Spectrum SPF 50; Mary Kay Suncare Sunscreen SPF 50; Mary Kay TimeWise Age Fighting Moisturizer SPF 30; Mary Kay TimeWise Age Minimize 3D Day Cream SPF 30 Broad Spectrum Sunscreen (Combo to Oily Skin); Mary Kay TimeWise Age Minimize 3D Day Cream SPF 30 Broad Spectrum Sunscreen (Normal to Dry Skin); Mary Kay TimeWise Body Hand and Decolette Cream SPF 15; Mary Kay TimeWise Day Solution SPF 30 Broad Spectrum; Mary Kay TimeWise Day Solution SPF 35; Mary Kay TimeWise Miracle Set 3D Sampler (Combo to Oily Skin); Mary Kay TimeWise Miracle Set 3D Sampler (Normal to Dry Skin); Mary Kay TimeWise Miracle Set 3D The Go Set (Combo to Oily Skin); Mary Kay TimeWise Miracle Set 3D The Go Set (Normal to Dry Skin); Mary Kay TimeWise Repair Volu-Firm Day Cream Broad Spectrum SPF 30; Mary Kay TimeWise Repair Volu-Firm Sampler Set; Mary Kay TimeWise Repair Volu-Firm Set; Mary Kay TimeWise Repair Volu-Firm The Go Set; Mary Kay TimeWise Repair VoluFirm Day Cream SPF 30; Mary Kay Tinted Lip Balm Sunscreen SPF 15; Mary Kay Tinted Lip Balm Sunscreen SPF 15 Apricot; Mary Kay Tinted Lip Balm Sunscreen SPF 15 Berry; Mary Kay Tinted Lip Balm Sunscreen SPF 15 Blush; Mary Kay Tinted Lip Balm Sunscreen SPF 15 Cherry; Mary Kay Tinted Lip Balm Sunscreen SPF 15 Fig; Mary Kay Tinted Lip Balm Sunscreen SPF 15 Mango; Mary Kay Tinted Lip Balm Sunscreen SPF 15 Natural; Mary Kay Tinted Lip Balm Sunscreen SPF 15 Peach; Mary Kay Tinted Lip Balm Sunscreen SPF 15 Peony; Mary Kay Tinted Lip Balm Sunscreen SPF 15 Poppy; Mary Kay Tinted Lip Balm Sunscreen SPF 15 Rose; Matte Defense SPF 30; Matte and Clear Matifying Protector SPF 25; Mattifying Broad Spectrum SPF 15 Jafra; Mattifying Day Cream; Mattifying Day Moisture Broad Spectrum SPF 15 Jafra; Max Block Broad Spectrum SPF 30; Max Block Broad Spectrum SPF 30 sport; Max Block Maz Block SPF 30 Sport Sunscreen; Max Block Maz Block SPF 30 Sunscreen; Max Block Maz Block SPF 50 Kids Sunscreen; Max Block Maz Block SPF 50 Sunscreen; Max Block SPF 50 Sunscreen; Max Sheer All Day Moisture Defense; Max Sheer All Day Moisture Defense Lotion; Maxglow Hydrafoam Daily Moisturizer; May New York Super Clear Pure Sun Ultra 17g; May New York Super Clear Pure Sun Ultra 22g; May New York Super Clear Sun 16g; May New York Super Clear Sun 21g; Maybelline Dream Urban Cover full coverage protective make-up SPF 50 Antioxidant-Enriched Pollution Protection; Maybelline New York Dream Nude Airfoam Air Infused Makeup Sunscreen Broad Spectrum SPF 16; Maybelline New York Fit Me Matte Plus Poreless Mattifying Poreless Primer Broad Spectrum SPF 20 Sunscreen; Me Day S1 SPF 25; Me Day S3 SPF 25; Me Day S9 SPF 25; Me Day T1 SPF 25; Me Day T3 SPF 25; Me Day T9 SPF 25; Mederma; Mederma Scar Cream; Medi UV Block Suncream SPF50 PA; MediSpa SunSpray sunblock; Medicated Flavored Lips SPF 30; Meijer; Meijer AM Facial Moisturizing Broad Spectrum SPF 30 Sunscreen; Meijer Baby SPF 50; Meijer Broad Spectrum SPF 15; Meijer Broad Spectrum SPF 30 Sunscreen; Meijer Broad Spectrum SPF 50 Sunscreen; Meijer Clear Zinc SPF 50; Meijer Elements 7-in-1 Anti-Aging Vitamin; Meijer Elements Advanced Firming and Anti-Wrinkle; Meijer Elements Daily Facial Moisturizer; Meijer Elements Long-Lasting Oil-Free; Meijer Family Sport 30; Meijer Kids Tear Free SPF 50; Meijer Oil Free 30; Meijer Oil Free Faces SPF 30; Meijer Oil Free SPF 15; Meijer Oil Free SPF 30; Meijer SPF 15; Meijer SPF 30; Meijer SPF 30 Face; Meijer SPF 30 Ultra Dry Sheer; Meijer SPF 4 Dark Tanning Oil; Meijer SPF 70; Meijer SPF 8; Meijer Sheer Moisturing SPF 30; Meijer Sheer SPF 15; Meijer Sheer SPF 30; Meijer Sheer SPF 55; Meijer Sport SPF 30; Meijer Sport SPF 50; Meijer Sunscreen Broad Spectrum SPF 70 Sunscreen; Meijer Tropical SPF 4; Meijer Zinc SPF 50; Melafadin Day Protection; Melan Sunscreen SPF 50; Members Mark Value Size SPORT SUNSCREEN BROAD SPECTRUM SPF 50; Merino Lip SPF 30; Merle Norman Dual Spectrum SPF 30; Mesoestetic Sun Protection SPF 50; Mia Del Mar SPF 30 Moisturizer; Miami Beach Faces Sunscreen 50 Broad Spectrum SPF 50; Miami Beach Kids Sunscreen Broad Spectrum SPF 50; Miami Beach SPF 50 Kids C/S Sunscreen; Miami Beach Sea Sunscreen 30 Broad Spectrum SPF 30; Miami Beach Sea Sunscreen Broad Spectrum SPF 30; Miami Beach Sport Sunscreen 50 Broad Spectrum SPF 50; Mielle illuminating face; Milani Make It Last Sunscreen Setting SPF 30; Milani Prime Protect SPF 30 Face Primer; Milani SPF BFF 30 Primer; Mineral Protective Am SPF 15; Mineralium Hdra Source Moisturizing Protector SPF 25; Mint Mojito SPF 15 Broad Spectrum Lip Balm; Miracle Worker SPF 55; Missha All Around Safe Block Essence Sun Milk 40ml; Missha All Around Safe Block Essence Sun Milk 70ml; Mkmen Advanced Facial Hydrator Sunscreen Broad Spectrum SPF 30; Moderate Protection Sun SPF 15; Moisture Boost Daily Restoring Complex Broad Spectrum SPF 30; Moisture Oil-free SPF 30; Moisture Rescue SPF 15; Moisture Sun Protector; Moisturising Daily Defense SPF 30 asap Skin Products; Moisturising Sunscreen SPF15; Moisturizer; Moisturizing Day with Sunscreen and Dead Sea Mineral Broad Spectrum SPF 15; Moisturizing Face Shield; Moisturizing Facial Sunscreen; Moisturizing Lip BalmSPF30; Moisturizing Lip Gloss Brillant A Levres Hydratant; Moisturizing Renewal Cream Broad Spectrum SPF 30 US; Moisturizing Sunscreen Lotion Sun Bum Broad Spectrum SPF 15; Moisturizing Sunscreen Lotion Sun Bum Broad Spectrum SPF 30; Moisturizing Sunscreen Lotion Sun Bum Broad Spectrum SPF 50; Moisturizing Uv Cream; Moonshot Multi Protection UV Bouncer; Mormaii Grip Action Protector Solar; Morning Glow BB cream SPF 15; Moroccanoil SPF 30; Moroccanoil SPF 50; Moroccanoil Sun Oil SPF 15; Mousse Exquise Auto-bronzante 15 SPF; Mousse Exquise Auto-bronzante Embellissante SPF 15; Multi Effect Day Cream SPF 25; Multi Protection UV Bouncer; Multi-Active Day Early Wrinkle Correcting SPF 15; Multi-Active Jour SPF 20 Broad Spectrum Sunscreen; Multi-action Cream SPF 30; Multi-regenerant Jour Fluide Lift Anti-rides Toutes Peaux SPF 15; Multivit Sun Protector; Murad - Age Reform - Invisiblur Perfecting Shield SPF 30; Murad - Resurgence - Age-balancing Moisture SPF 30; Murumuru Butter Lip Cream; Murumuru Butter Lip Cream SPF 15; My Medic Sunscreen SPF 30; My Sunny Watery Sun Essence; NAELI Day Moisturizer SPF 30; NARS SMOOTH and PROTECT PRIMER; NBCeutical; NIVEA Men Replenishing Lip Balm; NO-AD 45 Sunscreen; NO-AD 60 Sunscreen; NO-AD 85 Sunscreen; NO-AD Broad Spectrum SPF 30; NO-AD Broad Spectrum SPF 50 kids; NO-AD Broad Spectrum SPF 85; NO-AD Broad Spectrum Sport SPF 30; NO-AD Kids 50 Sunscreen; NO-AD Kids SPF50 Continuous Mist Sunscreen; NO-AD SPF45 Continuous Mist Sunscreen; NO-AD Sport 50 Sunscreen; NO-AD Suncare Ltn SPF 50; NU SKIN ageLOC Radiant Day SPF 22; NYX Professional Makeup Bare With Me Daily Moisturizing Primer with Cannabis Sativa Seed Oil SPF 30; Naked Sundays Golden Glow Body Sunscreen SPF50 100ml; Nars Laguna Body Tint; Nars Pro-prime Light Optimizing Primer; Nars Pro-prime Light Optimizing Primer SPF 15; Nars Pro-prime Multi-protect Primer; Nars Radiance Primer; Naruko Taiwan Magnolia Firming Smooth Finish Cream Makeup; Native Tan SPF 20; Native Tan SPF 30; Native Tan SPF 40; Native Tan SPF 50; Natural BB Cream SPF15; Natural Defense Primer Oil SPF; Natural FX; Natural Fx Water Based Foundation SPF 15; Natural Sun Eco Light Sun Cream SPF 50+ Pa+++; Natural Tanning and Body Oil SPF15; Natural Tanning and Body Oil SPF6; Nature Republic California Moisturizing Aloe Aqua Sun Stick SPF 50+; Natures Gate Aqua SPF 50; Natures Gate Face Block SPF 25 Fragrance-Free; Natures Gate Face Broad Spectrum Sunscreen SPF 25; Natures Gate Kids Block SPF 30 Sunscreen; Natures Gate Sport Block SPF 50; Natures Gate Sport SPF 50; Natures Gate aqua block SPF 50; Natures Gate kids SPF 50; Natures Gate kids block SPF 50; Naturissima Vitaverde Sun High Protection SPF 50; Nelly De Vuyst Bruxelles SPF 30 Broad Spectrum Sunscreen; Nelly de Vuyst SPF 30 Broad Spectrum Sunscreen; Neogen Dermalogy Day-light Protection Airy Sunscreen; Neora Age IQ Invisi-Bloc Sunscreen; Neostrata Canada Hq Plus Cream; Neostrata Hq Plus Lightening Cream; Neostrata Protective Lotion Broad Spectrum Uva/uvb Protection SPF 50+; Neostrata Sunshield Spray SPF 30; Neostrata Ultra-light Sun Lotion Broad Spectrum Uva/uvb Protection SPF 50+; Neova Day Therapy SPF 30; Neurogena Healthy Defense Moisturizer Sunscreen Broad Spectrum SPF50; Neutrogena Age Defense Anti Oxidant Daily Moisturizer SPF20; Neutrogena Age Shield Anti Oxidant Face Sunscreen Broad Spectrum SPF70; Neutrogena Age Shield Face Oil Free Sunscreen Broad Spectrum SPF 110; Neutrogena Age Shield Face Oil Free Sunscreen Broad Spectrum SPF 70; Neutrogena Age Shield Face Oil Free Sunscreen Broad Spectrum SPF110; Neutrogena Age Shield Face SPF 110; Neutrogena Age Shield Face Sunscreen Broad Spectrum SPF70; Neutrogena Ageless Essentials Continuous Hydration Daily Moisturizer SPF25; Neutrogena Ageless Intensive Anti-Wrinkle Instant Radiance Daily Moisturizer SPF25; Neutrogena Ageless Intensives Anti Wrinkle Deep Wrinkle Daily Moisturizer Sunscreen Broad Spectrum SPF20; Neutrogena Ageless Intensives Tone Correcting Daily Moisturizer Broad Spectrum SPF30; Neutrogena Ageless Intensives Tone Correcting Tinted Daily Moisturizer SPF 30 Helioplex; Neutrogena Ageless Restoratives Anti-Oxidant Daily Moisturizer SPF 20 Helioplex; Neutrogena Anti-Wrinkle Deep Wrinkle Daily Moisturizer SPF 20 helioplex; Neutrogena Beach Defense Kids Sunscreen SPF 70; Neutrogena Beach Defense Sunscreen Broad Spectrum SPF50 Plus; Neutrogena Beach Defense Water Plus Sun Protection Sunscreen Broad Spectrum SPF 30; Neutrogena Beach Defense Water Plus Sun Protection Sunscreen Broad Spectrum SPF 50; Neutrogena Beach Defense Water Plus Sun Protection Sunscreen Broad Spectrum SPF 60 Plus; Neutrogena Beach Defense Water Plus Sun Protection Sunscreen Broad Spectrum SPF 70; Neutrogena Beach Defense Water Plus Sun Protection Sunscreen Broad Spectrum SPF100; Neutrogena Beach Defense Water Plus Sun Protection Sunscreen Broad Spectrum SPF30; Neutrogena Beach Defense Water Plus Sun Protection Sunscreen Broad Spectrum SPF50; Neutrogena Beach Defense Water Plus Sun Protection Sunscreen Broad Spectrum SPF50 Plus; Neutrogena Beach Defense Water Plus Sun Protection Sunscreen Broad Spectrum SPF70; Neutrogena Beach Defense Water Plus Sun Protection Sunscreen Stick Broad Spectrum SPF 50 Plus; Neutrogena Bright Boost Moisturizer Broad Spectrum SPF 30; Neutrogena Clear Body Breakout Free Oil Free Sunscreen Broad Spectrum SPF 30; Neutrogena Clear Face; Neutrogena Clear Face Break Out Free Sunscreen Broad Spectrum SPF30; Neutrogena Clear Face Break Out Free Sunscreen Broad Spectrum SPF55; Neutrogena Clear Face Break-Out Free Sunscreen SPF 30 Helioplex; Neutrogena Clear Face Break-Out Free Sunscreen SPF 55 Helioplex; Neutrogena Clear Face Breakout Free Oil Free Broad Spectrum SPF 55; Neutrogena Clear Face Breakout Free Oil Free Sunscreen Broad Spectrum SPF 30; Neutrogena Clear Face Breakout Free oil Free Sunscreen Broad Spectrum SPF 50; Neutrogena Clear Face Serum Fragrance Free SPF 60 Plus; Neutrogena Clear Face Sunscreen Lotion; Neutrogena Clinical Lifting Wrinkle Treatment System; Neutrogena Colour Boosting Sunscreen SPF 30; Neutrogena Complete Acne Therapy Solution; Neutrogena Cool Dry Sport Sunscreen Broad Spectrum SPF 70; Neutrogena CoolDry Sport Sunscreen Broad Spectrum SPF 30; Neutrogena CoolDry Sport Sunscreen Broad Spectrum SPF 50; Neutrogena CoolDry Sport Sunscreen Broad Spectrum SPF100; Neutrogena CoolDry Sport Sunscreen Broad Spectrum SPF30; Neutrogena CoolDry Sport Sunscreen Broad Spectrum SPF70; Neutrogena CoolDry Sport Sunscreen SPF 50 with Micromesh; Neutrogena CoolDry Sport with Micromesh Face Oil free Sunscreen Broad Spectrum SPF 70; Neutrogena CoolDry Sport with Micromesh Sunscreen Broad Spectrum SPF 30; Neutrogena CoolDry Sport with Micromesh Sunscreen Broad Spectrum SPF 50; Neutrogena CoolDry Sport with Micromesh Sunscreen Broad Spectrum SPF 70; Neutrogena CoolDry Sport with Micromesh Sunscreen Broad Spectrum SPF30; Neutrogena CoolDry Sport with Micromesh Sunscreen Broad Spectrum SPF50 Plus; Neutrogena CoolDry Sport with Micromesh Sunscreen Broad Spectrum SPF70; Neutrogena Cooldry Sport Sunscreen Broad Spectrum SPF 50; Neutrogena Cooldry Sport Sunscreen Broad Spectrum SPF 50 Plus; Neutrogena Day Activating SPF 30; Neutrogena Deep Moisture Day with Sunscreen Broad Spectrum SPF20; Neutrogena Fresh Cooling Body Mist Sunscreen SPF 60; Neutrogena Fresh Cooling Sunscreen Body Mist Broad Spectrum SPF45; Neutrogena Fresh Cooling Sunscreen Body Mist Broad Spectrum SPF70 Plus; Neutrogena Healthy Defense Daily Moisturizer SPF 30; Neutrogena Healthy Defense Daily Moisturizer SPF 50 with Helioplex; Neutrogena Healthy Defense Daily Moisturizer SPF30 with Helioplex; Neutrogena Healthy Defense Daily Moisturizer Sunscreen Broad Spectrum SPF 50; Neutrogena Healthy Defense Daily Moisturizer Sunscreen Broad Spectrum SPF30; Neutrogena Healthy Defense Daily Moisturizer Sunscreen Broad Spectrum SPF50; Neutrogena Healthy Defense Daily Moisturizer Sunscreen SPF30 Light Tint; Neutrogena Healthy Defense Moisturizer SPF 50; Neutrogena Healthy Skin Anti Wrinkle Broad Spectrum SPF15; Neutrogena Healthy Skin Anti Wrinkle with sunscreen Broad Spectrum SPF15; Neutrogena Healthy Skin Anti-Wrinkle System; Neutrogena Healthy Skin Anti-wrinkle Cream SPF 15; Neutrogena Healthy Skin Compact Makeup SPF 55 Buff 30; Neutrogena Healthy Skin Compact Makeup SPF 55 Classic Ivory 10; Neutrogena Healthy Skin Compact Makeup SPF 55 Natural Beige 60; Neutrogena Healthy Skin Compact Makeup SPF 55 Warm Beige 90; Neutrogena Healthy Skin Compact Makeup SPF Nude 40; Neutrogena Healthy Skin Compact Makeup SPF55 Fresh Beige 70; Neutrogena Healthy Skin Compact Makeup SPF55 Natural Ivory 20; Neutrogena Healthy Skin Compact Makeup SPF55 Soft Beige 50; Neutrogena Healthy Skin Compact Makeup with sunscreen broad spectrum SPF 55 Buff 30; Neutrogena Healthy Skin Compact Makeup with sunscreen broad spectrum SPF 55 Classic Ivory 10; Neutrogena Healthy Skin Compact Makeup with sunscreen broad spectrum SPF 55 Natural Beige 60; Neutrogena Healthy Skin Compact Makeup with sunscreen broad spectrum SPF 55 Warm Beige 90; Neutrogena Healthy Skin Compact Makeup with sunscreen broad spectrum SPF Nude 40; Neutrogena Healthy Skin Compact Makeup with sunscreen broad spectrum SPF55 Fresh Beige 70; Neutrogena Healthy Skin Compact Makeup with sunscreen broad spectrum SPF55 Natural Ivory 20; Neutrogena Healthy Skin Compact Makeup with sunscreen broad spectrum SPF55 Soft Beige 50; Neutrogena Healthy Skin Face Broad Spectrum SPF15; Neutrogena Healthy Skin Face Lotion SPF 15; Neutrogena Healthy Skin Face Sunscreen Broad Spectrum SPF15; Neutrogena Healthy Skin Firming Sunscreen Broad Spectrum SPF15; Neutrogena Healthy Skin Firms and Lifts SPF15; Neutrogena Hydro Boost City Shield water Broad Spectrum SPF 25; Neutrogena Hydro Boost Hyaluronic Acid Moisturizer with Sunscreen Broad Spectrum SPF 50; Neutrogena Hydro Boost Water Gel Sunscreen Broad Spectrum SPF 50; Neutrogena Hydro Boost Water Sunscreen Broad Spectrum SPF 15; Neutrogena HydroBoost Water Gel Sunscreen Broad Spectrum SPF 30; Neutrogena HydroBoost Water Gel Sunscreen Broad Spectrum SPF 50; Neutrogena Invisible Daily Defense Body Broad Spectrum SPF 30; Neutrogena Invisible Daily Defense Body Sunscreen Broad Spectrum SPF 60 Plus; Neutrogena Invisible Daily Defense Face Mist Sunscreen Broad Spectrum SPF 50; Neutrogena Invisible Daily Defense Face Serum Sunscreen Broad Spectrum SPF 60 Plus; Neutrogena Invisible Daily Defense Fragrance Free SPF 60 Plus; Neutrogena Invisible Daily Defense Sunscreen Body SPF 60 plus; Neutrogena Invisible Daily Defense Sunscreen Broad Spectrum SPF 30; Neutrogena Invisible Daily Defense Sunscreen Broad Spectrum SPF 60 Plus; Neutrogena Men Active protect Face SPF 50 Plus; Neutrogena Men Age Fighter Face Broad Spectrum SPF15; Neutrogena Men Sensitive Skin Oil Free Moisture Sunscreen Broad Spectrum SPF30; Neutrogena Men Sensitive Skin Oil-free Moisture; Neutrogena Men Triple Protect Face Broad Spectrum SPF20; Neutrogena Men Triple Protect Face With Sunscreen Broad Spectrum SPF 20; Neutrogena Moisture Oil-free; Neutrogena Moisture Oil-free SPF 15; Neutrogena Norwegian Formula Age Shield Hand SPF 30; Neutrogena Oil Free Moisture Broad Spectrum SPF15; Neutrogena Oil-Free Moisture Sunscreen Broad Spectrum SPF 35; Neutrogena Rapid Tone Repair Moisturizer Sunscreen Broad Spectrum SPF30; Neutrogena Rapid Tone Repair Retinol Plus Vitamin C Moisturizer Sunscreen Broad Spectrum SPF 30 Day; Neutrogena Rapid Tone Repair Sunscreen SPF30; Neutrogena Rapid Wrinkle Repair Moisturizer SPF 30; Neutrogena Rapid Wrinkle Repair Moisturizer Sunscreen Broad Spectrum SPF30; Neutrogena Rapid Wrinkle Repair Retinol Moisturizer Sunscreen Broad Spectrum SPF 30 Day; Neutrogena Retinol Nx Concentrated Retinol Daily Moisturizer SPF 35 Tinted; Neutrogena Spectrum + Advanced Moisture Body Lotion; Neutrogena Spectrum + Advanced Moisture Sunscreen Lotion SPF 100; Neutrogena Spectrum + Face Advanced Moisture Sunscreen Lotion SPF 100; Neutrogena Spectrum Plus Advanced Sunscreen Broad Spectrum SPF100 Plus; Neutrogena Spectrum Plus Face Advanced Oil Free Sunscreen Broad Spectrum SPF100 Plus; Neutrogena Spectrum plus Advanced Sunblock SPF 100 plus helioplex 360; Neutrogena Spectrum+ Advanced Moisture Sunscreen Lotion SPF 70; Neutrogena Spectrum+ Advanced Moisture Sunscreen Spray SPF 100; Neutrogena Sport Face Oil Free Sunscreen Broad Spectrum SPF 70 Plus; Neutrogena Sport Face Oil Free Sunscreen Broad Spectrum SPF70 Plus; Neutrogena Sport Face Sunblock SPF70plus; Neutrogena Sunblock Cream SPF 30; Neutrogena Sunblock SPF 30; Neutrogena Triple Age Repair Moisturizer Broad Spectrum SPF25; Neutrogena Triple Age Repair Moisturizer with Sunscreen Broad Spectrum SPF 25; Neutrogena Ultimate Sport Sunblock SPF 100 Plus; Neutrogena Ultimate Sport Sunblock SPF 30 Helioplex; Neutrogena Ultimate Sport Sunblock SPF 70 Plus; Neutrogena Ultimate Sport Sunblock SPF70 Plus; Neutrogena Ultimate Sport Sunscreen Broad Spectrum SPF100 Plus; Neutrogena Ultimate Sport Sunscreen Broad Spectrum SPF30; Neutrogena Ultimate Sport Sunscreen Broad Spectrum SPF70 Plus; Neutrogena Ultra Sheer; Neutrogena Ultra Sheer Body Mist Sunscreen Broad Spectrum SPF 100 Plus; Neutrogena Ultra Sheer Body Mist Sunscreen Broad Spectrum SPF 30; Neutrogena Ultra Sheer Body Mist Sunscreen Broad Spectrum SPF 45; Neutrogena Ultra Sheer Body Mist Sunscreen Broad Spectrum SPF 70; Neutrogena Ultra Sheer Body Mist Sunscreen Broad Spectrum SPF30; Neutrogena Ultra Sheer Body Mist Sunscreen SPF 30; Neutrogena Ultra Sheer Body Mist Sunscreen SPF 45; Neutrogena Ultra Sheer Body Mist Sunscreen SPF 60; Neutrogena Ultra Sheer Daily Sun Protection SPF55; Neutrogena Ultra Sheer Dry Touch SPF55; Neutrogena Ultra Sheer Dry Touch Sunblock SPF 30 Helioplex; Neutrogena Ultra Sheer Dry Touch Sunblock SPF 45 with helioplex; Neutrogena Ultra Sheer Dry Touch Sunblock SPF70; Neutrogena Ultra Sheer Dry Touch Sunscreen Broad Spectrum SPF 30; Neutrogena Ultra Sheer Dry Touch Sunscreen Broad Spectrum SPF 55; Neutrogena Ultra Sheer Dry Touch Sunscreen Broad Spectrum SPF 70; Neutrogena Ultra Sheer Dry Touch Sunscreen Broad Spectrum SPF100 Plus; Neutrogena Ultra Sheer Dry Touch Sunscreen Broad Spectrum SPF45; Neutrogena Ultra Sheer Dry Touch Sunscreen Broad Spectrum SPF55; Neutrogena Ultra Sheer Dry Touch Sunscreen Broad Spectrum SPF70; Neutrogena Ultra Sheer Dry Touch Sunscreen Broad Spectrum SPF85 Plus; Neutrogena Ultra Sheer Dry-touch Sunscreen SPF 70; Neutrogena Ultra Sheer Dry-touch Sunscreen SPF 85; Neutrogena Ultra Sheer Face Mist Sunscreen Broad Spectrum SPF 55; Neutrogena Ultra Sheer Face Sunscreen Broad Spectrum SPF 70; Neutrogena Ultra Sheer Face Sunscreen SPF 45; Neutrogena Ultra Sheer Face Sunscreen SPF 60; Neutrogena Ultra Sheer Face and Body Sunscreen Broad Spectrum SPF70; Neutrogena Ultra Sheer Moisturizing Face Serum Sunscreen Broad Spectrum SPF 60 Plus; Neutrogena Ultra Sheer SPF 55 and SPF 70 Suncare Kit; Neutrogena Ultra Sheer Sunscreen Broad Spectrum SPF 70; Neutrogena Ultra Sheer Water Light; Neutrogena Ultra sheer Face and Body Sunscreen Broad Spectrum SPF70; Neutrogena Visibly Even Daily Moisturizer Sunscreen Broad Spectrum SPF30; Neutrogena Visibly Even Daily Moisturizer With Sunscreen Broad Spectrum SPF 30; Neutrogena Wet Guard Kids Beach and Pool; Neutrogena Wet Skin Kids Applies To Wet Or Dry Skin Sunscreen Stick; Neutrogena Wet Skin Kids Beach & Pool Sunscreen Lotion; Neutrogena Wet Skin Kids Beach and Pool Sunblock SPF 70; Neutrogena Wet Skin Kids Beach and Pool Sunblock SPF 70plus helioplex; Neutrogena Wet Skin Kids Beach and Pool Sunscreen Broad Spectrum SPF 70 Plus; Neutrogena Wet Skin Kids Beach and Pool Sunscreen Broad Spectrum SPF45 Plus; Neutrogena Wet Skin Kids Beach and Pool Sunscreen Broad Spectrum SPF70 Plus; Neutrogena Wet Skin Kids SPF 45 Plus; Neutrogena Wet Skin Kids Sunscreen Broad Spectrum SPF70 Plus; Neutrogena Wet Skin Swim Humidity Sweat Sunscreen Broad Spectrum SFP45 Plus; Neutrogena Wet Skin Swim Humidity Sweat Sunscreen Broad Spectrum SPF30; Neutrogena Wet Skin Swim Humidity Sweat Sunscreen Broad Spectrum SPF50; Neutrogena Wet Skin Swim Humidity Sweat Sunscreen Broad Spectrum SPF85 Plus; Neutrogena Wet Skin Swim-Humidity-Sweat Sunblock SPF 50 Helioplex; Neutrogena Wet Skin Swim-Humidity-Sweat Sunblock SPF 85Plus Helioplex; Neutrogena Wet Skin Swim-Humidity-Sweat Sunscreen SPF 30 Helioplex; New Hawaiian Tropic Sensitive Skin Lotion Sunscreen; New Lip Protector Sunscreen SPF15; NexGen Sunscreen Broad Spectrum SPF 36 Doc Martins; Nia 24 SPF 30; Nia24 Sun Damage Defense Broad Spectrum Uva/uvb Sunscreen SPF-30; Niacina-B; Nicole Miller Daytime Delivery; Nicole Miller Daytime Delivery Creme; Nivea A Kiss of Protection Lip Care; Nivea A Kiss of Protection Sun Protection Lip Care; Nivea A Kiss of Recovery Medicated Lip Care; Nivea A Kiss of Smoothness Lip Care; Nivea For Men Age Defying Face Moisturizer; Nivea Mattifying Day Cream; Nivea Men Energy Revitalizing; Nivea Men Protect & Care Face Lotion; Nivea Men Protective; Nivea Men Sensitive; Nivea Men Sensitive Protective; Nivea Moisturizing Day Cream; Nivea Nourishing Day Cream; Nivea Q10 Plus Anti-wrinkle Day Cream; Nivea Recovery Medicated Lip Care; Nivea Smoothness Lip Care; Nivea Sun; Nivea Visage Dnage Firm & Glow Day Care Cream; Nivea Visage Light Moisturizing Day Care; Nivea Visage Q10 Plus Anti-wrinkle; No 7 Beautiful Skin Day Cream Normal/oily SPF 15; No 7 Men Protect & Perfect Intense Moisturiser SPF 15; No 7 Protect & Perfect Intense Day Cream SPF 15; No 7 Restore & Renew Day Cream SPF 15; No BS SPF20 Moisturizer; No-AD SPF 45 Sun Protection; No-Ad Sun Care Broad Spectrum SPF 50 Baby Sunscreen; No-Ad Sun Care Broad Spectrum SPF 50 Kids; No-Ad Sun Care Broad Spectrum SPF 60 Sunscreen; No7 Beautiful Skin Day Cream Dry/very Dry SPF 15; No7 Beautiful Skin Day Cream Normal Dry SPF 15; No7 Beautiful Skin Day Cream Normal/dry SPF 15; No7 Beautiful Skin Day Dry Very Dry Sunscreen Broad Spectrum SPF 15; No7 Beautiful Skin Day Normal Dry Sunscreen Broad Spectrum SPF 15; No7 Beautiful Skin Day Normal Oily Sunscreen Broad Spectrum SPF 15; No7 Beautiful Skin Oil Free Skin Protector All Skin Types SPF 25; No7 Beautiful Skin day Normal Dry Sunscreen Broad Spectrum SPF 15; No7 CC Cream Light; No7 CC Cream Medium; No7 CC LIGHT; No7 CC MEDIUM; No7 City Light Tinted Moisturiser Sunscreen Broad Spectrum SPF 15 Fair; No7 City Light Tinted Moisturiser Sunscreen Broad Spectrum SPF 15 Medium; No7 City Light Tinted Moisturiser Sunscreen Broad Spectrum SPF 15 Medium Dark; No7 Dual Action Tinted Moisturiser Fair; No7 Dual Action Tinted Moisturiser Medium; No7 Early Defence Day Cream; No7 Early Defence Glow Activating Day Cream; No7 Lift & Luminate Day Cream SPF 15; No7 Lift & Luminate Fermete Et Eclat; No7 Lift & Luminate Triple Action Day Cream; No7 Lift and Luminate Day Cream SPF 15; No7 Lift and Luminate Day Sunscreen Broad Spectrum SPF 15; No7 Lift and Luminate Triple Action Day Cream SPF 30; No7 Lift and Luminate Triple Action Fragrance Free Day Cream SPF 30; No7 Lift and Luminite Day Cream SPF 15; No7 Men Protect and Perfect Intense Advanced Day Moisturiser SPF 30; No7 Men Protect and Perfect Intense Moisturiser; No7 Menopause Skincare Protect and Hydrate Day Cream Sunscreen Broad Spectrum SPF 30; No7 Protect & Perfect Intense Advanced Day Cream; No7 Protect and Perfect Day Cream SPF 15; No7 Protect and Perfect Intense Advanced Day Cream SPF 30; No7 Protect and Perfect Intense Advanced Day Cream Sunscreen Broad Spectrum SPF 30; No7 Protect and Perfect Intense Advanced Fragrance Free Day Cream SPF 30; No7 Protect and Perfect Intense Day Cream SPF 15; No7 Protect and Perfect Intense Day Cream Sunscreen Broad Spectrum SPF 15; No7 Restore and Renew Day Cream SPF 15; No7 Restore and Renew Day Sunscreen; No7 Restore and Renew Face and Neck Multi Action Day Cream Sunscreen Broad Spectrum SPF 30; No7Restore and Renew Face and Neck Multi Action Day Cream Sunscreen Broad Spectrum SPF 30; Noad Sport SPF 50; Normal Facial Moisturizer Broad Spectrum SPF 15 Lotion; Norwegian Formula Ageless Hand Cream SPF 30; Nourishing Day Cream; Novadiol Uv SPF 15; Nu Skin Nu Colour advanced finish broad spectrum SPF 15 - Almond; Nu Skin Nu Colour advanced finish broad spectrum SPF 15 - Beige; Nu Skin Nu Colour advanced finish broad spectrum SPF 15 - Delicate Ivory; Nu Skin Nu Colour advanced finish broad spectrum SPF 15 - Honey Beige; Nu Skin Nu Colour advanced finish broad spectrum SPF 15 - Medium Beige; Nu Skin Nu Colour advanced finish broad spectrum SPF 15 - Medium Ochre; Nu Skin Nu Colour advanced finish broad spectrum SPF 15 - Mocha; Nu Skin Nu Colour advanced finish broad spectrum SPF 15 - Neutral Beige; Nu Skin Nu Colour advanced finish broad spectrum SPF 15 - Ochre; Nu Skin Nu Colour advanced finish broad spectrum SPF 15 - Pink; Nu Skin Nu Colour advanced finish broad spectrum SPF 15 - Pink Ochre; Nu Skin Nu Colour advanced finish broad spectrum SPF 15 - Soft Beige; Nu Skin Nu Colour advanced finish broad spectrum SPF 15 - Sunny Beige; Nu Skin Nu Colour advanced finish broad spectrum SPF 15 - Sunset Beige; Nu Skin Nu Colour advanced finish broad spectrum SPF 15 - Tawny; Nu Skin Sunright 50 Broad Spectrum SPF 50; Nu Skin Sunright Lip Balm Broad Spectrum SPF 15; Nu Skin ageLOC Me; Nu Skin ageLOC Me Day S1 Broad Spectrum SPF 25; Nu Skin ageLOC Me Day S3 Broad Spectrum SPF 25; Nu Skin ageLOC Me Day S9 Broad Spectrum SPF 25; Nu Skin ageLOC Me Day T1 Broad Spectrum SPF 25; Nu Skin ageLOC Me Day T3 Broad Spectrum SPF 25; Nu Skin ageLOC Me Day T9 Broad Spectrum SPF 25; Nu Skin ageLOC Radiant Day Broad Spectrum SPF 22; NuCaraClinPAK; NuCaraRXPAK; NuHydraShield 30 SPF-30 Sunscreen; Nutricentials Day Dream Protective; OKeeffes Lip Repair; OP Protect and Nourish Babies and Sensitive SPF 50; OP Protect and Nourish Kids SPF 50; OP Protect and Nourish SPF 30 Sunscreen; OP Protect and Nourish SPF 50 Sunscreen; OP Protect and Renew Body SPF 45; OP Protect and Renew Face SPF 35; OP SPF 70 Anti Aging Sunscreen; OP Sport Sunscreen spf30; OP spf45 Face Clear Zinc Potion; OP spf45 Lip Potion Clear Zinc; OP spf50 and Sport Sunscreen; ORGAPLUS ULTRA PURE SUN 15g; ORGAPLUS ULTRA PURE SUN 22g; OS SILKY SUN CUSHION Broad Spectrum SPF 50; Oars and Alps SPF 18 Shine Free Lip Balm; Oars and Alps SPF 30 Hydrating Antioxidant Sunscreen; Oars and Alps SPF 30 Shine Free Lip Balm; Oars and Alps SPF 35 Everyday Sunscreen; Oars and Alps SPF 35 Face and Scalp Mist; Oars and Alps SPF 35 Go Sunscreen; Oars and Alps SPF 37 Everyday Anti-Aging Face Moisturizer; Oars and Alps SPF 50 Hydrating Antioxidant SunscreenSpray; Oasis Daily Defense; Obagi; Obagi Skintrinsiq Antioxidant Protocol; Occulus Soloxide 30 Broad Spectrum SPF 30; Ocean Potion 50 Instant Dry Kid Spotstick; Ocean Potion Cool Dry Touch Sport 30 Sunscreen; Ocean Potion Gentle and Sensitive 50 Sunscreen; Ocean Potion H2o Sport SPF 50 Sunscreen Lotion; Ocean Potion Instant Dry 30 Mist Sport Sunscreen; Ocean Potion Instant Dry 30 Mist Water Sport Sunscreen; Ocean Potion Instant Dry 50 Dab-On Spotstick; Ocean Potion Instant Dry 50 Mist Kids Sunscreen; Ocean Potion Instant Dry 50 Mist Sunscreen; Ocean Potion Instant Dry 70 Mist Sunscreen; Ocean Potion Instant Dry SPF 50 Mist Kids; Ocean Potion Instant Dry SPF 50+ Mist; Ocean Potion Intell Mist 50 Kids Sunscreen; Ocean Potion Kids Sunscreen Lotion SPF 50; Ocean Potion Moisturizing Lip Potion 45; Ocean Potion Quick Dry 30 Sunscreen; Ocean Potion Quick Dry 50 Sunscreen; Ocean Potion Quick Dry Kids 50 Sunscreen; Ocean Potion Quick Dry SPF 70 Sunscreen; Ocean Potion SPF15 Sunscreen; Ocean Potion SPF30 Sunscreen; Ocean Potion Sport Xtreme Sunscreen Lotion SPF 50; Ocean Potion Sunscreen SPF 50+ Lotion; Ocean Potion Water Sport SPF50 Sunscreen; Oclipse Smart Tone Broad-spectrum Sunscreen SPF 50; Oclipse Sun Spray SPF 50 Broad Spectrum Sunscreen SPF 50 for Face + Body; Octinoxate,octisalate,avobenzone,octocrylene,ensulizole,titanium Dioxide; Octisalate, Avobenzone, Homosalate, Octocrylene SPF30; Octisalate,octocrylene,octinoxate,zinc Oxide,titanium Dioxide,ensulizole; Oh My Bod SPF 50 sunscreen; Oh My Bod SPF50 Antioxidant Infused Dry Touch Sunscreen; Ohui Sunscience Luminous Whitening Sunblock; Oil Daily Protect Sunscreen Moisturizer Broad Spectrum SPF 30; Oil Free Faces 30 SPF Sunscreen; Oil Free Faces Sunscreen SPF 30 daylogic; Oil Free Moisture; Oil and Pore Control Mattifier Broad Spectrum SPF 45; Oil-Free Facial Sunscreen Spectrum SPF 50 JAFRA; Oil-free Moisturizer; Oil-free Sun Block Liq SPF 15; Olay Age Defying Anti-Wrinkle Broad Spectrum SPF 15; Olay Age Defying Anti-Wrinkle Daily SPF 15; Olay Age Defying Anti-Wrinkle Day Broad Spectrum SPF 15; Olay Age Defying Anti-wrinkle; Olay Age Defying Anti-wrinkle - Daily SPF 15 Lotion; Olay Age Defying Anti-wrinkle Day Lotion With SPF 15; Olay Age Defying Sensitive Skin Broad Spectrum SPF 15; Olay Age Defying Sensitive Skin Day Lotion With Sunscreen; Olay Anti-wrinkle Nutrients Daily SPF 15 Lotion; Olay Body Age Transform Intensive Moisturizer Plus Uv Defense; Olay Complete 15 Uva/uvb 365 Daily Moisturizing Lotion With SPF Broad Spectrum SPF 15 Combination/oily; Olay Complete 15 Uva/uvb 365 Daily Moisturizing Lotion With SPF Broad Spectrum SPF 15 Normal; Olay Complete 30 Uva/uvb 365 Daily Moisturizing Lotion With SPF Broad Spectrum SPF 30 Sensitive; Olay Complete Ageless Skin Renewing UV; Olay Complete Ageless Skin Renewing Uv Lotion; Olay Complete All Day Moisture Broad Spectrum SPF 15 Normal; Olay Complete All Day Moisture Cream; Olay Complete All Day Moisture Cream Normal; Olay Complete All Day Moisture Creme SPF 15 Uva/uvb Sensitive; Olay Complete All Day Moisture Normal Broad Spectrum SPF 15; Olay Complete All Day Moisture With Sunscreen Broad Spectrum SPF 30 Normal; Olay Complete All Day Moisture With Sunscreen Broad Spectrum SPF 30 Sensitive; Olay Complete All Day Moisturizer; Olay Complete All Day Moisturizer Broad Spectrum SPF 15; Olay Complete All Day Moisturizer Broad Spectrum SPF 15 Combination/Oily; Olay Complete All Day Moisturizer Broad Spectrum SPF 30 Sensitive Skin; Olay Complete All Day Moisturizer Normal Broad Spectrum SPF 15; Olay Complete All Day Moisturizer Sensitive Skin; Olay Complete All Day Moisturizer With Uv Protection SPF 15 Combination/ Oily; Olay Complete All Day Moisturizer With Uv Protection SPF 15 Normal; Olay Complete All Day Moisturizer with Sunscreen Broad Spectrum SPF 30 Sensitive; Olay Complete All Day UV Moisturizer; Olay Complete All Day UV Moisturizer Combination-Oily; Olay Complete All Day UV Moisturizer Normal; Olay Complete All Day UV Moisturizer Sensitive Skin; Olay Complete Normal 15 Uva/uvb 365 Daily Moisturizing Cream With SPF; Olay Complete Normal UV365 Daily Moisture with sunscreen Broad Spectrum SPF 15; Olay Complete SPF 30 Defense Daily UV Moisturizer Sensitive Skin; Olay Complete Spf30 Defense All Day Moisturizer; Olay Complete Spf30 Defense All Day Moisturizer - Sensitive Skin; Olay Complete Tinted Moisturizer Broad Spectrum SPF 15 Fair to Light; Olay Complete Tinted Moisturizer Broad Spectrum SPF 15 Light to Medium; Olay Complete Tinted Moisturizer With Sunscreen Broad Spectrum SPF 15; Olay Complete Touch Of Sun; Olay Complete UV 365 Daily Moisturizer Combination Oily Broad Spectrum SPF 15; Olay Complete UV 365 Daily Moisturizer Normal Broad Spectrum SPF 15; Olay Complete UV365 Daily Moisturizer with Sunscreen Broad Spectrum SPF 30 Sensitive; Olay Definity Color Recapture Fair-Light SPF 15; Olay Definity Color Recapture Light-Medium (SPF 15); Olay Definity Color Recapture Medium-Deep (SPF 15); Olay Definity Refining Lotion With Uv Protection; Olay Fresh Effects BB Broad Spectrum SPF 15 Fair to Light; Olay Fresh Effects BB Broad Spectrum SPF 15 Light to Medium; Olay Fresh Effects Bb Cream Skin Perfecting Tinted Moisturizing Cream; Olay Fresh Effects SPF 15 Moisturizer; Olay Fresh Effects Soak Up the Sun Protection Broadspectrum SPF 15; Olay Luminous Brightening & Protecting Lotion With Sunscreen; Olay Luminous Brightening & Protecting Lotion With Sunscreen Broad Spectrum SPF 30; Olay Luminous Brightening and Protecting with Sunscreen Advanced Tone Perfecting Moisturize Broad Spectrum SPF 15 Fragrance-Free; Olay Luminous Brightening and Protecting with Sunscreen Broad Spectrum SPF 30; Olay Luminous Whip; Olay Luminous Whip Active Moisturizer Broad Spectrum SPF 25; Olay Luminous Whip Active Moisturizer Broad Spectrum SPF 30 Sales Samples; Olay Moisturizer Broadspectrum SPF 15; Olay Moisturizing Lotion With SPF 30; Olay ProX Clear Moisturizer Broad Spectrum SPF 15; Olay Professional Pro-X Age Protection Lotion With SPF 30; Olay Professional Pro-X Clear Uv Moisturizer SPF 15; Olay Professional Pro-X Even Skin Tone Sheer Uv Protective Lotion; Olay Professional ProX Age Repair Broad Spectrum SPF 30; Olay Professional ProX Age Repair SPF 30; Olay Professional ProX Anti-Oxidant Sheer Daily Moisturizer Broad Spectrum SPF 35; Olay Professional ProX Clear UV Moisturizer SPF 15; Olay Professional ProX Tone Correcting Protocol; Olay Regenerist Advanced Anti-Aging; Olay Regenerist Advanced Anti-aging Day & Night Collection Moisturizer; Olay Regenerist Collagen Peptide 24 Hydrating Moisturizer Broad Spectrum SPF 30; Olay Regenerist DNA Superstructure Broad Spectrum SPF 30; Olay Regenerist DNA Superstructure UV SPF 30; Olay Regenerist Enhancing Lotion With Uv Protection; Olay Regenerist Enhancing Uva/uvb Lotion With SPF 15; Olay Regenerist Hyaluronic plus Peptide 24 Hydrating Moisturizer with Sunscreen Broad Spectrum SPF 30; Olay Regenerist Luminous Brightening and Protecting Moisturizer Broadspectrum SPF 15; Olay Regenerist Micro-Sculpting Anti-Aging Moisturize Broad Spectrum SPF 30; Olay Regenerist Regenerating Advanced Anti-Aging Moisturize Broad Spectrum SPF 50; Olay Regenerist Regenerating Broad Spectrum SPF 50; Olay Regenerist Regenerating Moisture Broad Spectrum SPF 15; Olay Regenerist Regenerating Moisturizer Broad Spectrum SPF 15; Olay Regenerist Retinol 24 plus Peptide Hydrating Moisturizer with Sunscreen Broad Spectrum SPF 30; Olay Regenerist SPF 30 Hydrating Collagen Peptide 24; Olay Regenerist SPF 30 Hydrating Hyaluronic + Peptide 24; Olay Regenerist SPF 30 Hydrating Retinol 24 + Peptides; Olay Regenerist SPF 30 Regenerist Micro-sculpting Cream; Olay Regenerist Superstructure Cream; Olay Regenerist Touch Of Foundation Uv Defense Moisturizer; Olay Regenerist Touch Of Sun Enhancing Lotion With Uv Protection; Olay Regenerist UV Defense Regenerating SPF 15; Olay Regenerist Vitamin C plus Peptide 24 Hydrating Moisturizer with Sunscreen Broad Spectrum SPF 30; Olay Regenerist Whip; Olay Regenerist Whip Active Moisturizer Broad Spectrum SPF 25 Sunscreen; Olay Regenerist Whip Active Moisturizer Broad Spectrum SPF 25 Sunscreen TESTER; Olay Regenerist Whip Active Moisturizer Broad Spectrum SPF 30 Sunscreen (Sales Samples - SPF NOT DETERMINED); Olay Regenerist Whip Active Moisturizer Broad Spectrum SPF 40 Sunscreen; Olay Regenerist Whip Moisturizer Broad Spectrum SPF 25 Sunscreen; Olay Regenerist Whip Sun Protection Factor 40; Olay Sun Facial Sunscreen Antioxidants Makeup Primer SPF 35; Olay Sun Facial Sunscreen Antioxidants Shine Control SPF 35; Olay Sun Facial Sunscreen Vitamin E Makeup Primer; Olay Sun Facial Sunscreen Vitamin E Shine Control; Olay Total Effects 7 In One 15 Anti-aging Featherweight; Olay Total Effects 7 In One Tone Correcting Moisturizer With Sunscreen; Olay Total Effects 7-IN-1 Anti-aging Moisturizer With Sunscreen Broad Spectrum SPF 30; Olay Total Effects 7-IN-1 Anti-aging Uv Moisturizer; Olay Total Effects 7-IN-1 Anti-aging Uv Moisturizer Fragrance-free; Olay Total Effects 7-IN-1 Anti-aging Uv Moisturizer Plus Touch Of Foundation; Olay Total Effects 7-IN-1 Moisturizer + Treatment Duo; Olay Total Effects 7in1 Anti-aging Moisturizer With Sunscreen Broad Spectrum SPF 15; Olay Total Effects 7in1 Pore Minimizing Cc Cream With Sunscreen; Olay Total Effects Anti-Aging Moisturizer Broad Spectrum SPF 15 Fragrance Free; Olay Total Effects Anti-Aging Moisturizer Broad Spectrum SPF 30; Olay Total Effects CC Tone Correcting Broad Spectrum SPF 15 Fair to Light; Olay Total Effects CC Tone Correcting Broad Spectrum SPF 15 Light to Medium; Olay Total Effects CC Tone Correcting Broad Spectrum SPF 15 Medium to Deep; Olay Total Effects Feather Weight Moisturizer with Sunscreen Broadspectrum SPF 15; Olay Total Effects Feather Weight Moisturizer with Sunscreen Broadspectrum SPF 15 Fragrance Free; Olay Total Effects Fragrance Free Moisturizer Broad Spectrum SPF 15; Olay Total Effects Moisturizer Broad Spectrum SPF 30; Olay Total Effects Moisturizer Plus Serum Duo Broad Spectrum SPF 15; Olay Total Effects Moisturizer Plus Serum Duo Fragrance Free Broad Spectrum SPF 15; Olay Total Effects Moisturizer with Sunscreen Broad Spectrum SPF 15 Fragrance-Free; Olay Total Effects Pore Minimizing CC Broadspectrum SPF 15 Fair to Light; Olay Total Effects Pore Minimizing CC Broadspectrum SPF 15 Light to Medium; Olay Total Effects Pore Minimizing CC Broadspectrum SPF 15 Medium to Deep; Olay Total Effects SPF 15; Olay Total Effects SPF 30; Olay Total Effects Tone Correcting Moisturizer Broadspectrum SPF 15 Fair to Light; Olay Total Effects Tone Correcting Moisturizer Broadspectrum SPF 15 Medium; Olay Total Effects Tone Correcting Moisturizer Broadspectrum SPF 15 Medium to Deep; Olay Total Effects Top Sellers Trial Pack; Olay Total Effects UV Moisturizer SPF 15 Fragrance Free; Olay Total Effects Uv Protection Enriched Moisturizer; Olay Total Effects Uv Protection Hand Moisture Treatment; Olay Total Effects Whip; Olay Total Effects Whip Active Moisturizer Broad Spectrum SPF 25 Sunscreen; Olay Total Effects Whip Active Moisturizer Broad Spectrum SPF 25 Sunscreen Fragrance Free; Olay Total Effects Whip Active Moisturizer Broad Spectrum SPF 30 Sunscreen Sales Samples; Olay Total Effects Whip Active Moisturizer Broad Spectrum SPF 40 Sunscreen; Olay Total Effects Whip Sun Protection Factor 40; Olay Uv Moisturizing Cream; Olay Uva/uvb Moisturizing Cream; Olay Whip Plus Hydrating Moisturizer with Sunscreen Broad Spectrum SPF 30; Olay Whip Ultimate Facial Sunscreen Prime Protect SPF 35; Old Spice Bald Care System Scalp Moisturizer Broad Spectrum SPF 25 Sunscreen; Old Spice Daily Moisturizer with Sunscreen Broadspectrum SPF 15; Ombrelle - Cold Weather Defence SPF 25; Ombrelle - Lotion Enfants SPF 30; Ombrelle - Lotion Extreme SPF 30; Ombrelle - Lotion Spf30; Ombrelle Baume Pour Les Levres SPF 30; Ombrelle Cream SPF 60; Ombrelle Creme Spf45 Kids; Ombrelle Kids Lotion Wet'n Protect; Ombrelle Kids SPF 60; Ombrelle L'oreal Suncare Research Kids (SPF 30); Ombrelle L'oreal Suncare Research Kids (SPF 45); Ombrelle Lotion SPF 15; Ombrelle Sport Gel; Ombrelle Sport Lotion SPF 30; Ombrelle Sport Lotion SPF 45; Ombrelle Sport Spray; Ombrelle Sport Spray Spf15; Ombrelle Stick SPF 60; Ombrelle Ultra Light Advanced Lotion; Ombrelle Vapo Sport SPF 15; Ombrelle-lotion SPF 15; Ombrelle-lotion SPF 30; Ombrelle-lotion SPF 45; Ombrelle-lotion Spf15; Orange Creamsicle SPF 15 Broad Spectrum Lip Balm; Orange Soda SPF 15 Broad Spectrum Lip Balm; OrgaPlus Ultra Pure Sun 15g; OrgaPlus Ultra Pure Sun 22g; OrgaPlus Ultra Pure Sun EX 15g; OrgaPlus Ultra Pure Sun EX 22g; Original Lotion With Sunscreen; Origins A Perfect World SPF 25 Age-defense Moisturizer With White Tea; Origins A Perfect World SPF 40 Age-defense Moisturizer With White Tea; Origins Brighter By Nature SPF 30 Skin Tone Correcting Makeup; Origins Ginzing Energy-boosting Tinted Moisturizer Broad Spectrum SPF 40; Origins Ginzing SPF 40 Energy-boosting Tinted Moisturizer; Origins Plantscription SPF 25 Anti-aging Oil-free Cream; Origins Plantscription SPF 25 Power Anti-aging Cream; Origins Plantscription SPF 25 Power Anti-aging Oil-free Cream; Origins Vitazing SPF 15 Energy-boosting Moisturizer; Othree 50 Whitening; Outdoor Essentials; Oxy Daily Moisturizer With SPF 15; PETER ISLAND Continuous Sunscreen KIDS 50 BROAD SPECTRUM SPF 50 Water Resistant; PETER ISLAND Continuous Sunscreen Sport 50 BROAD SPECTRUM SPF 50 Water Resistant; PLANTSCRIPTION SPF 25 POWER ANTI-AGING oil FREE BROAD SPECTRUM; PLAY Antioxidant Body Mist SPF 30 with Vitamin C; PLAY Antioxidant Body Mist SPF 50 With Vitamin C; PLAY SPF 30 Lip Shield Coconut; POZCOS PO CC Cream; PRIDEFUL SPF 15 LIP BALM-cherry vanilla; PRIDEFUL SPF 15 LIP BALM-citrus; PRIDEFUL SPF 15 LIP BALM-coconut; PRIDEFUL SPF 15 LIP BALM-melon; PRIDEFUL SPF 15 LIP BALM-orange mango; PRIDEFUL SPF 15 LIP BALM-passion fruit; PRINCIPAL SECRET Reclaim Revolutionary Anti-Aging Day SPF 15; PROVENCE CALENDULA AQUA SUN 35g; PROVENCE CALENDULA DAILY SUN BLOCK SPF50 Plus; Palm Island Broad Spectrum SPF 30 Sunscreen; Palm Island Broad Spectrum SPF 50 Sunscreen; Pamana Jack Broad Spectrum SPF 100; Pamana Jack Broad Spectrum SPF 15; Pamana Jack Broad Spectrum SPF 50; Pamana Jack Broad Spectrum SPF 75; Pamana Jack Kids Broad Spectrum SPF 50; Pamana Jack Sport Broad Spectrum SPF 50; Panama Jack 30 Broad Spectrum SPF 30 Clear Zinc; Panama Jack BOAD SPECTRUM SPF 30; Panama Jack BOAD SPECTRUM SPF 50; Panama Jack BROAD SPECTRUM SPF 50; Panama Jack BROAD SPECTRUM SPF30; Panama Jack Broad Spectrum SPF 100; Panama Jack Broad Spectrum SPF 100 Sport Sunscreen; Panama Jack Broad Spectrum SPF 100 Sunscreen; Panama Jack Broad Spectrum SPF 15; Panama Jack Broad Spectrum SPF 15 Sport; Panama Jack Broad Spectrum SPF 30; Panama Jack Broad Spectrum SPF 50; Panama Jack Broad Spectrum SPF 70; Panama Jack Broad Spectrum SPF 8; Panama Jack SPF 15; Panama Jack SPF 30; Panama Jack SPF 4; Panama Jack SPF 4 Dark Tanning Oil; Panama Jack SPF 50; Panama Jack SPF 8; Panama Jack SPF 85 Sport Dry Touch Sunscreen; Panama Jack Sunscreen Broad Spectrum SPF75; Parrot Head Fins Up 50 Mist Sunscreen; Parrot Head Fins Up Sport 30; Parrot Head Fins Up Sport 30 Mist; Parrot Head Floridays 30; Parrot Head Floridays 50; Parrot Head Floridays Face 50; Parrot Head Parakeet Kids 50; Parrot Head Parakeet Kids 50 Mist Sunscreen; Patricia Wexler Intensive 3-in-1 Day Cream with Sunscreen Broad Spectrum SPF 28; Patricks Sunscreen; Paula's Choice Pc4men Daytime Protect Broad Spectrum SPF 30; Paulas Choice Clear Ultra-Light Daily Hydrating Fluid SPF 30; Paulas Choice Extra Care Non-Greasy Sunscreen SPF 50; Paulas Choice Lipscreen SPF 50; Paulas Choice Moisture Boost Daily Restoring Complex; Paulas Choice PC4MEN Daytime Protect; Paulas Choice Resist Youth Extending Daily Hydrating Fluid SPF 50; Paulas Choice Ultra Sheer Daily Defense SPF 30; Pavin SPF 50 Sunscreen; Pc SPF Fps 15 Sunscreen Lotion; Pc SPF Fps 30 Sunscreen Lotion; Pc SPF Fps 50 Sunscreen Continuous Spray; Pc SPF Fps 50 Sunscreen Lotion; Pc SPF Fps 50+ Kids Sunscreen Continuous Spray; Pc SPF Fps 50+ Kids Sunscreen Lotion; Pc SPF Fps 50+ Sunscreen Lotion; Peach Tanning Oil SPF 15; Peach Tanning Oil SPF15; Peach Tanning Oil SPF6; Pear SPF 30 Broad Spectrum; Pearlixime ILLUMINATING PERFECTING Sunscreen Broad Spectrum SPF 15; Pelagic Sun Protection Broad Spectrum SPF 50; Peppermint Lip Balm; Peppermint SPF 15 Broad Spectrum Lip Balm; Peppermint SPF 30 Broad Spectrum Lip Balm; Per Sole by Britto Lip Balm Sunscreen Broad Spectrum SPF 30; Perfect Legs Skin Protector SPF 30; Perfect Sun Kids Sunscreen protector against solar rays for children, face and body SPF 50 FM; Perfect Truth Cc CRème; Perfect Truth Cc Eye CRème; Perfect Truth cc Broad Spectrum SPF 30 Ole Henriksen; Perfectif Even Skin Tone Cream Broad Spectrum SPF 30 Sunscreen; Perfectly Posh Block it Like its Hot Broad Spectrum SPF 30; Personalized Day Moisturizer with SPF; Peter Island Baby Sunscreen SPF 50; Peter Island Continous sunscreen SPF 30; Peter Island Continuous Sport Sunscreen SPF 50; Peter Island Kids Sunscreen SPF 65; Peter Island Sunscreen SPF 30; Peter Island Sunscreen SPF 50; Peter Island Sunscreen SPF 70; Peter Island SunscreenSPF 50 SPF 50; Peter Island Ultimate Sheer Dry Touch Sunscreen SPF 70; Photo Finish Protect Broad Spectrum SPF 45 Large Spectre Fps 45 Primer Unificateur De Teint; Photo Finish Protect Broad Spectrum SPF 45 Primer; Photo-age Sunscreen SPF 30; Photoderm SPF/fps 40 Spray; Photoderm SPF/fps 50+ CRème; Photoderm SPF/fps 50+ Lait; Photoplex Plus Broad Spect.sunscr.lot SPF 15; Picture Perfect Day Daily Moisturizer; Pigmentclar Uv SPF 30; Pina Colada Body SPF 30 Broad Spectrum; Pinea-C; Pineapple SPF 30 Broad Spectrum; Pineapple Tanning Oil SPF15; Pineapple Tanning Oil SPF6; Plantscription Anti Aging Oil Free Broad Spectrum SPF 25; Plantscription SPF 25 Power Anti Aging Broad Spectrum 25; Play Antioxidant Body Mist WIth Vitamin C Broad Spectrum SPF 30; Play Everyday Lotion; Play Everyday Sunscreen SPF 50 with Sunflower Extract; Play It Safe Sunscreen SPF 30; Play Lip Balm Broad Spectrum SPF 30 with Mint; Play Lip Balm with Acai Broad Spectrum SPF 30; Play SPF 30 Lip Shield Strawberry; Plius Daily SPF Moisturizer SPF 30; Plushmallow SUNSTICK; Pollen UV Perfect Daily Sunscreen; Polyphenol C15; Polysporin Lip Protectant; Pomegranate Lip Balm; Pomegranate SPF 15 Broad Spectrum Lip Balm; Pomegranate SPF 15 Lip; Positively Ageless Daily Moisturizer; Positively Ageless Sunscreen Lotion SPF 60 Face; Positively Ageless Sunscreen Lotion SPF 85 Face; Positively Ageless Sunscreen Spray SPF 45; Positively Radiant Daily Moisturizer; PowerPatch Dark Spot Protector; Powerbright Moisturizer SPF 50; Prebel Nude Protect SPF 70 Sunscreen; Premier Value Daily Facial Moisturizer; Premier Value Illuminating Daily Moisturizer; Premium Age Protector Ultra; Premium Endurance Sunscreen 30; Premium Endurance Sunscreen 50; Premium Moisturizing Sunscreen SPF 30; Premium Moisturizing Sunscreen SPF 50; Premium Sunscreen Broad Spectrum SPF 30; Premium Sunscreen Face Lotion Sun Bum Face 50; Premium Sunscreen Lotion Sun Bum 30; Premium Sunscreen Lotion Sun Bum 50; Premium Sunscreen Lotion With Instant Bronzer Broad Spectrum SPF 15; Premium Sunscreen Spray Sun Bum 30; Premium Sunscreen Spray Sun Bum 50; Premium Ultra Uv Pure Sun; Prep and Prime Fix Plus SPF 30 Broad Spectrum Sun; Prep and Prime SPF Mini Set; President's Choice Sunblock Lotion SPF 30; President's Choice Sunblock Lotion for Babies SPF 45; President's Choice Sunblock Lotion for Children SPF 30; President's Choice Sunless Tanning Cream SPF 15; Prevage Anti Aging Moisture Broad Spectrum Sunscreen SPF 30; Prevage Anti Agining Triple Defense Shield Broad Spectrum Sunscreen SPF 50; Prevage Anti-aging Moisture Cream; Prevage Anti-aging Moisture Cream SPF 30; Prevage Anti-aging Moisture Lotion SPF 30; Prevage Anti-aging Triple Defense SPF 50 Sunscreen Sheer Lotion; Prevage anti aging SPF 30; Preventage Firming Defense CRème Normal/dry Broad Spectrum SPF 15; Preventage Firming Defense CRème Normal/oily Broad Spectrum SPF 15; Preventage Firming Defense Creme Normal/ Oily Broad Spectrum SPF 15; Preventage Firming Defense Creme Normal/Dry Broad Spectrum SPF 15; Preventage Firming Defense Creme Normal/Dry Merle Norman; Preventage Firming Defense Normal/Oily Broad Spectrum SPF 15 Merle Norman; Preventage Hand Treatment Broad Spectrum SPF 15; Preventage Hand Treatment Broad Spectrum SPF 15 Merle Norman; Prime Protection SPF 15; Primer Broad Spectrum Sunscreen; Prisma Protect SPF 30; Prisma Protect Spf30; Pro Retinol 100% Vegetal Fluide Defenseur; Pro Therapy MD Advanced Ultra Light Day Repair; Pro Triple Protection Factor Face and Body Broad Spectrum SPF 30 Sunscreen; Pro-Collagen Marine Broad Spectrum SPF 30; Pro-Collagen TSA Traveller Collection; Pro-X By Olay Dermatological Anti-aging Age Protection Lotion Sunscreen Broad Spectrum SPF 30; Pro-collagen Day and Night Duo; Pro-derm 50; Pro-derm Cream; Pro-derm Fps 60 SPF; ProX by Olay Dermatological Anti-Aging Intensive Wrinkle Protocol; Proactiv Clear Skin SPF 30; Proactiv Liquid SPF 15; Proactiv MD Daily Oil Control SPF 30; Proactiv SPF 15; Proactivplus SPF Protection SPF 15; Procyte Neova Day Therapy SPF 30; Professional-C Suncare Broad Spectrum SPF 30 Sunscreen; Propolis 27 Cover Cushion; Protect + Hydrate Face; Protect + Hydrate Moisturizing Sunscreen SPF 30; Protect + Hydrate Moisturizing Sunscreen SPF 50; Protect The Truth SPF 50 Ole Henriksen; Protect and Prime Broad Spectrum SPF30; Protecting Body Oil SPF 15; Protecting Day Lotion SPF 15; Protecting Sun Care Lotion SPF 25; Protecting Suncare Lotion SPF 15 Prevention Soleil; Protection 50 Sport; Protective Day; Protective Day (UVA/UVB) SPF 25; Protective Gel-cream Body SPF 20; Protective Moisturizer Broad Spectrum SPF 30 Sunscreen; Protective Moisturizing Fluid Pour Homme - for Men; Protective Protectrice Sunscreen Spray Lotion Lotion Écran Solaire En Vaporisateur SPF/fps 15; Protective Protectrice Sunscreen Spray Lotion Lotion Écran Solaire En Vaporisateur SPF/fps 8; Protective Sport Sunscreen Ecran Solaire 30 SPF/fps; Protective Sunscreen SPF/fps 10 Écran Solaire Protecteur Dry Oil/huile Sèche; Protectyl Soleil CRème Solaire Hydratante Fps 30; Protectyl Soleil Moisturizing Sunscreen Lotion Minimal Protection Spf10; Protectyl Soleil Moisturizing Sunscreen Lotion Moderate Protection Spf15; Protectyl Soleil Moisturizing Sunscreen SPF 30; Protectyl Soleil Moisturizing Sunscreen Spray Moderate Protection Spf15; Protectyl soleil moisturizing sunscreen lotion high protection spf 30; Protetor Solar Grip Action FPS 40; Provence Calendula Aqua Sun Ge L; Provence Calendula Daily Sun Block; Provence Calendula Perfect Sun Block; Publix Baby SPF 50; Publix Kids; Publix Kids SPF 50; Publix SPF 30; Publix SPF 50; Publix Sport SPF 50; Pur Confort Fps 15 SPF; Pur Confort SPF 15; Puriton PERFECT BRIGHTENING SUNSCREEN; Purlisse Blue Lotus Daily Moisturizer SPF 30; Pursuit Body Surf Daily SPF 40 Body Sunscreen; Pursuit Hang 40 SPF 40 Sunscreen; Q10 Power Tm/mc Anti-wrinkle Firming Day Cream; Quercetin & Oak Hydrating Antiageing Antiwrinkle Day Cream; Quercetin & Oak Hydrating Antiageing Antiwrinkle Day Cream SPF 4; Quick Dry Body Broad Spectrum SPF40 Sunscreen UVA-UVB Sunscreen with SolSci-X; Quick Dry SPF 30 Sheer Finish Spray; Quick Dry SPF 50 Sheer Finish Spray; Quick Wrinkle Repair Moisturizer Broad Spectrum SPF30; Quiksilver SPF 30 Sunscreen 01; R2; R2 System; RAYDIANT by Australian Gold BROAD SPECTRUM SPF 50 Vitamin D; RE9 Advanced Deluxe Try Me Set; RE9 Advanced Restorative Day Creme SPF 20; RE9 Advanced Skincare Sample Pack for Face Kit; RECIPE Infinite UV Shield Sunscreen Broad Spectrum SPF100; REDEFINE Regimen for the Appearance of Lines, Pores and Loss of Firmness Travel Size; REDEFINE Triple Defense; REDEFINE triple defense; REPASKIN FACIAL SUNSCREEN BROAD-SPECTRUM SPF 30 50ml; REPASKIN FACIAL SUNSCREEN BROAD-SPECTRUM SPF 50 50ml; RESILIENCE MULTI-EFFECT TRI-PEPTIDE FACE AND NECK CREME BROAD SPECTRUM SPF 15 dry skin; REVERS Lightening Regimen for the Appearance of Stubborn Dark Marks, Patches and Age Spots Travel Size; REVERSE Brightening Defense Fluid; REVERSE Lightening Regimen for the Appearance of Stubborn Dark Marks, Patches and Age Spots; REVERSE Regimen for the Appearance of Skin Dullness, Discoloration and Uneven Skin Tone; REVERSE Regimen for the Appearance of Skin Dullness, Discoloration and Uneven Skin Tone Travel Size; REVITALIZING MOISTURIZING Sunscreen SPF 20; REVIVE INTENSITE CREME LUSTRE DAY Firming Moisture Cream Broad Spectrum SPF 30 Sunscreen; RITUALS Active Firming Day sunscreen broad spectrum SPF 15 dry skin; RITUALS Essential Anti-Aging Day SPF 15 sunscreen broad spectrum normal to dry skin; RITUALS SMOOTH OPERATOR caring lip balm broad spectrum SPF15 sunscreen 4.8g; RITUALS broad spectrum SPF 15 sunscreen Sensitive Skin Day; ROC MULTI CORREXION 5-In-1 Daily Moisturizer With Sunscreen Broad Spectrum SPF 30; RODAN - FIELDS ESSENTIALS Body Sunscreen BROAD SPECTRUM SPF 30; RR SPF30 Sun Stick; Ra Sence Loe Cure Air light UV shield Sun; Radiance Superbe Day Cream Neutral Bronze; Radiance Superbe Day Cream Neutral Caramel; Radiance Superbe Day Cream Neutral Light; Radiance Superbe Day Cream Neutral Medium; Radiance Superbe Day Cream Neutral Tan; Radiance Superbe Day Cream Nude; Radiance Superbe Day Cream Translucent; Radiant Day SPF 22; Rapid Tone Repair Moisturizer; Rapid Wrinkle Repair Moisturizer; Rapid Wrinkle Repair SPF 30 Sunscreen; Raspberry Lime Margarita SPF 15 Broad Spectrum Lip Balm; Raspberry SPF 15 Broad Spectrum Lip Balm; Ray Defense Borad Spectrum SPF 30 sunscreen Biolements; Ray Defense Broad Spectrum SPF 30; Ray Defense SPF 30 Sunscreen; Raydiant By Australian Gold Vitamin D Broad Spectrum spf 30; Raydiant By Australian Gold Vitamin D Broad Spectrum spf 50; Raydiant by Australian Gold Broad Spectrum SPF 30 Vitamin D; Rayito de Sol SPF 35; Re Nutriv Radiant Uv Base Broad Spectrum SPF 50; Re9 Advanced Extra Moisture Restorative Cream With SPF 20; Re9 Advanced Restorative Cream With SPF 20; Re9 Advanced Restorative Day CRème With SPF 20; Re9 Advanced Set - All Skin Types; Re9 Advanced Set - Extra Moisture; Re9 Advanced for Men Facial Moisturizer With SPF 20; Re9 Advanced for Men Set; Re9 Advanced for Men Travel Set; ReVive Fermitif Neck Renewal Broad Spectrum SPF 15 Sunscreen; ReVive Fermitif Neck Renewal SPF 15; ReVive Perfectif Even Skin Tone Dark Spot Corrector Broad Spectrum SPF 30 Sunscreen; ReVive Sensitif Renewal Daily Cellular Protection Broad Spectrum SPF 30 Sunscreen; ReVive Soleil Superieur Broad Spectrum SPF 50 Sunscreen PA; Recapture 360 Day plus IR Defense; Recapture Day Plus IR Defense; Reclarx Moisture Shield; Redermic [c] Uv - SPF 25; Reef Babies SPF 50; Reef Babies SPF 50 Oxybenzone Free; Reef Kids SPF 30; Reef Kids SPF 30 Oxybenzone Free; Reef Kids SPF 40; Reef Safe SPF 20; Reef Safe SPF 30; Reef Safe SPF 30 Oxybenzone Free; Reef Safe SPF 40; Reef Safe SPF 45; Reef Safe SPF 50; Reef Safe SPF 50 Oxybenzone Free; Reef Safe Sun SPF 30 Oxybenzone Free; Refreshing Day Cream; Refreshing Sunscreen Spray Vaporisateur D'écran Solaire Rafraîchissant; Refreshmist Cucumber and Bamboo SPF 20; Regeneration Wrinkle Control Cream SPF 15; Remedy Lip Balm; Rener lift multi action ultra SPF 30; Renergie Lift Multi-action SPF 15; Renergie Lift Multi-action SPF 15 Firming Moisturizing Cream All Skin Types; Renergie Lift Multi-action SPF 15 Firming Moisturizing Rich Cream; Renew Face Dry Touch Sun Protection Broad Spectrum Uva/uvb Sunscreen Lotion SPF 30; Renewal 7-in-1 Anti-Aging Vitamin; Renewal Anti-Wrinkle; Renewed Hope In A Jar SPF 30; Repair & Protect Moisturizer Broad Spectrum SPF 30; Repair and Protect Moisturizer Broad Spectrum SPF30; Repairwear Laser Focus All Smooth Makeup Broad Spectrum SPF 15; Repairwear Laserfocus All Smooth Makeup SPF 15; Repaskin Body Broad Spectrum SPF 30; Repaskin Body Broad Spectrum SPF 50; Repaskin Body Broad-spectrum SPF 30; Repaskin Body Broad-spectrum SPF 50; Repaskin Facial, Broad Spectrum SPF 30; Repaskin Facial, Broad Spectrum SPF 50; Replenishing Day Lotion Broad Spectrum SPF 20; Resilience Lift Firming Sculpting Face and Neck Broad Spectrum SPF 15; Resilience Lift Firming Sculpting Face and Neck Broad Spectrum SPF 15 Nml Combo; Resilience Lift Firming- Sculpting Face and Neck Broad Spectrum SPF 15 for Dry Skin; Resilience Multi-effect Tri-peptide Face and Neck Creme Broad Spectrum SPF 15; Resist Daily Mattifying Fluid Broad Spectrum SPF 50; Resist Lip Gloss Broad Spectrum SPF 40; Resting Beach Face SPF30 Anti-Pollution Sunscreen Serum; Restorative Elements Even Defense SPF 30; Retinol Day SPF 30 CVS; Revelage Arbonne Brightening Moisture Face Cream With SPF 30; Revelage Arbonne Brightening Moisture Hand Cream With SPF 30; Revelage Brightening Moisture Face Cream With SPF 30; Revelage Brightening Moisture Hand Cream With SPF 30; Reversa CRème Radiance Fps 30; Reversa Urban Protection Hydrating Care SPF 30 Soin Hydratant Protection Urbaine Fps 30; Revitalift Anti-wrinkle + Firming Day Cream; Revitalift Bright Reveal Brightening Daily Lotion; Revitalift SPF 30; Revitalift Triple Power Lzr Day Lotion; Revitalift Triple Power Lzr Intensive Anti-aging Lotion; Revitalize Solar Protection Fluid Broad Spectrum SPF 50; Revitalizing Supreme Plus Global Anti-aging Cell Power Creme Broad Spectrum SPF 15; Revlon Colorstay Light Cover Foundation; Rich Nutrient Skin Refiner; Riche CRème SPF Fps 20 Wrinkle Smoothing Day Lotion; Riche CRème SPF/fps 20 Fluide Bienfaisant Anti-rides Jour; Riche Creme Wrinkle Smoothing Day; Rimmel BB Beauty Balm Light; Rimmel BB Beauty Balm Medium; Rimmel BB Beauty Balm Medium Dark; Rimmel BB Cream 9-IN-1 Skin Perfecting Super Makeup Light Medium; Rimmel BB Cream 9-in-1 Skin Perfecting Super Makeup Light; Rimmel BB Cream 9-in-1 Skin Perfecting Super Makeup Medium; Rimmel BB Cream Beauty Balm Matte 9-IN-1 Skin Perfecting Super Makeup SPF 15; Rimmel BB Cream Beauty Balm Radiance SPF 20 Light; Rimmel BB Cream Beauty Balm Radiance SPF 20 Medium; Rimmel BB Cream Matte 9-IN-1 Skin Perfecting Super Makeup SPF 15 Light; Rimmel BB Cream Matte 9-IN-1 Skin Perfecting Super Makeup SPF 15 Light Medium; Rimmel BB Cream Matte 9-IN-1 Skin Perfecting Super Makeup SPF 15 Medium Dark; Rimmel Insta Flawless Perfecting Radiant Skin Tint Light Medium; Rimmel Insta Flawless Perfecting Radiant Skin Tint Medium Dark; Risarium Black Rice Extreme Age-defying Line Reducing Moisture Face Cream SPF 15; Rite Aid Baby Sunscreen; Rite Aid Dark Tanning SPF 4; Rite Aid Kids Sunscreen SPF 50; Rite Aid Oil Free Faces Sunscreen SPF 30; Rite Aid RENEWAL SPF 30; Rite Aid RENEWAL SPF 50; Rite Aid RENEWAL Sport SPF 30; Rite Aid RENEWAL essential defense SPF 50; Rite Aid RENEWAL kids SPF 50; Rite Aid RENEWAL oil free faces; Rite Aid RENEWALSPF 50 SPF 50; Rite Aid Renewal Sunscreen; Rite Aid SPF 30; Rite Aid SPF 50; Rite Aid Sport; Rite Aid Sport SPF 30 8 oz; Rite Aid Sport SPF 50; Rite Aid Sport Sunscreen; Rite Aid Sport SunscreenSPF 30 SPF 30; Rite Aid Sport SunscreenSPF 50 SPF 50; Rite Aid Sunscreen; Rite Aid Sunscreen SPF 30; Rite Aid Sunscreen SPF 50; Rite Aid Ultimate Sheer; Rite Aid Zinc SPF 50; RoC Brilliance Day Rejuvenating SPF20; RoC Multi Correxion; RoC Multi Correxion 4 Zone Daily Moisturizer Sunscreen Broad Spectrum SPF30; RoC Multi Correxion 5 in 1 Chest, Neck and Face Sunscreen Broad Spectrum SPF 30; RoC Multi Correxion 5 in 1 Daily Moisturizer Sunscreen Broad Spectrum SPF30; RoC Multi Correxion 5 in 1 Moisturizer Sunscreen Broad Spectrum SPF30; RoC Multi correxion Lift Anti Gravity Day Moisturizer SPF 30; RoC Multi correxion Lift Anti Gravity Day Moisturizer Sunscreen Broad Spectrum SPF30; RoC Retinol Correxion Deep Wrinkle Daily Moisturizer SPF30; RoC Retinol Correxion Deep Wrinkle Daily Moisturizer Sunscreen Broad Spectrum SPF30; Roc Multi Correxion 5 In 1 Chest, Neck and Face Sunscreen Broad Spectrum SPF 30; Roc Multi Correxion 5 In 1 Daily Moisturizer Sunscreen Broad Spectrum Spf30; Roc Multi Correxion Hydrate and Plump Daily Moisturiser SPF 30; Roc Multi-correxion; Roc Retin-OL+ Day SPF 30; Roc Retinol Correxion Deep Wrinkle Daily Moisturizer Sunscreen Broad Spectrum SPF 30; Roc Soleil Protexion Daily Anti-ageing Sunscreen; Rocky Mountain SPF 30; Rocky Mountain SPF 50; Rocky Mountain Sunscreen; Rodan & Fields Proactiv + Daily Protection Moisturizer Broad Spectrum SPF 15; Rodan + Fields Essentials Face + Body Sunscreen; Rodan + Fields Redefine Triple Defense Cream; Rodan + Fields Redefine Triple Defense Lotion; Rodan + Fields Reverse Brightening Defense Fluid Lotion; Rodan + Fields Unblemish Invisible Matte Defense; Rodan + Fields Unblemish Kit; Rodan Fields Anti-Age Age Shield Hand SPF 30; Rodan and Fields ESSENTIALS Lip Shield Broad Spectrum SPF 25; Rodan and Fields REDEFINE Regimen for the Appearance of Lines, Pores and Loss of Firmness; Rodan and Fields Redefine AM SPF 30; Rodan and Fields Redefine Age Shield Hand Shield Balm SPF30; Rodan and Fields Reverse 4 Broad Spectrum SPF 50 Plus Sunscreen; Rodan+fields Essentials Body Sunscreen; Rodan+fields Essentials Lip Shield; Rodan+fields Redefine; Rodan+fields Redefine Age Shield Hand Balm; Rodan+fields Reverse; Rodan+fields Reverse Kit; Rodial Broad Spectrum SPF 50 Drops Anti-Blue Light and Pollution; Root Beer SPF 15 Broad Spectrum Lip Balm; Rosa Graf Suntime Special; Rosaliac Cc Creme; Rosaliac Uv; Rosaliac Uv Legere; Rosaliac Uv Riche; Rose All Day Moisturizer SPF 30; Royal Boost Cover Me Sunscreen Broad Spectrum SPF 30; Royal Defy Multi-Performance Age Protector Broad Spectrum SPF 50; Royal Jelly Defy Age and pollution protector Broad Spectrum SPF 50; Royal Jelly Kit Jafra; Royal Men 3-in-1 Face Moisturizer Broad Spectrum SPF 20; Royal Men Sample Set; Rubber Ducky SPF 50 Sunscreen; Rénergie Lift Multi-action Ultra; Rénergie Lift Multi-action Ultra Spf30; SEA STAR SPARKLE SPF 50 Glitter Sunscreen Coco Lime; SEA STAR SPARKLE SPF 50 Glitter Sunscreen Cotton Candy; SEEME BEAUTY Moisturizer with Sunscreen SPF 30; SEPHORA Flawless Moisturizing SPF 15 Sunscreen; SEPHORA Sunscreen Body Mist Broad Spectrum SPF 30; SEVEN MINERALS Skin Friendly SPF 30; SEVEN MINERALS Skin Friendly SPF 50; SHEER SPF 55 Well at Walgreens; SHISEIDO CLEAR SUNSCREEN SPF 50 Plus; SHISEIDO CLEAR stick UV PROTECTOR; SHISEIDO FUTURE solution LX TOTAL PROTECTIVE; SHISEIDO FUTURE solution LX UNIVERSAL DEFENSE E; SHISEIDO Future LX Day/Jour; SHISEIDO SYNCHRO SKIN SELF-REFRESHING TINT 115 Fair Shirakaba; SHISEIDO SYNCHRO SKIN SELF-REFRESHING TINT 125 Fair Asterid; SHISEIDO SYNCHRO SKIN SELF-REFRESHING TINT 215 Light Buna; SHISEIDO SYNCHRO SKIN SELF-REFRESHING TINT 225 Light Magnolia; SHISEIDO SYNCHRO SKIN SELF-REFRESHING TINT 235 Light Hiba; SHISEIDO SYNCHRO SKIN SELF-REFRESHING TINT 315 Medium Matsu; SHISEIDO SYNCHRO SKIN SELF-REFRESHING TINT 325 Medium Keyaki; SHISEIDO SYNCHRO SKIN SELF-REFRESHING TINT 335 Medium Katsura; SHISEIDO SYNCHRO SKIN SELF-REFRESHING TINT 415 Tan Kwanzan; SHISEIDO SYNCHRO SKIN SELF-REFRESHING TINT 425 Tan Ume; SHISEIDO SYNCHRO SKIN SELF-REFRESHING TINT 515 Deep Tsubaki; SHISEIDO SYNCHRO SKIN SELF-REFRESHING TINT 525 Deep Kuromoji; SHISEIDO URBAN ENVIRONMENT Oil-FREE UV PROTECTOR; SHISEIDO URBAN ENVIRONMENT oil-FREE UV PROTECTOR; SHISEIDO WASO SHIKULIME COLOR CONTROL oil-free MOISTURIZER Broad Spectrum SPF 30; SIMPLI DAY All In One SmartCream SPF 42; SIROT 24-Hour Hand Care Kit Transformative Glass Technology Age-Fighting Protection Day And Night; SIROT 24-Hour Hand Care Transformative Glass Technology Age-Fighting Protection Day and Night; SIROT Essential Day Transformative Glass Technology Anti-Aging Sunscreen Broad Spectrum SPF 20; SIROT The Complete Beauty Experience Transformative Glass Technology The First Steps to Younger Looking Skin; SOL LEON Sunscreen SPF 15; SOL LEON Sunscreen SPF 30; SOLAR SENSE CLEAR ZINC SUNSCREEN FACE and BODY BROAD SPECTRUM SPF 70; SOLAR SENSE CLEAR ZINC SUNSCREEN FACE and LIPS BROAD SPECTRUM SPF 70; SOLMATE Broad Spectrum SPF 30; SOLMATE Broad Spectrum SPF 4; SOTHYS PARIS Sunscreen Face and Body Broad Spectrum SPF 30 UVA/UVB; SPF 15; SPF 15 Anti-shine moisturizing; SPF 15 Body Sunscreen Spray; SPF 15 Broad Spectrum Lotion; SPF 15 Broad Spectrum Sunscreen Lotion; SPF 15 Fps; SPF 15 Lip Conditioner; SPF 15 Lip and SPF 30 Sunscreen; SPF 15 Lotion; SPF 15 Oil Free Sunscreen Spray; SPF 15 Sheer Coverage Sunscreen Lotion - Australian Gold; SPF 15 Spray Gel Sunscreen With Bronzer - Australian Gold; SPF 15 Sunscreen Continuous Spray; SPF 15 Sunscreen Continuous Spray - Australian Gold; SPF 15 Sunscreen Continuous Spray With Bronzer; SPF 15 Sunscreen Continuous Spray With Bronzer - Australian Gold; SPF 15 Sunscreen Lotion - Australian Gold; SPF 15 for Men Maca Root Energetic Face Protector; SPF 20 Uva/uvb; SPF 25 Body Sunscreen Spray; SPF 25 Uva/uvb; SPF 30; SPF 30 Alcohol-free Spray Sunscreen; SPF 30 Alcohol-free Spray-ON Sunscreen; SPF 30 Anthelios XL Lotion; SPF 30 Body Sunscreen; SPF 30 Body Sunscreen Fragrance Free; SPF 30 Broad Spectrum Lotion; SPF 30 Clear Protect Continuous Spray; SPF 30 Face Sunscreen Lotion; SPF 30 Fps; SPF 30 Fps Sunscreen Lotion; SPF 30 Fps Sunscreen Lotion Lotion Écran Solaire; SPF 30 Hydrating Mist; SPF 30 Ideal Soleil Lip Protection Stick; SPF 30 Invisible Mist; SPF 30 Kids Alcohol-free Spray Sunscreen; SPF 30 Kids Alcohol-free Spray-ON Sunscreen; SPF 30 Kids Spray-ON Sunscreen; SPF 30 Kids Wet'n Protect; SPF 30 Lip Balm; SPF 30 Mineral Sunscreen Face Neck; SPF 30 Moisturizing Facial Sunscreen Cvs Health; SPF 30 Oil Free Broad Spectrum Sunscreen Lotion; SPF 30 Oil Free Sunblock Cream; SPF 30 Oil Free Sunscreen Spray; SPF 30 Performance Sunscreen Spray; SPF 30 Protection Primer; SPF 30 Scalp and Hair Mist; SPF 30 Sheer Coverage Sunscreen Lotion - Australian Gold; SPF 30 Signature High Performance Sunscreen; SPF 30 Signature High Performance Sunscreen Clear Face; SPF 30 Sport Broad Spectrum Sunscreen Lotion; SPF 30 Sport Clear Continuous Spray; SPF 30 Sport Endurance; SPF 30 Sport Sunscreen CVS; SPF 30 Sport Sunscreen GoodSense; SPF 30 Sport Sunscreen Stick; SPF 30 Spray Gel Sunscreen With Bronzer - Australian Gold; SPF 30 Spray-ON Alcohol-free Sunscreen; SPF 30 Sunscreen; SPF 30 Sunscreen Canisun; SPF 30 Sunscreen Continuous Spray - Australian Gold; SPF 30 Sunscreen Continuous Spray With Bronzer - Australian Gold; SPF 30 Sunscreen Skier's Defense; SPF 30 Ultra Light Advanced Weightless Body Lotion; SPF 30 Ultra Light Advanced Weightless Face Lotion; SPF 30 Ultra Sport Sunscreen Lotion; SPF 30 Ultra Sunscreen Continuous Spray; SPF 30 Ultra-lift; SPF 30 Uva/uvb Protection Lotion; SPF 30 Wrinkle Reducing Cream; SPF 30 tropical flavor sunscreen lip balm Ulta; SPF 30+ Spray-ON Sunscreen; SPF 4 Spray Gel Sunscreen With Bronzer; SPF 40 Sport Spray; SPF 45 Body and Scalp Sunscreen Continuous Spray; SPF 45 Clear; SPF 45 Clear Protect Continuous Spray; SPF 45 Sport Clear Continuous Spray; SPF 45 Sunscreen Lotion; SPF 50; SPF 50 Broad Spectrum Kids; SPF 50 Broad Spectrum Sunscreen Continuous Spray; SPF 50 Broad Spectrum Ultrathon; SPF 50 Face Cream; SPF 50 Face Sunscreen Bioelements; SPF 50 Face Sunscreen Canisun; SPF 50 Facial Sunscreen; SPF 50 Fps; SPF 50 Invisible Mist; SPF 50 Kids Continuous Spray Sunscreen; SPF 50 Kids Sunscreen Lotion; SPF 50 Signature High Performance Sunscreen; SPF 50 Sport Sunscreen GoodSense; SPF 50 Sunburn Protection Lotion; SPF 50 Sunscreen; SPF 50 Sunscreen Continuous Spray Lotion; SPF 50 Sunscreen Lotion; SPF 50 Sunscreen Rocky Mountain; SPF 50 Sunscreen Spray; SPF 50 Uva/uvb; SPF 50 plus; SPF 50 with SOLAR SMART; SPF 50+ Baby Broad Spectrum Sunscreen Lotion; SPF 50+ Broad Spectrum Sunscreen Lotion; SPF 50+ Broad Spectrum Sunscreen Mousse; SPF 50+ Continuous Spray Sunscreen; SPF 50+ Fps Face/ Visage; SPF 50+ Fps Ultra; SPF 50+ Fps Ultra Lotion; SPF 50+ Kids (80 Minutes) Water Resistant; SPF 50+ Kids Broad Spectrum Sunscreen Lotion; SPF 50+ Kids Lotion; SPF 50+ Kids Sunscreen Continuous Spray; SPF 50+ Sport Broad Spectrum Sunscreen Continuous Spray; SPF 50+ Sport Broad Spectrum Sunscreen Lotion; SPF 50+ Ultra Light Advanced Weightless Body Lotion; SPF 55; SPF 55 Sport Stick CVS; SPF 55 Sport Sunstick Well at Walgreens; SPF 55 Sunscreen Canisun; SPF 60; SPF 60 Anthelios XL Lightweight Lotion; SPF 60 Anthelios XL Lotion; SPF 60 Baby Sunscreen Continuous Spray Lotion; SPF 60 Baby Sunscreen Lotion; SPF 60 Clear; SPF 60 Clear Protect Continuous Spray; SPF 60 Face Sunscreen Lotion; SPF 60 Kids Wet'n Protect; SPF 60 Sport Clear Continuous Spray; SPF 60 Sport Endurance; SPF 60 Sport Sunscreen Continuous Spray; SPF 60 Sport Sunscreen Lotion; SPF 60 Sunscreen Continuous Spray; SPF 60 Sunscreen Stick; SPF 60 Ultra Light Advanced Weightless Face Lotion; SPF 8 Sunscreen Continuous Spray With Bronzer; SPF 8 Sunscreen Lotion - Australian Gold; SPF Best Sellers Mini Kit; SPF Bestsellers Starter Kit; SPF Fps 100 Sun Protection Lotion; SPF Fps 30 Sport Sunscreen Continuous Spray; SPF Fps 30 Sunscreen Lotion; SPF Fps 40 Lotion; SPF Fps 40 Spray; SPF Fps 50 Baby Spray; SPF Fps 50+ Sunscreen Lotion; SPF Moisturizer; SPF Multitaskers Mini Set; SPF Rx - Anti-Aging Sunscreen SPF 30; SPF Rx - SPF 15 Spearmint Lip Balm; SPF Rx - SPF 30 Mango Lip Balm; SPF Rx - Sport Sunscreen SPF 30; SPF Rx - Sport Sunscreen SPF 50; SPF-15 Sunscreen; SPF-60; SPF/fps 15; SPF/fps 30; SPF/fps 30 Body/corps; SPF/fps 30 Broad Spectrum Alcohol Free Sunscreen; SPF/fps 30 Broad Spectrum Sunscreen Spray; SPF/fps 30 Eco-lux Size/format Écolux Body / Corps; SPF/fps 30 Kids; SPF/fps 30 Lipbalm; SPF/fps 30 Oil Free Sunscreen Lotion; SPF/fps 30 Sport Eco Lips; SPF/fps 30 Sport Sunscreen Lotion; SPF/fps 30 Sunscreen Continuous Spray; SPF/fps 30 Sunscreen Lotion; SPF/fps 33 Dermatone Moisturizing Uva/uvb Sunscreen Creme; SPF/fps 45; SPF/fps 50; SPF/fps 50 Broad Spectrum Alcohol Free Sunscreen; SPF/fps 50 Kids; SPF/fps 50 Sunscreen Continuous Spray; SPF/fps 50+ Sheer Sunscreen Lotion; SPF/fps 60; SPF/fps 60 Continuous Spray; SPF/fps 60 Sunscreen Lotion; SPF15 Sunscreen; SPF15 sunscreen lip balm; SPF30 SUNSCREEN and SPF15 LIP BALM Combo; SPF30 Sunscreen; SPF30 Sunscreen and Antibacterial Hand Sanitizer; SPF30 Sunscreen and SPF15; SPF50 Sunscreen; STEBLANC WATER CC PACT 21 Light Beige; STEBLANC WATER CC PACT 23 Natural Beige; SUNLEYA Age minimizing sun care SPF 50 plus; SUNSHINE SKIN TINT BROAD SPECTRUM SPF 30 Sunscreen; SUNZEN Broad Spectrum SPF 30; SUNZONE FAMILY SPF 60 Broad Spectrum; SUNZONE FAMILY SUNSCREEN SPF 30 Broad Spectrum; SUNZONE KIDS SPF 60 Broad Spectrum; SUNZONE SPF 15 Broad Spectrum; SUNZONE SPF 30 Broad Spectrum; SUNZONE SPF 50 Broad Spectrum; SUNZONE SPF 60 Broad Spectrum; Safe Sea SPF 40; Safe Sea SPF 50; Safe Sea SPF 50 KIDS; Safe Sea SPF 50 kids; Safeway Signature Care Dry Touch Sunscreen SPF 55; Safeway Signature Care Kids Continuous Sunscreen Broad Spectrum SPF 50; Safeway Signature Care Sport Sunscreen SPF 50; Safeway Signature Sport Continuous Sunscreen SPF 30; Sahi Cosmetics; Save Face AM Moisturizer Broad Spectrum SPF 35 Supergoop; Scalp Mist; ScalpHair MistSunscreen SPF30; Scape SPF 30 Athlete Sunblock; Scape SPF 30 Lip Balm; Scape SPF 50 Athlete Sunblock; Scape SPF 50 Moisturizing Face; Scar Cream SPF 30; Scar with SPF 30 Walgreens; Scarsystem Scar Gel; Schick Hydro Silk Post-Dermaplaning Moisturizer Broad Spectrum SPF 50; Scrubs Sunscren; Sea Star Sparkle SPF-50 MANGO-TANGO; Sea Star Sparkle SPF-50 PARTY CAKE; Sea Star Sparkle SPF-50 VERY BERRY; Sea and Ski Kids SPF 70 C-Spray; Sea and Ski SPF 30; Sea and Ski SPF 30 C-Spray; Sea and Ski SPF 50; Sea and Ski SPF 50 C-Spray; Sea and Ski SPF 50 Sport; Sea and Ski SPF 50 Sport C-Spray; Sea and Ski SPF 70; Sea and Ski SPF 70 C-Spray; Sea and Ski SPF 70 Kids; Seaweed Bath Co SPF 40 Sport; Seaweed Bath Co. SPF 50 Sport; Seaweed Bath Co. SPF-30; Seaweed Oil-Control SPF 15; Seaweed Oil-control Lotion SPF 15; Secret Muse Vita Blue Sun; Secret nature Calendula Primer Sunscreen; Sei Bella Advanced Revital R3 Age Defying Creme; Sei Bella Daytime Delivery; Select Brand Baby Sunscreen; Select Brand Sport Sunscreen SPF 30; Select Brand Sunscreen; SeneGence Facial Moisturizer For Men SPF 20; SeneGence SeneSun Hydrating Facial Sunscreen SPF 20; Sensitif Renewal Cream Daily Protection SPF 30 Broad Spectrum UVA UVB Sunscreen; Sensitive Expert+ Face; Sensitive Expert+ Sunscreen; Sensitive Facial Moisturizer Broad Spectrum SPF 15 Lotion; Sensitive Skin 10 oz; Sensitive Skin 3 oz; Sensitive Skin 8 oz; Sensitive Skin Sunscreen Continuous Spray SPF 30; Sensitive Skin Sunscreen Continuous Spray SPF 50 Plus; Sensitive Skin Sunscreen Lotion SPF 30; Sensitive Skin Sunscreen Lotion SPF 50+; Sephora 8hr Mattifying Moisturizer Sunscreen Broad Spectrum SPF 20; Sephora Super Lisseur Rides Age Defy; Sephora Super Lisseur Rides SPF 15 Age Defy Moisture; Serious Skincare Daytech 30; Serious Skincare Serious C3 Plasma Bio Technology C Vitamin C Ester Protective Daytime Broad Spectrum Moisturizer SPF 30; Serious Skincare Serious-C3 Plasma Tm Bio Technology C Vitamin C Ester Protective Daytime Broad Spectrum Moisturizer SPF 30; Session Savers Sunscreen Broad Spectrum SPF 30 Water Resistant; Shameless; Shamrock Sun SPF 50; Shamrock Sun SPF50 Sunscreen; Shea Butter Protective SPF 20; Sheer; Sheer Broad Spectrum SPF45; Sheer Coverage Continuous Spray Sunscreen SPF 50; Sheer Coverage Faces Lotion SPF 45 Australian Gold; Sheer Coverage Faces Sunscreen Lotion SPF 45 With Bronzer; Sheer Daily Moisturizer; Sheer Lotion SPF 45 Bare Skin Feel; Sheer Lotion SPF 50; Sheer Lotion SPF 60 Bare Skin Feel; Sheer Oil Free Sunscreen Lotion 30 SPF/fps; Sheer SPF 100 Well at Walgreens; Sheer SPF 30 Well at Walgreens; Sheer Sunscreen SPF 30 CVS Health; Sheer Sunscreen SPF 30 Meijer; Sheer Sunscreen SPF 30 Wegmans; Sheer Sunscreen SPF 50 Wegmans; Sheer Touch Sunscreen; Sheer Touch Toucher Soyeux Oil-free Sunscreen Écran Solaire Sans Huile; Sheer Touch Toucher Soyeux Oil-free Sunscreen Écran Solaire Sans Huile SPF/fps 50+; Sheer Touch/toucher Soyeux Oil-free Sunscreen/écran Solaire Sans Huile SPF/fps 15; Sheer Touch/toucher Soyeux Oil-free Sunscreen/écran Solaire Sans Huile SPF/fps 30; Sheer Touch/toucher Soyeux Oil-free Sunscreen/écran Solaire Sans Huile SPF/fps 45 Ultra Radiance/ultra-radieux; Sheer Touch/toucher Soyeux Oil-free Sunscreen/écran Solaire Sans Huile SPF/fps 60 Ultra Radiance/ultra-radieux; Sheltered Broad Spectrum SPF 55 Sunscreen; Shine Control Sunscreen Broad Spectrum SPF 50; Ships Ahoy Seashore Sunscreen Broad Spectrum SPF 30 Jafra; Shirley Temple SPF 15 Broad Spectrum Lip Balm; Shiseido Benefiance Nutriperfect Day; Shiseido Benefiance Nutriperfect Day Cream SPF 15; Shiseido Benefiance Wrinkle Smoothing Day; Shiseido Benefiance Wrinkleresist24 Day; Shiseido Benefiance Wrinkleresist24 Protective Hand Revitalizer; Shiseido Essential Energy Day; Shiseido Essential Energy Hydrating Day; Shiseido Extra Smooth Sun Protection N; Shiseido Future Lx Universal Defense; Shiseido Future Solution LX Total Protective; Shiseido Future Solution LX Total Protective E; Shiseido Future Solution Lx Daytime Protective; Shiseido Future Solution Lx Total Protective; Shiseido Future Solution Lx Total Protective Cream; Shiseido Future Solution Lx Total Protective Emulsion; Shiseido Glow Enhancing Primer; Shiseido Ibuki Protective Moisturizer; Shiseido Sheer and Perfect Compact (refill) B00; Shiseido Sheer and Perfect Compact (refill) B100; Shiseido Sheer and Perfect Compact (refill) B20; Shiseido Sheer and Perfect Compact (refill) B40; Shiseido Sheer and Perfect Compact (refill) B60; Shiseido Sheer and Perfect Compact (refill) D10; Shiseido Sheer and Perfect Compact (refill) D20; Shiseido Sheer and Perfect Compact (refill) D30; Shiseido Sheer and Perfect Compact (refill) I00; Shiseido Sheer and Perfect Compact (refill) I100; Shiseido Sheer and Perfect Compact (refill) I20; Shiseido Sheer and Perfect Compact (refill) I40; Shiseido Sheer and Perfect Compact (refill) I60; Shiseido Sheer and Perfect Compact (refill) O00; Shiseido Sheer and Perfect Compact (refill) O20; Shiseido Sheer and Perfect Compact (refill) O40; Shiseido Sheer and Perfect Compact (refill) O60; Shiseido Sheer and Perfect Compact (refill) O80; Shiseido Sports Hydrobb Compact Dark; Shiseido Sports Hydrobb Compact Light; Shiseido Sports Hydrobb Compact Medium; Shiseido Sports Hydrobb Compact Medium Dark; Shiseido Sports Hydrobb Compact Very Dark; Shiseido Sun Protection Eye; Shiseido The Skincare Day Moisture Protection; Shiseido The Skincare Day Moisture Protection Enriched; Shiseido The Skincare Day Moisture Protection Enriched SPF 15; Shiseido The Skincare Day Moisture Protection SPF 15; Shiseido Ultimate Sun Protection; Shiseido Ultimate Sun Protection Plus; Shiseido Ultimate Sun Protector; Shiseido Urban Environment Fresh-moisture Sunscreen SPF 42; Shiseido Urban Environment Oil-free Uv Protector; Shiseido Urban Environment Uv Protection; Shiseido Urban Environment Vita-clear Sunscreen; Shiseido Uv Lip Color Splash Miami Pink; Shiseido Uv Lip Color Splash Nairobi Orange; Shiseido Uv Lip Color Splash Tahiti Blue; Shiseido Uv Lip Color Splash Uluru Red; Shiseido Uv Protective Compact (refill) Dark Beige; Shiseido Uv Protective Compact (refill) Dark Ivory; Shiseido Uv Protective Compact (refill) Fair Ivory; Shiseido Uv Protective Compact (refill) Light Beige; Shiseido Uv Protective Compact (refill) Light Ivory; Shiseido Uv Protective Compact (refill) Light Ochre; Shiseido Uv Protective Compact (refill) Medium Beige; Shiseido Uv Protective Compact (refill) Medium Ivory; Shiseido Uv Protective Compact (refill) Medium Ochre; Shiseido Vital Perfection Uplifting and Firming Day; Shiseido White Lucent; Shiseido White Lucent All Day Brightener; Shiseido White Lucent All Day Brightener N; Shiseido White Lucent Brightening Protective W; Shiseido White Lucent Day; ShopKo Absolute Daily Moisturizing Broad Spectrum SPF15 Sunscreen; ShopKo Illuminating Daily Moisturizer Broad Spectrum SPF15 Sunscreen; Shopko Anti-Wrinkle and Firming Moisturizer Day Broad Spectrum SPF18; Shopko Long Lasting Oil Free Moisturizer Broad Spectrum SPF15; Siero Co Aqua Cushion Foundation 13 Light Beige; Siero Co Aqua Cushion Foundation 21 Natural Beige; Siero Co Aqua Cushion Foundation 23 Rosy Beige; Siero Double Co Aqua Cc Cushion 13 Light Beige; Siero Double Co Aqua Cc Cushion 21 Natural Beige; Siero Double Co Aqua Cc Cushion 23 Rosy Beige; Siero Tyrian Red Cushion 13 Light Beige; Siero Tyrian Red Cushion 21 Natural Beige; Siero Tyrian Red Cushion 23 Rosy Beige; Signature Body Japanese Cherry Blossom SPF 15; Signature Body Moonlight Path SPF 15; Signature Body Sweet Pea SPF 15; Signature Body Twilight Woods SPF 15; Signature Body White Citrus SPF 15; Signature Care Sheer Face and Body SPF 70 Sunscreen; Signature Care Sport SPF 30 Sunscreen; Signature Care Sport SPF 50 Sunscreen; Signature SPF 50 Clear Face; Silk Hydration Weightless Clear Sunscreen Spray SPF 30; Silk Hydration Weightless Face; Silk Line Silk Day Cream SPF 15; Silky CRème Soyeuse SPF/fps 2; Silky Sheer Bb Face Lotion SPF 50; Silky and Clear Sunscreen; Simple; Simple Light Moisturizer SPF 15; Simple Men plus Care Hydrate Face; Simple Protecting Light Moisturizer SPF 15; Simple Vital Vitamin Day Cream SPF 15; Simple Vital Vitamin Day SPF 15; Simply Protect Sensitive Sunscreen Spray SPF 50+; Sirot Daytime Hand Perfection Transformative Glass Technology Moisturizing Sunscreen Broad Spectrum SPF 20; Sirot Hand and Body Trio Transformative Glass Technology Complete Age Resistance Day and Night; Sirot Hand and Body Trio Transformative glass Technology Complete Age Resistance Day and Night; Sirot complete Hand Care Collection Transformative Glass Technology Hydrate Restore Protect; Skin Active Intensive Day; Skin Balancing Makeup Broad Spectrum SPF 20 Jafra; Skin Balancing Ultra Sheer Daily Defence SPF 30 Paulas Choice; Skin Balancing Ultra-sheer Daily Defense Broad Spectrum SPF 30; Skin Best Cream SPF 15 All Skin Types; Skin Best Cream SPF 15 Dry Skin; Skin Care Prescription; Skin Caviar Essence In Foundation Broad Spectrum SPF 25 Sunscreen Mocha; Skin Crave Broad Spectrum spf30; Skin Crave spf15 lip balm; Skin Crave spf30 sunscreen; Skin Effects by Dr. Jeffrey Dover Glycolic Day; Skin Firm Lipoamino hydrator SPF 15 Molton Brown; Skin Pharmacy Advanced Sun Therapy Broad Spectrum SPF 30 Sun; Skin Renew Even Tone; Skin So Soft Bug Guard Plus IR3535 Expedition Insect Repellent Sunscreen; Skin So Soft DD Body; Skin So Soft Dd Firm & Restore Body Cream; Skin Strong - Skin Equipment SPF 30 Sunscreen; Skin Strong - Skin Equipment SPF 55 Sunscreen; Skin Tone Correcting & Beautifying Bb Cream; Skin Vivo Uniformity SPF 15; SkinCeuticals Daily Brightening UV Defense Broad Spectrum SPF 30 Sunscreen; SkinCeuticals Light Moisture UV Defense Broad Spectrum SPF 50 Sunscreen; SkinCeuticals Sport UV Defense Sunscreen Broad Spectrum SPF 50; SkinDog; SkinMedica Environmental Defense Sunscreen SPF 50; SkinPharmacy Advanced Anti-Aging Therapy Glycolic Day Moisturizer SPF 30; SkinPharmacy Advanced Anti-Aging Therapy Retinol Day Moisturizer SPF 30; SkinPharmacy Advanced Sun Therapy Broad Spectrum SPF 50 Face; SkinProtect SPF 50 SHEER ROLLER SUNSCREEN; SkinTx UV Pro Broad Spectrum SPF45; Skinnies SPF30 Sungel; Skinprint Ultra Sheer SPF 20; Slow Âge Daily Cream; Slow Âge Daily Lotion; Smart Tone Broad-spectrum Sunscreen SPF 50; Snail Essential EX Wrinkle Solu tion Sun Stic k; Snappy SPF 30 Sunscreen; SnappyScreen SPF 15; SnappyScreen SPF 40; Snow Skin Sunscreen Lip Balm; SnowSkin Face Sunscreen; SnowSkin GolfersSkin Sunscreen Lip Balm; SnugZ SPF 30 Broad Spectrum Sunscreen; SnugZ SPF 30 Soy Lip Balm; SnugZ SPF 50 Broad Spectrum Sunscreen; SnugZ SPF 50 Sunscreen Spry; Soft Focus City Suncreen Serum Broad Spectrum SPF 30 Supergoop; Soin Haute Protection / High Protection Care SPF 30; Soin Solaire Visage CRème Protectrice Visage Fps 30; Soin Solaire Visage CRème Protectrice Visage Fps 50 Plus; Soin Solaire Visage Creme Multi-protection Fps 30; Soin Ultime Jeunesse Mains CRème Fps 30 Pure; Soins Soleil CRème Teintée Anti-rides Age-defying Tinted Cream Faible/low Protection Uva/uvb Spf10; Soins Soleil CRème Visage Face Cream Haute/high Protection Uva/uvb SPF 30; Soins Soleil Lait Corps Body Lotion Moyenne/medium Protection Uva/uvb SPF 20; Soins Soleil-CRème Visage Et Corps/ Face and Body Cream Faible/low Protection Uva/uvb Spf10; SolMate BROAD SPECTRUM SPF 15; SolMate BROAD SPECTRUM SPF 30; SolMate BROAD SPECTRUM SPF 50; SolMate BROAD SPECTRUM SPF 8; SolMate Baby Broad Spectrum SPF50; SolMate Broad Spectrum SPF 15; SolMate Broad Spectrum SPF 30; SolMate Broad Spectrum SPF 50; SolMate Continuous Sunscreen Broad Spectrum SPF 15; SolMate Kids BROAD SPECTRUM SPF 50; SolMate broad spectrum spf 8; SolRX Kids SPF 60 C-spray; SolRX Sport SPF 30 C-Spray; SolRX Sport SPF 50 C-Spray; SolRX Sport SPF 70 C-spray; SolScents Deep Love broad spectrum spf 30; SolScents flower blast broad spectrum spf 50; Solar Defense Body; Solar Moisturizer SPF 30; Solar Protection Fluid Broad Spectrum SPF 50; Solar Protection Formula SPF 60 Tinted Concealer - (Beige) Sunscreen; Solar Protection Formula SPF 60 Tinted Concealer - (Blush) Sunscreen; Solar Protection Formula SPF 60 Tinted Concealer - (Honey) Sunscreen; Solar Protection Formula SPF 65 Sunscreen; Solar Screen SPF 12; Solar Sense Clear Sun Protection; Solar Sense Clear Zinc; Solar Sense Clear Zinc Baby; Solar Sense Clear Zinc Body SPF 50; Solar Sense Clear Zinc For Face And Lips SPF 50; Solar Sense Clear Zinc For Face Sunscreen SPF 70; Solar Sense Clear Zinc Sport Body SPF 50; Solar Sense Face & Lip Protection - SPF-30; Solar Sense Face & Lip Protection W/SPF 45; Solar Sense Face Sense - Spf30; Solar Sense Kids Protection - SPF-30; Solar Sense Outdoor Sports Protection - SPF-30; Solar Sense SPF 50 Daily Facial Sunscreen; Solarguard MD; Solbar Fifty SPF50; Solbar Pf50 Sunscreen Crm; Solbar Thirty SPF 30; Solco platino plus uv sun; Soleil Expert Sun Care SPF 15 Face and Body Lotion; Soleil Expert Sun Care SPF 15 Water-light Spray; Soleil Expert Sun Care SPF 25 Face and Body Lotion; Soleil Expert Sun Care SPF 30 Face Creme; Soleil Forte Multi; Soleil Protexion Invisible Touch SPF 30; Soleil Protexion Invisible Touch SPF 45; Soleil Protexion Sun Lip Stick Velvet Moisture SPF 30; Soleil Superieur Body SPF 50 US; Soleil Superieur Broad Spectrum SPF 50 Sunscreen US; Soleil Toujours Broad Spectrum SPF 30; Soleil Ultra Expert Sun Care SPF 40 Face and Body Lotion; Solimo General Protection SPF 50 Sunscreen; Solimo General Protection Sunscreen SPF 50; Solimo Kids SPF 50 Broad Spectrum Sunscreen; Solimo Kids Sunscreen SPF 50; Solimo Sport SPF 30 Sunscreen; Solimo Sport SPF 50 Broad Spectrum Sunscreen; Solimo Sport SPF 50 Sunscreen; Solimo Sport Sunscreen SPF 30; Solimo Sport Sunscreen SPF 50; Solimo Ultra Light Sunscreen Broad Spectrum SPF 70; Solmate BROAD SPECTRUM SPF 50 Sport Sunscreen; Solmate Broad Spectrum SPF 50 C/S Sunscreen; Solmate Sunscreen Broad Spectrum SPF 30; Sonatural Pow Der4room Cover Fixing Cushion 21.5; Sonatural Pow Der4room Cover Fixing Cushion 23.5; Sooryehan Jadan Sun Mild; Soothe and Hydrate Starter Set; Soothing Care; Soothing Day Cream; Soprt Sunscreen SPF 50; Spa Cology Sport Sunscreen SPF 30; Spa Cology Ultra Sheer Face and Body Sunscreen SPF 70; Spa Niacinamide And Vitamin E Hand Cream Broad Spectrum SPF 15; Spa Pharma Anti-Aging Acocado Cream SPF 25 Listing; Spa Pharma BB Cream SPF 50; Spa Pharma Day Defense Moisturizing Cream; Spa Pharma Moisturizer Cream SPF 50; Spa Pharma Multi vitamin Cream SPF 25; Spa Pharma Olive Oil Moisturizing Cream; Spa Pharma Regenerating Pomegranate Cream; Spearmint Lip Balm; Spearmint Lip Balm Broad Spectrum Vertra; Spearmint SPF 15 Broad Spectrum Lip Balm; Spearmint SPF 15 Lip; Spearmint SPF 30 Broad Spectrum Lip Balm; Specific Beauty Daily Hydrating SPF 30; Specter Capital Tropical Blend Broad Spectrum SPF 30 Sunscreen; Spf15; Spf15 Lip Balm; Spf20 Uva/uvb; Splash 50 SPF Sunblock Stick; Spometics Green Natural Sun; Sport; Sport 30 Continuous Spray Sunscreen Écran Solaire En Vaporisateur; Sport 30 Lotion Sunscreen Lotion Écran Solaire; Sport 30 Pump Spray Gel Sunscreen Écran Solaire Gel En Vaporisateur; Sport 30 SPF Fps Continuous Spray; Sport 50; Sport 50 Continuous Spray Sunscreen Ecran Solaire En Vaporisateur; Sport Lotion 50 SPF; Sport Performance Powder-dri Sunscreen Lotion Ecran Solaire SPF/fps 30; Sport Performance Spray Sunscreen / Écran Solaire En Vaporisateur SPF/fps 60; Sport Performance Spray Sunscreen Ecran Solaire En Vaporisateur SPF Fps 30; Sport Performance Spray Sunscreen Ecran Solaire En Vaporisateur SPF/fps 15; Sport Performance Spray Sunscreen Écran Solaire En Vaporisateur SPF Fps 100; Sport Performance Spray Sunscreen Écran Solaire En Vaporisateur SPF/fps 60 Photostable; Sport Performance Spray Sunscreen/ecran Solaire En Vaporisateur SPF Fps 50; Sport Performance Sunscreen Lotion Ecran Solaire SPF/fps 30; Sport Performance Sunscreen Lotion Ecran Solaire SPF/fps 50; Sport Performance Sunscreen Lotion Lotion Écran Solaire SPF Fps 60; Sport Performance Sunscreen Lotion Lotion Écran Solaire SPF/fps 30 Photostable; Sport Performance Sunscreen Lotion Lotion Écran Solaire SPF/fps 60 Photostable; Sport Performance Sunscreen Lotion Écran Solaire SPF Fps 30 Technologie Avotriplex Technology; Sport Performance Sunscreen Lotion Écran Solaire SPF Fps 50 Technologie Avotriplex Technology; Sport Performance Sunscreen Stick Ecran Solaire En Bâtonnet SPF Fps 50; Sport Performance Sunscreen Stick/ecran Solaire En Batonnet SPF/fps 30; Sport Performance Sunscreen Écran Solaire SPF Fps 100; Sport SPF 30; Sport SPF 30 Body and Scalp Quick Dry Spray; Sport SPF 30 CareOne; Sport SPF 30 Daylogic; Sport SPF 50; Sport SPF 50 Sunscreen; Sport SPF 50 daylogic; Sport SPF 70; Sport SPF/fps 30 Sunscreen Spray Écran Solaire En Vaporisateur; Sport Sunscreen; Sport Sunscreen Broad Spectrum SPF 15 Lotion; Sport Sunscreen Broad Spectrum SPF 30 Lotion; Sport Sunscreen Broad Spectrum SPF 30 Spray; Sport Sunscreen Broad Spectrum SPF 60 Lotion; Sport Sunscreen Broad Spectrum SPF 60 Spray; Sport Sunscreen Continuous Spray SPF 30; Sport Sunscreen Continuous Spray SPF 50+; Sport Sunscreen LiquidShade; Sport Sunscreen Lotion SPF 30; Sport Sunscreen Lotion SPF 50+; Sport Sunscreen SPF 30; Sport Sunscreen SPF 30 CareOne; Sport Sunscreen SPF 30 Daylogic; Sport Sunscreen SPF 30 Exchange Select; Sport Sunscreen SPF 30 GoodSense; Sport Sunscreen SPF 30 Meijer; Sport Sunscreen SPF 30 Quality Choice; Sport Sunscreen SPF 30 TopCare; Sport Sunscreen SPF 30 Wegmans; Sport Sunscreen SPF 45; Sport Sunscreen SPF 50; Sport Sunscreen SPF 50 Daylogic; Sport Sunscreen SPF 50 TopCare; Sport Sunscreen SPF 50 Wegmans; Sport Sunscreen SPF 70; Sport Sunscreen Stick Broad Spectrum SPF 30; Sport for Kids Sunscreen Lotion Spray SPF 50+; Sports Hydrobb Compact; SpotFade Clear Sunscreen Broad Spectrum SPF 25; Spray Ecran Solaire; Spray Lotion Solaire Haute Protection SPF 15; Spray Pour Peaux Intolerantes Au Soleil; Spray Solaire Bronzage Securite Special Peaux A Tendance Grasse SPF 15; Spray Solaire Huile Embellissante Corps SPF 30; Spray Solaire Lait-fluide Douceur SPF 20; Spray Solaire Lotion Non Grasse Protection Moyenne Spécial Sports 15 SPF; Spray Solaire Lotion Non Grasse Spécial Sports SPF 15; Spray Solaire Protection Élevée SPF 50; Spray Solaire Transparent; Spray Sunscreen Écran Solaire En Vaporisateur SPF Fps 30; Spray Sunscreen Écran Solaire En Vaporisateur SPF Fps 60; Sprayable Sunscreen Lotion SPF 40; Spraygel; Spraygel With Instant Bronze Tint SPF 15; Spraygel With Instant Bronze Tint SPF 30; Spraygel With Instant Bronze Tint SPF/fps 15; Sprc Uv Pro Sun; Spritz Solaire Corps Fps 30; Ss-tmpfl; St. Ives Elements; State-48 Suncare Mineral SPF-30; Stick Nutri Protecteur Protection Elevee; Stila CC Color Correcting Broad-Spectrum SPF 20 (All Shades); Stokoderm Sunscreen PURE; Strawberry Limoncello SPF 15 Broad Spectrum Lip Balm; Strawberry SPF 15 Broad Spectrum Lip Balm; StriVectin ANTI-WRINKLE GLOWFECTOR SPF 30; StriVectin Advanced Retinol Daily Repair Moisturizer SPF30; StriVectin Advanced Retinol Day Moisturizer Broad Spectrum SPF30; StriVectin Advanced SPF Full Screen Clear Finish; StriVectin Advanced SPF Full Screen Illuminating; StriVectin Clinical Corrector ANTI-AGING LIP TINT PINK; StriVectin Clinical Corrector ANTI-AGING LIP TINT PLUM; StriVectin multi-action Super-C SPF 30; StriVectin-SH NIA-114 UVA UVB Shields SPF 30; Strivectin-AR Advanced Retinol Day Lotion SPF 30; Strivectin-CC Clinical Corrector Anti-aging Lip Tint SPF 20; Studio Moisture Fix Broad Spectrum SPF 15; Sublime Glow Face (SPF 15 Fair); Sublime Glow Face (SPF 15 Medium); Sublime Sun Lotion SPF 15; Sublime Sun Lotion SPF 30; Sublime Sun Lotion SPF 50; Sublime Sun Mousse SPF 30; Sublime Sun Mousse SPF 50; Sublime Sun Oil Spray SPF 15; Sublime Sun Oil Spray SPF 30; Sublime Sun Oil Spray SPF 50; Sublime Sun Ultra Fluid Lotion SPF 30; Sublime Sun Ultra Fluid Lotion SPF 50; Sulwhasoo Age-veil Sun Cream SPF 30; Sulwhasoo Age-veil UV protection; Sulwhasoo Age-veil Uv Protection Cream; Sulwhasoo Snowise UV Daily Cream; Sulwhasoo UV Daily Cream; Summer Ready Innovative Sunscreen; Summer Sangria SPF 15 Broad Spectrum Lip Balm; Sun + Avon Sport Fresh Technologie Derma Plus Technology Sunscreen Lotion SPF/fps 50; Sun + Avon Technologie Derma Plus Technology Sunscreen Spray; Sun 30 SPF Water Resistant Alba Botanica; Sun Basics Broad Spectrum SPF 30; Sun Basics SPF 50; Sun Basics Sport Broad Spectrum SPF 30; Sun Bathe Sunscreen; Sun Bathe Sunscreen SPF 20; Sun Block SPF 25; Sun Body Protector Sunscreen Broad Spectrum SPF 50; Sun Broad Spectrum SPF 30 CVS; Sun Broad Spectrum SPF 30 Jafra; Sun Bum 50; Sun Bum Broad Spectrum SPF 30; Sun Bum Broad Spectrum SPF 50; Sun Bum Clear Zinc SPF 50 Sunscreen; Sun Bum Clear Zinc SPF50 Sunscreen; Sun Bum Daily Mineral Sunscreen Moisturizer SPF30; Sun Bum Daily Sunscreen Face Mist SPF30; Sun Bum Face 50 Sunscreen; Sun Bum Face Mist SPF 45; Sun Bum Face SPF 70; Sun Bum GLOW 30 Moisturizing Sunscreen Face SPF 30; Sun Bum Hand Cream SPF15; Sun Bum Kids Face SPF 50; Sun Bum Kids Sunscreen SPF 50; Sun Bum Premium Moisturizing Sunscreen Roll On SPF 50; Sun Bum Premium SPF 15 Sunscreen Tanning; Sun Bum Premium Sunscreen Browning SPF 15; Sun Bum Premium Sunscreen Face SPF 30; Sun Bum SPF 15 Moisturizing Tanning; Sun Bum SPF 15 Premium Moisturizing Sunscreen; Sun Bum SPF 30 Premium Moisturizing Sunscreen; Sun Bum SPF 50 Premium Moisturizing Sunscreen; Sun Bum SPF 70 Premium Moisturizing Sunscreen; Sun Bum Signature Clear SPF 50; Sun Bum Skin Care Essentials Kit; Sun Bum Sunscreen Lip Balm Broad Spectrum SPF 30 Banana; Sun Bum Sunscreen Lip Balm Broad Spectrum SPF 30 Coconut; Sun Bum Sunscreen Lip Balm Broad Spectrum SPF 30 Keylime; Sun Bum Sunscreen Lip Balm Broad Spectrum SPF 30 Mango; Sun Bum Sunscreen Lip Balm Broad Spectrum SPF 30 Pineapple; Sun Bum Sunscreen Lip Balm Broad Spectrum SPF 30 Pomegranate; Sun Bum Sunscreen Lip Balm Broad Spectrum SPF 30 Watermelon; Sun Bum Sunscreen Oil SPF 30 with Coconut Oil; Sun Bum Tinted Lip Balm Raisin Hell; Sun Care For Face; Sun Care for Body; Sun Defeated Sunscreen; Sun Defense UVscreen SPF 48; Sun Diffusing Protector SPF 15 Bioelements; Sun Face Protector Sunscreen Broad Spectrum SPF 50; Sun Face Protector Sunscreen Broad Spectrum SPF 50 Jafra; Sun Logic 20 Fps Uva Uvb SPF Moyenne Medium Protection Large Spectre Broad Spectrum Lait Solaire Corps Sunscreen Lotion Body; Sun Logic 30 Fps Uva Uvb SPF Haute High Protection Large Spectre Broad Spectrum CRème Solaire Visage Et Corps Sunscreen Face and Body; Sun Oil-Free Facial Sunscreen Broad Spectrum SPF 50; Sun Pacer SPF 30; Sun Party Broad Spectrum SPF 30; Sun Party Broad Spectrum SPF 50; Sun Party Sunscreen SPF 30; Sun Party Sunscreen SPF 50; Sun Potion 15 SPF/fps; Sun Project Light Sun Essence; Sun Project Water Sun Cream SPF50; Sun Protection Cream SPF 30; Sun Protection Cream SPF 35; Sun Protection Cream SPF 45; Sun Protection Creme SPF 30 PLUS Exel Clarifying Line; Sun Protection Emulsion Face Broad Spectrum SPF 30 La Prairie Group; Sun Protection Emulsion Face la prairie; Sun Protection Face Sunscren Broad Spectrum SPF 30; Sun Protective Day Cleanser Sunscreen; Sun Protective Day Moisturizer Sunscreen; Sun Protector Lotion Spray for Body SPF 30; Sun Protector Lotion Spray for Body SPF 50; Sun Protector Weightless Lotion for Face and Body; Sun Protector Weightless Lotion for Face and Body SPF 30; Sun Shades Mineral Plus Sunscreen with Zinc Oxide; Sun Shades Sport Plus; Sun Shades Sport Sport Plus; Sun Shades Waterproof Sunblock SPF 30; Sun Silk Drops; Sun Spr SPF 50; Sun Spray Lotion 30; Sun Stick SPF 45; Sun Therape Pro Sport SPF-35; Sun Therape Sport SPF-35; Sun Trainer Creme De Soin Pour Soleil Intense; Sun Trainer Creme De Soin Pour Soleil Normal Ou Fort; Sun Trainer Lait De Soin Pour Soleil Intense; Sun Trainer Lait De Soin Pour Soleil Normal Ou Fort; Sun Verbena Protective Body Protection SPF 15; Sun Verbena Protective Gloss Protection; Sun XSPF 30 Broad Spectrum Sunscreen Lip Balm; Sun and Snow Sport Lotion SPF 30; Sun and Snow Sport Spray SPF 30; Sun bum Daily Sunscreen Moisturizer SPF 30; Sun face protector sunscreen broad spectrum SPF 50; Sun+ Avon Technologie Derma Plus Technology Sunscreen Face Lotion; Sun+ Avon Technologie Derma Plus Technology Sunscreen Lotion; Sun-Defying Sunscreen Oil Broad Spectrum SPF 50 Supergoop; Sun-Kissed Lip Balm Lemon Lime SPF30; Sun/soleil; SunBum SPF 15; SunBum SPF 30; SunBum SPF 50; SunBum SPF 70; SunZone Family SPF 45 Broad Spectrum; SunZone Kids SPF 45 Broad Spectrum; SunZone SPF 45 Broad Spectrum; SunZone Sunscreen Sport SPF 45 Broad Spectrum; Sunbar SPF 48; Sunblock 45 SPF/fps; Sunblock Oil Free SPF/fps 30; Sunblock Oil Free SPF/fps 60; Sunblock SPF 15 Fragrance-free Spray; Sunblock SPF 15 Scented Spray; Sunbrellas Family Sunblock SPF 45; Sunbrellas Kids Sunblock SPF 45; Sunbrellas Sport Sunblock SPF 45; Sunbrero SPF 30 Lotion; Sunburn Protection Broad Spectrum SPF 20 Sunscreen; Suncare Defense SPF 25 Mineral Moisturizer Face & Body; Suncare Defense SPF 30 Mineral Moisturizer; Suncare Non-greasy Sunscreen Broad Spectrum SPF 50; Suncare SPF 50 Sunscreen; Sundays Sunscreen Cream SPF 30+; Sunfisher - The Fishermans Sunscreen Broad Spectrum SPF 50; Sunfitness Creme Fondante SPF 30; Sunfitness Gelee Fraicheur SPF 15; Sunfitness Lait Fondant SPF 15; Sunfitness Lait Fondant SPF 30; Sunfrog Ultra SPF 30 Lip Balm; Sunlogics Sunscreen Lotion Broad Spectrum SPF 25 Water Resistant; Sunlotion Lotionsolaire SPF/fps 4; Sunmitt Broad Spectrum SPF-50 Sunscreen; Sunnylife SPF 50 Sunscreen Coconut Scented; Sunnylife SPF 50 Sunscreen Fragrance Free; Sunright 50; Sunright 50 SPF 50; Sunscreen; Sunscreen 01; Sunscreen 30; Sunscreen 30 Spray; Sunscreen 50; Sunscreen Application SPF 50 Rocky Mauntain; Sunscreen Broad Spectrum SPF 30 Lotion; Sunscreen Broad Spectrum SPF 30 Spray; Sunscreen Broad Spectrum SPF 50 Jafra; Sunscreen Broad Spectrum SPF 60 Lotion; Sunscreen Broad Spectrum SPF 60 Spray; Sunscreen Care Milk SPF 20; Sunscreen Continuous Spray SPF 30; Sunscreen Continuous Spray SPF 30 Sport; Sunscreen Continuous Spray SPF 50; Sunscreen Continuous Spray SPF 50 Kids; Sunscreen Continuous Spray SPF 50 Sport; Sunscreen Continuous Spray SPF/fps 60; Sunscreen Day SPF 50 Supergoop; Sunscreen Face Lotion; Sunscreen Face SPF 28 Vertra Elemental Resistance; Sunscreen Face Stick / Écran Solaire Bâton; Sunscreen Face and Body Broad Spectrum SPF 30; Sunscreen Family SPF 30; Sunscreen Family SPF 50+; Sunscreen Kids Application SPF 50 Rocky Mauntain; Sunscreen Kids SPF 50+; Sunscreen Lip Balm; Sunscreen Lip Balm Shopko; Sunscreen Lotion 30 SPF Fps; Sunscreen Lotion 30 SPF/fps Sport; Sunscreen Lotion 45 SPF; Sunscreen Lotion 50 SPF Fps; Sunscreen Lotion Ecran Solaire SPF/fps 30; Sunscreen Lotion Ecran Solaire SPF/fps 50+; Sunscreen Lotion Lotion Écran Solaire SPF Fps 30; Sunscreen Lotion Lotion Écran Solaire SPF Fps 60; Sunscreen Lotion SPF 15; Sunscreen Lotion SPF 25; Sunscreen Lotion SPF 30; Sunscreen Lotion SPF 45; Sunscreen Lotion SPF 50; Sunscreen Lotion SPF/fps 60; Sunscreen Lotion SPF/fps 70; Sunscreen Lotion With Hydrating Ribbons SPF/fps 15; Sunscreen Lotion With Skin Rejuvenating Green Tea Lotion Écran Solaire Au Thé Vert Revitalisant SPF Fps 8; Sunscreen Lotion/lotion Écran Solaire SPF Fps 32; Sunscreen Lotion/lotion Écran Solaire SPF/fps 52; Sunscreen Mango and Coconut; Sunscreen Mist Broad Spectrum SPF 30 Supergoop; Sunscreen Mist Broad Spectrum SPF 50 Supergoop; Sunscreen Moisturizer SPF 30; Sunscreen Oil; Sunscreen Oil SPF 20; Sunscreen Oil Spray; Sunscreen SPF 15; Sunscreen SPF 15 Sun Bum; Sunscreen SPF 30; Sunscreen SPF 30 CareOne; Sunscreen SPF 30 Daylogic; Sunscreen SPF 30 Jafra; Sunscreen SPF 30 Jafra Sun; Sunscreen SPF 30 Sun Bum; Sunscreen SPF 30 Ulta; Sunscreen SPF 30 Wegmans; Sunscreen SPF 30 meijer; Sunscreen SPF 50; Sunscreen SPF 50 Plus Broad Spectrum UVA UVB protection; Sunscreen SPF 50 Sun Bum; Sunscreen SPF 50 Wegman; Sunscreen SPF 50+; Sunscreen SPF 70; Sunscreen SPF 70 Rocky Mountain; Sunscreen SPF 70 Sun Bum; Sunscreen SPF 70 daylodic; Sunscreen SPF-30; Sunscreen SPF30; Sunscreen SPF50; Sunscreen Sheer SPF 70; Sunscreen Shrre SPF 70; Sunscreen Sport SPF 50 Good Sense; Sunscreen Sport SPF 50 GoodSense; Sunscreen Sport SPF 50 daylogic; Sunscreen Sport SPF 50 exchange select; Sunscreen Sport SPF 50+; Sunscreen Spray 50 SPF; Sunscreen Spray SPF 30; Sunscreen Spray for Babies; Sunscreen Stick SPF 50+; Sunscreen Stick Écran Solaire En Bâtonnet With Aloe Vera/avec Aloès; Sunscreen ULTRA Broad Spectrum Equate; Sunscreen Water Resistant; Sunscreen and Amphibious Bull frog; Sunscreen and insect repellent Bull frog; Sunscreen for Kids; Sunscreen stick; Sunshine Skin Tint Broad Spectrum SPF 30 - Refill; Sunshine Skin Tint SPF 30 Broad Spectrum SPF 30 - Refill; Sunshine and Glitter Broad Spectrum SPF 50 Glamingo Glitter Sunscreen; Sunshine and Glitter Broad Spectrum SPF 50 Rainbow Glitter Sunscreen; Sunsorb Reef Safe SPF15; Sunsorb Reef Safe SPF30; Sunsorb Reef Safe SPF50; Sunsorb SPF30; Sunspots Sunscreen Lotion SPF 15; Sunspots Sunscreen Lotion SPF 30; Sunstick Broad Spectrum SPF 30 Supergoop; Sunthera3 Baby SPF 50+ Sun Protection Lotion; Sunthera3 Kids SPF 50+ Continuous Spray Sunscreen Broad Spectrum Uva/uvb Protection; Sunthera3 Kids SPF 50+ Sun Protection Lotion; Sunthera3 SPF 30 Continuous Spray; Sunthera3 SPF 30 Lipbalm; Sunthera3 SPF 30 Sun Protection Lotion; Sunthera3 SPF 50+ Continuous Spray; Sunthera3 SPF 50+ Sun Protection Lotion; Sunthera3 Sensitive Skin/peau Sensible SPF/fps 60; Sunthera3 Sport SPF 50+ Continuous Spray; Sunthera3 Sport SPF 50+ Sun Protection Lotion; Sunthera3 Sport SPF/fps 30 Continuous Spray; Suntints Liquid Lip Balm SPF 20; Suntone BROAD SPECTRUM SPF 15; Suntone BROAD SPECTRUM SPF 4; Suntone Broad Spectrum SPF 15; Suntone Broad Spectrum SPF 4; Suntone Broad Spectrum SPF 50 Sunscreen; Suntone Broad Spectrum SPF 8; Suntone Fit for the Sun Sport Sunscreen Broad Spectrum SPF 30; Suntone Kids Broad Spectrum SPF 50 Sunscreen; Suntone SPF 50; Suntone SUNSCREEN BROAD SPECTRUM SPF 45; Suntone Sport Sunscreen Broad Spectrum SPF 50; Suntone Sunscreen Broad Spectrum SPF30; Suntone Sunscreen Broad Spectrum SPF50; Suntone Sunscreen Broad Spectrum SPF70; Sunzen BROAD SPECTRUM SPF 30; Sunzen BROAD SPECTRUM SPF 8; Sunzen Broad Spectrum SPF 50; Sunzen Broad Spectrum SPF 8; Sunzone Family SPF 45; Sunzone Family SPF 50; Sunzone Kids SPF 45; Sunzone Kids SPF 50; Sunzone Sport SPF 45; Sunzone Sunscreen Sport SPF 60 Broad Spectrum; Sunzone Sunscreen Écran Solaire Spray Wet 60 SPF/fps; Super CC Color Correction Care Primer Stick SPF 30; Super CC Color-Corection Care All Over Blur Stick; Super Fluid Uv Defense; Super Fluid Uv Defense SPF 50; Super Mint SPF 15 Broad Spectrum Lip Balm; Super Origin Cc Spf25 Pa Plus Plus Brightening; Super-C SPF 30; Supergoop Daily Hydra-Ceramide Boost SPF40; Supergoop Glow Screen SPF 40 Shade 2 Golden Hour; Supervalue Equaline Sport SPF 50; Supreme Shield; Surface Dry Touch SPF 30 Sunscreen; Surface Sheer Touch SPF 30 Sunscreen; Surface Sheer Touch SPF 50 Sunscreen; Surface Sheer Touch SPF 50 with Fragrance; Surface Sun Active Defense SPF 30 Sunscreen; Surface Sun Dry Touch SPF 30 Sunscreen; Surface Sun Dry Touch SPF 40 Sunscreen; Surface Sun Dry Touch SPF 50 Sunscreen; Surface Sun Dry Touch SPF 70 Sunscreen; Surface Sun Sheer Touch SPF 30 Sunscreen; Surface Sun Sheer Touch SPF 50 Sunscreen; Surface Sun Sheer Touch SPF30 Sunscreen; Surface Sun Wetskin Formula SPF 30 Sunscreen; Surfers Skin Sunscreen Lip Balm; SurfersSkin Face Sunscreen; Susanne Kaufmann Suncare Body Broad Spectrum Protection Sunscreen SPF 25 Uvb Uva; Sweatproof Sunscreen SPF 30; Sweet Pea Sheer Shield SPF45; Swisstec Global Protect SPF 30; TANCEUTICALS SPF DROPS Broad Spectrum SPF-30; TBS Seaweed SPF15; TBS Vitamin E SPF; THE PURE LOTUS Jeju Botanical SunCream; TONYMOLY My Sunny All In One Sun SPF45; TONYMOLY My Sunny All SunSpray; Take A Deep Breath SPF 30; Tako Pore Sebum Sun; Tan BB Cream SPF15; Tan Towel SPF 30 Bronzing Mist Broad Spectrum; Tan Towel SPF 30 Clear Broad Spectrum; Tan-luxe Super Glow Broad Spectrum Sunscreen; Tanning Oil Huile Bronzante 15; Tanning Sunscreen SPF 15; Target Up and Up Broad Spectrum SPF 55 Oil-Free; Target Up and Up Kids SPF 50; Target Up and Up Kids SPF 50 Clear; Target Up and Up Reef Conscious Formula SPF 50 Sport Sunscreen; Target Up and Up SPF55 Sunscreen; Target Up and Up SPF55 Sunscreen Reef-Conscious Formula; Target Up and Up Sport SPF 30 Clear Sport SPF 30 Clear; Target Up and Up Sport SPF 50; Target Up and Up Sunscreen SPF 30 SPORT Broad Spectrum; Target Up and Up Sunscreen Sport Broad Spectrum SPF 30; Tbs Aloe Spf15; Teatrical Pro-Aclarant Day; Tenacious Ergodyne; Tender Moments Baby Sunscreen Broad Spectrum SPF 45 Jafra; Tender Moments Baby Sunscreen Broad Spectrum SPF 50 Jafra; Tender Moments Baby Sunscreen Broad Spectrum SPF 50 Water Resistant (40 minutes); Tender Moments SPF 45; Tensolift; Terrapin Outdoor Systems SPF 30 Sunscreen Lotion; The Art of Shaving Daily Sunscreen Broad Spectrum SPF 15; The Bod Guard Invisible Sunscreen for Body; The Body Shop Aloe Soothing Moisture SPF 15; The Good Stuff AfterShave SPF 15; The Healthy Foundation; The Healthy Foundation SPF 20; The Mug Guard Invisible Sunscreen for Face; The Ordinary Invisible Uv Filters SPF 35; The Ordinary Suncare Invisible UV Filters with Antioxidants SPF35; The Protector; The Starter Kit; The Ultimate KORRES Sun Kit; The Venetian The Palazzo Broad Spectrum SPF 50 Sunscreen; Thermal Fix Uv SPF 20; Thermal S Uv SPF 20; Thermalab Daily Body SPF30 Broad Spectrum; Tiege Hanley AM Morning Facial Moisturizer with SPF20; Tiege Hanley Daily Moisturizer SPF20; Time Frame Future Resist Foundation Broad Spectrum SPF 20 Truffle Delilah Cosmetics; Time Repair A.M.; Timewise Day Solution sunscreen SPF 35; Timewise Day Solution sunscreen SPF 35 14ml; Tinted Liplux; Tinted Moisturizer SPF 30 Broad Spectrum; Tinted Sun Face Protector Sunscreen Broad Spectrum SPF 50; To Save Face SPF 30 Plus Facial Sunscreen; Toleriane Double Repair Moisturizer UV SPF 30; Toleriane Sensitive CRème Uv; Tom Ford Face Protect Broad Spectrum SPF 50; Tone Correcting Daily Lotion; Too Cool For School DINOPLATZ La Ola Noche No.23; Too Cool For School DINOPLATZ La Ola Viento No.21; Too Faced Hangover Good To Go SPF 25 Broad Spectrum Moisturizer; TopCare Everyday SPORT Sun Broad Spectrum SPF 30; TopCare Everyday Sport Sun SPF 50; TopCare Everyday Ultimate Sheer Sun Broad Spectrum SPF 70; Topcare Daily Facial; Topcare Everyday Continuous Broad Spectrum SPF 50; Topcare Everyday Sport Continuous Broad Spectrum SPF 30; Topcare Everyday Sport SPF 70 Sunscreen; Topcare Everyday Ultimate Sheer Sun Broad Spectrum SPF 55; Topcare Everyday Ultra Protection SPF 50; Total Age Defy SPF 15 Sunscreen; Total Cover Cream Foundation; Total Cover Cream Foundation Broad Spectrum SPF 30 Sunscreen G10; Total Cover Cream Foundation Broad Spectrum SPF 30 Sunscreen G20; Total Cover Cream Foundation Broad Spectrum SPF 30 Sunscreen G30; Total Cover Cream Foundation Broad Spectrum SPF 30 Sunscreen G40; Total Cover Cream Foundation Broad Spectrum SPF 30 Sunscreen G50; Total Cover Cream Foundation Broad Spectrum SPF 30 Sunscreen G60; Total Cover Cream Foundation Broad Spectrum SPF 30 Sunscreen G70; Total Cover Cream Foundation Broad Spectrum SPF 30 Sunscreen G80; Total Cover Cream Foundation Broad Spectrum SPF 30 Sunscreen N0; Total Cover Cream Foundation Broad Spectrum SPF 30 Sunscreen N10; Total Cover Cream Foundation Broad Spectrum SPF 30 Sunscreen N100; Total Cover Cream Foundation Broad Spectrum SPF 30 Sunscreen N110; Total Cover Cream Foundation Broad Spectrum SPF 30 Sunscreen N120; Total Cover Cream Foundation Broad Spectrum SPF 30 Sunscreen N20; Total Cover Cream Foundation Broad Spectrum SPF 30 Sunscreen N25; Total Cover Cream Foundation Broad Spectrum SPF 30 Sunscreen N30; Total Cover Cream Foundation Broad Spectrum SPF 30 Sunscreen N35; Total Cover Cream Foundation Broad Spectrum SPF 30 Sunscreen N40; Total Cover Cream Foundation Broad Spectrum SPF 30 Sunscreen N50; Total Cover Cream Foundation Broad Spectrum SPF 30 Sunscreen N60; Total Cover Cream Foundation Broad Spectrum SPF 30 Sunscreen N70; Total Cover Cream Foundation Broad Spectrum SPF 30 Sunscreen N80; Total Cover Cream Foundation Broad Spectrum SPF 30 Sunscreen N90; Total Cover Cream Foundation Broad Spectrum SPF 30 Sunscreen P10; Total Cover Cream Foundation Broad Spectrum SPF 30 Sunscreen P20; Total Cover Cream Foundation Broad Spectrum SPF 30 Sunscreen P30; Total Cover Cream Foundation Broad Spectrum SPF 30 Sunscreen P40; Total Cover Cream Foundation Broad Spectrum SPF 30 Sunscreen P50; Total Cover Cream Foundation Broad Spectrum SPF 30 Sunscreen P60; Total Cover FX; Tourist Spf30; Trader Joes Daily Facial Sunscreen SPF 40; Trader Joes Face and Body Sunscreen SPF 30; Trader Joes Sunscreen SPF 50; Traveler Spf15; Tree Hut DD Cream Daily Defense Cream SPF20; Tree Hut Dry Oil Mist Daily Defense SPF8; TriLipiderm Broad Spectrum SPF 30; TriLipiderm Protective Day; Triple Age Repair Moisturizer; Triple Defense Treatment; Triple Defense Treatment for Men; Triple Performing Facial Emulsion; Triple Protect Face Lotion SPF 20; Troiareuke Cushion A Plus C21; Troiareuke Cushion A Plus C21 Refill; Troiareuke Cushion A Plus C23; Troiareuke Cushion A Plus C23 Refill; Tropic Sun SPF 50; Tropical Coconut SPF 30 Broad Spectrum; Tropical Lip Balm; Tropical SPF 15 Broad Spectrum Lip Balm; Tropical SPF 15 Lip; Tropical Sunscreen; Tropicsurf Extreme Protection Spf50; TruAge AGE Therapy Lip Balm SPF15; TruAge Lip Balm Pink Grapefruit SPF15; TruAge Lip Balm Pomegranate Mint SPF15; True Blue Spa Cooling Sunscreen Mist Broad Spectrum SPF 25 Water Resistant (40 minutes) Monoi Oil; True Complexion Tinted Moisturizer SPF 15; Truist Sunscreen Moisturizer; Trump Golf Broad Spectrum SPF 30 Sunscreen; Truth Revealed Super Creme With SPF 15; Truth Revealed super creme SPF 15 Ole Henriksen; ULTA Sunscreen SPF 30; ULTIMATE AQUA BLANC PROTECTIVE 10mL; ULTRASOL Sport Sunscreen; ULTRASOL Sunscreen; ULTRASOL Sunscreen SPF45; UNBLEMISH Invisible Matte Defense; UV Capture Sun Pact; UV Defense Pocket Sun Block Tissues (Broad Spectrum, SPF30); UV Defense Pocket Sun Pad (Broad Spectrum, SPF30); UV Defense Sun Block Tissues (BROAD SPECTRUM, SPF30); UVA and UVB Broad Spectrum SPF30 Sunscreen Oil with golden shimmer; Ulimate Sheer SPF 85 Rite Aid; Ulta Beauty Broad Spectrum SPF 30; Ulta Beauty Broad Spectrum SPF 30 Sunscreen; Ulta Beauty Broad Spectrum SPF 50 Sunscreen; Ulta Beauty SPF 15 Broad Spectrum Sunscreen; Ulta Beauty SPF 30 Broad Spectrum Sunscreen; Ulta Beauty SPF 50 Broad Spectrum Sunscreen; Ulta Beauty SPF 50 Workout Sunscreen Face Mist with Rosewater; Ulta Broad Spectrum SPF 15; Ulta Broad Spectrum SPF 15 Medium Deep; Ulta Broad Spectrum SPF 30; Ulta Broad Spectrum SPF 50; Ulta Broad Spectrum SPF 70; Ulta Broad Spectrum SUNSCREEN SPF80; Ulta Face SPF 30; Ulta SPF 15; Ulta SPF 15 Broad Spectrum Light to Medium Tinted Sunless Sunscreen; Ulta SPF 15 Broad Spectrum Tinted Sunless Sunscreen for Face; Ulta SPF 15 Light Medium Broad Spectrum; Ulta SPF 15 Medium Deep Broad Spectrum tinted sunscreen; Ulta SPF 20 Broad Spectrum Water Resistant Sunscren with Shimmer; Ulta SPF 50; Ulta SUNSCREEN SPF 45; Ulta Sun Dry Touch SPF 55; Ulta Sun Dry Touch SPF 70; Ulta Sunscreen SPF 15; Ulta Sunscreen SPF 30; Ulta Sunscreen SPF 50; Ultimate Aqua Blanc Protective; Ultimate Aqua Blanc Protective Lotion; Ultimate Miracle Worker Eye SPF 15; Ultimate Miracle Worker Multi-rejuvenating SPF 30; Ultimate Pro-collagen Day and Night Duo; Ultimate Seer Sunscreen SPF 55 daylogic; Ultimate Sheer SPF 55 body; Ultimate Sheer SPF 70; Ultimate Sheer Sunscreen SPF 100 Rite Aid; Ultimate Sheer Sunscreen SPF 30 daylogic; Ultimate Sheer Sunscreen SPF 70 Quality Choice; Ultimate Sheer Sunscreen SPF 70 daylogic; Ultimate Sheer Sunscreen SPF 70 exchange select; Ultimate Sheer Sunscreen SPF 85 Rite Aid; Ultimate Sport Face Sunscreen Lotion; Ultimate Sport Sunscreen; Ultimate Sport Sunscreen Lotion; Ultimate Sport Sunscreen Lotion SPF 30; Ultimate Sport Sunscreen Spray SPF 30; Ultimate Sport Sunscreen Spray SPF 45; Ultimate Sport Sunscreen Spray SPF 60; Ultimate Sport Sunscreen Spray SPF 70; Ultimate Sport Sunscreen Spray SPF 85; Ultra Defense Spray Sunscreen / Écran Solaire En Vaporisateur SPF/fps 60; Ultra Defense Spray Sunscreen Ecran Solaire En Vaporisateur SPF/fps 30; Ultra Defense Spray Sunscreen Écran Solaire En Vaporisateur SPF Fps 100; Ultra Defense Spray Sunscreen Écran Solaire En Vaporisateur SPF/fps 60 Photostable; Ultra Defense Spray Sunscreen/ecran Solaire En Vaporisateur SPF/fps 50; Ultra Defense Sunscreen Lotion Ecran Solaire SPF/fps 15; Ultra Defense Sunscreen Lotion Ecran Solaire SPF/fps 30; Ultra Defense Sunscreen Lotion Lotion Écran Solaire SPF Fps 30 Photostable; Ultra Defense Sunscreen Lotion Lotion Écran Solaire SPF Fps 60; Ultra Defense Sunscreen Lotion Lotion Écran Solaire SPF Fps 60 Photostable; Ultra Defense Sunscreen Lotion Lotion Écran Solaire SPF/fps 15 Photostable; Ultra Defense Sunscreen Lotion Écran Solaire SPF Fps 15 Technologie Avotriplex Technology; Ultra Defense Sunscreen Lotion Écran Solaire SPF Fps 30 Technologie Avotriplex Technology; Ultra Defense Sunscreen Lotion Écran Solaire SPF Fps 50; Ultra Defense Sunscreen Lotion Écran Solaire SPF Fps 50 Technologie Avotriplex Technology; Ultra Defense Sunscreen Stick Écran Solaire En Bâtonnet SPF Fps 50; Ultra Defense Sunscreen Écran Solaire SPF Fps 100; Ultra Facial Cream/crème SPF 30; Ultra Facial Moisturizer SPF 15; Ultra Facial Moisturizer SPF 30; Ultra Fluide Corps; Ultra Fluide Visage; Ultra Lift Anti-wrinkle Firming Moisturizing Cream; Ultra Light Advanced Continuous Spray Lotion; Ultra Light Advanced Lotion; Ultra Light Facial Sunscreen SPF 50; Ultra Light Sunscreen Broad Spectrum SPF 50; Ultra Light Sunscreen Broad Spectrum SPF 50 Merle Norman; Ultra Mist Banana Boat Kids Sunblock Lotion Ecran Solaire Pour Enfants Uva & Uvb SPF Fps 50; Ultra Moisturizing Sun; Ultra Protection SPF 70; Ultra Protection Sunscreen Stick SPF 60; Ultra Protection Water-based Sunscreen Lotion SPF 25; Ultra Replenishing Sunscreen SPF 40; Ultra Sheer Body Mist Sunscreen; Ultra Sheer Body Mist Sunscreen SPF 100; Ultra Sheer Body Mist Sunscreen SPF 30; Ultra Sheer Body Mist Sunscreen SPF 45; Ultra Sheer Body Mist Sunscreen SPF 85; Ultra Sheer Daily Defense Facial SPF 18; Ultra Sheer Dry Touch Sunscreen SPF 30; Ultra Sheer Dry-touch Sunscreen; Ultra Sheer Dry-touch Sunscreen SPF 100; Ultra Sheer Dry-touch Sunscreen SPF 110; Ultra Sheer Dry-touch Sunscreen SPF 30; Ultra Sheer Dry-touch Sunscreen SPF 45; Ultra Sheer Dry-touch Sunscreen SPF 55; Ultra Sheer Dry-touch Sunscreen SPF 60; Ultra Sheer Face & Body Stick SPF 60; Ultra Sheer Face & Body Stick Sunscreen SPF 50+; Ultra Sheer Face Mist Sunscreen; Ultra Sheer Face Sunscreen; Ultra Sheer Face Sunscreen SPF 110; Ultra Sheer Face Sunscreen SPF 45; Ultra Sheer Face Sunscreen SPF 60; Ultra Sheer Face Sunscreen SPF 70; Ultra Sheer Foaming Lotion SPF 30; Ultra Sheer Foaming Lotion SPF 60; Ultra Sheer Moisturizing Face Serum Sunscreen; Ultra Sheer Sunscreen Lotion; Ultra Sheer Water Light; Ultra Sun Protection Cream; Ultra Sun Protection Lotion; Ultra Sun Protection Lotion Ti; Ultra Sun Protection Spray; Ultra Sun Protector Cream CRème Solaire Ultra Protection 50+; Ultra Sun Protector Lotion Lait Solaire Ultra Protection 50+; Ultra Sunscreen; Ultra-Light Hydrating Sunscreen SPF 50 Eau Thermale Avene; Ultra-fluid Body Milk Sun Protection SPF 15; Ultra-fluid Body Milk Sun Protection SPF 30; Ultra-fluid Protection SPF 20; Ultra-fluid Sun Protection SPF 30; Ultra-lift SPF 15; Ultra-light Lotion SPF 50; Ultra-light Moisturizing Lotion SPF 30; Ultra-light Refreshing Uv Lotion; Ultra-light Uv Lotion; Ultraquin 4% Hydroquinone Cream With Sunscreens; Ultrasol Kids; UltrasolSunscreen Clear CONTINUOUS SPRAY SPF43; UltrasolSunscreen KIDS Clear CONTINUOUS SPRAY; UltrasolSunscreen KIDS Sunscreen Lotion Continuous Spray SPF 45; UltrasolSunscreen KIDS Sunscreen Mousse; UltrasolSunscreen KIDS Sunscreen Spray Lotion SPF 30; UltrasolSunscreen Sport Clear CONTINUOUS SPRAY; UltrasolSunscreen Sport Sunscreen Lotion CONTINUOUS SPRAY SPF 45; UltrasolSunscreen Sunscreen Lotion Continuous Spray SPF 45; UltrasolSunscreen Sunscreen Lotion SPF 15; Uncomplikated Makeup Setting SPF 50; Uncomplikated SPF; Unicorn Snot 30 Glitter Sunscreen Blue; Unicorn Snot 30 Glitter Sunscreen Gold; Unicorn Snot 30 Glitter Sunscreen Love Shack; Unicorn Snot 30 Glitter Sunscreen Pink; Unicorn Snot 30 Glitter Sunscreen Space Junk; Unicorn Snot Bio 30 Glitter Sunscreen Love Shack; Unicorn Snot SPF 30 Bioglitter Sunscreen; United Spirit of America (Warrior) Broad Spectrum SPF 30; United Spirit of America (Warrior) Broad Spectrum SPF 50; United Spirit of America BROAD SPECTRUM SPF 30 Sunscreen; Universal Defense E; Unscented Body SPF 30 Broad Spectrum; Unseen Sunscreen; Unseen Sunscreen Body SPF 40; Unseen Sunscreen Broad Spectrum SPF 40; Up and Up Sport Sunscreen Broad Spectrum SPF 50; Urban Antioxidant Sunscreen SPF 40; Urban Decay Urban Defense Complexion Primer Broad Spectrum SPF 30; Urban Defense; Urban Environment Fresh - Moisture; Urban Environment Oil-free Uv Protector; Urban Environment Uv Protection Cream; Urban Legend Antioxidant Day Cream with Green Tea and Vitamin C Sunscreen Broad Spectrum SPF 30; Urban Outfitters Broad Spectrum SPF 30 Sunscreen; Urban Outfitters SPF 15 Broad Spectrum Sunscreen; Urban Outfitters Sunscreen Shimmer Broad Spectrum SPF 30; Urban Skin Defence; Uv 50 Ecran Multi-protection SPF 50; Uv 50 Ecran Teinté Multi-protection SPF 50; Uv Defense; Uv Expert SPF 15; Uv Lip Color Splash; Uv Lip Color Splash Touche Couleur Lèvres Protection Uv Tahiti Blue; Uv Lock Flower Daily Powerful Sun Spf50plus Pa Plus Plus Plus; Uv Lock Flower Mild Sun Spf35 Pa Plus Plus; Uv Pro Broad Spectrum SPF 45; Uv Protective Compact Foundation (refill); Uv+age Daily; VITAMIN E MOISTURE-PROTECT SPF 30 PA plus plus plus; Vacation Chardonnay Broad Spectrum SPF 30 Sunscreen; Vacation Classic Broad Spectrum SPF 30 Sunscreen; Vacation Lip Trips Desserts; Vacation Lip Trips Desserts After Dinner Mint; Vacation Lip Trips Desserts Bananas Foster; Vacation Lip Trips Desserts Bombe Alaska; Vacation Lip Trips Desserts Pineapple Upside Down Cake; Vacation Lip Trips Desserts Strawberry Jello; Vacation SPF 30 ClassicSpray; Vacation World Classic Whip SPF 30; Vanilla Lip Balm; Vanilla Mint Lip Balm; Vanilla Mint Lip SPF 30 Balm; Vanilla Mint SPF 15 Broad Spectrum Lip Balm; Vanilla SPF 15 Broad Spectrum Lip Balm; Vanilla SPF 15 Lip; Vanilla SPF 30 Broad Spectrum Lip Balm; Vaseline; Vaseline Intensive Care Aloe Fresh SPF 15; Vaseline Men plus Care Hydrate Face; Vaseline Total Moisture Aloe Fresh SPF 15; Vegan Collagen Every Day; Verdon Outdoor Moisturizer SPF 30; Vertra Element Resistance Daily Driver SPF30; Vertra Elemental Resistance Mick Fanning Signature SPF 28; Vertra Hawaiian Shaved Ice Pineapple SPF30; Vertra Lava Lava Hibiscus SPF30; Very Emollient Body Daily Shade SPF15; Vichy Laboratoire Capital Soleil SPF 30 Soft Sheer Sunscreen; Vichy Laboratoire Capital Soleil SPF 60 Soft Sheer Sunscreen; Vichy Laboratoires Aqualia Antiox Pro-Youth Anti-Oxidant 24Hr Hydrating Fluid SPF 12; Vichy Laboratoires Aqualia Thermal Sunscreen; Vichy Laboratoires Aqualia Thermal UV Defense Moisturizer Broad Spectrum SPF 30 Sunscreen; Vichy Laboratoires Capital Soleil 30 Broad Spectrum SPF 30 Sunscreen Luxurious Protective; Vichy Laboratoires Capital Soleil 30 Sunscreen Luxurious Protective; Vichy Laboratoires Capital Soleil 50 Daily AntiAging Face Sunscreen Broad Spectrum SPF 50 Water Resistant 80 Minutes; Vichy Laboratoires Capital Soleil 60 Daily AntiAging Face and Body Sunscreen Broad Spectrum SPF 60 Water Resistant 80 Minutes; Vichy Laboratoires Capital Soleil SPF 50 Ultra Light Sunscreen; Vichy Laboratoires Ideal Capital Soleil 45 Sunscreen Broad Spectrum SPF 45 Water Resistant 80 Minutes; Vichy Laboratoires Ideal Capital Soleil 50 Sunscreen Broad Spectrum SPF 50 Water Resistant 40 Minutes; Vichy Laboratoires Ideal Capital Soleil 60 Sunscreen Broad Spectrum SPF 60 Water Resistant 40 Minutes; Vichy Laboratoires Idealia Broad Spectrum SPF 25 Sunscreen BB; Vichy Laboratoires LiftActiv Retinol HA Total Anti-Wrinkle Daily Intervention SPF 18; Vichy Laboratoires Liftactiv Retinol HA Broad Spectrum SPF 18 Sunscreen; Vichy Laboratories Aqualia Thermal UV Defense SPF 30 Mineralizing Thermal Water Niacinamide Plant Sugar Vitamin E 48 hr Dynamic Hydration Oil free lightweight texture All skin types; Vichy Laboratories LiftActiv Peptide-C SPF 30 Phyto Peptides Vitamin C; Victorias Secret Pink Broad Spectrum SPF 25 Sunscreen Sunkissed; Victorias Secret Sun Broad Spectrum SPF 25; Villa Floriani Aloe Ultra-hydrating Day SPF 20; Villa Floriani Chamomile Calming Day SPF 20; Villa Floriani Mint Purifying Day SPF 20; Vincent Longo Ultra Light Canvas Tinted Moisturizer Broad Spectrum SPF 20 Sunscreen Shade 1; Vincent Longo Ultra Light Canvas Tinted Moisturizer Broad Spectrum SPF 20 Sunscreen Shade 2; Vincent Longo Ultra Light Canvas Tinted Moisturizer Broad Spectrum SPF 20 Sunscreen Shade 3; Vincent Longo Ultra Light Canvas Tinted Moisturizer Broad Spectrum SPF 20 Sunscreen Shade 4; Vincent Longo Ultra Light Canvas Tinted Moisturizer Broad Spectrum SPF 20 Sunscreen Shade 5; Vincent Longo Ultra Light Canvas Tinted Moisturizer Broad Spectrum SPF 20 Sunscreen Shade 6; Vinexpert Broad Spectrum SPF 15 Radiance Day; Vinexpert Broad Spectrum SPF 15 Radiance Day Fluid; Vinexpert Radiance Day Fluid SPF 10; Vinexpert Riche Radiance Day SPF 10; Vinoperfect Broad Spectrum SPF 15 Day Perfecting; Vinoperfect Broad Spectrum SPF 15 Day Perfecting Fluid; Vinoperfect Day Perfecting Fluid SPF 15; Vinoperfect Day Perfecting SPF 15; Vinoperfect Radiance Moisturizer Broad Spectrum SPF20; Visage Envy Facial Moisturizing SPF30; Visage Envy Invisible Face Gel SPF50; Visage Envy Remodeling Day Cream SPF15; Visage Pro Peach Fuzz; Visible Lift C.C. Cream SPF 20; Vita Lift SPF 15 Daily Moisturizer; Vital Sun Protection SPF 15; Vital Sun Protection SPF 30; Vital Sun Protection SPF 40; Vitamin C Brightening Facial Oil Stick; Vitamin C Brightening Facial Oil Stick SPF 30; Vitamin C Daily Moisturizer SPF 30; Vitamin C Glow-protect Lotion SPF 30; Vitamin C Glow-protect SPF 30; Vitamin C Suncare Broad Spectrum SPF 30 Sunscreen; Vitamin Cream C plus C; Vitamin E Lip Care SPF 15; Vitamin E Moisture-protect Emulsion SPF 30; Vitamin E Moisture-protect Lip Care; Vitamin E Moisture-protect Lip Care SPF 15; Vitamin E SPF15 Lip Balm; Vitamin Fluid CC; Vitazing Energy Boosting Moisturizer SPF 15; Vitazing SPF 15 Energy Boosting Moisturizer With Mangosteen Broad Spectrum SPF 15; Vivier Sheer SPF 45; Volu-firm Day Cream Sunscreen; Volu-firm Day Cream Sunscreen Broad Spectrum SPF 30; Volu-firm Day Cream With SPF 30; W Honey Beam Cushion 21; W Honey Beam Cushion 23; W Lab BLOSSOM WHITE CUSHION 13 Blossom White; W Lab BLOSSOM WHITE CUSHION 21 Blossom Light; W Lab BLOSSOM WHITE CUSHION 23 Blossom Beige; W.skin Triple Care Sun; Walg Sun Moist Spf30; Walg Sun Moist Spf50; Walg Sun Moisturizing SPF 50; Walgreen Clear Complexion; Walgreen Sport SPF 50; Walgreen Sport SPF 70 Sunscreen; Walgreens 7-in-1 Anti-Aging Vitamin Complex Broad Spectrum SPF 15 Sunscreen; Walgreens Advanced Anti-Wrinkle and Firming Day Cream Broad Spectrum SPF18 Sunscreen; Walgreens Anti-Sagging and Ultra Hydrating Day Broad Spectrum SPF15 Sunscreen; Walgreens Broad Spectrum SPF 110 Age Protection Sunscreen; Walgreens Broad Spectrum SPF 70 Sunscreen; Walgreens Broad Spectrum Sport SPF 50 Sunscreen; Walgreens Clear Face; Walgreens Dry Touch Broad Spectrum SPF 55; Walgreens Kids SPF 50; Walgreens SPF 30 Hydrating Continuous; Walgreens SPF 50 Clear Complexion Face Sunscreen; Walgreens SPF 50 Clear Complexion For Face; Walgreens SPF 50 Sport Faces; Walgreens SPF 55 Dry Touch; Walgreens SPF 55 Sheer Face Mist Sunscreen; Walgreens SPF 70 Sport Continuous; Walgreens SPF55 Sunscreen; Walgreens SPF55 Sunscreen Reef-Conscious Formula; Walgreens SUNSCREEN Clear Zinc Broad Spectrum SPF 50; Walgreens SUNSCREEN Sport Broad Spectrum SPF 30; Walgreens Scar Cream w/SPF 30; Walgreens Sport Broad Spectrum SPF 50 Faces Sunscreen; Walgreens Sport Continuous SPF 30; Walgreens Sport Faces SPF 30; Walgreens Sport SPF 30; Walgreens Sport SPF 50; Walgreens Sport SPF 50 Sunscreen; Walgreens Sun Kids SPF50; Walgreens Sunscreen Baby SPF 50; Walgreens Sunscreen Broad Spectrum SPF 30; Walgreens Sunscreen SPF 30; Walgreens Sunscreen SPF 50; Walgreens Sunscreen Sport SFP 70; Walgreens Sunscreen Sport SPF 30; Walgreens Sunscreen Sport SPF 50; Walgreens SunscreenSPF 45 SPF 45 SPF 45; Walgreens SunscreenSPF 70 SPF 70; Walgreens Wrinkle Repair Moisturizer SPF30; Walgreens Zinc SPF 50; Walgreens sunscreen Broad Spectrum SPF 15; Walgreens sunscreen Clear Zinc SPF50; Walmart Equate Beauty Ultra Light Sunscreen Broad Spectrum SPF 55; Walmart Equate Beauty Ultra Light Sunscreen SPF 100; Water Drench; Water Resistant Natural Lavender Sun Block SPF 30; Waterblock Solar SPF 30; Waterblock Solar Spray SPF 30; Waterbright Radiating; Waterful Sun; Waterguard Kids; Waterguard Kids Sunscreen Clear Spray; Watermans SPF 55; Watermelon Glow; Watermelon Glow Niacinamide Sunscreen; Watermelon Tanning Oil SPF 15; Watermelon Tanning Oil SPF 6; Watermelon Tanning Oil SPF15; Watermelon Tanning Oil SPF6; Watermelon Twist SPF 15 Broad Spectrum Lip Balm; Wegmans Sport Broad Spectrum SPF 70 Clear Continuous Sunscreen; Wegmans Sport Clear Continuous Sunscreen SPF 30; Weightless Protection; Weightless Protection SPF 45; Well at Walgreens Kids Sunscreen Broad Spectrum SPF 50; Well at Walgreens Mist Sheer Broad Spectrum Broad Spectrum SPF 30; Wellcare Sunstick 01; Wellcare Sunstick Lip Balm; Wellcare Sunstick Sunscreen Stick; Western FAMILY SPF 15; Western Family Baby Broad Spectrum Sunscreen SPF 50; Western Family Broad Spectrum Sunscreen SPF 70; Western Family Broad Spectrum SunscreenSPF 50 SPF 50; Western Family Oil Free Faces SPF 30; Western Family Sport Sunscreen SPF 30; Wet Guard Swim Humidity Sweat Sunscreen Lotion; Wet N Wild Juicy Lip Balm; Wet Skin Kids; Wet Skin SPF 30; Wet Skin SPF 45; Wet Skin SPF 60; Wet Skin Sunscreen Spray SPF 85; Wet Skin Swim Humidity Sweat Sunscreen Lotion; White Caviar Illuminating Hand SPF 15; White Caviar Illuminating Hand Sunscreen Broad Spectrum SPF 15; White Caviar Illuminating Hand Sunscreen Broad Spectrum SPF 15 La Prairie; White Girl Sunscreen; White Tea Tinted Moisturizer; Wildberry Lip Balm; Wildberry SPF 15 Broad Spectrum Lip Balm; With 6 SPF Sunscreen Uva/uvb Protection Self Tanning Ultra Natural Bronze Care; Wknd Underwater Sun Tan; Wknd Underwater Sun White; Wonder Glow Cream; Wonder Intensive BBCream 21 (Light); Wonderblur Immediate Skin Smoothing Finishing Broad Spectrum SPF30; Wrinkle Control Day Creme Broad Spectrum SPF 15; Wrinkle Corrector and Firming Moisturizer SPF 15; Wrinkle Expert Age Defense Uv Lotion; Wrinkle Repair Moisturizing Cc Cream SPF 30; Wrinkle Repair Moisturizing Cream SPF 30; XIELL Intensive Cell Recovery Sun Cream; XXL Demi Make Up SPF 50; XXL Sun Block SPF 50; YOUTH CORRIDOR Soothe and Defend SPF-30; Yadah Be My Cushion 21 Light Beige; Yadah Be My Cushion 23 Natural Beige; Yadah Oh My Sun Block; Yadah Oh My Sun Slush; Yanbal Sentiva Extracto Divino Youth Renewal Moisturizing SPF 20; Yerma Sun Essence; YourGoodSkin SPF 30 Anti-oxidant Day Sunscreen Broad Spectrum SPF 30; Youth Cell Day Broad Spectrum SPF-15 Sunscreen; Youth Code Day Cream SPF 30; Youth Code Day Lotion SPF 30; Youth Code Skin Illuminator Tinted; Youth Surge Age Decelerating Moisturizer SPF 15; Youth-enriched With Orchid; Yves Saint Laurent Forever Youth Liberator; Yves Saint Laurent Forever Youth Liberator Broad Spectrum SPF 15 Sunscreen Fluid; Yves Saint Laurent Forever Youth Liberator Sunscreen Broad Spectrum SPF 15 Antiwrinkle Lift Plump Radiance; ZERMAT Sunscreen Broad Spectrum SPF 50 For Daily Use Non-Water Resistant; ZERMAT Sunscreen SPF 50 For Daily Use; ZO SKIN HEALTH OCLIPSE SUN SPF 50 BROAD SPECTRUM SUNSCREEN SPF 50 FOR FACE PLUS BODY WATER/PERSPIRATION RESISTANT (80 minutes); ZO SKIN HEALTH OCLIPSE SUN SPF 50 BROAD SPECTRUM SUNSCREEN SPF 50 FOR FACE PLUS BODY WATER/PERSPIRATION RESISTANT (80 minutes) UVA / UVB / HEV / IR-A PROTECTION ZOX12; ZO Skin Health Smart Tone Broad-Spectrum Sunscreen SPF 50; Zinka Lip Protector SPF 30 Lip Balm; Zinka SPF 30 Clear Sunscreen; Zinka SPF 50 Facestick; Zirh Defend Repairing SPF15 Moisturizer; Zo Skin Health Oclipse Daily Sheer Broad-spectrum Sunscreen SPF 50; Zrii New Day Broad Spectrum SPF-30; ac care Bees Sun Protection Broad Spectrum SPF 50; ageLOC Elements; ageLOC Transformation; b.tan Beach Please SPF 7; b.tan SPF is Your BFF SPF 30; b.tan Sun Safe AF Face SPF 70; b.tan Sun Safe AF SPF 50; b.tan Tropic Like Its Hot SPF 15; belif The true cream aqua bomb sunscreen Broad Spectrum SPF 50; bioCorneum plus SPF 30 advanced SCAR SUPERVISION; bu SPF 30 Broad Spectrum Alcohol-Free Performance Sunscreen - Natural Citrus Scent; bu SPF 30 Broad Spectrum Alcohol-Free Performance Sunscreen - Natural White Sage Scent; bu SPF 30 Broad Spectrum on Alcohol-Free Performance Sunscreen - Fragrance Free; bu SPF 50 Broad Spectrum on Alcohol-Free Performance Sunscreen - Fragrance Free; bu SPF 50 KIDS Broad Spectrum Alcohol-Free Performance Sunscreen - Fragrance Free; bu SPF 50 S Broad Spectrum Alcohol-Free Performance Sunscreen - Natural White Sage Scent; callyssee Beauty Faceguard Skin Protecting Facial Balm; cle de peau BEAUTE BRIGHTENING ENHANCER VEIL; cle de peau BEAUTE LONG-LASTING HYDRATING VEIL; color correcting swirl foundation broad spectrum SPF 25 LIGHT; color correcting swirl foundation broad spectrum SPF 25 MEDIUM; color correcting swirl foundation broad spectrum SPF 25 TAN; coppertone sport Sunscreen SPF 30; correcting cream Broad Spectrum SPF 15 asap; delilah Time Frame Future Resist Foundation Broad Spectrum SPF 20 Sunscreen Foundation Truffle; e.l.f Whoa Glow Broad Spectrum SPF30 Sunscreen; e.l.f. Holy Hydration Face Cream SPF 30 Sunscreen; emilia Naked Sun; emilia Naked Sun Body Gel SPF30; emilia Naked Sun SPF 50 Invisible Face Gel; enfuselle BODY SUNSCREEN BROAD SPECTRUM SPF 30; eos Active with Aloe SPF 30 Sunscreen Lip Balm; equate Age Guard Face Broad Spectrum SPF 110 Sunscreen; equate Daily Facial Moisturizer Broad Spectrum Sunscreen; equate SPORT Sunscreen Broad Spectrum; flormar ADVICE Skin Geometry Day Sunscreen Broad Spectrum SPF 15; flormar ADVICE Skin Geometry Purely Moisturizing Day Sunscreen Broad Spectrum SPF 15 Dry and Sensitive Skin; flormar ADVICE Skin Geometry Purely Moisturizing Day Sunscreen Broad Spectrum SPF 15 Normal and Combination Skin; hello, sunshine moisturizer Broad Spectrum SPF 30 sunscreen; innisfree Matte Priming UV Shield Sunscreen; intense UV protection emulsion; keras day shield broad spectrum SPF 25; laura mercier Tinted Moisturizer Creme Compact Broad Spectrum SPF 20 Sunscreen ALMOND; laura mercier Tinted Moisturizer Creme Compact Broad Spectrum SPF 20 Sunscreen BISQUE; laura mercier Tinted Moisturizer Creme Compact Broad Spectrum SPF 20 Sunscreen BLUSH; laura mercier Tinted Moisturizer Creme Compact Broad Spectrum SPF 20 Sunscreen CARAMEL; laura mercier Tinted Moisturizer Creme Compact Broad Spectrum SPF 20 Sunscreen FAWN; laura mercier Tinted Moisturizer Creme Compact Broad Spectrum SPF 20 Sunscreen MOCHA; laura mercier Tinted Moisturizer Creme Compact Broad Spectrum SPF 20 Sunscreen NUDE; laura mercier Tinted Moisturizer Creme Compact Broad Spectrum SPF 20 Sunscreen PORCELAIN; laura mercier Tinted Moisturizer Creme Compact Broad Spectrum SPF 20 Sunscreen SAND; laura mercier Tinted Moisturizer Creme Compact Broad Spectrum SPF 20 Sunscreen TAN; laura mercier Tinted Moisturizer Creme Compact Broad Spectrum SPF 20 Sunscreen TAWNY; laura mercier Tinted Moisturizer Creme Compact Broad Spectrum SPF 20 Sunscreen WALNUT; meijer Baby Tear Free SPF 50 CS; mesoestetic DERMATOLOGICAL SUN PROTECTION BROAD SPECTRUM; nanocare Moisturizing Sunscreen SPF 50; perfect truth cc broad spectrum SPF 30 sunscreen Ole Henriksen; perfect truth cc eye broad spectrum SPF 15 OleHenriksen; retrospect day shield broad spectrum SPF 25; shu uemura UV under base mousse SPF 30 sunscreen; skin elements liquid veil foundation broad spectrum SPF 25 DEEP; skin elements liquid veil foundation broad spectrum SPF 25 GOLDEN MEDIUM; skin elements liquid veil foundation broad spectrum SPF 25 LIGHT; skin elements liquid veil foundation broad spectrum SPF 25 MEDIUM; skin elements liquid veil foundation broad spectrum SPF 25 PORCELAIN; skin elements liquid veil foundation broad spectrum SPF 25 TAN; stila CC color correcting broad-spectrum SPF 20 01 FAIR; stila CC color correcting broad-spectrum SPF 20 02 LIGHT; stila CC color correcting broad-spectrum SPF 20 03 TONE; stila CC color correcting broad-spectrum SPF 20 04 MEDIUM; stila CC color correcting broad-spectrum SPF 20 05 RICH MEDIUM; stila CC color correcting broad-spectrum SPF 20 06 WARM; stila CC color correcting broad-spectrum SPF 20 07 DARK; stila CC color correcting broad-spectrum SPF 20 08 TAN; zermat Wake Up CC Moisturizing Facial with Color Sunscreen Broad Spectrum SPF 30; Écran Solaire Fps 10; Émulsion Hydratante Visage Fps 30

$$$$
