
  Mrv1572010231512242D          

 43 47  0  0  0  0            999 V2000
   -6.2857   -1.8369    0.0000 Cl  0  0  0  0  0  0  0  0  0  0  0  0
   -0.8507   -1.1695    0.0000 O   0  0  0  0  0  0  0  0  0  0  0  0
   -0.8507   -2.5043    0.0000 O   0  0  0  0  0  0  0  0  0  0  0  0
    1.3549   -1.2751    0.0000 O   0  0  0  0  0  0  0  0  0  0  0  0
    1.9361    0.0302    0.0000 O   0  0  0  0  0  0  0  0  0  0  0  0
    5.6182   -0.8269    0.0000 O   0  0  0  0  0  0  0  0  0  0  0  0
    4.7783    0.3290    0.0000 O   0  0  0  0  0  0  0  0  0  0  0  0
    4.5196    2.7904    0.0000 O   0  5  0  0  0  0  0  0  0  0  0  0
    5.3595    1.6344    0.0000 O   0  0  0  0  0  0  0  0  0  0  0  0
   -2.9857   -1.8369    0.0000 N   0  0  0  0  0  0  0  0  0  0  0  0
    3.6159   -2.2817    0.0000 N   0  0  0  0  0  0  0  0  0  0  0  0
    4.6059    1.9700    0.0000 N   0  3  0  0  0  0  0  0  0  0  0  0
   -1.3357   -1.8369    0.0000 C   0  0  0  0  0  0  0  0  0  0  0  0
   -1.7482   -1.1224    0.0000 C   0  0  0  0  0  0  0  0  0  0  0  0
   -1.7482   -2.5514    0.0000 C   0  0  0  0  0  0  0  0  0  0  0  0
   -2.5732   -1.1224    0.0000 C   0  0  0  0  0  0  0  0  0  0  0  0
   -2.5732   -2.5514    0.0000 C   0  0  0  0  0  0  0  0  0  0  0  0
   -0.0662   -1.4244    0.0000 C   0  0  0  0  0  0  0  0  0  0  0  0
   -0.0662   -2.2494    0.0000 C   0  0  0  0  0  0  0  0  0  0  0  0
    0.6013   -0.9395    0.0000 C   0  0  0  0  0  0  0  0  0  0  0  0
   -3.8107   -1.8369    0.0000 C   0  0  0  0  0  0  0  0  0  0  0  0
   -4.2232   -1.1224    0.0000 C   0  0  0  0  0  0  0  0  0  0  0  0
   -4.2232   -2.5514    0.0000 C   0  0  0  0  0  0  0  0  0  0  0  0
    3.4435   -0.6407    0.0000 C   0  0  0  0  0  0  0  0  0  0  0  0
    2.7760   -1.1257    0.0000 C   0  0  0  0  0  0  0  0  0  0  0  0
    2.0223   -0.7901    0.0000 C   0  0  0  0  0  0  0  0  0  0  0  0
   -5.0482   -1.1224    0.0000 C   0  0  0  0  0  0  0  0  0  0  0  0
   -5.0482   -2.5514    0.0000 C   0  0  0  0  0  0  0  0  0  0  0  0
    4.1971   -0.9763    0.0000 C   0  0  0  0  0  0  0  0  0  0  0  0
    2.8622   -1.9462    0.0000 C   0  0  0  0  0  0  0  0  0  0  0  0
    3.3572    0.1796    0.0000 C   0  0  0  0  0  0  0  0  0  0  0  0
   -5.4607   -1.8369    0.0000 C   0  0  0  0  0  0  0  0  0  0  0  0
    4.2834   -1.7968    0.0000 C   0  0  0  0  0  0  0  0  0  0  0  0
    2.1948   -2.4311    0.0000 C   0  0  0  0  0  0  0  0  0  0  0  0
    4.0247    0.6646    0.0000 C   0  0  0  0  0  0  0  0  0  0  0  0
    2.6035    0.5152    0.0000 C   0  0  0  0  0  0  0  0  0  0  0  0
    4.8645   -0.4914    0.0000 C   0  0  0  0  0  0  0  0  0  0  0  0
    5.0370   -2.1323    0.0000 C   0  0  0  0  0  0  0  0  0  0  0  0
    3.9384    1.4850    0.0000 C   0  0  0  0  0  0  0  0  0  0  0  0
    2.5173    1.3356    0.0000 C   0  0  0  0  0  0  0  0  0  0  0  0
    3.1847    1.8206    0.0000 C   0  0  0  0  0  0  0  0  0  0  0  0
    6.2857   -0.3420    0.0000 C   0  0  0  0  0  0  0  0  0  0  0  0
    3.6693   -2.7904    0.0000 H   0  0  0  0  0  0  0  0  0  0  0  0
  1 32  1  0  0  0  0
  2 13  1  0  0  0  0
  2 18  1  0  0  0  0
  3 13  1  0  0  0  0
  3 19  1  0  0  0  0
  4 20  1  0  0  0  0
  4 26  1  0  0  0  0
  5 26  2  0  0  0  0
  6 37  1  0  0  0  0
  6 42  1  0  0  0  0
  7 37  2  0  0  0  0
  8 12  1  0  0  0  0
  9 12  2  0  0  0  0
 10 16  1  0  0  0  0
 10 17  1  0  0  0  0
 10 21  1  0  0  0  0
 11 30  1  0  0  0  0
 11 33  1  0  0  0  0
 11 43  1  0  0  0  0
 12 39  1  0  0  0  0
 13 14  1  0  0  0  0
 13 15  1  0  0  0  0
 14 16  1  0  0  0  0
 15 17  1  0  0  0  0
 18 19  1  0  0  0  0
 18 20  1  0  0  0  0
 21 22  2  0  0  0  0
 21 23  1  0  0  0  0
 22 27  1  0  0  0  0
 23 28  2  0  0  0  0
 24 25  1  0  0  0  0
 24 29  1  0  0  0  0
 24 31  1  0  0  0  0
 25 26  1  0  0  0  0
 25 30  2  0  0  0  0
 27 32  2  0  0  0  0
 28 32  1  0  0  0  0
 29 33  2  0  0  0  0
 29 37  1  0  0  0  0
 30 34  1  0  0  0  0
 31 35  2  0  0  0  0
 31 36  1  0  0  0  0
 33 38  1  0  0  0  0
 35 39  1  0  0  0  0
 36 40  2  0  0  0  0
 39 41  2  0  0  0  0
 40 41  1  0  0  0  0
M  CHG  2   8  -1  12   1
M  END
> <DATABASE_ID>
DB09233

> <DATABASE_NAME>
drugbank

> <SMILES>
[H]N1C(C)=C(C(C2=CC(=CC=C2)[N+]([O-])=O)C(C(=O)OCC2COC3(CCN(CC3)C3=CC=C(Cl)C=C3)O2)=C1C)C(=O)OC

> <INCHI_IDENTIFIER>
InChI=1S/C30H32ClN3O8/c1-18-25(28(35)39-3)27(20-5-4-6-23(15-20)34(37)38)26(19(2)32-18)29(36)40-16-24-17-41-30(42-24)11-13-33(14-12-30)22-9-7-21(31)8-10-22/h4-10,15,24,27,32H,11-14,16-17H2,1-3H3

> <INCHI_KEY>
CNIJVNPIIHWRRP-UHFFFAOYSA-N

> <FORMULA>
C30H32ClN3O8

> <MOLECULAR_WEIGHT>
598.05

> <EXACT_MASS>
597.1877927

> <JCHEM_ACCEPTOR_COUNT>
8

> <JCHEM_ATOM_COUNT>
74

> <JCHEM_AVERAGE_POLARIZABILITY>
60.77591345914669

> <JCHEM_BIOAVAILABILITY>
0

> <JCHEM_DONOR_COUNT>
1

> <JCHEM_FORMAL_CHARGE>
0

> <JCHEM_GHOSE_FILTER>
0

> <JCHEM_IUPAC>
3-[8-(4-chlorophenyl)-1,4-dioxa-8-azaspiro[4.5]decan-2-yl]methyl 5-methyl 2,6-dimethyl-4-(3-nitrophenyl)-1,4-dihydropyridine-3,5-dicarboxylate

> <ALOGPS_LOGP>
4.72

> <JCHEM_LOGP>
5.052861138333334

> <ALOGPS_LOGS>
-5.18

> <JCHEM_MDDR_LIKE_RULE>
1

> <JCHEM_NUMBER_OF_RINGS>
5

> <JCHEM_PHYSIOLOGICAL_CHARGE>
0

> <JCHEM_PKA_STRONGEST_ACIDIC>
19.46753069661843

> <JCHEM_PKA_STRONGEST_BASIC>
3.68663898975635

> <JCHEM_POLAR_SURFACE_AREA>
129.47

> <JCHEM_REFRACTIVITY>
156.05089999999998

> <JCHEM_ROTATABLE_BOND_COUNT>
9

> <JCHEM_RULE_OF_FIVE>
0

> <ALOGPS_SOLUBILITY>
3.97e-03 g/l

> <JCHEM_TRADITIONAL_IUPAC>
3-[8-(4-chlorophenyl)-1,4-dioxa-8-azaspiro[4.5]decan-2-yl]methyl 5-methyl 2,6-dimethyl-4-(3-nitrophenyl)-1,4-dihydropyridine-3,5-dicarboxylate

> <JCHEM_VEBER_RULE>
0

> <DRUGBANK_ID>
DB09233

> <DRUG_GROUPS>
experimental

> <GENERIC_NAME>
Cronidipine

> <SYNONYMS>
Cronidipine

$$$$
