
  Mrv1909 05201914432D          

 23 22  0  0  0  0            999 V2000
   -1.2888    7.5059    0.0000 C   0  0  0  0  0  0  0  0  0  0  0  0
   -0.5743    7.0934    0.0000 C   0  0  0  0  0  0  0  0  0  0  0  0
   -0.5743    6.2684    0.0000 C   0  0  0  0  0  0  0  0  0  0  0  0
    0.1401    5.8559    0.0000 C   0  0  0  0  0  0  0  0  0  0  0  0
    0.1401    5.0309    0.0000 C   0  0  0  0  0  0  0  0  0  0  0  0
    0.8546    4.6184    0.0000 C   0  0  0  0  0  0  0  0  0  0  0  0
    0.8546    3.7934    0.0000 C   0  0  0  0  0  0  0  0  0  0  0  0
    1.5691    3.3809    0.0000 C   0  0  0  0  0  0  0  0  0  0  0  0
    1.5691    2.5559    0.0000 C   0  0  0  0  0  0  0  0  0  0  0  0
    2.2836    2.1434    0.0000 C   0  0  0  0  0  0  0  0  0  0  0  0
    2.9980    2.5559    0.0000 C   0  0  0  0  0  0  0  0  0  0  0  0
    3.7125    2.1434    0.0000 C   0  0  0  0  0  0  0  0  0  0  0  0
    4.4270    2.5559    0.0000 C   0  0  0  0  0  0  0  0  0  0  0  0
    5.1414    2.1434    0.0000 C   0  0  0  0  0  0  0  0  0  0  0  0
    5.8559    2.5559    0.0000 C   0  0  0  0  0  0  0  0  0  0  0  0
    6.5704    2.1434    0.0000 C   0  0  0  0  0  0  0  0  0  0  0  0
    7.2849    2.5559    0.0000 C   0  0  0  0  0  0  0  0  0  0  0  0
    7.9993    2.1434    0.0000 C   0  0  0  0  0  0  0  0  0  0  0  0
    8.7138    2.5559    0.0000 O   0  0  0  0  0  0  0  0  0  0  0  0
    7.9993    1.3184    0.0000 O   0  0  0  0  0  0  0  0  0  0  0  0
    0.8546    2.1434    0.0000 N   0  3  0  0  0  0  0  0  0  0  0  0
    0.8546    1.3184    0.0000 O   0  5  0  0  0  0  0  0  0  0  0  0
    0.1401    2.5559    0.0000 O   0  0  0  0  0  0  0  0  0  0  0  0
  1  2  1  0  0  0  0
  2  3  1  0  0  0  0
  3  4  1  0  0  0  0
  4  5  1  0  0  0  0
  5  6  1  0  0  0  0
  6  7  1  0  0  0  0
  7  8  1  0  0  0  0
  8  9  1  0  0  0  0
  9 10  2  0  0  0  0
 10 11  1  0  0  0  0
 11 12  1  0  0  0  0
 12 13  1  0  0  0  0
 13 14  1  0  0  0  0
 14 15  1  0  0  0  0
 15 16  1  0  0  0  0
 16 17  1  0  0  0  0
 17 18  1  0  0  0  0
 18 19  1  0  0  0  0
 18 20  2  0  0  0  0
  9 21  1  0  0  0  0
 21 22  1  0  0  0  0
 21 23  2  0  0  0  0
M  CHG  2  21   1  22  -1
M  END
> <DATABASE_ID>
DB15026

> <DATABASE_NAME>
drugbank

> <SMILES>
CCCCCCCC\C(=C/CCCCCCCC(O)=O)[N+]([O-])=O

> <INCHI_IDENTIFIER>
InChI=1S/C18H33NO4/c1-2-3-4-5-8-11-14-17(19(22)23)15-12-9-6-7-10-13-16-18(20)21/h15H,2-14,16H2,1H3,(H,20,21)/b17-15+

> <INCHI_KEY>
WRADPCFZZWXOTI-BMRADRMJSA-N

> <FORMULA>
C18H33NO4

> <MOLECULAR_WEIGHT>
327.465

> <EXACT_MASS>
327.240958547

> <JCHEM_ACCEPTOR_COUNT>
4

> <JCHEM_ATOM_COUNT>
56

> <JCHEM_AVERAGE_POLARIZABILITY>
39.05931654664693

> <JCHEM_BIOAVAILABILITY>
0

> <JCHEM_DONOR_COUNT>
1

> <JCHEM_FORMAL_CHARGE>
0

> <JCHEM_GHOSE_FILTER>
0

> <JCHEM_IUPAC>
(9E)-10-nitrooctadec-9-enoic acid

> <ALOGPS_LOGP>
5.26

> <JCHEM_LOGP>
5.974156689333332

> <ALOGPS_LOGS>
-5.63

> <JCHEM_MDDR_LIKE_RULE>
0

> <JCHEM_NUMBER_OF_RINGS>
0

> <JCHEM_PHYSIOLOGICAL_CHARGE>
-1

> <JCHEM_PKA_STRONGEST_ACIDIC>
4.988167283903808

> <JCHEM_POLAR_SURFACE_AREA>
80.44

> <JCHEM_REFRACTIVITY>
92.77059999999999

> <JCHEM_ROTATABLE_BOND_COUNT>
16

> <JCHEM_RULE_OF_FIVE>
0

> <ALOGPS_SOLUBILITY>
7.74e-04 g/l

> <JCHEM_TRADITIONAL_IUPAC>
(2R)-14-fluoro-2-methyl-6,9,10,19-tetraazapentacyclo[14.2.1.0^{2,6}.0^{8,18}.0^{12,17}]nonadeca-1(18),8,12(17),13,15-pentaen-11-one

> <JCHEM_VEBER_RULE>
0

> <DRUGBANK_ID>
DB15026

> <DRUG_GROUPS>
investigational

> <GENERIC_NAME>
CXA-10

$$$$
