
  Mrv1718010311713322D          

 12 12  0  0  0  0            999 V2000
    0.3572   -0.4125    0.0000 C   0  0  1  0  0  0  0  0  0  0  0  0
    0.3572   -1.2374    0.0000 O   0  0  0  0  0  0  0  0  0  0  0  0
   -0.3572    0.0000    0.0000 C   0  0  2  0  0  0  0  0  0  0  0  0
   -1.0716   -0.4125    0.0000 O   0  0  0  0  0  0  0  0  0  0  0  0
   -0.3572    0.8250    0.0000 C   0  0  2  0  0  0  0  0  0  0  0  0
    1.0717    0.8250    0.0000 C   0  0  1  0  0  0  0  0  0  0  0  0
    1.7861    1.2374    0.0000 O   0  0  0  0  0  0  0  0  0  0  0  0
    0.3572    1.2374    0.0000 O   0  0  0  0  0  0  0  0  0  0  0  0
    1.0717    0.0000    0.0000 C   0  0  1  0  0  0  0  0  0  0  0  0
   -1.0716    1.2374    0.0000 C   0  0  0  0  0  0  0  0  0  0  0  0
   -1.7862    0.8250    0.0000 O   0  0  0  0  0  0  0  0  0  0  0  0
    1.7862   -0.4125    0.0000 F   0  0  0  0  0  0  0  0  0  0  0  0
  3  5  1  0  0  0  0
  5  8  1  0  0  0  0
  1  3  1  0  0  0  0
  6  8  1  0  0  0  0
  9  1  1  0  0  0  0
  6  9  1  0  0  0  0
  1  2  1  1  0  0  0
  3  4  1  6  0  0  0
  5 10  1  1  0  0  0
  6  7  1  6  0  0  0
  9 12  1  1  0  0  0
 10 11  1  0  0  0  0
M  END
> <DATABASE_ID>
DB04084

> <DATABASE_NAME>
drugbank

> <SMILES>
OC[C@H]1O[C@H](O)[C@@H](F)[C@@H](O)[C@@H]1O

> <INCHI_IDENTIFIER>
InChI=1S/C6H11FO5/c7-3-5(10)4(9)2(1-8)12-6(3)11/h2-6,8-11H,1H2/t2-,3+,4-,5-,6+/m1/s1

> <INCHI_KEY>
ZCXUVYAZINUVJD-RXRWUWDJSA-N

> <FORMULA>
C6H11FO5

> <MOLECULAR_WEIGHT>
182.147

> <EXACT_MASS>
182.059051617

> <JCHEM_ACCEPTOR_COUNT>
5

> <JCHEM_ATOM_COUNT>
23

> <JCHEM_AVERAGE_POLARIZABILITY>
15.298468673944186

> <JCHEM_BIOAVAILABILITY>
1

> <JCHEM_DONOR_COUNT>
4

> <JCHEM_FORMAL_CHARGE>
0

> <JCHEM_GHOSE_FILTER>
0

> <JCHEM_IUPAC>
(2S,3S,4S,5S,6R)-3-fluoro-6-(hydroxymethyl)oxane-2,4,5-triol

> <ALOGPS_LOGP>
-1.86

> <JCHEM_LOGP>
-2.041447444

> <ALOGPS_LOGS>
0.15

> <JCHEM_MDDR_LIKE_RULE>
0

> <JCHEM_NUMBER_OF_RINGS>
1

> <JCHEM_PHYSIOLOGICAL_CHARGE>
0

> <JCHEM_PKA>
12.61929948604601

> <JCHEM_PKA_STRONGEST_ACIDIC>
11.021988699609969

> <JCHEM_PKA_STRONGEST_BASIC>
-2.9810913523790887

> <JCHEM_POLAR_SURFACE_AREA>
90.15

> <JCHEM_REFRACTIVITY>
34.2313

> <JCHEM_ROTATABLE_BOND_COUNT>
1

> <JCHEM_RULE_OF_FIVE>
1

> <ALOGPS_SOLUBILITY>
2.57e+02 g/l

> <JCHEM_TRADITIONAL_IUPAC>
2-deoxy-2-fluoro-α-D-mannose

> <JCHEM_VEBER_RULE>
0

> <DRUGBANK_ID>
DB04084

> <SECONDARY_ACCESSION_NUMBERS>
EXPT02107

> <DRUG_GROUPS>
experimental

> <GENERIC_NAME>
2-deoxy-2-fluoro-α-D-mannose

> <SYNONYMS>
2-deoxy-2-fluoro-alpha-D-mannose

$$$$
