
  Mrv1909 03112117352D          

 37 41  0  0  0  0            999 V2000
   -4.5177   -0.0847    0.0000 C   0  0  0  0  0  0  0  0  0  0  0  0
   -3.8031    0.3275    0.0000 C   0  0  0  0  0  0  0  0  0  0  0  0
   -3.0911   -0.0843    0.0000 C   0  0  0  0  0  0  0  0  0  0  0  0
   -3.0911   -0.9096    0.0000 C   0  0  0  0  0  0  0  0  0  0  0  0
   -3.8013   -1.3214    0.0000 C   0  0  0  0  0  0  0  0  0  0  0  0
   -4.5177   -0.9133    0.0000 C   0  0  0  0  0  0  0  0  0  0  0  0
   -3.6313    1.1319    0.0000 N   0  0  0  0  0  0  0  0  0  0  0  0
   -2.4794    0.4655    0.0000 C   0  0  0  0  0  0  0  0  0  0  0  0
   -2.8132    1.2171    0.0000 N   0  0  0  0  0  0  0  0  0  0  0  0
   -1.6543    0.4655    0.0000 C   0  0  0  0  0  0  0  0  0  0  0  0
   -1.2418   -0.2490    0.0000 C   0  0  0  0  0  0  0  0  0  0  0  0
   -0.4168   -0.2490    0.0000 C   0  0  0  0  0  0  0  0  0  0  0  0
   -0.0040    0.4654    0.0000 C   0  0  0  0  0  0  0  0  0  0  0  0
    0.8185    0.4646    0.0000 C   0  0  0  0  0  0  0  0  0  0  0  0
    1.2310   -0.2500    0.0000 C   0  0  0  0  0  0  0  0  0  0  0  0
    0.8220   -0.9618    0.0000 C   0  0  0  0  0  0  0  0  0  0  0  0
   -0.0024   -0.9665    0.0000 C   0  0  0  0  0  0  0  0  0  0  0  0
   -0.4150   -1.6811    0.0000 N   0  0  0  0  0  0  0  0  0  0  0  0
   -1.2401   -1.6811    0.0000 C   0  0  0  0  0  0  0  0  0  0  0  0
   -1.6525   -2.3956    0.0000 C   0  0  0  0  0  0  0  0  0  0  0  0
   -2.4726   -2.4818    0.0000 S   0  0  0  0  0  0  0  0  0  0  0  0
   -2.6441   -3.2884    0.0000 C   0  0  0  0  0  0  0  0  0  0  0  0
   -1.9299   -3.7007    0.0000 C   0  0  0  0  0  0  0  0  0  0  0  0
   -1.3172   -3.1489    0.0000 C   0  0  0  0  0  0  0  0  0  0  0  0
   -0.5202   -3.3625    0.0000 C   0  0  0  0  0  0  0  0  0  0  0  0
    2.0561   -0.2500    0.0000 C   0  0  0  0  0  0  0  0  0  0  0  0
    2.4687    0.4644    0.0000 N   0  0  0  0  0  0  0  0  0  0  0  0
    2.0561    1.1788    0.0000 C   0  0  0  0  0  0  0  0  0  0  0  0
    2.4687    1.8933    0.0000 C   0  0  0  0  0  0  0  0  0  0  0  0
    3.2937    1.8933    0.0000 N   0  0  0  0  0  0  0  0  0  0  0  0
    3.7062    1.1788    0.0000 C   0  0  0  0  0  0  0  0  0  0  0  0
    3.2937    0.4644    0.0000 C   0  0  0  0  0  0  0  0  0  0  0  0
    3.5073    2.6902    0.0000 C   0  0  0  0  0  0  0  0  0  0  0  0
    4.3041    2.9039    0.0000 C   0  0  0  0  0  0  0  0  0  0  0  0
    4.5177    3.7007    0.0000 O   0  0  0  0  0  0  0  0  0  0  0  0
    2.9239    3.2737    0.0000 O   0  0  0  0  0  0  0  0  0  0  0  0
   -1.6525   -0.9665    0.0000 O   0  0  0  0  0  0  0  0  0  0  0  0
  2  1  2  0  0  0  0
  3  2  1  0  0  0  0
  4  3  2  0  0  0  0
  5  4  1  0  0  0  0
  1  6  1  0  0  0  0
  6  5  2  0  0  0  0
  2  7  1  0  0  0  0
  3  8  1  0  0  0  0
  8  9  2  0  0  0  0
  9  7  1  0  0  0  0
  8 10  1  0  0  0  0
 10 11  2  0  0  0  0
 11 12  1  0  0  0  0
 13 12  2  0  0  0  0
 14 13  1  0  0  0  0
 15 14  2  0  0  0  0
 16 15  1  0  0  0  0
 17 16  2  0  0  0  0
 12 17  1  0  0  0  0
 17 18  1  0  0  0  0
 18 19  1  0  0  0  0
 19 20  1  0  0  0  0
 21 20  1  0  0  0  0
 21 22  1  0  0  0  0
 22 23  2  0  0  0  0
 23 24  1  0  0  0  0
 24 20  2  0  0  0  0
 24 25  1  0  0  0  0
 15 26  1  0  0  0  0
 26 27  1  0  0  0  0
 28 27  1  0  0  0  0
 29 28  1  0  0  0  0
 30 29  1  0  0  0  0
 31 30  1  0  0  0  0
 32 31  1  0  0  0  0
 27 32  1  0  0  0  0
 30 33  1  0  0  0  0
 33 34  1  0  0  0  0
 34 35  1  0  0  0  0
 33 36  2  0  0  0  0
 19 37  2  0  0  0  0
M  END
> <DATABASE_ID>
DB16637

> <DATABASE_NAME>
drugbank

> <SMILES>
CC1=C(SC=C1)C(=O)NC1=CC(CN2CCN(CC2)C(=O)CO)=CC=C1\C=C\C1=NNC2=CC=CC=C12

> <INCHI_IDENTIFIER>
InChI=1S/C28H29N5O3S/c1-19-10-15-37-27(19)28(36)29-25-16-20(17-32-11-13-33(14-12-32)26(35)18-34)6-7-21(25)8-9-24-22-4-2-3-5-23(22)30-31-24/h2-10,15-16,34H,11-14,17-18H2,1H3,(H,29,36)(H,30,31)/b9-8+

> <INCHI_KEY>
HHCSNTXVZDWIGT-CMDGGOBGSA-N

> <FORMULA>
C28H29N5O3S

> <MOLECULAR_WEIGHT>
515.63

> <EXACT_MASS>
515.199110988

> <JCHEM_ACCEPTOR_COUNT>
5

> <JCHEM_ATOM_COUNT>
66

> <JCHEM_AVERAGE_NEUTRAL_MICROSPECIES_CHARGE>
1.986716507850311

> <JCHEM_AVERAGE_POLARIZABILITY>
57.16995492459348

> <JCHEM_BIOAVAILABILITY>
1

> <JCHEM_DONOR_COUNT>
3

> <JCHEM_FORMAL_CHARGE>
0

> <JCHEM_GHOSE_FILTER>
0

> <JCHEM_IUPAC>
N-(5-{[4-(2-hydroxyacetyl)piperazin-1-yl]methyl}-2-[(1E)-2-(1H-indazol-3-yl)ethenyl]phenyl)-3-methylthiophene-2-carboxamide

> <JCHEM_LOGP>
3.586160037333334

> <JCHEM_MDDR_LIKE_RULE>
1

> <JCHEM_NEUTRAL_CHARGE>
0

> <JCHEM_NUMBER_OF_RINGS>
5

> <JCHEM_PHYSIOLOGICAL_CHARGE>
0

> <JCHEM_PKA>
14.007392003175957

> <JCHEM_PKA_STRONGEST_ACIDIC>
13.421157856420272

> <JCHEM_PKA_STRONGEST_BASIC>
6.249613452458211

> <JCHEM_POLAR_SURFACE_AREA>
101.56

> <JCHEM_REFRACTIVITY>
149.1116

> <JCHEM_ROTATABLE_BOND_COUNT>
7

> <JCHEM_RULE_OF_FIVE>
0

> <JCHEM_TRADITIONAL_IUPAC>
N-(5-{[4-(2-hydroxyacetyl)piperazin-1-yl]methyl}-2-[(1E)-2-(1H-indazol-3-yl)ethenyl]phenyl)-3-methylthiophene-2-carboxamide

> <JCHEM_VEBER_RULE>
0

> <DRUGBANK_ID>
DB16637

> <DRUG_GROUPS>
experimental

> <GENERIC_NAME>
KW-2450 free base

> <SALTS>
KW-2450

$$$$
