
  Mrv1909 12152018172D          

 84 91  0  0  1  0            999 V2000
  -11.3248   -1.0098    0.0000 C   0  0  0  0  0  0  0  0  0  0  0  0
  -10.6104   -1.4223    0.0000 C   0  0  0  0  0  0  0  0  0  0  0  0
   -9.8959   -1.0098    0.0000 C   0  0  0  0  0  0  0  0  0  0  0  0
  -10.6104   -2.2473    0.0000 N   0  0  0  0  0  0  0  0  0  0  0  0
   -9.9429   -2.7322    0.0000 C   0  0  0  0  0  0  0  0  0  0  0  0
   -9.1583   -2.4773    0.0000 C   0  0  0  0  0  0  0  0  0  0  0  0
  -10.1979   -3.5169    0.0000 C   0  0  0  0  0  0  0  0  0  0  0  0
  -11.0229   -3.5169    0.0000 C   0  0  0  0  0  0  0  0  0  0  0  0
  -11.2778   -2.7322    0.0000 C   0  0  0  0  0  0  0  0  0  0  0  0
  -12.0624   -2.4773    0.0000 C   0  0  0  0  0  0  0  0  0  0  0  0
  -12.6755   -3.0293    0.0000 C   0  0  0  0  0  0  0  0  0  0  0  0
  -13.4601   -2.7744    0.0000 C   0  0  0  0  0  0  0  0  0  0  0  0
  -13.6317   -1.9674    0.0000 C   0  0  0  0  0  0  0  0  0  0  0  0
  -14.4163   -1.7125    0.0000 Cl  0  0  0  0  0  0  0  0  0  0  0  0
  -13.0186   -1.4154    0.0000 C   0  0  0  0  0  0  0  0  0  0  0  0
  -12.2339   -1.6703    0.0000 C   0  0  0  0  0  0  0  0  0  0  0  0
  -11.5078   -4.1843    0.0000 C   0  0  0  0  0  0  0  0  0  0  0  0
  -11.1722   -4.9380    0.0000 C   0  0  0  0  0  0  0  0  0  0  0  0
  -11.6571   -5.6054    0.0000 C   0  0  0  0  0  0  0  0  0  0  0  0
  -12.4776   -5.5192    0.0000 C   0  0  0  0  0  0  0  0  0  0  0  0
  -12.8132   -4.7655    0.0000 C   0  0  0  0  0  0  0  0  0  0  0  0
  -13.6337   -4.6793    0.0000 F   0  0  0  0  0  0  0  0  0  0  0  0
  -12.3283   -4.0981    0.0000 C   0  0  0  0  0  0  0  0  0  0  0  0
  -11.3216   -6.3591    0.0000 N   0  0  0  0  0  0  0  0  0  0  0  0
  -10.5011   -6.4453    0.0000 C   0  0  0  0  0  0  0  0  0  0  0  0
  -10.1656   -7.1990    0.0000 C   0  0  0  0  0  0  0  0  0  0  0  0
  -10.6505   -7.8664    0.0000 N   0  0  0  0  0  0  0  0  0  0  0  0
  -11.4710   -7.7802    0.0000 C   0  0  0  0  0  0  0  0  0  0  0  0
  -11.8065   -7.0265    0.0000 C   0  0  0  0  0  0  0  0  0  0  0  0
  -10.3149   -8.6201    0.0000 C   0  0  0  0  0  0  0  0  0  0  0  0
   -9.4944   -8.7064    0.0000 C   0  0  0  0  0  0  0  0  0  0  0  0
   -9.1589   -9.4600    0.0000 C   0  0  0  0  0  0  0  0  0  0  0  0
   -9.6438  -10.1275    0.0000 C   0  0  0  0  0  0  0  0  0  0  0  0
   -9.3082  -10.8811    0.0000 N   0  0  0  0  0  0  0  0  0  0  0  0
   -9.7932  -11.5486    0.0000 S   0  0  0  0  0  0  0  0  0  0  0  0
  -10.4606  -11.0637    0.0000 O   0  0  0  0  0  0  0  0  0  0  0  0
   -9.1257  -12.0335    0.0000 O   0  0  0  0  0  0  0  0  0  0  0  0
  -10.2781  -12.2160    0.0000 C   0  0  0  0  0  0  0  0  0  0  0  0
   -9.9425  -12.9697    0.0000 C   0  0  0  0  0  0  0  0  0  0  0  0
  -10.4275  -13.6371    0.0000 C   0  0  0  0  0  0  0  0  0  0  0  0
  -11.2479  -13.5509    0.0000 C   0  0  0  0  0  0  0  0  0  0  0  0
  -11.7329  -14.2183    0.0000 N   0  0  0  0  0  0  0  0  0  0  0  0
  -11.3973  -14.9720    0.0000 C   0  0  2  0  0  0  0  0  0  0  0  0
  -11.8822  -15.6395    0.0000 C   0  0  0  0  0  0  0  0  0  0  0  0
  -11.5467  -16.3931    0.0000 C   0  0  0  0  0  0  0  0  0  0  0  0
  -12.0316  -17.0606    0.0000 N   0  0  0  0  0  0  0  0  0  0  0  0
  -11.6960  -17.8142    0.0000 C   0  0  0  0  0  0  0  0  0  0  0  0
  -12.1810  -18.4817    0.0000 C   0  0  0  0  0  0  0  0  0  0  0  0
  -13.0014  -18.3954    0.0000 C   0  0  0  0  0  0  0  0  0  0  0  0
  -13.3370  -17.6418    0.0000 C   0  0  0  0  0  0  0  0  0  0  0  0
  -12.8521  -16.9743    0.0000 C   0  0  0  0  0  0  0  0  0  0  0  0
  -13.4864  -19.0629    0.0000 C   0  0  0  0  0  0  0  0  0  0  0  0
  -14.3068  -18.9766    0.0000 O   0  0  0  0  0  0  0  0  0  0  0  0
  -13.1508  -19.8166    0.0000 O   0  0  0  0  0  0  0  0  0  0  0  0
  -13.6357  -20.4840    0.0000 C   0  0  0  0  0  0  0  0  0  0  0  0
  -13.3002  -21.2377    0.0000 C   0  0  0  0  0  0  0  0  0  0  0  0
  -13.7851  -21.9051    0.0000 C   0  0  0  0  0  0  0  0  0  0  0  0
  -13.4495  -22.6588    0.0000 P   0  0  0  0  0  0  0  0  0  0  0  0
  -13.1140  -23.4125    0.0000 O   0  0  0  0  0  0  0  0  0  0  0  0
  -14.2032  -22.9943    0.0000 O   0  0  0  0  0  0  0  0  0  0  0  0
  -12.6959  -22.3232    0.0000 O   0  0  0  0  0  0  0  0  0  0  0  0
  -10.5768  -15.0582    0.0000 C   0  0  0  0  0  0  0  0  0  0  0  0
  -10.0919  -14.3908    0.0000 S   0  0  0  0  0  0  0  0  0  0  0  0
   -9.2714  -14.4770    0.0000 C   0  0  0  0  0  0  0  0  0  0  0  0
   -8.7865  -13.8096    0.0000 C   0  0  0  0  0  0  0  0  0  0  0  0
   -7.9660  -13.8958    0.0000 C   0  0  0  0  0  0  0  0  0  0  0  0
   -7.6305  -14.6495    0.0000 C   0  0  0  0  0  0  0  0  0  0  0  0
   -8.1154  -15.3170    0.0000 C   0  0  0  0  0  0  0  0  0  0  0  0
   -8.9359  -15.2307    0.0000 C   0  0  0  0  0  0  0  0  0  0  0  0
  -11.5835  -12.7972    0.0000 C   0  0  0  0  0  0  0  0  0  0  0  0
  -11.0986  -12.1298    0.0000 C   0  0  0  0  0  0  0  0  0  0  0  0
  -12.4040  -12.7110    0.0000 S   0  0  0  0  0  0  0  0  0  0  0  0
  -12.3177  -11.8905    0.0000 O   0  0  0  0  0  0  0  0  0  0  0  0
  -12.4902  -13.5315    0.0000 O   0  0  0  0  0  0  0  0  0  0  0  0
  -13.2245  -12.6248    0.0000 C   0  0  0  0  0  0  0  0  0  0  0  0
  -13.1382  -11.8043    0.0000 F   0  0  0  0  0  0  0  0  0  0  0  0
  -13.3107  -13.4452    0.0000 F   0  0  0  0  0  0  0  0  0  0  0  0
  -14.0449  -12.5385    0.0000 F   0  0  0  0  0  0  0  0  0  0  0  0
  -10.4643  -10.0412    0.0000 C   0  0  0  0  0  0  0  0  0  0  0  0
  -10.7998   -9.2876    0.0000 C   0  0  0  0  0  0  0  0  0  0  0  0
   -9.7129   -4.1843    0.0000 S   0  0  0  0  0  0  0  0  0  0  0  0
   -9.2280   -4.8517    0.0000 C   0  0  0  0  0  0  0  0  0  0  0  0
  -10.3804   -4.6692    0.0000 O   0  0  0  0  0  0  0  0  0  0  0  0
   -9.0455   -3.6994    0.0000 O   0  0  0  0  0  0  0  0  0  0  0  0
  1  2  1  0  0  0  0
  2  3  1  0  0  0  0
  2  4  1  0  0  0  0
  4  5  1  0  0  0  0
  5  6  1  0  0  0  0
  5  7  2  0  0  0  0
  7  8  1  0  0  0  0
  8  9  2  0  0  0  0
  4  9  1  0  0  0  0
  9 10  1  0  0  0  0
 10 11  2  0  0  0  0
 11 12  1  0  0  0  0
 12 13  2  0  0  0  0
 13 14  1  0  0  0  0
 13 15  1  0  0  0  0
 15 16  2  0  0  0  0
 10 16  1  0  0  0  0
  8 17  1  0  0  0  0
 17 18  2  0  0  0  0
 18 19  1  0  0  0  0
 19 20  2  0  0  0  0
 20 21  1  0  0  0  0
 21 22  1  0  0  0  0
 21 23  2  0  0  0  0
 17 23  1  0  0  0  0
 19 24  1  0  0  0  0
 24 25  1  0  0  0  0
 25 26  1  0  0  0  0
 26 27  1  0  0  0  0
 27 28  1  0  0  0  0
 28 29  1  0  0  0  0
 24 29  1  0  0  0  0
 27 30  1  0  0  0  0
 30 31  2  0  0  0  0
 31 32  1  0  0  0  0
 32 33  2  0  0  0  0
 33 34  1  0  0  0  0
 34 35  1  0  0  0  0
 35 36  2  0  0  0  0
 35 37  2  0  0  0  0
 35 38  1  0  0  0  0
 38 39  2  0  0  0  0
 39 40  1  0  0  0  0
 40 41  2  0  0  0  0
 41 42  1  0  0  0  0
 43 42  1  1  0  0  0
 43 44  1  0  0  0  0
 44 45  1  0  0  0  0
 45 46  1  0  0  0  0
 46 47  1  0  0  0  0
 47 48  1  0  0  0  0
 48 49  1  0  0  0  0
 49 50  1  0  0  0  0
 50 51  1  0  0  0  0
 46 51  1  0  0  0  0
 49 52  1  0  0  0  0
 52 53  2  0  0  0  0
 52 54  1  0  0  0  0
 54 55  1  0  0  0  0
 55 56  1  0  0  0  0
 56 57  1  0  0  0  0
 57 58  1  0  0  0  0
 58 59  1  0  0  0  0
 58 60  1  0  0  0  0
 58 61  2  0  0  0  0
 43 62  1  0  0  0  0
 62 63  1  0  0  0  0
 63 64  1  0  0  0  0
 64 65  2  0  0  0  0
 65 66  1  0  0  0  0
 66 67  2  0  0  0  0
 67 68  1  0  0  0  0
 68 69  2  0  0  0  0
 64 69  1  0  0  0  0
 41 70  1  0  0  0  0
 70 71  2  0  0  0  0
 38 71  1  0  0  0  0
 70 72  1  0  0  0  0
 72 73  2  0  0  0  0
 72 74  2  0  0  0  0
 72 75  1  0  0  0  0
 75 76  1  0  0  0  0
 75 77  1  0  0  0  0
 75 78  1  0  0  0  0
 33 79  1  0  0  0  0
 79 80  2  0  0  0  0
 30 80  1  0  0  0  0
  7 81  1  0  0  0  0
 81 82  1  0  0  0  0
 81 83  2  0  0  0  0
 81 84  2  0  0  0  0
M  END
> <DATABASE_ID>
DB16285

> <DATABASE_NAME>
drugbank

> <SMILES>
CC(C)N1C(C)=C(C(=C1C1=CC=C(Cl)C=C1)C1=CC(=CC(F)=C1)N1CCN(CC1)C1=CC=C(NS(=O)(=O)C2=CC=C(N[C@H](CCN3CCC(CC3)C(=O)OCCCP(O)(O)=O)CSC3=CC=CC=C3)C(=C2)S(=O)(=O)C(F)(F)F)C=C1)S(C)(=O)=O

> <INCHI_IDENTIFIER>
InChI=1S/C57H66ClF4N6O11PS4/c1-38(2)68-39(3)55(82(4,73)74)53(54(68)40-11-13-43(58)14-12-40)42-33-44(59)35-48(34-42)67-29-27-66(28-30-67)47-17-15-45(16-18-47)64-84(77,78)50-19-20-51(52(36-50)83(75,76)57(60,61)62)63-46(37-81-49-9-6-5-7-10-49)23-26-65-24-21-41(22-25-65)56(69)79-31-8-32-80(70,71)72/h5-7,9-20,33-36,38,41,46,63-64H,8,21-32,37H2,1-4H3,(H2,70,71,72)/t46-/m1/s1

> <INCHI_KEY>
QIOCQCYXBYUYLH-YACUFSJGSA-N

> <FORMULA>
C57H66ClF4N6O11PS4

> <MOLECULAR_WEIGHT>
1281.84

> <EXACT_MASS>
1280.303469

> <JCHEM_ACCEPTOR_COUNT>
14

> <JCHEM_ATOM_COUNT>
150

> <JCHEM_AVERAGE_NEUTRAL_MICROSPECIES_CHARGE>
-0.31514305192222336

> <JCHEM_AVERAGE_POLARIZABILITY>
129.6009498374567

> <JCHEM_BIOAVAILABILITY>
0

> <JCHEM_DONOR_COUNT>
4

> <JCHEM_FORMAL_CHARGE>
0

> <JCHEM_GHOSE_FILTER>
0

> <JCHEM_IUPAC>
(3-{1-[(3R)-3-[(4-{[4-(4-{3-[2-(4-chlorophenyl)-4-methanesulfonyl-5-methyl-1-(propan-2-yl)-1H-pyrrol-3-yl]-5-fluorophenyl}piperazin-1-yl)phenyl]sulfamoyl}-2-trifluoromethanesulfonylphenyl)amino]-4-(phenylsulfanyl)butyl]piperidine-4-carbonyloxy}propyl)phosphonic acid

> <ALOGPS_LOGP>
6.85

> <JCHEM_LOGP>
7.697502599324145

> <ALOGPS_LOGS>
-5.61

> <JCHEM_MDDR_LIKE_RULE>
1

> <JCHEM_NEUTRAL_CHARGE>
0

> <JCHEM_NUMBER_OF_RINGS>
8

> <JCHEM_PHYSIOLOGICAL_CHARGE>
0

> <JCHEM_PKA>
8.311848181073207

> <JCHEM_PKA_STRONGEST_ACIDIC>
1.8041105580471566

> <JCHEM_PKA_STRONGEST_BASIC>
7.750144558627689

> <JCHEM_POLAR_SURFACE_AREA>
224.95999999999995

> <JCHEM_REFRACTIVITY>
323.9971000000003

> <JCHEM_ROTATABLE_BOND_COUNT>
24

> <JCHEM_RULE_OF_FIVE>
0

> <ALOGPS_SOLUBILITY>
3.17e-03 g/l

> <JCHEM_TRADITIONAL_IUPAC>
5-({4-[2-(3-methoxyphenyl)-2-oxoethoxy]phenyl}methyl)-1,3-thiazolidine-2,4-dione

> <JCHEM_VEBER_RULE>
0

> <DRUGBANK_ID>
DB16285

> <DRUG_GROUPS>
investigational

> <GENERIC_NAME>
Pelcitoclax

> <SYNONYMS>
Pelcitoclax

$$$$
