
  Mrv1572004081619262D          

 52 56  0  0  0  0            999 V2000
   -5.7136    2.2391    0.0000 C   0  0  0  0  0  0  0  0  0  0  0  0
   -5.7148    1.4112    0.0000 C   0  0  0  0  0  0  0  0  0  0  0  0
   -4.9989    0.9959    0.0000 C   0  0  0  0  0  0  0  0  0  0  0  0
   -5.0007    2.6500    0.0000 C   0  0  0  0  0  0  0  0  0  0  0  0
   -4.2844    2.2427    0.0000 C   0  0  0  0  0  0  0  0  0  0  0  0
   -4.2810    1.4138    0.0000 C   0  0  0  0  0  0  0  0  0  0  0  0
   -3.5647    1.0022    0.0000 C   0  0  0  0  0  0  0  0  0  0  0  0
   -3.5715    2.6604    0.0000 C   0  0  0  0  0  0  0  0  0  0  0  0
   -2.8506    2.2485    0.0000 C   0  0  0  0  0  0  0  0  0  0  0  0
   -2.8481    1.4235    0.0000 C   0  0  0  0  0  0  0  0  0  0  0  0
   -2.1373    1.0129    0.0000 C   0  0  0  0  0  0  0  0  0  0  0  0
   -2.1461    2.6612    0.0000 C   0  0  0  0  0  0  0  0  0  0  0  0
   -3.5759    3.4858    0.0000 O   0  0  0  0  0  0  0  0  0  0  0  0
   -3.5604    0.1767    0.0000 O   0  0  0  0  0  0  0  0  0  0  0  0
   -4.9932    0.1709    0.0000 O   0  0  0  0  0  0  0  0  0  0  0  0
   -4.2775   -0.2394    0.0000 C   0  0  0  0  0  0  0  0  0  0  0  0
   -2.1522    3.4866    0.0000 O   0  0  0  0  0  0  0  0  0  0  0  0
   -2.1339    0.1874    0.0000 O   0  0  0  0  0  0  0  0  0  0  0  0
   -1.4305    2.2583    0.0000 C   0  0  0  0  0  0  0  0  0  0  0  0
   -1.4271    1.4346    0.0000 C   0  0  0  0  0  0  0  0  0  0  0  0
   -0.7152    1.0258    0.0000 C   0  0  2  0  0  0  0  0  0  0  0  0
   -0.0024    1.4406    0.0000 C   0  0  0  0  0  0  0  0  0  0  0  0
   -0.0059    2.2645    0.0000 C   0  0  1  0  0  0  0  0  0  0  0  0
   -0.7223    2.6735    0.0000 C   0  0  0  0  0  0  0  0  0  0  0  0
    0.7081    2.6775    0.0000 C   0  0  0  0  0  0  0  0  0  0  0  0
    1.4260    2.2704    0.0000 C   0  0  0  0  0  0  0  0  0  0  0  0
    0.7063    3.5043    0.0000 O   0  0  0  0  0  0  0  0  0  0  0  0
    2.1393    2.6850    0.0000 O   0  0  0  0  0  0  0  0  0  0  0  0
    2.8528    2.2779    0.0000 C   0  0  0  0  0  0  0  0  0  0  0  0
    0.7054    1.8532    0.0000 O   0  0  0  0  0  0  0  0  0  0  0  0
   -0.7129    0.2003    0.0000 O   0  0  0  0  0  0  0  0  0  0  0  0
   -0.0038    0.6170    0.0000 H   0  0  0  0  0  0  0  0  0  0  0  0
    2.8571    1.4525    0.0000 O   0  0  0  0  0  0  0  0  0  0  0  0
    3.5661    2.6925    0.0000 C   0  0  0  0  0  0  0  0  0  0  0  0
    4.2838    2.2857    0.0000 C   0  0  0  0  0  0  0  0  0  0  0  0
    4.9970    2.7002    0.0000 C   0  0  0  0  0  0  0  0  0  0  0  0
    5.7148    2.2933    0.0000 C   0  0  0  0  0  0  0  0  0  0  0  0
    0.0037   -0.2082    0.0000 C   0  0  1  0  0  0  0  0  0  0  0  0
    0.0003   -1.0305    0.0000 C   0  0  0  0  0  0  0  0  0  0  0  0
    0.7129   -1.4431    0.0000 C   0  0  1  0  0  0  0  0  0  0  0  0
    1.4297   -1.0296    0.0000 C   0  0  1  0  0  0  0  0  0  0  0  0
    1.4293   -0.2032    0.0000 C   0  0  1  0  0  0  0  0  0  0  0  0
    0.7121    0.2098    0.0000 O   0  0  0  0  0  0  0  0  0  0  0  0
    2.1449    0.2070    0.0000 C   0  0  0  0  0  0  0  0  0  0  0  0
    2.1448   -1.4451    0.0000 O   0  0  0  0  0  0  0  0  0  0  0  0
    0.7122   -2.2688    0.0000 N   0  0  0  0  0  0  0  0  0  0  0  0
   -0.0035   -2.6788    0.0000 C   0  0  0  0  0  0  0  0  0  0  0  0
   -0.7186   -2.2675    0.0000 C   0  0  0  0  0  0  0  0  0  0  0  0
   -0.0042   -3.5043    0.0000 O   0  0  0  0  0  0  0  0  0  0  0  0
   -0.7179   -1.4420    0.0000 F   0  0  0  0  0  0  0  0  0  0  0  0
   -1.4345   -2.6776    0.0000 F   0  0  0  0  0  0  0  0  0  0  0  0
   -1.4392   -1.8513    0.0000 F   0  0  0  0  0  0  0  0  0  0  0  0
 11 20  2  0  0  0  0
 23 25  1  0  0  0  0
 19 12  2  0  0  0  0
 25 26  1  0  0  0  0
 25 27  2  0  0  0  0
 12  9  1  0  0  0  0
 26 28  1  0  0  0  0
  2  3  1  0  0  0  0
 28 29  1  0  0  0  0
  8 13  2  0  0  0  0
 23 30  1  6  0  0  0
  3  6  2  0  0  0  0
 21 31  1  0  0  0  0
  7 14  2  0  0  0  0
 21 32  1  1  0  0  0
  1  2  2  0  0  0  0
 29 33  2  0  0  0  0
  5  8  1  0  0  0  0
 29 34  1  0  0  0  0
 15 16  1  0  0  0  0
 34 35  1  0  0  0  0
  3 15  1  0  0  0  0
 35 36  1  0  0  0  0
  6  7  1  0  0  0  0
 36 37  1  0  0  0  0
 12 17  1  0  0  0  0
 38 31  1  6  0  0  0
 38 39  1  0  0  0  0
  7 10  1  0  0  0  0
 11 18  1  0  0  0  0
 19 20  1  0  0  0  0
  9  8  1  0  0  0  0
  5  4  2  0  0  0  0
 38 43  1  0  0  0  0
 39 40  1  0  0  0  0
 40 41  1  0  0  0  0
 41 42  1  0  0  0  0
 42 43  1  0  0  0  0
  4  1  1  0  0  0  0
 42 44  1  1  0  0  0
  9 10  2  0  0  0  0
 41 45  1  1  0  0  0
  5  6  1  0  0  0  0
 40 46  1  1  0  0  0
 10 11  1  0  0  0  0
 46 47  1  0  0  0  0
 19 24  1  0  0  0  0
 47 48  1  0  0  0  0
 20 21  1  0  0  0  0
 47 49  2  0  0  0  0
 21 22  1  0  0  0  0
 48 50  1  0  0  0  0
 22 23  1  0  0  0  0
 48 51  1  0  0  0  0
 23 24  1  0  0  0  0
 48 52  1  0  0  0  0
M  END
> <DATABASE_ID>
DB00385

> <DATABASE_NAME>
drugbank

> <SMILES>
[H][C@@]1(C[C@@](O)(CC2=C(O)C3=C(C(O)=C12)C(=O)C1=C(OC)C=CC=C1C3=O)C(=O)COC(=O)CCCC)O[C@H]1C[C@H](NC(=O)C(F)(F)F)[C@H](O)[C@H](C)O1

> <INCHI_IDENTIFIER>
InChI=1S/C34H36F3NO13/c1-4-5-9-21(40)49-13-20(39)33(47)11-16-24(19(12-33)51-22-10-17(27(41)14(2)50-22)38-32(46)34(35,36)37)31(45)26-25(29(16)43)28(42)15-7-6-8-18(48-3)23(15)30(26)44/h6-8,14,17,19,22,27,41,43,45,47H,4-5,9-13H2,1-3H3,(H,38,46)/t14-,17-,19-,22-,27+,33-/m0/s1

> <INCHI_KEY>
ZOCKGBMQLCSHFP-KQRAQHLDSA-N

> <FORMULA>
C34H36F3NO13

> <MOLECULAR_WEIGHT>
723.651

> <EXACT_MASS>
723.213874712

> <JCHEM_ACCEPTOR_COUNT>
12

> <JCHEM_ATOM_COUNT>
87

> <JCHEM_AVERAGE_POLARIZABILITY>
69.19605790453554

> <JCHEM_BIOAVAILABILITY>
0

> <JCHEM_DONOR_COUNT>
5

> <JCHEM_FORMAL_CHARGE>
0

> <JCHEM_GHOSE_FILTER>
0

> <JCHEM_IUPAC>
2-oxo-2-[(2S,4S)-2,5,12-trihydroxy-4-{[(2R,4S,5S,6S)-5-hydroxy-6-methyl-4-(2,2,2-trifluoroacetamido)oxan-2-yl]oxy}-7-methoxy-6,11-dioxo-1,2,3,4,6,11-hexahydrotetracen-2-yl]ethyl pentanoate

> <ALOGPS_LOGP>
2.67

> <JCHEM_LOGP>
4.486147121666667

> <ALOGPS_LOGS>
-4.35

> <JCHEM_MDDR_LIKE_RULE>
1

> <JCHEM_NUMBER_OF_RINGS>
5

> <JCHEM_PHYSIOLOGICAL_CHARGE>
0

> <JCHEM_PKA>
9.403154880551655

> <JCHEM_PKA_STRONGEST_ACIDIC>
8.004695938821461

> <JCHEM_PKA_STRONGEST_BASIC>
-3.4156988783544806

> <JCHEM_POLAR_SURFACE_AREA>
215.21999999999997

> <JCHEM_REFRACTIVITY>
168.02809999999997

> <JCHEM_ROTATABLE_BOND_COUNT>
12

> <JCHEM_RULE_OF_FIVE>
0

> <ALOGPS_SOLUBILITY>
3.25e-02 g/l

> <JCHEM_TRADITIONAL_IUPAC>
2-oxo-2-[(2S,4S)-2,5,12-trihydroxy-4-{[(2R,4S,5S,6S)-5-hydroxy-6-methyl-4-(2,2,2-trifluoroacetamido)oxan-2-yl]oxy}-7-methoxy-6,11-dioxo-3,4-dihydro-1H-tetracen-2-yl]ethyl pentanoate

> <JCHEM_VEBER_RULE>
0

> <DRUGBANK_ID>
DB00385

> <SECONDARY_ACCESSION_NUMBERS>
APRD00662

> <DRUG_GROUPS>
approved

> <GENERIC_NAME>
Valrubicin

> <SYNONYMS>
(8S, 10S)-8-glycoloyl-7,8,9,10-tetrahydro-6,8,11-trihydroxy-1-methoxy-10-[[2,3,6-trideoxy-3-(2,2,2-trifluoroacetamido)-α-L-lyxo-hexopyranosyl]oxy]-5,12-naphthacenedione 8²-valerate; 2-oxo-2-[(2S,4S)-2,5,12-trihydroxy-7-methoxy-6,11-dioxo-4-({2,3,6-trideoxy-3-[(trifluoroacetyl)amino]hexopyranosyl}oxy)-1,2,3,4,6,11-hexahydrotetracen-2-yl]ethyl pentanoate; Valrubicin; Valrubicina; Valrubicine; Valrubicinum

> <PRODUCTS>
Valrubicin Intravesical Solution; Valstar; Valtaxin

$$$$
