
  Mrv1718003271816002D          

 36 38  0  0  0  0            999 V2000
    1.7862    3.0938    0.0000 S   0  0  0  0  0  0  0  0  0  0  0  0
    0.3572   -1.0312    0.0000 O   0  0  0  0  0  0  0  0  0  0  0  0
   -0.3572    1.8562    0.0000 O   0  0  0  0  0  0  0  0  0  0  0  0
    2.1987    2.3793    0.0000 O   0  0  0  0  0  0  0  0  0  0  0  0
    1.3736    3.8082    0.0000 O   0  0  0  0  0  0  0  0  0  0  0  0
   -0.3572    0.2062    0.0000 N   0  0  0  0  0  0  0  0  0  0  0  0
    1.0717    2.6813    0.0000 N   0  0  0  0  0  0  0  0  0  0  0  0
    2.5006    4.3313    0.0000 N   0  0  0  0  0  0  0  0  0  0  0  0
   -1.0717   -1.0312    0.0000 C   0  0  2  0  0  0  0  0  0  0  0  0
   -1.7862   -0.6187    0.0000 C   0  0  0  0  0  0  0  0  0  0  0  0
   -2.5006   -1.0312    0.0000 C   0  0  0  0  0  0  0  0  0  0  0  0
   -1.0717   -1.8562    0.0000 C   0  0  0  0  0  0  0  0  0  0  0  0
   -0.3572   -0.6187    0.0000 C   0  0  0  0  0  0  0  0  0  0  0  0
   -3.2152   -0.6187    0.0000 C   0  0  0  0  0  0  0  0  0  0  0  0
   -2.5006   -1.8562    0.0000 C   0  0  0  0  0  0  0  0  0  0  0  0
    0.3572    0.6187    0.0000 C   0  0  0  0  0  0  0  0  0  0  0  0
   -1.7862   -2.2687    0.0000 C   0  0  0  0  0  0  0  0  0  0  0  0
    0.3572    1.4437    0.0000 C   0  0  2  0  0  0  0  0  0  0  0  0
   -0.3572   -2.2687    0.0000 C   0  0  0  0  0  0  0  0  0  0  0  0
   -1.7862   -3.0938    0.0000 C   0  0  0  0  0  0  0  0  0  0  0  0
    1.0717    1.8562    0.0000 C   0  0  0  0  0  0  0  0  0  0  0  0
   -0.3572   -3.0938    0.0000 C   0  0  0  0  0  0  0  0  0  0  0  0
   -1.0717   -3.5063    0.0000 C   0  0  0  0  0  0  0  0  0  0  0  0
   -2.5006   -3.5063    0.0000 C   0  0  0  0  0  0  0  0  0  0  0  0
   -2.5006   -4.3313    0.0000 C   0  0  0  0  0  0  0  0  0  0  0  0
   -3.2152   -3.0938    0.0000 C   0  0  0  0  0  0  0  0  0  0  0  0
    2.5006    3.5063    0.0000 C   0  0  0  0  0  0  0  0  0  0  0  0
   -3.2152   -4.7438    0.0000 C   0  0  0  0  0  0  0  0  0  0  0  0
   -3.9296   -3.5063    0.0000 C   0  0  0  0  0  0  0  0  0  0  0  0
   -3.9296   -4.3313    0.0000 C   0  0  0  0  0  0  0  0  0  0  0  0
    3.2152    3.0938    0.0000 C   0  0  0  0  0  0  0  0  0  0  0  0
    3.9296    3.5063    0.0000 C   0  0  0  0  0  0  0  0  0  0  0  0
    3.2152    4.7438    0.0000 C   0  0  0  0  0  0  0  0  0  0  0  0
    3.9296    4.3313    0.0000 C   0  0  0  0  0  0  0  0  0  0  0  0
   -0.8002    0.4620    0.0000 H   0  0  0  0  0  0  0  0  0  0  0  0
    0.6287    2.9370    0.0000 H   0  0  0  0  0  0  0  0  0  0  0  0
  1  4  2  0  0  0  0
  1  5  2  0  0  0  0
  1  7  1  0  0  0  0
  1 27  1  0  0  0  0
  2 13  2  0  0  0  0
 18  3  1  1  0  0  0
  6 13  1  0  0  0  0
  6 16  1  0  0  0  0
  6 35  1  0  0  0  0
  7 21  1  0  0  0  0
  7 36  1  0  0  0  0
  8 27  1  0  0  0  0
  8 33  2  0  0  0  0
  9 10  1  1  0  0  0
  9 12  1  0  0  0  0
  9 13  1  0  0  0  0
 10 11  1  0  0  0  0
 11 14  1  0  0  0  0
 11 15  1  0  0  0  0
 12 17  1  0  0  0  0
 12 19  2  0  0  0  0
 16 18  1  0  0  0  0
 17 20  2  0  0  0  0
 18 21  1  0  0  0  0
 19 22  1  0  0  0  0
 20 23  1  0  0  0  0
 20 24  1  0  0  0  0
 22 23  2  0  0  0  0
 24 25  2  0  0  0  0
 24 26  1  0  0  0  0
 25 28  1  0  0  0  0
 26 29  2  0  0  0  0
 27 31  2  0  0  0  0
 28 30  2  0  0  0  0
 29 30  1  0  0  0  0
 31 32  1  0  0  0  0
 32 34  2  0  0  0  0
 33 34  1  0  0  0  0
M  END
> <DATABASE_ID>
DB04244

> <DATABASE_NAME>
drugbank

> <SMILES>
[H]N(C[C@@H](O)CN([H])S(=O)(=O)C1=CC=CC=N1)C(=O)[C@H](CC(C)C)C1=CC=CC(=C1)C1=CC=CC=C1

> <INCHI_IDENTIFIER>
InChI=1S/C26H31N3O4S/c1-19(2)15-24(22-12-8-11-21(16-22)20-9-4-3-5-10-20)26(31)28-17-23(30)18-29-34(32,33)25-13-6-7-14-27-25/h3-14,16,19,23-24,29-30H,15,17-18H2,1-2H3,(H,28,31)/t23-,24-/m1/s1

> <INCHI_KEY>
YCDHZDINQZLSRR-DNQXCXABSA-N

> <FORMULA>
C26H31N3O4S

> <MOLECULAR_WEIGHT>
481.607

> <EXACT_MASS>
481.203527185

> <JCHEM_ACCEPTOR_COUNT>
5

> <JCHEM_ATOM_COUNT>
65

> <JCHEM_AVERAGE_POLARIZABILITY>
52.53192441292936

> <JCHEM_BIOAVAILABILITY>
1

> <JCHEM_DONOR_COUNT>
3

> <JCHEM_FORMAL_CHARGE>
0

> <JCHEM_GHOSE_FILTER>
0

> <JCHEM_IUPAC>
(2R)-2-{[1,1'-biphenyl]-3-yl}-N-[(2R)-2-hydroxy-3-(pyridine-2-sulfonamido)propyl]-4-methylpentanamide

> <ALOGPS_LOGP>
2.81

> <JCHEM_LOGP>
3.7719734930000004

> <ALOGPS_LOGS>
-5.28

> <JCHEM_MDDR_LIKE_RULE>
1

> <JCHEM_NUMBER_OF_RINGS>
3

> <JCHEM_PHYSIOLOGICAL_CHARGE>
0

> <JCHEM_PKA>
14.306063428247498

> <JCHEM_PKA_STRONGEST_ACIDIC>
8.863549078361135

> <JCHEM_PKA_STRONGEST_BASIC>
-0.729166382363356

> <JCHEM_POLAR_SURFACE_AREA>
108.39

> <JCHEM_REFRACTIVITY>
132.8085

> <JCHEM_ROTATABLE_BOND_COUNT>
10

> <JCHEM_RULE_OF_FIVE>
1

> <ALOGPS_SOLUBILITY>
2.52e-03 g/l

> <JCHEM_TRADITIONAL_IUPAC>
(2R)-2-{[1,1'-biphenyl]-3-yl}-N-[(2R)-2-hydroxy-3-(pyridine-2-sulfonamido)propyl]-4-methylpentanamide

> <JCHEM_VEBER_RULE>
0

> <DRUGBANK_ID>
DB04244

> <SECONDARY_ACCESSION_NUMBERS>
EXPT01807

> <DRUG_GROUPS>
experimental

> <GENERIC_NAME>
(2R)-2-(3-Biphenylyl)-N-{(2R)-2-hydroxy-3-[(2-pyridinylsulfonyl)amino]propyl}-4-methylpentanamide

$$$$
