
  Mrv1909 12032015052D          

 46 49  0  0  0  0            999 V2000
   -0.1060    0.2846    0.0000 C   0  0  0  0  0  0  0  0  0  0  0  0
    0.4448   -0.3294    0.0000 C   0  0  2  0  0  0  0  0  0  0  0  0
    1.2521   -0.1593    0.0000 C   0  0  0  0  0  0  0  0  0  0  0  0
    1.5085    0.6248    0.0000 Se  0  0  0  0  0  0  0  0  0  0  0  0
    2.3158    0.7949    0.0000 C   0  0  0  0  0  0  0  0  0  0  0  0
    2.5720    1.5791    0.0000 C   0  0  0  0  0  0  0  0  0  0  0  0
    2.0211    2.1932    0.0000 O   0  0  0  0  0  0  0  0  0  0  0  0
    3.3793    1.7493    0.0000 N   0  0  0  0  0  0  0  0  0  0  0  0
    3.6356    2.5335    0.0000 C   0  0  0  0  0  0  0  0  0  0  0  0
    4.4429    2.7036    0.0000 C   0  0  0  0  0  0  0  0  0  0  0  0
    4.6993    3.4878    0.0000 S   0  0  0  0  0  0  0  0  0  0  0  0
    4.9555    4.2720    0.0000 O   0  0  0  0  0  0  0  0  0  0  0  0
    5.4834    3.2316    0.0000 O   0  0  0  0  0  0  0  0  0  0  0  0
    3.9151    3.7442    0.0000 O   0  0  0  0  0  0  0  0  0  0  0  0
    0.1885   -1.1137    0.0000 C   0  0  1  0  0  0  0  0  0  0  0  0
    0.8406   -1.0112    0.0000 H   0  0  0  0  0  0  0  0  0  0  0  0
    0.6700   -1.7775    0.0000 C   0  0  0  0  0  0  0  0  0  0  0  0
    0.1885   -2.4414    0.0000 C   0  0  0  0  0  0  0  0  0  0  0  0
   -0.5920   -2.1901    0.0000 C   0  0  1  0  0  0  0  0  0  0  0  0
   -0.5221   -2.8464    0.0000 H   0  0  0  0  0  0  0  0  0  0  0  0
   -1.3065   -2.6026    0.0000 C   0  0  2  0  0  0  0  0  0  0  0  0
   -0.7324   -2.9281    0.0000 H   0  0  0  0  0  0  0  0  0  0  0  0
   -1.2932   -3.4618    0.0000 C   0  0  2  0  0  0  0  0  0  0  0  0
   -0.5740   -3.8660    0.0000 O   0  0  0  0  0  0  0  0  0  0  0  0
   -2.0342   -3.8972    0.0000 C   0  0  0  0  0  0  0  0  0  0  0  0
   -2.7784   -3.4675    0.0000 C   0  0  2  0  0  0  0  0  0  0  0  0
   -2.7759   -4.1276    0.0000 H   0  0  0  0  0  0  0  0  0  0  0  0
   -3.5502   -3.9211    0.0000 C   0  0  0  0  0  0  0  0  0  0  0  0
   -4.3253   -3.4736    0.0000 C   0  0  2  0  0  0  0  0  0  0  0  0
   -5.0415   -3.8833    0.0000 O   0  0  0  0  0  0  0  0  0  0  0  0
   -4.3185   -2.5784    0.0000 C   0  0  0  0  0  0  0  0  0  0  0  0
   -3.5365   -2.1428    0.0000 C   0  0  0  0  0  0  0  0  0  0  0  0
   -2.7717   -2.6082    0.0000 C   0  0  1  0  0  0  0  0  0  0  0  0
   -2.7654   -1.7832    0.0000 C   0  0  0  0  0  0  0  0  0  0  0  0
   -2.0210   -2.1901    0.0000 C   0  0  1  0  0  0  0  0  0  0  0  0
   -1.4494   -1.8601    0.0000 H   0  0  0  0  0  0  0  0  0  0  0  0
   -2.0210   -1.3650    0.0000 C   0  0  0  0  0  0  0  0  0  0  0  0
   -1.3065   -0.9525    0.0000 C   0  0  2  0  0  0  0  0  0  0  0  0
   -1.3065   -0.1275    0.0000 O   0  0  0  0  0  0  0  0  0  0  0  0
   -0.5920   -1.3650    0.0000 C   0  0  2  0  0  0  0  0  0  0  0  0
   -0.5920   -0.5400    0.0000 C   0  0  0  0  0  0  0  0  0  0  0  0
    3.7209    1.3686    0.0000 H   0  0  0  0  0  0  0  0  0  0  0  0
    5.4560    4.3775    0.0000 H   0  0  0  0  0  0  0  0  0  0  0  0
   -0.5681   -4.3775    0.0000 H   0  0  0  0  0  0  0  0  0  0  0  0
   -5.4834   -3.6258    0.0000 H   0  0  0  0  0  0  0  0  0  0  0  0
   -1.7495    0.1282    0.0000 H   0  0  0  0  0  0  0  0  0  0  0  0
  2  1  1  6  0  0  0
  2  3  1  0  0  0  0
  3  4  1  0  0  0  0
  4  5  1  0  0  0  0
  5  6  1  0  0  0  0
  6  7  2  0  0  0  0
  6  8  1  0  0  0  0
  8  9  1  0  0  0  0
  9 10  1  0  0  0  0
 10 11  1  0  0  0  0
 11 12  1  0  0  0  0
 11 13  2  0  0  0  0
 11 14  2  0  0  0  0
  2 15  1  0  0  0  0
 15 16  1  6  0  0  0
 15 17  1  0  0  0  0
 17 18  1  0  0  0  0
 18 19  1  0  0  0  0
 19 20  1  6  0  0  0
 19 21  1  0  0  0  0
 21 22  1  1  0  0  0
 21 23  1  0  0  0  0
 23 24  1  6  0  0  0
 23 25  1  0  0  0  0
 25 26  1  0  0  0  0
 26 27  1  1  0  0  0
 26 28  1  0  0  0  0
 28 29  1  0  0  0  0
 29 30  1  6  0  0  0
 29 31  1  0  0  0  0
 31 32  1  0  0  0  0
 32 33  1  0  0  0  0
 26 33  1  0  0  0  0
 33 34  1  1  0  0  0
 33 35  1  0  0  0  0
 35 36  1  6  0  0  0
 21 35  1  0  0  0  0
 35 37  1  0  0  0  0
 37 38  1  0  0  0  0
 38 39  1  6  0  0  0
 38 40  1  0  0  0  0
 15 40  1  0  0  0  0
 19 40  1  0  0  0  0
 40 41  1  1  0  0  0
  8 42  1  0  0  0  0
 12 43  1  0  0  0  0
 24 44  1  0  0  0  0
 30 45  1  0  0  0  0
 39 46  1  0  0  0  0
M  END
> <DATABASE_ID>
DB15973

> <DATABASE_NAME>
drugbank

> <SMILES>
[H]O[C@@H]1CC[C@@]2(C)[C@@]([H])(C1)C[C@@H](O[H])[C@@]1([H])[C@]3([H])CC[C@]([H])([C@H](C)C[Se]CC(=O)N([H])CCS(=O)(=O)O[H])[C@@]3(C)[C@@H](O[H])C[C@]21[H]

> <INCHI_IDENTIFIER>
InChI=1S/C26H45NO7SSe/c1-15(13-36-14-23(31)27-8-9-35(32,33)34)18-4-5-19-24-20(12-22(30)26(18,19)3)25(2)7-6-17(28)10-16(25)11-21(24)29/h15-22,24,28-30H,4-14H2,1-3H3,(H,27,31)(H,32,33,34)/t15-,16+,17-,18-,19+,20+,21-,22+,24+,25+,26-/m1/s1

> <INCHI_KEY>
JCMLWGQJPSGGEI-HZAMXZRMSA-N

> <FORMULA>
C26H45NO7SSe

> <MOLECULAR_WEIGHT>
594.68

> <EXACT_MASS>
595.208196

> <JCHEM_ACCEPTOR_COUNT>
8

> <JCHEM_ATOM_COUNT>
81

> <JCHEM_AVERAGE_NEUTRAL_MICROSPECIES_CHARGE>
-0.9999999176744707

> <JCHEM_AVERAGE_POLARIZABILITY>
58.689321582771164

> <JCHEM_BIOAVAILABILITY>
1

> <JCHEM_DONOR_COUNT>
5

> <JCHEM_FORMAL_CHARGE>
0

> <JCHEM_GHOSE_FILTER>
0

> <JCHEM_IUPAC>
2-(2-{[(2S)-2-[(1R,3aS,3bR,4R,5aS,7R,9aS,9bS,11S,11aS)-4,7,11-trihydroxy-9a,11a-dimethyl-hexadecahydro-1H-cyclopenta[a]phenanthren-1-yl]propyl]selanyl}acetamido)ethane-1-sulfonic acid

> <ALOGPS_LOGP>
0.64

> <JCHEM_LOGP>
-1.6135739745728028

> <ALOGPS_LOGS>
-3.76

> <JCHEM_MDDR_LIKE_RULE>
1

> <JCHEM_NEUTRAL_CHARGE>
-1

> <JCHEM_NUMBER_OF_RINGS>
4

> <JCHEM_PHYSIOLOGICAL_CHARGE>
-1

> <JCHEM_PKA>
14.919327456682536

> <JCHEM_PKA_STRONGEST_ACIDIC>
-1.7654166716675848

> <JCHEM_PKA_STRONGEST_BASIC>
-0.13887390973280636

> <JCHEM_POLAR_SURFACE_AREA>
144.16

> <JCHEM_REFRACTIVITY>
145.41199999999998

> <JCHEM_ROTATABLE_BOND_COUNT>
8

> <JCHEM_RULE_OF_FIVE>
0

> <ALOGPS_SOLUBILITY>
1.04e-01 g/l

> <JCHEM_TRADITIONAL_IUPAC>
oxedrine tartrate

> <JCHEM_VEBER_RULE>
0

> <DRUGBANK_ID>
DB15973

> <DRUG_GROUPS>
experimental

> <GENERIC_NAME>
Tauroselcholic acid

> <SYNONYMS>
SeHCAT; Tauroselcholic acid

$$$$
