
  Mrv1909 05201914502D          

 42 45  0  0  1  0            999 V2000
    6.6262   -2.3490    0.0000 C   0  0  0  0  0  0  0  0  0  0  0  0
    6.3441   -1.5738    0.0000 C   0  0  0  0  0  0  0  0  0  0  0  0
    5.5316   -1.4305    0.0000 C   0  0  0  0  0  0  0  0  0  0  0  0
    5.0013   -2.0625    0.0000 C   0  0  1  0  0  0  0  0  0  0  0  0
    4.4710   -1.4305    0.0000 C   0  0  0  0  0  0  0  0  0  0  0  0
    4.7532   -0.6553    0.0000 C   0  0  0  0  0  0  0  0  0  0  0  0
    5.5656   -0.5120    0.0000 C   0  0  0  0  0  0  0  0  0  0  0  0
    5.8478    0.2632    0.0000 C   0  0  0  0  0  0  0  0  0  0  0  0
    6.6603    0.4065    0.0000 C   0  0  0  0  0  0  0  0  0  0  0  0
    7.1906   -0.2255    0.0000 C   0  0  0  0  0  0  0  0  0  0  0  0
    6.9084   -1.0007    0.0000 C   0  0  0  0  0  0  0  0  0  0  0  0
    6.0959   -1.1440    0.0000 C   0  0  0  0  0  0  0  0  0  0  0  0
    5.7158   -2.4750    0.0000 C   0  0  0  0  0  0  0  0  0  0  0  0
    5.7158   -3.3000    0.0000 C   0  0  0  0  0  0  0  0  0  0  0  0
    6.4302   -3.7125    0.0000 O   0  0  0  0  0  0  0  0  0  0  0  0
    5.0013   -3.7125    0.0000 C   0  0  0  0  0  0  0  0  0  0  0  0
    5.0013   -4.5375    0.0000 C   0  0  2  0  0  0  0  0  0  0  0  0
    4.2868   -4.9500    0.0000 C   0  0  0  0  0  0  0  0  0  0  0  0
    4.2868   -5.7750    0.0000 C   0  0  0  0  0  0  0  0  0  0  0  0
    5.7158   -4.9500    0.0000 C   0  0  0  0  0  0  0  0  0  0  0  0
    6.4302   -4.5375    0.0000 C   0  0  0  0  0  0  0  0  0  0  0  0
    7.1447   -4.9500    0.0000 C   0  0  0  0  0  0  0  0  0  0  0  0
    7.1447   -5.7750    0.0000 C   0  0  0  0  0  0  0  0  0  0  0  0
    6.4302   -6.1875    0.0000 C   0  0  0  0  0  0  0  0  0  0  0  0
    6.4302   -7.0125    0.0000 N   0  0  0  0  0  0  0  0  0  0  0  0
    5.7158   -7.4250    0.0000 S   0  0  0  0  0  0  0  0  0  0  0  0
    5.3033   -6.7105    0.0000 O   0  0  0  0  0  0  0  0  0  0  0  0
    6.1283   -8.1395    0.0000 O   0  0  0  0  0  0  0  0  0  0  0  0
    5.0013   -7.8375    0.0000 C   0  0  0  0  0  0  0  0  0  0  0  0
    5.0013   -8.6625    0.0000 N   0  0  0  0  0  0  0  0  0  0  0  0
    4.2868   -9.0750    0.0000 C   0  0  0  0  0  0  0  0  0  0  0  0
    3.5724   -8.6625    0.0000 C   0  0  0  0  0  0  0  0  0  0  0  0
    3.5724   -7.8375    0.0000 C   0  0  0  0  0  0  0  0  0  0  0  0
    4.2868   -7.4250    0.0000 C   0  0  0  0  0  0  0  0  0  0  0  0
    2.8579   -9.0750    0.0000 C   0  0  0  0  0  0  0  0  0  0  0  0
    2.1434   -9.4875    0.0000 F   0  0  0  0  0  0  0  0  0  0  0  0
    2.4454   -8.3605    0.0000 F   0  0  0  0  0  0  0  0  0  0  0  0
    3.2704   -9.7895    0.0000 F   0  0  0  0  0  0  0  0  0  0  0  0
    5.7158   -5.7750    0.0000 C   0  0  0  0  0  0  0  0  0  0  0  0
    4.2868   -3.3000    0.0000 C   0  0  0  0  0  0  0  0  0  0  0  0
    3.5724   -3.7125    0.0000 O   0  0  0  0  0  0  0  0  0  0  0  0
    4.2868   -2.4750    0.0000 O   0  0  0  0  0  0  0  0  0  0  0  0
  1  2  1  0  0  0  0
  2  3  1  0  0  0  0
  4  3  1  1  0  0  0
  4  5  1  6  0  0  0
  5  6  1  0  0  0  0
  6  7  1  0  0  0  0
  7  8  2  0  0  0  0
  8  9  1  0  0  0  0
  9 10  2  0  0  0  0
 10 11  1  0  0  0  0
 11 12  2  0  0  0  0
  7 12  1  0  0  0  0
  4 13  1  0  0  0  0
 13 14  1  0  0  0  0
 14 15  1  0  0  0  0
 14 16  2  0  0  0  0
 17 16  1  0  0  0  0
 17 18  1  1  0  0  0
 18 19  1  0  0  0  0
 17 20  1  0  0  0  0
 20 21  2  0  0  0  0
 21 22  1  0  0  0  0
 22 23  2  0  0  0  0
 23 24  1  0  0  0  0
 24 25  1  0  0  0  0
 25 26  1  0  0  0  0
 26 27  2  0  0  0  0
 26 28  2  0  0  0  0
 26 29  1  0  0  0  0
 29 30  2  0  0  0  0
 30 31  1  0  0  0  0
 31 32  2  0  0  0  0
 32 33  1  0  0  0  0
 33 34  2  0  0  0  0
 29 34  1  0  0  0  0
 32 35  1  0  0  0  0
 35 36  1  0  0  0  0
 35 37  1  0  0  0  0
 35 38  1  0  0  0  0
 24 39  2  0  0  0  0
 20 39  1  0  0  0  0
 16 40  1  0  0  0  0
 40 41  2  0  0  0  0
 40 42  1  0  0  0  0
  4 42  1  0  0  0  0
M  ISO  1  17  14
M  END
> <DATABASE_ID>
DB15108

> <DATABASE_NAME>
drugbank

> <SMILES>
CCC[C@@]1(CCC2=CC=CC=C2)CC(O)=C([14C@H](CC)C2=CC=CC(NS(=O)(=O)C3=NC=C(C=C3)C(F)(F)F)=C2)C(=O)O1

> <INCHI_IDENTIFIER>
InChI=1S/C31H33F3N2O5S/c1-3-16-30(17-15-21-9-6-5-7-10-21)19-26(37)28(29(38)41-30)25(4-2)22-11-8-12-24(18-22)36-42(39,40)27-14-13-23(20-35-27)31(32,33)34/h5-14,18,20,25,36-37H,3-4,15-17,19H2,1-2H3/t25-,30-/m1/s1/i25+2

> <INCHI_KEY>
SUJUHGSWHZTSEU-MWQIXQBFSA-N

> <FORMULA>
C31H33F3N2O5S

> <MOLECULAR_WEIGHT>
604.66

> <EXACT_MASS>
604.209469822

> <JCHEM_ACCEPTOR_COUNT>
5

> <JCHEM_ATOM_COUNT>
75

> <JCHEM_AVERAGE_POLARIZABILITY>
60.64708329971729

> <JCHEM_BIOAVAILABILITY>
0

> <JCHEM_DONOR_COUNT>
2

> <JCHEM_FORMAL_CHARGE>
0

> <JCHEM_GHOSE_FILTER>
0

> <JCHEM_IUPAC>
N-{3-[(1R)-1-[(6R)-4-hydroxy-2-oxo-6-(2-phenylethyl)-6-propyl-5,6-dihydro-2H-pyran-3-yl](1-14C)propyl]phenyl}-5-(trifluoromethyl)pyridine-2-sulfonamide

> <ALOGPS_LOGP>
6.29

> <JCHEM_LOGP>
7.138675971333333

> <ALOGPS_LOGS>
-6.47

> <JCHEM_MDDR_LIKE_RULE>
1

> <JCHEM_NUMBER_OF_RINGS>
4

> <JCHEM_PHYSIOLOGICAL_CHARGE>
-1

> <JCHEM_PKA>
8.176697930820936

> <JCHEM_PKA_STRONGEST_ACIDIC>
5.959012616983648

> <JCHEM_PKA_STRONGEST_BASIC>
-2.3068735009068

> <JCHEM_POLAR_SURFACE_AREA>
105.59000000000002

> <JCHEM_REFRACTIVITY>
154.57229999999996

> <JCHEM_ROTATABLE_BOND_COUNT>
11

> <JCHEM_RULE_OF_FIVE>
0

> <ALOGPS_SOLUBILITY>
2.05e-04 g/l

> <JCHEM_TRADITIONAL_IUPAC>
(2R)-14-fluoro-2-methyl-6,9,10,19-tetraazapentacyclo[14.2.1.0^{2,6}.0^{8,18}.0^{12,17}]nonadeca-1(18),8,12(17),13,15-pentaen-11-one

> <JCHEM_VEBER_RULE>
0

> <DRUGBANK_ID>
DB15108

> <DRUG_GROUPS>
investigational

> <GENERIC_NAME>
Tipranavir C-14

> <SYNONYMS>
14C-TIPRANAVIR

$$$$
