
  Mrv1909 03042002072D          

 36 41  0  0  0  0            999 V2000
   -5.5944   -1.2375    0.0000 C   0  0  0  0  0  0  0  0  0  0  0  0
   -5.5944   -2.0625    0.0000 O   0  0  0  0  0  0  0  0  0  0  0  0
   -4.8800   -2.4750    0.0000 C   0  0  0  0  0  0  0  0  0  0  0  0
   -4.1654   -2.0625    0.0000 C   0  0  0  0  0  0  0  0  0  0  0  0
   -4.1654   -1.2375    0.0000 N   0  0  0  0  0  0  0  0  0  0  0  0
   -4.8800   -0.8250    0.0000 C   0  0  0  0  0  0  0  0  0  0  0  0
   -3.4400   -0.8185    0.0000 C   0  0  0  0  0  0  0  0  0  0  0  0
   -2.7297   -1.2285    0.0000 C   0  0  0  0  0  0  0  0  0  0  0  0
   -2.0154   -0.8159    0.0000 C   0  0  0  0  0  0  0  0  0  0  0  0
   -2.0154    0.0090    0.0000 N   0  0  0  0  0  0  0  0  0  0  0  0
   -2.7256    0.4189    0.0000 C   0  0  0  0  0  0  0  0  0  0  0  0
   -3.4400    0.0064    0.0000 C   0  0  0  0  0  0  0  0  0  0  0  0
   -1.2976    0.4235    0.0000 C   0  0  0  0  0  0  0  0  0  0  0  0
   -0.5834    0.0112    0.0000 C   0  0  0  0  0  0  0  0  0  0  0  0
    0.1309    0.4239    0.0000 C   0  0  0  0  0  0  0  0  0  0  0  0
    0.1308    1.2489    0.0000 C   0  0  0  0  0  0  0  0  0  0  0  0
   -0.5833    1.6611    0.0000 C   0  0  0  0  0  0  0  0  0  0  0  0
   -1.2977    1.2485    0.0000 C   0  0  0  0  0  0  0  0  0  0  0  0
   -2.0123    1.6609    0.0000 C   0  0  0  0  0  0  0  0  0  0  0  0
   -2.7264    1.2485    0.0000 C   0  0  0  0  0  0  0  0  0  0  0  0
    0.8454    0.0115    0.0000 C   0  0  0  0  0  0  0  0  0  0  0  0
    1.5598    0.4240    0.0000 C   0  0  0  0  0  0  0  0  0  0  0  0
    1.5597    1.2490    0.0000 C   0  0  0  0  0  0  0  0  0  0  0  0
    0.8452    1.6615    0.0000 C   0  0  0  0  0  0  0  0  0  0  0  0
    2.3445    0.1692    0.0000 N   0  0  0  0  0  0  0  0  0  0  0  0
    2.8293    0.8367    0.0000 C   0  0  0  0  0  0  0  0  0  0  0  0
    2.3442    1.5041    0.0000 C   0  0  0  0  0  0  0  0  0  0  0  0
    3.6498    0.9230    0.0000 C   0  0  0  0  0  0  0  0  0  0  0  0
    3.9852    1.6768    0.0000 C   0  0  0  0  0  0  0  0  0  0  0  0
    3.5002    2.3442    0.0000 C   0  0  0  0  0  0  0  0  0  0  0  0
    2.6797    2.2578    0.0000 C   0  0  0  0  0  0  0  0  0  0  0  0
    4.7974    1.7624    0.0000 C   0  0  0  0  0  0  0  0  0  0  0  0
    5.5944    1.8521    0.0000 N   0  0  0  0  0  0  0  0  0  0  0  0
    0.8450    2.4750    0.0000 O   0  0  0  0  0  0  0  0  0  0  0  0
    1.2449   -0.7191    0.0000 C   0  0  0  0  0  0  0  0  0  0  0  0
    0.4092   -0.7032    0.0000 C   0  0  0  0  0  0  0  0  0  0  0  0
  1  2  1  0  0  0  0
  2  3  1  0  0  0  0
  3  4  1  0  0  0  0
  4  5  1  0  0  0  0
  5  6  1  0  0  0  0
  1  6  1  0  0  0  0
  5  7  1  0  0  0  0
  7  8  1  0  0  0  0
  8  9  1  0  0  0  0
  9 10  1  0  0  0  0
 10 11  1  0  0  0  0
 11 12  1  0  0  0  0
  7 12  1  0  0  0  0
 10 13  1  0  0  0  0
 13 14  2  0  0  0  0
 14 15  1  0  0  0  0
 15 16  2  0  0  0  0
 16 17  1  0  0  0  0
 17 18  2  0  0  0  0
 13 18  1  0  0  0  0
 18 19  1  0  0  0  0
 19 20  1  0  0  0  0
 15 21  1  0  0  0  0
 21 22  1  0  0  0  0
 22 23  2  0  0  0  0
 23 24  1  0  0  0  0
 16 24  1  0  0  0  0
 22 25  1  0  0  0  0
 25 26  1  0  0  0  0
 26 27  1  0  0  0  0
 23 27  1  0  0  0  0
 26 28  2  0  0  0  0
 28 29  1  0  0  0  0
 29 30  2  0  0  0  0
 30 31  1  0  0  0  0
 27 31  2  0  0  0  0
 29 32  1  0  0  0  0
 32 33  3  0  0  0  0
 24 34  2  0  0  0  0
 21 35  1  0  0  0  0
 21 36  1  0  0  0  0
M  END
> <DATABASE_ID>
DB11363

> <DATABASE_NAME>
drugbank

> <SMILES>
CCC1=CC2=C(C=C1N1CCC(CC1)N1CCOCC1)C(C)(C)C1=C(C3=CC=C(C=C3N1)C#N)C2=O

> <INCHI_IDENTIFIER>
InChI=1S/C30H34N4O2/c1-4-20-16-23-24(17-26(20)34-9-7-21(8-10-34)33-11-13-36-14-12-33)30(2,3)29-27(28(23)35)22-6-5-19(18-31)15-25(22)32-29/h5-6,15-17,21,32H,4,7-14H2,1-3H3

> <INCHI_KEY>
KDGFLJKFZUIJMX-UHFFFAOYSA-N

> <FORMULA>
C30H34N4O2

> <MOLECULAR_WEIGHT>
482.6166

> <EXACT_MASS>
482.268176352

> <JCHEM_ACCEPTOR_COUNT>
5

> <JCHEM_ATOM_COUNT>
70

> <JCHEM_AVERAGE_NEUTRAL_MICROSPECIES_CHARGE>
1.993695571063484

> <JCHEM_AVERAGE_POLARIZABILITY>
56.55946783140417

> <JCHEM_BIOAVAILABILITY>
1

> <JCHEM_DONOR_COUNT>
1

> <JCHEM_FORMAL_CHARGE>
0

> <JCHEM_GHOSE_FILTER>
0

> <JCHEM_IUPAC>
9-ethyl-6,6-dimethyl-8-[4-(morpholin-4-yl)piperidin-1-yl]-11-oxo-5H,6H,11H-benzo[b]carbazole-3-carbonitrile

> <ALOGPS_LOGP>
5.59

> <JCHEM_LOGP>
4.887412174

> <ALOGPS_LOGS>
-4.66

> <JCHEM_MDDR_LIKE_RULE>
0

> <JCHEM_NEUTRAL_CHARGE>
1

> <JCHEM_NUMBER_OF_RINGS>
6

> <JCHEM_PHYSIOLOGICAL_CHARGE>
1

> <JCHEM_PKA_STRONGEST_ACIDIC>
12.179207025196979

> <JCHEM_PKA_STRONGEST_BASIC>
7.592472408258664

> <JCHEM_POLAR_SURFACE_AREA>
72.36

> <JCHEM_REFRACTIVITY>
155.1128

> <JCHEM_ROTATABLE_BOND_COUNT>
3

> <JCHEM_RULE_OF_FIVE>
1

> <ALOGPS_SOLUBILITY>
1.05e-02 g/l

> <JCHEM_TRADITIONAL_IUPAC>
alectinib

> <JCHEM_VEBER_RULE>
0

> <DRUGBANK_ID>
DB11363

> <DRUG_GROUPS>
approved; investigational

> <GENERIC_NAME>
Alectinib

> <SYNONYMS>
9-ethyl-6,6-dimethyl-8-[4-(morpholin-4-yl)piperidin-1-yl]-11-oxo-6,11-dihydro-5H-benzo[b]carbazole-3-carbonitrile; Alectinib

> <PRODUCTS>
Alecensa; Alecensaro

> <INTERNATIONAL_BRANDS>
Alecensa

> <SALTS>
Alectinib hydrochloride

$$$$
