
  Mrv1533004161501422D          

 30 29  0  0  0  0            999 V2000
   10.9461    7.1447    0.0000 C   0  0  0  0  0  0  0  0  0  0  0  0
   11.6605    7.5572    0.0000 C   0  0  0  0  0  0  0  0  0  0  0  0
   11.6605    8.3822    0.0000 C   0  0  0  0  0  0  0  0  0  0  0  0
   12.3750    7.1447    0.0000 C   0  0  0  0  0  0  0  0  0  0  0  0
   13.0895    7.5572    0.0000 C   0  0  0  0  0  0  0  0  0  0  0  0
   13.8039    7.1447    0.0000 C   0  0  0  0  0  0  0  0  0  0  0  0
   14.5184    7.5572    0.0000 C   0  0  0  0  0  0  0  0  0  0  0  0
   14.5184    8.3822    0.0000 C   0  0  0  0  0  0  0  0  0  0  0  0
   15.2329    7.1447    0.0000 C   0  0  0  0  0  0  0  0  0  0  0  0
   15.9474    7.5572    0.0000 C   0  0  0  0  0  0  0  0  0  0  0  0
   16.6618    7.1447    0.0000 C   0  0  0  0  0  0  0  0  0  0  0  0
   17.3763    7.5572    0.0000 C   0  0  0  0  0  0  0  0  0  0  0  0
   17.3763    8.3822    0.0000 C   0  0  0  0  0  0  0  0  0  0  0  0
   18.0908    7.1447    0.0000 C   0  0  0  0  0  0  0  0  0  0  0  0
   18.8052    7.5572    0.0000 C   0  0  0  0  0  0  0  0  0  0  0  0
   19.5197    7.1447    0.0000 C   0  0  0  0  0  0  0  0  0  0  0  0
   20.2342    7.5572    0.0000 C   0  0  0  0  0  0  0  0  0  0  0  0
   20.9487    7.1447    0.0000 C   0  0  0  0  0  0  0  0  0  0  0  0
   20.9487    6.3197    0.0000 C   0  0  0  0  0  0  0  0  0  0  0  0
   21.6631    7.5572    0.0000 C   0  0  0  0  0  0  0  0  0  0  0  0
   22.3776    7.1447    0.0000 C   0  0  0  0  0  0  0  0  0  0  0  0
   23.0921    7.5572    0.0000 C   0  0  0  0  0  0  0  0  0  0  0  0
   23.8065    7.1447    0.0000 C   0  0  0  0  0  0  0  0  0  0  0  0
   23.8065    6.3197    0.0000 C   0  0  0  0  0  0  0  0  0  0  0  0
   24.5210    7.5572    0.0000 C   0  0  0  0  0  0  0  0  0  0  0  0
   25.2355    7.1447    0.0000 C   0  0  0  0  0  0  0  0  0  0  0  0
   25.9499    7.5572    0.0000 C   0  0  0  0  0  0  0  0  0  0  0  0
   26.6644    7.1447    0.0000 C   0  0  0  0  0  0  0  0  0  0  0  0
   27.3789    7.5572    0.0000 C   0  0  0  0  0  0  0  0  0  0  0  0
   26.6644    6.3197    0.0000 C   0  0  0  0  0  0  0  0  0  0  0  0
  1  2  1  0  0  0  0
  2  3  1  0  0  0  0
  2  4  1  0  0  0  0
  4  5  1  0  0  0  0
  5  6  1  0  0  0  0
  6  7  1  0  0  0  0
  7  8  1  0  0  0  0
  7  9  1  0  0  0  0
  9 10  1  0  0  0  0
 10 11  1  0  0  0  0
 11 12  1  0  0  0  0
 12 13  1  0  0  0  0
 12 14  1  0  0  0  0
 14 15  1  0  0  0  0
 15 16  1  0  0  0  0
 16 17  1  0  0  0  0
 17 18  1  0  0  0  0
 18 19  1  0  0  0  0
 18 20  1  0  0  0  0
 20 21  1  0  0  0  0
 21 22  1  0  0  0  0
 22 23  1  0  0  0  0
 23 24  1  0  0  0  0
 23 25  1  0  0  0  0
 25 26  1  0  0  0  0
 26 27  1  0  0  0  0
 27 28  1  0  0  0  0
 28 29  1  0  0  0  0
 28 30  1  0  0  0  0
M  END
> <DATABASE_ID>
DB11420

> <DATABASE_NAME>
drugbank

> <SMILES>
CC(C)CCCC(C)CCCC(C)CCCCC(C)CCCC(C)CCCC(C)C

> <INCHI_IDENTIFIER>
InChI=1S/C30H62/c1-25(2)15-11-19-29(7)23-13-21-27(5)17-9-10-18-28(6)22-14-24-30(8)20-12-16-26(3)4/h25-30H,9-24H2,1-8H3

> <INCHI_KEY>
PRAKJMSDJKAYCZ-UHFFFAOYSA-N

> <FORMULA>
C30H62

> <MOLECULAR_WEIGHT>
422.826

> <EXACT_MASS>
422.485151996

> <JCHEM_ACCEPTOR_COUNT>
0

> <JCHEM_ATOM_COUNT>
92

> <JCHEM_AVERAGE_POLARIZABILITY>
60.293918919594844

> <JCHEM_BIOAVAILABILITY>
0

> <JCHEM_DONOR_COUNT>
0

> <JCHEM_FORMAL_CHARGE>
0

> <JCHEM_GHOSE_FILTER>
0

> <JCHEM_IUPAC>
2,6,10,15,19,23-hexamethyltetracosane

> <ALOGPS_LOGP>
10.43

> <JCHEM_LOGP>
12.855488440666665

> <ALOGPS_LOGS>
-8.05

> <JCHEM_MDDR_LIKE_RULE>
0

> <JCHEM_NUMBER_OF_RINGS>
0

> <JCHEM_PHYSIOLOGICAL_CHARGE>
0

> <JCHEM_POLAR_SURFACE_AREA>
0.0

> <JCHEM_REFRACTIVITY>
139.5178

> <JCHEM_ROTATABLE_BOND_COUNT>
21

> <JCHEM_RULE_OF_FIVE>
0

> <ALOGPS_SOLUBILITY>
3.74e-06 g/l

> <JCHEM_TRADITIONAL_IUPAC>
squalane

> <JCHEM_VEBER_RULE>
0

> <DRUGBANK_ID>
DB11420

> <DRUG_GROUPS>
experimental; vet_approved

> <GENERIC_NAME>
Squalane

> <SYNONYMS>
Hexamethyltetracosane

> <PRODUCTS>
WELLAGE Deep Layer Silky Facial Oil

$$$$
