
  Mrv1909 09202120492D          

 24 26  0  0  0  0            999 V2000
   -0.3877    0.3875    0.0000 O   0  0  0  0  0  0  0  0  0  0  0  0
    0.3332   -0.0339    0.0000 C   0  0  1  0  0  0  0  0  0  0  0  0
    0.3332   -0.8636    0.0000 C   0  0  2  0  0  0  0  0  0  0  0  0
   -0.3742   -1.2898    0.0000 O   0  0  0  0  0  0  0  0  0  0  0  0
   -0.3742   -2.0696    0.0000 C   0  0  0  0  0  0  0  0  0  0  0  0
    0.3332   -2.4279    0.0000 C   0  0  0  0  0  0  0  0  0  0  0  0
    1.0405   -1.9927    0.0000 N   0  0  0  0  0  0  0  0  0  0  0  0
    1.0405   -1.2082    0.0000 C   0  0  0  0  0  0  0  0  0  0  0  0
    1.2726   -0.6934    0.0000 H   0  0  0  0  0  0  0  0  0  0  0  0
    1.0494    0.3875    0.0000 C   0  0  0  0  0  0  0  0  0  0  0  0
    1.0494    1.2128    0.0000 C   0  0  0  0  0  0  0  0  0  0  0  0
    1.7568    1.6344    0.0000 C   0  0  0  0  0  0  0  0  0  0  0  0
    2.4822    1.2219    0.0000 C   0  0  0  0  0  0  0  0  0  0  0  0
    2.4822    0.3876    0.0000 C   0  0  0  0  0  0  0  0  0  0  0  0
    1.7704   -0.0294    0.0000 C   0  0  0  0  0  0  0  0  0  0  0  0
   -1.1040   -0.0339    0.0000 C   0  0  0  0  0  0  0  0  0  0  0  0
   -1.7659    0.3558    0.0000 C   0  0  0  0  0  0  0  0  0  0  0  0
   -1.7659    1.1856    0.0000 O   0  0  0  0  0  0  0  0  0  0  0  0
   -2.4822    1.6026    0.0000 C   0  0  0  0  0  0  0  0  0  0  0  0
   -2.4822    2.4279    0.0000 C   0  0  0  0  0  0  0  0  0  0  0  0
   -2.4461   -0.0248    0.0000 C   0  0  0  0  0  0  0  0  0  0  0  0
   -2.4461   -0.7957    0.0000 C   0  0  0  0  0  0  0  0  0  0  0  0
   -1.7750   -1.1856    0.0000 C   0  0  0  0  0  0  0  0  0  0  0  0
   -1.1040   -0.8047    0.0000 C   0  0  0  0  0  0  0  0  0  0  0  0
  2  1  1  0  0  0  0
  3  2  1  0  0  0  0
  3  4  1  0  0  0  0
  5  4  1  0  0  0  0
  6  5  1  0  0  0  0
  6  7  1  0  0  0  0
  7  8  1  0  0  0  0
  8  3  1  0  0  0  0
  3  9  1  6  0  0  0
  2 10  1  6  0  0  0
 11 10  1  0  0  0  0
 12 11  2  0  0  0  0
 13 12  1  0  0  0  0
 13 14  2  0  0  0  0
 14 15  1  0  0  0  0
 15 10  2  0  0  0  0
 16  1  1  0  0  0  0
 17 16  1  0  0  0  0
 18 17  1  0  0  0  0
 19 18  1  0  0  0  0
 20 19  1  0  0  0  0
 21 17  2  0  0  0  0
 22 21  1  0  0  0  0
 22 23  2  0  0  0  0
 23 24  1  0  0  0  0
 24 16  2  0  0  0  0
M  END
> <DATABASE_ID>
DB00234

> <DATABASE_NAME>
drugbank

> <SMILES>
[H][C@@]1(CNCCO1)[C@H](OC1=CC=CC=C1OCC)C1=CC=CC=C1

> <INCHI_IDENTIFIER>
InChI=1S/C19H23NO3/c1-2-21-16-10-6-7-11-17(16)23-19(15-8-4-3-5-9-15)18-14-20-12-13-22-18/h3-11,18-20H,2,12-14H2,1H3/t18-,19-/m1/s1

> <INCHI_KEY>
CBQGYUDMJHNJBX-RTBURBONSA-N

> <FORMULA>
C19H23NO3

> <MOLECULAR_WEIGHT>
313.397

> <EXACT_MASS>
313.167793605

> <JCHEM_ACCEPTOR_COUNT>
4

> <JCHEM_ATOM_COUNT>
46

> <JCHEM_AVERAGE_NEUTRAL_MICROSPECIES_CHARGE>
0.8905660813058116

> <JCHEM_AVERAGE_POLARIZABILITY>
34.492682213439885

> <JCHEM_BIOAVAILABILITY>
1

> <JCHEM_DONOR_COUNT>
1

> <JCHEM_FORMAL_CHARGE>
0

> <JCHEM_GHOSE_FILTER>
1

> <JCHEM_IUPAC>
(2R)-2-[(R)-(2-ethoxyphenoxy)(phenyl)methyl]morpholine

> <ALOGPS_LOGP>
3.06

> <JCHEM_LOGP>
3.27581463

> <ALOGPS_LOGS>
-4.15

> <JCHEM_MDDR_LIKE_RULE>
1

> <JCHEM_NEUTRAL_CHARGE>
1

> <JCHEM_NUMBER_OF_RINGS>
3

> <JCHEM_PHYSIOLOGICAL_CHARGE>
1

> <JCHEM_PKA_STRONGEST_BASIC>
7.910514199220149

> <JCHEM_POLAR_SURFACE_AREA>
39.72

> <JCHEM_REFRACTIVITY>
89.48490000000004

> <JCHEM_ROTATABLE_BOND_COUNT>
6

> <JCHEM_RULE_OF_FIVE>
1

> <ALOGPS_SOLUBILITY>
2.23e-02 g/l

> <JCHEM_TRADITIONAL_IUPAC>
reboxetine

> <JCHEM_VEBER_RULE>
1

> <DRUGBANK_ID>
DB00234

> <SECONDARY_ACCESSION_NUMBERS>
APRD00198

> <DRUG_GROUPS>
approved; experimental

> <GENERIC_NAME>
Reboxetine

> <SYNONYMS>
Reboxetina; Reboxetine

> <INTERNATIONAL_BRANDS>
Davedax; Edronax; Norebox; Prolift; Solvex; Vestra

> <SALTS>
Reboxetine mesilate

$$$$
