
  Mrv1909 05192017502D          

 33 36  0  0  0  0            999 V2000
   -4.9959    1.6463    0.0000 C   0  0  0  0  0  0  0  0  0  0  0  0
   -4.9971    0.8189    0.0000 C   0  0  0  0  0  0  0  0  0  0  0  0
   -4.2823    0.4060    0.0000 C   0  0  0  0  0  0  0  0  0  0  0  0
   -3.5658    0.8194    0.0000 C   0  0  0  0  0  0  0  0  0  0  0  0
   -3.5687    1.6499    0.0000 C   0  0  0  0  0  0  0  0  0  0  0  0
   -4.2841    2.0590    0.0000 C   0  0  0  0  0  0  0  0  0  0  0  0
   -2.8508    0.4080    0.0000 N   0  0  0  0  0  0  0  0  0  0  0  0
   -2.1370    0.8216    0.0000 C   0  0  0  0  0  0  0  0  0  0  0  0
   -1.4219    0.4102    0.0000 N   0  0  0  0  0  0  0  0  0  0  0  0
   -0.7081    0.8239    0.0000 C   0  0  0  0  0  0  0  0  0  0  0  0
   -2.1383    1.6466    0.0000 O   0  0  0  0  0  0  0  0  0  0  0  0
    0.0057    0.4111    0.0000 C   0  0  0  0  0  0  0  0  0  0  0  0
    0.7190    0.8241    0.0000 C   0  0  0  0  0  0  0  0  0  0  0  0
    0.7181    1.6499    0.0000 C   0  0  0  0  0  0  0  0  0  0  0  0
   -0.0020    2.0611    0.0000 C   0  0  0  0  0  0  0  0  0  0  0  0
   -0.7123    1.6459    0.0000 C   0  0  0  0  0  0  0  0  0  0  0  0
   -1.4289    2.0546    0.0000 F   0  0  0  0  0  0  0  0  0  0  0  0
    1.4314    2.0644    0.0000 Br  0  0  0  0  0  0  0  0  0  0  0  0
    1.4339    0.4123    0.0000 C   0  0  0  0  0  0  0  0  0  0  0  0
    1.4288   -0.4175    0.0000 C   0  0  0  0  0  0  0  0  0  0  0  0
    2.1396   -0.8291    0.0000 N   0  0  0  0  0  0  0  0  0  0  0  0
    2.1417    0.8227    0.0000 C   0  0  0  0  0  0  0  0  0  0  0  0
    2.8570    0.4065    0.0000 C   0  0  0  0  0  0  0  0  0  0  0  0
    2.8551   -0.4204    0.0000 C   0  0  0  0  0  0  0  0  0  0  0  0
    3.5663   -0.8333    0.0000 C   0  0  0  0  0  0  0  0  0  0  0  0
    4.2842   -0.4238    0.0000 C   0  0  0  0  0  0  0  0  0  0  0  0
    4.2862    0.4031    0.0000 N   0  0  0  0  0  0  0  0  0  0  0  0
    3.5703    0.8206    0.0000 C   0  0  0  0  0  0  0  0  0  0  0  0
    0.7128   -0.8273    0.0000 O   0  0  0  0  0  0  0  0  0  0  0  0
    2.1371   -1.6540    0.0000 C   0  0  0  0  0  0  0  0  0  0  0  0
    1.4214   -2.0644    0.0000 C   0  0  0  0  0  0  0  0  0  0  0  0
    4.9971   -0.8391    0.0000 N   0  0  0  0  0  0  0  0  0  0  0  0
    4.9939   -1.6641    0.0000 C   0  0  0  0  0  0  0  0  0  0  0  0
 16 10  1  0  0  0  0
  7  8  1  0  0  0  0
 16 17  1  0  0  0  0
 14 18  1  0  0  0  0
  8  9  1  0  0  0  0
 13 19  1  0  0  0  0
 19 20  1  0  0  0  0
  4  5  1  0  0  0  0
  9 10  1  0  0  0  0
  2  3  1  0  0  0  0
 19 22  2  0  0  0  0
 20 21  1  0  0  0  0
 21 24  1  0  0  0  0
 23 22  1  0  0  0  0
 23 24  2  0  0  0  0
  8 11  2  0  0  0  0
  5  6  2  0  0  0  0
 10 12  2  0  0  0  0
  6  1  1  0  0  0  0
 12 13  1  0  0  0  0
  1  2  2  0  0  0  0
 23 28  1  0  0  0  0
 24 25  1  0  0  0  0
 25 26  2  0  0  0  0
 26 27  1  0  0  0  0
 27 28  2  0  0  0  0
 13 14  2  0  0  0  0
 20 29  2  0  0  0  0
  4  7  1  0  0  0  0
 21 30  1  0  0  0  0
 14 15  1  0  0  0  0
 30 31  1  0  0  0  0
  3  4  2  0  0  0  0
 26 32  1  0  0  0  0
 15 16  2  0  0  0  0
 32 33  1  0  0  0  0
M  END
> <DATABASE_ID>
DB14840

> <DATABASE_NAME>
drugbank

> <SMILES>
CCN1C(=O)C(=CC2=C1C=C(NC)N=C2)C1=C(Br)C=C(F)C(NC(=O)NC2=CC=CC=C2)=C1

> <INCHI_IDENTIFIER>
InChI=1S/C24H21BrFN5O2/c1-3-31-21-12-22(27-2)28-13-14(21)9-17(23(31)32)16-10-20(19(26)11-18(16)25)30-24(33)29-15-7-5-4-6-8-15/h4-13H,3H2,1-2H3,(H,27,28)(H2,29,30,33)

> <INCHI_KEY>
CEFJVGZHQAGLHS-UHFFFAOYSA-N

> <FORMULA>
C24H21BrFN5O2

> <MOLECULAR_WEIGHT>
510.367

> <EXACT_MASS>
509.086266

> <JCHEM_ACCEPTOR_COUNT>
4

> <JCHEM_ATOM_COUNT>
54

> <JCHEM_AVERAGE_NEUTRAL_MICROSPECIES_CHARGE>
1.0791285994283104

> <JCHEM_AVERAGE_POLARIZABILITY>
47.20722145499343

> <JCHEM_BIOAVAILABILITY>
1

> <JCHEM_DONOR_COUNT>
3

> <JCHEM_FORMAL_CHARGE>
0

> <JCHEM_GHOSE_FILTER>
0

> <JCHEM_IUPAC>
1-{4-bromo-5-[1-ethyl-7-(methylamino)-2-oxo-1,2-dihydro-1,6-naphthyridin-3-yl]-2-fluorophenyl}-3-phenylurea

> <ALOGPS_LOGP>
4.30

> <JCHEM_LOGP>
4.392531297333334

> <ALOGPS_LOGS>
-4.94

> <JCHEM_MDDR_LIKE_RULE>
0

> <JCHEM_NEUTRAL_CHARGE>
0

> <JCHEM_NUMBER_OF_RINGS>
4

> <JCHEM_PHYSIOLOGICAL_CHARGE>
0

> <JCHEM_PKA>
18.047528281355657

> <JCHEM_PKA_STRONGEST_ACIDIC>
10.3386087334983

> <JCHEM_PKA_STRONGEST_BASIC>
5.852722619792451

> <JCHEM_POLAR_SURFACE_AREA>
86.36

> <JCHEM_REFRACTIVITY>
133.7802

> <JCHEM_ROTATABLE_BOND_COUNT>
5

> <JCHEM_RULE_OF_FIVE>
0

> <ALOGPS_SOLUBILITY>
5.83e-03 g/l

> <JCHEM_TRADITIONAL_IUPAC>
1-{4-bromo-5-[1-ethyl-7-(methylamino)-2-oxo-1,6-naphthyridin-3-yl]-2-fluorophenyl}-3-phenylurea

> <JCHEM_VEBER_RULE>
0

> <DRUGBANK_ID>
DB14840

> <DRUG_GROUPS>
approved

> <GENERIC_NAME>
Ripretinib

> <SYNONYMS>
Ripretinib

> <PRODUCTS>
Qinlock

$$$$
