
  Mrv1652306231722392D          

 12 12  0  0  1  0            999 V2000
    0.7145    2.0625    0.0000 C   0  0  0  0  0  0  0  0  0  0  0  0
    0.7145    1.2375    0.0000 C   0  0  0  0  0  0  0  0  0  0  0  0
    1.4289    0.8250    0.0000 C   0  0  0  0  0  0  0  0  0  0  0  0
    1.4289   -0.0000    0.0000 C   0  0  0  0  0  0  0  0  0  0  0  0
    0.7145   -0.4125    0.0000 C   0  0  2  0  0  0  0  0  0  0  0  0
    0.0000    0.0000    0.0000 C   0  0  0  0  0  0  0  0  0  0  0  0
    0.0000    0.8250    0.0000 C   0  0  2  0  0  0  0  0  0  0  0  0
   -0.7145    1.2375    0.0000 O   0  0  0  0  0  0  0  0  0  0  0  0
    0.7145   -1.2375    0.0000 C   0  0  0  0  0  0  0  0  0  0  0  0
    0.7145   -2.0625    0.0000 C   0  0  0  0  0  0  0  0  0  0  0  0
   -0.1105   -1.2375    0.0000 C   0  0  0  0  0  0  0  0  0  0  0  0
    1.5395   -1.2375    0.0000 O   0  0  0  0  0  0  0  0  0  0  0  0
  1  2  1  0  0  0  0
  2  3  2  0  0  0  0
  3  4  1  0  0  0  0
  4  5  1  0  0  0  0
  5  6  1  0  0  0  0
  6  7  1  0  0  0  0
  2  7  1  0  0  0  0
  7  8  1  6  0  0  0
  5  9  1  1  0  0  0
  9 10  1  0  0  0  0
  9 11  1  0  0  0  0
  9 12  1  0  0  0  0
M  END
> <DATABASE_ID>
DB13315

> <DATABASE_NAME>
drugbank

> <SMILES>
CC1=CC[C@H](C[C@@H]1O)C(C)(C)O

> <INCHI_IDENTIFIER>
InChI=1S/C10H18O2/c1-7-4-5-8(6-9(7)11)10(2,3)12/h4,8-9,11-12H,5-6H2,1-3H3/t8-,9+/m1/s1

> <INCHI_KEY>
OMDMTHRBGUBUCO-BDAKNGLRSA-N

> <FORMULA>
C10H18O2

> <MOLECULAR_WEIGHT>
170.252

> <EXACT_MASS>
170.13067982

> <JCHEM_ACCEPTOR_COUNT>
2

> <JCHEM_ATOM_COUNT>
30

> <JCHEM_AVERAGE_POLARIZABILITY>
19.57686319770869

> <JCHEM_BIOAVAILABILITY>
1

> <JCHEM_DONOR_COUNT>
2

> <JCHEM_FORMAL_CHARGE>
0

> <JCHEM_GHOSE_FILTER>
1

> <JCHEM_IUPAC>
(1S,5R)-5-(2-hydroxypropan-2-yl)-2-methylcyclohex-2-en-1-ol

> <ALOGPS_LOGP>
1.54

> <JCHEM_LOGP>
0.943486440666667

> <ALOGPS_LOGS>
-0.82

> <JCHEM_MDDR_LIKE_RULE>
0

> <JCHEM_NUMBER_OF_RINGS>
1

> <JCHEM_PHYSIOLOGICAL_CHARGE>
0

> <JCHEM_PKA>
15.19437894598693

> <JCHEM_PKA_STRONGEST_ACIDIC>
14.479259571480881

> <JCHEM_PKA_STRONGEST_BASIC>
-2.7752756389172895

> <JCHEM_POLAR_SURFACE_AREA>
40.46

> <JCHEM_REFRACTIVITY>
49.977399999999996

> <JCHEM_ROTATABLE_BOND_COUNT>
1

> <JCHEM_RULE_OF_FIVE>
1

> <ALOGPS_SOLUBILITY>
2.60e+01 g/l

> <JCHEM_TRADITIONAL_IUPAC>
(1S,5R)-5-(2-hydroxypropan-2-yl)-2-methylcyclohex-2-en-1-ol

> <JCHEM_VEBER_RULE>
0

> <DRUGBANK_ID>
DB13315

> <DRUG_GROUPS>
experimental

> <GENERIC_NAME>
Sobrerol

$$$$
