
  Mrv1572001261616522D          

 24 26  0  0  0  0            999 V2000
    4.2868    4.1250    0.0000 C   0  0  0  0  0  0  0  0  0  0  0  0
    4.2868    4.9500    0.0000 C   0  0  0  0  0  0  0  0  0  0  0  0
   -0.7145    2.8875    0.0000 C   0  0  0  0  0  0  0  0  0  0  0  0
   -1.4289    2.4750    0.0000 C   0  0  0  0  0  0  0  0  0  0  0  0
    3.5724    3.7125    0.0000 C   0  0  0  0  0  0  0  0  0  0  0  0
   -3.5724    2.8875    0.0000 C   0  0  0  0  0  0  0  0  0  0  0  0
   -2.8579    1.6500    0.0000 C   0  0  0  0  0  0  0  0  0  0  0  0
   -4.2868    2.4750    0.0000 C   0  0  0  0  0  0  0  0  0  0  0  0
   -3.5724    1.2375    0.0000 C   0  0  0  0  0  0  0  0  0  0  0  0
    3.5724    5.3625    0.0000 C   0  0  0  0  0  0  0  0  0  0  0  0
    0.0000    2.4750    0.0000 C   0  0  0  0  0  0  0  0  0  0  0  0
    1.4289    2.4750    0.0000 C   0  0  0  0  0  0  0  0  0  0  0  0
    0.7145    3.7125    0.0000 C   0  0  0  0  0  0  0  0  0  0  0  0
    2.1434    2.8875    0.0000 C   0  0  0  0  0  0  0  0  0  0  0  0
    1.4289    4.1250    0.0000 C   0  0  0  0  0  0  0  0  0  0  0  0
   -2.8579    2.4750    0.0000 C   0  0  0  0  0  0  0  0  0  0  0  0
   -4.2868    1.6500    0.0000 C   0  0  0  0  0  0  0  0  0  0  0  0
   -2.1434    2.8875    0.0000 C   0  0  0  0  0  0  0  0  0  0  0  0
    2.8579    4.1250    0.0000 C   0  0  0  0  0  0  0  0  0  0  0  0
   -5.0013    1.2375    0.0000 F   0  0  0  0  0  0  0  0  0  0  0  0
    2.8579    4.9500    0.0000 N   0  0  0  0  0  0  0  0  0  0  0  0
    0.7145    2.8875    0.0000 N   0  0  0  0  0  0  0  0  0  0  0  0
    2.1434    3.7125    0.0000 N   0  0  0  0  0  0  0  0  0  0  0  0
   -2.1434    3.7125    0.0000 O   0  0  0  0  0  0  0  0  0  0  0  0
  2  1  2  0  0  0  0
  4  3  1  0  0  0  0
  5  1  1  0  0  0  0
  8  6  1  0  0  0  0
  9  7  2  0  0  0  0
 10  2  1  0  0  0  0
 11  3  1  0  0  0  0
 14 12  1  0  0  0  0
 15 13  1  0  0  0  0
 16  6  2  0  0  0  0
 16  7  1  0  0  0  0
 17  8  2  0  0  0  0
 17  9  1  0  0  0  0
 18  4  1  0  0  0  0
 18 16  1  0  0  0  0
 19  5  2  0  0  0  0
 20 17  1  0  0  0  0
 21 10  2  0  0  0  0
 21 19  1  0  0  0  0
 22 11  1  0  0  0  0
 22 12  1  0  0  0  0
 22 13  1  0  0  0  0
 23 14  1  0  0  0  0
 23 15  1  0  0  0  0
 23 19  1  0  0  0  0
 24 18  2  0  0  0  0
M  END
> <DATABASE_ID>
DB11376

> <DATABASE_NAME>
drugbank

> <SMILES>
FC1=CC=C(C=C1)C(=O)CCCN1CCN(CC1)C1=CC=CC=N1

> <INCHI_IDENTIFIER>
InChI=1S/C19H22FN3O/c20-17-8-6-16(7-9-17)18(24)4-3-11-22-12-14-23(15-13-22)19-5-1-2-10-21-19/h1-2,5-10H,3-4,11-15H2

> <INCHI_KEY>
XTKDAFGWCDAMPY-UHFFFAOYSA-N

> <FORMULA>
C19H22FN3O

> <MOLECULAR_WEIGHT>
327.403

> <EXACT_MASS>
327.174690503

> <JCHEM_ACCEPTOR_COUNT>
4

> <JCHEM_ATOM_COUNT>
46

> <JCHEM_AVERAGE_POLARIZABILITY>
36.194250533790424

> <JCHEM_BIOAVAILABILITY>
1

> <JCHEM_DONOR_COUNT>
0

> <JCHEM_FORMAL_CHARGE>
0

> <JCHEM_GHOSE_FILTER>
1

> <JCHEM_IUPAC>
1-(4-fluorophenyl)-4-[4-(pyridin-2-yl)piperazin-1-yl]butan-1-one

> <ALOGPS_LOGP>
2.73

> <JCHEM_LOGP>
3.2057925916666665

> <ALOGPS_LOGS>
-3.15

> <JCHEM_MDDR_LIKE_RULE>
1

> <JCHEM_NUMBER_OF_RINGS>
3

> <JCHEM_PHYSIOLOGICAL_CHARGE>
1

> <JCHEM_PKA_STRONGEST_ACIDIC>
16.395237469376603

> <JCHEM_PKA_STRONGEST_BASIC>
7.162784713484251

> <JCHEM_POLAR_SURFACE_AREA>
36.440000000000005

> <JCHEM_REFRACTIVITY>
94.2658

> <JCHEM_ROTATABLE_BOND_COUNT>
6

> <JCHEM_RULE_OF_FIVE>
1

> <ALOGPS_SOLUBILITY>
2.30e-01 g/l

> <JCHEM_TRADITIONAL_IUPAC>
azaperone

> <JCHEM_VEBER_RULE>
1

> <DRUGBANK_ID>
DB11376

> <DRUG_GROUPS>
investigational; vet_approved

> <GENERIC_NAME>
Azaperone

> <SYNONYMS>
1-(3-(4-Fluorobenzoyl)propyl)-4-(2-pyridyl)piperazine; 1-(4-Fluorophenyl)-4-[4-(2-pyridinyl)-1-piperazinyl]-1-butanone; 4'-Fluoro-4-(4-(2-pyridyl)-1-piperazinyl)butyrophenone; Azaperon; Azaperona; Azaperone; Azaperonum

> <INTERNATIONAL_BRANDS>
Stresnil

$$$$
