
  Mrv1909 05201914312D          

 39 43  0  0  0  0            999 V2000
    6.0589   -3.7449    0.0000 C   0  0  0  0  0  0  0  0  0  0  0  0
    6.7734   -3.3324    0.0000 C   0  0  0  0  0  0  0  0  0  0  0  0
    7.4879   -3.7449    0.0000 N   0  0  0  0  0  0  0  0  0  0  0  0
    7.4879   -4.5699    0.0000 C   0  0  0  0  0  0  0  0  0  0  0  0
    6.7734   -4.9824    0.0000 C   0  0  0  0  0  0  0  0  0  0  0  0
    8.2023   -3.3324    0.0000 C   0  0  0  0  0  0  0  0  0  0  0  0
    8.9168   -3.7449    0.0000 C   0  0  0  0  0  0  0  0  0  0  0  0
    9.6313   -3.3324    0.0000 N   0  0  0  0  0  0  0  0  0  0  0  0
   10.3458   -3.7449    0.0000 C   0  0  0  0  0  0  0  0  0  0  0  0
   10.3458   -4.5699    0.0000 O   0  0  0  0  0  0  0  0  0  0  0  0
   11.0602   -3.3324    0.0000 C   0  0  0  0  0  0  0  0  0  0  0  0
   11.1465   -2.5119    0.0000 C   0  0  0  0  0  0  0  0  0  0  0  0
   10.5334   -1.9599    0.0000 C   0  0  0  0  0  0  0  0  0  0  0  0
   11.9534   -2.3404    0.0000 N   0  0  0  0  0  0  0  0  0  0  0  0
   12.3659   -3.0548    0.0000 C   0  0  0  0  0  0  0  0  0  0  0  0
   13.1864   -3.1411    0.0000 C   0  0  0  0  0  0  0  0  0  0  0  0
   13.6713   -2.4736    0.0000 C   0  0  0  0  0  0  0  0  0  0  0  0
   13.4164   -1.6890    0.0000 C   0  0  0  0  0  0  0  0  0  0  0  0
   12.6318   -1.4341    0.0000 O   0  0  0  0  0  0  0  0  0  0  0  0
   14.0838   -1.2041    0.0000 N   0  0  0  0  0  0  0  0  0  0  0  0
   14.7513   -1.6890    0.0000 C   0  0  0  0  0  0  0  0  0  0  0  0
   15.5582   -1.5175    0.0000 C   0  0  0  0  0  0  0  0  0  0  0  0
   16.1103   -2.1306    0.0000 C   0  0  0  0  0  0  0  0  0  0  0  0
   15.8553   -2.9152    0.0000 C   0  0  0  0  0  0  0  0  0  0  0  0
   15.0484   -3.0867    0.0000 C   0  0  0  0  0  0  0  0  0  0  0  0
   14.4963   -2.4736    0.0000 C   0  0  0  0  0  0  0  0  0  0  0  0
   16.4074   -3.5283    0.0000 C   0  0  0  0  0  0  0  0  0  0  0  0
   17.2279   -3.4420    0.0000 C   0  0  0  0  0  0  0  0  0  0  0  0
   17.5634   -4.1957    0.0000 S   0  0  0  0  0  0  0  0  0  0  0  0
   16.9503   -4.7478    0.0000 C   0  0  0  0  0  0  0  0  0  0  0  0
   16.2358   -4.3353    0.0000 N   0  0  0  0  0  0  0  0  0  0  0  0
   17.0366   -5.5682    0.0000 C   0  0  0  0  0  0  0  0  0  0  0  0
   17.7902   -5.9038    0.0000 C   0  0  0  0  0  0  0  0  0  0  0  0
   17.8765   -6.7243    0.0000 C   0  0  0  0  0  0  0  0  0  0  0  0
   17.2090   -7.2092    0.0000 C   0  0  0  0  0  0  0  0  0  0  0  0
   16.4554   -6.8736    0.0000 C   0  0  0  0  0  0  0  0  0  0  0  0
   16.3691   -6.0532    0.0000 C   0  0  0  0  0  0  0  0  0  0  0  0
   11.8139   -3.6679    0.0000 C   0  0  0  0  0  0  0  0  0  0  0  0
   11.9854   -4.4749    0.0000 C   0  0  0  0  0  0  0  0  0  0  0  0
  1  2  1  0  0  0  0
  2  3  1  0  0  0  0
  3  4  1  0  0  0  0
  4  5  1  0  0  0  0
  3  6  1  0  0  0  0
  6  7  1  0  0  0  0
  7  8  1  0  0  0  0
  8  9  1  0  0  0  0
  9 10  2  0  0  0  0
  9 11  1  0  0  0  0
 11 12  2  0  0  0  0
 12 13  1  0  0  0  0
 12 14  1  0  0  0  0
 14 15  1  0  0  0  0
 15 16  1  0  0  0  0
 16 17  2  0  0  0  0
 17 18  1  0  0  0  0
 18 19  2  0  0  0  0
 18 20  1  0  0  0  0
 20 21  1  0  0  0  0
 21 22  2  0  0  0  0
 22 23  1  0  0  0  0
 23 24  2  0  0  0  0
 24 25  1  0  0  0  0
 25 26  2  0  0  0  0
 17 26  1  0  0  0  0
 21 26  1  0  0  0  0
 24 27  1  0  0  0  0
 27 28  2  0  0  0  0
 28 29  1  0  0  0  0
 29 30  1  0  0  0  0
 30 31  2  0  0  0  0
 27 31  1  0  0  0  0
 30 32  1  0  0  0  0
 32 33  2  0  0  0  0
 33 34  1  0  0  0  0
 34 35  2  0  0  0  0
 35 36  1  0  0  0  0
 36 37  2  0  0  0  0
 32 37  1  0  0  0  0
 15 38  2  0  0  0  0
 11 38  1  0  0  0  0
 38 39  1  0  0  0  0
M  END
> <DATABASE_ID>
DB14866

> <DATABASE_NAME>
drugbank

> <SMILES>
CCN(CC)CCNC(=O)C1=C(C)NC(\C=C2/C(=O)NC3=CC=C(C=C23)C2=CSC(=N2)C2=CC=CC=C2)=C1C

> <INCHI_IDENTIFIER>
InChI=1S/C31H33N5O2S/c1-5-36(6-2)15-14-32-30(38)28-19(3)26(33-20(28)4)17-24-23-16-22(12-13-25(23)34-29(24)37)27-18-39-31(35-27)21-10-8-7-9-11-21/h7-13,16-18,33H,5-6,14-15H2,1-4H3,(H,32,38)(H,34,37)/b24-17-

> <INCHI_KEY>
QDWKGEFGLQMDAM-ULJHMMPZSA-N

> <FORMULA>
C31H33N5O2S

> <MOLECULAR_WEIGHT>
539.7

> <EXACT_MASS>
539.235496497

> <JCHEM_ACCEPTOR_COUNT>
4

> <JCHEM_ATOM_COUNT>
72

> <JCHEM_AVERAGE_POLARIZABILITY>
62.720459642651214

> <JCHEM_BIOAVAILABILITY>
0

> <JCHEM_DONOR_COUNT>
3

> <JCHEM_FORMAL_CHARGE>
0

> <JCHEM_GHOSE_FILTER>
0

> <JCHEM_IUPAC>
N-[2-(diethylamino)ethyl]-2,4-dimethyl-5-{[(3Z)-2-oxo-5-(2-phenyl-1,3-thiazol-4-yl)-2,3-dihydro-1H-indol-3-ylidene]methyl}-1H-pyrrole-3-carboxamide

> <ALOGPS_LOGP>
5.23

> <JCHEM_LOGP>
5.501313594666667

> <ALOGPS_LOGS>
-5.95

> <JCHEM_MDDR_LIKE_RULE>
1

> <JCHEM_NUMBER_OF_RINGS>
5

> <JCHEM_PHYSIOLOGICAL_CHARGE>
1

> <JCHEM_PKA>
14.821924023191718

> <JCHEM_PKA_STRONGEST_ACIDIC>
11.094371512165287

> <JCHEM_PKA_STRONGEST_BASIC>
9.040459686606624

> <JCHEM_POLAR_SURFACE_AREA>
90.12

> <JCHEM_REFRACTIVITY>
171.12409999999994

> <JCHEM_ROTATABLE_BOND_COUNT>
9

> <JCHEM_RULE_OF_FIVE>
0

> <ALOGPS_SOLUBILITY>
6.06e-04 g/l

> <JCHEM_TRADITIONAL_IUPAC>
(2R)-14-fluoro-2-methyl-6,9,10,19-tetraazapentacyclo[14.2.1.0^{2,6}.0^{8,18}.0^{12,17}]nonadeca-1(18),8,12(17),13,15-pentaen-11-one

> <JCHEM_VEBER_RULE>
0

> <DRUGBANK_ID>
DB14866

> <DRUG_GROUPS>
investigational

> <GENERIC_NAME>
Amcasertib

> <SYNONYMS>
Amcasertib

$$$$
