
  Mrv1909 05201915172D          

  8  7  0  0  0  0            999 V2000
    0.4125    2.1434    0.0000 C   0  0  0  0  0  0  0  0  0  0  0  0
    0.8250    1.4289    0.0000 C   0  0  0  0  0  0  0  0  0  0  0  0
    0.1105    1.0164    0.0000 C   0  0  0  0  0  0  0  0  0  0  0  0
    1.5395    1.8414    0.0000 O   0  0  0  0  0  0  0  0  0  0  0  0
    1.2375    0.7145    0.0000 C   0  0  0  0  0  0  0  0  0  0  0  0
    0.8250    0.0000    0.0000 C   0  0  0  0  0  0  0  0  0  0  0  0
    1.2375   -0.7145    0.0000 O   0  0  0  0  0  0  0  0  0  0  0  0
    0.0000    0.0000    0.0000 O   0  0  0  0  0  0  0  0  0  0  0  0
  1  2  1  0  0  0  0
  2  3  1  0  0  0  0
  2  4  1  0  0  0  0
  2  5  1  0  0  0  0
  5  6  1  0  0  0  0
  6  7  1  0  0  0  0
  6  8  2  0  0  0  0
M  END
> <DATABASE_ID>
DB15344

> <DATABASE_NAME>
drugbank

> <SMILES>
CC(C)(O)CC(O)=O

> <INCHI_IDENTIFIER>
InChI=1S/C5H10O3/c1-5(2,8)3-4(6)7/h8H,3H2,1-2H3,(H,6,7)

> <INCHI_KEY>
AXFYFNCPONWUHW-UHFFFAOYSA-N

> <FORMULA>
C5H10O3

> <MOLECULAR_WEIGHT>
118.1311

> <EXACT_MASS>
118.062994186

> <JCHEM_ACCEPTOR_COUNT>
3

> <JCHEM_ATOM_COUNT>
18

> <JCHEM_AVERAGE_POLARIZABILITY>
11.74803117886822

> <JCHEM_BIOAVAILABILITY>
1

> <JCHEM_DONOR_COUNT>
2

> <JCHEM_FORMAL_CHARGE>
0

> <JCHEM_GHOSE_FILTER>
0

> <JCHEM_IUPAC>
3-hydroxy-3-methylbutanoic acid

> <ALOGPS_LOGP>
-0.12

> <JCHEM_LOGP>
-0.10642933099999986

> <ALOGPS_LOGS>
0.51

> <JCHEM_MDDR_LIKE_RULE>
0

> <JCHEM_NUMBER_OF_RINGS>
0

> <JCHEM_PHYSIOLOGICAL_CHARGE>
-1

> <JCHEM_PKA>
15.417396678218887

> <JCHEM_PKA_STRONGEST_ACIDIC>
4.554638714853443

> <JCHEM_PKA_STRONGEST_BASIC>
-2.7419355220135504

> <JCHEM_POLAR_SURFACE_AREA>
57.53

> <JCHEM_REFRACTIVITY>
28.1023

> <JCHEM_ROTATABLE_BOND_COUNT>
2

> <JCHEM_RULE_OF_FIVE>
1

> <ALOGPS_SOLUBILITY>
3.84e+02 g/l

> <JCHEM_TRADITIONAL_IUPAC>
(2R)-14-fluoro-2-methyl-6,9,10,19-tetraazapentacyclo[14.2.1.0^{2,6}.0^{8,18}.0^{12,17}]nonadeca-1(18),8,12(17),13,15-pentaen-11-one

> <JCHEM_VEBER_RULE>
0

> <DRUGBANK_ID>
DB15344

> <DRUG_GROUPS>
investigational

> <GENERIC_NAME>
beta-Hydroxyisovaleric acid

> <SYNONYMS>
beta-Hydroxy-methylbutyrate

$$$$
