
  Mrv1909 12152020032D          

 27 30  0  0  1  0            999 V2000
   -6.4302   -2.8875    0.0000 O   0  0  0  0  0  0  0  0  0  0  0  0
   -5.7158   -2.4750    0.0000 C   0  0  0  0  0  0  0  0  0  0  0  0
   -5.7158   -1.6500    0.0000 O   0  0  0  0  0  0  0  0  0  0  0  0
   -5.0013   -2.8875    0.0000 C   0  0  2  0  0  0  0  0  0  0  0  0
   -5.0013   -3.7125    0.0000 C   0  0  0  0  0  0  0  0  0  0  0  0
   -4.3339   -4.1974    0.0000 C   0  0  0  0  0  0  0  0  0  0  0  0
   -4.5888   -4.9820    0.0000 C   0  0  0  0  0  0  0  0  0  0  0  0
   -5.4138   -4.9820    0.0000 C   0  0  0  0  0  0  0  0  0  0  0  0
   -5.6687   -4.1974    0.0000 C   0  0  0  0  0  0  0  0  0  0  0  0
   -4.2868   -2.4750    0.0000 C   0  0  0  0  0  0  0  0  0  0  0  0
   -4.2868   -1.6500    0.0000 C   0  0  0  0  0  0  0  0  0  0  0  0
   -3.5724   -1.2375    0.0000 C   0  0  0  0  0  0  0  0  0  0  0  0
   -2.8579   -1.6500    0.0000 C   0  0  0  0  0  0  0  0  0  0  0  0
   -2.1434   -1.2375    0.0000 O   0  0  0  0  0  0  0  0  0  0  0  0
   -1.4289   -1.6500    0.0000 C   0  0  0  0  0  0  0  0  0  0  0  0
   -0.7145   -1.2375    0.0000 C   0  0  0  0  0  0  0  0  0  0  0  0
    0.0000   -1.6500    0.0000 N   0  0  0  0  0  0  0  0  0  0  0  0
    0.7145   -1.2375    0.0000 C   0  0  0  0  0  0  0  0  0  0  0  0
    0.7145   -0.4125    0.0000 C   0  0  0  0  0  0  0  0  0  0  0  0
    1.4289   -0.0000    0.0000 C   0  0  0  0  0  0  0  0  0  0  0  0
    2.1434   -0.4125    0.0000 C   0  0  0  0  0  0  0  0  0  0  0  0
    2.1434   -1.2375    0.0000 C   0  0  0  0  0  0  0  0  0  0  0  0
    1.4289   -1.6500    0.0000 C   0  0  0  0  0  0  0  0  0  0  0  0
    0.0000   -0.0000    0.0000 C   0  0  0  0  0  0  0  0  0  0  0  0
   -0.7145   -0.4125    0.0000 C   0  0  0  0  0  0  0  0  0  0  0  0
   -2.8579   -2.4750    0.0000 C   0  0  0  0  0  0  0  0  0  0  0  0
   -3.5724   -2.8875    0.0000 C   0  0  0  0  0  0  0  0  0  0  0  0
  1  2  1  0  0  0  0
  2  3  2  0  0  0  0
  4  2  1  1  0  0  0
  4  5  1  0  0  0  0
  5  6  1  0  0  0  0
  6  7  1  0  0  0  0
  7  8  1  0  0  0  0
  8  9  1  0  0  0  0
  5  9  1  0  0  0  0
  4 10  1  0  0  0  0
 10 11  2  0  0  0  0
 11 12  1  0  0  0  0
 12 13  2  0  0  0  0
 13 14  1  0  0  0  0
 14 15  1  0  0  0  0
 15 16  1  0  0  0  0
 16 17  2  0  0  0  0
 17 18  1  0  0  0  0
 18 19  2  0  0  0  0
 19 20  1  0  0  0  0
 20 21  2  0  0  0  0
 21 22  1  0  0  0  0
 22 23  2  0  0  0  0
 18 23  1  0  0  0  0
 19 24  1  0  0  0  0
 24 25  2  0  0  0  0
 16 25  1  0  0  0  0
 13 26  1  0  0  0  0
 26 27  2  0  0  0  0
 10 27  1  0  0  0  0
M  END
> <DATABASE_ID>
DB16346

> <DATABASE_NAME>
drugbank

> <SMILES>
OC(=O)[C@H](C1CCCC1)C1=CC=C(OCC2=NC3=C(C=CC=C3)C=C2)C=C1

> <INCHI_IDENTIFIER>
InChI=1S/C23H23NO3/c25-23(26)22(17-6-1-2-7-17)18-10-13-20(14-11-18)27-15-19-12-9-16-5-3-4-8-21(16)24-19/h3-5,8-14,17,22H,1-2,6-7,15H2,(H,25,26)/t22-/m1/s1

> <INCHI_KEY>
ZEYYDOLCHFETHQ-JOCHJYFZSA-N

> <FORMULA>
C23H23NO3

> <MOLECULAR_WEIGHT>
361.441

> <EXACT_MASS>
361.167793605

> <JCHEM_ACCEPTOR_COUNT>
4

> <JCHEM_ATOM_COUNT>
50

> <JCHEM_AVERAGE_NEUTRAL_MICROSPECIES_CHARGE>
-0.9988972084306391

> <JCHEM_AVERAGE_POLARIZABILITY>
40.71377570475193

> <JCHEM_BIOAVAILABILITY>
1

> <JCHEM_DONOR_COUNT>
1

> <JCHEM_FORMAL_CHARGE>
0

> <JCHEM_GHOSE_FILTER>
1

> <JCHEM_IUPAC>
(2R)-2-cyclopentyl-2-{4-[(quinolin-2-yl)methoxy]phenyl}acetic acid

> <ALOGPS_LOGP>
5.05

> <JCHEM_LOGP>
4.734817173066308

> <ALOGPS_LOGS>
-5.58

> <JCHEM_MDDR_LIKE_RULE>
1

> <JCHEM_NEUTRAL_CHARGE>
-1

> <JCHEM_NUMBER_OF_RINGS>
4

> <JCHEM_PHYSIOLOGICAL_CHARGE>
-1

> <JCHEM_PKA_STRONGEST_ACIDIC>
4.094021165011793

> <JCHEM_PKA_STRONGEST_BASIC>
3.0716422880321743

> <JCHEM_POLAR_SURFACE_AREA>
59.42

> <JCHEM_REFRACTIVITY>
102.96440000000003

> <JCHEM_ROTATABLE_BOND_COUNT>
6

> <JCHEM_RULE_OF_FIVE>
1

> <ALOGPS_SOLUBILITY>
9.43e-04 g/l

> <JCHEM_TRADITIONAL_IUPAC>
revaprazan

> <JCHEM_VEBER_RULE>
0

> <DRUGBANK_ID>
DB16346

> <DRUG_GROUPS>
investigational

> <GENERIC_NAME>
Veliflapon

> <SYNONYMS>
Veliflapon

$$$$
