
  Mrv1909 12141922292D          

 21 22  0  0  0  0            999 V2000
    0.0000    0.4125    0.0000 O   0  0  0  0  0  0  0  0  0  0  0  0
    0.7144    0.8250    0.0000 C   0  0  0  0  0  0  0  0  0  0  0  0
   -0.7144    0.8250    0.0000 C   0  0  0  0  0  0  0  0  0  0  0  0
    2.1434    0.8250    0.0000 C   0  0  0  0  0  0  0  0  0  0  0  0
    2.8579    0.4125    0.0000 C   0  0  0  0  0  0  0  0  0  0  0  0
    2.8579   -0.4125    0.0000 C   0  0  0  0  0  0  0  0  0  0  0  0
    2.1434   -0.8250    0.0000 C   0  0  0  0  0  0  0  0  0  0  0  0
    1.4289   -0.4125    0.0000 C   0  0  0  0  0  0  0  0  0  0  0  0
    1.4289    0.4125    0.0000 N   0  3  0  0  0  0  0  0  0  0  0  0
    3.5724   -0.8250    0.0000 C   0  0  0  0  0  0  0  0  0  0  0  0
    4.2869   -0.4125    0.0000 N   0  0  0  0  0  0  0  0  0  0  0  0
    5.0013   -0.8250    0.0000 O   0  0  0  0  0  0  0  0  0  0  0  0
   -1.4289   -0.4125    0.0000 C   0  0  0  0  0  0  0  0  0  0  0  0
   -2.1434   -0.8250    0.0000 C   0  0  0  0  0  0  0  0  0  0  0  0
   -2.8579   -0.4125    0.0000 C   0  0  0  0  0  0  0  0  0  0  0  0
   -2.8579    0.4125    0.0000 C   0  0  0  0  0  0  0  0  0  0  0  0
   -2.1434    0.8250    0.0000 C   0  0  0  0  0  0  0  0  0  0  0  0
   -1.4289    0.4125    0.0000 N   0  3  0  0  0  0  0  0  0  0  0  0
   -3.5724   -0.8250    0.0000 C   0  0  0  0  0  0  0  0  0  0  0  0
   -4.2869   -0.4125    0.0000 N   0  0  0  0  0  0  0  0  0  0  0  0
   -5.0013   -0.8250    0.0000 O   0  0  0  0  0  0  0  0  0  0  0  0
  1  2  1  0  0  0  0
  1  3  1  0  0  0  0
  4  5  2  0  0  0  0
  5  6  1  0  0  0  0
  6  7  2  0  0  0  0
  7  8  1  0  0  0  0
  8  9  2  0  0  0  0
  4  9  1  0  0  0  0
 11 12  1  0  0  0  0
 10 11  2  0  0  0  0
  6 10  1  0  0  0  0
  2  9  1  0  0  0  0
 13 14  2  0  0  0  0
 14 15  1  0  0  0  0
 15 16  2  0  0  0  0
 16 17  1  0  0  0  0
 17 18  2  0  0  0  0
 13 18  1  0  0  0  0
 20 21  1  0  0  0  0
 19 20  2  0  0  0  0
 15 19  1  0  0  0  0
  3 18  1  0  0  0  0
M  CHG  2   9   1  18   1
M  END
> <DATABASE_ID>
DB13750

> <DATABASE_NAME>
drugbank

> <SMILES>
O\N=C\C1=CC=[N+](COC[N+]2=CC=C(\C=N\O)C=C2)C=C1

> <INCHI_IDENTIFIER>
InChI=1S/C14H14N4O3/c19-15-9-13-1-5-17(6-2-13)11-21-12-18-7-3-14(4-8-18)10-16-20/h1-10H,11-12H2/p+2

> <INCHI_KEY>
HIGRLDNHDGYWQJ-UHFFFAOYSA-P

> <FORMULA>
C14H16N4O3

> <MOLECULAR_WEIGHT>
288.3018

> <EXACT_MASS>
288.122240398

> <JCHEM_ACCEPTOR_COUNT>
5

> <JCHEM_ATOM_COUNT>
37

> <JCHEM_AVERAGE_NEUTRAL_MICROSPECIES_CHARGE>
1.6311592512101871

> <JCHEM_AVERAGE_POLARIZABILITY>
30.4698015140537

> <JCHEM_BIOAVAILABILITY>
1

> <JCHEM_DONOR_COUNT>
2

> <JCHEM_FORMAL_CHARGE>
2

> <JCHEM_GHOSE_FILTER>
0

> <JCHEM_IUPAC>
4-[(E)-(hydroxyimino)methyl]-1-[({4-[(E)-(hydroxyimino)methyl]pyridin-1-ium-1-yl}methoxy)methyl]pyridin-1-ium

> <ALOGPS_LOGP>
-2.66

> <JCHEM_LOGP>
-6.9299242472768245

> <ALOGPS_LOGS>
-5.53

> <JCHEM_MDDR_LIKE_RULE>
0

> <JCHEM_NEUTRAL_CHARGE>
2

> <JCHEM_NUMBER_OF_RINGS>
2

> <JCHEM_PHYSIOLOGICAL_CHARGE>
2

> <JCHEM_PKA>
8.113631818671369

> <JCHEM_PKA_STRONGEST_ACIDIC>
7.511571902501989

> <JCHEM_PKA_STRONGEST_BASIC>
1.0508006613193481

> <JCHEM_POLAR_SURFACE_AREA>
82.17

> <JCHEM_REFRACTIVITY>
79.61789999999999

> <JCHEM_ROTATABLE_BOND_COUNT>
6

> <JCHEM_RULE_OF_FIVE>
1

> <ALOGPS_SOLUBILITY>
1.06e-03 g/l

> <JCHEM_TRADITIONAL_IUPAC>
niridazole

> <JCHEM_VEBER_RULE>
0

> <DRUGBANK_ID>
DB13750

> <DRUG_GROUPS>
experimental

> <GENERIC_NAME>
Obidoxime

$$$$
