
  Mrv1718003241819232D          

 67 68  0  0  0  0            999 V2000
   -2.8340   -0.2653    0.0000 C   0  0  0  0  0  0  0  0  0  0  0  0
    2.8099   -0.2122    0.0000 C   0  0  0  0  0  0  0  0  0  0  0  0
    3.5093   -1.4375    0.0000 C   0  0  0  0  0  0  0  0  0  0  0  0
   -3.5672   -1.5098    0.0000 C   0  0  0  0  0  0  0  0  0  0  0  0
    2.1490   -1.4424    0.0000 C   0  0  0  0  0  0  0  0  0  0  0  0
   -2.1539   -1.4664    0.0000 C   0  0  0  0  0  0  0  0  0  0  0  0
    3.5093   -0.5884    0.0000 C   0  0  0  0  0  0  0  0  0  0  0  0
   -3.5672   -0.6463    0.0000 C   0  0  0  0  0  0  0  0  0  0  0  0
   -2.1539   -0.6608    0.0000 C   0  0  0  0  0  0  0  0  0  0  0  0
    2.1490   -0.5884    0.0000 C   0  0  0  0  0  0  0  0  0  0  0  0
    2.8099   -1.8476    0.0000 C   0  0  0  0  0  0  0  0  0  0  0  0
   -2.8340   -1.8765    0.0000 C   0  0  0  0  0  0  0  0  0  0  0  0
   -2.8436    0.5692    0.0000 C   0  0  0  0  0  0  0  0  0  0  0  0
    2.8147    0.6174    0.0000 C   0  0  0  0  0  0  0  0  0  0  0  0
    4.2185   -1.8476    0.0000 C   0  0  0  0  0  0  0  0  0  0  0  0
   -4.2764   -1.9199    0.0000 C   0  0  0  0  0  0  0  0  0  0  0  0
    0.6680   -1.4664    0.0000 C   0  0  0  0  0  0  0  0  0  0  0  0
   -0.7452   -1.4664    0.0000 C   0  0  0  0  0  0  0  0  0  0  0  0
    1.3530   -1.9006    0.0000 N   0  0  0  0  0  0  0  0  0  0  0  0
   -1.4303   -1.9006    0.0000 N   0  0  0  0  0  0  0  0  0  0  0  0
   -0.0217   -1.9006    0.0000 C   0  0  0  0  0  0  0  0  0  0  0  0
    3.5382    1.0372    0.0000 N   0  0  0  0  0  0  0  0  0  0  0  0
   -3.5672    0.9889    0.0000 N   0  0  0  0  0  0  0  0  0  0  0  0
    4.9131   -1.4375    0.0000 N   0  0  0  0  0  0  0  0  0  0  0  0
   -4.9468   -1.5098    0.0000 N   0  0  0  0  0  0  0  0  0  0  0  0
    3.5382    1.8716    0.0000 C   0  0  0  0  0  0  0  0  0  0  0  0
   -3.5721    1.8282    0.0000 C   0  0  0  0  0  0  0  0  0  0  0  0
    5.6222   -1.8476    0.0000 C   0  0  0  0  0  0  0  0  0  0  0  0
   -5.6560   -1.9199    0.0000 C   0  0  0  0  0  0  0  0  0  0  0  0
    2.0911    1.0467    0.0000 O   0  0  0  0  0  0  0  0  0  0  0  0
   -2.1249    0.9937    0.0000 O   0  0  0  0  0  0  0  0  0  0  0  0
    4.2329   -2.6724    0.0000 O   0  0  0  0  0  0  0  0  0  0  0  0
   -4.2764   -2.7544    0.0000 O   0  0  0  0  0  0  0  0  0  0  0  0
    0.6680   -0.6608    0.0000 O   0  0  0  0  0  0  0  0  0  0  0  0
   -0.7452   -0.6319    0.0000 O   0  0  0  0  0  0  0  0  0  0  0  0
    4.2715    2.2817    0.0000 C   0  0  0  0  0  0  0  0  0  0  0  0
   -4.3053    2.2334    0.0000 C   0  0  0  0  0  0  0  0  0  0  0  0
    6.3168   -1.4375    0.0000 C   0  0  0  0  0  0  0  0  0  0  0  0
   -6.3603   -1.5147    0.0000 C   0  0  0  0  0  0  0  0  0  0  0  0
    2.8243   -2.6580    0.0000 I   0  0  0  0  0  0  0  0  0  0  0  0
    4.1895   -0.2122    0.0000 I   0  0  0  0  0  0  0  0  0  0  0  0
   -2.8195   -2.7014    0.0000 I   0  0  0  0  0  0  0  0  0  0  0  0
   -4.2522   -0.2122    0.0000 I   0  0  0  0  0  0  0  0  0  0  0  0
    1.4977   -0.1109    0.0000 I   0  0  0  0  0  0  0  0  0  0  0  0
   -1.4447   -0.2653    0.0000 I   0  0  0  0  0  0  0  0  0  0  0  0
    4.2764    3.1210    0.0000 O   0  0  0  0  0  0  0  0  0  0  0  0
   -4.3053    3.0727    0.0000 O   0  0  0  0  0  0  0  0  0  0  0  0
    6.3168   -0.5884    0.0000 O   0  0  0  0  0  0  0  0  0  0  0  0
   -6.3603   -0.6897    0.0000 O   0  0  0  0  0  0  0  0  0  0  0  0
    1.3530   -2.7014    0.0000 C   0  0  0  0  0  0  0  0  0  0  0  0
   -1.4303   -2.7014    0.0000 C   0  0  0  0  0  0  0  0  0  0  0  0
   -2.8485    2.2383    0.0000 C   0  0  0  0  0  0  0  0  0  0  0  0
    2.8243    2.2913    0.0000 C   0  0  0  0  0  0  0  0  0  0  0  0
    5.6367   -2.6724    0.0000 C   0  0  0  0  0  0  0  0  0  0  0  0
   -5.6560   -2.7544    0.0000 C   0  0  0  0  0  0  0  0  0  0  0  0
   -2.1345    1.8282    0.0000 O   0  0  0  0  0  0  0  0  0  0  0  0
    2.1008    1.8765    0.0000 O   0  0  0  0  0  0  0  0  0  0  0  0
   -4.9034   -3.1210    0.0000 O   0  0  0  0  0  0  0  0  0  0  0  0
    6.3603   -3.0776    0.0000 O   0  0  0  0  0  0  0  0  0  0  0  0
    5.7090    2.2768    0.0000 O   0  0  0  0  0  0  0  0  0  0  0  0
   -5.7429    2.2238    0.0000 O   0  0  0  0  0  0  0  0  0  0  0  0
    7.7640   -1.4424    0.0000 O   0  0  0  0  0  0  0  0  0  0  0  0
   -7.7640   -1.5532    0.0000 O   0  0  0  0  0  0  0  0  0  0  0  0
   -5.0192    1.8137    0.0000 C   0  0  0  0  0  0  0  0  0  0  0  0
    4.9855    1.8620    0.0000 C   0  0  0  0  0  0  0  0  0  0  0  0
   -7.0404   -1.9199    0.0000 C   0  0  0  0  0  0  0  0  0  0  0  0
    7.0259   -1.8476    0.0000 C   0  0  0  0  0  0  0  0  0  0  0  0
  2 10  2  0  0  0  0
  3 11  1  0  0  0  0
  4  8  1  0  0  0  0
  5 19  1  0  0  0  0
  6  9  2  0  0  0  0
  7  3  2  0  0  0  0
  8  1  2  0  0  0  0
  9  1  1  0  0  0  0
 10  5  1  0  0  0  0
 11  5  2  0  0  0  0
 12  6  1  0  0  0  0
 13  1  1  0  0  0  0
 14  2  1  0  0  0  0
 15  3  1  0  0  0  0
 16  4  1  0  0  0  0
 17 21  1  0  0  0  0
 18 20  1  0  0  0  0
 19 17  1  0  0  0  0
 20  6  1  0  0  0  0
 21 18  1  0  0  0  0
 22 14  1  0  0  0  0
 23 13  1  0  0  0  0
 24 15  1  0  0  0  0
 25 16  1  0  0  0  0
 26 22  1  0  0  0  0
 27 23  1  0  0  0  0
 28 24  1  0  0  0  0
 29 25  1  0  0  0  0
 30 14  2  0  0  0  0
 31 13  2  0  0  0  0
 32 15  2  0  0  0  0
 33 16  2  0  0  0  0
 34 17  2  0  0  0  0
 35 18  2  0  0  0  0
 36 26  1  0  0  0  0
 37 27  1  0  0  0  0
 38 28  1  0  0  0  0
 39 29  1  0  0  0  0
 40 11  1  0  0  0  0
 41  7  1  0  0  0  0
 42 12  1  0  0  0  0
 43  8  1  0  0  0  0
 44 10  1  0  0  0  0
 45  9  1  0  0  0  0
 46 36  1  0  0  0  0
 47 37  1  0  0  0  0
 48 38  1  0  0  0  0
 49 39  1  0  0  0  0
 50 19  1  0  0  0  0
 51 20  1  0  0  0  0
 52 27  1  0  0  0  0
 53 26  1  0  0  0  0
 54 28  1  0  0  0  0
 55 29  1  0  0  0  0
 56 52  1  0  0  0  0
 57 53  1  0  0  0  0
 58 55  1  0  0  0  0
 59 54  1  0  0  0  0
 60 65  1  0  0  0  0
 61 64  1  0  0  0  0
 62 67  1  0  0  0  0
 63 66  1  0  0  0  0
 64 37  1  0  0  0  0
 65 36  1  0  0  0  0
 66 39  1  0  0  0  0
 67 38  1  0  0  0  0
 12  4  2  0  0  0  0
  2  7  1  0  0  0  0
M  END
> <DATABASE_ID>
DB09487

> <DATABASE_NAME>
drugbank

> <SMILES>
CN(C(=O)CC(=O)N(C)C1=C(I)C(C(=O)NC(CO)C(O)CO)=C(I)C(C(=O)NC(CO)C(O)CO)=C1I)C1=C(I)C(C(=O)NC(CO)C(O)CO)=C(I)C(C(=O)NC(CO)C(O)CO)=C1I

> <INCHI_IDENTIFIER>
InChI=1S/C37H48I6N6O18/c1-48(32-28(40)22(34(64)44-12(4-50)16(58)8-54)26(38)23(29(32)41)35(65)45-13(5-51)17(59)9-55)20(62)3-21(63)49(2)33-30(42)24(36(66)46-14(6-52)18(60)10-56)27(39)25(31(33)43)37(67)47-15(7-53)19(61)11-57/h12-19,50-61H,3-11H2,1-2H3,(H,44,64)(H,45,65)(H,46,66)(H,47,67)

> <INCHI_KEY>
XUHXFSYUBXNTHU-UHFFFAOYSA-N

> <FORMULA>
C37H48I6N6O18

> <MOLECULAR_WEIGHT>
1626.242

> <EXACT_MASS>
1625.72933

> <JCHEM_ACCEPTOR_COUNT>
18

> <JCHEM_ATOM_COUNT>
115

> <JCHEM_AVERAGE_POLARIZABILITY>
116.79321701000391

> <JCHEM_BIOAVAILABILITY>
0

> <JCHEM_DONOR_COUNT>
16

> <JCHEM_FORMAL_CHARGE>
0

> <JCHEM_GHOSE_FILTER>
0

> <JCHEM_IUPAC>
2,4,6-triiodo-5-{N-methyl-2-[methyl({2,4,6-triiodo-3,5-bis[(1,3,4-trihydroxybutan-2-yl)carbamoyl]phenyl})carbamoyl]acetamido}-N1,N3-bis(1,3,4-trihydroxybutan-2-yl)benzene-1,3-dicarboxamide

> <ALOGPS_LOGP>
-3.27

> <JCHEM_LOGP>
-3.6665366096666663

> <ALOGPS_LOGS>
-3.48

> <JCHEM_MDDR_LIKE_RULE>
0

> <JCHEM_NUMBER_OF_RINGS>
2

> <JCHEM_PHYSIOLOGICAL_CHARGE>
0

> <JCHEM_PKA>
12.006851763359169

> <JCHEM_PKA_STRONGEST_ACIDIC>
11.503772384280294

> <JCHEM_PKA_STRONGEST_BASIC>
-3.3476254274966646

> <JCHEM_POLAR_SURFACE_AREA>
399.7800000000001

> <JCHEM_REFRACTIVITY>
290.7187999999999

> <JCHEM_ROTATABLE_BOND_COUNT>
24

> <JCHEM_RULE_OF_FIVE>
0

> <ALOGPS_SOLUBILITY>
5.39e-01 g/l

> <JCHEM_TRADITIONAL_IUPAC>
iotrolan

> <JCHEM_VEBER_RULE>
0

> <DRUGBANK_ID>
DB09487

> <DRUG_GROUPS>
approved

> <GENERIC_NAME>
Iotrolan

> <SYNONYMS>
Iotrolan; Iotrolanum; Iotrolum

> <PRODUCTS>
Osmovist 240 - Liq Int 513mg/ml; Osmovist 300 - Liq Int 641mg/ml

> <INTERNATIONAL_BRANDS>
Iotrovist; Isovist; Osmovist; Osmovist 190; Osmovist 240

$$$$
