
  Mrv1572009281519022D          

 31 35  0  0  0  0            999 V2000
   -2.4543   -1.0312    0.0000 C   0  0  0  0  0  0  0  0  0  0  0  0
   -2.4543   -0.2062    0.0000 C   0  0  0  0  0  0  0  0  0  0  0  0
   -3.1557    0.2062    0.0000 C   0  0  0  0  0  0  0  0  0  0  0  0
   -3.1557   -1.4437    0.0000 C   0  0  0  0  0  0  0  0  0  0  0  0
   -3.8981   -1.0312    0.0000 C   0  0  0  0  0  0  0  0  0  0  0  0
   -3.8981   -0.2062    0.0000 C   0  0  0  0  0  0  0  0  0  0  0  0
   -5.3007   -0.1649    0.0000 C   0  0  0  0  0  0  0  0  0  0  0  0
   -5.3007   -0.9899    0.0000 C   0  0  0  0  0  0  0  0  0  0  0  0
   -4.5994   -1.4437    0.0000 N   0  0  0  0  0  0  0  0  0  0  0  0
   -6.0432   -1.4025    0.0000 O   0  0  0  0  0  0  0  0  0  0  0  0
   -1.7531   -1.4437    0.0000 O   0  0  0  0  0  0  0  0  0  0  0  0
   -1.0106   -1.0312    0.0000 C   0  0  0  0  0  0  0  0  0  0  0  0
   -0.3093   -1.4437    0.0000 C   0  0  0  0  0  0  0  0  0  0  0  0
    0.3919   -1.0312    0.0000 C   0  0  0  0  0  0  0  0  0  0  0  0
    1.1344   -1.4437    0.0000 C   0  0  0  0  0  0  0  0  0  0  0  0
    1.8356   -1.0312    0.0000 N   0  0  0  0  0  0  0  0  0  0  0  0
    2.5369   -1.4437    0.0000 C   0  0  0  0  0  0  0  0  0  0  0  0
    3.2794   -1.0312    0.0000 C   0  0  0  0  0  0  0  0  0  0  0  0
    3.2794   -0.2062    0.0000 N   0  0  0  0  0  0  0  0  0  0  0  0
    2.5369    0.2062    0.0000 C   0  0  0  0  0  0  0  0  0  0  0  0
    1.8356   -0.2062    0.0000 C   0  0  0  0  0  0  0  0  0  0  0  0
    3.9807    0.2062    0.0000 C   0  0  0  0  0  0  0  0  0  0  0  0
    4.6819   -0.2062    0.0000 C   0  0  0  0  0  0  0  0  0  0  0  0
    5.4244    0.2062    0.0000 C   0  0  0  0  0  0  0  0  0  0  0  0
    5.4244    1.0312    0.0000 C   0  0  0  0  0  0  0  0  0  0  0  0
    4.6819    1.4437    0.0000 C   0  0  0  0  0  0  0  0  0  0  0  0
    3.9807    1.0312    0.0000 C   0  0  0  0  0  0  0  0  0  0  0  0
   -4.5994    0.2062    0.0000 C   0  0  0  0  0  0  0  0  0  0  0  0
    4.8469   -1.0312    0.0000 C   0  0  0  0  0  0  0  0  0  0  0  0
    5.6719   -1.1550    0.0000 C   0  0  0  0  0  0  0  0  0  0  0  0
    6.0432   -0.3712    0.0000 S   0  0  0  0  0  0  0  0  0  0  0  0
  5  4  2  0  0  0  0
 14 15  1  0  0  0  0
  5  6  1  0  0  0  0
 15 16  1  0  0  0  0
 28  7  2  0  0  0  0
  7  8  1  0  0  0  0
  8  9  1  0  0  0  0
  9  5  1  0  0  0  0
  4  1  1  0  0  0  0
 16 17  1  0  0  0  0
 17 18  1  0  0  0  0
 18 19  1  0  0  0  0
 19 20  1  0  0  0  0
 20 21  1  0  0  0  0
 21 16  1  0  0  0  0
  8 10  2  0  0  0  0
 19 22  1  0  0  0  0
  1 11  1  0  0  0  0
  1  2  2  0  0  0  0
 11 12  1  0  0  0  0
  2  3  1  0  0  0  0
 22 23  2  0  0  0  0
 23 24  1  0  0  0  0
 24 25  2  0  0  0  0
 25 26  1  0  0  0  0
 26 27  2  0  0  0  0
 27 22  1  0  0  0  0
 12 13  1  0  0  0  0
  3  6  2  0  0  0  0
 13 14  1  0  0  0  0
  6 28  1  0  0  0  0
 23 29  1  0  0  0  0
 29 30  2  0  0  0  0
 30 31  1  0  0  0  0
 24 31  1  0  0  0  0
M  END
> <DATABASE_ID>
DB09128

> <DATABASE_NAME>
drugbank

> <SMILES>
O=C1NC2=CC(OCCCCN3CCN(CC3)C3=C4C=CSC4=CC=C3)=CC=C2C=C1

> <INCHI_IDENTIFIER>
InChI=1S/C25H27N3O2S/c29-25-9-7-19-6-8-20(18-22(19)26-25)30-16-2-1-11-27-12-14-28(15-13-27)23-4-3-5-24-21(23)10-17-31-24/h3-10,17-18H,1-2,11-16H2,(H,26,29)

> <INCHI_KEY>
ZKIAIYBUSXZPLP-UHFFFAOYSA-N

> <FORMULA>
C25H27N3O2S

> <MOLECULAR_WEIGHT>
433.57

> <EXACT_MASS>
433.182398295

> <JCHEM_ACCEPTOR_COUNT>
4

> <JCHEM_ATOM_COUNT>
58

> <JCHEM_AVERAGE_POLARIZABILITY>
49.47918205026148

> <JCHEM_BIOAVAILABILITY>
1

> <JCHEM_DONOR_COUNT>
1

> <JCHEM_FORMAL_CHARGE>
0

> <JCHEM_GHOSE_FILTER>
1

> <JCHEM_IUPAC>
7-{4-[4-(1-benzothiophen-4-yl)piperazin-1-yl]butoxy}-1,2-dihydroquinolin-2-one

> <ALOGPS_LOGP>
5.38

> <JCHEM_LOGP>
4.6497025926666655

> <ALOGPS_LOGS>
-5.28

> <JCHEM_MDDR_LIKE_RULE>
1

> <JCHEM_NUMBER_OF_RINGS>
5

> <JCHEM_PHYSIOLOGICAL_CHARGE>
1

> <JCHEM_PKA_STRONGEST_ACIDIC>
13.563770516890099

> <JCHEM_PKA_STRONGEST_BASIC>
8.398200642482388

> <JCHEM_POLAR_SURFACE_AREA>
44.81

> <JCHEM_REFRACTIVITY>
129.1602

> <JCHEM_ROTATABLE_BOND_COUNT>
7

> <JCHEM_RULE_OF_FIVE>
1

> <ALOGPS_SOLUBILITY>
2.27e-03 g/l

> <JCHEM_TRADITIONAL_IUPAC>
brexpiprazole

> <JCHEM_VEBER_RULE>
0

> <DRUGBANK_ID>
DB09128

> <DRUG_GROUPS>
approved; investigational

> <GENERIC_NAME>
Brexpiprazole

> <SYNONYMS>
Brexpiprazole

> <PRODUCTS>
Rexulti; Rxulti

$$$$
