
  Mrv1909 07252215242D          

 36 40  0  0  0  0            999 V2000
   -3.9192   -0.8190    0.0000 C   0  0  0  0  0  0  0  0  0  0  0  0
   -3.9203   -1.6458    0.0000 C   0  0  0  0  0  0  0  0  0  0  0  0
   -3.2059   -2.0586    0.0000 C   0  0  0  0  0  0  0  0  0  0  0  0
   -2.4899   -1.6454    0.0000 C   0  0  0  0  0  0  0  0  0  0  0  0
   -2.4927   -0.8153    0.0000 C   0  0  0  0  0  0  0  0  0  0  0  0
   -3.2077   -0.4064    0.0000 C   0  0  0  0  0  0  0  0  0  0  0  0
    3.2082   -0.8237    0.0000 C   0  0  0  0  0  0  0  0  0  0  0  0
    3.9203   -0.4115    0.0000 C   0  0  0  0  0  0  0  0  0  0  0  0
    4.6325   -0.8195    0.0000 N   0  0  0  0  0  0  0  0  0  0  0  0
    5.3446   -0.4072    0.0000 C   0  0  0  0  0  0  0  0  0  0  0  0
    1.7818   -0.8273    0.0000 C   0  0  0  0  0  0  0  0  0  0  0  0
    1.7806   -1.6543    0.0000 C   0  0  0  0  0  0  0  0  0  0  0  0
    2.4951   -2.0668    0.0000 C   0  0  0  0  0  0  0  0  0  0  0  0
    3.2111   -1.6538    0.0000 C   0  0  0  0  0  0  0  0  0  0  0  0
    2.4933   -0.4147    0.0000 C   0  0  0  0  0  0  0  0  0  0  0  0
   -1.0624    1.6462    0.0000 C   0  0  0  0  0  0  0  0  0  0  0  0
   -1.0636    0.8193    0.0000 C   0  0  0  0  0  0  0  0  0  0  0  0
   -0.3492    0.4067    0.0000 C   0  0  0  0  0  0  0  0  0  0  0  0
    0.3669    0.8198    0.0000 C   0  0  0  0  0  0  0  0  0  0  0  0
    0.3640    1.6498    0.0000 C   0  0  0  0  0  0  0  0  0  0  0  0
   -0.3510    2.0588    0.0000 C   0  0  0  0  0  0  0  0  0  0  0  0
   -2.4903    1.6503    0.0000 C   0  0  0  0  0  0  0  0  0  0  0  0
   -1.7781    2.0626    0.0000 N   0  0  0  0  0  0  0  0  0  0  0  0
   -3.9136    1.6503    0.0000 C   0  0  0  0  0  0  0  0  0  0  0  0
   -3.9136    0.8258    0.0000 C   0  0  0  0  0  0  0  0  0  0  0  0
   -3.2019    0.4177    0.0000 C   0  0  0  0  0  0  0  0  0  0  0  0
   -2.4903    0.8258    0.0000 N   0  0  0  0  0  0  0  0  0  0  0  0
   -3.2019    2.0668    0.0000 N   0  0  0  0  0  0  0  0  0  0  0  0
   -5.3435    1.6462    0.0000 C   0  0  0  0  0  0  0  0  0  0  0  0
   -5.3446    0.8193    0.0000 C   0  0  0  0  0  0  0  0  0  0  0  0
   -4.6301    0.4067    0.0000 C   0  0  0  0  0  0  0  0  0  0  0  0
   -4.6320    2.0588    0.0000 C   0  0  0  0  0  0  0  0  0  0  0  0
    1.0753    0.4094    0.0000 C   0  0  0  0  0  0  0  0  0  0  0  0
    1.0710   -0.4150    0.0000 N   0  0  0  0  0  0  0  0  0  0  0  0
    1.7874    0.8258    0.0000 O   0  0  0  0  0  0  0  0  0  0  0  0
    1.0628   -2.0600    0.0000 C   0  0  0  0  0  0  0  0  0  0  0  0
  4  5  1  0  0  0  0
 18 19  2  0  0  0  0
  9 10  1  0  0  0  0
 19 20  1  0  0  0  0
  2  3  1  0  0  0  0
 20 21  2  0  0  0  0
 21 16  1  0  0  0  0
  5  6  2  0  0  0  0
 11 12  2  0  0  0  0
 22 23  1  0  0  0  0
 23 16  1  0  0  0  0
 24 25  1  0  0  0  0
  6  1  1  0  0  0  0
 12 13  1  0  0  0  0
  1  2  2  0  0  0  0
 13 14  2  0  0  0  0
 14  7  1  0  0  0  0
 24 28  1  0  0  0  0
 25 26  1  0  0  0  0
 26 27  2  0  0  0  0
 27 22  1  0  0  0  0
 22 28  2  0  0  0  0
  3  4  2  0  0  0  0
  7 15  2  0  0  0  0
 29 30  2  0  0  0  0
 15 11  1  0  0  0  0
 30 31  1  0  0  0  0
 31 25  2  0  0  0  0
  7  8  1  0  0  0  0
 24 32  2  0  0  0  0
 32 29  1  0  0  0  0
 19 33  1  0  0  0  0
 16 17  2  0  0  0  0
 33 34  1  0  0  0  0
 34 11  1  0  0  0  0
  8  9  1  0  0  0  0
 33 35  2  0  0  0  0
 17 18  1  0  0  0  0
 12 36  1  0  0  0  0
 26  6  1  0  0  0  0
M  END
> <DATABASE_ID>
DB16844

> <DATABASE_NAME>
drugbank

> <SMILES>
CNCC1=CC(NC(=O)C2=CC=C(NC3=NC4=CC=CC=C4C(=N3)C3=CC=CC=C3)C=C2)=C(C)C=C1

> <INCHI_IDENTIFIER>
InChI=1S/C30H27N5O/c1-20-12-13-21(19-31-2)18-27(20)33-29(36)23-14-16-24(17-15-23)32-30-34-26-11-7-6-10-25(26)28(35-30)22-8-4-3-5-9-22/h3-18,31H,19H2,1-2H3,(H,33,36)(H,32,34,35)

> <INCHI_KEY>
KLRRGBHZCJLIEL-UHFFFAOYSA-N

> <FORMULA>
C30H27N5O

> <MOLECULAR_WEIGHT>
473.58

> <EXACT_MASS>
473.221560509

> <JCHEM_ACCEPTOR_COUNT>
5

> <JCHEM_ATOM_COUNT>
63

> <JCHEM_AVERAGE_NEUTRAL_MICROSPECIES_CHARGE>
1.996906539136913

> <JCHEM_AVERAGE_POLARIZABILITY>
53.86937000997961

> <JCHEM_BIOAVAILABILITY>
1

> <JCHEM_DONOR_COUNT>
3

> <JCHEM_FORMAL_CHARGE>
0

> <JCHEM_GHOSE_FILTER>
0

> <JCHEM_IUPAC>
N-{2-methyl-5-[(methylamino)methyl]phenyl}-4-[(4-phenylquinazolin-2-yl)amino]benzamide

> <ALOGPS_LOGP>
5.23

> <JCHEM_LOGP>
6.740505047999999

> <ALOGPS_LOGS>
-5.45

> <JCHEM_MDDR_LIKE_RULE>
1

> <JCHEM_NEUTRAL_CHARGE>
1

> <JCHEM_NUMBER_OF_RINGS>
5

> <JCHEM_PHYSIOLOGICAL_CHARGE>
1

> <JCHEM_PKA>
16.252003543432963

> <JCHEM_PKA_STRONGEST_ACIDIC>
12.47888774901985

> <JCHEM_PKA_STRONGEST_BASIC>
9.015327191998317

> <JCHEM_POLAR_SURFACE_AREA>
78.94

> <JCHEM_REFRACTIVITY>
145.81960000000004

> <JCHEM_ROTATABLE_BOND_COUNT>
7

> <JCHEM_RULE_OF_FIVE>
0

> <ALOGPS_SOLUBILITY>
1.66e-03 g/l

> <JCHEM_TRADITIONAL_IUPAC>
N-{2-methyl-5-[(methylamino)methyl]phenyl}-4-[(4-phenylquinazolin-2-yl)amino]benzamide

> <JCHEM_VEBER_RULE>
0

> <DRUGBANK_ID>
DB16844

> <DRUG_GROUPS>
investigational

> <GENERIC_NAME>
BMS-833923

> <SYNONYMS>
BMS-833923 free base anhydrous

$$$$
