
  Mrv1909 11201903272D          

 61 60  0  0  0  0            999 V2000
   -6.7842   -0.2060    0.0000 C   0  0  0  0  0  0  0  0  0  0  0  0
   -6.7842   -1.0296    0.0000 O   0  0  0  0  0  0  0  0  0  0  0  0
   -6.0695    0.2060    0.0000 N   0  0  0  0  0  0  0  0  0  0  0  0
   -5.3546   -0.2060    0.0000 C   0  0  1  0  0  0  0  0  0  0  0  0
   -5.3546   -1.0296    0.0000 C   0  0  0  0  0  0  0  0  0  0  0  0
   -6.0761   -1.4416    0.0000 C   0  0  0  0  0  0  0  0  0  0  0  0
   -6.0761   -2.2654    0.0000 C   0  0  0  0  0  0  0  0  0  0  0  0
   -5.3648   -2.6831    0.0000 O   0  0  0  0  0  0  0  0  0  0  0  0
   -6.7945   -2.6712    0.0000 O   0  0  0  0  0  0  0  0  0  0  0  0
   -4.6443    0.2060    0.0000 C   0  0  0  0  0  0  0  0  0  0  0  0
   -3.9294   -0.2060    0.0000 N   0  0  0  0  0  0  0  0  0  0  0  0
   -3.2145    0.2060    0.0000 C   0  0  2  0  0  0  0  0  0  0  0  0
   -2.4997   -0.2060    0.0000 C   0  0  0  0  0  0  0  0  0  0  0  0
   -2.4997   -1.0296    0.0000 O   0  0  0  0  0  0  0  0  0  0  0  0
   -1.7847    0.2060    0.0000 N   0  0  0  0  0  0  0  0  0  0  0  0
   -1.0699   -0.2060    0.0000 C   0  0  2  0  0  0  0  0  0  0  0  0
   -0.3551    0.2060    0.0000 C   0  0  0  0  0  0  0  0  0  0  0  0
   -0.3551    1.0296    0.0000 O   0  0  0  0  0  0  0  0  0  0  0  0
    0.3597   -0.2060    0.0000 N   0  0  0  0  0  0  0  0  0  0  0  0
    1.0699    0.2060    0.0000 C   0  0  1  0  0  0  0  0  0  0  0  0
    1.0699    1.0296    0.0000 C   0  0  0  0  0  0  0  0  0  0  0  0
    1.7848    1.4416    0.0000 C   0  0  0  0  0  0  0  0  0  0  0  0
    1.7848    2.2699    0.0000 C   0  0  0  0  0  0  0  0  0  0  0  0
    1.0690    2.6863    0.0000 O   0  0  0  0  0  0  0  0  0  0  0  0
    2.5000    2.6812    0.0000 N   0  0  0  0  0  0  0  0  0  0  0  0
    1.7848   -0.2060    0.0000 C   0  0  0  0  0  0  0  0  0  0  0  0
    1.7848   -1.0296    0.0000 O   0  0  0  0  0  0  0  0  0  0  0  0
    2.4997    0.2060    0.0000 N   0  0  0  0  0  0  0  0  0  0  0  0
    3.2146   -0.2060    0.0000 C   0  0  2  0  0  0  0  0  0  0  0  0
    3.9295    0.2060    0.0000 C   0  0  0  0  0  0  0  0  0  0  0  0
    4.6443   -0.2060    0.0000 N   0  0  0  0  0  0  0  0  0  0  0  0
    5.3546    0.2060    0.0000 C   0  0  2  0  0  0  0  0  0  0  0  0
    6.0695   -0.2060    0.0000 C   0  0  0  0  0  0  0  0  0  0  0  0
    6.0695   -1.0296    0.0000 O   0  0  0  0  0  0  0  0  0  0  0  0
    6.7843    0.2060    0.0000 N   0  0  0  0  0  0  0  0  0  0  0  0
    5.3546    1.0296    0.0000 C   0  0  0  0  0  0  0  0  0  0  0  0
    6.0695    1.4416    0.0000 C   0  0  0  0  0  0  0  0  0  0  0  0
    6.0695    2.2699    0.0000 C   0  0  0  0  0  0  0  0  0  0  0  0
    6.7843    2.6817    0.0000 N   0  0  0  0  0  0  0  0  0  0  0  0
    6.7843    3.5056    0.0000 C   0  0  0  0  0  0  0  0  0  0  0  0
    7.4992    3.9174    0.0000 N   0  0  0  0  0  0  0  0  0  0  0  0
    6.0695    3.9174    0.0000 N   0  0  0  0  0  0  0  0  0  0  0  0
    3.9295    1.0296    0.0000 O   0  0  0  0  0  0  0  0  0  0  0  0
    3.2146   -1.0296    0.0000 C   0  0  0  0  0  0  0  0  0  0  0  0
    3.9295   -1.4416    0.0000 C   0  0  0  0  0  0  0  0  0  0  0  0
    3.9295   -2.2699    0.0000 C   0  0  0  0  0  0  0  0  0  0  0  0
    4.6443   -2.6817    0.0000 N   0  0  0  0  0  0  0  0  0  0  0  0
    4.6443   -3.5056    0.0000 C   0  0  0  0  0  0  0  0  0  0  0  0
    5.3546   -3.9174    0.0000 N   0  0  0  0  0  0  0  0  0  0  0  0
    3.9295   -3.9174    0.0000 N   0  0  0  0  0  0  0  0  0  0  0  0
   -1.0699   -1.0296    0.0000 C   0  0  0  0  0  0  0  0  0  0  0  0
   -0.3551   -1.4416    0.0000 C   0  0  0  0  0  0  0  0  0  0  0  0
   -0.3551   -2.2699    0.0000 S   0  0  0  0  0  0  0  0  0  0  0  0
   -0.3551   -3.0891    0.0000 C   0  0  0  0  0  0  0  0  0  0  0  0
   -3.2145    1.0296    0.0000 C   0  0  0  0  0  0  0  0  0  0  0  0
   -2.5083    1.4416    0.0000 C   0  0  0  0  0  0  0  0  0  0  0  0
   -2.5083    2.2744    0.0000 C   0  0  0  0  0  0  0  0  0  0  0  0
   -3.2272    2.6790    0.0000 O   0  0  0  0  0  0  0  0  0  0  0  0
   -1.7975    2.6891    0.0000 O   0  0  0  0  0  0  0  0  0  0  0  0
   -4.6443    1.0296    0.0000 C   0  0  0  0  0  0  0  0  0  0  0  0
   -7.4992    0.2060    0.0000 C   0  0  0  0  0  0  0  0  0  0  0  0
  1  2  2  0  0  0  0
  1  3  1  0  0  0  0
  3  4  1  0  0  0  0
  4  5  1  6  0  0  0
  5  6  1  0  0  0  0
  6  7  1  0  0  0  0
  7  8  1  0  0  0  0
  7  9  2  0  0  0  0
  4 10  1  0  0  0  0
 10 11  1  0  0  0  0
 11 12  1  0  0  0  0
 12 13  1  0  0  0  0
 13 14  2  0  0  0  0
 13 15  1  0  0  0  0
 15 16  1  0  0  0  0
 16 17  1  0  0  0  0
 17 18  2  0  0  0  0
 17 19  1  0  0  0  0
 19 20  1  0  0  0  0
 20 21  1  1  0  0  0
 21 22  1  0  0  0  0
 22 23  1  0  0  0  0
 23 24  2  0  0  0  0
 23 25  1  0  0  0  0
 20 26  1  0  0  0  0
 26 27  2  0  0  0  0
 26 28  1  0  0  0  0
 28 29  1  0  0  0  0
 29 30  1  0  0  0  0
 30 31  1  0  0  0  0
 31 32  1  0  0  0  0
 32 33  1  0  0  0  0
 33 34  2  0  0  0  0
 33 35  1  0  0  0  0
 32 36  1  1  0  0  0
 36 37  1  0  0  0  0
 37 38  1  0  0  0  0
 38 39  1  0  0  0  0
 39 40  1  0  0  0  0
 40 41  1  0  0  0  0
 40 42  2  0  0  0  0
 30 43  2  0  0  0  0
 29 44  1  6  0  0  0
 44 45  1  0  0  0  0
 45 46  1  0  0  0  0
 46 47  1  0  0  0  0
 47 48  1  0  0  0  0
 48 49  1  0  0  0  0
 48 50  2  0  0  0  0
 16 51  1  6  0  0  0
 51 52  1  0  0  0  0
 52 53  1  0  0  0  0
 53 54  1  0  0  0  0
 12 55  1  1  0  0  0
 55 56  1  0  0  0  0
 56 57  1  0  0  0  0
 57 58  2  0  0  0  0
 57 59  1  0  0  0  0
 10 60  2  0  0  0  0
  1 61  1  0  0  0  0
M  END
> <DATABASE_ID>
DB11709

> <DATABASE_NAME>
drugbank

> <SMILES>
CSCC[C@H](NC(=O)[C@H](CCC(O)=O)NC(=C)[C@H](CCC(O)=O)NC(C)=O)C(=O)N[C@@H](CCC(N)=O)C(=O)N[C@@H](CCCNC(N)=N)C(=O)N[C@@H](CCCNC(N)=N)C(N)=O

> <INCHI_IDENTIFIER>
InChI=1S/C35H62N14O11S/c1-18(20(45-19(2)50)9-12-27(52)53)44-23(10-13-28(54)55)31(58)49-25(14-17-61-3)33(60)48-24(8-11-26(36)51)32(59)47-22(7-5-16-43-35(40)41)30(57)46-21(29(37)56)6-4-15-42-34(38)39/h20-25,44H,1,4-17H2,2-3H3,(H2,36,51)(H2,37,56)(H,45,50)(H,46,57)(H,47,59)(H,48,60)(H,49,58)(H,52,53)(H,54,55)(H4,38,39,42)(H4,40,41,43)/t20-,21-,22-,23-,24-,25-/m0/s1

> <INCHI_KEY>
AJLNZWYOJAWBCR-OOPVGHQCSA-N

> <FORMULA>
C35H62N14O11S

> <MOLECULAR_WEIGHT>
887.03

> <EXACT_MASS>
886.444320046

> <JCHEM_ACCEPTOR_COUNT>
18

> <JCHEM_ATOM_COUNT>
123

> <JCHEM_AVERAGE_POLARIZABILITY>
89.92738222547175

> <JCHEM_BIOAVAILABILITY>
0

> <JCHEM_DONOR_COUNT>
16

> <JCHEM_FORMAL_CHARGE>
0

> <JCHEM_GHOSE_FILTER>
0

> <JCHEM_IUPAC>
(4S)-5-{[(1S)-1-{[(1S)-1-{[(1S)-1-{[(1S)-4-carbamimidamido-1-{[(1S)-4-carbamimidamido-1-carbamoylbutyl]carbamoyl}butyl]carbamoyl}-3-carbamoylpropyl]carbamoyl}-3-(methylsulfanyl)propyl]carbamoyl}-3-carboxypropyl]amino}-4-acetamidohex-5-enoic acid

> <ALOGPS_LOGP>
-2.93

> <JCHEM_LOGP>
-9.769424860605927

> <ALOGPS_LOGS>
-3.96

> <JCHEM_MDDR_LIKE_RULE>
0

> <JCHEM_NUMBER_OF_RINGS>
0

> <JCHEM_PHYSIOLOGICAL_CHARGE>
1

> <JCHEM_PKA>
4.172318261433819

> <JCHEM_PKA_STRONGEST_ACIDIC>
3.5493166997622345

> <JCHEM_PKA_STRONGEST_BASIC>
12.091589076818087

> <JCHEM_POLAR_SURFACE_AREA>
442.10999999999996

> <JCHEM_REFRACTIVITY>
240.99249999999995

> <JCHEM_ROTATABLE_BOND_COUNT>
33

> <JCHEM_RULE_OF_FIVE>
0

> <ALOGPS_SOLUBILITY>
9.81e-02 g/l

> <JCHEM_TRADITIONAL_IUPAC>
(Z)-N'-cyano-N-(3,3-dimethylbutan-2-yl)-N''-(pyridin-4-yl)guanidine

> <JCHEM_VEBER_RULE>
0

> <DRUGBANK_ID>
DB11709

> <DRUG_GROUPS>
investigational

> <GENERIC_NAME>
Acetyl hexapeptide-3

> <SYNONYMS>
Acetyl hexapeptide-3; Acetyl hexapeptide-8; Argireline; Argireline NP; Hexapeptide 3

> <PRODUCTS>
Derma Instant Youth; HydroGold 9; Laser Rejuvenation restoring damage skin

$$$$
