
  Mrv1909 12031915052D          

 39 43  0  0  0  0            999 V2000
   -2.3886   -2.3725    0.0000 C   0  0  0  0  0  0  0  0  0  0  0  0
   -3.1044   -3.6111    0.0000 C   0  0  0  0  0  0  0  0  0  0  0  0
   -3.1044   -2.7827    0.0000 N   0  0  0  0  0  0  0  0  0  0  0  0
   -2.3886   -4.0213    0.0000 N   0  0  0  0  0  0  0  0  0  0  0  0
   -2.3886   -1.5441    0.0000 N   0  0  0  0  0  0  0  0  0  0  0  0
   -1.6728   -2.7827    0.0000 C   0  0  0  0  0  0  0  0  0  0  0  0
   -1.6728   -3.6111    0.0000 C   0  0  0  0  0  0  0  0  0  0  0  0
   -0.4102   -3.1929    0.0000 C   0  0  0  0  0  0  0  0  0  0  0  0
   -0.8927   -3.8605    0.0000 O   0  0  0  0  0  0  0  0  0  0  0  0
   -0.8927   -2.5254    0.0000 C   0  0  0  0  0  0  0  0  0  0  0  0
   -0.4825   -1.8176    0.0000 C   0  0  0  0  0  0  0  0  0  0  0  0
    0.7559   -1.1018    0.0000 C   0  0  0  0  0  0  0  0  0  0  0  0
    0.3458   -0.3860    0.0000 C   0  0  0  0  0  0  0  0  0  0  0  0
   -0.4825   -0.3860    0.0000 C   0  0  0  0  0  0  0  0  0  0  0  0
   -0.8927   -1.1018    0.0000 C   0  0  0  0  0  0  0  0  0  0  0  0
    0.3458   -1.8176    0.0000 C   0  0  0  0  0  0  0  0  0  0  0  0
    0.4182   -3.1929    0.0000 C   0  0  0  0  0  0  0  0  0  0  0  0
    2.0669   -3.1929    0.0000 C   0  0  0  0  0  0  0  0  0  0  0  0
    1.6567   -2.4852    0.0000 C   0  0  0  0  0  0  0  0  0  0  0  0
    0.8284   -2.4852    0.0000 C   0  0  0  0  0  0  0  0  0  0  0  0
    0.8284   -3.9087    0.0000 C   0  0  0  0  0  0  0  0  0  0  0  0
    1.6567   -3.9087    0.0000 C   0  0  0  0  0  0  0  0  0  0  0  0
    2.8953   -3.1929    0.0000 O   0  0  0  0  0  0  0  0  0  0  0  0
    3.1044   -3.9971    0.0000 C   0  0  0  0  0  0  0  0  0  0  0  0
    0.7559    0.3297    0.0000 N   0  0  0  0  0  0  0  0  0  0  0  0
    0.3458    1.0455    0.0000 C   0  0  0  0  0  0  0  0  0  0  0  0
   -0.4825    1.0455    0.0000 O   0  0  0  0  0  0  0  0  0  0  0  0
    0.7559    1.7532    0.0000 N   0  0  0  0  0  0  0  0  0  0  0  0
    0.3458    2.4691    0.0000 C   0  0  0  0  0  0  0  0  0  0  0  0
   -0.8766    3.2089    0.0000 C   0  0  0  0  0  0  0  0  0  0  0  0
   -0.4825    2.4852    0.0000 C   0  0  0  0  0  0  0  0  0  0  0  0
    0.7720    3.1768    0.0000 C   0  0  0  0  0  0  0  0  0  0  0  0
    0.3779    3.9007    0.0000 C   0  0  0  0  0  0  0  0  0  0  0  0
   -0.4504    3.9167    0.0000 C   0  0  0  0  0  0  0  0  0  0  0  0
    1.6004    3.1607    0.0000 F   0  0  0  0  0  0  0  0  0  0  0  0
   -1.7050    3.2251    0.0000 C   0  0  0  0  0  0  0  0  0  0  0  0
   -1.4798    4.0213    0.0000 F   0  0  0  0  0  0  0  0  0  0  0  0
   -1.9222    2.4288    0.0000 F   0  0  0  0  0  0  0  0  0  0  0  0
   -2.4128    3.6352    0.0000 F   0  0  0  0  0  0  0  0  0  0  0  0
  1  3  1  0  0  0  0
  1  6  2  0  0  0  0
  1  5  1  0  0  0  0
  2  3  2  0  0  0  0
  2  4  1  0  0  0  0
  4  7  2  0  0  0  0
  6 10  1  0  0  0  0
  6  7  1  0  0  0  0
  7  9  1  0  0  0  0
  8 10  2  0  0  0  0
  8  9  1  0  0  0  0
  8 17  1  0  0  0  0
 10 11  1  0  0  0  0
 11 15  1  0  0  0  0
 11 16  2  0  0  0  0
 12 13  2  0  0  0  0
 12 16  1  0  0  0  0
 13 14  1  0  0  0  0
 13 25  1  0  0  0  0
 14 15  2  0  0  0  0
 17 20  1  0  0  0  0
 17 21  2  0  0  0  0
 18 19  1  0  0  0  0
 18 22  2  0  0  0  0
 18 23  1  0  0  0  0
 19 20  2  0  0  0  0
 21 22  1  0  0  0  0
 23 24  1  0  0  0  0
 25 26  1  0  0  0  0
 26 28  1  0  0  0  0
 26 27  2  0  0  0  0
 28 29  1  0  0  0  0
 29 31  1  0  0  0  0
 29 32  2  0  0  0  0
 30 31  2  0  0  0  0
 30 34  1  0  0  0  0
 30 36  1  0  0  0  0
 32 33  1  0  0  0  0
 32 35  1  0  0  0  0
 33 34  2  0  0  0  0
 36 39  1  0  0  0  0
 36 38  1  0  0  0  0
 36 37  1  0  0  0  0
M  END
> <DATABASE_ID>
DB04727

> <DATABASE_NAME>
drugbank

> <SMILES>
COC1=CC=C(C=C1)C1=C(C2=C(N)N=CN=C2O1)C1=CC=C(NC(=O)NC2=C(F)C=CC(=C2)C(F)(F)F)C=C1

> <INCHI_IDENTIFIER>
InChI=1S/C27H19F4N5O3/c1-38-18-9-4-15(5-10-18)23-21(22-24(32)33-13-34-25(22)39-23)14-2-7-17(8-3-14)35-26(37)36-20-12-16(27(29,30)31)6-11-19(20)28/h2-13H,1H3,(H2,32,33,34)(H2,35,36,37)

> <INCHI_KEY>
FGZIONRFHVNRJB-UHFFFAOYSA-N

> <FORMULA>
C27H19F4N5O3

> <MOLECULAR_WEIGHT>
537.4651

> <EXACT_MASS>
537.142402319

> <JCHEM_ACCEPTOR_COUNT>
5

> <JCHEM_ATOM_COUNT>
58

> <JCHEM_AVERAGE_POLARIZABILITY>
48.89237319499472

> <JCHEM_BIOAVAILABILITY>
0

> <JCHEM_DONOR_COUNT>
3

> <JCHEM_FORMAL_CHARGE>
0

> <JCHEM_GHOSE_FILTER>
0

> <JCHEM_IUPAC>
3-{4-[4-amino-6-(4-methoxyphenyl)furo[2,3-d]pyrimidin-5-yl]phenyl}-1-[2-fluoro-5-(trifluoromethyl)phenyl]urea

> <ALOGPS_LOGP>
5.04

> <JCHEM_LOGP>
5.564592832666667

> <ALOGPS_LOGS>
-4.60

> <JCHEM_MDDR_LIKE_RULE>
1

> <JCHEM_NUMBER_OF_RINGS>
5

> <JCHEM_PHYSIOLOGICAL_CHARGE>
0

> <JCHEM_PKA>
17.88718334793548

> <JCHEM_PKA_STRONGEST_ACIDIC>
10.325271846689125

> <JCHEM_PKA_STRONGEST_BASIC>
3.290583239726126

> <JCHEM_POLAR_SURFACE_AREA>
115.30000000000001

> <JCHEM_REFRACTIVITY>
139.32789999999997

> <JCHEM_ROTATABLE_BOND_COUNT>
6

> <JCHEM_RULE_OF_FIVE>
0

> <ALOGPS_SOLUBILITY>
1.36e-02 g/l

> <JCHEM_TRADITIONAL_IUPAC>
(2S)-N-methyl-2-[(3S)-3-(2-methylpropyl)-2,5-dioxo-4-(quinolin-3-ylmethyl)-1,4-diazepan-1-yl]-3-(naphthalen-2-yl)propanamide

> <JCHEM_VEBER_RULE>
0

> <DRUGBANK_ID>
DB04727

> <DRUG_GROUPS>
experimental

> <GENERIC_NAME>
1-{4-[4-Amino-6-(4-methoxyphenyl)furo[2,3-d]pyrimidin-5-yl]phenyl}-3-[2-fluoro-5-(trifluoromethyl)phenyl]urea

$$$$
