
  Mrv1909 06282223582D          

 34 35  0  0  0  0            999 V2000
   -3.4021    0.4141    0.0000 C   0  0  0  0  0  0  0  0  0  0  0  0
   -3.4021   -0.4232    0.0000 C   0  0  0  0  0  0  0  0  0  0  0  0
   -4.1075   -0.8243    0.0000 C   0  0  0  0  0  0  0  0  0  0  0  0
   -4.1075   -1.6438    0.0000 C   0  0  0  0  0  0  0  0  0  0  0  0
   -4.8390   -0.4232    0.0000 C   0  0  0  0  0  0  0  0  0  0  0  0
   -4.8390    0.4141    0.0000 C   0  0  0  0  0  0  0  0  0  0  0  0
   -4.1075    0.8197    0.0000 C   0  0  0  0  0  0  0  0  0  0  0  0
   -4.1075    1.6438    0.0000 C   0  0  0  0  0  0  0  0  0  0  0  0
   -5.5574    0.8197    0.0000 C   0  0  0  0  0  0  0  0  0  0  0  0
   -5.5663   -0.8243    0.0000 O   0  0  0  0  0  0  0  0  0  0  0  0
   -6.5805   -0.5669    0.0000 C   0  0  0  0  0  0  0  0  0  0  0  0
   -6.7184    0.2381    0.0000 O   0  0  0  0  0  0  0  0  0  0  0  0
   -7.3559   -1.0838    0.0000 C   0  0  0  0  0  0  0  0  0  0  0  0
   -2.6881   -0.8243    0.0000 C   0  0  0  0  0  0  0  0  0  0  0  0
   -1.9787   -0.4232    0.0000 C   0  0  0  0  0  0  0  0  0  0  0  0
   -1.9787    0.4141    0.0000 C   0  0  0  0  0  0  0  0  0  0  0  0
   -2.6881    0.8197    0.0000 O   0  0  0  0  0  0  0  0  0  0  0  0
   -1.2648    0.8286    0.0000 C   0  0  0  0  0  0  0  0  0  0  0  0
   -0.5285    0.4361    0.0000 C   0  0  0  0  0  0  0  0  0  0  0  0
    0.1851    0.8461    0.0000 C   0  0  0  0  0  0  0  0  0  0  0  0
    0.9036    0.4360    0.0000 C   0  0  0  0  0  0  0  0  0  0  0  0
    1.6088    0.8637    0.0000 C   0  0  0  0  0  0  0  0  0  0  0  0
    2.3272    0.4715    0.0000 C   0  0  0  0  0  0  0  0  0  0  0  0
    3.0500    0.8815    0.0000 C   0  0  0  0  0  0  0  0  0  0  0  0
    3.7684    0.4757    0.0000 C   0  0  0  0  0  0  0  0  0  0  0  0
    4.4781    0.8990    0.0000 C   0  0  0  0  0  0  0  0  0  0  0  0
    5.2054    0.4980    0.0000 C   0  0  0  0  0  0  0  0  0  0  0  0
    5.9149    0.9122    0.0000 C   0  0  0  0  0  0  0  0  0  0  0  0
    6.6376    0.5154    0.0000 C   0  0  0  0  0  0  0  0  0  0  0  0
    7.3559    0.9341    0.0000 C   0  0  0  0  0  0  0  0  0  0  0  0
    6.6376   -0.3085    0.0000 C   0  0  0  0  0  0  0  0  0  0  0  0
    3.7684   -0.3439    0.0000 C   0  0  0  0  0  0  0  0  0  0  0  0
    0.9036   -0.3835    0.0000 C   0  0  0  0  0  0  0  0  0  0  0  0
   -1.2427    0.0352    0.0000 C   0  0  0  0  0  0  0  0  0  0  0  0
  2  1  2  0  0  0  0
  3  2  1  0  0  0  0
  4  3  1  0  0  0  0
  5  3  2  0  0  0  0
  5  6  1  0  0  0  0
  6  7  2  0  0  0  0
  7  1  1  0  0  0  0
  8  7  1  0  0  0  0
  9  6  1  0  0  0  0
 10  5  1  0  0  0  0
 10 11  1  0  0  0  0
 11 12  2  0  0  0  0
 11 13  1  0  0  0  0
 14  2  1  0  0  0  0
 14 15  1  0  0  0  0
 15 16  1  0  0  0  0
 16 17  1  0  0  0  0
 17  1  1  0  0  0  0
 16 18  1  0  0  0  0
 19 18  1  0  0  0  0
 20 19  1  0  0  0  0
 21 20  1  0  0  0  0
 22 21  1  0  0  0  0
 23 22  1  0  0  0  0
 24 23  1  0  0  0  0
 25 24  1  0  0  0  0
 26 25  1  0  0  0  0
 27 26  1  0  0  0  0
 28 27  1  0  0  0  0
 29 28  1  0  0  0  0
 30 29  1  0  0  0  0
 31 29  1  0  0  0  0
 25 32  1  0  0  0  0
 21 33  1  0  0  0  0
 16 34  1  0  0  0  0
M  END
> <DATABASE_ID>
DB14477

> <DATABASE_NAME>
drugbank

> <SMILES>
CC(C)CCCC(C)CCCC(C)CCCC1(C)CCC2=C(O1)C(C)=C(C)C(OC(C)=O)=C2C

> <INCHI_IDENTIFIER>
InChI=1S/C31H52O3/c1-21(2)13-10-14-22(3)15-11-16-23(4)17-12-19-31(9)20-18-28-26(7)29(33-27(8)32)24(5)25(6)30(28)34-31/h21-23H,10-20H2,1-9H3

> <INCHI_KEY>
ZAKOWWREFLAJOT-UHFFFAOYSA-N

> <FORMULA>
C31H52O3

> <MOLECULAR_WEIGHT>
472.754

> <EXACT_MASS>
472.391645534

> <JCHEM_ACCEPTOR_COUNT>
2

> <JCHEM_ATOM_COUNT>
86

> <JCHEM_AVERAGE_NEUTRAL_MICROSPECIES_CHARGE>
1.383513430453622e-05

> <JCHEM_AVERAGE_POLARIZABILITY>
59.56686973751985

> <JCHEM_BIOAVAILABILITY>
0

> <JCHEM_DONOR_COUNT>
0

> <JCHEM_FORMAL_CHARGE>
0

> <JCHEM_GHOSE_FILTER>
0

> <JCHEM_IUPAC>
2,5,7,8-tetramethyl-2-(4,8,12-trimethyltridecyl)-3,4-dihydro-2H-1-benzopyran-6-yl acetate

> <JCHEM_LOGP>
10.418543556000001

> <JCHEM_MDDR_LIKE_RULE>
0

> <JCHEM_NEUTRAL_CHARGE>
0

> <JCHEM_NUMBER_OF_RINGS>
2

> <JCHEM_PHYSIOLOGICAL_CHARGE>
0

> <JCHEM_PKA_STRONGEST_BASIC>
-4.8567558795249655

> <JCHEM_POLAR_SURFACE_AREA>
35.53

> <JCHEM_REFRACTIVITY>
144.5256

> <JCHEM_ROTATABLE_BOND_COUNT>
14

> <JCHEM_RULE_OF_FIVE>
0

> <JCHEM_TRADITIONAL_IUPAC>
vitamin E acetate

> <JCHEM_VEBER_RULE>
0

> <DRUGBANK_ID>
DB14477

> <DRUG_GROUPS>
approved; experimental

> <GENERIC_NAME>
DL-alpha tocopheryl acetate

> <SYNONYMS>
all-rac-alfa-tocopheryl acetate; all-rac-alpha-tocopheryl acetate; DL-alpha-tocopheryl acetate

> <PRODUCTS>
A/o-26 - Caplet; Abavite; Active FE; Animal Shapes w/Iron Chewtabs; Aquasol E Drops 50unit/ml; Bal-Care DHA; Bal-Care DHA Essential; Balance Ace - Cap; Beta C and E Tab; Betacept Special Formula Vitamins Cap; Cavan Alpha; Cavan Folate DHA; Cavan Folate OB; Cavan One; Cavan-EC SOD DHA; Children's Chew Multi & Min Tab; Childrens Chewable Multiple Vitamins W.iron; Choice OB DHA; Complete Natal DHA; Complete-RF Prenatal; CompleteNate Chewable; Davimet; DuetDHA Balanced; DuetDHA Complete; E Vitamin 200I.U. (synthetic Source) - Cap; E Vitamin 400 I.U. (synthetic Source)-cap; E Vitamin 800I.U.(synthetic Source)-cap; Edge OB; Fibrik; Fizz Multivitamins for Kids W C Loz; Folic-K; Foliflex; Folika-MG; Folitin-Z; Foltabs Prenatal; Hand Sanitizer With Ve; Instant Hand Sanitizer Wipes; Iron Polysaccharides Folic Acid DHA; Isotonix Atx Vitamin Mineral Formula; Isotonix Multitech Vitamin Mineral Supplemen; LYDIA PINKHAM Herbal Supplement; M.V.I. Adult; M.V.I. Pediatric; M.V.I.-12; Macuzin; Materna - Tab; Materna-tab; Mega Capsules; Megavite Rx; Multi Vitamin with Fluoride; Multi-Vit with Fluoride; Multi-Vit with Fluoride and Iron; Multi-Vitamin; Multi-Vitamin With Fluoride; Multi-phyto Capsules; MultiVitamin with Fluoride; Multiple Vitamins - Tablet; Multiple Vitamins Plus Iron - Tab; Multiple Vitamins With Iron Tablets; Multitam; Multivitamin with Fluoride; Multivitamin with fluoride; Mvc 9 Plus 3 Inj; Mvc 9+4 Inj; NEONATAL Complete; NataFort; Natal-V RX Multi-vitamin/Multi-mineral; Natalvirt 90dha; Natalvirt Ca; Neonatal DHA; Niva-Plus; Numark Multivitamins; Ocuvite Tab; One-A-day Advance Fem - Tablets; PNV Ferrous Fumarate Docusate Folic Acid; PNV Prenatal Plus Multivitamin; PNV Prenatal Vitamin; PNV Prenatal Vitamin Plus Vitamin A; PNV Tabs 29-1; PNV-First; PNV-Select; PR Natal 400; PR Natal 400 ec; PR Natal 430; PR Natal 430 ec; PRENATE Enhance; PRENATE Restore; Palm Springs Multvit and Min Tab; Paramettes Adults; Paramettes Beta Carotene With Vitamins C & E; Phytovim Cap; Ply Vi Sol Chewable Tab; Pnv Ob DHA; Pnv-OB-dha; Pnv-dha; Poly Vi Flor Chewable Tab; PreNatal 19; PreNatal Vitamins Plus; PrePLUS; PreTAB; PreferaOB ONE; PreferaOB One; Prena1; Prena1 Plus; Prenaissance Plus; Prenatabs FA; Prenatal Plus; Prenatal Plus Iron; Prenatal Plus Multivitamin Plus DHA MiniCaps; Prenatal Plus Vitamins; Prenatal Supplement - Tab; Prenatal Vitamin and Mineral Supplement; Prenatal Vitamin and Mineral Supplement -tab; Prenatal Vitamin and Mineral Supplement Tab; Prenatal Vitamins Plus Low Iron; Prenate Elite; Prenate Essential; Prenate Mini; Prenate Pixie; Prenatrix; Prenatryl; Preplus; Pretrate; Prometa; RayaVit; Ribotin-E; Se-Care Chewable; Se-Care Conceive; Se-Natal; Se-Natal 19; Se-Natal 19 Chewable; Se-Natal One; Select OB; Select-OB Plus DHA Prenatal Supplement Plus DHA; SetonET; SetonET-EC; Stress B Complex With C and E Tab; Stress B Complex With C, E and Iron Tab; Stress B Complex With C,e, Zinc and Copper; Stress B-complex Plus Iron With Vitamins C&e; Stresstabs + Zinc-copper; TL-Folate; Thrivite 19; Thrivite Rx; Tl-hem 150; Total Living Concepts Formula One - Tab; TriAdvance; Tricare Prenatal; Tricare Prenatal Compleat; Trinatal GT; Trinatal Rx 1; Trinatal Ultra; Triveen-Duo DHA; UltimateCare ONE; UltimateCare ONE NF; VP CH Plus; VP CH Ultra; Vena-Bal DHA; Venexa; Venexa FE; Ventrixyl; Ventrixyl Fe; Vinacal; Vinate AZ; Vinate Care; Virt Nate; Virt Vite GT; Virt-Advance; Virt-Care One; Virt-Nate; Virt-PN; Virt-Tabs; Vita Plex Tab; Vitaday Junior Tab; Vitafol Fe Plus; Vitafol Ultra; Vitamin E 200iu With Non-med.odorless Garlic; Vitamin E Cap 200unit; Vitamin E Cap 400iu; Vitamin E Capsule 400unit USP; Vitamin E Capsules - 400 I.U.; Vitamin E Capsules 1000I.U. USP; Vitamin E Capsules 200I.U. USP; Vitamin E Capsules 800I.U. USP; Vitamine E 400 Cap; Vitamine E Cap 1000iu Mixte; Vitamine E Cap 200iu Mixte; Vitamine E Cap 25unit; Vitamine E Cap 400iu Mixte; Vitamins A, C & E Cap.; Vitamins C Plus E W.beta Carotene and Se; Vitramyn; Vitranol; Vitranol Fe; Vitrexate; Vitrexate FE; Vitrexyl; Vitrexyl plus Iron; Vol-Nate; Vol-Tab Rx; Vp-CH-pnv; Vyo Cylate - Pwr; Webber Vitamin E Cap 400unit; WesTab Plus; White Hand Sanitizer; Z Bec Tab; Zatean-CH; Zatean-Pn; Zintrexyl-C; Zoo Chews Plus Iron; healthy mamaBE WELL ROUNDED BE WELL ROUNDED; vitaMedMD One Rx; vitaMedMD Rx Plus

$$$$
