
  Mrv1909 11271915282D          

 44 45  0  0  0  0            999 V2000
   -6.5200    0.8373    0.0000 C   0  0  0  0  0  0  0  0  0  0  0  0
   -7.2475    0.4484    0.0000 C   0  0  0  0  0  0  0  0  0  0  0  0
   -6.5200    1.6779    0.0000 C   0  0  0  0  0  0  0  0  0  0  0  0
   -5.7924    0.4484    0.0000 N   0  0  0  0  0  0  0  0  0  0  0  0
   -7.9751    0.8373    0.0000 C   0  0  0  0  0  0  0  0  0  0  0  0
   -7.2475   -0.3857    0.0000 I   0  0  0  0  0  0  0  0  0  0  0  0
   -7.2475    2.0729    0.0000 C   0  0  0  0  0  0  0  0  0  0  0  0
   -5.7547    2.0729    0.0000 I   0  0  0  0  0  0  0  0  0  0  0  0
   -5.0899    0.8373    0.0000 C   0  0  0  0  0  0  0  0  0  0  0  0
   -7.9751    1.6779    0.0000 C   0  0  0  0  0  0  0  0  0  0  0  0
   -8.6902    0.4484    0.0000 C   0  0  0  0  0  0  0  0  0  0  0  0
   -4.3246    0.4109    0.0000 C   0  0  0  0  0  0  0  0  0  0  0  0
   -5.0899    1.6779    0.0000 O   0  0  0  0  0  0  0  0  0  0  0  0
   -8.6902    2.1106    0.0000 I   0  0  0  0  0  0  0  0  0  0  0  0
   -8.6902   -0.3480    0.0000 O   0  0  0  0  0  0  0  0  0  0  0  0
   -9.4303    0.8562    0.0000 O   0  0  0  0  0  0  0  0  0  0  0  0
   -3.5971    0.7997    0.0000 C   0  0  0  0  0  0  0  0  0  0  0  0
   -2.8820    0.4484    0.0000 O   0  0  0  0  0  0  0  0  0  0  0  0
   -2.1544    0.7997    0.0000 C   0  0  0  0  0  0  0  0  0  0  0  0
   -1.4268    0.4109    0.0000 C   0  0  0  0  0  0  0  0  0  0  0  0
   -0.6993    0.7997    0.0000 O   0  0  0  0  0  0  0  0  0  0  0  0
    0.0031    0.4109    0.0000 C   0  0  0  0  0  0  0  0  0  0  0  0
    0.7118    0.7997    0.0000 C   0  0  0  0  0  0  0  0  0  0  0  0
    1.4268    0.4109    0.0000 O   0  0  0  0  0  0  0  0  0  0  0  0
    2.1670    0.7997    0.0000 C   0  0  0  0  0  0  0  0  0  0  0  0
    2.8946    0.4109    0.0000 C   0  0  0  0  0  0  0  0  0  0  0  0
    3.6096    0.7997    0.0000 O   0  0  0  0  0  0  0  0  0  0  0  0
    4.3372    0.4109    0.0000 C   0  0  0  0  0  0  0  0  0  0  0  0
    5.0963    0.7997    0.0000 C   0  0  0  0  0  0  0  0  0  0  0  0
    5.8049    0.4109    0.0000 C   0  0  0  0  0  0  0  0  0  0  0  0
    6.5325    0.7747    0.0000 N   0  0  0  0  0  0  0  0  0  0  0  0
    5.8049   -0.4108    0.0000 O   0  0  0  0  0  0  0  0  0  0  0  0
    7.2601    0.3795    0.0000 C   0  0  0  0  0  0  0  0  0  0  0  0
    7.2601   -0.4169    0.0000 C   0  0  0  0  0  0  0  0  0  0  0  0
    7.9877    0.7684    0.0000 C   0  0  0  0  0  0  0  0  0  0  0  0
    7.9877   -0.8622    0.0000 C   0  0  0  0  0  0  0  0  0  0  0  0
    6.5325   -0.8373    0.0000 I   0  0  0  0  0  0  0  0  0  0  0  0
    8.7027    0.3795    0.0000 C   0  0  0  0  0  0  0  0  0  0  0  0
    8.0317    1.5900    0.0000 I   0  0  0  0  0  0  0  0  0  0  0  0
    8.7027   -0.4169    0.0000 C   0  0  0  0  0  0  0  0  0  0  0  0
    7.9877   -1.6902    0.0000 C   0  0  0  0  0  0  0  0  0  0  0  0
    9.4303   -0.8622    0.0000 I   0  0  0  0  0  0  0  0  0  0  0  0
    7.2601   -2.0729    0.0000 O   0  0  0  0  0  0  0  0  0  0  0  0
    8.7027   -2.1106    0.0000 O   0  0  0  0  0  0  0  0  0  0  0  0
  1  2  1  0  0  0  0
  1  3  2  0  0  0  0
  1  4  1  0  0  0  0
  2  5  2  0  0  0  0
  2  6  1  0  0  0  0
  3  7  1  0  0  0  0
  3  8  1  0  0  0  0
  4  9  1  0  0  0  0
  5 10  1  0  0  0  0
  5 11  1  0  0  0  0
  9 12  1  0  0  0  0
  9 13  2  0  0  0  0
 10 14  1  0  0  0  0
 11 15  1  0  0  0  0
 11 16  2  0  0  0  0
 12 17  1  0  0  0  0
 17 18  1  0  0  0  0
 18 19  1  0  0  0  0
 19 20  1  0  0  0  0
 20 21  1  0  0  0  0
 21 22  1  0  0  0  0
 22 23  1  0  0  0  0
 23 24  1  0  0  0  0
 24 25  1  0  0  0  0
 25 26  1  0  0  0  0
 26 27  1  0  0  0  0
 27 28  1  0  0  0  0
 28 29  1  0  0  0  0
 29 30  1  0  0  0  0
 30 31  1  0  0  0  0
 30 32  2  0  0  0  0
 31 33  1  0  0  0  0
 33 34  2  0  0  0  0
 33 35  1  0  0  0  0
 34 36  1  0  0  0  0
 34 37  1  0  0  0  0
 35 38  2  0  0  0  0
 35 39  1  0  0  0  0
 36 40  2  0  0  0  0
 36 41  1  0  0  0  0
 40 42  1  0  0  0  0
 41 43  1  0  0  0  0
 41 44  2  0  0  0  0
  7 10  2  0  0  0  0
 38 40  1  0  0  0  0
M  END
> <DATABASE_ID>
DB13539

> <DATABASE_NAME>
drugbank

> <SMILES>
OC(=O)C1=C(I)C(NC(=O)CCOCCOCCOCCOCCC(=O)NC2=C(I)C(C(O)=O)=C(I)C=C2I)=C(I)C=C1I

> <INCHI_IDENTIFIER>
InChI=1S/C26H26I6N2O10/c27-13-11-15(29)23(21(31)19(13)25(37)38)33-17(35)1-3-41-5-7-43-9-10-44-8-6-42-4-2-18(36)34-24-16(30)12-14(28)20(22(24)32)26(39)40/h11-12H,1-10H2,(H,33,35)(H,34,36)(H,37,38)(H,39,40)

> <INCHI_KEY>
WWVAPFRKZMUPHZ-UHFFFAOYSA-N

> <FORMULA>
C26H26I6N2O10

> <MOLECULAR_WEIGHT>
1287.925

> <EXACT_MASS>
1287.58557

> <JCHEM_ACCEPTOR_COUNT>
10

> <JCHEM_ATOM_COUNT>
70

> <JCHEM_AVERAGE_POLARIZABILITY>
88.78213853548773

> <JCHEM_BIOAVAILABILITY>
0

> <JCHEM_DONOR_COUNT>
4

> <JCHEM_FORMAL_CHARGE>
0

> <JCHEM_GHOSE_FILTER>
0

> <JCHEM_IUPAC>
3-{1-[(3-carboxy-2,4,6-triiodophenyl)carbamoyl]-3,6,9,12-tetraoxapentadecan-15-amido}-2,4,6-triiodobenzoic acid

> <ALOGPS_LOGP>
4.13

> <JCHEM_LOGP>
7.171051480666666

> <ALOGPS_LOGS>
-5.66

> <JCHEM_MDDR_LIKE_RULE>
0

> <JCHEM_NUMBER_OF_RINGS>
2

> <JCHEM_PHYSIOLOGICAL_CHARGE>
-2

> <JCHEM_PKA>
2.6275664609835863

> <JCHEM_PKA_STRONGEST_ACIDIC>
2.025506765004233

> <JCHEM_PKA_STRONGEST_BASIC>
-3.8411233485212595

> <JCHEM_POLAR_SURFACE_AREA>
169.72

> <JCHEM_REFRACTIVITY>
218.95300000000003

> <JCHEM_ROTATABLE_BOND_COUNT>
19

> <JCHEM_RULE_OF_FIVE>
0

> <ALOGPS_SOLUBILITY>
2.84e-03 g/l

> <JCHEM_TRADITIONAL_IUPAC>
iodoxamic acid

> <JCHEM_VEBER_RULE>
0

> <DRUGBANK_ID>
DB13539

> <DRUG_GROUPS>
experimental

> <GENERIC_NAME>
Iodoxamic acid

> <SYNONYMS>
Acidum iodoxamicum; Iodoxamic acid

> <INTERNATIONAL_BRANDS>
Cholevue; Endobil; Endomirabil

> <SALTS>
Iodoxamate meglumine

$$$$
