
  Mrv1718001121816112D          

 33 37  0  0  1  0            999 V2000
    2.0307    1.7357    0.0000 C   0  0  0  0  0  0  0  0  0  0  0  0
   -2.0411    3.9503    0.0000 C   0  0  0  0  0  0  0  0  0  0  0  0
   -2.6924    3.4440    0.0000 C   0  0  0  0  0  0  0  0  0  0  0  0
   -1.3583    3.4873    0.0000 C   0  0  0  0  0  0  0  0  0  0  0  0
   -2.4121    2.6680    0.0000 C   0  0  0  0  0  0  0  0  0  0  0  0
   -1.0812    2.0435    0.0000 C   0  0  0  0  0  0  0  0  0  0  0  0
    4.5754   -0.8489    0.0000 C   0  0  0  0  0  0  0  0  0  0  0  0
    6.1708    1.0432    0.0000 C   0  0  0  0  0  0  0  0  0  0  0  0
    3.7633   -0.7037    0.0000 C   0  0  0  0  0  0  0  0  0  0  0  0
    5.3587    1.1884    0.0000 C   0  0  0  0  0  0  0  0  0  0  0  0
    2.0195   -0.2889    0.0000 C   0  0  0  0  0  0  0  0  0  0  0  0
    1.3367    0.1741    0.0000 C   0  0  0  0  0  0  0  0  0  0  0  0
   -0.2640    2.1564    0.0000 C   0  0  0  0  0  0  0  0  0  0  0  0
    3.7345    1.4789    0.0000 C   0  0  0  0  0  0  0  0  0  0  0  0
    2.9224    1.6241    0.0000 C   0  0  0  0  0  0  0  0  0  0  0  0
    5.9193   -0.3634    0.0000 C   0  0  0  0  0  0  0  0  0  0  0  0
   -1.5876    2.6948    0.0000 C   0  0  0  0  0  0  0  0  0  0  0  0
    5.1072   -0.2182    0.0000 C   0  0  0  0  0  0  0  0  0  0  0  0
    6.4511    0.2673    0.0000 C   0  0  0  0  0  0  0  0  0  0  0  0
    4.8269    0.5577    0.0000 C   0  0  0  0  0  0  0  0  0  0  0  0
    4.0148    0.7029    0.0000 C   0  0  2  0  0  0  0  0  0  0  0  0
    3.4830    0.0722    0.0000 C   0  0  2  0  0  0  0  0  0  0  0  0
    2.6708    0.2174    0.0000 C   0  0  1  0  0  0  0  0  0  0  0  0
    1.5660    0.9666    0.0000 C   0  0  1  0  0  0  0  0  0  0  0  0
    0.2424    1.5050    0.0000 C   0  0  0  0  0  0  0  0  0  0  0  0
    2.3905    0.9934    0.0000 C   0  0  2  0  0  0  0  0  0  0  0  0
    7.2632    0.1221    0.0000 O   0  0  0  0  0  0  0  0  0  0  0  0
   -0.0685    0.7409    0.0000 O   0  0  0  0  0  0  0  0  0  0  0  0
    1.0596    1.6179    0.0000 O   0  0  0  0  0  0  0  0  0  0  0  0
    4.5466    1.3336    0.0000 H   0  0  0  0  0  0  0  0  0  0  0  0
    3.1989   -0.7023    0.0000 H   0  0  0  0  0  0  0  0  0  0  0  0
    2.5826   -0.6028    0.0000 H   0  0  0  0  0  0  0  0  0  0  0  0
    0.7557    0.8111    0.0000 H   0  0  0  0  0  0  0  0  0  0  0  0
  3  2  1  0  0  0  0
  4  2  1  0  0  0  0
  5  3  1  0  0  0  0
  9  7  1  0  0  0  0
 10  8  1  0  0  0  0
 12 11  1  0  0  0  0
 13  6  1  0  0  0  0
 15 14  1  0  0  0  0
 17  4  1  0  0  0  0
 17  5  1  0  0  0  0
 17  6  1  0  0  0  0
 18  7  1  0  0  0  0
 18 16  2  0  0  0  0
 19  8  2  0  0  0  0
 19 16  1  0  0  0  0
 20 10  2  0  0  0  0
 20 18  1  0  0  0  0
 21 14  1  0  0  0  0
 21 20  1  0  0  0  0
 22  9  1  0  0  0  0
 22 21  1  0  0  0  0
 23 11  1  0  0  0  0
 23 22  1  0  0  0  0
 24 12  1  0  0  0  0
 25 13  1  0  0  0  0
 26  1  1  6  0  0  0
 26 15  1  0  0  0  0
 26 23  1  0  0  0  0
 26 24  1  0  0  0  0
 27 19  1  0  0  0  0
 28 25  2  0  0  0  0
 24 29  1  6  0  0  0
 29 25  1  0  0  0  0
 21 30  1  1  0  0  0
 22 31  1  6  0  0  0
 23 32  1  1  0  0  0
 24 33  1  1  0  0  0
M  END
> <DATABASE_ID>
DB13954

> <DATABASE_NAME>
drugbank

> <SMILES>
[H][C@@]1(CC[C@@]2([H])[C@]3([H])CCC4=CC(O)=CC=C4[C@@]3([H])CC[C@]12C)OC(=O)CCC1CCCC1

> <INCHI_IDENTIFIER>
InChI=1S/C26H36O3/c1-26-15-14-21-20-10-8-19(27)16-18(20)7-9-22(21)23(26)11-12-24(26)29-25(28)13-6-17-4-2-3-5-17/h8,10,16-17,21-24,27H,2-7,9,11-15H2,1H3/t21-,22-,23+,24+,26+/m1/s1

> <INCHI_KEY>
UOACKFBJUYNSLK-XRKIENNPSA-N

> <FORMULA>
C26H36O3

> <MOLECULAR_WEIGHT>
396.5622

> <EXACT_MASS>
396.266445018

> <JCHEM_ACCEPTOR_COUNT>
2

> <JCHEM_ATOM_COUNT>
65

> <JCHEM_AVERAGE_POLARIZABILITY>
47.77363984356765

> <JCHEM_BIOAVAILABILITY>
1

> <JCHEM_DONOR_COUNT>
1

> <JCHEM_FORMAL_CHARGE>
0

> <JCHEM_GHOSE_FILTER>
0

> <JCHEM_IUPAC>
(1S,3aS,3bR,9bS,11aS)-7-hydroxy-11a-methyl-1H,2H,3H,3aH,3bH,4H,5H,9bH,10H,11H,11aH-cyclopenta[a]phenanthren-1-yl 3-cyclopentylpropanoate

> <ALOGPS_LOGP>
6.47

> <JCHEM_LOGP>
6.4887304393333345

> <ALOGPS_LOGS>
-6.53

> <JCHEM_MDDR_LIKE_RULE>
0

> <JCHEM_NUMBER_OF_RINGS>
5

> <JCHEM_PHYSIOLOGICAL_CHARGE>
0

> <JCHEM_PKA_STRONGEST_ACIDIC>
10.327060684990943

> <JCHEM_PKA_STRONGEST_BASIC>
-5.448288518230446

> <JCHEM_POLAR_SURFACE_AREA>
46.53

> <JCHEM_REFRACTIVITY>
114.83349999999996

> <JCHEM_ROTATABLE_BOND_COUNT>
5

> <JCHEM_RULE_OF_FIVE>
0

> <ALOGPS_SOLUBILITY>
1.18e-04 g/l

> <JCHEM_TRADITIONAL_IUPAC>
estradiol cypionate

> <JCHEM_VEBER_RULE>
0

> <DRUGBANK_ID>
DB13954

> <SECONDARY_ACCESSION_NUMBERS>
DBSALT000067

> <DRUG_GROUPS>
approved; investigational; vet_approved

> <GENERIC_NAME>
Estradiol cypionate

> <SYNONYMS>
Estradiol cypionate

> <PRODUCTS>
Depo-Estradiol; Lunelle Monthly Contraceptive; Truemed Group LLC

$$$$
