
  Mrv1652310211603242D          

 52 55  0  0  0  0            999 V2000
   -6.2684    3.9336    0.0000 C   0  0  0  0  0  0  0  0  0  0  0  0
   -5.5539    3.5211    0.0000 C   0  0  0  0  0  0  0  0  0  0  0  0
   -5.5539    2.6961    0.0000 O   0  0  0  0  0  0  0  0  0  0  0  0
   -4.8395    2.2836    0.0000 C   0  0  0  0  0  0  0  0  0  0  0  0
   -4.1250    2.6961    0.0000 O   0  0  0  0  0  0  0  0  0  0  0  0
   -4.8395    1.4586    0.0000 C   0  0  0  0  0  0  0  0  0  0  0  0
   -4.8395    0.6336    0.0000 C   0  0  0  0  0  0  0  0  0  0  0  0
   -4.1250    0.2211    0.0000 O   0  0  0  0  0  0  0  0  0  0  0  0
   -4.1250   -0.6039    0.0000 C   0  0  0  0  0  0  0  0  0  0  0  0
   -4.8395   -1.0164    0.0000 O   0  0  0  0  0  0  0  0  0  0  0  0
   -3.4105   -1.0164    0.0000 C   0  0  0  0  0  0  0  0  0  0  0  0
   -3.4105   -1.8414    0.0000 C   0  0  0  0  0  0  0  0  0  0  0  0
   -2.6961   -2.2539    0.0000 C   0  0  0  0  0  0  0  0  0  0  0  0
   -2.6961   -3.0789    0.0000 C   0  0  0  0  0  0  0  0  0  0  0  0
   -3.4105   -3.4914    0.0000 C   0  0  0  0  0  0  0  0  0  0  0  0
   -4.1250   -3.0789    0.0000 C   0  0  0  0  0  0  0  0  0  0  0  0
   -4.1250   -2.2539    0.0000 C   0  0  0  0  0  0  0  0  0  0  0  0
   -4.8395   -3.4914    0.0000 C   0  0  0  0  0  0  0  0  0  0  0  0
   -5.5539   -3.0789    0.0000 O   0  0  0  0  0  0  0  0  0  0  0  0
   -4.8395   -4.3164    0.0000 N   0  0  0  0  0  0  0  0  0  0  0  0
   -4.1250   -4.7289    0.0000 C   0  0  0  0  0  0  0  0  0  0  0  0
   -5.5539   -4.7289    0.0000 C   0  0  0  0  0  0  0  0  0  0  0  0
   -3.4105   -4.3164    0.0000 N   0  0  0  0  0  0  0  0  0  0  0  0
   -2.6961   -4.7289    0.0000 C   0  0  0  0  0  0  0  0  0  0  0  0
   -2.6961   -5.5539    0.0000 O   0  0  0  0  0  0  0  0  0  0  0  0
   -1.9816   -4.3164    0.0000 C   0  0  0  0  0  0  0  0  0  0  0  0
   -1.9816   -3.4914    0.0000 C   0  0  0  0  0  0  0  0  0  0  0  0
   -1.2671   -3.0789    0.0000 C   0  0  0  0  0  0  0  0  0  0  0  0
   -0.5526   -3.4914    0.0000 C   0  0  0  0  0  0  0  0  0  0  0  0
   -0.5526   -4.3164    0.0000 C   0  0  0  0  0  0  0  0  0  0  0  0
   -1.2671   -4.7289    0.0000 C   0  0  0  0  0  0  0  0  0  0  0  0
   -1.2671   -5.5539    0.0000 C   0  0  0  0  0  0  0  0  0  0  0  0
   -0.5526   -5.9664    0.0000 C   0  0  0  0  0  0  0  0  0  0  0  0
   -0.5526   -6.7914    0.0000 C   0  0  0  0  0  0  0  0  0  0  0  0
   -1.2671   -7.2039    0.0000 C   0  0  0  0  0  0  0  0  0  0  0  0
   -1.9816   -6.7914    0.0000 C   0  0  0  0  0  0  0  0  0  0  0  0
   -1.9816   -5.9664    0.0000 C   0  0  0  0  0  0  0  0  0  0  0  0
   -1.2671   -8.0289    0.0000 C   0  0  0  0  0  0  0  0  0  0  0  0
   -1.2671   -8.8539    0.0000 F   0  0  0  0  0  0  0  0  0  0  0  0
   -2.0921   -8.0289    0.0000 F   0  0  0  0  0  0  0  0  0  0  0  0
   -0.4421   -8.0289    0.0000 F   0  0  0  0  0  0  0  0  0  0  0  0
   -5.6645    1.4586    0.0000 C   0  0  0  0  0  0  0  0  0  0  0  0
   -6.0770    0.7441    0.0000 C   0  0  0  0  0  0  0  0  0  0  0  0
   -6.9020    0.7441    0.0000 C   0  0  0  0  0  0  0  0  0  0  0  0
   -7.3145    1.4586    0.0000 C   0  0  0  0  0  0  0  0  0  0  0  0
   -6.9020    2.1730    0.0000 C   0  0  0  0  0  0  0  0  0  0  0  0
   -6.0770    2.1730    0.0000 C   0  0  0  0  0  0  0  0  0  0  0  0
   -4.0145    1.4586    0.0000 C   0  0  0  0  0  0  0  0  0  0  0  0
   -3.6020    0.7441    0.0000 O   0  0  0  0  0  0  0  0  0  0  0  0
   -3.6020    2.1730    0.0000 O   0  0  0  0  0  0  0  0  0  0  0  0
   -2.7770    2.1730    0.0000 C   0  0  0  0  0  0  0  0  0  0  0  0
   -2.3645    1.4586    0.0000 C   0  0  0  0  0  0  0  0  0  0  0  0
  1  2  1  0  0  0  0
  2  3  1  0  0  0  0
  3  4  1  0  0  0  0
  4  5  2  0  0  0  0
  4  6  1  0  0  0  0
  6  7  1  0  0  0  0
  7  8  1  0  0  0  0
  8  9  1  0  0  0  0
  9 10  2  0  0  0  0
  9 11  1  0  0  0  0
 11 12  1  0  0  0  0
 12 13  2  0  0  0  0
 13 14  1  0  0  0  0
 14 15  2  0  0  0  0
 15 16  1  0  0  0  0
 16 17  2  0  0  0  0
 12 17  1  0  0  0  0
 16 18  1  0  0  0  0
 18 19  2  0  0  0  0
 18 20  1  0  0  0  0
 20 21  1  0  0  0  0
 20 22  1  0  0  0  0
 15 23  1  0  0  0  0
 23 24  1  0  0  0  0
 24 25  2  0  0  0  0
 24 26  1  0  0  0  0
 26 27  2  0  0  0  0
 27 28  1  0  0  0  0
 28 29  2  0  0  0  0
 29 30  1  0  0  0  0
 30 31  2  0  0  0  0
 26 31  1  0  0  0  0
 31 32  1  0  0  0  0
 32 33  2  0  0  0  0
 33 34  1  0  0  0  0
 34 35  2  0  0  0  0
 35 36  1  0  0  0  0
 36 37  2  0  0  0  0
 32 37  1  0  0  0  0
 35 38  1  0  0  0  0
 38 39  1  0  0  0  0
 38 40  1  0  0  0  0
 38 41  1  0  0  0  0
  6 42  1  0  0  0  0
 42 43  2  0  0  0  0
 43 44  1  0  0  0  0
 44 45  2  0  0  0  0
 45 46  1  0  0  0  0
 46 47  2  0  0  0  0
 42 47  1  0  0  0  0
  6 48  1  0  0  0  0
 48 49  2  0  0  0  0
 48 50  1  0  0  0  0
 50 51  1  0  0  0  0
 51 52  1  0  0  0  0
M  END
> <DATABASE_ID>
DB12934

> <DATABASE_NAME>
drugbank

> <SMILES>
CCOC(=O)C(COC(=O)CC1=CC=C(NC(=O)C2=CC=CC=C2C2=CC=C(C=C2)C(F)(F)F)C(=C1)C(=O)N(C)C)(C(=O)OCC)C1=CC=CC=C1

> <INCHI_IDENTIFIER>
InChI=1S/C39H37F3N2O8/c1-5-50-36(48)38(37(49)51-6-2,27-12-8-7-9-13-27)24-52-33(45)23-25-16-21-32(31(22-25)35(47)44(3)4)43-34(46)30-15-11-10-14-29(30)26-17-19-28(20-18-26)39(40,41)42/h7-22H,5-6,23-24H2,1-4H3,(H,43,46)

> <INCHI_KEY>
FPUQGCOBYOXAED-UHFFFAOYSA-N

> <FORMULA>
C39H37F3N2O8

> <MOLECULAR_WEIGHT>
718.726

> <EXACT_MASS>
718.250200648

> <JCHEM_ACCEPTOR_COUNT>
5

> <JCHEM_ATOM_COUNT>
89

> <JCHEM_AVERAGE_POLARIZABILITY>
71.42135109507366

> <JCHEM_BIOAVAILABILITY>
0

> <JCHEM_DONOR_COUNT>
1

> <JCHEM_FORMAL_CHARGE>
0

> <JCHEM_GHOSE_FILTER>
0

> <JCHEM_IUPAC>
1,3-diethyl 2-[({2-[3-(dimethylcarbamoyl)-4-[4'-(trifluoromethyl)-[1,1'-biphenyl]-2-amido]phenyl]acetyl}oxy)methyl]-2-phenylpropanedioate

> <ALOGPS_LOGP>
5.93

> <JCHEM_LOGP>
7.4667364543333345

> <ALOGPS_LOGS>
-6.84

> <JCHEM_MDDR_LIKE_RULE>
1

> <JCHEM_NUMBER_OF_RINGS>
4

> <JCHEM_PHYSIOLOGICAL_CHARGE>
0

> <JCHEM_PKA_STRONGEST_ACIDIC>
13.440769026861965

> <JCHEM_PKA_STRONGEST_BASIC>
-1.2855862354942391

> <JCHEM_POLAR_SURFACE_AREA>
128.30999999999997

> <JCHEM_REFRACTIVITY>
188.35699999999994

> <JCHEM_ROTATABLE_BOND_COUNT>
17

> <JCHEM_RULE_OF_FIVE>
0

> <ALOGPS_SOLUBILITY>
1.04e-04 g/l

> <JCHEM_TRADITIONAL_IUPAC>
1,3-diethyl 2-[({2-[3-(dimethylcarbamoyl)-4-[4'-(trifluoromethyl)-[1,1'-biphenyl]-2-amido]phenyl]acetyl}oxy)methyl]-2-phenylpropanedioate

> <JCHEM_VEBER_RULE>
0

> <DRUGBANK_ID>
DB12934

> <DRUG_GROUPS>
investigational

> <GENERIC_NAME>
Granotapide

> <SYNONYMS>
Granotapide

$$$$
