
  Mrv1718007201817542D          

  1  0  0  0  0  0            999 V2000
    0.0000    0.0000    0.0000 La  0  1  0  0  0  0  0  0  0  0  0  0
M  CHG  1   1   3
M  END
> <DATABASE_ID>
DB14579

> <DATABASE_NAME>
drugbank

> <SMILES>
[La+3]

> <INCHI_IDENTIFIER>
InChI=1S/La/q+3

> <INCHI_KEY>
CZMAIROVPAYCMU-UHFFFAOYSA-N

> <FORMULA>
La

> <MOLECULAR_WEIGHT>
138.9055

> <EXACT_MASS>
138.90634816

> <JCHEM_ACCEPTOR_COUNT>
0

> <JCHEM_ATOM_COUNT>
1

> <JCHEM_AVERAGE_POLARIZABILITY>
1.7784

> <JCHEM_BIOAVAILABILITY>
1

> <JCHEM_DONOR_COUNT>
0

> <JCHEM_FORMAL_CHARGE>
3

> <JCHEM_GHOSE_FILTER>
0

> <JCHEM_IUPAC>
lanthanum(3+) ion

> <JCHEM_LOGP>
0.0

> <JCHEM_MDDR_LIKE_RULE>
0

> <JCHEM_NUMBER_OF_RINGS>
0

> <JCHEM_PHYSIOLOGICAL_CHARGE>
3

> <JCHEM_PKA>
3.55

> <JCHEM_PKA_STRONGEST_ACIDIC>
3.09

> <JCHEM_POLAR_SURFACE_AREA>
0.0

> <JCHEM_REFRACTIVITY>
0.0

> <JCHEM_ROTATABLE_BOND_COUNT>
0

> <JCHEM_RULE_OF_FIVE>
1

> <JCHEM_TRADITIONAL_IUPAC>
lanthanum(3+) ion

> <JCHEM_VEBER_RULE>
1

> <DRUGBANK_ID>
DB14579

> <DRUG_GROUPS>
experimental

> <GENERIC_NAME>
Lanthanum III cation

> <SYNONYMS>
Lanthanum cation (3+); Lanthanum cation (La3+); Lanthanum ion; Lanthanum, ion (La3+); lanthanum(3+) ion; Lanthanum(3+) ions; lanthanum(III) cation

$$$$
