
  Mrv1909 02162118572D          

  2  1  0  0  0  0            999 V2000
   -0.4125    0.0032    0.0000 Li  0  0  0  0  0  0  0  0  0  0  0  0
    0.4125   -0.0032    0.0000 Cl  0  0  0  0  0  0  0  0  0  0  0  0
  2  1  1  0  0  0  0
M  END
> <DATABASE_ID>
DB16607

> <DATABASE_NAME>
drugbank

> <SMILES>
[Li]Cl

> <INCHI_IDENTIFIER>
InChI=1S/ClH.Li/h1H;/q;+1/p-1

> <INCHI_KEY>
KWGKDLIKAYFUFQ-UHFFFAOYSA-M

> <FORMULA>
ClLi

> <MOLECULAR_WEIGHT>
42.39

> <EXACT_MASS>
41.9848561

> <JCHEM_ACCEPTOR_COUNT>
0

> <JCHEM_ATOM_COUNT>
2

> <JCHEM_AVERAGE_NEUTRAL_MICROSPECIES_CHARGE>
0.0

> <JCHEM_AVERAGE_POLARIZABILITY>
4.340626217261719

> <JCHEM_BIOAVAILABILITY>
1

> <JCHEM_DONOR_COUNT>
0

> <JCHEM_FORMAL_CHARGE>
0

> <JCHEM_GHOSE_FILTER>
0

> <JCHEM_IUPAC>
chlorolithium

> <JCHEM_LOGP>
0.6344999999999998

> <JCHEM_MDDR_LIKE_RULE>
0

> <JCHEM_NEUTRAL_CHARGE>
0

> <JCHEM_NUMBER_OF_RINGS>
0

> <JCHEM_PHYSIOLOGICAL_CHARGE>
0

> <JCHEM_POLAR_SURFACE_AREA>
0.0

> <JCHEM_REFRACTIVITY>
6.1363

> <JCHEM_ROTATABLE_BOND_COUNT>
0

> <JCHEM_RULE_OF_FIVE>
1

> <JCHEM_TRADITIONAL_IUPAC>
disodium dexamethasone phosphate(2-)

> <JCHEM_VEBER_RULE>
1

> <DRUGBANK_ID>
DB16607

> <DRUG_GROUPS>
experimental

> <GENERIC_NAME>
Lithium chloride

> <SYNONYMS>
Lithium muriaticum

$$$$
