
  Mrv1909 05201915162D          

 74 75  0  0  1  0            999 V2000
   21.6871   -9.7903    0.0000 N   0  0  0  0  0  0  0  0  0  0  0  0
   20.8721   -9.9187    0.0000 C   0  0  1  0  0  0  0  0  0  0  0  0
   20.3535   -9.2771    0.0000 C   0  0  0  0  0  0  0  0  0  0  0  0
   20.6499   -8.5071    0.0000 N   0  0  0  0  0  0  0  0  0  0  0  0
   20.1313   -7.8655    0.0000 C   0  0  0  0  0  0  0  0  0  0  0  0
   19.3163   -7.9938    0.0000 O   0  0  0  0  0  0  0  0  0  0  0  0
   20.4276   -7.0956    0.0000 C   0  0  2  0  0  0  0  0  0  0  0  0
   21.2426   -6.9672    0.0000 C   0  0  0  0  0  0  0  0  0  0  0  0
   21.7612   -7.6089    0.0000 C   0  0  0  0  0  0  0  0  0  0  0  0
   22.5761   -7.4805    0.0000 C   0  0  0  0  0  0  0  0  0  0  0  0
   23.0947   -8.1222    0.0000 C   0  0  0  0  0  0  0  0  0  0  0  0
   22.7984   -8.8921    0.0000 C   0  0  0  0  0  0  0  0  0  0  0  0
   21.9834   -9.0204    0.0000 C   0  0  0  0  0  0  0  0  0  0  0  0
   21.4648   -8.3788    0.0000 C   0  0  0  0  0  0  0  0  0  0  0  0
   19.9090   -6.4540    0.0000 N   0  0  0  0  0  0  0  0  0  0  0  0
   20.2053   -5.6840    0.0000 C   0  0  0  0  0  0  0  0  0  0  0  0
   21.0203   -5.5557    0.0000 O   0  0  0  0  0  0  0  0  0  0  0  0
   19.6867   -5.0424    0.0000 C   0  0  2  0  0  0  0  0  0  0  0  0
   19.9831   -4.2725    0.0000 C   0  0  0  0  0  0  0  0  0  0  0  0
   20.7980   -4.1441    0.0000 C   0  0  0  0  0  0  0  0  0  0  0  0
   21.0944   -3.3742    0.0000 C   0  0  0  0  0  0  0  0  0  0  0  0
   21.9093   -3.2459    0.0000 C   0  0  0  0  0  0  0  0  0  0  0  0
   22.4280   -3.8875    0.0000 C   0  0  0  0  0  0  0  0  0  0  0  0
   22.1316   -4.6574    0.0000 C   0  0  0  0  0  0  0  0  0  0  0  0
   21.3166   -4.7858    0.0000 C   0  0  0  0  0  0  0  0  0  0  0  0
   18.8718   -5.1707    0.0000 N   0  0  0  0  0  0  0  0  0  0  0  0
   18.5754   -5.9407    0.0000 C   0  0  0  0  0  0  0  0  0  0  0  0
   19.0940   -6.5823    0.0000 O   0  0  0  0  0  0  0  0  0  0  0  0
   17.7605   -6.0690    0.0000 C   0  0  0  0  0  0  0  0  0  0  0  0
   17.4641   -6.8389    0.0000 C   0  0  0  0  0  0  0  0  0  0  0  0
   16.6492   -6.9672    0.0000 C   0  0  0  0  0  0  0  0  0  0  0  0
   16.3528   -7.7372    0.0000 C   0  0  0  0  0  0  0  0  0  0  0  0
   15.5378   -7.8655    0.0000 C   0  0  0  0  0  0  0  0  0  0  0  0
   15.2415   -8.6354    0.0000 C   0  0  0  0  0  0  0  0  0  0  0  0
   14.4265   -8.7638    0.0000 C   0  0  0  0  0  0  0  0  0  0  0  0
   14.1302   -9.5337    0.0000 N   0  0  0  0  0  0  0  0  0  0  0  0
   13.3152   -9.6620    0.0000 C   0  0  0  0  0  0  0  0  0  0  0  0
   12.7966   -9.0204    0.0000 O   0  0  0  0  0  0  0  0  0  0  0  0
   13.0189  -10.4320    0.0000 C   0  0  0  0  0  0  0  0  0  0  0  0
   12.2039  -10.5603    0.0000 C   0  0  0  0  0  0  0  0  0  0  0  0
   11.9076  -11.3302    0.0000 C   0  0  2  0  0  0  0  0  0  0  0  0
   11.0926  -11.4585    0.0000 N   0  0  0  0  0  0  0  0  0  0  0  0
   10.7963  -12.2285    0.0000 C   0  0  0  0  0  0  0  0  0  0  0  0
   11.3149  -12.8701    0.0000 O   0  0  0  0  0  0  0  0  0  0  0  0
    9.9813  -12.3568    0.0000 N   0  0  0  0  0  0  0  0  0  0  0  0
    9.6850  -13.1267    0.0000 C   0  0  1  0  0  0  0  0  0  0  0  0
    8.8700  -13.2551    0.0000 C   0  0  0  0  0  0  0  0  0  0  0  0
    8.5737  -14.0250    0.0000 C   0  0  0  0  0  0  0  0  0  0  0  0
    7.7587  -14.1533    0.0000 C   0  0  0  0  0  0  0  0  0  0  0  0
    7.4623  -14.9233    0.0000 O   0  0  0  0  0  0  0  0  0  0  0  0
    7.2401  -13.5117    0.0000 O   0  0  0  0  0  0  0  0  0  0  0  0
   10.2036  -13.7684    0.0000 C   0  0  0  0  0  0  0  0  0  0  0  0
    9.9072  -14.5383    0.0000 O   0  0  0  0  0  0  0  0  0  0  0  0
   11.0185  -13.6400    0.0000 O   0  0  0  0  0  0  0  0  0  0  0  0
   12.4262  -11.9718    0.0000 C   0  0  0  0  0  0  0  0  0  0  0  0
   12.1298  -12.7418    0.0000 O   0  0  0  0  0  0  0  0  0  0  0  0
   13.2411  -11.8435    0.0000 O   0  0  0  0  0  0  0  0  0  0  0  0
   20.5758  -10.6886    0.0000 C   0  0  0  0  0  0  0  0  0  0  0  0
   19.7608  -10.8169    0.0000 O   0  0  0  0  0  0  0  0  0  0  0  0
   21.0944  -11.3302    0.0000 N   0  0  0  0  0  0  0  0  0  0  0  0
   20.7980  -12.1002    0.0000 C   0  0  1  0  0  0  0  0  0  0  0  0
   19.9831  -12.2285    0.0000 C   0  0  0  0  0  0  0  0  0  0  0  0
   19.6867  -12.9984    0.0000 C   0  0  0  0  0  0  0  0  0  0  0  0
   18.8718  -13.1267    0.0000 O   0  0  0  0  0  0  0  0  0  0  0  0
   20.2053  -13.6400    0.0000 O   0  0  0  0  0  0  0  0  0  0  0  0
   21.3166  -12.7418    0.0000 C   0  0  0  0  0  0  0  0  0  0  0  0
   22.1316  -12.6134    0.0000 O   0  0  0  0  0  0  0  0  0  0  0  0
   21.0203  -13.5117    0.0000 N   0  0  0  0  0  0  0  0  0  0  0  0
   21.5389  -14.1533    0.0000 C   0  0  1  0  0  0  0  0  0  0  0  0
   21.2426  -14.9233    0.0000 C   0  0  0  0  0  0  0  0  0  0  0  0
   21.7612  -15.5649    0.0000 S   0  0  0  0  0  0  0  0  0  0  0  0
   22.3539  -14.0250    0.0000 C   0  0  0  0  0  0  0  0  0  0  0  0
   22.8725  -14.6666    0.0000 O   0  0  0  0  0  0  0  0  0  0  0  0
   22.6502  -13.2551    0.0000 O   0  0  0  0  0  0  0  0  0  0  0  0
  2  1  1  6  0  0  0
  2  3  1  0  0  0  0
  3  4  1  0  0  0  0
  4  5  1  0  0  0  0
  5  6  2  0  0  0  0
  7  5  1  0  0  0  0
  7  8  1  0  0  0  0
  8  9  1  0  0  0  0
  9 10  2  0  0  0  0
 10 11  1  0  0  0  0
 11 12  2  0  0  0  0
 12 13  1  0  0  0  0
 13 14  2  0  0  0  0
  9 14  1  0  0  0  0
  7 15  1  1  0  0  0
 15 16  1  0  0  0  0
 16 17  2  0  0  0  0
 18 16  1  0  0  0  0
 18 19  1  0  0  0  0
 19 20  1  0  0  0  0
 20 21  2  0  0  0  0
 21 22  1  0  0  0  0
 22 23  2  0  0  0  0
 23 24  1  0  0  0  0
 24 25  2  0  0  0  0
 20 25  1  0  0  0  0
 18 26  1  1  0  0  0
 26 27  1  0  0  0  0
 27 28  2  0  0  0  0
 27 29  1  0  0  0  0
 29 30  1  0  0  0  0
 30 31  1  0  0  0  0
 31 32  1  0  0  0  0
 32 33  1  0  0  0  0
 33 34  1  0  0  0  0
 34 35  1  0  0  0  0
 35 36  1  0  0  0  0
 36 37  1  0  0  0  0
 37 38  2  0  0  0  0
 37 39  1  0  0  0  0
 39 40  1  0  0  0  0
 41 40  1  0  0  0  0
 41 42  1  1  0  0  0
 42 43  1  0  0  0  0
 43 44  2  0  0  0  0
 43 45  1  0  0  0  0
 46 45  1  6  0  0  0
 46 47  1  0  0  0  0
 47 48  1  0  0  0  0
 48 49  1  0  0  0  0
 49 50  1  0  0  0  0
 49 51  2  0  0  0  0
 46 52  1  0  0  0  0
 52 53  1  0  0  0  0
 52 54  2  0  0  0  0
 41 55  1  0  0  0  0
 55 56  1  0  0  0  0
 55 57  2  0  0  0  0
  2 58  1  0  0  0  0
 58 59  2  0  0  0  0
 58 60  1  0  0  0  0
 61 60  1  6  0  0  0
 61 62  1  0  0  0  0
 62 63  1  0  0  0  0
 63 64  1  0  0  0  0
 63 65  2  0  0  0  0
 61 66  1  0  0  0  0
 66 67  2  0  0  0  0
 66 68  1  0  0  0  0
 69 68  1  6  0  0  0
 69 70  1  0  0  0  0
 70 71  1  0  0  0  0
 69 72  1  0  0  0  0
 72 73  1  0  0  0  0
 72 74  2  0  0  0  0
M  END
> <DATABASE_ID>
DB15340

> <DATABASE_NAME>
drugbank

> <SMILES>
N[C@@H](CNC(=O)[C@H](CC1=CC=CC=C1)NC(=O)[C@H](CC1=CC=CC=C1)NC(=O)CCCCCCCNC(=O)CC[C@H](NC(=O)N[C@@H](CCC(O)=O)C(O)=O)C(O)=O)C(=O)N[C@@H](CC(O)=O)C(=O)N[C@@H](CS)C(O)=O

> <INCHI_IDENTIFIER>
InChI=1S/C47H65N9O17S/c48-29(40(63)52-34(24-39(61)62)43(66)54-35(26-74)46(71)72)25-50-41(64)32(22-27-12-6-4-7-13-27)53-42(65)33(23-28-14-8-5-9-15-28)51-37(58)16-10-2-1-3-11-21-49-36(57)19-17-30(44(67)68)55-47(73)56-31(45(69)70)18-20-38(59)60/h4-9,12-15,29-35,74H,1-3,10-11,16-26,48H2,(H,49,57)(H,50,64)(H,51,58)(H,52,63)(H,53,65)(H,54,66)(H,59,60)(H,61,62)(H,67,68)(H,69,70)(H,71,72)(H2,55,56,73)/t29-,30-,31-,32-,33-,34-,35-/m0/s1

> <INCHI_KEY>
VHRCAJFLDBPRPG-POFDKVPJSA-N

> <FORMULA>
C47H65N9O17S

> <MOLECULAR_WEIGHT>
1060.14

> <EXACT_MASS>
1059.421912843

> <JCHEM_ACCEPTOR_COUNT>
18

> <JCHEM_ATOM_COUNT>
139

> <JCHEM_AVERAGE_POLARIZABILITY>
107.70550745593467

> <JCHEM_BIOAVAILABILITY>
0

> <JCHEM_DONOR_COUNT>
15

> <JCHEM_FORMAL_CHARGE>
0

> <JCHEM_GHOSE_FILTER>
0

> <JCHEM_IUPAC>
(2S)-2-({[(1S)-3-[(7-{[(1S)-1-{[(1S)-1-{[(2S)-2-amino-2-{[(1S)-2-carboxy-1-{[(1R)-1-carboxy-2-sulfanylethyl]carbamoyl}ethyl]carbamoyl}ethyl]carbamoyl}-2-phenylethyl]carbamoyl}-2-phenylethyl]carbamoyl}heptyl)carbamoyl]-1-carboxypropyl]carbamoyl}amino)pentanedioic acid

> <ALOGPS_LOGP>
-0.76

> <JCHEM_LOGP>
-4.121394039291549

> <ALOGPS_LOGS>
-5.39

> <JCHEM_MDDR_LIKE_RULE>
0

> <JCHEM_NUMBER_OF_RINGS>
2

> <JCHEM_PHYSIOLOGICAL_CHARGE>
-3

> <JCHEM_PKA>
3.0316744219475953

> <JCHEM_PKA_STRONGEST_ACIDIC>
2.5784958653251504

> <JCHEM_PKA_STRONGEST_BASIC>
7.11703330203523

> <JCHEM_POLAR_SURFACE_AREA>
428.24999999999994

> <JCHEM_REFRACTIVITY>
259.0236000000003

> <JCHEM_ROTATABLE_BOND_COUNT>
36

> <JCHEM_RULE_OF_FIVE>
0

> <ALOGPS_SOLUBILITY>
4.29e-03 g/l

> <JCHEM_TRADITIONAL_IUPAC>
(2R)-14-fluoro-2-methyl-6,9,10,19-tetraazapentacyclo[14.2.1.0^{2,6}.0^{8,18}.0^{12,17}]nonadeca-1(18),8,12(17),13,15-pentaen-11-one

> <JCHEM_VEBER_RULE>
0

> <DRUGBANK_ID>
DB15340

> <DRUG_GROUPS>
investigational

> <GENERIC_NAME>
EC-0652

$$$$
