
  Mrv1909 05102100352D          

 66 68  0  0  0  0            999 V2000
   -2.3916   -1.5964    0.0000 C   0  0  0  0  0  0  0  0  0  0  0  0
   -1.7405   -1.1066    0.0000 N   0  0  0  0  0  0  0  0  0  0  0  0
   -1.0680   -1.5713    0.0000 C   0  0  0  0  0  0  0  0  0  0  0  0
   -0.2946   -1.3163    0.0000 C   0  0  0  0  0  0  0  0  0  0  0  0
   -0.0517   -0.5279    0.0000 C   0  0  0  0  0  0  0  0  0  0  0  0
   -0.5415    0.1229    0.0000 N   0  5  0  0  0  0  0  0  0  0  0  0
   -0.0769    0.7954    0.0000 C   0  0  0  0  0  0  0  0  0  0  0  0
   -0.3317    1.5687    0.0000 C   0  0  0  0  0  0  0  0  0  0  0  0
   -1.1200    1.8117    0.0000 C   0  0  0  0  0  0  0  0  0  0  0  0
   -1.7710    1.3220    0.0000 N   0  0  0  0  0  0  0  0  0  0  0  0
   -2.4437    1.7866    0.0000 C   0  0  0  0  0  0  0  0  0  0  0  0
   -3.2169    1.5317    0.0000 C   0  0  0  0  0  0  0  0  0  0  0  0
   -3.4599    0.7435    0.0000 C   0  0  0  0  0  0  0  0  0  0  0  0
   -2.9701    0.0924    0.0000 N   0  5  0  0  0  0  0  0  0  0  0  0
   -3.4347   -0.5800    0.0000 C   0  0  0  0  0  0  0  0  0  0  0  0
   -3.1799   -1.3534    0.0000 C   0  0  0  0  0  0  0  0  0  0  0  0
   -3.8844   -1.7595    0.0000 C   0  0  0  0  0  0  0  0  0  0  0  0
   -3.9551   -2.6002    0.0000 N   0  3  0  0  0  0  0  0  0  0  0  0
   -4.7766   -2.7927    0.0000 C   0  0  0  0  0  0  0  0  0  0  0  0
   -5.2133   -2.0710    0.0000 C   0  0  0  0  0  0  0  0  0  0  0  0
   -4.6621   -1.4325    0.0000 N   0  0  0  0  0  0  0  0  0  0  0  0
   -4.8978   -0.6221    0.0000 C   0  0  0  0  0  0  0  0  0  0  0  0
   -5.7175   -0.4211    0.0000 C   0  0  0  0  0  0  0  0  0  0  0  0
   -3.3457   -3.1842    0.0000 C   0  0  0  0  0  0  0  0  0  0  0  0
   -3.5467   -4.0039    0.0000 C   0  0  0  0  0  0  0  0  0  0  0  0
   -4.2287   -0.3370    0.0000 C   0  0  0  0  0  0  0  0  0  0  0  0
   -4.2287    0.4840    0.0000 C   0  0  0  0  0  0  0  0  0  0  0  0
   -3.6231    2.2362    0.0000 C   0  0  0  0  0  0  0  0  0  0  0  0
   -3.2795    3.0066    0.0000 N   0  0  0  0  0  0  0  0  0  0  0  0
   -3.9061    3.5715    0.0000 C   0  0  0  0  0  0  0  0  0  0  0  0
   -4.6369    3.1503    0.0000 C   0  0  0  0  0  0  0  0  0  0  0  0
   -4.4620    2.3249    0.0000 N   0  3  0  0  0  0  0  0  0  0  0  0
   -5.0589    1.7280    0.0000 C   0  0  0  0  0  0  0  0  0  0  0  0
   -5.8741    1.9465    0.0000 C   0  0  0  0  0  0  0  0  0  0  0  0
   -2.4641    3.2251    0.0000 C   0  0  0  0  0  0  0  0  0  0  0  0
   -2.2456    4.0404    0.0000 C   0  0  0  0  0  0  0  0  0  0  0  0
   -2.1992    2.5850    0.0000 C   0  0  0  0  0  0  0  0  0  0  0  0
   -1.3781    2.5850    0.0000 C   0  0  0  0  0  0  0  0  0  0  0  0
    0.3740    1.9794    0.0000 C   0  0  0  0  0  0  0  0  0  0  0  0
    1.1248    1.5945    0.0000 N   0  0  0  0  0  0  0  0  0  0  0  0
    1.7229    2.1897    0.0000 C   0  0  0  0  0  0  0  0  0  0  0  0
    1.3416    2.9423    0.0000 C   0  0  0  0  0  0  0  0  0  0  0  0
    0.5080    2.8123    0.0000 N   0  3  0  0  0  0  0  0  0  0  0  0
   -0.0556    3.4405    0.0000 C   0  0  0  0  0  0  0  0  0  0  0  0
    0.2066    4.2428    0.0000 C   0  0  0  0  0  0  0  0  0  0  0  0
    1.2990    0.7687    0.0000 C   0  0  0  0  0  0  0  0  0  0  0  0
    2.1012    0.5066    0.0000 C   0  0  0  0  0  0  0  0  0  0  0  0
    0.7159    0.5510    0.0000 C   0  0  0  0  0  0  0  0  0  0  0  0
    0.7159   -0.2700    0.0000 C   0  0  0  0  0  0  0  0  0  0  0  0
    0.1159   -2.0223    0.0000 C   0  0  0  0  0  0  0  0  0  0  0  0
    0.9116   -1.7422    0.0000 N   0  3  0  0  0  0  0  0  0  0  0  0
    1.4237   -2.4127    0.0000 C   0  0  0  0  0  0  0  0  0  0  0  0
    0.9444   -3.1070    0.0000 C   0  0  0  0  0  0  0  0  0  0  0  0
    0.1360   -2.8655    0.0000 N   0  0  0  0  0  0  0  0  0  0  0  0
   -0.5066   -3.4127    0.0000 C   0  0  0  0  0  0  0  0  0  0  0  0
   -0.3541   -4.2428    0.0000 C   0  0  0  0  0  0  0  0  0  0  0  0
    1.1946   -0.9470    0.0000 C   0  0  0  0  0  0  0  0  0  0  0  0
    2.0247   -0.7946    0.0000 C   0  0  0  0  0  0  0  0  0  0  0  0
   -1.3111   -2.3595    0.0000 C   0  0  0  0  0  0  0  0  0  0  0  0
   -2.1323   -2.3595    0.0000 C   0  0  0  0  0  0  0  0  0  0  0  0
   -1.9591    0.5318    0.0000 Mn  0  1  0  0  0  0  0  0  0  0  0  0
    5.8741    2.2496    0.0000 Cl  0  5  0  0  0  0  0  0  0  0  0  0
    5.8741    2.2496    0.0000 Cl  0  5  0  0  0  0  0  0  0  0  0  0
    5.8741    2.2496    0.0000 Cl  0  5  0  0  0  0  0  0  0  0  0  0
    5.8741    2.2496    0.0000 Cl  0  5  0  0  0  0  0  0  0  0  0  0
    5.8741    2.2496    0.0000 Cl  0  5  0  0  0  0  0  0  0  0  0  0
  6  5  1  0  0  0  0
  7  6  1  0  0  0  0
  8  7  2  0  0  0  0
  9  8  1  0  0  0  0
  9 10  2  0  0  0  0
 10 11  1  0  0  0  0
 11 12  2  0  0  0  0
 12 13  1  0  0  0  0
 13 14  1  0  0  0  0
 14 15  1  0  0  0  0
 15 16  1  0  0  0  0
 16  1  2  0  0  0  0
 16 17  1  0  0  0  0
 18 17  2  0  0  0  0
 19 18  1  0  0  0  0
 20 19  2  0  0  0  0
 21 20  1  0  0  0  0
 21 22  1  0  0  0  0
 22 23  1  0  0  0  0
 21 17  1  0  0  0  0
 18 24  1  0  0  0  0
 24 25  1  0  0  0  0
 26 15  2  0  0  0  0
 27 26  1  0  0  0  0
 13 27  2  0  0  0  0
 28 12  1  0  0  0  0
 29 28  1  0  0  0  0
 29 30  1  0  0  0  0
 30 31  2  0  0  0  0
 31 32  1  0  0  0  0
 32 28  2  0  0  0  0
 32 33  1  0  0  0  0
 33 34  1  0  0  0  0
 29 35  1  0  0  0  0
 35 36  1  0  0  0  0
 37 11  1  0  0  0  0
 38 37  2  0  0  0  0
  9 38  1  0  0  0  0
  8 39  1  0  0  0  0
 40 39  1  0  0  0  0
 41 40  1  0  0  0  0
 41 42  2  0  0  0  0
 42 43  1  0  0  0  0
 43 44  1  0  0  0  0
 44 45  1  0  0  0  0
 43 39  2  0  0  0  0
 40 46  1  0  0  0  0
 46 47  1  0  0  0  0
  7 48  1  0  0  0  0
 48 49  2  0  0  0  0
 49  5  1  0  0  0  0
  4 50  1  0  0  0  0
 51 50  2  0  0  0  0
 52 51  1  0  0  0  0
 53 52  2  0  0  0  0
 54 53  1  0  0  0  0
 54 55  1  0  0  0  0
 55 56  1  0  0  0  0
 54 50  1  0  0  0  0
 51 57  1  0  0  0  0
 57 58  1  0  0  0  0
  3 59  1  0  0  0  0
 59 60  2  0  0  0  0
 60  1  1  0  0  0  0
  2  1  1  0  0  0  0
  3  2  2  0  0  0  0
  4  3  1  0  0  0  0
  5  4  2  0  0  0  0
M  CHG  8   6  -1  14  -1  18   1  32   1  43   1  51   1  61   3  62  -1
M  CHG  4  63  -1  64  -1  65  -1  66  -1
M  STY  1   1 SRU
M  SAL   1  1  62
M  SDI   1  4    5.4616    1.8371    5.4616    2.6621
M  SDI   1  4    6.2866    2.6621    6.2866    1.8371
M  SMT   1 5
M  END
> <DATABASE_ID>
DB05874

> <DATABASE_NAME>
drugbank

> <SMILES>
[Cl-].[Cl-].[Cl-].[Cl-].[Cl-].[Mn+3].CCN1C=C[N+](CC)=C1\C1=C2/C=CC(=N2)\C(=C2/[N-]\C(\C=C2)=C(/C2=N/C(/C=C2)=C(\C2=CC=C1[N-]2)C1=[N+](CC)C=CN1CC)C1=[N+](CC)C=CN1CC)\C1=[N+](CC)C=CN1CC

> <INCHI_IDENTIFIER>
InChI=1S/C48H56N12.5ClH.Mn/c1-9-53-25-26-54(10-2)45(53)41-33-17-19-35(49-33)42(46-55(11-3)27-28-56(46)12-4)37-21-23-39(51-37)44(48-59(15-7)31-32-60(48)16-8)40-24-22-38(52-40)43(36-20-18-34(41)50-36)47-57(13-5)29-30-58(47)14-6;;;;;;/h17-32H,9-16H2,1-8H3;5*1H;/q+2;;;;;;+3/p-5

> <INCHI_KEY>
XMYHQLIAYLLEKT-UHFFFAOYSA-I

> <FORMULA>
C48H56Cl9MnN12

> <MOLECULAR_WEIGHT>
1175.05

> <EXACT_MASS>
1170.135002

> <JCHEM_ATOM_COUNT>
126

> <JCHEM_FORMAL_CHARGE>
0

> <JCHEM_GHOSE_FILTER>
0

> <ALOGPS_LOGP>
0.31

> <ALOGPS_LOGS>
-4.91

> <JCHEM_RULE_OF_FIVE>
0

> <ALOGPS_SOLUBILITY>
1.27e-02 g/l

> <DRUGBANK_ID>
DB05874

> <DRUG_GROUPS>
investigational

> <GENERIC_NAME>
AEOL-10150

$$$$
