
  Mrv1572004221606152D          

 13 13  0  0  0  0            999 V2000
   -0.7145   -2.8875    0.0000 C   0  0  0  0  0  0  0  0  0  0  0  0
    1.4289   -0.0000    0.0000 C   0  0  0  0  0  0  0  0  0  0  0  0
    1.4289    0.8250    0.0000 C   0  0  0  0  0  0  0  0  0  0  0  0
    0.0000   -0.0000    0.0000 C   0  0  0  0  0  0  0  0  0  0  0  0
   -0.0000   -1.6500    0.0000 C   0  0  0  0  0  0  0  0  0  0  0  0
    0.7145   -0.4125    0.0000 C   0  0  0  0  0  0  0  0  0  0  0  0
    0.7145    1.2375    0.0000 C   0  0  0  0  0  0  0  0  0  0  0  0
    0.0000    0.8250    0.0000 C   0  0  0  0  0  0  0  0  0  0  0  0
    0.7145   -1.2375    0.0000 C   0  0  0  0  0  0  0  0  0  0  0  0
   -0.0000   -2.4750    0.0000 N   0  0  0  0  0  0  0  0  0  0  0  0
    0.7145    2.0625    0.0000 O   0  0  0  0  0  0  0  0  0  0  0  0
   -0.7145    1.2375    0.0000 O   0  0  0  0  0  0  0  0  0  0  0  0
    1.4289   -1.6500    0.0000 O   0  0  0  0  0  0  0  0  0  0  0  0
  3  2  2  0  0  0  0
  6  2  1  0  0  0  0
  6  4  2  0  0  0  0
  7  3  1  0  0  0  0
  8  4  1  0  0  0  0
  8  7  2  0  0  0  0
  9  5  1  0  0  0  0
  9  6  1  0  0  0  0
 10  1  1  0  0  0  0
 10  5  1  0  0  0  0
 11  7  1  0  0  0  0
 12  8  1  0  0  0  0
 13  9  2  0  0  0  0
M  END
> <DATABASE_ID>
DB13394

> <DATABASE_NAME>
drugbank

> <SMILES>
CNCC(=O)C1=CC(O)=C(O)C=C1

> <INCHI_IDENTIFIER>
InChI=1S/C9H11NO3/c1-10-5-9(13)6-2-3-7(11)8(12)4-6/h2-4,10-12H,5H2,1H3

> <INCHI_KEY>
PZMVOUYYNKPMSI-UHFFFAOYSA-N

> <FORMULA>
C9H11NO3

> <MOLECULAR_WEIGHT>
181.191

> <EXACT_MASS>
181.073893218

> <JCHEM_ACCEPTOR_COUNT>
4

> <JCHEM_ATOM_COUNT>
24

> <JCHEM_AVERAGE_POLARIZABILITY>
18.31635589356603

> <JCHEM_BIOAVAILABILITY>
1

> <JCHEM_DONOR_COUNT>
3

> <JCHEM_FORMAL_CHARGE>
0

> <JCHEM_GHOSE_FILTER>
1

> <JCHEM_IUPAC>
1-(3,4-dihydroxyphenyl)-2-(methylamino)ethan-1-one

> <ALOGPS_LOGP>
-0.55

> <JCHEM_LOGP>
-0.17845818443966144

> <ALOGPS_LOGS>
-1.32

> <JCHEM_MDDR_LIKE_RULE>
0

> <JCHEM_NUMBER_OF_RINGS>
1

> <JCHEM_PHYSIOLOGICAL_CHARGE>
1

> <JCHEM_PKA>
11.847047547990854

> <JCHEM_PKA_STRONGEST_ACIDIC>
7.498498393661928

> <JCHEM_PKA_STRONGEST_BASIC>
8.240608912336805

> <JCHEM_POLAR_SURFACE_AREA>
69.56

> <JCHEM_REFRACTIVITY>
48.5569

> <JCHEM_ROTATABLE_BOND_COUNT>
3

> <JCHEM_RULE_OF_FIVE>
1

> <ALOGPS_SOLUBILITY>
8.68e+00 g/l

> <JCHEM_TRADITIONAL_IUPAC>
adrenalone

> <JCHEM_VEBER_RULE>
0

> <DRUGBANK_ID>
DB13394

> <DRUG_GROUPS>
experimental

> <GENERIC_NAME>
Adrenalone

> <SYNONYMS>
3',4'-dihydroxy-2-(methylamino)acetophenone; 4-Methylaminoacetocatechol; Adrenalona; Adrenalone; Adrenone

$$$$
