
  Mrv1909 12241914152D          

 33 34  0  0  0  0            999 V2000
    3.5984    0.3308    0.0000 N   0  0  0  0  0  0  0  0  0  0  0  0
    4.1818   -0.2523    0.0000 C   0  0  0  0  0  0  0  0  0  0  0  0
    4.9786   -0.0389    0.0000 N   0  0  0  0  0  0  0  0  0  0  0  0
    5.1921    0.7579    0.0000 C   0  0  0  0  0  0  0  0  0  0  0  0
    4.6088    1.3413    0.0000 C   0  0  0  0  0  0  0  0  0  0  0  0
    3.8119    1.1276    0.0000 C   0  0  0  0  0  0  0  0  0  0  0  0
    2.5484   -0.6733    0.0000 C   0  0  1  0  0  0  0  0  0  0  0  0
    2.8052    0.1108    0.0000 C   0  0  1  0  0  0  0  0  0  0  0  0
    2.1359    0.5975    0.0000 O   0  0  0  0  0  0  0  0  0  0  0  0
    1.4667    0.1108    0.0000 C   0  0  1  0  0  0  0  0  0  0  0  0
    1.7234   -0.6733    0.0000 C   0  0  1  0  0  0  0  0  0  0  0  0
    0.7484    0.5267    0.0000 C   0  0  0  0  0  0  0  0  0  0  0  0
    0.1609   -0.0565    0.0000 O   0  0  0  0  0  0  0  0  0  0  0  0
   -0.6640   -0.0523    0.0000 P   0  0  0  0  0  0  0  0  0  0  0  0
   -1.4890   -0.0483    0.0000 O   0  0  0  0  0  0  0  0  0  0  0  0
   -2.3140   -0.0440    0.0000 P   0  0  0  0  0  0  0  0  0  0  0  0
   -3.1390   -0.0398    0.0000 O   0  0  0  0  0  0  0  0  0  0  0  0
   -0.6681    0.7726    0.0000 O   0  0  0  0  0  0  0  0  0  0  0  0
   -2.3181    0.7809    0.0000 O   0  0  0  0  0  0  0  0  0  0  0  0
   -2.3098   -0.8690    0.0000 O   0  0  0  0  0  0  0  0  0  0  0  0
   -0.6598   -0.8773    0.0000 O   0  0  0  0  0  0  0  0  0  0  0  0
    5.9890    0.9715    0.0000 N   0  0  0  0  0  0  0  0  0  0  0  0
    3.9682   -1.0492    0.0000 O   0  0  0  0  0  0  0  0  0  0  0  0
    1.2392   -1.3412    0.0000 O   0  0  0  0  0  0  0  0  0  0  0  0
    3.0325   -1.3412    0.0000 O   0  0  0  0  0  0  0  0  0  0  0  0
   -3.8515    0.3726    0.0000 C   0  0  0  0  0  0  0  0  0  0  0  0
   -4.5640   -0.0398    0.0000 C   0  0  2  0  0  0  0  0  0  0  0  0
   -5.2765    0.3726    0.0000 C   0  0  1  0  0  0  0  0  0  0  0  0
   -5.9890   -0.0398    0.0000 C   0  0  0  0  0  0  0  0  0  0  0  0
   -5.9880   -0.8648    0.0000 O   0  0  0  0  0  0  0  0  0  0  0  0
   -4.5640   -0.8648    0.0000 O   0  0  0  0  0  0  0  0  0  0  0  0
   -5.8640    0.9600    0.0000 C   0  0  0  0  0  0  0  0  0  0  0  0
   -4.6931    0.9600    0.0000 O   0  0  0  0  0  0  0  0  0  0  0  0
 15 16  1  0  0  0  0
  3  4  2  0  0  0  0
 16 17  1  0  0  0  0
  4  5  1  0  0  0  0
 14 18  2  0  0  0  0
  7  8  1  0  0  0  0
 16 19  2  0  0  0  0
  8  9  1  0  0  0  0
 16 20  1  0  0  0  0
  9 10  1  0  0  0  0
 14 21  1  0  0  0  0
 10 11  1  0  0  0  0
  4 22  1  0  0  0  0
 11  7  1  0  0  0  0
  2 23  2  0  0  0  0
  8  1  1  1  0  0  0
 11 24  1  6  0  0  0
  5  6  2  0  0  0  0
  7 25  1  6  0  0  0
 10 12  1  1  0  0  0
 17 26  1  0  0  0  0
  6  1  1  0  0  0  0
 26 27  1  0  0  0  0
 12 13  1  0  0  0  0
 27 28  1  0  0  0  0
 28 29  1  0  0  0  0
 13 14  1  0  0  0  0
 29 30  1  0  0  0  0
  1  2  1  0  0  0  0
 27 31  1  1  0  0  0
 14 15  1  0  0  0  0
 28 32  1  1  0  0  0
  2  3  1  0  0  0  0
 28 33  1  6  0  0  0
M  END
> <DATABASE_ID>
DB03687

> <DATABASE_NAME>
drugbank

> <SMILES>
C[C@](O)(CO)[C@H](O)COP(O)(=O)OP(O)(=O)OC[C@H]1O[C@H]([C@H](O)[C@@H]1O)N1C=CC(N)=NC1=O

> <INCHI_IDENTIFIER>
InChI=1S/C14H25N3O14P2/c1-14(23,6-18)8(19)5-29-33(26,27)31-32(24,25)28-4-7-10(20)11(21)12(30-7)17-3-2-9(15)16-13(17)22/h2-3,7-8,10-12,18-21,23H,4-6H2,1H3,(H,24,25)(H,26,27)(H2,15,16,22)/t7-,8-,10-,11-,12-,14+/m1/s1

> <INCHI_KEY>
YFAUKWZNPVBCFF-XHIBXCGHSA-N

> <FORMULA>
C14H25N3O14P2

> <MOLECULAR_WEIGHT>
521.3075

> <EXACT_MASS>
521.081175547

> <JCHEM_ACCEPTOR_COUNT>
14

> <JCHEM_ATOM_COUNT>
58

> <JCHEM_AVERAGE_NEUTRAL_MICROSPECIES_CHARGE>
-1.9241016735081071

> <JCHEM_AVERAGE_POLARIZABILITY>
44.230883620014964

> <JCHEM_BIOAVAILABILITY>
0

> <JCHEM_DONOR_COUNT>
9

> <JCHEM_FORMAL_CHARGE>
0

> <JCHEM_GHOSE_FILTER>
0

> <JCHEM_IUPAC>
{[(2R,3S,4R,5R)-3,4-dihydroxy-5-(2-hydroxy-4-imino-1,4-dihydropyrimidin-1-yl)oxolan-2-yl]methoxy}({hydroxy[(2R,3S)-2,3,4-trihydroxy-3-methylbutoxy]phosphoryl}oxy)phosphinic acid

> <JCHEM_LOGP>
-3.915385796624603

> <JCHEM_MDDR_LIKE_RULE>
0

> <JCHEM_NEUTRAL_CHARGE>
-2

> <JCHEM_NUMBER_OF_RINGS>
2

> <JCHEM_PHYSIOLOGICAL_CHARGE>
-2

> <JCHEM_PKA>
2.973492605768817

> <JCHEM_PKA_STRONGEST_ACIDIC>
1.8397917285445735

> <JCHEM_PKA_STRONGEST_BASIC>
3.5577873357580536

> <JCHEM_POLAR_SURFACE_AREA>
272.34999999999997

> <JCHEM_REFRACTIVITY>
115.04089999999997

> <JCHEM_ROTATABLE_BOND_COUNT>
11

> <JCHEM_RULE_OF_FIVE>
0

> <JCHEM_TRADITIONAL_IUPAC>
[(2R,3S,5R)-5-(5-fluoro-2,4-dioxo-3H-pyrimidin-1-yl)-3-hydroxyoxolan-2-yl]methoxyphosphonic acid

> <JCHEM_VEBER_RULE>
0

> <DRUGBANK_ID>
DB03687

> <SECONDARY_ACCESSION_NUMBERS>
EXPT00873

> <DRUG_GROUPS>
experimental

> <GENERIC_NAME>
4-(Cytidine 5'-diphospho)-2-C-methyl-D-erythritol

> <SYNONYMS>
4-CDP-2-C-methyl-D-erythritol; 4-Diphosphocytidyl-2-C-methyl-D-erythritol

$$$$
