
  Mrv1909 05201914262D          

 51 55  0  0  1  0            999 V2000
    5.7158   -4.1250    0.0000 C   0  0  0  0  0  0  0  0  0  0  0  0
    5.7158   -4.9500    0.0000 C   0  0  0  0  0  0  0  0  0  0  0  0
    6.4302   -5.3625    0.0000 C   0  0  0  0  0  0  0  0  0  0  0  0
    6.4302   -6.1875    0.0000 C   0  0  0  0  0  0  0  0  0  0  0  0
    7.1447   -6.6000    0.0000 C   0  0  0  0  0  0  0  0  0  0  0  0
    5.7158   -6.6000    0.0000 C   0  0  0  0  0  0  0  0  0  0  0  0
    5.0013   -6.1875    0.0000 C   0  0  0  0  0  0  0  0  0  0  0  0
    4.2868   -6.6000    0.0000 C   0  0  0  0  0  0  0  0  0  0  0  0
    5.0013   -5.3625    0.0000 C   0  0  0  0  0  0  0  0  0  0  0  0
    5.7158   -7.4250    0.0000 C   0  0  0  0  0  0  0  0  0  0  0  0
    6.4302   -7.8375    0.0000 C   0  0  0  0  0  0  0  0  0  0  0  0
    6.4302   -8.6625    0.0000 C   0  0  0  0  0  0  0  0  0  0  0  0
    5.7158   -9.0750    0.0000 C   0  0  0  0  0  0  0  0  0  0  0  0
    5.7158   -9.9000    0.0000 N   0  0  0  0  0  0  0  0  0  0  0  0
    6.4302  -10.3125    0.0000 C   0  0  0  0  0  0  0  0  0  0  0  0
    7.1447   -9.9000    0.0000 O   0  0  0  0  0  0  0  0  0  0  0  0
    6.4302  -11.1375    0.0000 C   0  0  2  0  0  0  0  0  0  0  0  0
    7.1447  -11.5500    0.0000 C   0  0  0  0  0  0  0  0  0  0  0  0
    7.1447  -12.3750    0.0000 C   0  0  0  0  0  0  0  0  0  0  0  0
    7.8592  -12.7875    0.0000 C   0  0  0  0  0  0  0  0  0  0  0  0
    7.8592  -13.6125    0.0000 C   0  0  0  0  0  0  0  0  0  0  0  0
    7.1447  -14.0250    0.0000 C   0  0  0  0  0  0  0  0  0  0  0  0
    6.4302  -13.6125    0.0000 C   0  0  0  0  0  0  0  0  0  0  0  0
    6.4302  -12.7875    0.0000 C   0  0  0  0  0  0  0  0  0  0  0  0
    7.1447  -14.8500    0.0000 C   0  0  0  0  0  0  0  0  0  0  0  0
    7.8592  -15.2625    0.0000 O   0  0  0  0  0  0  0  0  0  0  0  0
    6.4302  -15.2625    0.0000 N   0  0  0  0  0  0  0  0  0  0  0  0
    6.4302  -16.0875    0.0000 C   0  0  0  0  0  0  0  0  0  0  0  0
    5.7158  -16.5000    0.0000 C   0  0  0  0  0  0  0  0  0  0  0  0
    5.7158  -17.3250    0.0000 S   0  0  0  0  0  0  0  0  0  0  0  0
    5.7158  -18.1500    0.0000 O   0  0  0  0  0  0  0  0  0  0  0  0
    4.8908  -17.3250    0.0000 O   0  0  0  0  0  0  0  0  0  0  0  0
    6.5408  -17.3250    0.0000 O   0  0  0  0  0  0  0  0  0  0  0  0
    5.7158  -11.5500    0.0000 C   0  0  0  0  0  0  0  0  0  0  0  0
    5.7158  -12.3750    0.0000 C   0  0  0  0  0  0  0  0  0  0  0  0
    5.0013  -12.7875    0.0000 C   0  0  0  0  0  0  0  0  0  0  0  0
    4.2868  -12.3750    0.0000 C   0  0  0  0  0  0  0  0  0  0  0  0
    4.2868  -11.5500    0.0000 C   0  0  0  0  0  0  0  0  0  0  0  0
    5.0013  -11.1375    0.0000 C   0  0  0  0  0  0  0  0  0  0  0  0
    3.5724  -12.7875    0.0000 C   0  0  0  0  0  0  0  0  0  0  0  0
    3.5724  -13.6125    0.0000 C   0  0  0  0  0  0  0  0  0  0  0  0
    2.8579  -14.0250    0.0000 C   0  0  0  0  0  0  0  0  0  0  0  0
    2.1434  -13.6125    0.0000 C   0  0  0  0  0  0  0  0  0  0  0  0
    2.1434  -12.7875    0.0000 C   0  0  0  0  0  0  0  0  0  0  0  0
    2.8579  -12.3750    0.0000 C   0  0  0  0  0  0  0  0  0  0  0  0
    1.4289  -14.0250    0.0000 C   0  0  0  0  0  0  0  0  0  0  0  0
    0.7145  -14.4375    0.0000 C   0  0  0  0  0  0  0  0  0  0  0  0
    1.0164  -13.3105    0.0000 C   0  0  0  0  0  0  0  0  0  0  0  0
    1.8414  -14.7395    0.0000 C   0  0  0  0  0  0  0  0  0  0  0  0
    5.0013   -8.6625    0.0000 C   0  0  0  0  0  0  0  0  0  0  0  0
    5.0013   -7.8375    0.0000 C   0  0  0  0  0  0  0  0  0  0  0  0
  1  2  1  0  0  0  0
  2  3  2  0  0  0  0
  3  4  1  0  0  0  0
  4  5  1  0  0  0  0
  4  6  2  0  0  0  0
  6  7  1  0  0  0  0
  7  8  1  0  0  0  0
  7  9  2  0  0  0  0
  2  9  1  0  0  0  0
  6 10  1  0  0  0  0
 10 11  2  0  0  0  0
 11 12  1  0  0  0  0
 12 13  2  0  0  0  0
 13 14  1  0  0  0  0
 14 15  1  0  0  0  0
 15 16  2  0  0  0  0
 17 15  1  6  0  0  0
 17 18  1  0  0  0  0
 18 19  1  0  0  0  0
 19 20  2  0  0  0  0
 20 21  1  0  0  0  0
 21 22  2  0  0  0  0
 22 23  1  0  0  0  0
 23 24  2  0  0  0  0
 19 24  1  0  0  0  0
 22 25  1  0  0  0  0
 25 26  2  0  0  0  0
 25 27  1  0  0  0  0
 27 28  1  0  0  0  0
 28 29  1  0  0  0  0
 29 30  1  0  0  0  0
 30 31  1  0  0  0  0
 30 32  2  0  0  0  0
 30 33  2  0  0  0  0
 17 34  1  0  0  0  0
 34 35  2  0  0  0  0
 35 36  1  0  0  0  0
 36 37  2  0  0  0  0
 37 38  1  0  0  0  0
 38 39  2  0  0  0  0
 34 39  1  0  0  0  0
 37 40  1  0  0  0  0
 40 41  2  0  0  0  0
 41 42  1  0  0  0  0
 42 43  2  0  0  0  0
 43 44  1  0  0  0  0
 44 45  2  0  0  0  0
 40 45  1  0  0  0  0
 43 46  1  0  0  0  0
 46 47  1  0  0  0  0
 46 48  1  0  0  0  0
 46 49  1  0  0  0  0
 13 50  1  0  0  0  0
 50 51  2  0  0  0  0
 10 51  1  0  0  0  0
M  END
> <DATABASE_ID>
DB14779

> <DATABASE_NAME>
drugbank

> <SMILES>
CC1=CC(C)=C(C(C)=C1)C1=CC=C(NC(=O)[C@H](CC2=CC=C(C=C2)C(=O)NCCS(O)(=O)=O)C2=CC=C(C=C2)C2=CC=C(C=C2)C(C)(C)C)C=C1

> <INCHI_IDENTIFIER>
InChI=1S/C43H46N2O5S/c1-28-25-29(2)40(30(3)26-28)35-17-21-38(22-18-35)45-42(47)39(27-31-7-9-36(10-8-31)41(46)44-23-24-51(48,49)50)34-13-11-32(12-14-34)33-15-19-37(20-16-33)43(4,5)6/h7-22,25-26,39H,23-24,27H2,1-6H3,(H,44,46)(H,45,47)(H,48,49,50)/t39-/m1/s1

> <INCHI_KEY>
HKJMCBYPVCGZFB-LDLOPFEMSA-N

> <FORMULA>
C43H46N2O5S

> <MOLECULAR_WEIGHT>
702.91

> <EXACT_MASS>
702.312743763

> <JCHEM_ACCEPTOR_COUNT>
5

> <JCHEM_ATOM_COUNT>
97

> <JCHEM_AVERAGE_POLARIZABILITY>
80.53658558820383

> <JCHEM_BIOAVAILABILITY>
0

> <JCHEM_DONOR_COUNT>
3

> <JCHEM_FORMAL_CHARGE>
0

> <JCHEM_GHOSE_FILTER>
0

> <JCHEM_IUPAC>
2-({4-[(2R)-2-{4'-tert-butyl-[1,1'-biphenyl]-4-yl}-2-({2',4',6'-trimethyl-[1,1'-biphenyl]-4-yl}carbamoyl)ethyl]phenyl}formamido)ethane-1-sulfonic acid

> <ALOGPS_LOGP>
5.35

> <JCHEM_LOGP>
8.375359798796545

> <ALOGPS_LOGS>
-7.73

> <JCHEM_MDDR_LIKE_RULE>
1

> <JCHEM_NUMBER_OF_RINGS>
5

> <JCHEM_PHYSIOLOGICAL_CHARGE>
-1

> <JCHEM_PKA>
13.752223688778875

> <JCHEM_PKA_STRONGEST_ACIDIC>
-1.400506580884796

> <JCHEM_PKA_STRONGEST_BASIC>
-0.6930546282671246

> <JCHEM_POLAR_SURFACE_AREA>
112.57

> <JCHEM_REFRACTIVITY>
207.63669999999996

> <JCHEM_ROTATABLE_BOND_COUNT>
12

> <JCHEM_RULE_OF_FIVE>
0

> <ALOGPS_SOLUBILITY>
1.31e-05 g/l

> <JCHEM_TRADITIONAL_IUPAC>
(2R)-14-fluoro-2-methyl-6,9,10,19-tetraazapentacyclo[14.2.1.0^{2,6}.0^{8,18}.0^{12,17}]nonadeca-1(18),8,12(17),13,15-pentaen-11-one

> <JCHEM_VEBER_RULE>
0

> <DRUGBANK_ID>
DB14779

> <DRUG_GROUPS>
investigational

> <GENERIC_NAME>
LGD-6972

$$$$
