
  Mrv1718001051815262D          

 54 59  0  0  1  0            999 V2000
    1.7767   -3.8091    0.0000 C   0  0  0  0  0  0  0  0  0  0  0  0
    0.9522   -3.8379    0.0000 C   0  0  1  0  0  0  0  0  0  0  0  0
    0.5150   -3.1382    0.0000 C   0  0  2  0  0  0  0  0  0  0  0  0
   -0.3095   -3.1670    0.0000 C   0  0  2  0  0  0  0  0  0  0  0  0
   -0.6968   -3.8954    0.0000 C   0  0  0  0  0  0  0  0  0  0  0  0
   -0.2596   -4.5951    0.0000 C   0  0  1  0  0  0  0  0  0  0  0  0
    0.5649   -4.5663    0.0000 O   0  0  0  0  0  0  0  0  0  0  0  0
   -0.6469   -5.3235    0.0000 O   0  0  0  0  0  0  0  0  0  0  0  0
   -0.2098   -6.0232    0.0000 C   0  0  1  0  0  0  0  0  0  0  0  0
    0.6147   -5.9944    0.0000 C   0  0  0  0  0  0  0  0  0  0  0  0
    1.0519   -6.6940    0.0000 C   0  0  1  0  0  0  0  0  0  0  0  0
    0.6646   -7.4224    0.0000 C   0  0  0  0  0  0  0  0  0  0  0  0
   -0.1599   -7.4512    0.0000 C   0  0  0  0  0  0  0  0  0  0  0  0
   -0.5971   -6.7516    0.0000 C   0  0  0  0  0  0  0  0  0  0  0  0
   -1.4216   -6.7804    0.0000 C   0  0  0  0  0  0  0  0  0  0  0  0
   -1.8089   -7.5088    0.0000 C   0  0  0  0  0  0  0  0  0  0  0  0
   -1.3717   -8.2085    0.0000 C   0  0  0  0  0  0  0  0  0  0  0  0
   -0.5472   -8.1797    0.0000 C   0  0  0  0  0  0  0  0  0  0  0  0
   -0.1100   -8.8793    0.0000 O   0  0  0  0  0  0  0  0  0  0  0  0
   -1.7590   -8.9369    0.0000 C   0  0  0  0  0  0  0  0  0  0  0  0
   -1.3218   -9.6365    0.0000 O   0  0  0  0  0  0  0  0  0  0  0  0
   -2.5835   -8.9657    0.0000 C   0  0  0  0  0  0  0  0  0  0  0  0
   -2.9708   -9.6941    0.0000 C   0  0  0  0  0  0  0  0  0  0  0  0
   -3.7953   -9.7229    0.0000 C   0  0  0  0  0  0  0  0  0  0  0  0
   -4.2325   -9.0233    0.0000 C   0  0  0  0  0  0  0  0  0  0  0  0
   -3.8452   -8.2948    0.0000 C   0  0  0  0  0  0  0  0  0  0  0  0
   -3.0207   -8.2660    0.0000 C   0  0  0  0  0  0  0  0  0  0  0  0
   -2.6334   -7.5376    0.0000 C   0  0  0  0  0  0  0  0  0  0  0  0
   -3.0706   -6.8380    0.0000 O   0  0  0  0  0  0  0  0  0  0  0  0
   -4.2824   -7.5952    0.0000 O   0  0  0  0  0  0  0  0  0  0  0  0
   -5.1069   -7.6240    0.0000 C   0  0  0  0  0  0  0  0  0  0  0  0
   -1.8588   -6.0807    0.0000 O   0  0  0  0  0  0  0  0  0  0  0  0
    1.7664   -6.2815    0.0000 C   0  0  0  0  0  0  0  0  0  0  0  0
    2.4809   -6.6940    0.0000 N   0  0  0  0  0  0  0  0  0  0  0  0
    3.1953   -6.2815    0.0000 N   0  0  0  0  0  0  0  0  0  0  0  0
    3.9098   -6.6940    0.0000 C   0  0  0  0  0  0  0  0  0  0  0  0
    3.9098   -7.5190    0.0000 O   0  0  0  0  0  0  0  0  0  0  0  0
    4.6243   -6.2815    0.0000 C   0  0  0  0  0  0  0  0  0  0  0  0
    5.3387   -6.6940    0.0000 C   0  0  0  0  0  0  0  0  0  0  0  0
    6.0532   -6.2815    0.0000 C   0  0  0  0  0  0  0  0  0  0  0  0
    6.7677   -6.6940    0.0000 C   0  0  0  0  0  0  0  0  0  0  0  0
    7.4822   -6.2815    0.0000 C   0  0  0  0  0  0  0  0  0  0  0  0
    8.1966   -6.6940    0.0000 N   0  0  0  0  0  0  0  0  0  0  0  0
    8.9503   -6.3584    0.0000 C   0  0  0  0  0  0  0  0  0  0  0  0
    9.1218   -5.5515    0.0000 O   0  0  0  0  0  0  0  0  0  0  0  0
    9.5023   -6.9715    0.0000 C   0  0  0  0  0  0  0  0  0  0  0  0
    9.0898   -7.6860    0.0000 C   0  0  0  0  0  0  0  0  0  0  0  0
    8.2829   -7.5145    0.0000 C   0  0  0  0  0  0  0  0  0  0  0  0
    7.6698   -8.0665    0.0000 O   0  0  0  0  0  0  0  0  0  0  0  0
    1.7664   -5.4565    0.0000 C   0  0  0  0  0  0  0  0  0  0  0  0
    1.0519   -5.0440    0.0000 O   0  0  0  0  0  0  0  0  0  0  0  0
    1.7934   -7.0557    0.0000 O   0  0  0  0  0  0  0  0  0  0  0  0
   -0.7467   -2.4674    0.0000 N   0  0  0  0  0  0  0  0  0  0  0  0
    0.9023   -2.4098    0.0000 O   0  0  0  0  0  0  0  0  0  0  0  0
  2  1  1  6  0  0  0
  3  2  1  0  0  0  0
  3  4  1  0  0  0  0
  4  5  1  0  0  0  0
  6  5  1  0  0  0  0
  6  7  1  0  0  0  0
  2  7  1  0  0  0  0
  6  8  1  1  0  0  0
  9  8  1  1  0  0  0
  9 10  1  0  0  0  0
 11 10  1  0  0  0  0
 11 12  1  0  0  0  0
 12 13  1  0  0  0  0
 13 14  2  0  0  0  0
  9 14  1  0  0  0  0
 14 15  1  0  0  0  0
 15 16  2  0  0  0  0
 16 17  1  0  0  0  0
 17 18  2  0  0  0  0
 13 18  1  0  0  0  0
 18 19  1  0  0  0  0
 17 20  1  0  0  0  0
 20 21  2  0  0  0  0
 20 22  1  0  0  0  0
 22 23  2  0  0  0  0
 23 24  1  0  0  0  0
 24 25  2  0  0  0  0
 25 26  1  0  0  0  0
 26 27  2  0  0  0  0
 22 27  1  0  0  0  0
 27 28  1  0  0  0  0
 16 28  1  0  0  0  0
 28 29  2  0  0  0  0
 26 30  1  0  0  0  0
 30 31  1  0  0  0  0
 15 32  1  0  0  0  0
 11 33  1  6  0  0  0
 33 34  2  0  0  0  0
 34 35  1  0  0  0  0
 35 36  1  0  0  0  0
 36 37  2  0  0  0  0
 36 38  1  0  0  0  0
 38 39  1  0  0  0  0
 39 40  1  0  0  0  0
 40 41  1  0  0  0  0
 41 42  1  0  0  0  0
 42 43  1  0  0  0  0
 43 44  1  0  0  0  0
 44 45  2  0  0  0  0
 44 46  1  0  0  0  0
 46 47  2  0  0  0  0
 47 48  1  0  0  0  0
 43 48  1  0  0  0  0
 48 49  2  0  0  0  0
 33 50  1  0  0  0  0
 50 51  1  0  0  0  0
 11 52  1  1  0  0  0
  4 53  1  6  0  0  0
  3 54  1  6  0  0  0
M  END
> <DATABASE_ID>
DB06013

> <DATABASE_NAME>
drugbank

> <SMILES>
COC1=C2C(=O)C3=C(O)C4=C(C[C@](O)(C[C@@H]4O[C@H]4C[C@H](N)[C@H](O)[C@H](C)O4)C(\CO)=N\NC(=O)CCCCCN4C(=O)C=CC4=O)C(O)=C3C(=O)C2=CC=C1

> <INCHI_IDENTIFIER>
InChI=1S/C37H42N4O13/c1-17-32(46)20(38)13-27(53-17)54-22-15-37(51,23(16-42)39-40-24(43)9-4-3-5-12-41-25(44)10-11-26(41)45)14-19-29(22)36(50)31-30(34(19)48)33(47)18-7-6-8-21(52-2)28(18)35(31)49/h6-8,10-11,17,20,22,27,32,42,46,48,50-51H,3-5,9,12-16,38H2,1-2H3,(H,40,43)/b39-23+/t17-,20-,22-,27-,32+,37-/m0/s1

> <INCHI_KEY>
OBMJQRLIQQTJLR-USGQOSEYSA-N

> <FORMULA>
C37H42N4O13

> <MOLECULAR_WEIGHT>
750.758

> <EXACT_MASS>
750.274837428

> <JCHEM_ACCEPTOR_COUNT>
15

> <JCHEM_ATOM_COUNT>
96

> <JCHEM_AVERAGE_POLARIZABILITY>
75.8915962836638

> <JCHEM_BIOAVAILABILITY>
0

> <JCHEM_DONOR_COUNT>
7

> <JCHEM_FORMAL_CHARGE>
0

> <JCHEM_GHOSE_FILTER>
0

> <JCHEM_IUPAC>
N'-[(1E)-1-[(2S,4S)-4-{[(2R,4S,5S,6S)-4-amino-5-hydroxy-6-methyloxan-2-yl]oxy}-2,5,12-trihydroxy-7-methoxy-6,11-dioxo-1,2,3,4,6,11-hexahydrotetracen-2-yl]-2-hydroxyethylidene]-6-(2,5-dioxo-2,5-dihydro-1H-pyrrol-1-yl)hexanehydrazide

> <ALOGPS_LOGP>
1.26

> <JCHEM_LOGP>
0.7066950389140945

> <ALOGPS_LOGS>
-3.70

> <JCHEM_MDDR_LIKE_RULE>
1

> <JCHEM_NUMBER_OF_RINGS>
6

> <JCHEM_PHYSIOLOGICAL_CHARGE>
1

> <JCHEM_PKA>
10.172781790173982

> <JCHEM_PKA_STRONGEST_ACIDIC>
8.196718018866292

> <JCHEM_PKA_STRONGEST_BASIC>
9.386596589768699

> <JCHEM_POLAR_SURFACE_AREA>
267.84

> <JCHEM_REFRACTIVITY>
189.86210000000005

> <JCHEM_ROTATABLE_BOND_COUNT>
12

> <JCHEM_RULE_OF_FIVE>
0

> <ALOGPS_SOLUBILITY>
1.51e-01 g/l

> <JCHEM_TRADITIONAL_IUPAC>
N'-[(1E)-1-[(2S,4S)-4-{[(2R,4S,5S,6S)-4-amino-5-hydroxy-6-methyloxan-2-yl]oxy}-2,5,12-trihydroxy-7-methoxy-6,11-dioxo-3,4-dihydro-1H-tetracen-2-yl]-2-hydroxyethylidene]-6-(2,5-dioxopyrrol-1-yl)hexanehydrazide

> <JCHEM_VEBER_RULE>
0

> <DRUGBANK_ID>
DB06013

> <DRUG_GROUPS>
investigational

> <GENERIC_NAME>
Aldoxorubicin

> <SYNONYMS>
Aldoxorubicin

> <SALTS>
Aldoxorubicin hydrochloride

$$$$
