
  Mrv1909 11281920252D          

 10 11  0  0  0  0            999 V2000
    0.3019   -0.6740    0.0000 C   0  0  0  0  0  0  0  0  0  0  0  0
   -0.4125   -1.0865    0.0000 C   0  0  0  0  0  0  0  0  0  0  0  0
    0.3019    0.1509    0.0000 C   0  0  0  0  0  0  0  0  0  0  0  0
   -0.4125    0.5634    0.0000 C   0  0  0  0  0  0  0  0  0  0  0  0
   -1.1270   -0.6740    0.0000 C   0  0  0  0  0  0  0  0  0  0  0  0
   -1.1270    0.1509    0.0000 C   0  0  0  0  0  0  0  0  0  0  0  0
    1.1270   -0.6740    0.0000 C   0  0  0  0  0  0  0  0  0  0  0  0
    0.7144   -1.3885    0.0000 C   0  0  0  0  0  0  0  0  0  0  0  0
   -0.4125    1.3884    0.0000 C   0  0  0  0  0  0  0  0  0  0  0  0
   -0.4125   -0.2615    0.0000 C   0  0  0  0  0  0  0  0  0  0  0  0
  1  7  1  0  0  0  0
  1  8  1  0  0  0  0
  1  2  1  0  0  0  0
  3  1  1  0  0  0  0
  3  4  1  0  0  0  0
  4  9  2  0  0  0  0
  2  5  1  0  0  0  0
  6  5  1  0  0  0  0
  4  6  1  0  0  0  0
 10  3  1  0  0  0  0
 10  2  1  0  0  0  0
M  END
> <DATABASE_ID>
DB15574

> <DATABASE_NAME>
drugbank

> <SMILES>
CC1(C)C2CC1C(=C)CC2

> <INCHI_IDENTIFIER>
InChI=1S/C10H16/c1-7-4-5-8-6-9(7)10(8,2)3/h8-9H,1,4-6H2,2-3H3

> <INCHI_KEY>
WTARULDDTDQWMU-UHFFFAOYSA-N

> <FORMULA>
C10H16

> <MOLECULAR_WEIGHT>
136.238

> <EXACT_MASS>
136.125200515

> <JCHEM_ACCEPTOR_COUNT>
0

> <JCHEM_ATOM_COUNT>
26

> <JCHEM_AVERAGE_POLARIZABILITY>
17.139207086741767

> <JCHEM_BIOAVAILABILITY>
1

> <JCHEM_DONOR_COUNT>
0

> <JCHEM_FORMAL_CHARGE>
0

> <JCHEM_GHOSE_FILTER>
0

> <JCHEM_IUPAC>
6,6-dimethyl-2-methylidenebicyclo[3.1.1]heptane

> <ALOGPS_LOGP>
3.94

> <JCHEM_LOGP>
2.859595116666666

> <ALOGPS_LOGS>
-3.33

> <JCHEM_MDDR_LIKE_RULE>
0

> <JCHEM_NUMBER_OF_RINGS>
2

> <JCHEM_PHYSIOLOGICAL_CHARGE>
0

> <JCHEM_POLAR_SURFACE_AREA>
0.0

> <JCHEM_REFRACTIVITY>
43.6498

> <JCHEM_ROTATABLE_BOND_COUNT>
0

> <JCHEM_RULE_OF_FIVE>
1

> <ALOGPS_SOLUBILITY>
6.37e-02 g/l

> <JCHEM_TRADITIONAL_IUPAC>
2,4-dichlorobenzyl alcohol

> <JCHEM_VEBER_RULE>
1

> <DRUGBANK_ID>
DB15574

> <DRUG_GROUPS>
experimental

> <GENERIC_NAME>
beta-Pinene

> <SYNONYMS>
2(10)-pinene; nopinene; pseudopinene; Î²-pinene

$$$$
