
  Mrv1909 03242121502D          

 58 63  0  0  0  0            999 V2000
    2.8215    1.4836    0.0000 C   0  0  0  0  0  0  0  0  0  0  0  0
    2.1283    1.9335    0.0000 C   0  0  0  0  0  0  0  0  0  0  0  0
    2.0688   -1.9775    0.0000 C   0  0  0  0  0  0  0  0  0  0  0  0
    3.3865   -1.8151    0.0000 C   0  0  0  0  0  0  0  0  0  0  0  0
    3.0407   -1.0697    0.0000 C   0  0  0  0  0  0  0  0  0  0  0  0
    2.2244   -1.1694    0.0000 N   0  0  0  0  0  0  0  0  0  0  0  0
    2.7889   -2.3739    0.0000 C   0  0  0  0  0  0  0  0  0  0  0  0
    2.8910   -3.1924    0.0000 C   0  0  0  0  0  0  0  0  0  0  0  0
    3.6512   -3.5133    0.0000 C   0  0  0  0  0  0  0  0  0  0  0  0
    4.1963   -1.9729    0.0000 C   0  0  0  0  0  0  0  0  0  0  0  0
    0.5818   -1.9946    0.0000 C   0  0  0  0  0  0  0  0  0  0  0  0
    0.3792   -1.1936    0.0000 N   0  0  0  0  0  0  0  0  0  0  0  0
   -0.4495   -1.1384    0.0000 C   0  0  0  0  0  0  0  0  0  0  0  0
   -0.7568   -1.9106    0.0000 C   0  0  0  0  0  0  0  0  0  0  0  0
   -0.1168   -2.4403    0.0000 C   0  0  0  0  0  0  0  0  0  0  0  0
    1.3263   -2.3410    0.0000 C   0  0  0  0  0  0  0  0  0  0  0  0
   -0.8899   -0.4407    0.0000 C   0  0  0  0  0  0  0  0  0  0  0  0
    3.5041   -0.5444    0.0000 C   0  0  0  0  0  0  0  0  0  0  0  0
   -0.1676   -3.2637    0.0000 C   0  0  0  0  0  0  0  0  0  0  0  0
   -0.3878    0.2163    0.0000 C   0  0  0  0  0  0  0  0  0  0  0  0
    0.4357    0.2365    0.0000 N   0  0  0  0  0  0  0  0  0  0  0  0
    3.1159    0.1803    0.0000 C   0  0  0  0  0  0  0  0  0  0  0  0
    2.2908    0.2338    0.0000 N   0  0  0  0  0  0  0  0  0  0  0  0
    1.3740    1.4281    0.0000 C   0  0  0  0  0  0  0  0  0  0  0  0
    2.1123    1.0624    0.0000 C   0  0  0  0  0  0  0  0  0  0  0  0
    0.6304    1.0786    0.0000 C   0  0  0  0  0  0  0  0  0  0  0  0
   -0.0714    1.5106    0.0000 C   0  0  0  0  0  0  0  0  0  0  0  0
   -0.6991    0.9763    0.0000 C   0  0  0  0  0  0  0  0  0  0  0  0
    3.4407    0.9372    0.0000 C   0  0  0  0  0  0  0  0  0  0  0  0
    4.2189    1.1989    0.0000 C   0  0  0  0  0  0  0  0  0  0  0  0
    4.3845    2.0071    0.0000 C   0  0  0  0  0  0  0  0  0  0  0  0
    3.7656    2.5533    0.0000 C   0  0  0  0  0  0  0  0  0  0  0  0
    2.9808    2.2914    0.0000 C   0  0  0  0  0  0  0  0  0  0  0  0
    3.9298    3.3618    0.0000 C   0  0  0  0  0  0  0  0  0  0  0  0
    4.7121    3.6238    0.0000 O   0  0  0  0  0  0  0  0  0  0  0  0
    3.3117    3.9083    0.0000 O   0  0  0  0  0  0  0  0  0  0  0  0
    5.3301    3.0773    0.0000 C   0  0  0  0  0  0  0  0  0  0  0  0
    2.3614    2.8364    0.0000 C   0  0  0  0  0  0  0  0  0  0  0  0
    2.5237    3.6453    0.0000 O   0  0  0  0  0  0  0  0  0  0  0  0
    1.5797    2.5725    0.0000 O   0  0  0  0  0  0  0  0  0  0  0  0
    0.9604    3.1175    0.0000 C   0  0  0  0  0  0  0  0  0  0  0  0
   -0.1347    2.3331    0.0000 C   0  0  0  0  0  0  0  0  0  0  0  0
   -1.5008    1.1712    0.0000 C   0  0  0  0  0  0  0  0  0  0  0  0
   -1.7328    1.9630    0.0000 C   0  0  0  0  0  0  0  0  0  0  0  0
   -2.5345    2.1579    0.0000 C   0  0  0  0  0  0  0  0  0  0  0  0
   -2.7665    2.9496    0.0000 O   0  0  0  0  0  0  0  0  0  0  0  0
   -3.1041    1.5610    0.0000 O   0  0  0  0  0  0  0  0  0  0  0  0
   -3.9057    1.7559    0.0000 C   0  0  0  0  0  0  0  0  0  0  0  0
   -4.4753    1.1591    0.0000 C   0  0  0  0  0  0  0  0  0  0  0  0
   -5.2771    1.3539    0.0000 O   0  0  0  0  0  0  0  0  0  0  0  0
   -1.5562   -2.1149    0.0000 C   0  0  0  0  0  0  0  0  0  0  0  0
   -1.7788   -2.9094    0.0000 C   0  0  0  0  0  0  0  0  0  0  0  0
   -2.5782   -3.1139    0.0000 C   0  0  0  0  0  0  0  0  0  0  0  0
   -2.8007   -3.9083    0.0000 O   0  0  0  0  0  0  0  0  0  0  0  0
   -3.1548   -2.5238    0.0000 O   0  0  0  0  0  0  0  0  0  0  0  0
   -3.9541   -2.7283    0.0000 C   0  0  0  0  0  0  0  0  0  0  0  0
   -4.5308   -2.1383    0.0000 C   0  0  0  0  0  0  0  0  0  0  0  0
   -5.3301   -2.3428    0.0000 O   0  0  0  0  0  0  0  0  0  0  0  0
 26 27  1  0  0  0  0
 27 28  2  0  0  0  0
 28 20  1  0  0  0  0
  1 29  1  0  0  0  0
 14 15  1  0  0  0  0
 15 11  2  0  0  0  0
  7  8  1  0  0  0  0
 11 16  1  0  0  0  0
 16  3  2  0  0  0  0
  1 33  1  0  0  0  0
 29 30  2  0  0  0  0
 30 31  1  0  0  0  0
 31 32  2  0  0  0  0
 32 33  1  0  0  0  0
  5  6  2  0  0  0  0
 32 34  1  0  0  0  0
 13 17  1  0  0  0  0
 34 35  1  0  0  0  0
  8  9  2  0  0  0  0
 34 36  2  0  0  0  0
  5 18  1  0  0  0  0
 35 37  1  0  0  0  0
  2  1  1  0  0  0  0
 33 38  1  0  0  0  0
 15 19  1  0  0  0  0
 38 39  2  0  0  0  0
  4 10  1  0  0  0  0
 38 40  1  0  0  0  0
 17 20  2  0  0  0  0
 40 41  1  0  0  0  0
  4  5  1  0  0  0  0
 27 42  1  0  0  0  0
 20 21  1  0  0  0  0
 28 43  1  0  0  0  0
 12 13  1  0  0  0  0
 43 44  1  0  0  0  0
 22 18  2  0  0  0  0
 44 45  1  0  0  0  0
  6  3  1  0  0  0  0
 45 46  2  0  0  0  0
 22 23  1  0  0  0  0
 45 47  1  0  0  0  0
  3  7  1  0  0  0  0
 47 48  1  0  0  0  0
 26 24  1  0  0  0  0
 48 49  1  0  0  0  0
 24 25  2  0  0  0  0
 49 50  1  0  0  0  0
 25 23  1  0  0  0  0
 14 51  1  0  0  0  0
  7  4  2  0  0  0  0
 51 52  1  0  0  0  0
 22 29  1  0  0  0  0
 52 53  1  0  0  0  0
  1 25  1  0  0  0  0
 53 54  2  0  0  0  0
 21 26  2  0  0  0  0
 53 55  1  0  0  0  0
 55 56  1  0  0  0  0
 11 12  1  0  0  0  0
 56 57  1  0  0  0  0
 13 14  2  0  0  0  0
 57 58  1  0  0  0  0
M  END
> <DATABASE_ID>
DB04980

> <DATABASE_NAME>
drugbank

> <SMILES>
COC(=O)C1C(=CC=C2\C3=C\C4=N\C(=C/C5=C(C)C(CCC(=O)OCCO)=C(N5)\C=C5/N=C(/C=C(\N3)C12C)C(C)=C5CCC(=O)OCCO)\C(C=C)=C4C)C(=O)OC

> <INCHI_IDENTIFIER>
InChI=1S/C44H48N4O10/c1-8-26-23(2)32-20-37-30-12-9-29(42(53)55-6)41(43(54)56-7)44(30,5)38(48-37)22-33-25(4)28(11-14-40(52)58-18-16-50)36(47-33)21-35-27(10-13-39(51)57-17-15-49)24(3)31(46-35)19-34(26)45-32/h8-9,12,19-22,41,46,48-50H,1,10-11,13-18H2,2-7H3/b34-19-,36-21-,37-20-,38-22-

> <INCHI_KEY>
PUTVMYIZBFOAFU-MTVFQPQZSA-N

> <FORMULA>
C44H48N4O10

> <MOLECULAR_WEIGHT>
792.886

> <EXACT_MASS>
792.337043762

> <JCHEM_ACCEPTOR_COUNT>
8

> <JCHEM_ATOM_COUNT>
106

> <JCHEM_AVERAGE_NEUTRAL_MICROSPECIES_CHARGE>
0.011679832847040144

> <JCHEM_AVERAGE_POLARIZABILITY>
90.30669947734692

> <JCHEM_BIOAVAILABILITY>
0

> <JCHEM_DONOR_COUNT>
4

> <JCHEM_FORMAL_CHARGE>
0

> <JCHEM_GHOSE_FILTER>
0

> <JCHEM_IUPAC>
20,21-dimethyl 5-ethenyl-10,14-bis[3-(2-hydroxyethoxy)-3-oxopropyl]-4,9,15,19-tetramethyl-25,26,27,28-tetraazahexacyclo[16.6.1.1^{3,6}.1^{8,11}.1^{13,16}.0^{19,24}]octacosa-1,3(28),4,6,8,10,12,14,16(26),17,21,23-dodecaene-20,21-dicarboxylate

> <ALOGPS_LOGP>
4.50

> <JCHEM_LOGP>
5.851500944

> <ALOGPS_LOGS>
-4.57

> <JCHEM_MDDR_LIKE_RULE>
1

> <JCHEM_NEUTRAL_CHARGE>
0

> <JCHEM_NUMBER_OF_RINGS>
6

> <JCHEM_PHYSIOLOGICAL_CHARGE>
0

> <JCHEM_PKA>
14.758982673717837

> <JCHEM_PKA_STRONGEST_ACIDIC>
11.8084076584052

> <JCHEM_PKA_STRONGEST_BASIC>
4.977963770889957

> <JCHEM_POLAR_SURFACE_AREA>
203.01999999999995

> <JCHEM_REFRACTIVITY>
216.43850000000012

> <JCHEM_ROTATABLE_BOND_COUNT>
17

> <JCHEM_RULE_OF_FIVE>
0

> <ALOGPS_SOLUBILITY>
2.14e-02 g/l

> <JCHEM_TRADITIONAL_IUPAC>
nipecotic acid

> <JCHEM_VEBER_RULE>
0

> <DRUGBANK_ID>
DB04980

> <DRUG_GROUPS>
investigational

> <GENERIC_NAME>
Lemuteporfin

> <SYNONYMS>
Lemuteporfin

$$$$
