
  Mrv1909 01152019022D          

 46 49  0  0  0  0            999 V2000
   -2.1537    0.2093    0.0000 C   0  0  0  0  0  0  0  0  0  0  0  0
   -1.4458   -0.2093    0.0000 C   0  0  1  0  0  0  0  0  0  0  0  0
   -0.7279    0.2093    0.0000 C   0  0  1  0  0  0  0  0  0  0  0  0
   -0.0100   -0.2093    0.0000 C   0  0  2  0  0  0  0  0  0  0  0  0
    0.6980    0.2093    0.0000 C   0  0  2  0  0  0  0  0  0  0  0  0
    1.4159   -0.2093    0.0000 C   0  0  0  0  0  0  0  0  0  0  0  0
    2.1239    0.2093    0.0000 N   0  0  0  0  0  0  0  0  0  0  0  0
    1.4159   -1.0270    0.0000 O   0  0  0  0  0  0  0  0  0  0  0  0
    0.6980    1.0270    0.0000 O   0  0  0  0  0  0  0  0  0  0  0  0
    1.4159    1.4458    0.0000 C   0  0  0  0  0  0  0  0  0  0  0  0
    1.4159    2.2635    0.0000 C   0  0  0  0  0  0  0  0  0  0  0  0
    1.4159    3.9187    0.0000 C   0  0  0  0  0  0  0  0  0  0  0  0
    0.6980    3.4999    0.0000 C   0  0  0  0  0  0  0  0  0  0  0  0
    0.6980    2.6823    0.0000 C   0  0  0  0  0  0  0  0  0  0  0  0
    2.1239    2.6823    0.0000 C   0  0  0  0  0  0  0  0  0  0  0  0
    2.1239    3.4999    0.0000 C   0  0  0  0  0  0  0  0  0  0  0  0
   -0.0100   -1.0270    0.0000 O   0  0  0  0  0  0  0  0  0  0  0  0
   -0.7279    1.0270    0.0000 O   0  0  0  0  0  0  0  0  0  0  0  0
   -2.1537   -1.4458    0.0000 C   0  0  0  0  0  0  0  0  0  0  0  0
   -2.1537   -2.2734    0.0000 C   0  0  0  0  0  0  0  0  0  0  0  0
   -2.8717   -2.6823    0.0000 C   0  0  0  0  0  0  0  0  0  0  0  0
   -2.8717   -3.5099    0.0000 C   0  0  0  0  0  0  0  0  0  0  0  0
   -2.1537   -3.9187    0.0000 C   0  0  0  0  0  0  0  0  0  0  0  0
   -1.4458   -3.5099    0.0000 C   0  0  0  0  0  0  0  0  0  0  0  0
   -1.4458   -2.6823    0.0000 C   0  0  0  0  0  0  0  0  0  0  0  0
   -1.4458   -1.0270    0.0000 O   0  0  0  0  0  0  0  0  0  0  0  0
   -2.1537    1.0270    0.0000 O   0  0  0  0  0  0  0  0  0  0  0  0
   -2.8717   -0.2093    0.0000 N   0  0  0  0  0  0  0  0  0  0  0  0
    2.8418   -0.2093    0.0000 C   0  0  1  0  0  0  0  0  0  0  0  0
    2.1239   -1.4458    0.0000 C   0  0  0  0  0  0  0  0  0  0  0  0
    2.8418   -1.0270    0.0000 C   0  0  0  0  0  0  0  0  0  0  0  0
    3.5598   -1.4458    0.0000 C   0  0  0  0  0  0  0  0  0  0  0  0
    3.5598    0.2093    0.0000 C   0  0  0  0  0  0  0  0  0  0  0  0
    3.5598    1.0270    0.0000 O   0  0  0  0  0  0  0  0  0  0  0  0
    4.2677   -0.2093    0.0000 N   0  0  0  0  0  0  0  0  0  0  0  0
    4.9857    0.2093    0.0000 C   0  0  0  0  0  0  0  0  0  0  0  0
   -3.5897    0.2093    0.0000 C   0  0  2  0  0  0  0  0  0  0  0  0
   -4.9159    0.2891    0.0000 C   0  0  0  0  0  0  0  0  0  0  0  0
   -4.2777   -0.2393    0.0000 C   0  0  1  0  0  0  0  0  0  0  0  0
   -4.3275   -1.0669    0.0000 O   0  0  0  0  0  0  0  0  0  0  0  0
   -4.6167    1.0569    0.0000 C   0  0  0  0  0  0  0  0  0  0  0  0
   -3.7094    2.4330    0.0000 C   0  0  0  0  0  0  0  0  0  0  0  0
   -4.5270    2.4828    0.0000 C   0  0  0  0  0  0  0  0  0  0  0  0
   -4.9857    1.7948    0.0000 C   0  0  0  0  0  0  0  0  0  0  0  0
   -3.7891    1.0071    0.0000 C   0  0  0  0  0  0  0  0  0  0  0  0
   -3.3403    1.6951    0.0000 C   0  0  0  0  0  0  0  0  0  0  0  0
  1 28  1  0  0  0  0
  1  2  1  0  0  0  0
  1 27  2  0  0  0  0
  2  3  1  0  0  0  0
  2 26  1  1  0  0  0
  3  4  1  0  0  0  0
  3 18  1  6  0  0  0
  4  5  1  0  0  0  0
  4 17  1  6  0  0  0
  5  6  1  0  0  0  0
  5  9  1  1  0  0  0
  6  7  1  0  0  0  0
  6  8  2  0  0  0  0
  7 29  1  0  0  0  0
  9 10  1  0  0  0  0
 10 11  1  0  0  0  0
 11 14  2  0  0  0  0
 11 15  1  0  0  0  0
 12 13  2  0  0  0  0
 12 16  1  0  0  0  0
 13 14  1  0  0  0  0
 15 16  2  0  0  0  0
 19 26  1  0  0  0  0
 19 20  1  0  0  0  0
 20 21  2  0  0  0  0
 20 25  1  0  0  0  0
 21 22  1  0  0  0  0
 22 23  2  0  0  0  0
 23 24  1  0  0  0  0
 24 25  2  0  0  0  0
 37 28  1  6  0  0  0
 29 33  1  0  0  0  0
 29 31  1  6  0  0  0
 30 31  1  0  0  0  0
 31 32  1  0  0  0  0
 33 35  1  0  0  0  0
 33 34  2  0  0  0  0
 35 36  1  0  0  0  0
 37 39  1  0  0  0  0
 37 45  1  0  0  0  0
 38 41  1  0  0  0  0
 38 39  1  0  0  0  0
 39 40  1  6  0  0  0
 41 44  2  0  0  0  0
 41 45  1  0  0  0  0
 42 43  2  0  0  0  0
 42 46  1  0  0  0  0
 43 44  1  0  0  0  0
 45 46  2  0  0  0  0
M  END
> <DATABASE_ID>
DB04255

> <DATABASE_NAME>
drugbank

> <SMILES>
CNC(=O)[C@@H](NC(=O)[C@H](OCC1=CC=CC=C1)[C@H](O)[C@@H](O)[C@@H](OCC1=CC=CC=C1)C(=O)N[C@@H]1[C@H](O)CC2=CC=CC=C12)C(C)C

> <INCHI_IDENTIFIER>
InChI=1S/C35H43N3O8/c1-21(2)27(33(42)36-3)37-34(43)31(45-19-22-12-6-4-7-13-22)29(40)30(41)32(46-20-23-14-8-5-9-15-23)35(44)38-28-25-17-11-10-16-24(25)18-26(28)39/h4-17,21,26-32,39-41H,18-20H2,1-3H3,(H,36,42)(H,37,43)(H,38,44)/t26-,27+,28+,29-,30-,31-,32-/m1/s1

> <INCHI_KEY>
VZNNJZGVQVNHCM-CDNLURBZSA-N

> <FORMULA>
C35H43N3O8

> <MOLECULAR_WEIGHT>
633.7312

> <EXACT_MASS>
633.305015367

> <JCHEM_ACCEPTOR_COUNT>
8

> <JCHEM_ATOM_COUNT>
89

> <JCHEM_AVERAGE_NEUTRAL_MICROSPECIES_CHARGE>
-2.805434734496348e-05

> <JCHEM_AVERAGE_POLARIZABILITY>
67.86218086742463

> <JCHEM_BIOAVAILABILITY>
0

> <JCHEM_DONOR_COUNT>
6

> <JCHEM_FORMAL_CHARGE>
0

> <JCHEM_GHOSE_FILTER>
0

> <JCHEM_IUPAC>
(2R,3R,4R,5R)-2,5-bis(benzyloxy)-3,4-dihydroxy-N-[(1S,2R)-2-hydroxy-2,3-dihydro-1H-inden-1-yl]-N'-[(1S)-2-methyl-1-(methylcarbamoyl)propyl]hexanediamide

> <ALOGPS_LOGP>
1.68

> <JCHEM_LOGP>
2.023966349

> <ALOGPS_LOGS>
-3.99

> <JCHEM_MDDR_LIKE_RULE>
1

> <JCHEM_NEUTRAL_CHARGE>
0

> <JCHEM_NUMBER_OF_RINGS>
4

> <JCHEM_PHYSIOLOGICAL_CHARGE>
0

> <JCHEM_PKA>
12.279110673951264

> <JCHEM_PKA_STRONGEST_ACIDIC>
11.747927201496386

> <JCHEM_PKA_STRONGEST_BASIC>
-3.074526946851493

> <JCHEM_POLAR_SURFACE_AREA>
166.45

> <JCHEM_REFRACTIVITY>
170.15169999999998

> <JCHEM_ROTATABLE_BOND_COUNT>
15

> <JCHEM_RULE_OF_FIVE>
0

> <ALOGPS_SOLUBILITY>
6.56e-02 g/l

> <JCHEM_TRADITIONAL_IUPAC>
[(2R,3S,4R,5R)-3,4-dihydroxy-5-(4-hydroxy-5-methyl-2-oxopyrimidin-1-yl)oxolan-2-yl]methoxyphosphonic acid

> <JCHEM_VEBER_RULE>
0

> <DRUGBANK_ID>
DB04255

> <SECONDARY_ACCESSION_NUMBERS>
EXPT00660

> <DRUG_GROUPS>
experimental

> <GENERIC_NAME>
Inhibitor BEA388

> <SYNONYMS>
[5-(2-hydroxy-indan-1-ylcarbamoyl)-3,4-dihydroxy-2,5-[dibenzyl-oxy]-pentanoyl]-valinyl-amido-methane

$$$$
