
  Mrv1909 07102021182D          

  1  0  0  0  0  0            999 V2000
    0.0000    0.0000    0.0000 Cu  0  0  0  0  0  0  0  0  0  0  0  0
M  END
> <DATABASE_ID>
DB09130

> <DATABASE_NAME>
drugbank

> <SMILES>
[Cu]

> <INCHI_IDENTIFIER>
InChI=1S/Cu

> <INCHI_KEY>
RYGMFSIKBFXOCR-UHFFFAOYSA-N

> <FORMULA>
Cu

> <MOLECULAR_WEIGHT>
63.546

> <EXACT_MASS>
62.929601079

> <JCHEM_ACCEPTOR_COUNT>
0

> <JCHEM_ATOM_COUNT>
1

> <JCHEM_AVERAGE_NEUTRAL_MICROSPECIES_CHARGE>
0.0

> <JCHEM_AVERAGE_POLARIZABILITY>
1.7784

> <JCHEM_BIOAVAILABILITY>
1

> <JCHEM_DONOR_COUNT>
0

> <JCHEM_FORMAL_CHARGE>
0

> <JCHEM_GHOSE_FILTER>
0

> <JCHEM_IUPAC>
copper

> <ALOGPS_LOGP>
-1.31

> <JCHEM_LOGP>
0.156

> <ALOGPS_LOGS>
1.08

> <JCHEM_MDDR_LIKE_RULE>
0

> <JCHEM_NEUTRAL_CHARGE>
0

> <JCHEM_NUMBER_OF_RINGS>
0

> <JCHEM_PHYSIOLOGICAL_CHARGE>
0

> <JCHEM_POLAR_SURFACE_AREA>
0.0

> <JCHEM_REFRACTIVITY>
0.0

> <JCHEM_ROTATABLE_BOND_COUNT>
0

> <JCHEM_RULE_OF_FIVE>
1

> <ALOGPS_SOLUBILITY>
0.00e+00 g/l

> <JCHEM_TRADITIONAL_IUPAC>
ethane

> <JCHEM_VEBER_RULE>
1

> <DRUGBANK_ID>
DB09130

> <DRUG_GROUPS>
approved; investigational

> <GENERIC_NAME>
Copper

> <SYNONYMS>
cobre; cuivre; cuprum; Kupfer

> <PRODUCTS>
24 Multivitamins + Minerals; 50 Plus Multiple Vitamins & Minerals; A.R.T.H. Away Formula; A/o-26 - Caplet; Actyform; Adult Formula 50+; Advanced B & T Formula; Antibacterial PVC film; B & J Formula Dietary Supplement; Body Rox; C. Vit-min Formula; Cal Mag Plus - Tab; Calcium With Mg Zn Mn Cu CR Si and Vit. C & D; Calplus; Carti-aide Tab; Cavan-EC SOD DHA; Cell-wise; Cellular Formula; Chela Copper Tab 3mg; Chela Iron Plus C,b Complex; Chela Zinc Plus; Chelamins Plus Tab; Chelapro; Chelated Copper Supplement - Tab 2mg; Chelazome Copper Cap 5mg; Chewable Calcium Plus Magnesium and Minerals; Children's Chewable Multi-vitamin Complete With Minerals; CitraNatal Assure; CitraNatal Essence; Classic Swiss One 10 Multivitamin and Mineral Tab; Coen.q10w.vit.c and E Beta-car.se Cu Zn Mn; Complete Multivitamins and Minerals Tablets Timed Release; Complete One A Day Tab; Complete One-A-day - Tab; Copper 3mg Plus Iron & Zinc Tab; Copper Chelate - 5mg Tab; Dayavite; Defense Caplets; Elite OB Prenatal Multivitamin; Envirocomplex; Escavite; Essential Vitamins and Minerals; Extra Once A Day; Fem Time Tab; Food Nutrition Inc. Men's Vitamin and Mineral Supplement; For-2; Formula A.R.-th Dietary Supplement; Formula O-care Vitamin and Mineral Supplement; Formula R Mineral Supplement; Fortifi-plus; Grand Master Formula Tab; Great Day/am Formula Tab; Guardyn Tab; Hemarexin Tab; Hsn Formula; Hypo Vites Tab; Icaps; Icaps Time Release; Innersource Tab; Iron 25mg With Vit B-cmplx, Vit C, Cu & Mo; Isotonix Multitech Vitamin Mineral Supplemen; Itabs Plus; K.L. Vitamin-mineral; Kamu Jay Multi Complex Tab; Kanga-V Multivitamins & Minerals; L.G.I.T.; Liquid Opti-minplex +d; Longevit-E - Capsule; M-Natal Plus; Macuvex; Macuzin; Maintain Multiple Vitamin & Minerals; Maximum Once A Day; Maxine Vitamin and Mineral Supplement; Mega Balance; Mega Multiple Minerals; Mega-vim 75 With Beta-carotene - Tablets; Men's; Men's 50+; Men's Biomultiple Vitamin and Mineral Supplement; Milltrium Senior Vitamin and Mineral Supplement; Mineral Support; Mte 4 Inj; Multi #2; Multi Cal Mag Liquid; Multi II IV Vi Tab; Multi Mega Minerals With Vitamin D; Multi Spectrum - Tablet; Multi Vitamin & Minerals; Multi Vitamin - Mineral; Multi-mins Minerals; Multi-phyto Capsules; Multimineral Chelates; Multimineral Tablets; Multiminerals; Multiple Minerals; Multiple Vitamin Plus Minerals Tab; Multiple Vitamins W Minerals Tab; Multiple Vitamins and Minerals Tab; Multivitamins and Minerals With Betacarotene Tablets; Multivitamins and Minerals for Women; Nata Komplete; Natural Source Spectrum With Beta Carotene; Neonatal Plus Vitamin; NicAzel; Nicazyme; Nicotinamide; Nitro Vites - Tab; Nutra Boost; Nutra-clear; Nutrifer Plus Tablets; Nutrilite Double X; O-Cal FA multivitamin; O-Cal Prenatal Vitamin; Ocuvel; Olympian Multi Vit Plus Minerals Tab; Omega-3 Rx Complete; One A Day Multiple Vit W Minerals; One A Day Tab; One Daily Vitamin and Mineral Dietary Supplement; One Per Day Vitamin and Mineral Dietary Supplement; Only One - Tablet; Osteo Formula; Osteoshield; P.R.O. Complex; ParaGard T 380A; ParaGard T380A; PreNatal Vitamins Plus; Premium Prenatal; Premium Prenatal - Tablets; Prena1 Plus; Prenara; Prenatal Formula Tab; Prenatal Vi-min; Prenatal Vitamin and Mineral Supplement; Prenatal Vitamins Plus; Prenatal Vitamins Plus Low Iron; Pro Hers Vanilla; Pro Pcos Citrus; Proscare; Protect Plus SO 60; Q.T. Vitamin and Mineral Drink Mix; Quflora FE; Reaphirm Plant Source DHA; Revit Multi-vitamins and Minerals; Revitalize Multi-vitamin and Mineral Complex; Revival 1 Tab; Right Choice P.M. Multi Formula - Caplet; Senior Multi One; Silexin; Somavit Brand Vitamins and Minerals Complex; Spark Cap; Strovite Forte Caplet; Super Cal Mag Plus; Super Vita Vim Multivitamins and Minerals; Super Vita-vim With Beta-carotene - Tab; Swical-energy 3e Age; Swiss One; Swiss One Multi Vit & Chel Min Tab; Swiss One Multivitamin and Mineral Caplet; Swiss Total One; TL-Fluorivite; Timed Release Vita-vim Srt; Total Living Concepts Formula One - Tab; Tozal; Trace Minerals Et/and B12 Tab; Twin G.F. Powder; Twin G.F. Powder Vanilla Flavor; Twin Opti Pwr; Usana Multimineral Tablets; Usana Multimineral Tablets - Tab; V-V Dietary Supplement; Vc II; Vege 1 Daily Tab; Vege Swiss One Multivitamin W Chel Mins Tab; Vita Plex Tab; Vita Vim Multivitamins and Minerals Tab; Vita-vim - Tab; Vitafol Fe Plus; Vitafol OB Caplet; Vitafol One; Vitafol Plus; Vitafol-OB Plus DHA Prenatal Supplement Plus DHA; Vitality Brand Calcium Plus Tab; Vitamin & Mineral Formula 1 Dietary Supplement; Vitaplex; Vyo Cylate - Pwr; Women's Biomultiple Vitamin and Mineral Supplement; Zinc Amino Acid Chelate Tab; Zinc Chelate 20mg With Copper Chelate; healthy mamaBE WELL ROUNDED BE WELL ROUNDED; vitaMedMD Rx Plus

$$$$
