
  Mrv1909 02102000292D          

 15 16  0  0  0  0            999 V2000
   -1.4289   -0.2062    0.0000 C   0  0  0  0  0  0  0  0  0  0  0  0
   -2.1433    0.2062    0.0000 C   0  0  0  0  0  0  0  0  0  0  0  0
    0.0000   -0.2062    0.0000 C   0  0  0  0  0  0  0  0  0  0  0  0
    0.7144    0.2062    0.0000 C   0  0  0  0  0  0  0  0  0  0  0  0
    0.7144    1.0312    0.0000 C   0  0  0  0  0  0  0  0  0  0  0  0
    0.0000    1.4437    0.0000 C   0  0  0  0  0  0  0  0  0  0  0  0
   -0.7144    1.0312    0.0000 C   0  0  0  0  0  0  0  0  0  0  0  0
   -1.4289    1.4437    0.0000 C   0  0  0  0  0  0  0  0  0  0  0  0
   -2.1433    1.0312    0.0000 C   0  0  0  0  0  0  0  0  0  0  0  0
   -0.7144    0.2062    0.0000 C   0  0  0  0  0  0  0  0  0  0  0  0
    0.0000   -1.0312    0.0000 O   0  0  0  0  0  0  0  0  0  0  0  0
    0.7144   -1.4437    0.0000 C   0  0  0  0  0  0  0  0  0  0  0  0
    1.4289   -0.2062    0.0000 O   0  0  0  0  0  0  0  0  0  0  0  0
    1.4289   -1.0312    0.0000 C   0  0  0  0  0  0  0  0  0  0  0  0
    2.1433   -1.4437    0.0000 O   0  0  0  0  0  0  0  0  0  0  0  0
  2  1  1  0  0  0  0
 11  3  1  0  0  0  0
  3  4  2  0  0  0  0
  4  5  1  0  0  0  0
  5  6  2  0  0  0  0
  6  7  1  0  0  0  0
  7  8  2  0  0  0  0
  9  2  2  0  0  0  0
  8  9  1  0  0  0  0
  1 10  2  0  0  0  0
  7 10  1  0  0  0  0
  3 10  1  0  0  0  0
 12 11  1  0  0  0  0
 12 14  1  0  0  0  0
 14 13  2  0  0  0  0
 14 15  1  0  0  0  0
M  END
> <DATABASE_ID>
DB08286

> <DATABASE_NAME>
drugbank

> <SMILES>
OC(=O)COC1=CC=CC2=CC=CC=C12

> <INCHI_IDENTIFIER>
InChI=1S/C12H10O3/c13-12(14)8-15-11-7-3-5-9-4-1-2-6-10(9)11/h1-7H,8H2,(H,13,14)

> <INCHI_KEY>
GHRYSOFWKRRLMI-UHFFFAOYSA-N

> <FORMULA>
C12H10O3

> <MOLECULAR_WEIGHT>
202.206

> <EXACT_MASS>
202.062994186

> <JCHEM_ACCEPTOR_COUNT>
3

> <JCHEM_ATOM_COUNT>
25

> <JCHEM_AVERAGE_NEUTRAL_MICROSPECIES_CHARGE>
-0.9988827645672146

> <JCHEM_AVERAGE_POLARIZABILITY>
20.59078498245165

> <JCHEM_BIOAVAILABILITY>
1

> <JCHEM_DONOR_COUNT>
1

> <JCHEM_FORMAL_CHARGE>
0

> <JCHEM_GHOSE_FILTER>
1

> <JCHEM_IUPAC>
2-(naphthalen-1-yloxy)acetic acid

> <ALOGPS_LOGP>
2.65

> <JCHEM_LOGP>
2.2830346153333334

> <ALOGPS_LOGS>
-2.93

> <JCHEM_MDDR_LIKE_RULE>
0

> <JCHEM_NEUTRAL_CHARGE>
-1

> <JCHEM_NUMBER_OF_RINGS>
2

> <JCHEM_PHYSIOLOGICAL_CHARGE>
-1

> <JCHEM_PKA_STRONGEST_ACIDIC>
4.048630187880515

> <JCHEM_PKA_STRONGEST_BASIC>
-4.912887795541569

> <JCHEM_POLAR_SURFACE_AREA>
46.53

> <JCHEM_REFRACTIVITY>
55.05600000000001

> <JCHEM_ROTATABLE_BOND_COUNT>
3

> <JCHEM_RULE_OF_FIVE>
1

> <ALOGPS_SOLUBILITY>
2.37e-01 g/l

> <JCHEM_TRADITIONAL_IUPAC>
4-[(1E)-2-(3,5-diamino-1H-pyrazol-4-yl)diazen-1-yl]phenol

> <JCHEM_VEBER_RULE>
0

> <DRUGBANK_ID>
DB08286

> <DRUG_GROUPS>
experimental

> <GENERIC_NAME>
1-Naphthoxyacetic acid

> <SYNONYMS>
(1-naphthalenyloxy)acetic acid; (1-naphthyloxy)acetic acid; 1-naphthyloxyacetic acid

$$$$
