
  Mrv1909 05122016082D          

 39 44  0  0  0  0            999 V2000
   -1.7021   -8.5808    0.0000 C   0  0  0  0  0  0  0  0  0  0  0  0
   -2.1146   -7.8664    0.0000 O   0  0  0  0  0  0  0  0  0  0  0  0
   -1.7021   -7.1519    0.0000 C   0  0  0  0  0  0  0  0  0  0  0  0
   -2.1146   -6.4374    0.0000 N   0  0  0  0  0  0  0  0  0  0  0  0
   -1.7021   -5.7229    0.0000 C   0  0  0  0  0  0  0  0  0  0  0  0
   -0.8771   -5.7229    0.0000 C   0  0  0  0  0  0  0  0  0  0  0  0
   -0.4646   -5.0085    0.0000 C   0  0  0  0  0  0  0  0  0  0  0  0
    0.3604   -5.0085    0.0000 N   0  0  0  0  0  0  0  0  0  0  0  0
    0.7729   -4.2940    0.0000 C   0  0  0  0  0  0  0  0  0  0  0  0
    0.9516   -5.0085    0.0000 C   0  0  0  0  0  0  0  0  0  0  0  0
    0.7729   -5.7229    0.0000 C   0  0  0  0  0  0  0  0  0  0  0  0
    1.5979   -5.7229    0.0000 C   0  0  0  0  0  0  0  0  0  0  0  0
    2.0104   -5.0085    0.0000 N   0  0  0  0  0  0  0  0  0  0  0  0
    1.5979   -4.2940    0.0000 C   0  0  0  0  0  0  0  0  0  0  0  0
    2.8354   -5.0085    0.0000 C   0  0  0  0  0  0  0  0  0  0  0  0
    3.2479   -4.2940    0.0000 C   0  0  0  0  0  0  0  0  0  0  0  0
    4.0729   -4.2940    0.0000 C   0  0  0  0  0  0  0  0  0  0  0  0
    4.4854   -5.0085    0.0000 C   0  0  0  0  0  0  0  0  0  0  0  0
    4.0729   -5.7229    0.0000 C   0  0  0  0  0  0  0  0  0  0  0  0
    3.2479   -5.7229    0.0000 N   0  0  0  0  0  0  0  0  0  0  0  0
    5.3104   -5.0085    0.0000 C   0  0  0  0  0  0  0  0  0  0  0  0
    5.7229   -4.2940    0.0000 C   0  0  0  0  0  0  0  0  0  0  0  0
    6.5479   -4.2940    0.0000 C   0  0  0  0  0  0  0  0  0  0  0  0
    6.9604   -3.5795    0.0000 O   0  0  0  0  0  0  0  0  0  0  0  0
    7.7854   -3.5795    0.0000 C   0  0  0  0  0  0  0  0  0  0  0  0
    8.1979   -2.8651    0.0000 C   0  0  0  0  0  0  0  0  0  0  0  0
    8.6104   -2.1506    0.0000 C   0  0  0  0  0  0  0  0  0  0  0  0
    8.9124   -3.2776    0.0000 C   0  0  0  0  0  0  0  0  0  0  0  0
    7.4835   -2.4526    0.0000 O   0  0  0  0  0  0  0  0  0  0  0  0
    6.9604   -5.0085    0.0000 C   0  0  0  0  0  0  0  0  0  0  0  0
    6.5479   -5.7229    0.0000 N   0  0  0  0  0  0  0  0  0  0  0  0
    6.8029   -6.5076    0.0000 N   0  0  0  0  0  0  0  0  0  0  0  0
    6.1354   -6.9925    0.0000 C   0  0  0  0  0  0  0  0  0  0  0  0
    5.4680   -6.5076    0.0000 C   0  0  0  0  0  0  0  0  0  0  0  0
    4.6834   -6.7625    0.0000 C   0  0  0  0  0  0  0  0  0  0  0  0
    3.8988   -7.0174    0.0000 N   0  0  0  0  0  0  0  0  0  0  0  0
    5.7229   -5.7229    0.0000 C   0  0  0  0  0  0  0  0  0  0  0  0
   -0.4646   -6.4374    0.0000 C   0  0  0  0  0  0  0  0  0  0  0  0
   -0.8771   -7.1519    0.0000 C   0  0  0  0  0  0  0  0  0  0  0  0
  1  2  1  0  0  0  0
  2  3  1  0  0  0  0
  3  4  2  0  0  0  0
  4  5  1  0  0  0  0
  5  6  2  0  0  0  0
  6  7  1  0  0  0  0
  7  8  1  0  0  0  0
  8  9  1  0  0  0  0
  9 10  1  0  0  0  0
 10 11  1  0  0  0  0
  8 11  1  0  0  0  0
 11 12  1  0  0  0  0
 12 13  1  0  0  0  0
 13 14  1  0  0  0  0
  9 14  1  0  0  0  0
 13 15  1  0  0  0  0
 15 16  2  0  0  0  0
 16 17  1  0  0  0  0
 17 18  2  0  0  0  0
 18 19  1  0  0  0  0
 19 20  2  0  0  0  0
 15 20  1  0  0  0  0
 18 21  1  0  0  0  0
 21 22  2  0  0  0  0
 22 23  1  0  0  0  0
 23 24  1  0  0  0  0
 24 25  1  0  0  0  0
 25 26  1  0  0  0  0
 26 27  1  0  0  0  0
 26 28  1  0  0  0  0
 26 29  1  0  0  0  0
 23 30  2  0  0  0  0
 30 31  1  0  0  0  0
 31 32  1  0  0  0  0
 32 33  2  0  0  0  0
 33 34  1  0  0  0  0
 34 35  1  0  0  0  0
 35 36  3  0  0  0  0
 34 37  2  0  0  0  0
 21 37  1  0  0  0  0
 31 37  1  0  0  0  0
  6 38  1  0  0  0  0
 38 39  2  0  0  0  0
  3 39  1  0  0  0  0
M  END
> <DATABASE_ID>
DB15685

> <DATABASE_NAME>
drugbank

> <SMILES>
COC1=NC=C(CN2C3CC2CN(C3)C2=CC=C(C=N2)C2=CC(OCC(C)(C)O)=CN3N=CC(C#N)=C23)C=C1

> <INCHI_IDENTIFIER>
InChI=1S/C29H31N7O3/c1-29(2,37)18-39-24-9-25(28-21(10-30)13-33-36(28)17-24)20-5-6-26(31-12-20)34-15-22-8-23(16-34)35(22)14-19-4-7-27(38-3)32-11-19/h4-7,9,11-13,17,22-23,37H,8,14-16,18H2,1-3H3

> <INCHI_KEY>
XIIOFHFUYBLOLW-UHFFFAOYSA-N

> <FORMULA>
C29H31N7O3

> <MOLECULAR_WEIGHT>
525.613

> <EXACT_MASS>
525.248837886

> <JCHEM_ACCEPTOR_COUNT>
9

> <JCHEM_ATOM_COUNT>
70

> <JCHEM_AVERAGE_NEUTRAL_MICROSPECIES_CHARGE>
3.659576954659047

> <JCHEM_AVERAGE_POLARIZABILITY>
57.29953841768179

> <JCHEM_BIOAVAILABILITY>
1

> <JCHEM_DONOR_COUNT>
1

> <JCHEM_FORMAL_CHARGE>
0

> <JCHEM_GHOSE_FILTER>
0

> <JCHEM_IUPAC>
6-(2-hydroxy-2-methylpropoxy)-4-(6-{6-[(6-methoxypyridin-3-yl)methyl]-3,6-diazabicyclo[3.1.1]heptan-3-yl}pyridin-3-yl)pyrazolo[1,5-a]pyridine-3-carbonitrile

> <ALOGPS_LOGP>
3.03

> <JCHEM_LOGP>
3.1393873896666653

> <ALOGPS_LOGS>
-4.25

> <JCHEM_MDDR_LIKE_RULE>
1

> <JCHEM_NEUTRAL_CHARGE>
0

> <JCHEM_NUMBER_OF_RINGS>
6

> <JCHEM_PHYSIOLOGICAL_CHARGE>
0

> <JCHEM_PKA_STRONGEST_ACIDIC>
14.593168136278184

> <JCHEM_PKA_STRONGEST_BASIC>
6.28170613655197

> <JCHEM_POLAR_SURFACE_AREA>
112.03999999999999

> <JCHEM_REFRACTIVITY>
158.75269999999998

> <JCHEM_ROTATABLE_BOND_COUNT>
8

> <JCHEM_RULE_OF_FIVE>
0

> <ALOGPS_SOLUBILITY>
2.99e-02 g/l

> <JCHEM_TRADITIONAL_IUPAC>
6-(2-hydroxy-2-methylpropoxy)-4-(6-{6-[(6-methoxypyridin-3-yl)methyl]-3,6-diazabicyclo[3.1.1]heptan-3-yl}pyridin-3-yl)pyrazolo[1,5-a]pyridine-3-carbonitrile

> <JCHEM_VEBER_RULE>
0

> <DRUGBANK_ID>
DB15685

> <DRUG_GROUPS>
approved; investigational

> <GENERIC_NAME>
Selpercatinib

> <SYNONYMS>
6-(2-hydroxy-2-methylpropoxy)-4-(6-(6-((6-methoxypyridin-3-yl)methyl)-3,6-diazabicyclo[3.1.1]heptan-3-yl)pyridin-3-yl)pyrazolo[1,5-a]pyridine-3-carbonitrile; Selpercatinib

> <PRODUCTS>
Retevmo; Retsevmo

> <INTERNATIONAL_BRANDS>
Retevmo

$$$$
