
  Mrv1652309121709222D          

 10 10  0  0  1  0            999 V2000
    0.0157    1.7274    0.0000 C   0  0  0  0  0  0  0  0  0  0  0  0
    0.5678    1.1143    0.0000 N   0  3  0  0  0  0  0  0  0  0  0  0
    1.2352    0.6294    0.0000 C   0  0  0  0  0  0  0  0  0  0  0  0
    0.9803   -0.1553    0.0000 C   0  0  0  0  0  0  0  0  0  0  0  0
    0.1553   -0.1553    0.0000 C   0  0  0  0  0  0  0  0  0  0  0  0
   -0.0997    0.6294    0.0000 C   0  0  1  0  0  0  0  0  0  0  0  0
   -0.8843    0.8843    0.0000 C   0  0  0  0  0  0  0  0  0  0  0  0
   -1.4974    0.3323    0.0000 O   0  0  0  0  0  0  0  0  0  0  0  0
   -1.0558    1.6913    0.0000 O   0  5  0  0  0  0  0  0  0  0  0  0
    1.1198    1.7274    0.0000 C   0  0  0  0  0  0  0  0  0  0  0  0
  1  2  1  0  0  0  0
  2  3  1  0  0  0  0
  3  4  1  0  0  0  0
  4  5  1  0  0  0  0
  5  6  1  0  0  0  0
  2  6  1  0  0  0  0
  6  7  1  1  0  0  0
  7  8  2  0  0  0  0
  7  9  1  0  0  0  0
  2 10  1  0  0  0  0
M  CHG  2   2   1   9  -1
M  END
> <DATABASE_ID>
DB04284

> <DATABASE_NAME>
drugbank

> <SMILES>
C[N+]1(C)CCC[C@H]1C([O-])=O

> <INCHI_IDENTIFIER>
InChI=1S/C7H13NO2/c1-8(2)5-3-4-6(8)7(9)10/h6H,3-5H2,1-2H3/t6-/m0/s1

> <INCHI_KEY>
CMUNUTVVOOHQPW-LURJTMIESA-N

> <FORMULA>
C7H13NO2

> <MOLECULAR_WEIGHT>
143.1836

> <EXACT_MASS>
143.094628665

> <JCHEM_ACCEPTOR_COUNT>
2

> <JCHEM_ATOM_COUNT>
23

> <JCHEM_AVERAGE_POLARIZABILITY>
15.05016181177956

> <JCHEM_BIOAVAILABILITY>
1

> <JCHEM_DONOR_COUNT>
0

> <JCHEM_FORMAL_CHARGE>
0

> <JCHEM_GHOSE_FILTER>
0

> <JCHEM_IUPAC>
(2S)-1,1-dimethylpyrrolidin-1-ium-2-carboxylate

> <ALOGPS_LOGP>
-2.24

> <JCHEM_LOGP>
-3.8764300881384117

> <ALOGPS_LOGS>
-2.47

> <JCHEM_MDDR_LIKE_RULE>
0

> <JCHEM_NUMBER_OF_RINGS>
1

> <JCHEM_PHYSIOLOGICAL_CHARGE>
0

> <JCHEM_PKA_STRONGEST_ACIDIC>
2.258526077274334

> <JCHEM_POLAR_SURFACE_AREA>
40.129999999999995

> <JCHEM_REFRACTIVITY>
60.10970000000001

> <JCHEM_ROTATABLE_BOND_COUNT>
1

> <JCHEM_RULE_OF_FIVE>
1

> <ALOGPS_SOLUBILITY>
6.66e-01 g/l

> <JCHEM_TRADITIONAL_IUPAC>
stachydrine

> <JCHEM_VEBER_RULE>
0

> <DRUGBANK_ID>
DB04284

> <SECONDARY_ACCESSION_NUMBERS>
EXPT02506

> <DRUG_GROUPS>
experimental

> <GENERIC_NAME>
L-proline betaine

> <SYNONYMS>
(S)-2-carboxylato-1,1-dimethylpyrrolidinium; L-stachydrine; Methyl hygrate betaine; Methyl hygrate Î²ine; N,N-dimethyl-L-proline; Proline betaine; Stachydrine

$$$$
