
  Mrv1652306131722012D          

 25 28  0  0  1  0            999 V2000
   -0.5017   -0.7026    0.0000 C   0  0  0  0  0  0  0  0  0  0  0  0
    0.1064   -0.1450    0.0000 C   0  0  0  0  0  0  0  0  0  0  0  0
   -0.0724    0.6604    0.0000 C   0  0  0  0  0  0  0  0  0  0  0  0
    0.5357    1.2179    0.0000 C   0  0  0  0  0  0  0  0  0  0  0  0
    0.3569    2.0233    0.0000 O   0  0  0  0  0  0  0  0  0  0  0  0
    1.3226    0.9700    0.0000 C   0  0  0  0  0  0  0  0  0  0  0  0
    1.5014    0.1646    0.0000 C   0  0  0  0  0  0  0  0  0  0  0  0
    0.8933   -0.3929    0.0000 C   0  0  0  0  0  0  0  0  0  0  0  0
    1.0720   -1.1983    0.0000 O   0  0  0  0  0  0  0  0  0  0  0  0
    2.3226    0.0858    0.0000 N   0  0  0  0  0  0  0  0  0  0  0  0
    2.9406   -0.4607    0.0000 C   0  0  0  0  0  0  0  0  0  0  0  0
    3.6513   -0.0418    0.0000 C   0  0  1  0  0  0  0  0  0  0  0  0
    3.4726    0.7636    0.0000 C   0  0  1  0  0  0  0  0  0  0  0  0
    2.6513    0.8424    0.0000 C   0  0  2  0  0  0  0  0  0  0  0  0
    2.0333    1.3889    0.0000 C   0  0  2  0  0  0  0  0  0  0  0  0
    2.1122    2.2102    0.0000 C   0  0  0  0  0  0  0  0  0  0  0  0
    1.4404    2.6891    0.0000 O   0  0  0  0  0  0  0  0  0  0  0  0
    1.5192    3.5103    0.0000 C   0  0  0  0  0  0  0  0  0  0  0  0
    0.8475    3.9892    0.0000 O   0  0  0  0  0  0  0  0  0  0  0  0
    2.2699    3.8526    0.0000 N   0  0  0  0  0  0  0  0  0  0  0  0
    2.9801    1.5991    0.0000 O   0  0  0  0  0  0  0  0  0  0  0  0
    3.7998    1.6927    0.0000 C   0  0  0  0  0  0  0  0  0  0  0  0
    4.2594    0.5157    0.0000 N   0  0  0  0  0  0  0  0  0  0  0  0
    5.0648    0.6945    0.0000 C   0  0  0  0  0  0  0  0  0  0  0  0
   -0.8593    0.9082    0.0000 N   0  0  0  0  0  0  0  0  0  0  0  0
  1  2  1  0  0  0  0
  2  3  2  0  0  0  0
  3  4  1  0  0  0  0
  4  5  2  0  0  0  0
  4  6  1  0  0  0  0
  6  7  2  0  0  0  0
  7  8  1  0  0  0  0
  2  8  1  0  0  0  0
  8  9  2  0  0  0  0
  7 10  1  0  0  0  0
 10 11  1  0  0  0  0
 12 11  1  1  0  0  0
 12 13  1  0  0  0  0
 13 14  1  0  0  0  0
 10 14  1  0  0  0  0
 14 15  1  0  0  0  0
  6 15  1  0  0  0  0
 15 16  1  1  0  0  0
 16 17  1  0  0  0  0
 17 18  1  0  0  0  0
 18 19  2  0  0  0  0
 18 20  1  0  0  0  0
 14 21  1  6  0  0  0
 21 22  1  0  0  0  0
 13 23  1  1  0  0  0
 12 23  1  0  0  0  0
 23 24  1  0  0  0  0
  3 25  1  0  0  0  0
M  END
> <DATABASE_ID>
DB06478

> <DATABASE_NAME>
drugbank

> <SMILES>
CO[C@]12[C@@H]3[C@H](CN1C1=C([C@H]2COC(N)=O)C(=O)C(N)=C(C)C1=O)N3C

> <INCHI_IDENTIFIER>
InChI=1S/C16H20N4O5/c1-6-10(17)13(22)9-7(5-25-15(18)23)16(24-3)14-8(19(14)2)4-20(16)11(9)12(6)21/h7-8,14H,4-5,17H2,1-3H3,(H2,18,23)/t7-,8+,14+,16-,19?/m1/s1

> <INCHI_KEY>
HRHKSTOGXBBQCB-VFWICMBZSA-N

> <FORMULA>
C16H20N4O5

> <MOLECULAR_WEIGHT>
348.359

> <EXACT_MASS>
348.14336976

> <JCHEM_ACCEPTOR_COUNT>
7

> <JCHEM_ATOM_COUNT>
45

> <JCHEM_AVERAGE_POLARIZABILITY>
34.81484642798672

> <JCHEM_BIOAVAILABILITY>
1

> <JCHEM_DONOR_COUNT>
2

> <JCHEM_FORMAL_CHARGE>
0

> <JCHEM_GHOSE_FILTER>
0

> <JCHEM_IUPAC>
[(4S,6S,7R,8S)-11-amino-7-methoxy-5,12-dimethyl-10,13-dioxo-2,5-diazatetracyclo[7.4.0.0^{2,7}.0^{4,6}]trideca-1(9),11-dien-8-yl]methyl carbamate

> <ALOGPS_LOGP>
0.00

> <JCHEM_LOGP>
-2.4941277165373945

> <ALOGPS_LOGS>
-1.17

> <JCHEM_MDDR_LIKE_RULE>
0

> <JCHEM_NUMBER_OF_RINGS>
4

> <JCHEM_PHYSIOLOGICAL_CHARGE>
-1

> <JCHEM_PKA>
15.72613528860537

> <JCHEM_PKA_STRONGEST_ACIDIC>
0.9011667910022805

> <JCHEM_PKA_STRONGEST_BASIC>
4.1508797741259915

> <JCHEM_POLAR_SURFACE_AREA>
127.96000000000001

> <JCHEM_REFRACTIVITY>
88.5636

> <JCHEM_ROTATABLE_BOND_COUNT>
4

> <JCHEM_RULE_OF_FIVE>
1

> <ALOGPS_SOLUBILITY>
2.33e+01 g/l

> <JCHEM_TRADITIONAL_IUPAC>
[(4S,6S,7R,8S)-11-amino-7-methoxy-5,12-dimethyl-10,13-dioxo-2,5-diazatetracyclo[7.4.0.0^{2,7}.0^{4,6}]trideca-1(9),11-dien-8-yl]methyl carbamate

> <JCHEM_VEBER_RULE>
0

> <DRUGBANK_ID>
DB06478

> <DRUG_GROUPS>
investigational

> <GENERIC_NAME>
Porfiromycin

> <SYNONYMS>
Porfiromycin

$$$$
