
  Mrv1652306231722462D          

 13 13  0  0  0  0            999 V2000
   -1.4408    1.5830    0.0000 C   0  0  0  0  0  0  0  0  0  0  0  0
   -0.6283    1.7262    0.0000 C   0  0  0  0  0  0  0  0  0  0  0  0
    0.1842    1.8695    0.0000 C   0  0  0  0  0  0  0  0  0  0  0  0
    0.7145    1.2375    0.0000 C   0  0  0  0  0  0  0  0  0  0  0  0
    1.4289    0.8250    0.0000 C   0  0  0  0  0  0  0  0  0  0  0  0
    1.4289   -0.0000    0.0000 C   0  0  0  0  0  0  0  0  0  0  0  0
    0.7145   -0.4125    0.0000 C   0  0  0  0  0  0  0  0  0  0  0  0
    0.0000    0.0000    0.0000 C   0  0  0  0  0  0  0  0  0  0  0  0
    0.0000    0.8250    0.0000 C   0  0  0  0  0  0  0  0  0  0  0  0
    1.2448    1.8695    0.0000 O   0  0  0  0  0  0  0  0  0  0  0  0
    0.9626    2.6447    0.0000 C   0  0  0  0  0  0  0  0  0  0  0  0
    1.4929    3.2767    0.0000 O   0  0  0  0  0  0  0  0  0  0  0  0
    0.1501    2.7880    0.0000 N   0  0  0  0  0  0  0  0  0  0  0  0
  1  2  3  0  0  0  0
  2  3  1  0  0  0  0
  3  4  1  0  0  0  0
  4  5  1  0  0  0  0
  5  6  1  0  0  0  0
  6  7  1  0  0  0  0
  7  8  1  0  0  0  0
  8  9  1  0  0  0  0
  4  9  1  0  0  0  0
  4 10  1  0  0  0  0
 10 11  1  0  0  0  0
 11 12  2  0  0  0  0
 11 13  1  0  0  0  0
M  END
> <DATABASE_ID>
DB13662

> <DATABASE_NAME>
drugbank

> <SMILES>
NC(=O)OC1(CC#C)CCCCC1

> <INCHI_IDENTIFIER>
InChI=1S/C10H15NO2/c1-2-6-10(13-9(11)12)7-4-3-5-8-10/h1H,3-8H2,(H2,11,12)

> <INCHI_KEY>
MIRHIEAGDGUXKL-UHFFFAOYSA-N

> <FORMULA>
C10H15NO2

> <MOLECULAR_WEIGHT>
181.235

> <EXACT_MASS>
181.110278727

> <JCHEM_ACCEPTOR_COUNT>
1

> <JCHEM_ATOM_COUNT>
28

> <JCHEM_AVERAGE_POLARIZABILITY>
19.638085908983882

> <JCHEM_BIOAVAILABILITY>
1

> <JCHEM_DONOR_COUNT>
1

> <JCHEM_FORMAL_CHARGE>
0

> <JCHEM_GHOSE_FILTER>
1

> <JCHEM_IUPAC>
1-(prop-2-yn-1-yl)cyclohexyl carbamate

> <ALOGPS_LOGP>
1.50

> <JCHEM_LOGP>
1.8287863043333332

> <ALOGPS_LOGS>
-3.48

> <JCHEM_MDDR_LIKE_RULE>
0

> <JCHEM_NUMBER_OF_RINGS>
1

> <JCHEM_PHYSIOLOGICAL_CHARGE>
0

> <JCHEM_PKA_STRONGEST_ACIDIC>
15.569642102043744

> <JCHEM_POLAR_SURFACE_AREA>
52.32

> <JCHEM_REFRACTIVITY>
49.3285

> <JCHEM_ROTATABLE_BOND_COUNT>
3

> <JCHEM_RULE_OF_FIVE>
1

> <ALOGPS_SOLUBILITY>
5.94e-02 g/l

> <JCHEM_TRADITIONAL_IUPAC>
hexapropymate

> <JCHEM_VEBER_RULE>
0

> <DRUGBANK_ID>
DB13662

> <DRUG_GROUPS>
experimental

> <GENERIC_NAME>
Hexapropymate

> <SYNONYMS>
Hexapropymate

$$$$
