
  Mrv1718007041818542D          

  1  0  0  0  0  0            999 V2000
    0.0000    0.0000    0.0000 Tc  0  0  0  0  0  0  0  0  0  0  0  0
M  ISO  1   1  99
M  END
> <DATABASE_ID>
DB14227

> <DATABASE_NAME>
drugbank

> <SMILES>
[99Tc]

> <INCHI_IDENTIFIER>
InChI=1S/Tc/i1+2

> <INCHI_KEY>
GKLVYJBZJHMRIY-NJFSPNSNSA-N

> <FORMULA>
Tc

> <MOLECULAR_WEIGHT>
98.9063

> <EXACT_MASS>
98.906254554

> <JCHEM_ACCEPTOR_COUNT>
0

> <JCHEM_ATOM_COUNT>
1

> <JCHEM_AVERAGE_POLARIZABILITY>
1.7784

> <JCHEM_BIOAVAILABILITY>
1

> <JCHEM_DONOR_COUNT>
0

> <JCHEM_FORMAL_CHARGE>
0

> <JCHEM_GHOSE_FILTER>
0

> <JCHEM_IUPAC>
(99Tc)technetium

> <ALOGPS_LOGP>
-1.31

> <JCHEM_LOGP>
0.0

> <ALOGPS_LOGS>
1.08

> <JCHEM_MDDR_LIKE_RULE>
0

> <JCHEM_NUMBER_OF_RINGS>
0

> <JCHEM_PHYSIOLOGICAL_CHARGE>
0

> <JCHEM_POLAR_SURFACE_AREA>
0.0

> <JCHEM_REFRACTIVITY>
0.0

> <JCHEM_ROTATABLE_BOND_COUNT>
0

> <JCHEM_RULE_OF_FIVE>
1

> <ALOGPS_SOLUBILITY>
0.00e+00 g/l

> <JCHEM_TRADITIONAL_IUPAC>
(99Tc)technetium

> <JCHEM_VEBER_RULE>
1

> <DRUGBANK_ID>
DB14227

> <DRUG_GROUPS>
experimental

> <GENERIC_NAME>
Technetium Tc-99m

> <SYNONYMS>
99Tc; Tc 99; Technetium (99mTc); Technetium (Tc 99m); Technetium 99m; Technetium Tc 99m; Technetium-99; Technetium-99m; Technetium-99mTc; Technetium, isotope of mass 99; Technetium, Tc-99m; Technetium,Tc-99m

$$$$
