
  Mrv1718002231815122D          

 70 60  0  0  0  0            999 V2000
   -4.5633    2.0268    0.0000 C   0  0  0  0  0  0  0  0  0  0  0  0
   -4.8652    0.8998    0.0000 C   0  0  0  0  0  0  0  0  0  0  0  0
   -4.5633    2.8518    0.0000 C   0  0  0  0  0  0  0  0  0  0  0  0
   -4.0402    0.8998    0.0000 C   0  0  0  0  0  0  0  0  0  0  0  0
   -5.9922    1.2018    0.0000 C   0  0  0  0  0  0  0  0  0  0  0  0
   -5.2777    1.6143    0.0000 C   0  0  0  0  0  0  0  0  0  0  0  0
   -3.8488    3.2643    0.0000 O   0  0  0  0  0  0  0  0  0  0  0  0
   -5.2777    3.2643    0.0000 O   0  5  0  0  0  0  0  0  0  0  0  0
   -3.6277    0.1854    0.0000 O   0  0  0  0  0  0  0  0  0  0  0  0
   -3.6277    1.6143    0.0000 O   0  5  0  0  0  0  0  0  0  0  0  0
   -5.9922    0.3768    0.0000 O   0  0  0  0  0  0  0  0  0  0  0  0
   -6.7067    1.6143    0.0000 O   0  5  0  0  0  0  0  0  0  0  0  0
   -5.6902    2.3288    0.0000 O   0  0  0  0  0  0  0  0  0  0  0  0
    1.1674    2.0685    0.0000 C   0  0  0  0  0  0  0  0  0  0  0  0
    0.8654    0.9415    0.0000 C   0  0  0  0  0  0  0  0  0  0  0  0
    1.1674    2.8935    0.0000 C   0  0  0  0  0  0  0  0  0  0  0  0
    1.6904    0.9415    0.0000 C   0  0  0  0  0  0  0  0  0  0  0  0
   -0.2615    1.2435    0.0000 C   0  0  0  0  0  0  0  0  0  0  0  0
    0.4529    1.6560    0.0000 C   0  0  0  0  0  0  0  0  0  0  0  0
    1.8818    3.3060    0.0000 O   0  0  0  0  0  0  0  0  0  0  0  0
    0.4529    3.3060    0.0000 O   0  5  0  0  0  0  0  0  0  0  0  0
    2.1029    1.6560    0.0000 O   0  0  0  0  0  0  0  0  0  0  0  0
    2.1029    0.2270    0.0000 O   0  5  0  0  0  0  0  0  0  0  0  0
   -0.2615    0.4185    0.0000 O   0  0  0  0  0  0  0  0  0  0  0  0
   -0.9759    1.6560    0.0000 O   0  5  0  0  0  0  0  0  0  0  0  0
    0.0404    2.3705    0.0000 O   0  0  0  0  0  0  0  0  0  0  0  0
    6.4856    2.2095    0.0000 C   0  0  0  0  0  0  0  0  0  0  0  0
    6.1836    1.0825    0.0000 C   0  0  0  0  0  0  0  0  0  0  0  0
    6.4856    3.0345    0.0000 C   0  0  0  0  0  0  0  0  0  0  0  0
    7.0086    1.0825    0.0000 C   0  0  0  0  0  0  0  0  0  0  0  0
    5.0567    1.3845    0.0000 C   0  0  0  0  0  0  0  0  0  0  0  0
    5.7711    1.7970    0.0000 C   0  0  0  0  0  0  0  0  0  0  0  0
    5.7711    3.4470    0.0000 O   0  0  0  0  0  0  0  0  0  0  0  0
    7.2001    3.4470    0.0000 O   0  5  0  0  0  0  0  0  0  0  0  0
    7.4211    1.7970    0.0000 O   0  0  0  0  0  0  0  0  0  0  0  0
    7.4211    0.3680    0.0000 O   0  5  0  0  0  0  0  0  0  0  0  0
    5.0567    0.5595    0.0000 O   0  0  0  0  0  0  0  0  0  0  0  0
    4.3422    1.7970    0.0000 O   0  5  0  0  0  0  0  0  0  0  0  0
    5.3586    2.5114    0.0000 O   0  0  0  0  0  0  0  0  0  0  0  0
   -5.9922    3.6768    0.0000 Fe  0  1  0  0  0  0  0  0  0  0  0  0
   -3.2152    2.3288    0.0000 Fe  0  1  0  0  0  0  0  0  0  0  0  0
   -7.4211    2.0268    0.0000 Fe  0  1  0  0  0  0  0  0  0  0  0  0
   -0.2615    3.7185    0.0000 Fe  0  1  0  0  0  0  0  0  0  0  0  0
   -3.9897   -3.7185    0.0000 O   0  5  0  0  0  0  0  0  0  0  0  0
   -3.6877   -2.5915    0.0000 O   0  5  0  0  0  0  0  0  0  0  0  0
   -5.1166   -3.4165    0.0000 O   0  0  0  0  0  0  0  0  0  0  0  0
   -6.4647   -2.2895    0.0000 O   0  5  0  0  0  0  0  0  0  0  0  0
   -5.6397   -1.4645    0.0000 O   0  0  0  0  0  0  0  0  0  0  0  0
   -5.6397   -3.1145    0.0000 O   0  0  0  0  0  0  0  0  0  0  0  0
   -4.8147   -2.2895    0.0000 O   0  0  0  0  0  0  0  0  0  0  0  0
   -4.4022   -3.0040    0.0000 P   0  0  0  0  0  0  0  0  0  0  0  0
   -5.6397   -2.2895    0.0000 P   0  0  0  0  0  0  0  0  0  0  0  0
    0.6729   -3.7185    0.0000 O   0  0  0  0  0  0  0  0  0  0  0  0
    0.9749   -2.5915    0.0000 O   0  0  0  0  0  0  0  0  0  0  0  0
   -0.4540   -3.4165    0.0000 O   0  0  0  0  0  0  0  0  0  0  0  0
   -1.8020   -2.2895    0.0000 O   0  0  0  0  0  0  0  0  0  0  0  0
   -0.9770   -1.4645    0.0000 O   0  0  0  0  0  0  0  0  0  0  0  0
   -0.9770   -3.1145    0.0000 O   0  0  0  0  0  0  0  0  0  0  0  0
   -0.1520   -2.2895    0.0000 O   0  0  0  0  0  0  0  0  0  0  0  0
    0.2604   -3.0040    0.0000 P   0  0  0  0  0  0  0  0  0  0  0  0
   -0.9770   -2.2895    0.0000 P   0  0  0  0  0  0  0  0  0  0  0  0
    5.3356   -3.7185    0.0000 O   0  0  0  0  0  0  0  0  0  0  0  0
    5.6376   -2.5915    0.0000 O   0  0  0  0  0  0  0  0  0  0  0  0
    4.2086   -3.4165    0.0000 O   0  0  0  0  0  0  0  0  0  0  0  0
    2.8606   -2.2895    0.0000 O   0  0  0  0  0  0  0  0  0  0  0  0
    3.6856   -1.4645    0.0000 O   0  0  0  0  0  0  0  0  0  0  0  0
    3.6856   -3.1145    0.0000 O   0  0  0  0  0  0  0  0  0  0  0  0
    4.5106   -2.2895    0.0000 O   0  0  0  0  0  0  0  0  0  0  0  0
    4.9231   -3.0040    0.0000 P   0  0  0  0  0  0  0  0  0  0  0  0
    3.6856   -2.2895    0.0000 P   0  0  0  0  0  0  0  0  0  0  0  0
  3  1  1  0  0  0  0
  4  2  1  0  0  0  0
  6  1  1  0  0  0  0
  6  2  1  0  0  0  0
  6  5  1  0  0  0  0
  7  3  2  0  0  0  0
  8  3  1  0  0  0  0
  9  4  2  0  0  0  0
 10  4  1  0  0  0  0
 11  5  2  0  0  0  0
 12  5  1  0  0  0  0
 13  6  1  0  0  0  0
 16 14  1  0  0  0  0
 17 15  1  0  0  0  0
 19 14  1  0  0  0  0
 19 15  1  0  0  0  0
 19 18  1  0  0  0  0
 20 16  2  0  0  0  0
 21 16  1  0  0  0  0
 22 17  2  0  0  0  0
 23 17  1  0  0  0  0
 24 18  2  0  0  0  0
 25 18  1  0  0  0  0
 26 19  1  0  0  0  0
 29 27  1  0  0  0  0
 30 28  1  0  0  0  0
 32 27  1  0  0  0  0
 32 28  1  0  0  0  0
 32 31  1  0  0  0  0
 33 29  2  0  0  0  0
 34 29  1  0  0  0  0
 35 30  2  0  0  0  0
 36 30  1  0  0  0  0
 37 31  2  0  0  0  0
 38 31  1  0  0  0  0
 39 32  1  0  0  0  0
 51 44  1  0  0  0  0
 51 45  1  0  0  0  0
 51 46  2  0  0  0  0
 51 50  1  0  0  0  0
 52 47  1  0  0  0  0
 52 48  1  0  0  0  0
 52 49  2  0  0  0  0
 52 50  1  0  0  0  0
 60 53  1  0  0  0  0
 60 54  1  0  0  0  0
 60 55  2  0  0  0  0
 60 59  1  0  0  0  0
 61 56  1  0  0  0  0
 61 57  1  0  0  0  0
 61 58  2  0  0  0  0
 61 59  1  0  0  0  0
 69 62  1  0  0  0  0
 69 63  1  0  0  0  0
 69 64  2  0  0  0  0
 69 68  1  0  0  0  0
 70 65  1  0  0  0  0
 70 66  1  0  0  0  0
 70 67  2  0  0  0  0
 70 68  1  0  0  0  0
M  CHG  8   8  -1  10  -1  12  -1  21  -1  23  -1  25  -1  34  -1  36  -1
M  CHG  8  38  -1  40   3  41   3  42   3  43   3  44  -1  45  -1  47  -1
M  END
> <DATABASE_ID>
DB13995

> <DATABASE_NAME>
drugbank

> <SMILES>
[Fe+3].[Fe+3].[Fe+3].[Fe+3].OP(O)(=O)OP(O)(O)=O.OP(O)(=O)OP(O)(O)=O.OP([O-])(=O)OP([O-])([O-])=O.OC(CC([O-])=O)(CC([O-])=O)C([O-])=O.OC(CC([O-])=O)(CC([O-])=O)C([O-])=O.OC(CC([O-])=O)(CC([O-])=O)C([O-])=O

> <INCHI_IDENTIFIER>
InChI=1S/3C6H8O7.4Fe.3H4O7P2/c3*7-3(8)1-6(13,5(11)12)2-4(9)10;;;;;3*1-8(2,3)7-9(4,5)6/h3*13H,1-2H2,(H,7,8)(H,9,10)(H,11,12);;;;;3*(H2,1,2,3)(H2,4,5,6)/q;;;4*+3;;;/p-12

> <INCHI_KEY>
SXAWSYZURCZSDX-UHFFFAOYSA-B

> <FORMULA>
C18H24Fe4O42P6

> <MOLECULAR_WEIGHT>
1321.571

> <EXACT_MASS>
1321.556531

> <JCHEM_ACCEPTOR_COUNT>
7

> <JCHEM_ATOM_COUNT>
94

> <JCHEM_AVERAGE_POLARIZABILITY>
14.227786958814349

> <JCHEM_BIOAVAILABILITY>
0

> <JCHEM_DONOR_COUNT>
1

> <JCHEM_FORMAL_CHARGE>
0

> <JCHEM_GHOSE_FILTER>
0

> <JCHEM_IUPAC>
tetrairon(3+) bis((phosphonooxy)phosphonic acid) tris(2-hydroxypropane-1,2,3-tricarboxylate) (hydrogen phosphonooxy)phosphonate

> <ALOGPS_LOGP>
-0.72

> <JCHEM_LOGP>
-1.3226874519999998

> <ALOGPS_LOGS>
-1.37

> <JCHEM_MDDR_LIKE_RULE>
0

> <JCHEM_NUMBER_OF_RINGS>
0

> <JCHEM_PHYSIOLOGICAL_CHARGE>
-3

> <JCHEM_PKA>
4.674836176324

> <JCHEM_PKA_STRONGEST_ACIDIC>
3.0479515131680732

> <JCHEM_PKA_STRONGEST_BASIC>
-4.185693450231931

> <JCHEM_POLAR_SURFACE_AREA>
140.61999999999998

> <JCHEM_REFRACTIVITY>
68.13520000000001

> <JCHEM_ROTATABLE_BOND_COUNT>
21

> <JCHEM_RULE_OF_FIVE>
0

> <ALOGPS_SOLUBILITY>
7.60e+00 g/l

> <JCHEM_TRADITIONAL_IUPAC>
tetrairon(3+) bis(pyrophosphoric acid) tricitrate hydrogen phosphonooxyphosphonate

> <JCHEM_VEBER_RULE>
0

> <DRUGBANK_ID>
DB13995

> <SECONDARY_ACCESSION_NUMBERS>
DBSALT001314

> <DRUG_GROUPS>
approved; investigational

> <GENERIC_NAME>
Ferric pyrophosphate citrate

> <SYNONYMS>
Ferric pyrophosphate citrate; FPC; SFP; Tetraferric nonahydrogen citrate pyrophosphate; Triferic

> <PRODUCTS>
Triferic; Triferic AVNU; Triferic Solution for Hemodialysis

> <INTERNATIONAL_BRANDS>
Incremin

$$$$
