
  Mrv1909 12041905292D          

 55 57  0  0  0  0            999 V2000
   -4.6137    3.3000    0.0000 O   0  0  0  0  0  0  0  0  0  0  0  0
    1.1021   -1.6500    0.0000 O   0  0  0  0  0  0  0  0  0  0  0  0
   -3.8993    2.0625    0.0000 O   0  0  0  0  0  0  0  0  0  0  0  0
   -3.1848    1.6500    0.0000 O   0  0  0  0  0  0  0  0  0  0  0  0
    2.5310   -3.3000    0.0000 O   0  0  0  0  0  0  0  0  0  0  0  0
   -1.0413   -2.0625    0.0000 O   0  0  0  0  0  0  0  0  0  0  0  0
    1.8165   -2.0625    0.0000 O   0  0  0  0  0  0  0  0  0  0  0  0
   -0.3269    0.8250    0.0000 O   0  0  0  0  0  0  0  0  0  0  0  0
   -0.3269    4.1250    0.0000 O   0  0  0  0  0  0  0  0  0  0  0  0
    0.3875    2.8875    0.0000 O   0  0  0  0  0  0  0  0  0  0  0  0
   -2.4703    2.8875    0.0000 N   0  0  0  0  0  0  0  0  0  0  0  0
    1.1021   -3.3000    0.0000 N   0  0  0  0  0  0  0  0  0  0  0  0
   -0.3269   -0.8250    0.0000 N   0  0  0  0  0  0  0  0  0  0  0  0
   -1.7558    0.8250    0.0000 N   0  0  0  0  0  0  0  0  0  0  0  0
   -3.8993   -0.4125    0.0000 N   0  0  0  0  0  0  0  0  0  0  0  0
   -5.3283   -0.4125    0.0000 N   0  0  0  0  0  0  0  0  0  0  0  0
   -4.6137   -1.6500    0.0000 N   0  0  0  0  0  0  0  0  0  0  0  0
   -0.3269   -4.1250    0.0000 C   0  0  0  0  0  0  0  0  0  0  0  0
   -3.8993    4.5375    0.0000 C   0  0  0  0  0  0  0  0  0  0  0  0
   -1.0413   -4.5375    0.0000 C   0  0  0  0  0  0  0  0  0  0  0  0
    0.3875   -4.5375    0.0000 C   0  0  0  0  0  0  0  0  0  0  0  0
   -4.6137    4.1250    0.0000 C   0  0  0  0  0  0  0  0  0  0  0  0
   -3.8993    5.3626    0.0000 C   0  0  0  0  0  0  0  0  0  0  0  0
   -1.0413   -5.3626    0.0000 C   0  0  0  0  0  0  0  0  0  0  0  0
    0.3875   -5.3626    0.0000 C   0  0  0  0  0  0  0  0  0  0  0  0
   -5.3283    4.5375    0.0000 C   0  0  0  0  0  0  0  0  0  0  0  0
   -4.6137    5.7751    0.0000 C   0  0  0  0  0  0  0  0  0  0  0  0
   -0.3269   -3.3000    0.0000 C   0  0  0  0  0  0  0  0  0  0  0  0
   -3.1848    4.1250    0.0000 C   0  0  0  0  0  0  0  0  0  0  0  0
   -0.3269   -5.7751    0.0000 C   0  0  0  0  0  0  0  0  0  0  0  0
   -5.3283    5.3626    0.0000 C   0  0  0  0  0  0  0  0  0  0  0  0
    0.3875   -2.8875    0.0000 C   0  0  2  0  0  0  0  0  0  0  0  0
   -3.1848    3.3000    0.0000 C   0  0  1  0  0  0  0  0  0  0  0  0
    0.3875   -2.0625    0.0000 C   0  0  0  0  0  0  0  0  0  0  0  0
   -3.8993    2.8875    0.0000 C   0  0  0  0  0  0  0  0  0  0  0  0
   -2.4703    2.0625    0.0000 C   0  0  0  0  0  0  0  0  0  0  0  0
   -1.7558    1.6500    0.0000 C   0  0  2  0  0  0  0  0  0  0  0  0
   -0.3269   -1.6500    0.0000 C   0  0  0  0  0  0  0  0  0  0  0  0
   -1.0413   -0.4125    0.0000 C   0  0  2  0  0  0  0  0  0  0  0  0
    1.8165   -2.8875    0.0000 C   0  0  0  0  0  0  0  0  0  0  0  0
   -1.0413    2.0625    0.0000 C   0  0  0  0  0  0  0  0  0  0  0  0
   -1.0413    0.4125    0.0000 C   0  0  0  0  0  0  0  0  0  0  0  0
   -1.7558   -0.8250    0.0000 C   0  0  0  0  0  0  0  0  0  0  0  0
   -1.0413    2.8875    0.0000 C   0  0  0  0  0  0  0  0  0  0  0  0
   -2.4703   -0.4125    0.0000 C   0  0  0  0  0  0  0  0  0  0  0  0
   -3.1848   -0.8250    0.0000 C   0  0  0  0  0  0  0  0  0  0  0  0
    3.2454   -2.8875    0.0000 C   0  0  0  0  0  0  0  0  0  0  0  0
   -0.3269    3.3000    0.0000 C   0  0  0  0  0  0  0  0  0  0  0  0
    3.9600   -3.3000    0.0000 C   0  0  0  0  0  0  0  0  0  0  0  0
    3.9600   -4.1250    0.0000 C   0  0  0  0  0  0  0  0  0  0  0  0
    4.6745   -2.8875    0.0000 C   0  0  0  0  0  0  0  0  0  0  0  0
   -4.6137   -0.8250    0.0000 C   0  0  0  0  0  0  0  0  0  0  0  0
    4.6745   -4.5375    0.0000 C   0  0  0  0  0  0  0  0  0  0  0  0
    5.3889   -3.3000    0.0000 C   0  0  0  0  0  0  0  0  0  0  0  0
    5.3889   -4.1250    0.0000 C   0  0  0  0  0  0  0  0  0  0  0  0
  1 35  1  0  0  0  0
  2 34  2  0  0  0  0
  3 35  2  0  0  0  0
  4 36  2  0  0  0  0
  5 40  1  0  0  0  0
  5 47  1  0  0  0  0
  6 38  2  0  0  0  0
  7 40  2  0  0  0  0
  8 42  2  0  0  0  0
  9 48  1  0  0  0  0
 10 48  2  0  0  0  0
 33 11  1  6  0  0  0
 11 36  1  0  0  0  0
 32 12  1  6  0  0  0
 12 40  1  0  0  0  0
 13 38  1  0  0  0  0
 39 13  1  1  0  0  0
 37 14  1  6  0  0  0
 14 42  1  0  0  0  0
 15 46  1  0  0  0  0
 15 52  2  0  0  0  0
 16 52  1  0  0  0  0
 17 52  1  0  0  0  0
 18 20  1  0  0  0  0
 18 21  1  0  0  0  0
 18 28  1  0  0  0  0
 19 22  1  0  0  0  0
 19 23  1  0  0  0  0
 19 29  1  0  0  0  0
 20 24  1  0  0  0  0
 21 25  1  0  0  0  0
 22 26  1  0  0  0  0
 23 27  1  0  0  0  0
 24 30  1  0  0  0  0
 25 30  1  0  0  0  0
 26 31  1  0  0  0  0
 27 31  1  0  0  0  0
 28 32  1  0  0  0  0
 29 33  1  0  0  0  0
 32 34  1  0  0  0  0
 33 35  1  0  0  0  0
 34 38  1  0  0  0  0
 36 37  1  0  0  0  0
 37 41  1  0  0  0  0
 39 42  1  0  0  0  0
 39 43  1  0  0  0  0
 41 44  1  0  0  0  0
 43 45  1  0  0  0  0
 44 48  1  0  0  0  0
 45 46  1  0  0  0  0
 47 49  1  0  0  0  0
 49 50  2  0  0  0  0
 49 51  1  0  0  0  0
 50 53  1  0  0  0  0
 51 54  2  0  0  0  0
 53 55  2  0  0  0  0
 54 55  1  0  0  0  0
M  END
> <DATABASE_ID>
DB01984

> <DATABASE_NAME>
drugbank

> <SMILES>
NC(N)=NCCC[C@H](NC(=O)C(=O)[C@@H](CC1CCCCC1)NC(=O)OCC1=CC=CC=C1)C(=O)N[C@@H](CCC(O)=O)C(=O)N[C@@H](CC1CCCCC1)C(O)=O

> <INCHI_IDENTIFIER>
InChI=1S/C38H57N7O10/c39-37(40)41-20-10-17-27(33(49)42-28(18-19-31(46)47)34(50)44-30(36(52)53)22-25-13-6-2-7-14-25)43-35(51)32(48)29(21-24-11-4-1-5-12-24)45-38(54)55-23-26-15-8-3-9-16-26/h3,8-9,15-16,24-25,27-30H,1-2,4-7,10-14,17-23H2,(H,42,49)(H,43,51)(H,44,50)(H,45,54)(H,46,47)(H,52,53)(H4,39,40,41)/t27-,28-,29+,30-/m0/s1

> <INCHI_KEY>
LKCWMWZIRUHWBW-ZXYZSCNASA-N

> <FORMULA>
C38H57N7O10

> <MOLECULAR_WEIGHT>
771.9001

> <EXACT_MASS>
771.416691079

> <JCHEM_ACCEPTOR_COUNT>
12

> <JCHEM_ATOM_COUNT>
112

> <JCHEM_AVERAGE_POLARIZABILITY>
82.45042620117749

> <JCHEM_BIOAVAILABILITY>
0

> <JCHEM_DONOR_COUNT>
8

> <JCHEM_FORMAL_CHARGE>
0

> <JCHEM_GHOSE_FILTER>
0

> <JCHEM_IUPAC>
(4S)-4-[(2S)-2-[(3R)-3-{[(benzyloxy)carbonyl]amino}-4-cyclohexyl-2-oxobutanamido]-5-[(diaminomethylidene)amino]pentanamido]-4-{[(1S)-1-carboxy-2-cyclohexylethyl]carbamoyl}butanoic acid

> <ALOGPS_LOGP>
1.37

> <JCHEM_LOGP>
1.1951895244494024

> <ALOGPS_LOGS>
-4.86

> <JCHEM_MDDR_LIKE_RULE>
1

> <JCHEM_NUMBER_OF_RINGS>
3

> <JCHEM_PHYSIOLOGICAL_CHARGE>
-1

> <JCHEM_PKA>
3.940588844693211

> <JCHEM_PKA_STRONGEST_ACIDIC>
3.2714527282953023

> <JCHEM_PKA_STRONGEST_BASIC>
10.756790720216292

> <JCHEM_POLAR_SURFACE_AREA>
281.7

> <JCHEM_REFRACTIVITY>
198.68769999999992

> <JCHEM_ROTATABLE_BOND_COUNT>
23

> <JCHEM_RULE_OF_FIVE>
0

> <ALOGPS_SOLUBILITY>
1.06e-02 g/l

> <JCHEM_TRADITIONAL_IUPAC>
(4S)-4-[(2S)-2-[(3R)-3-{[(benzyloxy)carbonyl]amino}-4-cyclohexyl-2-oxobutanamido]-5-[(diaminomethylidene)amino]pentanamido]-4-{[(1S)-1-carboxy-2-cyclohexylethyl]carbamoyl}butanoic acid

> <JCHEM_VEBER_RULE>
0

> <DRUGBANK_ID>
DB01984

> <SECONDARY_ACCESSION_NUMBERS>
EXPT01214

> <DRUG_GROUPS>
experimental

> <GENERIC_NAME>
(4S)-5-[[(1S)-1-Carboxy-2-cyclohexylethyl]amino]-4-[[(2S)-2-[[(3R)-4-cyclohexyl-2-oxo-3-(phenylmethoxycarbonylamino)butanoyl]amino]-5-(diaminomethylideneamino)pentanoyl]amino]-5-oxopentanoic acid

$$$$
