
  Mrv1909 12231917472D          

 51 55  0  0  0  0            999 V2000
   -0.0384   -0.9971    0.0000 C   0  0  0  0  0  0  0  0  0  0  0  0
   -0.0384   -0.1720    0.0000 C   0  0  0  0  0  0  0  0  0  0  0  0
    0.6760    0.2404    0.0000 C   0  0  0  0  0  0  0  0  0  0  0  0
    1.3905   -0.1720    0.0000 C   0  0  0  0  0  0  0  0  0  0  0  0
    2.1049    0.2404    0.0000 N   0  3  0  0  0  0  0  0  0  0  0  0
    2.8896    0.4952    0.0000 C   0  0  0  0  0  0  0  0  0  0  0  0
    2.8896    1.3202    0.0000 C   0  0  0  0  0  0  0  0  0  0  0  0
    2.1049    1.5752    0.0000 C   0  0  0  0  0  0  0  0  0  0  0  0
    1.6201    0.9077    0.0000 C   0  0  0  0  0  0  0  0  0  0  0  0
    2.4404   -0.5133    0.0000 C   0  0  0  0  0  0  0  0  0  0  0  0
    3.2610   -0.5995    0.0000 C   0  0  0  0  0  0  0  0  0  0  0  0
    3.5966   -1.3532    0.0000 N   0  0  0  0  0  0  0  0  0  0  0  0
    4.4171   -1.4395    0.0000 C   0  0  0  0  0  0  0  0  0  0  0  0
    4.7526   -2.1930    0.0000 C   0  0  0  0  0  0  0  0  0  0  0  0
    4.2677   -2.8606    0.0000 C   0  0  0  0  0  0  0  0  0  0  0  0
    4.6033   -3.6142    0.0000 C   0  0  0  0  0  0  0  0  0  0  0  0
    5.4236   -3.7005    0.0000 C   0  0  0  0  0  0  0  0  0  0  0  0
    5.7593   -4.4542    0.0000 O   0  0  0  0  0  0  0  0  0  0  0  0
    5.9087   -3.0330    0.0000 C   0  0  0  0  0  0  0  0  0  0  0  0
    6.7290   -3.1192    0.0000 O   0  0  0  0  0  0  0  0  0  0  0  0
    5.5731   -2.2794    0.0000 C   0  0  0  0  0  0  0  0  0  0  0  0
    6.0580   -1.6118    0.0000 Cl  0  0  0  0  0  0  0  0  0  0  0  0
    4.9020   -0.7719    0.0000 O   0  0  0  0  0  0  0  0  0  0  0  0
    0.6760    1.0654    0.0000 C   0  0  0  0  0  0  0  0  0  0  0  0
   -0.0384    1.4778    0.0000 S   0  0  0  0  0  0  0  0  0  0  0  0
   -0.7528    1.0654    0.0000 C   0  0  2  0  0  0  0  0  0  0  0  0
   -0.9664    1.8622    0.0000 H   0  0  0  0  0  0  0  0  0  0  0  0
   -1.5779    1.0654    0.0000 C   0  0  2  0  0  0  0  0  0  0  0  0
   -2.1612    1.6487    0.0000 N   0  0  0  0  0  0  0  0  0  0  0  0
   -2.9582    1.4351    0.0000 C   0  0  0  0  0  0  0  0  0  0  0  0
   -3.1716    0.6383    0.0000 O   0  0  0  0  0  0  0  0  0  0  0  0
   -3.5414    2.0186    0.0000 C   0  0  0  0  0  0  0  0  0  0  0  0
   -3.3280    2.8154    0.0000 C   0  0  0  0  0  0  0  0  0  0  0  0
   -2.5577    3.1111    0.0000 N   0  0  0  0  0  0  0  0  0  0  0  0
   -2.6009    3.9350    0.0000 C   0  0  0  0  0  0  0  0  0  0  0  0
   -1.9597    4.4542    0.0000 N   0  0  0  0  0  0  0  0  0  0  0  0
   -3.3978    4.1485    0.0000 S   0  0  0  0  0  0  0  0  0  0  0  0
   -3.8471    3.4566    0.0000 C   0  0  0  0  0  0  0  0  0  0  0  0
   -4.3384    1.8050    0.0000 N   0  0  0  0  0  0  0  0  0  0  0  0
   -4.5518    1.0080    0.0000 O   0  0  0  0  0  0  0  0  0  0  0  0
   -5.3487    0.7945    0.0000 C   0  0  0  0  0  0  0  0  0  0  0  0
   -5.1352   -0.0023    0.0000 C   0  0  0  0  0  0  0  0  0  0  0  0
   -5.5622    1.5915    0.0000 C   0  0  0  0  0  0  0  0  0  0  0  0
   -6.1457    0.5811    0.0000 C   0  0  0  0  0  0  0  0  0  0  0  0
   -6.7291    1.1645    0.0000 O   0  0  0  0  0  0  0  0  0  0  0  0
   -6.3591   -0.2157    0.0000 O   0  0  0  0  0  0  0  0  0  0  0  0
   -1.5779    0.2404    0.0000 C   0  0  0  0  0  0  0  0  0  0  0  0
   -2.1612   -0.3430    0.0000 O   0  0  0  0  0  0  0  0  0  0  0  0
   -0.7528    0.2404    0.0000 N   0  0  0  0  0  0  0  0  0  0  0  0
    0.6760   -1.4096    0.0000 O   0  0  0  0  0  0  0  0  0  0  0  0
   -0.7528   -1.4096    0.0000 O   0  5  0  0  0  0  0  0  0  0  0  0
  1  2  1  0  0  0  0
  2  3  2  0  0  0  0
  3  4  1  0  0  0  0
  4  5  1  0  0  0  0
  5  6  1  0  0  0  0
  6  7  1  0  0  0  0
  8  7  1  0  0  0  0
  9  8  1  0  0  0  0
  5  9  1  0  0  0  0
  5 10  1  0  0  0  0
 10 11  1  0  0  0  0
 11 12  1  0  0  0  0
 12 13  1  0  0  0  0
 13 14  1  0  0  0  0
 14 15  1  0  0  0  0
 15 16  2  0  0  0  0
 16 17  1  0  0  0  0
 17 18  1  0  0  0  0
 19 17  2  0  0  0  0
 19 20  1  0  0  0  0
 21 19  1  0  0  0  0
 14 21  2  0  0  0  0
 21 22  1  0  0  0  0
 13 23  2  0  0  0  0
  3 24  1  0  0  0  0
 24 25  1  0  0  0  0
 26 25  1  0  0  0  0
 26 27  1  6  0  0  0
 26 28  1  0  0  0  0
 28 29  1  1  0  0  0
 29 30  1  0  0  0  0
 30 31  2  0  0  0  0
 30 32  1  0  0  0  0
 32 33  1  0  0  0  0
 33 34  1  0  0  0  0
 34 35  2  0  0  0  0
 35 36  1  0  0  0  0
 37 35  1  0  0  0  0
 38 37  1  0  0  0  0
 33 38  2  0  0  0  0
 32 39  2  0  0  0  0
 39 40  1  0  0  0  0
 40 41  1  0  0  0  0
 41 42  1  0  0  0  0
 41 43  1  0  0  0  0
 41 44  1  0  0  0  0
 44 45  2  0  0  0  0
 44 46  1  0  0  0  0
 47 28  1  0  0  0  0
 47 48  2  0  0  0  0
 49 47  1  0  0  0  0
 49 26  1  0  0  0  0
  2 49  1  0  0  0  0
  1 50  2  0  0  0  0
  1 51  1  0  0  0  0
M  CHG  2   5   1  51  -1
M  END
> <DATABASE_ID>
DB14879

> <DATABASE_NAME>
drugbank

> <SMILES>
[H][C@]12SCC(C[N+]3(CCNC(=O)C4=C(Cl)C(O)=C(O)C=C4)CCCC3)=C(N1C(=O)[C@H]2NC(=O)C(=N/OC(C)(C)C(O)=O)\C1=CSC(N)=N1)C([O-])=O

> <INCHI_IDENTIFIER>
InChI=1S/C30H34ClN7O10S2/c1-30(2,28(46)47)48-36-19(16-13-50-29(32)34-16)24(42)35-20-25(43)37-21(27(44)45)14(12-49-26(20)37)11-38(8-3-4-9-38)10-7-33-23(41)15-5-6-17(39)22(40)18(15)31/h5-6,13,20,26H,3-4,7-12H2,1-2H3,(H7-,32,33,34,35,36,39,40,41,42,44,45,46,47)/t20-,26-/m1/s1

> <INCHI_KEY>
DBPPRLRVDVJOCL-FQRUVTKNSA-N

> <FORMULA>
C30H34ClN7O10S2

> <MOLECULAR_WEIGHT>
752.21

> <EXACT_MASS>
751.1497104

> <JCHEM_ACCEPTOR_COUNT>
13

> <JCHEM_ATOM_COUNT>
84

> <JCHEM_AVERAGE_NEUTRAL_MICROSPECIES_CHARGE>
-1.2357637375182846

> <JCHEM_AVERAGE_POLARIZABILITY>
72.74064073554177

> <JCHEM_BIOAVAILABILITY>
0

> <JCHEM_DONOR_COUNT>
6

> <JCHEM_FORMAL_CHARGE>
0

> <JCHEM_GHOSE_FILTER>
0

> <JCHEM_IUPAC>
1-{[(6R,7R)-7-[(2Z)-2-(2-amino-1,3-thiazol-4-yl)-2-[(1-carboxy-1-methylethoxy)imino]acetamido]-2-carboxylato-8-oxo-5-thia-1-azabicyclo[4.2.0]oct-2-en-3-yl]methyl}-1-{2-[(2-chloro-3,4-dihydroxyphenyl)formamido]ethyl}pyrrolidin-1-ium

> <ALOGPS_LOGP>
1.84

> <JCHEM_LOGP>
-2.929949313712081

> <ALOGPS_LOGS>
-5.60

> <JCHEM_MDDR_LIKE_RULE>
1

> <JCHEM_NEUTRAL_CHARGE>
-1

> <JCHEM_NUMBER_OF_RINGS>
5

> <JCHEM_PHYSIOLOGICAL_CHARGE>
-1

> <JCHEM_PKA>
3.2392358801716195

> <JCHEM_PKA_STRONGEST_ACIDIC>
2.63808874810147

> <JCHEM_PKA_STRONGEST_BASIC>
4.046301371564534

> <JCHEM_POLAR_SURFACE_AREA>
256.9

> <JCHEM_REFRACTIVITY>
204.0978

> <JCHEM_ROTATABLE_BOND_COUNT>
13

> <JCHEM_RULE_OF_FIVE>
0

> <ALOGPS_SOLUBILITY>
2.01e-03 g/l

> <JCHEM_TRADITIONAL_IUPAC>
1-(4-fluorophenyl)-4-[(10R,15S)-4-methyl-1,4,12-triazatetracyclo[7.6.1.0^{5,16}.0^{10,15}]hexadeca-5(16),6,8-trien-12-yl]butan-1-one

> <JCHEM_VEBER_RULE>
0

> <DRUGBANK_ID>
DB14879

> <DRUG_GROUPS>
approved; investigational

> <GENERIC_NAME>
Cefiderocol

> <SYNONYMS>
Cefiderocol

> <PRODUCTS>
Fetcroja; Fetroja

> <SALTS>
Cefiderocol sulfate tosylate

$$$$
