
  Mrv1572003241613592D          

 39 42  0  0  0  0            999 V2000
    0.2455    0.3094    0.0000 C   0  0  0  0  0  0  0  0  0  0  0  0
    0.9055    0.8868    0.0000 C   0  0  0  0  0  0  0  0  0  0  0  0
    1.6892    0.6806    0.0000 C   0  0  0  0  0  0  0  0  0  0  0  0
    2.0605   -0.1031    0.0000 C   0  0  0  0  0  0  0  0  0  0  0  0
    0.2455   -0.5156    0.0000 C   0  0  0  0  0  0  0  0  0  0  0  0
    1.6892   -0.8456    0.0000 C   0  0  2  0  0  0  0  0  0  0  0  0
    0.9055   -1.0106    0.0000 C   0  0  0  0  0  0  0  0  0  0  0  0
    2.0193    1.4231    0.0000 C   0  0  0  0  0  0  0  0  0  0  0  0
    2.8443    1.6294    0.0000 C   0  0  0  0  0  0  0  0  0  0  0  0
    3.5044    1.1344    0.0000 C   0  0  0  0  0  0  0  0  0  0  0  0
    3.5044    0.2681    0.0000 C   0  0  0  0  0  0  0  0  0  0  0  0
    2.8855   -0.2681    0.0000 C   0  0  0  0  0  0  0  0  0  0  0  0
    0.6992    1.6706    0.0000 C   0  0  0  0  0  0  0  0  0  0  0  0
   -0.0844    1.8769    0.0000 C   0  0  0  0  0  0  0  0  0  0  0  0
   -0.7033    1.2993    0.0000 C   0  0  0  0  0  0  0  0  0  0  0  0
   -0.4557    0.5156    0.0000 C   0  0  0  0  0  0  0  0  0  0  0  0
   -1.4870    1.5469    0.0000 O   0  0  0  0  0  0  0  0  0  0  0  0
   -0.3320    2.6606    0.0000 O   0  0  0  0  0  0  0  0  0  0  0  0
   -1.1158    2.9082    0.0000 C   0  0  0  0  0  0  0  0  0  0  0  0
    1.2767    2.2481    0.0000 O   0  0  0  0  0  0  0  0  0  0  0  0
    2.0605    2.0419    0.0000 C   0  0  0  0  0  0  0  0  0  0  0  0
    4.2468    1.5057    0.0000 S   0  0  0  0  0  0  0  0  0  0  0  0
    4.9481    1.0931    0.0000 C   0  0  0  0  0  0  0  0  0  0  0  0
    4.2880   -0.0618    0.0000 O   0  0  0  0  0  0  0  0  0  0  0  0
    2.1842   -1.5057    0.0000 N   0  0  0  0  0  0  0  0  0  0  0  0
    1.7717   -2.2069    0.0000 C   0  0  0  0  0  0  0  0  0  0  0  0
    0.9467   -2.2069    0.0000 O   0  0  0  0  0  0  0  0  0  0  0  0
    2.1842   -2.9082    0.0000 C   0  0  0  0  0  0  0  0  0  0  0  0
   -2.0955    0.9897    0.0000 C   0  0  2  0  0  0  0  0  0  0  0  0
   -2.8029    1.4106    0.0000 O   0  0  0  0  0  0  0  0  0  0  0  0
   -3.5229    1.0078    0.0000 C   0  0  1  0  0  0  0  0  0  0  0  0
   -3.4927    0.1829    0.0000 C   0  0  2  0  0  0  0  0  0  0  0  0
   -2.8222   -0.2408    0.0000 C   0  0  1  0  0  0  0  0  0  0  0  0
   -2.1022    0.1620    0.0000 C   0  0  1  0  0  0  0  0  0  0  0  0
   -1.3872   -0.2610    0.0000 O   0  0  0  0  0  0  0  0  0  0  0  0
   -4.2183   -0.2344    0.0000 O   0  0  0  0  0  0  0  0  0  0  0  0
   -4.2320    1.4066    0.0000 C   0  0  0  0  0  0  0  0  0  0  0  0
   -2.8078   -1.0519    0.0000 O   0  0  0  0  0  0  0  0  0  0  0  0
   -4.9481    0.9821    0.0000 O   0  0  0  0  0  0  0  0  0  0  0  0
  3  4  1  0  0  0  0
  1  5  1  0  0  0  0
  4  6  1  0  0  0  0
  2  3  1  0  0  0  0
  5  7  1  0  0  0  0
  1  2  1  0  0  0  0
  6  7  1  0  0  0  0
  9 10  2  0  0  0  0
 10 11  1  0  0  0  0
  8  9  1  0  0  0  0
  4 12  2  0  0  0  0
  3  8  2  0  0  0  0
 11 12  1  0  0  0  0
  2 13  2  0  0  0  0
 13 14  1  0  0  0  0
 14 15  2  0  0  0  0
 15 16  1  0  0  0  0
 16  1  2  0  0  0  0
 15 17  1  0  0  0  0
 14 18  1  0  0  0  0
 18 19  1  0  0  0  0
 13 20  1  0  0  0  0
 20 21  1  0  0  0  0
 10 22  1  0  0  0  0
 22 23  1  0  0  0  0
 11 24  2  0  0  0  0
  6 25  1  1  0  0  0
 25 26  1  0  0  0  0
 26 27  2  0  0  0  0
 26 28  1  0  0  0  0
 29 17  1  1  0  0  0
 29 30  1  0  0  0  0
 30 31  1  0  0  0  0
 31 32  1  0  0  0  0
 32 33  1  0  0  0  0
 33 34  1  0  0  0  0
 29 34  1  0  0  0  0
 34 35  1  6  0  0  0
 32 36  1  6  0  0  0
 31 37  1  1  0  0  0
 33 38  1  1  0  0  0
 37 39  1  0  0  0  0
M  END
> <DATABASE_ID>
DB11582

> <DATABASE_NAME>
drugbank

> <SMILES>
COC1=C(O[C@@H]2O[C@H](CO)[C@@H](O)[C@H](O)[C@H]2O)C=C2CC[C@H](NC(C)=O)C3=CC(=O)C(SC)=CC=C3C2=C1OC

> <INCHI_IDENTIFIER>
InChI=1S/C27H33NO10S/c1-12(30)28-16-7-5-13-9-18(37-27-24(34)23(33)22(32)19(11-29)38-27)25(35-2)26(36-3)21(13)14-6-8-20(39-4)17(31)10-15(14)16/h6,8-10,16,19,22-24,27,29,32-34H,5,7,11H2,1-4H3,(H,28,30)/t16-,19+,22+,23-,24+,27+/m0/s1

> <INCHI_KEY>
LEQAKWQJCITZNK-AXHKHJLKSA-N

> <FORMULA>
C27H33NO10S

> <MOLECULAR_WEIGHT>
563.62

> <EXACT_MASS>
563.182517441

> <JCHEM_ACCEPTOR_COUNT>
10

> <JCHEM_ATOM_COUNT>
72

> <JCHEM_AVERAGE_POLARIZABILITY>
57.72185477310288

> <JCHEM_BIOAVAILABILITY>
1

> <JCHEM_DONOR_COUNT>
5

> <JCHEM_FORMAL_CHARGE>
0

> <JCHEM_GHOSE_FILTER>
0

> <JCHEM_IUPAC>
N-[(10S)-3,4-dimethoxy-14-(methylsulfanyl)-13-oxo-5-{[(2S,3R,4S,5S,6R)-3,4,5-trihydroxy-6-(hydroxymethyl)oxan-2-yl]oxy}tricyclo[9.5.0.0²,⁷]hexadeca-1(16),2,4,6,11,14-hexaen-10-yl]acetamide

> <ALOGPS_LOGP>
0.78

> <JCHEM_LOGP>
-0.16427740533333288

> <ALOGPS_LOGS>
-3.21

> <JCHEM_MDDR_LIKE_RULE>
1

> <JCHEM_NUMBER_OF_RINGS>
4

> <JCHEM_PHYSIOLOGICAL_CHARGE>
0

> <JCHEM_PKA>
13.188764991259454

> <JCHEM_PKA_STRONGEST_ACIDIC>
12.199065736486576

> <JCHEM_PKA_STRONGEST_BASIC>
-1.1577792351197966

> <JCHEM_POLAR_SURFACE_AREA>
164.01000000000002

> <JCHEM_REFRACTIVITY>
145.0645

> <JCHEM_ROTATABLE_BOND_COUNT>
7

> <JCHEM_RULE_OF_FIVE>
0

> <ALOGPS_SOLUBILITY>
3.48e-01 g/l

> <JCHEM_TRADITIONAL_IUPAC>
thiocolchicoside

> <JCHEM_VEBER_RULE>
0

> <DRUGBANK_ID>
DB11582

> <DRUG_GROUPS>
experimental

> <GENERIC_NAME>
Thiocolchicoside

> <SYNONYMS>
TCC; Thiocolchicine 2-glucoside analog; Thiocolchicoside

> <INTERNATIONAL_BRANDS>
Biocolchid; Coltramyl; Coltrax; Eusilen; Miorel; Musco-Ril; Muscoril; Myolax; Myoril; Neoflax; Neuroflax; TDP

$$$$
