
  Mrv1909 11302217082D          

 30 34  0  0  0  0            999 V2000
   -0.1787   -3.8795    0.0000 C   0  0  0  0  0  0  0  0  0  0  0  0
   -0.5912   -3.1650    0.0000 C   0  0  0  0  0  0  0  0  0  0  0  0
   -0.0392   -2.5519    0.0000 N   0  0  0  0  0  0  0  0  0  0  0  0
    0.7145   -2.8875    0.0000 C   0  0  0  0  0  0  0  0  0  0  0  0
    1.4289   -2.4750    0.0000 N   0  0  0  0  0  0  0  0  0  0  0  0
    1.4289   -1.6500    0.0000 N   0  0  0  0  0  0  0  0  0  0  0  0
    2.1434   -1.2375    0.0000 C   0  0  0  0  0  0  0  0  0  0  0  0
    2.1434   -0.4125    0.0000 C   0  0  0  0  0  0  0  0  0  0  0  0
    2.8579   -0.0000    0.0000 C   0  0  0  0  0  0  0  0  0  0  0  0
    3.5724   -0.4125    0.0000 C   0  0  0  0  0  0  0  0  0  0  0  0
    4.2868    0.0000    0.0000 C   0  0  0  0  0  0  0  0  0  0  0  0
    4.2868    0.8250    0.0000 C   0  0  0  0  0  0  0  0  0  0  0  0
    3.5724    1.2375    0.0000 C   0  0  0  0  0  0  0  0  0  0  0  0
    2.8579    0.8250    0.0000 C   0  0  0  0  0  0  0  0  0  0  0  0
    2.1434    1.2375    0.0000 C   0  0  0  0  0  0  0  0  0  0  0  0
    2.1434    2.0625    0.0000 C   0  0  0  0  0  0  0  0  0  0  0  0
    2.8579    2.4750    0.0000 N   0  0  0  0  0  0  0  0  0  0  0  0
    2.8579    3.3000    0.0000 N   0  0  0  0  0  0  0  0  0  0  0  0
    3.5724    3.7125    0.0000 C   0  0  0  0  0  0  0  0  0  0  0  0
    3.6586    4.5330    0.0000 N   0  0  0  0  0  0  0  0  0  0  0  0
    4.4656    4.7045    0.0000 C   0  0  0  0  0  0  0  0  0  0  0  0
    4.8781    3.9900    0.0000 C   0  0  0  0  0  0  0  0  0  0  0  0
    4.3260    3.3769    0.0000 N   0  0  0  0  0  0  0  0  0  0  0  0
    1.4289    0.8250    0.0000 C   0  0  0  0  0  0  0  0  0  0  0  0
    1.4289    0.0000    0.0000 C   0  0  0  0  0  0  0  0  0  0  0  0
    0.7145   -0.4125    0.0000 C   0  0  0  0  0  0  0  0  0  0  0  0
    0.0000   -0.0000    0.0000 C   0  0  0  0  0  0  0  0  0  0  0  0
    0.0000    0.8250    0.0000 C   0  0  0  0  0  0  0  0  0  0  0  0
    0.7145    1.2375    0.0000 C   0  0  0  0  0  0  0  0  0  0  0  0
    0.6282   -3.7080    0.0000 N   0  0  0  0  0  0  0  0  0  0  0  0
  1  2  1  0  0  0  0
  2  3  1  0  0  0  0
  3  4  2  0  0  0  0
  4  5  1  0  0  0  0
  5  6  1  0  0  0  0
  6  7  2  0  0  0  0
  7  8  1  0  0  0  0
  8  9  2  0  0  0  0
  9 10  1  0  0  0  0
 10 11  2  0  0  0  0
 11 12  1  0  0  0  0
 12 13  2  0  0  0  0
 13 14  1  0  0  0  0
  9 14  1  0  0  0  0
 14 15  2  0  0  0  0
 15 16  1  0  0  0  0
 16 17  2  0  0  0  0
 17 18  1  0  0  0  0
 18 19  1  0  0  0  0
 19 20  2  0  0  0  0
 20 21  1  0  0  0  0
 21 22  1  0  0  0  0
 22 23  1  0  0  0  0
 19 23  1  0  0  0  0
 15 24  1  0  0  0  0
 24 25  2  0  0  0  0
  8 25  1  0  0  0  0
 25 26  1  0  0  0  0
 26 27  2  0  0  0  0
 27 28  1  0  0  0  0
 28 29  2  0  0  0  0
 24 29  1  0  0  0  0
  4 30  1  0  0  0  0
  1 30  1  0  0  0  0
M  END
> <DATABASE_ID>
DB17247

> <DATABASE_NAME>
drugbank

> <SMILES>
C1CN=C(N\N=C\C2=C3C=CC=CC3=C(\C=N\NC3=NCCN3)C3=C2C=CC=C3)N1

> <INCHI_IDENTIFIER>
InChI=1S/C22H22N8/c1-2-6-16-15(5-1)19(13-27-29-21-23-9-10-24-21)17-7-3-4-8-18(17)20(16)14-28-30-22-25-11-12-26-22/h1-8,13-14H,9-12H2,(H2,23,24,29)(H2,25,26,30)/b27-13+,28-14+

> <INCHI_KEY>
NJSMWLQOCQIOPE-OCHFTUDZSA-N

> <FORMULA>
C22H22N8

> <MOLECULAR_WEIGHT>
398.474

> <EXACT_MASS>
398.19674274

> <JCHEM_ACCEPTOR_COUNT>
8

> <JCHEM_ATOM_COUNT>
52

> <JCHEM_AVERAGE_NEUTRAL_MICROSPECIES_CHARGE>
3.95997406661398

> <JCHEM_AVERAGE_POLARIZABILITY>
44.44116670446796

> <JCHEM_BIOAVAILABILITY>
1

> <JCHEM_DONOR_COUNT>
4

> <JCHEM_FORMAL_CHARGE>
0

> <JCHEM_GHOSE_FILTER>
0

> <JCHEM_IUPAC>
2-[(2E)-2-({10-[(E)-[2-(4,5-dihydro-1H-imidazol-2-yl)hydrazin-1-ylidene]methyl]anthracen-9-yl}methylidene)hydrazin-1-yl]-4,5-dihydro-1H-imidazole

> <ALOGPS_LOGP>
1.24

> <JCHEM_LOGP>
2.599714643333333

> <ALOGPS_LOGS>
-4.18

> <JCHEM_MDDR_LIKE_RULE>
0

> <JCHEM_NEUTRAL_CHARGE>
0

> <JCHEM_NUMBER_OF_RINGS>
5

> <JCHEM_PHYSIOLOGICAL_CHARGE>
0

> <JCHEM_PKA>
17.457674254690964

> <JCHEM_PKA_STRONGEST_ACIDIC>
16.827365779323486

> <JCHEM_PKA_STRONGEST_BASIC>
6.210499194081147

> <JCHEM_POLAR_SURFACE_AREA>
97.56

> <JCHEM_REFRACTIVITY>
140.31859999999998

> <JCHEM_ROTATABLE_BOND_COUNT>
4

> <JCHEM_RULE_OF_FIVE>
1

> <ALOGPS_SOLUBILITY>
2.65e-02 g/l

> <JCHEM_TRADITIONAL_IUPAC>
2-[(2E)-2-({10-[(E)-[2-(4,5-dihydro-1H-imidazol-2-yl)hydrazin-1-ylidene]methyl]anthracen-9-yl}methylidene)hydrazin-1-yl]-4,5-dihydro-1H-imidazole

> <JCHEM_VEBER_RULE>
0

> <DRUGBANK_ID>
DB17247

> <DRUG_GROUPS>
investigational

> <GENERIC_NAME>
Bisantrene

> <SYNONYMS>
9,10-anthracenedicarboxaldehyde bis(2-imidazolin-2-ylhydrazone); 9,10-anthracenedicarboxaldehyde, bis((4,5-dihydro-1h-imidazol-2-yl)hydrazone)

> <SALTS>
Bisantrene hydrochloride

$$$$
