
  Mrv1572010191516332D          

 31 33  0  0  0  0            999 V2000
   -0.7962   -0.2298    0.0000 C   0  0  0  0  0  0  0  0  0  0  0  0
   -0.7962   -1.0478    0.0000 N   0  0  0  0  0  0  0  0  0  0  0  0
   -2.2336   -0.2298    0.0000 C   0  0  0  0  0  0  0  0  0  0  0  0
   -2.2336   -1.0478    0.0000 C   0  0  0  0  0  0  0  0  0  0  0  0
   -1.5173    0.1863    0.0000 N   0  0  0  0  0  0  0  0  0  0  0  0
   -1.5173   -1.4495    0.0000 C   0  0  0  0  0  0  0  0  0  0  0  0
   -2.9596    0.1863    0.0000 C   0  0  0  0  0  0  0  0  0  0  0  0
   -3.6807   -0.2298    0.0000 C   0  0  0  0  0  0  0  0  0  0  0  0
   -0.0798    0.2008    0.0000 N   0  0  0  0  0  0  0  0  0  0  0  0
    2.0400    1.4640    0.0000 C   0  0  0  0  0  0  0  0  0  0  0  0
    1.3285    1.0430    0.0000 N   0  0  0  0  0  0  0  0  0  0  0  0
   -2.9596   -1.4495    0.0000 C   0  0  0  0  0  0  0  0  0  0  0  0
   -3.6807   -1.0478    0.0000 C   0  0  0  0  0  0  0  0  0  0  0  0
    2.7611    1.0769    0.0000 O   0  0  0  0  0  0  0  0  0  0  0  0
    0.6461   -0.2008    0.0000 C   0  0  0  0  0  0  0  0  0  0  0  0
   -0.0943    1.0284    0.0000 C   0  0  0  0  0  0  0  0  0  0  0  0
    1.3430    0.2056    0.0000 C   0  0  0  0  0  0  0  0  0  0  0  0
    0.6121    1.4398    0.0000 C   0  0  0  0  0  0  0  0  0  0  0  0
    2.0496    2.2674    0.0000 O   0  0  0  0  0  0  0  0  0  0  0  0
   -1.5173   -2.2674    0.0000 N   0  0  0  0  0  0  0  0  0  0  0  0
    4.2034    1.0913    0.0000 C   0  0  0  0  0  0  0  0  0  0  0  0
   -2.9596    1.0139    0.0000 O   0  0  0  0  0  0  0  0  0  0  0  0
   -4.4115    0.2202    0.0000 O   0  0  0  0  0  0  0  0  0  0  0  0
    3.4629    1.4931    0.0000 C   0  0  0  0  0  0  0  0  0  0  0  0
   -4.3971   -1.4495    0.0000 O   0  0  0  0  0  0  0  0  0  0  0  0
    4.2034    0.2879    0.0000 O   0  0  0  0  0  0  0  0  0  0  0  0
    5.1036    0.8977    0.0000 C   0  0  0  0  0  0  0  0  0  0  0  0
    4.9148    1.5076    0.0000 C   0  0  0  0  0  0  0  0  0  0  0  0
   -3.6661    1.4398    0.0000 C   0  0  0  0  0  0  0  0  0  0  0  0
   -5.1036   -0.2056    0.0000 C   0  0  0  0  0  0  0  0  0  0  0  0
   -5.1036   -1.0478    0.0000 C   0  0  0  0  0  0  0  0  0  0  0  0
  2  1  1  0  0  0  0
  3  5  1  0  0  0  0
  4  3  2  0  0  0  0
  5  1  2  0  0  0  0
  6  2  2  0  0  0  0
  7  3  1  0  0  0  0
  8  7  2  0  0  0  0
  9  1  1  0  0  0  0
 10 11  1  0  0  0  0
 11 18  1  0  0  0  0
 12  4  1  0  0  0  0
 13  8  1  0  0  0  0
 14 10  1  0  0  0  0
 15  9  1  0  0  0  0
 16  9  1  0  0  0  0
 17 15  1  0  0  0  0
 18 16  1  0  0  0  0
 19 10  2  0  0  0  0
 20  6  1  0  0  0  0
 21 24  1  0  0  0  0
 22  7  1  0  0  0  0
 23  8  1  0  0  0  0
 24 14  1  0  0  0  0
 25 13  1  0  0  0  0
 26 21  1  0  0  0  0
 27 21  1  0  0  0  0
 28 21  1  0  0  0  0
 29 22  1  0  0  0  0
 30 23  1  0  0  0  0
 31 25  1  0  0  0  0
  6  4  1  0  0  0  0
 17 11  1  0  0  0  0
 13 12  2  0  0  0  0
M  END
> <DATABASE_ID>
DB09206

> <DATABASE_NAME>
drugbank

> <SMILES>
COC1=CC2=C(N=C(N=C2N)N2CCN(CC2)C(=O)OCC(C)(C)O)C(OC)=C1OC

> <INCHI_IDENTIFIER>
InChI=1S/C20H29N5O6/c1-20(2,27)11-31-19(26)25-8-6-24(7-9-25)18-22-14-12(17(21)23-18)10-13(28-3)15(29-4)16(14)30-5/h10,27H,6-9,11H2,1-5H3,(H2,21,22,23)

> <INCHI_KEY>
YNZXWQJZEDLQEG-UHFFFAOYSA-N

> <FORMULA>
C20H29N5O6

> <MOLECULAR_WEIGHT>
435.481

> <EXACT_MASS>
435.211783674

> <JCHEM_ACCEPTOR_COUNT>
9

> <JCHEM_ATOM_COUNT>
60

> <JCHEM_AVERAGE_POLARIZABILITY>
46.29665537793063

> <JCHEM_BIOAVAILABILITY>
1

> <JCHEM_DONOR_COUNT>
2

> <JCHEM_FORMAL_CHARGE>
0

> <JCHEM_GHOSE_FILTER>
1

> <JCHEM_IUPAC>
2-hydroxy-2-methylpropyl 4-(4-amino-6,7,8-trimethoxyquinazolin-2-yl)piperazine-1-carboxylate

> <ALOGPS_LOGP>
1.35

> <JCHEM_LOGP>
1.2047649316666669

> <ALOGPS_LOGS>
-2.44

> <JCHEM_MDDR_LIKE_RULE>
1

> <JCHEM_NUMBER_OF_RINGS>
3

> <JCHEM_PHYSIOLOGICAL_CHARGE>
0

> <JCHEM_PKA_STRONGEST_ACIDIC>
14.585076154014093

> <JCHEM_PKA_STRONGEST_BASIC>
5.990965560707999

> <JCHEM_POLAR_SURFACE_AREA>
132.50000000000003

> <JCHEM_REFRACTIVITY>
114.87279999999998

> <JCHEM_ROTATABLE_BOND_COUNT>
7

> <JCHEM_RULE_OF_FIVE>
1

> <ALOGPS_SOLUBILITY>
1.56e+00 g/l

> <JCHEM_TRADITIONAL_IUPAC>
2-hydroxy-2-methylpropyl 4-(4-amino-6,7,8-trimethoxyquinazolin-2-yl)piperazine-1-carboxylate

> <JCHEM_VEBER_RULE>
0

> <DRUGBANK_ID>
DB09206

> <DRUG_GROUPS>
experimental

> <GENERIC_NAME>
Trimazosin

> <SYNONYMS>
Trimazosin

> <SALTS>
Trimazosin hydrochloride

$$$$
