
  Mrv1909 02122003352D          

  8  8  0  0  0  0            999 V2000
   -0.3572   -0.8250    0.0000 C   0  0  0  0  0  0  0  0  0  0  0  0
    0.3572   -1.2374    0.0000 N   0  0  0  0  0  0  0  0  0  0  0  0
   -0.3572    0.0000    0.0000 N   0  0  0  0  0  0  0  0  0  0  0  0
    0.3572    0.4125    0.0000 C   0  0  0  0  0  0  0  0  0  0  0  0
    1.0717    0.0000    0.0000 C   0  0  0  0  0  0  0  0  0  0  0  0
    1.0717   -0.8250    0.0000 C   0  0  0  0  0  0  0  0  0  0  0  0
    0.3572    1.2374    0.0000 O   0  0  0  0  0  0  0  0  0  0  0  0
   -1.0716   -1.2374    0.0000 O   0  0  0  0  0  0  0  0  0  0  0  0
  8  1  2  0  0  0  0
  2  1  1  0  0  0  0
  1  3  1  0  0  0  0
  4  3  1  0  0  0  0
  7  4  2  0  0  0  0
  5  4  1  0  0  0  0
  6  5  1  0  0  0  0
  6  2  1  0  0  0  0
M  END
> <DATABASE_ID>
DB01849

> <DATABASE_NAME>
drugbank

> <SMILES>
O=C1CCNC(=O)N1

> <INCHI_IDENTIFIER>
InChI=1S/C4H6N2O2/c7-3-1-2-5-4(8)6-3/h1-2H2,(H2,5,6,7,8)

> <INCHI_KEY>
OIVLITBTBDPEFK-UHFFFAOYSA-N

> <FORMULA>
C4H6N2O2

> <MOLECULAR_WEIGHT>
114.1026

> <EXACT_MASS>
114.042927446

> <JCHEM_ACCEPTOR_COUNT>
2

> <JCHEM_ATOM_COUNT>
14

> <JCHEM_AVERAGE_NEUTRAL_MICROSPECIES_CHARGE>
-1.8756206989525707e-05

> <JCHEM_AVERAGE_POLARIZABILITY>
10.133629968746801

> <JCHEM_BIOAVAILABILITY>
1

> <JCHEM_DONOR_COUNT>
2

> <JCHEM_FORMAL_CHARGE>
0

> <JCHEM_GHOSE_FILTER>
0

> <JCHEM_IUPAC>
1,3-diazinane-2,4-dione

> <ALOGPS_LOGP>
-1.28

> <JCHEM_LOGP>
-1.2132077313333332

> <ALOGPS_LOGS>
-0.64

> <JCHEM_MDDR_LIKE_RULE>
0

> <JCHEM_NEUTRAL_CHARGE>
0

> <JCHEM_NUMBER_OF_RINGS>
1

> <JCHEM_PHYSIOLOGICAL_CHARGE>
0

> <JCHEM_PKA>
18.605544735996883

> <JCHEM_PKA_STRONGEST_ACIDIC>
11.726846896036472

> <JCHEM_PKA_STRONGEST_BASIC>
-7.628772459765097

> <JCHEM_POLAR_SURFACE_AREA>
58.2

> <JCHEM_REFRACTIVITY>
25.745500000000003

> <JCHEM_ROTATABLE_BOND_COUNT>
0

> <JCHEM_RULE_OF_FIVE>
1

> <ALOGPS_SOLUBILITY>
2.59e+01 g/l

> <JCHEM_TRADITIONAL_IUPAC>
adenosine 3',5'-diphosphate

> <JCHEM_VEBER_RULE>
0

> <DRUGBANK_ID>
DB01849

> <SECONDARY_ACCESSION_NUMBERS>
EXPT01296

> <DRUG_GROUPS>
experimental

> <GENERIC_NAME>
Dihydrouracil

> <SYNONYMS>
2,4-Dioxotetrahydropyrimidine; 5,6-Dihydro-2,4-dihydroxypyrimidine; 5,6-dihydrouracil; Dihydro-2,4(1H,3H)-pyrimidinedione; Dihydrouracile; Hydrouracil

$$$$
