
  Mrv1533004241523432D          

 12 12  0  0  0  0            999 V2000
   -0.6283    1.7262    0.0000 C   0  0  0  0  0  0  0  0  0  0  0  0
    0.1842    1.8695    0.0000 C   0  0  0  0  0  0  0  0  0  0  0  0
    0.7145    1.2375    0.0000 C   0  0  0  0  0  0  0  0  0  0  0  0
    1.4289    0.8250    0.0000 C   0  0  0  0  0  0  0  0  0  0  0  0
    2.1434    1.2375    0.0000 O   0  0  0  0  0  0  0  0  0  0  0  0
    1.4289   -0.0000    0.0000 C   0  0  0  0  0  0  0  0  0  0  0  0
    0.7145   -0.4125    0.0000 C   0  0  0  0  0  0  0  0  0  0  0  0
    0.0000    0.0000    0.0000 N   0  0  0  0  0  0  0  0  0  0  0  0
    0.0000    0.8250    0.0000 C   0  0  0  0  0  0  0  0  0  0  0  0
   -0.7145    1.2375    0.0000 O   0  0  0  0  0  0  0  0  0  0  0  0
    1.2448    1.8695    0.0000 C   0  0  0  0  0  0  0  0  0  0  0  0
    0.9626    2.6447    0.0000 C   0  0  0  0  0  0  0  0  0  0  0  0
  1  2  1  0  0  0  0
  2  3  1  0  0  0  0
  3  4  1  0  0  0  0
  4  5  2  0  0  0  0
  4  6  1  0  0  0  0
  6  7  1  0  0  0  0
  7  8  1  0  0  0  0
  8  9  1  0  0  0  0
  3  9  1  0  0  0  0
  9 10  2  0  0  0  0
  3 11  1  0  0  0  0
 11 12  1  0  0  0  0
M  END
> <DATABASE_ID>
DB13224

> <DATABASE_NAME>
drugbank

> <SMILES>
CCC1(CC)C(=O)CCNC1=O

> <INCHI_IDENTIFIER>
InChI=1S/C9H15NO2/c1-3-9(4-2)7(11)5-6-10-8(9)12/h3-6H2,1-2H3,(H,10,12)

> <INCHI_KEY>
RGEVWUKXWFOAID-UHFFFAOYSA-N

> <FORMULA>
C9H15NO2

> <MOLECULAR_WEIGHT>
169.224

> <EXACT_MASS>
169.110278727

> <JCHEM_ACCEPTOR_COUNT>
2

> <JCHEM_ATOM_COUNT>
27

> <JCHEM_AVERAGE_POLARIZABILITY>
18.05592671036216

> <JCHEM_BIOAVAILABILITY>
1

> <JCHEM_DONOR_COUNT>
1

> <JCHEM_FORMAL_CHARGE>
0

> <JCHEM_GHOSE_FILTER>
1

> <JCHEM_IUPAC>
3,3-diethylpiperidine-2,4-dione

> <ALOGPS_LOGP>
0.38

> <JCHEM_LOGP>
1.3417213756666666

> <ALOGPS_LOGS>
-0.77

> <JCHEM_MDDR_LIKE_RULE>
0

> <JCHEM_NUMBER_OF_RINGS>
1

> <JCHEM_PHYSIOLOGICAL_CHARGE>
0

> <JCHEM_PKA>
17.986435900797204

> <JCHEM_PKA_STRONGEST_ACIDIC>
14.471681034836532

> <JCHEM_PKA_STRONGEST_BASIC>
-3.4232977434938348

> <JCHEM_POLAR_SURFACE_AREA>
46.17

> <JCHEM_REFRACTIVITY>
45.6756

> <JCHEM_ROTATABLE_BOND_COUNT>
2

> <JCHEM_RULE_OF_FIVE>
1

> <ALOGPS_SOLUBILITY>
2.90e+01 g/l

> <JCHEM_TRADITIONAL_IUPAC>
piperdione

> <JCHEM_VEBER_RULE>
0

> <DRUGBANK_ID>
DB13224

> <DRUG_GROUPS>
experimental

> <GENERIC_NAME>
Piperidione

$$$$
