
  Mrv1909 05201914262D          

 49 56  0  0  1  0            999 V2000
   10.4591   -1.6023    0.0000 C   0  0  0  0  0  0  0  0  0  0  0  0
   10.2197   -2.3918    0.0000 C   0  0  1  0  0  0  0  0  0  0  0  0
   10.7837   -2.9939    0.0000 C   0  0  0  0  0  0  0  0  0  0  0  0
   10.5443   -3.7834    0.0000 N   0  0  0  0  0  0  0  0  0  0  0  0
    9.7409   -3.9708    0.0000 C   0  0  0  0  0  0  0  0  0  0  0  0
    9.1769   -3.3687    0.0000 C   0  0  0  0  0  0  0  0  0  0  0  0
    9.4163   -2.5792    0.0000 N   0  0  0  0  0  0  0  0  0  0  0  0
    8.8523   -1.9771    0.0000 C   0  0  0  0  0  0  0  0  0  0  0  0
    8.0488   -2.1645    0.0000 C   0  0  0  0  0  0  0  0  0  0  0  0
    7.4848   -1.5624    0.0000 C   0  0  0  0  0  0  0  0  0  0  0  0
    7.7243   -0.7729    0.0000 C   0  0  0  0  0  0  0  0  0  0  0  0
    7.1602   -0.1708    0.0000 N   0  0  0  0  0  0  0  0  0  0  0  0
    7.3997    0.6187    0.0000 C   0  0  0  0  0  0  0  0  0  0  0  0
    6.8357    1.2208    0.0000 C   0  0  0  0  0  0  0  0  0  0  0  0
    7.0751    2.0103    0.0000 C   0  0  0  0  0  0  0  0  0  0  0  0
    7.8785    2.1977    0.0000 C   0  0  0  0  0  0  0  0  0  0  0  0
    8.4425    1.5956    0.0000 N   0  0  0  0  0  0  0  0  0  0  0  0
    9.2460    1.7830    0.0000 C   0  0  0  0  0  0  0  0  0  0  0  0
    8.2031    0.8061    0.0000 C   0  0  0  0  0  0  0  0  0  0  0  0
    8.7671    0.2040    0.0000 O   0  0  0  0  0  0  0  0  0  0  0  0
    6.5111    2.6123    0.0000 C   0  0  0  0  0  0  0  0  0  0  0  0
    5.7076    2.4249    0.0000 C   0  0  0  0  0  0  0  0  0  0  0  0
    5.4682    1.6355    0.0000 C   0  0  0  0  0  0  0  0  0  0  0  0
    4.6648    1.4481    0.0000 O   0  0  0  0  0  0  0  0  0  0  0  0
    5.1436    3.0270    0.0000 C   0  0  0  0  0  0  0  0  0  0  0  0
    5.3830    3.8165    0.0000 N   0  0  0  0  0  0  0  0  0  0  0  0
    6.1865    4.0039    0.0000 C   0  0  0  0  0  0  0  0  0  0  0  0
    6.7505    3.4018    0.0000 C   0  0  0  0  0  0  0  0  0  0  0  0
    4.3402    2.8396    0.0000 N   0  0  0  0  0  0  0  0  0  0  0  0
    4.1008    2.0501    0.0000 C   0  0  0  0  0  0  0  0  0  0  0  0
    3.2973    1.8627    0.0000 C   0  0  0  0  0  0  0  0  0  0  0  0
    2.7333    2.4648    0.0000 N   0  0  0  0  0  0  0  0  0  0  0  0
    2.9727    3.2543    0.0000 C   0  0  0  0  0  0  0  0  0  0  0  0
    2.2959    3.7260    0.0000 C   0  0  0  0  0  0  0  0  0  0  0  0
    1.6381    3.2280    0.0000 C   0  0  0  0  0  0  0  0  0  0  0  0
    1.9085    2.4486    0.0000 C   0  0  0  0  0  0  0  0  0  0  0  0
    1.2507    1.9506    0.0000 C   0  0  0  0  0  0  0  0  0  0  0  0
    0.5739    2.4223    0.0000 C   0  0  0  0  0  0  0  0  0  0  0  0
    0.1755    1.6998    0.0000 C   0  0  0  0  0  0  0  0  0  0  0  0
   -0.1863    2.7429    0.0000 C   0  0  0  0  0  0  0  0  0  0  0  0
    0.8133    3.2118    0.0000 C   0  0  0  0  0  0  0  0  0  0  0  0
    3.7762    3.4417    0.0000 C   0  0  0  0  0  0  0  0  0  0  0  0
    4.0156    4.2312    0.0000 O   0  0  0  0  0  0  0  0  0  0  0  0
    8.5277   -0.5855    0.0000 N   0  0  0  0  0  0  0  0  0  0  0  0
    9.0917   -1.1876    0.0000 C   0  0  0  0  0  0  0  0  0  0  0  0
   11.1083   -4.3855    0.0000 C   0  0  0  0  0  0  0  0  0  0  0  0
   11.9329   -4.4124    0.0000 C   0  0  0  0  0  0  0  0  0  0  0  0
   11.9060   -5.2370    0.0000 O   0  0  0  0  0  0  0  0  0  0  0  0
   11.0814   -5.2100    0.0000 C   0  0  0  0  0  0  0  0  0  0  0  0
  2  1  1  1  0  0  0
  2  3  1  0  0  0  0
  3  4  1  0  0  0  0
  4  5  1  0  0  0  0
  5  6  1  0  0  0  0
  6  7  1  0  0  0  0
  2  7  1  0  0  0  0
  7  8  1  0  0  0  0
  8  9  2  0  0  0  0
  9 10  1  0  0  0  0
 10 11  2  0  0  0  0
 11 12  1  0  0  0  0
 12 13  1  0  0  0  0
 13 14  2  0  0  0  0
 14 15  1  0  0  0  0
 15 16  2  0  0  0  0
 16 17  1  0  0  0  0
 17 18  1  0  0  0  0
 17 19  1  0  0  0  0
 13 19  1  0  0  0  0
 19 20  2  0  0  0  0
 15 21  1  0  0  0  0
 21 22  2  0  0  0  0
 22 23  1  0  0  0  0
 23 24  1  0  0  0  0
 22 25  1  0  0  0  0
 25 26  2  0  0  0  0
 26 27  1  0  0  0  0
 27 28  2  0  0  0  0
 21 28  1  0  0  0  0
 25 29  1  0  0  0  0
 29 30  1  0  0  0  0
 30 31  1  0  0  0  0
 31 32  1  0  0  0  0
 32 33  1  0  0  0  0
 33 34  2  0  0  0  0
 34 35  1  0  0  0  0
 35 36  2  0  0  0  0
 32 36  1  0  0  0  0
 36 37  1  0  0  0  0
 37 38  1  0  0  0  0
 38 39  1  0  0  0  0
 38 40  1  0  0  0  0
 38 41  1  0  0  0  0
 35 41  1  0  0  0  0
 33 42  1  0  0  0  0
 29 42  1  0  0  0  0
 42 43  2  0  0  0  0
 11 44  1  0  0  0  0
 44 45  2  0  0  0  0
  8 45  1  0  0  0  0
  4 46  1  0  0  0  0
 46 47  1  0  0  0  0
 47 48  1  0  0  0  0
 48 49  1  0  0  0  0
 46 49  1  0  0  0  0
M  END
> <DATABASE_ID>
DB14785

> <DATABASE_NAME>
drugbank

> <SMILES>
C[C@H]1CN(CCN1C1=CC=C(NC2=CC(=CN(C)C2=O)C2=C(CO)C(=NC=C2)N2CCN3C4=C(CC(C)(C)C4)C=C3C2=O)N=C1)C1COC1

> <INCHI_IDENTIFIER>
InChI=1S/C37H44N8O4/c1-23-18-42(27-21-49-22-27)9-10-43(23)26-5-6-33(39-17-26)40-30-13-25(19-41(4)35(30)47)28-7-8-38-34(29(28)20-46)45-12-11-44-31(36(45)48)14-24-15-37(2,3)16-32(24)44/h5-8,13-14,17,19,23,27,46H,9-12,15-16,18,20-22H2,1-4H3,(H,39,40)/t23-/m0/s1

> <INCHI_KEY>
WNEODWDFDXWOLU-QHCPKHFHSA-N

> <FORMULA>
C37H44N8O4

> <MOLECULAR_WEIGHT>
664.811

> <EXACT_MASS>
664.348551929

> <JCHEM_ACCEPTOR_COUNT>
9

> <JCHEM_ATOM_COUNT>
93

> <JCHEM_AVERAGE_POLARIZABILITY>
75.40719111935385

> <JCHEM_BIOAVAILABILITY>
1

> <JCHEM_DONOR_COUNT>
2

> <JCHEM_FORMAL_CHARGE>
0

> <JCHEM_GHOSE_FILTER>
0

> <JCHEM_IUPAC>
10-[3'-(hydroxymethyl)-1-methyl-5-({5-[(2S)-2-methyl-4-(oxetan-3-yl)piperazin-1-yl]pyridin-2-yl}amino)-6-oxo-1,6-dihydro-[3,4'-bipyridin]-2'-yl]-4,4-dimethyl-1,10-diazatricyclo[6.4.0.0^{2,6}]dodeca-2(6),7-dien-9-one

> <ALOGPS_LOGP>
2.82

> <JCHEM_LOGP>
2.509972267666666

> <ALOGPS_LOGS>
-4.07

> <JCHEM_MDDR_LIKE_RULE>
1

> <JCHEM_NUMBER_OF_RINGS>
8

> <JCHEM_PHYSIOLOGICAL_CHARGE>
0

> <JCHEM_PKA>
14.371655685883855

> <JCHEM_PKA_STRONGEST_ACIDIC>
12.919307896783257

> <JCHEM_PKA_STRONGEST_BASIC>
6.381848680809991

> <JCHEM_POLAR_SURFACE_AREA>
119.29999999999998

> <JCHEM_REFRACTIVITY>
192.19799999999995

> <JCHEM_ROTATABLE_BOND_COUNT>
7

> <JCHEM_RULE_OF_FIVE>
0

> <ALOGPS_SOLUBILITY>
5.72e-02 g/l

> <JCHEM_TRADITIONAL_IUPAC>
(2R)-14-fluoro-2-methyl-6,9,10,19-tetraazapentacyclo[14.2.1.0^{2,6}.0^{8,18}.0^{12,17}]nonadeca-1(18),8,12(17),13,15-pentaen-11-one

> <JCHEM_VEBER_RULE>
0

> <DRUGBANK_ID>
DB14785

> <DRUG_GROUPS>
investigational

> <GENERIC_NAME>
Fenebrutinib

> <SYNONYMS>
Fenebrutinib

$$$$
