
  Mrv1652310211604202D          

 74 84  0  0  1  0            999 V2000
    8.5296    1.0336    0.0000 C   0  0  0  0  0  0  0  0  0  0  0  0
    8.9789    1.7255    0.0000 C   0  0  0  0  0  0  0  0  0  0  0  0
    8.6869    2.3780    0.0000 C   0  0  0  0  0  0  0  0  0  0  0  0
    9.8028    1.6823    0.0000 C   0  0  1  0  0  0  0  0  0  0  0  0
   10.2521    2.3742    0.0000 C   0  0  0  0  0  0  0  0  0  0  0  0
   11.0760    2.3310    0.0000 O   0  0  0  0  0  0  0  0  0  0  0  0
    9.8776    3.1093    0.0000 N   0  0  0  0  0  0  0  0  0  0  0  0
   10.2521    3.8443    0.0000 C   0  0  1  0  0  0  0  0  0  0  0  0
   11.0490    4.0579    0.0000 C   0  0  0  0  0  0  0  0  0  0  0  0
   11.2625    4.8548    0.0000 C   0  0  0  0  0  0  0  0  0  0  0  0
   10.6792    5.4381    0.0000 C   0  0  0  0  0  0  0  0  0  0  0  0
    9.8823    5.2246    0.0000 C   0  0  0  0  0  0  0  0  0  0  0  0
    9.6687    4.4277    0.0000 C   0  0  1  0  0  0  0  0  0  0  0  0
    8.9337    4.0532    0.0000 C   0  0  0  0  0  0  0  0  0  0  0  0
    9.0627    3.2383    0.0000 C   0  0  1  0  0  0  0  0  0  0  0  0
    8.4794    2.6550    0.0000 C   0  0  0  0  0  0  0  0  0  0  0  0
    7.6645    2.7840    0.0000 N   0  0  0  0  0  0  0  0  0  0  0  0
    7.2900    2.0489    0.0000 C   0  0  0  0  0  0  0  0  0  0  0  0
    6.4931    1.8354    0.0000 C   0  0  0  0  0  0  0  0  0  0  0  0
    6.2796    1.0385    0.0000 C   0  0  0  0  0  0  0  0  0  0  0  0
    6.8629    0.4552    0.0000 C   0  0  0  0  0  0  0  0  0  0  0  0
    7.6598    0.6687    0.0000 C   0  0  0  0  0  0  0  0  0  0  0  0
    7.8733    1.4656    0.0000 C   0  0  0  0  0  0  0  0  0  0  0  0
    8.6084    1.8401    0.0000 N   0  0  0  0  0  0  0  0  0  0  0  0
    5.4827    0.8250    0.0000 C   0  0  0  0  0  0  0  0  0  0  0  0
    5.4827    0.0000    0.0000 C   0  0  0  0  0  0  0  0  0  0  0  0
    5.0702   -0.7145    0.0000 C   0  0  0  0  0  0  0  0  0  0  0  0
    4.8823    0.0368    0.0000 C   0  0  0  0  0  0  0  0  0  0  0  0
    4.8823    0.7882    0.0000 C   0  0  0  0  0  0  0  0  0  0  0  0
    5.0702    1.5395    0.0000 C   0  0  0  0  0  0  0  0  0  0  0  0
    4.3557    1.9520    0.0000 C   0  0  0  0  0  0  0  0  0  0  0  0
    3.5307    1.9520    0.0000 C   0  0  0  0  0  0  0  0  0  0  0  0
    2.8162    1.5395    0.0000 C   0  0  0  0  0  0  0  0  0  0  0  0
    3.0041    0.7882    0.0000 C   0  0  0  0  0  0  0  0  0  0  0  0
    3.0041    0.0368    0.0000 C   0  0  0  0  0  0  0  0  0  0  0  0
    2.8162   -0.7145    0.0000 C   0  0  0  0  0  0  0  0  0  0  0  0
    2.4037    0.0000    0.0000 C   0  0  0  0  0  0  0  0  0  0  0  0
    2.4037    0.8250    0.0000 C   0  0  0  0  0  0  0  0  0  0  0  0
    1.6068   -0.2135    0.0000 C   0  0  0  0  0  0  0  0  0  0  0  0
    1.0235    0.3698    0.0000 C   0  0  0  0  0  0  0  0  0  0  0  0
    0.2266    0.1563    0.0000 C   0  0  0  0  0  0  0  0  0  0  0  0
    0.0131   -0.6406    0.0000 C   0  0  0  0  0  0  0  0  0  0  0  0
    0.5964   -1.2239    0.0000 C   0  0  0  0  0  0  0  0  0  0  0  0
    1.3933   -1.0104    0.0000 C   0  0  0  0  0  0  0  0  0  0  0  0
    0.2219   -1.9590    0.0000 N   0  0  0  0  0  0  0  0  0  0  0  0
   -0.5930   -1.8300    0.0000 C   0  0  0  0  0  0  0  0  0  0  0  0
   -0.7220   -1.0151    0.0000 N   0  0  0  0  0  0  0  0  0  0  0  0
   -1.1763   -2.4133    0.0000 C   0  0  2  0  0  0  0  0  0  0  0  0
   -1.0473   -3.2282    0.0000 C   0  0  0  0  0  0  0  0  0  0  0  0
   -1.7824   -3.6027    0.0000 C   0  0  2  0  0  0  0  0  0  0  0  0
   -1.9959   -4.3996    0.0000 C   0  0  0  0  0  0  0  0  0  0  0  0
   -2.7928   -4.6131    0.0000 C   0  0  0  0  0  0  0  0  0  0  0  0
   -3.3761   -4.0298    0.0000 C   0  0  0  0  0  0  0  0  0  0  0  0
   -3.1626   -3.2329    0.0000 C   0  0  0  0  0  0  0  0  0  0  0  0
   -2.3657   -3.0193    0.0000 C   0  0  2  0  0  0  0  0  0  0  0  0
   -1.9912   -2.2843    0.0000 N   0  0  0  0  0  0  0  0  0  0  0  0
   -2.3657   -1.5492    0.0000 C   0  0  0  0  0  0  0  0  0  0  0  0
   -1.9164   -0.8573    0.0000 O   0  0  0  0  0  0  0  0  0  0  0  0
   -3.1896   -1.5060    0.0000 C   0  0  2  0  0  0  0  0  0  0  0  0
   -3.6389   -2.1979    0.0000 C   0  0  0  0  0  0  0  0  0  0  0  0
   -3.2644   -2.9330    0.0000 C   0  0  0  0  0  0  0  0  0  0  0  0
   -4.4628   -2.1547    0.0000 C   0  0  0  0  0  0  0  0  0  0  0  0
   -3.5641   -0.7709    0.0000 N   0  0  0  0  0  0  0  0  0  0  0  0
   -4.3880   -0.7278    0.0000 C   0  0  0  0  0  0  0  0  0  0  0  0
   -4.8373   -1.4197    0.0000 O   0  0  0  0  0  0  0  0  0  0  0  0
   -4.7625    0.0073    0.0000 O   0  0  0  0  0  0  0  0  0  0  0  0
   -5.5864    0.0505    0.0000 C   0  0  0  0  0  0  0  0  0  0  0  0
    3.5307   -1.1270    0.0000 C   0  0  0  0  0  0  0  0  0  0  0  0
    4.3557   -1.1270    0.0000 C   0  0  0  0  0  0  0  0  0  0  0  0
   10.1773    0.9472    0.0000 N   0  0  0  0  0  0  0  0  0  0  0  0
    9.7280    0.2553    0.0000 C   0  0  0  0  0  0  0  0  0  0  0  0
    8.9041    0.2985    0.0000 O   0  0  0  0  0  0  0  0  0  0  0  0
   10.1025   -0.4798    0.0000 O   0  0  0  0  0  0  0  0  0  0  0  0
   10.9264   -0.5230    0.0000 C   0  0  0  0  0  0  0  0  0  0  0  0
  1  2  1  0  0  0  0
  2  3  1  0  0  0  0
  2  4  1  0  0  0  0
  4  5  1  0  0  0  0
  5  6  2  0  0  0  0
  5  7  1  0  0  0  0
  8  7  1  6  0  0  0
  8  9  1  0  0  0  0
  9 10  1  0  0  0  0
 10 11  1  0  0  0  0
 11 12  1  0  0  0  0
 12 13  1  0  0  0  0
  8 13  1  0  0  0  0
 13 14  1  6  0  0  0
 14 15  1  0  0  0  0
  7 15  1  0  0  0  0
 15 16  1  6  0  0  0
 16 17  1  0  0  0  0
 17 18  1  0  0  0  0
 18 19  2  0  0  0  0
 19 20  1  0  0  0  0
 20 21  2  0  0  0  0
 21 22  1  0  0  0  0
 22 23  2  0  0  0  0
 18 23  1  0  0  0  0
 23 24  1  0  0  0  0
 16 24  2  0  0  0  0
 20 25  1  0  0  0  0
 25 26  2  0  0  0  0
 26 27  1  0  0  0  0
 27 28  2  0  0  0  0
 28 29  1  0  0  0  0
 29 30  2  0  0  0  0
 25 30  1  0  0  0  0
 30 31  1  0  0  0  0
 31 32  1  0  0  0  0
 32 33  1  0  0  0  0
 33 34  2  0  0  0  0
 34 35  1  0  0  0  0
 35 36  2  0  0  0  0
 36 37  1  0  0  0  0
 37 38  2  0  0  0  0
 33 38  1  0  0  0  0
 37 39  1  0  0  0  0
 39 40  2  0  0  0  0
 40 41  1  0  0  0  0
 41 42  2  0  0  0  0
 42 43  1  0  0  0  0
 43 44  2  0  0  0  0
 39 44  1  0  0  0  0
 43 45  1  0  0  0  0
 45 46  1  0  0  0  0
 46 47  2  0  0  0  0
 42 47  1  0  0  0  0
 48 46  1  6  0  0  0
 48 49  1  0  0  0  0
 50 49  1  6  0  0  0
 50 51  1  0  0  0  0
 51 52  1  0  0  0  0
 52 53  1  0  0  0  0
 53 54  1  0  0  0  0
 54 55  1  0  0  0  0
 50 55  1  0  0  0  0
 55 56  1  6  0  0  0
 48 56  1  0  0  0  0
 56 57  1  0  0  0  0
 57 58  2  0  0  0  0
 57 59  1  0  0  0  0
 59 60  1  0  0  0  0
 60 61  1  0  0  0  0
 60 62  1  0  0  0  0
 59 63  1  6  0  0  0
 63 64  1  0  0  0  0
 64 65  2  0  0  0  0
 64 66  1  0  0  0  0
 66 67  1  0  0  0  0
 36 68  1  0  0  0  0
 68 69  1  0  0  0  0
 27 69  1  0  0  0  0
  4 70  1  1  0  0  0
 70 71  1  0  0  0  0
 71 72  2  0  0  0  0
 71 73  1  0  0  0  0
 73 74  1  0  0  0  0
M  END
> <DATABASE_ID>
DB13041

> <DATABASE_NAME>
drugbank

> <SMILES>
COC(=O)N[C@@H](C(C)C)C(=O)N1[C@@H](C[C@@H]2CCCC[C@H]12)C1=NC2=CC=C(C=C2N1)C1=CC2=CC=C1CCC1=CC=C(CC2)C(=C1)C1=CC=C2N=C(NC2=C1)[C@@H]1C[C@@H]2CCCC[C@@H]2N1C(=O)[C@@H](NC(=O)OC)C(C)C

> <INCHI_IDENTIFIER>
InChI=1S/C60H72N8O6/c1-33(2)53(65-59(71)73-5)57(69)67-49-13-9-7-11-41(49)31-51(67)55-61-45-25-23-39(29-47(45)63-55)43-27-35-15-19-37(43)21-17-36-16-20-38(22-18-35)44(28-36)40-24-26-46-48(30-40)64-56(62-46)52-32-42-12-8-10-14-50(42)68(52)58(70)54(34(3)4)66-60(72)74-6/h15-16,19-20,23-30,33-34,41-42,49-54H,7-14,17-18,21-22,31-32H2,1-6H3,(H,61,63)(H,62,64)(H,65,71)(H,66,72)/t41-,42-,49-,50-,51-,52-,53-,54-/m0/s1

> <INCHI_KEY>
LSYBRGMTRKJATA-IVEWBXRVSA-N

> <FORMULA>
C60H72N8O6

> <MOLECULAR_WEIGHT>
1001.286

> <EXACT_MASS>
1000.55748207

> <JCHEM_ACCEPTOR_COUNT>
6

> <JCHEM_ATOM_COUNT>
146

> <JCHEM_AVERAGE_POLARIZABILITY>
112.35383455444097

> <JCHEM_BIOAVAILABILITY>
0

> <JCHEM_DONOR_COUNT>
4

> <JCHEM_FORMAL_CHARGE>
0

> <JCHEM_GHOSE_FILTER>
0

> <JCHEM_IUPAC>
methyl N-[(2S)-1-[(2S,3aS,7aS)-2-[6-(14-{2-[(2S,3aS,7aS)-1-[(2S)-2-[(methoxycarbonyl)amino]-3-methylbutanoyl]-octahydro-1H-indol-2-yl]-1H-1,3-benzodiazol-6-yl}tricyclo[8.2.2.2^{4,7}]hexadeca-1(12),4(16),5,7(15),10,13-hexaen-5-yl)-1H-1,3-benzodiazol-2-yl]-octahydro-1H-indol-1-yl]-3-methyl-1-oxobutan-2-yl]carbamate

> <ALOGPS_LOGP>
7.68

> <JCHEM_LOGP>
11.168475832666669

> <ALOGPS_LOGS>
-6.01

> <JCHEM_MDDR_LIKE_RULE>
1

> <JCHEM_NUMBER_OF_RINGS>
11

> <JCHEM_PHYSIOLOGICAL_CHARGE>
0

> <JCHEM_PKA>
11.54035151660243

> <JCHEM_PKA_STRONGEST_ACIDIC>
10.940655177344752

> <JCHEM_PKA_STRONGEST_BASIC>
5.2537045871421

> <JCHEM_POLAR_SURFACE_AREA>
174.63999999999996

> <JCHEM_REFRACTIVITY>
283.88380000000006

> <JCHEM_ROTATABLE_BOND_COUNT>
12

> <JCHEM_RULE_OF_FIVE>
0

> <ALOGPS_SOLUBILITY>
9.69e-04 g/l

> <JCHEM_TRADITIONAL_IUPAC>
methyl N-[(2S)-1-[(2S,3aS,7aS)-2-[5-(14-{2-[(2S,3aS,7aS)-1-[(2S)-2-[(methoxycarbonyl)amino]-3-methylbutanoyl]-octahydroindol-2-yl]-3H-1,3-benzodiazol-5-yl}tricyclo[8.2.2.2^{4,7}]hexadeca-1(12),4(16),5,7(15),10,13-hexaen-5-yl)-3H-1,3-benzodiazol-2-yl]-octahydroindol-1-yl]-3-methyl-1-oxobutan-2-yl]carbamate

> <JCHEM_VEBER_RULE>
0

> <DRUGBANK_ID>
DB13041

> <DRUG_GROUPS>
investigational

> <GENERIC_NAME>
Odalasvir

> <SYNONYMS>
Odalasvir

$$$$
