
  Mrv1909 05201915172D          

 33 38  0  0  1  0            999 V2000
    0.2702    0.6287    0.0000 F   0  0  0  0  0  0  0  0  0  0  0  0
    0.9377    0.1437    0.0000 C   0  0  0  0  0  0  0  0  0  0  0  0
    1.6913    0.4793    0.0000 C   0  0  0  0  0  0  0  0  0  0  0  0
    1.9463    1.2639    0.0000 C   0  0  2  0  0  0  0  0  0  0  0  0
    1.4614    1.9314    0.0000 C   0  0  0  0  0  0  0  0  0  0  0  0
    1.7969    2.6850    0.0000 N   0  0  0  0  0  0  0  0  0  0  0  0
    1.3120    3.3525    0.0000 C   0  0  0  0  0  0  0  0  0  0  0  0
    1.6475    4.1062    0.0000 C   0  0  0  0  0  0  0  0  0  0  0  0
    2.4680    4.1924    0.0000 C   0  0  0  0  0  0  0  0  0  0  0  0
    2.9530    3.5250    0.0000 C   0  0  0  0  0  0  0  0  0  0  0  0
    2.6174    2.7713    0.0000 C   0  0  0  0  0  0  0  0  0  0  0  0
    2.8036    4.9461    0.0000 N   0  0  0  0  0  0  0  0  0  0  0  0
    3.6241    5.0323    0.0000 C   0  0  0  0  0  0  0  0  0  0  0  0
    3.9596    5.7860    0.0000 C   0  0  0  0  0  0  0  0  0  0  0  0
    3.4747    6.4534    0.0000 N   0  0  0  0  0  0  0  0  0  0  0  0
    3.8103    7.2071    0.0000 N   0  0  0  0  0  0  0  0  0  0  0  0
    4.6307    7.2933    0.0000 C   0  0  0  0  0  0  0  0  0  0  0  0
    4.9663    8.0470    0.0000 O   0  0  0  0  0  0  0  0  0  0  0  0
    5.7868    8.1332    0.0000 C   0  0  0  0  0  0  0  0  0  0  0  0
    6.2717    7.4658    0.0000 C   0  0  0  0  0  0  0  0  0  0  0  0
    5.9361    6.7121    0.0000 O   0  0  0  0  0  0  0  0  0  0  0  0
    5.1157    6.6259    0.0000 C   0  0  0  0  0  0  0  0  0  0  0  0
    4.7801    5.8722    0.0000 C   0  0  0  0  0  0  0  0  0  0  0  0
    2.7713    1.2639    0.0000 C   0  0  0  0  0  0  0  0  0  0  0  0
    3.0262    0.4793    0.0000 N   0  0  0  0  0  0  0  0  0  0  0  0
    2.3588   -0.0056    0.0000 C   0  0  0  0  0  0  0  0  0  0  0  0
    2.2725   -0.8261    0.0000 C   0  0  0  0  0  0  0  0  0  0  0  0
    3.1987   -1.1617    0.0000 C   0  0  0  0  0  0  0  0  0  0  0  0
    3.8661   -0.6767    0.0000 C   0  0  0  0  0  0  0  0  0  0  0  0
    3.7799    0.1437    0.0000 C   0  0  0  0  0  0  0  0  0  0  0  0
    4.4473    0.6287    0.0000 O   0  0  0  0  0  0  0  0  0  0  0  0
    1.5189   -1.1617    0.0000 C   0  0  0  0  0  0  0  0  0  0  0  0
    0.8514   -0.6767    0.0000 C   0  0  0  0  0  0  0  0  0  0  0  0
  1  2  1  0  0  0  0
  2  3  2  0  0  0  0
  4  3  1  0  0  0  0
  4  5  1  6  0  0  0
  5  6  1  0  0  0  0
  6  7  1  0  0  0  0
  7  8  1  0  0  0  0
  8  9  1  0  0  0  0
  9 10  1  0  0  0  0
 10 11  1  0  0  0  0
  6 11  1  0  0  0  0
  9 12  1  0  0  0  0
 12 13  1  0  0  0  0
 13 14  1  0  0  0  0
 14 15  2  0  0  0  0
 15 16  1  0  0  0  0
 16 17  2  0  0  0  0
 17 18  1  0  0  0  0
 18 19  1  0  0  0  0
 19 20  1  0  0  0  0
 20 21  1  0  0  0  0
 21 22  1  0  0  0  0
 17 22  1  0  0  0  0
 22 23  2  0  0  0  0
 14 23  1  0  0  0  0
  4 24  1  0  0  0  0
 24 25  1  0  0  0  0
 25 26  1  0  0  0  0
  3 26  1  0  0  0  0
 26 27  2  0  0  0  0
 27 28  1  0  0  0  0
 28 29  2  0  0  0  0
 29 30  1  0  0  0  0
 25 30  1  0  0  0  0
 30 31  2  0  0  0  0
 27 32  1  0  0  0  0
 32 33  2  0  0  0  0
  2 33  1  0  0  0  0
M  END
> <DATABASE_ID>
DB15345

> <DATABASE_NAME>
drugbank

> <SMILES>
FC1=C2[C@H](CN3CCC(CC3)NCC3=NN=C4OCCOC4=C3)CN3C2=C(C=C1)C=CC3=O

> <INCHI_IDENTIFIER>
InChI=1S/C24H26FN5O3/c25-19-3-1-15-2-4-21(31)30-14-16(22(19)23(15)30)13-29-7-5-17(6-8-29)26-12-18-11-20-24(28-27-18)33-10-9-32-20/h1-4,11,16-17,26H,5-10,12-14H2/t16-/m1/s1

> <INCHI_KEY>
SRICOHRDRMZREQ-MRXNPFEDSA-N

> <FORMULA>
C24H26FN5O3

> <MOLECULAR_WEIGHT>
451.502

> <EXACT_MASS>
451.20196788

> <JCHEM_ACCEPTOR_COUNT>
7

> <JCHEM_ATOM_COUNT>
59

> <JCHEM_AVERAGE_POLARIZABILITY>
47.90183911412655

> <JCHEM_BIOAVAILABILITY>
1

> <JCHEM_DONOR_COUNT>
1

> <JCHEM_FORMAL_CHARGE>
0

> <JCHEM_GHOSE_FILTER>
1

> <JCHEM_IUPAC>
(3R)-3-({4-[({6H,7H-[1,4]dioxino[2,3-c]pyridazin-3-yl}methyl)amino]piperidin-1-yl}methyl)-5-fluoro-1-azatricyclo[6.3.1.0^{4,12}]dodeca-4,6,8(12),9-tetraen-11-one

> <ALOGPS_LOGP>
1.41

> <JCHEM_LOGP>
0.6822471980000012

> <ALOGPS_LOGS>
-3.57

> <JCHEM_MDDR_LIKE_RULE>
0

> <JCHEM_NUMBER_OF_RINGS>
6

> <JCHEM_PHYSIOLOGICAL_CHARGE>
1

> <JCHEM_PKA_STRONGEST_BASIC>
8.385178185582847

> <JCHEM_POLAR_SURFACE_AREA>
79.82000000000001

> <JCHEM_REFRACTIVITY>
123.17349999999998

> <JCHEM_ROTATABLE_BOND_COUNT>
5

> <JCHEM_RULE_OF_FIVE>
1

> <ALOGPS_SOLUBILITY>
1.20e-01 g/l

> <JCHEM_TRADITIONAL_IUPAC>
(2R)-14-fluoro-2-methyl-6,9,10,19-tetraazapentacyclo[14.2.1.0^{2,6}.0^{8,18}.0^{12,17}]nonadeca-1(18),8,12(17),13,15-pentaen-11-one

> <JCHEM_VEBER_RULE>
0

> <DRUGBANK_ID>
DB15345

> <DRUG_GROUPS>
investigational

> <GENERIC_NAME>
GSK-945237

$$$$
