
  Mrv1652306131722052D          

 16 12  0  0  0  0            999 V2000
    1.3480    1.1270    0.0000 C   0  0  0  0  0  0  0  0  0  0  0  0
    1.3480    1.9520    0.0000 C   0  0  0  0  0  0  0  0  0  0  0  0
    2.0625    2.3645    0.0000 O   0  0  0  0  0  0  0  0  0  0  0  0
    0.6336    2.3645    0.0000 O   0  5  0  0  0  0  0  0  0  0  0  0
    2.0625    0.7145    0.0000 C   0  0  0  0  0  0  0  0  0  0  0  0
    2.7770    0.3020    0.0000 C   0  0  0  0  0  0  0  0  0  0  0  0
    3.4914    0.7145    0.0000 C   0  0  0  0  0  0  0  0  0  0  0  0
    3.4914    1.5395    0.0000 O   0  0  0  0  0  0  0  0  0  0  0  0
    4.2059    0.3020    0.0000 O   0  5  0  0  0  0  0  0  0  0  0  0
    1.6500    0.0000    0.0000 C   0  0  0  0  0  0  0  0  0  0  0  0
    2.0625   -0.7145    0.0000 O   0  0  0  0  0  0  0  0  0  0  0  0
    0.8250    0.0000    0.0000 O   0  5  0  0  0  0  0  0  0  0  0  0
    2.4750    1.4289    0.0000 O   0  0  0  0  0  0  0  0  0  0  0  0
   -0.0809    2.7770    0.0000 Ag  0  3  0  0  0  0  0  0  0  0  0  0
    4.9204   -0.1105    0.0000 Ag  0  3  0  0  0  0  0  0  0  0  0  0
    0.0000    0.0000    0.0000 Ag  0  3  0  0  0  0  0  0  0  0  0  0
  1  2  1  0  0  0  0
  2  3  2  0  0  0  0
  2  4  1  0  0  0  0
  1  5  1  0  0  0  0
  5  6  1  0  0  0  0
  6  7  1  0  0  0  0
  7  8  2  0  0  0  0
  7  9  1  0  0  0  0
  5 10  1  0  0  0  0
 10 11  2  0  0  0  0
 10 12  1  0  0  0  0
  5 13  1  0  0  0  0
M  CHG  6   4  -1   9  -1  12  -1  14   1  15   1  16   1
M  END
> <DATABASE_ID>
DB11233

> <DATABASE_NAME>
drugbank

> <SMILES>
[Ag+].[Ag+].[Ag+].OC(CC([O-])=O)(CC([O-])=O)C([O-])=O

> <INCHI_IDENTIFIER>
InChI=1S/C6H8O7.3Ag/c7-3(8)1-6(13,5(11)12)2-4(9)10;;;/h13H,1-2H2,(H,7,8)(H,9,10)(H,11,12);;;/q;3*+1/p-3

> <INCHI_KEY>
QUTYHQJYVDNJJA-UHFFFAOYSA-K

> <FORMULA>
C6H5Ag3O7

> <MOLECULAR_WEIGHT>
512.704

> <EXACT_MASS>
509.7188

> <JCHEM_ACCEPTOR_COUNT>
7

> <JCHEM_ATOM_COUNT>
21

> <JCHEM_AVERAGE_POLARIZABILITY>
14.225921410589983

> <JCHEM_BIOAVAILABILITY>
1

> <JCHEM_DONOR_COUNT>
1

> <JCHEM_FORMAL_CHARGE>
0

> <JCHEM_GHOSE_FILTER>
0

> <JCHEM_IUPAC>
trisilver(1+) ion 2-hydroxypropane-1,2,3-tricarboxylate

> <ALOGPS_LOGP>
-0.63

> <JCHEM_LOGP>
-1.3226874519999998

> <ALOGPS_LOGS>
-0.93

> <JCHEM_MDDR_LIKE_RULE>
0

> <JCHEM_NUMBER_OF_RINGS>
0

> <JCHEM_PHYSIOLOGICAL_CHARGE>
-3

> <JCHEM_PKA>
4.674836176324

> <JCHEM_PKA_STRONGEST_ACIDIC>
3.0479515131680732

> <JCHEM_PKA_STRONGEST_BASIC>
-4.185693450231931

> <JCHEM_POLAR_SURFACE_AREA>
140.61999999999998

> <JCHEM_REFRACTIVITY>
68.13520000000001

> <JCHEM_ROTATABLE_BOND_COUNT>
5

> <JCHEM_RULE_OF_FIVE>
0

> <ALOGPS_SOLUBILITY>
6.01e+01 g/l

> <JCHEM_TRADITIONAL_IUPAC>
trisilver(1+) ion citrate

> <JCHEM_VEBER_RULE>
0

> <DRUGBANK_ID>
DB11233

> <DRUG_GROUPS>
experimental

> <GENERIC_NAME>
Silver citrate

> <SYNONYMS>
2-hydroxy-1,2,3-propanetricarboxylic acid silver salt; Trisilver citrate

> <PRODUCTS>
All-Natural Pen Spray

$$$$
