
  Mrv1652306131722012D          

 37 41  0  0  1  0            999 V2000
    9.1524    2.5525    0.0000 C   0  0  0  0  0  0  0  0  0  0  0  0
    8.6004    1.9394    0.0000 C   0  0  0  0  0  0  0  0  0  0  0  0
    7.7934    2.1109    0.0000 C   0  0  0  0  0  0  0  0  0  0  0  0
    7.2413    1.4978    0.0000 O   0  0  0  0  0  0  0  0  0  0  0  0
    6.4344    1.6693    0.0000 C   0  0  0  0  0  0  0  0  0  0  0  0
    5.8823    1.0562    0.0000 C   0  0  0  0  0  0  0  0  0  0  0  0
    5.0754    1.2278    0.0000 C   0  0  0  0  0  0  0  0  0  0  0  0
    4.8204    2.0124    0.0000 C   0  0  0  0  0  0  0  0  0  0  0  0
    5.3725    2.6255    0.0000 C   0  0  0  0  0  0  0  0  0  0  0  0
    6.1794    2.4540    0.0000 C   0  0  0  0  0  0  0  0  0  0  0  0
    4.9600    3.3400    0.0000 C   0  0  2  0  0  0  0  0  0  0  0  0
    4.1530    3.1684    0.0000 C   0  0  1  0  0  0  0  0  0  0  0  0
    4.0668    2.3479    0.0000 C   0  0  1  0  0  0  0  0  0  0  0  0
    3.3523    1.9354    0.0000 C   0  0  0  0  0  0  0  0  0  0  0  0
    3.3523    1.1104    0.0000 C   0  0  0  0  0  0  0  0  0  0  0  0
    2.6378    0.6979    0.0000 C   0  0  0  0  0  0  0  0  0  0  0  0
    1.9233    1.1104    0.0000 C   0  0  0  0  0  0  0  0  0  0  0  0
    1.9233    1.9354    0.0000 C   0  0  0  0  0  0  0  0  0  0  0  0
    2.6378    2.3479    0.0000 C   0  0  0  0  0  0  0  0  0  0  0  0
    1.1387    2.1904    0.0000 O   0  0  0  0  0  0  0  0  0  0  0  0
    0.6538    1.5229    0.0000 C   0  0  0  0  0  0  0  0  0  0  0  0
    1.1387    0.8555    0.0000 O   0  0  0  0  0  0  0  0  0  0  0  0
    3.5399    3.7205    0.0000 C   0  0  0  0  0  0  0  0  0  0  0  0
    2.7553    3.4655    0.0000 O   0  0  0  0  0  0  0  0  0  0  0  0
    3.7114    4.5274    0.0000 O   0  0  0  0  0  0  0  0  0  0  0  0
    5.2955    4.0936    0.0000 C   0  0  0  0  0  0  0  0  0  0  0  0
    4.8106    4.7611    0.0000 C   0  0  0  0  0  0  0  0  0  0  0  0
    5.1462    5.5147    0.0000 C   0  0  0  0  0  0  0  0  0  0  0  0
    5.9666    5.6010    0.0000 C   0  0  0  0  0  0  0  0  0  0  0  0
    6.4516    4.9335    0.0000 C   0  0  0  0  0  0  0  0  0  0  0  0
    6.1160    4.1799    0.0000 C   0  0  0  0  0  0  0  0  0  0  0  0
    6.6009    3.5124    0.0000 O   0  0  0  0  0  0  0  0  0  0  0  0
    7.4214    3.5987    0.0000 C   0  0  0  0  0  0  0  0  0  0  0  0
    7.7570    4.3523    0.0000 C   0  0  0  0  0  0  0  0  0  0  0  0
    8.5774    4.4386    0.0000 O   0  0  0  0  0  0  0  0  0  0  0  0
    6.3022    6.3547    0.0000 O   0  0  0  0  0  0  0  0  0  0  0  0
    7.1227    6.4409    0.0000 C   0  0  0  0  0  0  0  0  0  0  0  0
  1  2  1  0  0  0  0
  2  3  1  0  0  0  0
  3  4  1  0  0  0  0
  4  5  1  0  0  0  0
  5  6  2  0  0  0  0
  6  7  1  0  0  0  0
  7  8  2  0  0  0  0
  8  9  1  0  0  0  0
  9 10  2  0  0  0  0
  5 10  1  0  0  0  0
  9 11  1  0  0  0  0
 11 12  1  0  0  0  0
 12 13  1  0  0  0  0
  8 13  1  0  0  0  0
 13 14  1  6  0  0  0
 14 15  2  0  0  0  0
 15 16  1  0  0  0  0
 16 17  2  0  0  0  0
 17 18  1  0  0  0  0
 18 19  2  0  0  0  0
 14 19  1  0  0  0  0
 18 20  1  0  0  0  0
 20 21  1  0  0  0  0
 21 22  1  0  0  0  0
 17 22  1  0  0  0  0
 12 23  1  1  0  0  0
 23 24  2  0  0  0  0
 23 25  1  0  0  0  0
 11 26  1  6  0  0  0
 26 27  2  0  0  0  0
 27 28  1  0  0  0  0
 28 29  2  0  0  0  0
 29 30  1  0  0  0  0
 30 31  2  0  0  0  0
 26 31  1  0  0  0  0
 31 32  1  0  0  0  0
 32 33  1  0  0  0  0
 33 34  1  0  0  0  0
 34 35  1  0  0  0  0
 29 36  1  0  0  0  0
 36 37  1  0  0  0  0
M  END
> <DATABASE_ID>
DB06460

> <DATABASE_NAME>
drugbank

> <SMILES>
CCCOC1=CC=C2[C@@H]([C@H]([C@@H](C2=C1)C1=CC=C(OC)C=C1OCCO)C(O)=O)C1=CC=C2OCOC2=C1

> <INCHI_IDENTIFIER>
InChI=1S/C29H30O8/c1-3-11-34-19-6-7-20-22(14-19)27(21-8-5-18(33-2)15-24(21)35-12-10-30)28(29(31)32)26(20)17-4-9-23-25(13-17)37-16-36-23/h4-9,13-15,26-28,30H,3,10-12,16H2,1-2H3,(H,31,32)/t26-,27+,28+/m0/s1

> <INCHI_KEY>
GLCKXJLCYIJMRB-UPRLRBBYSA-N

> <FORMULA>
C29H30O8

> <MOLECULAR_WEIGHT>
506.551

> <EXACT_MASS>
506.194067926

> <JCHEM_ACCEPTOR_COUNT>
8

> <JCHEM_ATOM_COUNT>
67

> <JCHEM_AVERAGE_POLARIZABILITY>
53.63718999269595

> <JCHEM_BIOAVAILABILITY>
1

> <JCHEM_DONOR_COUNT>
2

> <JCHEM_FORMAL_CHARGE>
0

> <JCHEM_GHOSE_FILTER>
0

> <JCHEM_IUPAC>
(1S,2R,3S)-1-(2H-1,3-benzodioxol-5-yl)-3-[2-(2-hydroxyethoxy)-4-methoxyphenyl]-5-propoxy-2,3-dihydro-1H-indene-2-carboxylic acid

> <ALOGPS_LOGP>
4.81

> <JCHEM_LOGP>
4.384770016666666

> <ALOGPS_LOGS>
-5.07

> <JCHEM_MDDR_LIKE_RULE>
1

> <JCHEM_NUMBER_OF_RINGS>
5

> <JCHEM_PHYSIOLOGICAL_CHARGE>
-1

> <JCHEM_PKA>
15.102150914149632

> <JCHEM_PKA_STRONGEST_ACIDIC>
3.7102816197382498

> <JCHEM_PKA_STRONGEST_BASIC>
-2.7541191927010624

> <JCHEM_POLAR_SURFACE_AREA>
103.68000000000002

> <JCHEM_REFRACTIVITY>
135.18769999999998

> <JCHEM_ROTATABLE_BOND_COUNT>
10

> <JCHEM_RULE_OF_FIVE>
0

> <ALOGPS_SOLUBILITY>
4.34e-03 g/l

> <JCHEM_TRADITIONAL_IUPAC>
(1S,2R,3S)-1-(2H-1,3-benzodioxol-5-yl)-3-[2-(2-hydroxyethoxy)-4-methoxyphenyl]-5-propoxy-2,3-dihydro-1H-indene-2-carboxylic acid

> <JCHEM_VEBER_RULE>
0

> <DRUGBANK_ID>
DB06460

> <DRUG_GROUPS>
investigational

> <GENERIC_NAME>
Enrasentan

> <SYNONYMS>
Enrasentan

$$$$
