
  Mrv1909 09102020232D          

 31 34  0  0  0  0            999 V2000
    3.3741   -0.7181    0.0000 C   0  0  1  0  0  0  0  0  0  0  0  0
    4.1274   -0.3818    0.0000 O   0  0  0  0  0  0  0  0  0  0  0  0
    4.6794   -0.9952    0.0000 C   0  0  0  0  0  0  0  0  0  0  0  0
    4.2664   -1.7096    0.0000 C   0  0  0  0  0  0  0  0  0  0  0  0
    3.4596   -1.5376    0.0000 C   0  0  0  0  0  0  0  0  0  0  0  0
    0.4088   -0.2978    0.0000 C   0  0  0  0  0  0  0  0  0  0  0  0
    0.4144    0.5272    0.0000 C   0  0  2  0  0  0  0  0  0  0  0  0
    1.2338   -0.3034    0.0000 N   0  0  0  0  0  0  0  0  0  0  0  0
    1.2350    0.5217    0.0000 C   0  0  2  0  0  0  0  0  0  0  0  0
    1.9461    0.9311    0.0000 S   0  0  0  0  0  0  0  0  0  0  0  0
    2.6608    0.5197    0.0000 C   0  0  0  0  0  0  0  0  0  0  0  0
    2.6597   -0.3053    0.0000 C   0  0  0  0  0  0  0  0  0  0  0  0
    1.9439   -0.7192    0.0000 C   0  0  0  0  0  0  0  0  0  0  0  0
   -0.4136    0.5300    0.0000 N   0  0  0  0  0  0  0  0  0  0  0  0
   -2.5537    0.9587    0.0000 C   0  0  0  0  0  0  0  0  0  0  0  0
   -1.8422    0.5427    0.0000 C   0  0  0  0  0  0  0  0  0  0  0  0
   -1.1250    0.9490    0.0000 C   0  0  0  0  0  0  0  0  0  0  0  0
   -3.3102    0.6317    0.0000 N   0  0  0  0  0  0  0  0  0  0  0  0
   -3.8583    1.2472    0.0000 C   0  0  0  0  0  0  0  0  0  0  0  0
   -3.4423    1.9588    0.0000 S   0  0  0  0  0  0  0  0  0  0  0  0
   -2.6372    1.7830    0.0000 C   0  0  0  0  0  0  0  0  0  0  0  0
   -4.6794    1.1655    0.0000 N   0  0  0  0  0  0  0  0  0  0  0  0
   -1.8478   -0.2824    0.0000 N   0  0  0  0  0  0  0  0  0  0  0  0
   -1.1359   -0.6998    0.0000 O   0  0  0  0  0  0  0  0  0  0  0  0
   -1.1417   -1.5248    0.0000 C   0  0  0  0  0  0  0  0  0  0  0  0
   -0.1785   -0.8771    0.0000 O   0  0  0  0  0  0  0  0  0  0  0  0
   -1.1181    1.7740    0.0000 O   0  0  0  0  0  0  0  0  0  0  0  0
    1.9417   -1.5442    0.0000 C   0  0  0  0  0  0  0  0  0  0  0  0
    2.6552   -1.9588    0.0000 O   0  0  0  0  0  0  0  0  0  0  0  0
    1.2260   -1.9548    0.0000 O   0  0  0  0  0  0  0  0  0  0  0  0
    1.2364    1.3469    0.0000 H   0  0  0  0  0  0  0  0  0  0  0  0
  2  3  1  0  0  0  0
  3  4  1  0  0  0  0
  4  5  1  0  0  0  0
  5  1  1  0  0  0  0
  1  2  1  0  0  0  0
 10 11  1  0  0  0  0
 16 17  1  0  0  0  0
 17 14  1  0  0  0  0
 15 18  1  0  0  0  0
 11 12  1  0  0  0  0
 12 13  2  0  0  0  0
  6  7  1  0  0  0  0
 18 19  2  0  0  0  0
 19 20  1  0  0  0  0
 20 21  1  0  0  0  0
 21 15  2  0  0  0  0
 19 22  1  0  0  0  0
 16 23  2  0  0  0  0
 23 24  1  0  0  0  0
  7  9  1  0  0  0  0
 24 25  1  0  0  0  0
  8  6  1  0  0  0  0
  6 26  2  0  0  0  0
 17 27  2  0  0  0  0
 13 28  1  0  0  0  0
 28 29  1  0  0  0  0
 28 30  2  0  0  0  0
  8  9  1  0  0  0  0
  9 31  1  6  0  0  0
  7 14  1  1  0  0  0
  8 13  1  0  0  0  0
  9 10  1  0  0  0  0
 15 16  1  0  0  0  0
  1 12  1  1  0  0  0
M  END
> <DATABASE_ID>
DB11505

> <DATABASE_NAME>
drugbank

> <SMILES>
[H][C@]12SCC([C@@H]3CCCO3)=C(N1C(=O)[C@H]2NC(=O)C(=N/OC)\C1=CSC(N)=N1)C(O)=O

> <INCHI_IDENTIFIER>
InChI=1S/C17H19N5O6S2/c1-27-21-10(8-6-30-17(18)19-8)13(23)20-11-14(24)22-12(16(25)26)7(5-29-15(11)22)9-3-2-4-28-9/h6,9,11,15H,2-5H2,1H3,(H2,18,19)(H,20,23)(H,25,26)/b21-10-/t9-,11+,15+/m0/s1

> <INCHI_KEY>
ZJGQFXVQDVCVOK-QFKLAVHZSA-N

> <FORMULA>
C17H19N5O6S2

> <MOLECULAR_WEIGHT>
453.49

> <EXACT_MASS>
453.0776757

> <JCHEM_ACCEPTOR_COUNT>
9

> <JCHEM_ATOM_COUNT>
49

> <JCHEM_AVERAGE_NEUTRAL_MICROSPECIES_CHARGE>
-0.9996902818355763

> <JCHEM_AVERAGE_POLARIZABILITY>
43.05041412936214

> <JCHEM_BIOAVAILABILITY>
1

> <JCHEM_DONOR_COUNT>
3

> <JCHEM_FORMAL_CHARGE>
0

> <JCHEM_GHOSE_FILTER>
0

> <JCHEM_IUPAC>
(6R,7R)-7-[(2Z)-2-(2-amino-1,3-thiazol-4-yl)-2-(methoxyimino)acetamido]-8-oxo-3-[(2S)-oxolan-2-yl]-5-thia-1-azabicyclo[4.2.0]oct-2-ene-2-carboxylic acid

> <ALOGPS_LOGP>
0.46

> <JCHEM_LOGP>
-0.7743041076544539

> <ALOGPS_LOGS>
-3.40

> <JCHEM_MDDR_LIKE_RULE>
1

> <JCHEM_NEUTRAL_CHARGE>
-1

> <JCHEM_NUMBER_OF_RINGS>
4

> <JCHEM_PHYSIOLOGICAL_CHARGE>
-1

> <JCHEM_PKA>
11.130725387540572

> <JCHEM_PKA_STRONGEST_ACIDIC>
2.8029927458826704

> <JCHEM_PKA_STRONGEST_BASIC>
3.618774527300089

> <JCHEM_POLAR_SURFACE_AREA>
156.43999999999997

> <JCHEM_REFRACTIVITY>
107.91919999999998

> <JCHEM_ROTATABLE_BOND_COUNT>
6

> <JCHEM_RULE_OF_FIVE>
1

> <ALOGPS_SOLUBILITY>
1.82e-01 g/l

> <JCHEM_TRADITIONAL_IUPAC>
unii-71TH42O2CQ

> <JCHEM_VEBER_RULE>
0

> <DRUGBANK_ID>
DB11505

> <DRUG_GROUPS>
experimental; vet_approved

> <GENERIC_NAME>
Cefovecin

> <SYNONYMS>
Cefovecin

> <SALTS>
Cefovecin sodium

$$$$
