
  Mrv1652309121709232D          

 13 14  0  0  0  0            999 V2000
   -0.3984    0.7541    0.0000 C   0  0  0  0  0  0  0  0  0  0  0  0
   -0.1435   -0.0305    0.0000 N   0  0  0  0  0  0  0  0  0  0  0  0
   -0.6284   -0.6979    0.0000 C   0  0  0  0  0  0  0  0  0  0  0  0
   -0.1435   -1.3654    0.0000 N   0  0  0  0  0  0  0  0  0  0  0  0
    0.6411   -1.1104    0.0000 C   0  0  0  0  0  0  0  0  0  0  0  0
    0.6411   -0.2854    0.0000 C   0  0  0  0  0  0  0  0  0  0  0  0
    1.3556    0.1271    0.0000 C   0  0  0  0  0  0  0  0  0  0  0  0
    1.3556    0.9521    0.0000 O   0  0  0  0  0  0  0  0  0  0  0  0
    2.0701   -0.2854    0.0000 N   0  0  0  0  0  0  0  0  0  0  0  0
    2.0701   -1.1104    0.0000 C   0  0  0  0  0  0  0  0  0  0  0  0
    2.7845   -1.5229    0.0000 O   0  0  0  0  0  0  0  0  0  0  0  0
    1.3556   -1.5229    0.0000 N   0  0  0  0  0  0  0  0  0  0  0  0
    1.3556   -2.3479    0.0000 C   0  0  0  0  0  0  0  0  0  0  0  0
  1  2  1  0  0  0  0
  2  3  1  0  0  0  0
  3  4  2  0  0  0  0
  4  5  1  0  0  0  0
  5  6  2  0  0  0  0
  2  6  1  0  0  0  0
  6  7  1  0  0  0  0
  7  8  2  0  0  0  0
  7  9  1  0  0  0  0
  9 10  1  0  0  0  0
 10 11  2  0  0  0  0
 10 12  1  0  0  0  0
  5 12  1  0  0  0  0
 12 13  1  0  0  0  0
M  END
> <DATABASE_ID>
DB01412

> <DATABASE_NAME>
drugbank

> <SMILES>
CN1C=NC2=C1C(=O)NC(=O)N2C

> <INCHI_IDENTIFIER>
InChI=1S/C7H8N4O2/c1-10-3-8-5-4(10)6(12)9-7(13)11(5)2/h3H,1-2H3,(H,9,12,13)

> <INCHI_KEY>
YAPQBXQYLJRXSA-UHFFFAOYSA-N

> <FORMULA>
C7H8N4O2

> <MOLECULAR_WEIGHT>
180.164

> <EXACT_MASS>
180.06472552

> <JCHEM_ACCEPTOR_COUNT>
3

> <JCHEM_ATOM_COUNT>
21

> <JCHEM_AVERAGE_POLARIZABILITY>
16.84759944556188

> <JCHEM_BIOAVAILABILITY>
1

> <JCHEM_DONOR_COUNT>
1

> <JCHEM_FORMAL_CHARGE>
0

> <JCHEM_GHOSE_FILTER>
0

> <JCHEM_IUPAC>
3,7-dimethyl-2,3,6,7-tetrahydro-1H-purine-2,6-dione

> <ALOGPS_LOGP>
-0.46

> <JCHEM_LOGP>
-0.7693216573333334

> <ALOGPS_LOGS>
-1.27

> <JCHEM_MDDR_LIKE_RULE>
0

> <JCHEM_NUMBER_OF_RINGS>
2

> <JCHEM_PHYSIOLOGICAL_CHARGE>
0

> <JCHEM_PKA_STRONGEST_ACIDIC>
9.28030481882757

> <JCHEM_PKA_STRONGEST_BASIC>
-0.9071824149877291

> <JCHEM_POLAR_SURFACE_AREA>
67.23

> <JCHEM_REFRACTIVITY>
44.9345

> <JCHEM_ROTATABLE_BOND_COUNT>
0

> <JCHEM_RULE_OF_FIVE>
1

> <ALOGPS_SOLUBILITY>
9.74e+00 g/l

> <JCHEM_TRADITIONAL_IUPAC>
theobromine

> <JCHEM_VEBER_RULE>
0

> <DRUGBANK_ID>
DB01412

> <DRUG_GROUPS>
investigational

> <GENERIC_NAME>
Theobromine

> <SYNONYMS>
3,7-dihydro-3,7-dimethyl-1H-purine-2,6-dione; 3,7-dimethylpurine-2,6-dione; 3,7-dimethylxanthine; Theobromin; Th√©obromine; Theobromine

$$$$
