
  Mrv1572004221606542D          

 31 32  0  0  0  0            999 V2000
   11.8440    1.7605    0.0000 C   0  0  0  0  0  0  0  0  0  0  0  0
   11.0190    3.1895    0.0000 C   0  0  0  0  0  0  0  0  0  0  0  0
   15.1144    7.4250    0.0000 C   0  0  0  0  0  0  0  0  0  0  0  0
   13.4644    7.4250    0.0000 C   0  0  0  0  0  0  0  0  0  0  0  0
   12.8605    4.9500    0.0000 C   0  0  0  0  0  0  0  0  0  0  0  0
   11.4315    0.0000    0.0000 C   0  0  0  0  0  0  0  0  0  0  0  0
   10.0026    0.0000    0.0000 C   0  0  0  0  0  0  0  0  0  0  0  0
   15.7184    9.9000    0.0000 C   0  0  0  0  0  0  0  0  0  0  0  0
   16.4328    8.6625    0.0000 C   0  0  0  0  0  0  0  0  0  0  0  0
   11.4315    0.8250    0.0000 C   0  0  0  0  0  0  0  0  0  0  0  0
   10.0026    0.8250    0.0000 C   0  0  0  0  0  0  0  0  0  0  0  0
   15.0039    9.4875    0.0000 C   0  0  0  0  0  0  0  0  0  0  0  0
   15.7184    8.2500    0.0000 C   0  0  0  0  0  0  0  0  0  0  0  0
   12.8605    4.1250    0.0000 C   0  0  0  0  0  0  0  0  0  0  0  0
   13.5749    5.3625    0.0000 C   0  0  0  0  0  0  0  0  0  0  0  0
   10.7171   -0.4125    0.0000 C   0  0  0  0  0  0  0  0  0  0  0  0
   16.4328    9.4875    0.0000 C   0  0  0  0  0  0  0  0  0  0  0  0
   10.7171    1.2375    0.0000 C   0  0  0  0  0  0  0  0  0  0  0  0
   15.0039    8.6625    0.0000 C   0  0  0  0  0  0  0  0  0  0  0  0
   12.1460    2.8875    0.0000 C   0  0  0  0  0  0  0  0  0  0  0  0
   14.2894    6.6000    0.0000 C   0  0  0  0  0  0  0  0  0  0  0  0
   11.4315    2.4750    0.0000 C   0  0  0  0  0  0  0  0  0  0  0  0
   14.2894    7.4250    0.0000 C   0  0  0  0  0  0  0  0  0  0  0  0
   10.7171   -1.2375    0.0000 Cl  0  0  0  0  0  0  0  0  0  0  0  0
   17.1473    9.9000    0.0000 Cl  0  0  0  0  0  0  0  0  0  0  0  0
   12.8605    2.4750    0.0000 O   0  0  0  0  0  0  0  0  0  0  0  0
   15.0039    6.1875    0.0000 O   0  0  0  0  0  0  0  0  0  0  0  0
   12.1460    3.7125    0.0000 O   0  0  0  0  0  0  0  0  0  0  0  0
   13.5749    6.1875    0.0000 O   0  0  0  0  0  0  0  0  0  0  0  0
   10.7171    2.0625    0.0000 O   0  0  0  0  0  0  0  0  0  0  0  0
   14.2894    8.2500    0.0000 O   0  0  0  0  0  0  0  0  0  0  0  0
 10  6  1  0  0  0  0
 11  7  2  0  0  0  0
 12  8  1  0  0  0  0
 13  9  2  0  0  0  0
 14  5  1  0  0  0  0
 15  5  1  0  0  0  0
 16  6  2  0  0  0  0
 16  7  1  0  0  0  0
 17  8  2  0  0  0  0
 17  9  1  0  0  0  0
 18 10  2  0  0  0  0
 18 11  1  0  0  0  0
 19 12  2  0  0  0  0
 19 13  1  0  0  0  0
 22  1  1  0  0  0  0
 22  2  1  0  0  0  0
 22 20  1  0  0  0  0
 23  3  1  0  0  0  0
 23  4  1  0  0  0  0
 23 21  1  0  0  0  0
 24 16  1  0  0  0  0
 25 17  1  0  0  0  0
 26 20  2  0  0  0  0
 27 21  2  0  0  0  0
 28 14  1  0  0  0  0
 28 20  1  0  0  0  0
 29 15  1  0  0  0  0
 29 21  1  0  0  0  0
 30 18  1  0  0  0  0
 30 22  1  0  0  0  0
 31 19  1  0  0  0  0
 31 23  1  0  0  0  0
M  END
> <DATABASE_ID>
DB13433

> <DATABASE_NAME>
drugbank

> <SMILES>
CC(C)(OC1=CC=C(Cl)C=C1)C(=O)OCCCOC(=O)C(C)(C)OC1=CC=C(Cl)C=C1

> <INCHI_IDENTIFIER>
InChI=1S/C23H26Cl2O6/c1-22(2,30-18-10-6-16(24)7-11-18)20(26)28-14-5-15-29-21(27)23(3,4)31-19-12-8-17(25)9-13-19/h6-13H,5,14-15H2,1-4H3

> <INCHI_KEY>
JLRNKCZRCMIVKA-UHFFFAOYSA-N

> <FORMULA>
C23H26Cl2O6

> <MOLECULAR_WEIGHT>
469.36

> <EXACT_MASS>
468.110644

> <JCHEM_ACCEPTOR_COUNT>
4

> <JCHEM_ATOM_COUNT>
57

> <JCHEM_AVERAGE_POLARIZABILITY>
48.66594279521584

> <JCHEM_BIOAVAILABILITY>
0

> <JCHEM_DONOR_COUNT>
0

> <JCHEM_FORMAL_CHARGE>
0

> <JCHEM_GHOSE_FILTER>
0

> <JCHEM_IUPAC>
3-{[2-(4-chlorophenoxy)-2-methylpropanoyl]oxy}propyl 2-(4-chlorophenoxy)-2-methylpropanoate

> <ALOGPS_LOGP>
6.09

> <JCHEM_LOGP>
5.978488234333334

> <ALOGPS_LOGS>
-6.41

> <JCHEM_MDDR_LIKE_RULE>
0

> <JCHEM_NUMBER_OF_RINGS>
2

> <JCHEM_PHYSIOLOGICAL_CHARGE>
0

> <JCHEM_PKA_STRONGEST_BASIC>
-4.616377291294113

> <JCHEM_POLAR_SURFACE_AREA>
71.06000000000002

> <JCHEM_REFRACTIVITY>
117.67019999999997

> <JCHEM_ROTATABLE_BOND_COUNT>
12

> <JCHEM_RULE_OF_FIVE>
0

> <ALOGPS_SOLUBILITY>
1.81e-04 g/l

> <JCHEM_TRADITIONAL_IUPAC>
simfibrate

> <JCHEM_VEBER_RULE>
0

> <DRUGBANK_ID>
DB13433

> <DRUG_GROUPS>
experimental

> <GENERIC_NAME>
Simfibrate

> <SYNONYMS>
Simfibrate

$$$$
