
  Mrv1909 04032015002D          

 10 10  0  0  0  0            999 V2000
    0.7111    0.4184    0.0000 C   0  0  0  0  0  0  0  0  0  0  0  0
    0.0000    0.8325    0.0000 C   0  0  0  0  0  0  0  0  0  0  0  0
    0.7111   -0.4184    0.0000 C   0  0  0  0  0  0  0  0  0  0  0  0
   -0.7111    0.4184    0.0000 C   0  0  0  0  0  0  0  0  0  0  0  0
   -0.7111   -0.4184    0.0000 C   0  0  0  0  0  0  0  0  0  0  0  0
    0.0000   -0.8366    0.0000 C   0  0  0  0  0  0  0  0  0  0  0  0
    1.4180    0.8325    0.0000 Cl  0  0  0  0  0  0  0  0  0  0  0  0
    0.0000    1.6691    0.0000 O   0  0  0  0  0  0  0  0  0  0  0  0
   -1.4180   -0.8366    0.0000 C   0  0  0  0  0  0  0  0  0  0  0  0
    0.0000   -1.6691    0.0000 C   0  0  0  0  0  0  0  0  0  0  0  0
  2  1  2  0  0  0  0
  3  1  1  0  0  0  0
  4  2  1  0  0  0  0
  5  6  1  0  0  0  0
  6  3  2  0  0  0  0
  7  1  1  0  0  0  0
  8  2  1  0  0  0  0
  9  5  1  0  0  0  0
 10  6  1  0  0  0  0
  4  5  2  0  0  0  0
M  END
> <DATABASE_ID>
DB15658

> <DATABASE_NAME>
drugbank

> <SMILES>
CC1=CC(O)=C(Cl)C=C1C

> <INCHI_IDENTIFIER>
InChI=1S/C8H9ClO/c1-5-3-7(9)8(10)4-6(5)2/h3-4,10H,1-2H3

> <INCHI_KEY>
PSOJLBXHRBFLLQ-UHFFFAOYSA-N

> <FORMULA>
C8H9ClO

> <MOLECULAR_WEIGHT>
156.61

> <EXACT_MASS>
156.0341926

> <JCHEM_ACCEPTOR_COUNT>
1

> <JCHEM_ATOM_COUNT>
19

> <JCHEM_AVERAGE_NEUTRAL_MICROSPECIES_CHARGE>
-3.8822132564884525e-09

> <JCHEM_AVERAGE_POLARIZABILITY>
16.133165187191956

> <JCHEM_BIOAVAILABILITY>
1

> <JCHEM_DONOR_COUNT>
1

> <JCHEM_FORMAL_CHARGE>
0

> <JCHEM_GHOSE_FILTER>
0

> <JCHEM_IUPAC>
2-chloro-4,5-dimethylphenol

> <ALOGPS_LOGP>
3.19

> <JCHEM_LOGP>
3.3005679493333333

> <ALOGPS_LOGS>
-2.38

> <JCHEM_MDDR_LIKE_RULE>
0

> <JCHEM_NEUTRAL_CHARGE>
0

> <JCHEM_NUMBER_OF_RINGS>
1

> <JCHEM_PHYSIOLOGICAL_CHARGE>
0

> <JCHEM_PKA_STRONGEST_ACIDIC>
8.41092061008174

> <JCHEM_PKA_STRONGEST_BASIC>
-6.684551636208903

> <JCHEM_POLAR_SURFACE_AREA>
20.23

> <JCHEM_REFRACTIVITY>
42.9261

> <JCHEM_ROTATABLE_BOND_COUNT>
0

> <JCHEM_RULE_OF_FIVE>
1

> <ALOGPS_SOLUBILITY>
6.46e-01 g/l

> <JCHEM_TRADITIONAL_IUPAC>
2-chloro-4,5-dimethylphenol

> <JCHEM_VEBER_RULE>
1

> <DRUGBANK_ID>
DB15658

> <DRUG_GROUPS>
experimental

> <GENERIC_NAME>
2-chloro-4,5-dimethylphenol

> <SYNONYMS>
2-Chloro-4,5-dimethylphenol; 2-Chloro-4,5-xylenol; 3,4-Dimethyl-6-chlorophenol; 6-Chloro-3,4-xylenol; Banol phenol

> <PRODUCTS>
Antibacterial Hand Sanitizer

$$$$
