
  Mrv1909 09252020472D          

  2  1  0  0  0  0            999 V2000
   -1.4702    1.7659    0.0000 O   0  0  0  0  0  0  0  0  0  0  0  0
   -0.8789    1.1905    0.0000 O   0  0  0  0  0  0  0  0  0  0  0  0
  1  2  1  0  0  0  0
M  END
> <DATABASE_ID>
DB11091

> <DATABASE_NAME>
drugbank

> <SMILES>
OO

> <INCHI_IDENTIFIER>
InChI=1S/H2O2/c1-2/h1-2H

> <INCHI_KEY>
MHAJPDPJQMAIIY-UHFFFAOYSA-N

> <FORMULA>
H2O2

> <MOLECULAR_WEIGHT>
34.0147

> <EXACT_MASS>
34.005479308

> <JCHEM_ACCEPTOR_COUNT>
2

> <JCHEM_ATOM_COUNT>
4

> <JCHEM_AVERAGE_NEUTRAL_MICROSPECIES_CHARGE>
0.00013018453036945125

> <JCHEM_AVERAGE_POLARIZABILITY>
2.291055697453342

> <JCHEM_BIOAVAILABILITY>
1

> <JCHEM_DONOR_COUNT>
2

> <JCHEM_FORMAL_CHARGE>
0

> <JCHEM_GHOSE_FILTER>
0

> <JCHEM_IUPAC>
peroxol

> <JCHEM_LOGP>
-0.447202414

> <JCHEM_MDDR_LIKE_RULE>
0

> <JCHEM_NEUTRAL_CHARGE>
0

> <JCHEM_NUMBER_OF_RINGS>
0

> <JCHEM_PHYSIOLOGICAL_CHARGE>
0

> <JCHEM_PKA>
14.397218846455527

> <JCHEM_PKA_STRONGEST_ACIDIC>
11.520607090216412

> <JCHEM_PKA_STRONGEST_BASIC>
-4.189015938635916

> <JCHEM_POLAR_SURFACE_AREA>
40.46

> <JCHEM_REFRACTIVITY>
5.1292

> <JCHEM_ROTATABLE_BOND_COUNT>
0

> <JCHEM_RULE_OF_FIVE>
1

> <JCHEM_TRADITIONAL_IUPAC>
hydrogen peroxide

> <JCHEM_VEBER_RULE>
0

> <DRUGBANK_ID>
DB11091

> <DRUG_GROUPS>
approved; vet_approved

> <GENERIC_NAME>
Hydrogen peroxide

> <SYNONYMS>
Hydrogen peroxide

> <PRODUCTS>
100 toothpast e Afternoon; 16oz Hydorgen Peroxide; 16oz Hydrogen Peroxide; 3 Hydrogen Peroxide; 3 percent Hydrogen Peroxide; 3% Hydrogen Peroxide; 3% Hydrogen Peroxide Well at Walgreens; 32oz Hydrogen Peroxide; 4234 First Aid Kit; American Red Cross 3 Hydrogen Peroxide; American Safety First Aid Antispetic; Antiseptic Mouth Sore; Antiseptic Oral Cleanser; Aplicare Hydrogen Peroxide; BANEN Rinse-free Hand Sanitizer (II); BENEMAX ADVANCED Hand Sanitizer; Berkley Jensen Antiseptic; Blossom HP 3; CURAD Hydrogen Peroxide; CVS Health Hydrogen Peroxide Wipes; CleanCleaner; Comfort; Crane Safety Hydrogen Peroxide; DOP Hydrogen Peroxide 3%; Defense AG Disinfectant; DenMat Hydrogen Peroxide Oral Rinse; Diabek-100; Dio Whitening; Disinfectant Wipes; Disinfectantspray; Divas; Dr Lucid Hydrogen Peroxide 4%; Dr. Lift Hydrogen Peroxide 3 Percent; Dr.EL TOOTH WHITE TOOTH; Dr.LORD Propol Whitening Tooth; Dr.Mollis Anti-Virus Wet Wipes; Dr.pauhls Natural Tone Up Tooth; Dynarex HP 3; ECOLAB Hydrogen Peroxide; EVAXO 3% Hydrogen Peroxide; Eco Whitening; Eskata; First Aid Only Hydrogen Peroxide; GNP Hydrogen Peroxide 3 Percent; GOOD NEIGHBOR PHARMACY Hydrogen Peroxide Wipes; GREEN GUARD First Aid Antiseptic; Go PSP hydrogen peroxide 3; Good Hygiene Therapeutic Mouth Rinse; Green Guard Hydrogen Peroxide; Green Guard Hydrogen Peroxide First Aid; HYR Hydrogen Peroxide First Aid Antiseptic; Hand Sanitizer; Health Mart Hydrogen Peroxide 3 Percent; Henry Schein Mouth; Hioxyl Cream; Humco Hydrogen Peroxide; Hydrogen Peroxide; Hydrogen Peroxide (topical Solution B.P. 20 Volume); Hydrogen Peroxide (topical Solution U.S.P. 10 Volume); Hydrogen Peroxide 20vol; Hydrogen Peroxide 3 Percent; Hydrogen Peroxide 3 Percent ReadyInCase; Hydrogen Peroxide 3 Topical; Hydrogen Peroxide 3%; Hydrogen Peroxide 6%; Hydrogen Peroxide Antiseptic; Hydrogen Peroxide First Aid Antiseptic; Hydrogen Peroxide Lil Drug Store Products; Hydrogen Peroxide Liq 10vol; Hydrogen Peroxide Liq 6%; Hydrogen Peroxide Oral Rinse; Hydrogen Peroxide Solution 3%; Hydrogen Peroxide Top Sol 3% 10vol Anti; Hydrogen Peroxide Topical Sol USP 3%; Hydrogen Peroxide Topical Solution 3%; Hydrogen Peroxide Topical Solution U.S.P; Hydrogen Peroxide Topical Solution USP; Hydrogen Peroxide Wipes; Hydrogen peroxide; Iris; K-100; KIMVENT ORAL CARE Q4 Kit WITH CHG; KUNDAL Pure Refreshing Whitening Tooth (Spearmint); Kimvent Oral Care Q2 Kit with CHG; Kimvent Oral Care Q4 Kit; Kimvent Oral Care Suction Swab pack; Kimvent Q2 oral care kit; LEADER Hydrogen Peroxide Wipes; LUCKY SUPER SOFT Hydrogen Peroxide 3 Percent; Luxury Antiseptic; Luzen Whitening Gel; MEDI-FIRST First Aid Antiseptic; Mastikis Mastic 24K Whitening; MedPak Peroxide Oral Rinse; Medi W Tooth; Medi-First Hydrogen Peroxide; MediChoice of Hydrogen Peroxide 3 10 Volume; MediFect Hand Sanitizer; MediFirst Hydrogen Peroxide; Medline Peroxi Fresh Mouthwash; Medline Rinse; Mirapha30; Multi Purpose Sanitizer and Cleaner Wipes; Multipurpose Disinfectant; Neutrevo Alcohol Wet Wipes; New Life 3% Hydrogen Peroxide FIRST AID ANTISEPTIC; Nobda Hydrogen peroxide compound disinfectant; Nxn Hydrogen Peroxide; OROXID Forte Oral Hygiene; OROXID Sensitiv; Orajel Alcohol Free Antiseptic Rinse For All Mouth Sores; Orajel Antiseptic Alcohol-Free Mouth Sore Rinse; Orajel Antiseptic Rinse For All Mouth Sores; Orajel Antiseptic Rinse for Mouth Sores; Orajel Perioseptic Rinse - 1.5%; Orak-100; Oral B Mouth Sore Special Care Rinse; Oral Care Q4 Kit; Oral Cleansing and Suctioning System, Q2; Oral Cleansing and Suctioning System, q2; Oral Cleansing and Suctioning System, q4; Oral Sore Antiseptic; OxiStom; PSP Hydrogen Peroxide; PSP Hydrogen peroxide 3 first aid antiseptic; Perio Armor; Perio Armor-X; Perio Daily Defense; Perio Max Plus; Perio Plus; PerioRestore; Periogel; Perioselect Hydrogen Peroxide Solution 1.7%; Perox-A-Mint Solution; Peroxy Shield Mouth Sore; Peroxyde D'hydrogene 10 Vol Soln; Peroxyl Mouth Sore Mild Mint; Pharma-C-Wipes 3 Hydrogen Peroxide Wipes; Pharmacys Prescription; Pharmacys Prescription Hydrogen Peroxide; Preferred Plus Pharmacy 3 percent Hydrogen Peroxide Wipes; Premium Whitening; Preop; Preop Rinse; Prevent Hydrogen Peroxide 3 Percent; Prevention Mouth Rinse; Prevention Wound and Burn; Primal Elements Hydrogen Peroxide 3 Percent; Pro Brighten Tooth whitening Gel; Pro Guard; Pro-sys; Psp Go; PureOxyWash; Q2 Oral Care Kit; Q2 Oral Care Kit with CHG; QCare Oral Cleansing and Suctioning System; QCare Oral Cleansing and Suctioning System, Q2; QCare Oral Cleansing and Suctioning System, Q4; QCare Oral Cleansing and Suctioning System, Q8; QCare Oral Cleansing and Suctioning System, q2; QCare Rx Oral Cleansing and Suctioning System; QCare Rx Oral Cleansing and Suctioning System, Q2; QCare Rx Oral Cleansing and Suctioning System, Q4; Quality Choice Hydrogen Peroxide Wipes; ReddyPort Antiseptic Oral Rinse; ReddyPort NIV Maintenance Kit; Rinse free hand sanitizing gel; Royal Whitening Pre-Brush; SALON CODE Glam Hair Color Glam Brown; SALON CODE Glam Hair Color Glam Cacao; SALON CODE Glam Hair Color Glam Rose Gold; SALON CODE Glam Hair Color Oxidant; SMART SENSE Hydrogen Peroxide; SMPLY Hydrogen Peroxide; Salon Safety Furniture and Surface 1 Minute Sanitizer; Sanidry; Seven Three Hand Sanitizer; Short Term Oral Care System; Short Term Oral Swab System; Single Use System with Perox-A-Mint solution; Smart Sense Hydrogen Peroxide Solution; Sore Mouth Cleanser; Straight Shot; Suction Swab System with Perox-A-Mint Solution - Suction Swab; Suction Swab System with Perox-A-Mint Solution - Suction Swab and Suction Toothbrush; Suction Swabs with Perox-A-Mint Solution; Suction Toothbrush with Perox-A-Mint Solution; Suction Toothbrushes with Perox-A-Mint Solution; Sunmark Hydrogen Peroxide 3 Percent; Surface Cleaner; TRIZ sanitizer wipes; The Natural Dentist Rinse; The Pharma-C Company 3 Hydrogen Peroxide Wipes; Tooth Whole White; Toothette Oral Care Short Term Oral Swab System; Topcare 3 Hydrogen Peroxide Wipes; Unpa Cha Cha Premium Whitening Tooth; Unpa Cha Cha Premium Whitening Toothpaste; Up and Up 3 Hydrogen Peroxide Wipes; Usana Peroxide Antiseptic Mouthwash; Usualklenz Disinfectantspray; Water Jel Hydrogen Peroxide; White Labs; Xpect Hydrogen Peroxide; Your Label Here Hydrogen Peroxide First Aid; Zee Hydrogen Peroxide; aramark Hydrogen Peroxide; maxim Hydrogen Peroxide

$$$$
