
  Mrv1572004221606552D          

 14 14  0  0  0  0            999 V2000
    7.1447    2.4750    0.0000 C   0  0  0  0  0  0  0  0  0  0  0  0
   10.0026    2.4750    0.0000 C   0  0  0  0  0  0  0  0  0  0  0  0
    9.2881    2.8875    0.0000 C   0  0  0  0  0  0  0  0  0  0  0  0
   10.0026    1.6500    0.0000 C   0  0  0  0  0  0  0  0  0  0  0  0
    5.0013    1.2375    0.0000 C   0  0  0  0  0  0  0  0  0  0  0  0
    8.5737    2.4750    0.0000 C   0  0  0  0  0  0  0  0  0  0  0  0
    9.2881    1.2375    0.0000 C   0  0  0  0  0  0  0  0  0  0  0  0
    4.2868    1.6500    0.0000 C   0  0  0  0  0  0  0  0  0  0  0  0
    5.7158    1.6500    0.0000 C   0  0  0  0  0  0  0  0  0  0  0  0
    7.8592    1.2375    0.0000 C   0  0  0  0  0  0  0  0  0  0  0  0
    7.1447    1.6500    0.0000 C   0  0  0  0  0  0  0  0  0  0  0  0
    8.5737    1.6500    0.0000 C   0  0  0  0  0  0  0  0  0  0  0  0
    3.5724    1.2375    0.0000 Cl  0  0  0  0  0  0  0  0  0  0  0  0
    6.4302    1.2375    0.0000 N   0  0  0  0  0  0  0  0  0  0  0  0
  3  2  2  0  0  0  0
  4  2  1  0  0  0  0
  6  3  1  0  0  0  0
  7  4  2  0  0  0  0
  8  5  1  0  0  0  0
  9  5  1  0  0  0  0
 11  1  1  0  0  0  0
 11 10  1  0  0  0  0
 12  6  2  0  0  0  0
 12  7  1  0  0  0  0
 12 10  1  0  0  0  0
 13  8  1  0  0  0  0
 14  9  1  0  0  0  0
 14 11  1  0  0  0  0
M  END
> <DATABASE_ID>
DB13852

> <DATABASE_NAME>
drugbank

> <SMILES>
CC(CC1=CC=CC=C1)NCCCCl

> <INCHI_IDENTIFIER>
InChI=1S/C12H18ClN/c1-11(14-9-5-8-13)10-12-6-3-2-4-7-12/h2-4,6-7,11,14H,5,8-10H2,1H3

> <INCHI_KEY>
XXVROGAVTTXONC-UHFFFAOYSA-N

> <FORMULA>
C12H18ClN

> <MOLECULAR_WEIGHT>
211.73

> <EXACT_MASS>
211.1127773

> <JCHEM_ACCEPTOR_COUNT>
1

> <JCHEM_ATOM_COUNT>
32

> <JCHEM_AVERAGE_POLARIZABILITY>
24.64036572601313

> <JCHEM_BIOAVAILABILITY>
1

> <JCHEM_DONOR_COUNT>
1

> <JCHEM_FORMAL_CHARGE>
0

> <JCHEM_GHOSE_FILTER>
1

> <JCHEM_IUPAC>
(3-chloropropyl)(1-phenylpropan-2-yl)amine

> <ALOGPS_LOGP>
3.16

> <JCHEM_LOGP>
2.9612804583333325

> <ALOGPS_LOGS>
-4.08

> <JCHEM_MDDR_LIKE_RULE>
0

> <JCHEM_NUMBER_OF_RINGS>
1

> <JCHEM_PHYSIOLOGICAL_CHARGE>
1

> <JCHEM_PKA_STRONGEST_BASIC>
9.830014137897667

> <JCHEM_POLAR_SURFACE_AREA>
12.03

> <JCHEM_REFRACTIVITY>
62.68850000000001

> <JCHEM_ROTATABLE_BOND_COUNT>
6

> <JCHEM_RULE_OF_FIVE>
1

> <ALOGPS_SOLUBILITY>
1.76e-02 g/l

> <JCHEM_TRADITIONAL_IUPAC>
mefenorex

> <JCHEM_VEBER_RULE>
1

> <DRUGBANK_ID>
DB13852

> <DRUG_GROUPS>
experimental

> <GENERIC_NAME>
Mefenorex

$$$$
