
  Mrv1902 02261921262D          

 36 37  0  0  0  0            999 V2000
    2.5974    1.2897    0.0000 O   0  0  0  0  0  0  0  0  0  0  0  0
   -0.9920    2.2985    0.0000 C   0  0  0  0  0  0  0  0  0  0  0  0
   -0.9920    1.4736    0.0000 N   0  0  0  0  0  0  0  0  0  0  0  0
   -1.7066    2.7111    0.0000 C   0  0  0  0  0  0  0  0  0  0  0  0
   -1.7066    1.0611    0.0000 C   0  0  0  0  0  0  0  0  0  0  0  0
   -2.4210    2.2985    0.0000 C   0  0  0  0  0  0  0  0  0  0  0  0
   -2.4210    1.4736    0.0000 O   0  0  0  0  0  0  0  0  0  0  0  0
   -0.2776    2.7111    0.0000 C   0  0  0  0  0  0  0  0  0  0  0  0
    0.4368    2.2985    0.0000 N   0  0  0  0  0  0  0  0  0  0  0  0
   -0.2776    3.5361    0.0000 O   0  0  0  0  0  0  0  0  0  0  0  0
    1.1512    2.7111    0.0000 C   0  0  2  0  0  0  0  0  0  0  0  0
    2.1739    2.3583    0.0000 C   0  0  0  0  0  0  0  0  0  0  0  0
    1.1512    3.5361    0.0000 C   0  0  0  0  0  0  0  0  0  0  0  0
    1.8657    3.9485    0.0000 C   0  0  0  0  0  0  0  0  0  0  0  0
    0.4368    3.9485    0.0000 C   0  0  0  0  0  0  0  0  0  0  0  0
   -1.7066    0.2360    0.0000 C   0  0  2  0  0  0  0  0  0  0  0  0
   -0.9922   -0.1764    0.0000 N   0  0  0  0  0  0  0  0  0  0  0  0
   -0.9922   -1.0014    0.0000 C   0  0  0  0  0  0  0  0  0  0  0  0
   -0.2777   -1.4139    0.0000 C   0  0  1  0  0  0  0  0  0  0  0  0
   -0.2778   -2.2389    0.0000 C   0  0  0  0  0  0  0  0  0  0  0  0
    0.4367   -1.0015    0.0000 N   0  0  0  0  0  0  0  0  0  0  0  0
    0.4367   -0.1765    0.0000 C   0  0  0  0  0  0  0  0  0  0  0  0
    1.1512    0.2359    0.0000 C   0  0  0  0  0  0  0  0  0  0  0  0
   -0.2776    0.2360    0.0000 O   0  0  0  0  0  0  0  0  0  0  0  0
   -0.9922   -2.6514    0.0000 C   0  0  0  0  0  0  0  0  0  0  0  0
    0.4366   -2.6515    0.0000 C   0  0  0  0  0  0  0  0  0  0  0  0
   -1.7066   -1.4139    0.0000 O   0  0  0  0  0  0  0  0  0  0  0  0
    2.0843    0.1116    0.0000 C   0  0  1  0  0  0  0  0  0  0  0  0
    2.7600    2.9710    0.0000 O   0  0  0  0  0  0  0  0  0  0  0  0
   -2.4807   -0.4249    0.0000 C   0  0  0  0  0  0  0  0  0  0  0  0
   -2.7601   -1.7717    0.0000 S   0  0  0  0  0  0  0  0  0  0  0  0
   -2.3228   -3.1633    0.0000 S   0  0  0  0  0  0  0  0  0  0  0  0
   -0.2752   -3.9486    0.0000 C   0  0  0  0  0  0  0  0  0  0  0  0
    1.9313   -2.9844    0.0000 C   0  0  0  0  0  0  0  0  0  0  0  0
    1.8418   -1.7419    0.0000 C   0  0  0  0  0  0  0  0  0  0  0  0
    2.5875   -0.7380    0.0000 C   0  0  0  0  0  0  0  0  0  0  0  0
  1 12  1  0  0  0  0
  1 28  1  0  0  0  0
  3  2  1  0  0  0  0
  4  2  2  0  0  0  0
  2  8  1  0  0  0  0
  5  3  1  0  0  0  0
  6  4  1  0  0  0  0
  7  5  2  0  0  0  0
  5 16  1  0  0  0  0
  8  9  1  0  0  0  0
  8 10  2  0  0  0  0
  9 11  1  0  0  0  0
 11 12  1  0  0  0  0
 11 13  1  1  0  0  0
 12 29  2  0  0  0  0
 13 14  1  0  0  0  0
 13 15  1  0  0  0  0
 16 17  1  0  0  0  0
 16 30  1  6  0  0  0
 17 18  1  0  0  0  0
 18 19  1  0  0  0  0
 18 27  2  0  0  0  0
 19 20  1  6  0  0  0
 19 21  1  0  0  0  0
 20 25  1  0  0  0  0
 20 26  1  0  0  0  0
 21 22  1  0  0  0  0
 22 23  1  0  0  0  0
 22 24  2  0  0  0  0
 23 28  1  0  0  0  0
 28 36  1  6  0  0  0
 30 31  1  0  0  0  0
 31 32  1  0  0  0  0
 32 33  1  0  0  0  0
 33 34  1  0  0  0  0
 34 35  1  0  0  0  0
 35 36  2  0  0  0  0
M  END
> <DATABASE_ID>
DB06176

> <DATABASE_NAME>
drugbank

> <SMILES>
C\C=C1/NC(=O)[C@H]2CSSCC\C=C\[C@H](CC(=O)N[C@H](C(C)C)C(=O)N2)OC(=O)[C@@H](NC1=O)C(C)C

> <INCHI_IDENTIFIER>
InChI=1S/C24H36N4O6S2/c1-6-16-21(30)28-20(14(4)5)24(33)34-15-9-7-8-10-35-36-12-17(22(31)25-16)26-23(32)19(13(2)3)27-18(29)11-15/h6-7,9,13-15,17,19-20H,8,10-12H2,1-5H3,(H,25,31)(H,26,32)(H,27,29)(H,28,30)/b9-7+,16-6-/t15-,17-,19-,20+/m1/s1

> <INCHI_KEY>
OHRURASPPZQGQM-GCCNXGTGSA-N

> <FORMULA>
C24H36N4O6S2

> <MOLECULAR_WEIGHT>
540.69

> <EXACT_MASS>
540.207627243

> <JCHEM_ACCEPTOR_COUNT>
5

> <JCHEM_ATOM_COUNT>
72

> <JCHEM_AVERAGE_POLARIZABILITY>
54.550495239707914

> <JCHEM_BIOAVAILABILITY>
1

> <JCHEM_DONOR_COUNT>
4

> <JCHEM_FORMAL_CHARGE>
0

> <JCHEM_GHOSE_FILTER>
0

> <JCHEM_IUPAC>
(1S,4S,7Z,10S,16E,21R)-7-ethylidene-4,21-bis(propan-2-yl)-2-oxa-12,13-dithia-5,8,20,23-tetraazabicyclo[8.7.6]tricos-16-ene-3,6,9,19,22-pentone

> <ALOGPS_LOGP>
1.95

> <JCHEM_LOGP>
1.0779514013333338

> <ALOGPS_LOGS>
-4.41

> <JCHEM_MDDR_LIKE_RULE>
0

> <JCHEM_NUMBER_OF_RINGS>
2

> <JCHEM_PHYSIOLOGICAL_CHARGE>
0

> <JCHEM_PKA>
11.220914134505366

> <JCHEM_PKA_STRONGEST_ACIDIC>
10.671197662764742

> <JCHEM_PKA_STRONGEST_BASIC>
-0.5421080622553134

> <JCHEM_POLAR_SURFACE_AREA>
142.7

> <JCHEM_REFRACTIVITY>
142.08559999999997

> <JCHEM_ROTATABLE_BOND_COUNT>
2

> <JCHEM_RULE_OF_FIVE>
0

> <ALOGPS_SOLUBILITY>
2.09e-02 g/l

> <JCHEM_TRADITIONAL_IUPAC>
romidepsin

> <JCHEM_VEBER_RULE>
0

> <DRUGBANK_ID>
DB06176

> <DRUG_GROUPS>
approved; investigational

> <GENERIC_NAME>
Romidepsin

> <SYNONYMS>
Romidepsin; Romidepsina; Romidepsine; Romidepsinum

> <PRODUCTS>
Istodax; Romidepsin

> <INTERNATIONAL_BRANDS>
Chromadax; Istodax

$$$$
