
  Mrv1572004221603172D          

 22 24  0  0  0  0            999 V2000
   -3.1895   -0.9817    0.0000 C   0  0  0  0  0  0  0  0  0  0  0  0
   -2.3690   -1.0679    0.0000 C   0  0  0  0  0  0  0  0  0  0  0  0
   -3.5251   -0.2280    0.0000 C   0  0  0  0  0  0  0  0  0  0  0  0
   -1.8841   -0.4005    0.0000 C   0  0  0  0  0  0  0  0  0  0  0  0
   -3.0401    0.4394    0.0000 C   0  0  0  0  0  0  0  0  0  0  0  0
   -0.6078    3.5277    0.0000 C   0  0  0  0  0  0  0  0  0  0  0  0
   -2.0367    3.5277    0.0000 C   0  0  0  0  0  0  0  0  0  0  0  0
   -0.6078    4.3527    0.0000 C   0  0  0  0  0  0  0  0  0  0  0  0
   -2.0367    4.3527    0.0000 C   0  0  0  0  0  0  0  0  0  0  0  0
    0.1298    2.0602    0.0000 C   0  0  0  0  0  0  0  0  0  0  0  0
   -1.3222    3.1152    0.0000 C   0  0  0  0  0  0  0  0  0  0  0  0
   -2.2197    0.3532    0.0000 C   0  0  0  0  0  0  0  0  0  0  0  0
   -1.3222    4.7652    0.0000 C   0  0  0  0  0  0  0  0  0  0  0  0
   -0.6548    1.8053    0.0000 C   0  0  0  0  0  0  0  0  0  0  0  0
    0.7429    1.5082    0.0000 C   0  0  0  0  0  0  0  0  0  0  0  0
   -1.3222    2.2902    0.0000 C   0  0  0  0  0  0  0  0  0  0  0  0
   -1.7347    1.0206    0.0000 C   0  0  0  0  0  0  0  0  0  0  0  0
   -1.3222    5.5902    0.0000 Cl  0  0  0  0  0  0  0  0  0  0  0  0
   -1.9897    1.8053    0.0000 N   0  0  0  0  0  0  0  0  0  0  0  0
    0.5714    0.7012    0.0000 O   0  0  0  0  0  0  0  0  0  0  0  0
    1.5275    1.7631    0.0000 O   0  0  0  0  0  0  0  0  0  0  0  0
   -0.9097    1.0206    0.0000 S   0  0  0  0  0  0  0  0  0  0  0  0
  2  1  2  0  0  0  0
  3  1  1  0  0  0  0
  4  2  1  0  0  0  0
  5  3  2  0  0  0  0
  8  6  1  0  0  0  0
  9  7  2  0  0  0  0
 11  6  2  0  0  0  0
 11  7  1  0  0  0  0
 12  4  2  0  0  0  0
 12  5  1  0  0  0  0
 13  8  2  0  0  0  0
 13  9  1  0  0  0  0
 14 10  1  0  0  0  0
 15 10  1  0  0  0  0
 16 11  1  0  0  0  0
 16 14  2  0  0  0  0
 17 12  1  0  0  0  0
 18 13  1  0  0  0  0
 19 16  1  0  0  0  0
 19 17  2  0  0  0  0
 20 15  2  0  0  0  0
 21 15  1  0  0  0  0
 22 14  1  0  0  0  0
 22 17  1  0  0  0  0
M  END
> <DATABASE_ID>
DB13217

> <DATABASE_NAME>
drugbank

> <SMILES>
OC(=O)CC1=C(N=C(S1)C1=CC=CC=C1)C1=CC=C(Cl)C=C1

> <INCHI_IDENTIFIER>
InChI=1S/C17H12ClNO2S/c18-13-8-6-11(7-9-13)16-14(10-15(20)21)22-17(19-16)12-4-2-1-3-5-12/h1-9H,10H2,(H,20,21)

> <INCHI_KEY>
JIEKMACRVQTPRC-UHFFFAOYSA-N

> <FORMULA>
C17H12ClNO2S

> <MOLECULAR_WEIGHT>
329.8

> <EXACT_MASS>
329.0277275

> <JCHEM_ACCEPTOR_COUNT>
3

> <JCHEM_ATOM_COUNT>
34

> <JCHEM_AVERAGE_POLARIZABILITY>
34.003054413830604

> <JCHEM_BIOAVAILABILITY>
1

> <JCHEM_DONOR_COUNT>
1

> <JCHEM_FORMAL_CHARGE>
0

> <JCHEM_GHOSE_FILTER>
1

> <JCHEM_IUPAC>
2-[4-(4-chlorophenyl)-2-phenyl-1,3-thiazol-5-yl]acetic acid

> <ALOGPS_LOGP>
4.79

> <JCHEM_LOGP>
5.064116919

> <ALOGPS_LOGS>
-5.38

> <JCHEM_MDDR_LIKE_RULE>
0

> <JCHEM_NUMBER_OF_RINGS>
3

> <JCHEM_PHYSIOLOGICAL_CHARGE>
-1

> <JCHEM_PKA_STRONGEST_ACIDIC>
4.822468937746024

> <JCHEM_PKA_STRONGEST_BASIC>
1.2980271937852597

> <JCHEM_POLAR_SURFACE_AREA>
50.19

> <JCHEM_REFRACTIVITY>
97.02869999999999

> <JCHEM_ROTATABLE_BOND_COUNT>
4

> <JCHEM_RULE_OF_FIVE>
0

> <ALOGPS_SOLUBILITY>
1.36e-03 g/l

> <JCHEM_TRADITIONAL_IUPAC>
fentiazac

> <JCHEM_VEBER_RULE>
0

> <DRUGBANK_ID>
DB13217

> <DRUG_GROUPS>
experimental

> <GENERIC_NAME>
Fentiazac

> <SYNONYMS>
4-(4-Chlorophenyl)-2-phenyl-5-thiazoleacetic acid; 4-(p-Chlorophenyl)-2-phenyl-5-thiazoleacetic acid; Fentiazac; Fentiazaco; Fentiazacum

> <INTERNATIONAL_BRANDS>
Donorest; Flogene; Norvedan

$$$$
