
  Mrv1572004221605272D          

 22 22  0  0  0  0            999 V2000
    3.5724   -4.5375    0.0000 C   0  0  0  0  0  0  0  0  0  0  0  0
    2.1434    1.2375    0.0000 C   0  0  0  0  0  0  0  0  0  0  0  0
    5.0013    0.4125    0.0000 C   0  0  0  0  0  0  0  0  0  0  0  0
    3.5724   -3.7125    0.0000 C   0  0  0  0  0  0  0  0  0  0  0  0
    2.1434    0.4125    0.0000 C   0  0  0  0  0  0  0  0  0  0  0  0
    4.2868    0.0000    0.0000 C   0  0  0  0  0  0  0  0  0  0  0  0
    0.7145   -2.0625    0.0000 C   0  0  0  0  0  0  0  0  0  0  0  0
    0.0000   -2.4750    0.0000 C   0  0  0  0  0  0  0  0  0  0  0  0
    2.1434   -1.2375    0.0000 C   0  0  0  0  0  0  0  0  0  0  0  0
    3.5724   -2.0625    0.0000 C   0  0  0  0  0  0  0  0  0  0  0  0
    2.1434   -2.0625    0.0000 C   0  0  0  0  0  0  0  0  0  0  0  0
    1.4289   -2.4750    0.0000 C   0  0  0  0  0  0  0  0  0  0  0  0
    2.8579   -2.4750    0.0000 C   0  0  0  0  0  0  0  0  0  0  0  0
    2.8579   -0.8250    0.0000 C   0  0  0  0  0  0  0  0  0  0  0  0
    3.5724   -1.2375    0.0000 C   0  0  0  0  0  0  0  0  0  0  0  0
   -0.7145   -2.0625    0.0000 C   0  0  0  0  0  0  0  0  0  0  0  0
    1.4289   -3.3000    0.0000 O   0  0  0  0  0  0  0  0  0  0  0  0
   -1.4289   -2.4750    0.0000 O   0  0  0  0  0  0  0  0  0  0  0  0
   -0.7145   -1.2375    0.0000 O   0  0  0  0  0  0  0  0  0  0  0  0
    2.8579   -3.3000    0.0000 O   0  0  0  0  0  0  0  0  0  0  0  0
    2.8579    0.0000    0.0000 O   0  0  0  0  0  0  0  0  0  0  0  0
    4.2868   -0.8250    0.0000 O   0  0  0  0  0  0  0  0  0  0  0  0
  4  1  1  0  0  0  0
  5  2  1  0  0  0  0
  6  3  1  0  0  0  0
  8  7  1  0  0  0  0
 11  9  2  0  0  0  0
 12  7  1  0  0  0  0
 12 11  1  0  0  0  0
 13 10  2  0  0  0  0
 13 11  1  0  0  0  0
 14  9  1  0  0  0  0
 15 10  1  0  0  0  0
 15 14  2  0  0  0  0
 16  8  1  0  0  0  0
 17 12  2  0  0  0  0
 18 16  2  0  0  0  0
 19 16  1  0  0  0  0
 20  4  1  0  0  0  0
 20 13  1  0  0  0  0
 21  5  1  0  0  0  0
 21 14  1  0  0  0  0
 22  6  1  0  0  0  0
 22 15  1  0  0  0  0
M  END
> <DATABASE_ID>
DB13311

> <DATABASE_NAME>
drugbank

> <SMILES>
CCOC1=CC(OCC)=C(OCC)C=C1C(=O)CCC(O)=O

> <INCHI_IDENTIFIER>
InChI=1S/C16H22O6/c1-4-20-13-10-15(22-6-3)14(21-5-2)9-11(13)12(17)7-8-16(18)19/h9-10H,4-8H2,1-3H3,(H,18,19)

> <INCHI_KEY>
YPTFHLJNWSJXKG-UHFFFAOYSA-N

> <FORMULA>
C16H22O6

> <MOLECULAR_WEIGHT>
310.346

> <EXACT_MASS>
310.141638428

> <JCHEM_ACCEPTOR_COUNT>
6

> <JCHEM_ATOM_COUNT>
44

> <JCHEM_AVERAGE_POLARIZABILITY>
33.19412495110284

> <JCHEM_BIOAVAILABILITY>
1

> <JCHEM_DONOR_COUNT>
1

> <JCHEM_FORMAL_CHARGE>
0

> <JCHEM_GHOSE_FILTER>
1

> <JCHEM_IUPAC>
4-oxo-4-(2,4,5-triethoxyphenyl)butanoic acid

> <ALOGPS_LOGP>
2.52

> <JCHEM_LOGP>
1.9531661486666663

> <ALOGPS_LOGS>
-3.48

> <JCHEM_MDDR_LIKE_RULE>
0

> <JCHEM_NUMBER_OF_RINGS>
1

> <JCHEM_PHYSIOLOGICAL_CHARGE>
-1

> <JCHEM_PKA>
16.458152264289826

> <JCHEM_PKA_STRONGEST_ACIDIC>
3.4466089920484477

> <JCHEM_PKA_STRONGEST_BASIC>
-4.428320413942014

> <JCHEM_POLAR_SURFACE_AREA>
82.06000000000002

> <JCHEM_REFRACTIVITY>
80.98949999999999

> <JCHEM_ROTATABLE_BOND_COUNT>
10

> <JCHEM_RULE_OF_FIVE>
1

> <ALOGPS_SOLUBILITY>
1.03e-01 g/l

> <JCHEM_TRADITIONAL_IUPAC>
trepibutone

> <JCHEM_VEBER_RULE>
0

> <DRUGBANK_ID>
DB13311

> <DRUG_GROUPS>
experimental

> <GENERIC_NAME>
Trepibutone

> <SYNONYMS>
Trepibutone

$$$$
