
  Mrv1572004221603162D          

 16 15  0  0  1  0            999 V2000
    0.5230    1.1270    0.0000 C   0  0  0  0  0  0  0  0  0  0  0  0
    4.0954    0.7145    0.0000 C   0  0  0  0  0  0  0  0  0  0  0  0
    1.2375    0.7145    0.0000 C   0  0  2  0  0  0  0  0  0  0  0  0
    3.3809    1.1270    0.0000 C   0  0  2  0  0  0  0  0  0  0  0  0
    1.9520    1.1270    0.0000 C   0  0  2  0  0  0  0  0  0  0  0  0
    2.6664    0.7145    0.0000 C   0  0  2  0  0  0  0  0  0  0  0  0
   -0.1914    0.7145    0.0000 Br  0  0  0  0  0  0  0  0  0  0  0  0
    4.8099    1.1270    0.0000 Br  0  0  0  0  0  0  0  0  0  0  0  0
    1.2375   -0.1105    0.0000 O   0  0  0  0  0  0  0  0  0  0  0  0
    3.3809    1.9520    0.0000 O   0  0  0  0  0  0  0  0  0  0  0  0
    1.9520    1.9520    0.0000 O   0  0  0  0  0  0  0  0  0  0  0  0
    2.6664   -0.1105    0.0000 O   0  0  0  0  0  0  0  0  0  0  0  0
    1.2375    1.5395    0.0000 H   0  0  0  0  0  0  0  0  0  0  0  0
    3.3809    0.3020    0.0000 H   0  0  0  0  0  0  0  0  0  0  0  0
    1.9520    0.3020    0.0000 H   0  0  0  0  0  0  0  0  0  0  0  0
    2.6664    1.5395    0.0000 H   0  0  0  0  0  0  0  0  0  0  0  0
  3  1  1  0  0  0  0
  4  2  1  0  0  0  0
  5  3  1  0  0  0  0
  6  4  1  0  0  0  0
  6  5  1  0  0  0  0
  7  1  1  0  0  0  0
  8  2  1  0  0  0  0
  3  9  1  1  0  0  0
  4 10  1  1  0  0  0
  5 11  1  6  0  0  0
  6 12  1  6  0  0  0
  3 13  1  1  0  0  0
  4 14  1  1  0  0  0
  5 15  1  6  0  0  0
  6 16  1  6  0  0  0
M  END
> <DATABASE_ID>
DB13543

> <DATABASE_NAME>
drugbank

> <SMILES>
[H][C@@](O)(CBr)[C@@]([H])(O)[C@]([H])(O)[C@]([H])(O)CBr

> <INCHI_IDENTIFIER>
InChI=1S/C6H12Br2O4/c7-1-3(9)5(11)6(12)4(10)2-8/h3-6,9-12H,1-2H2/t3-,4-,5-,6-/m1/s1

> <INCHI_KEY>
VFKZTMPDYBFSTM-KVTDHHQDSA-N

> <FORMULA>
C6H12Br2O4

> <MOLECULAR_WEIGHT>
307.966

> <EXACT_MASS>
305.910235

> <JCHEM_ACCEPTOR_COUNT>
4

> <JCHEM_ATOM_COUNT>
24

> <JCHEM_AVERAGE_POLARIZABILITY>
21.054178289438582

> <JCHEM_BIOAVAILABILITY>
1

> <JCHEM_DONOR_COUNT>
4

> <JCHEM_FORMAL_CHARGE>
0

> <JCHEM_GHOSE_FILTER>
0

> <JCHEM_IUPAC>
(2S,3S,4S,5S)-1,6-dibromohexane-2,3,4,5-tetrol

> <ALOGPS_LOGP>
-0.44

> <JCHEM_LOGP>
-0.6498446113333335

> <ALOGPS_LOGS>
-0.89

> <JCHEM_MDDR_LIKE_RULE>
0

> <JCHEM_NUMBER_OF_RINGS>
0

> <JCHEM_PHYSIOLOGICAL_CHARGE>
0

> <JCHEM_PKA>
13.4295361624654

> <JCHEM_PKA_STRONGEST_ACIDIC>
12.628263228843739

> <JCHEM_PKA_STRONGEST_BASIC>
-3.5134379801941096

> <JCHEM_POLAR_SURFACE_AREA>
80.92

> <JCHEM_REFRACTIVITY>
50.47259999999999

> <JCHEM_ROTATABLE_BOND_COUNT>
5

> <JCHEM_RULE_OF_FIVE>
1

> <ALOGPS_SOLUBILITY>
3.97e+01 g/l

> <JCHEM_TRADITIONAL_IUPAC>
mitobronitol

> <JCHEM_VEBER_RULE>
0

> <DRUGBANK_ID>
DB13543

> <DRUG_GROUPS>
experimental

> <GENERIC_NAME>
Mitobronitol

> <SYNONYMS>
Mitobronitol

$$$$
