
  Mrv1909 11142222232D          

 12 12  0  0  0  0            999 V2000
    0.7145    2.0625    0.0000 O   0  0  0  0  0  0  0  0  0  0  0  0
    0.7145    1.2375    0.0000 N   0  0  0  0  0  0  0  0  0  0  0  0
    1.4289    0.8250    0.0000 C   0  0  0  0  0  0  0  0  0  0  0  0
    1.4289   -0.0000    0.0000 C   0  0  0  0  0  0  0  0  0  0  0  0
    0.7145   -0.4125    0.0000 C   0  0  0  0  0  0  0  0  0  0  0  0
    0.0000    0.0000    0.0000 C   0  0  0  0  0  0  0  0  0  0  0  0
    0.0000    0.8250    0.0000 C   0  0  0  0  0  0  0  0  0  0  0  0
   -0.7145    1.2375    0.0000 O   0  0  0  0  0  0  0  0  0  0  0  0
   -0.7145   -0.4125    0.0000 P   0  0  0  0  0  0  0  0  0  0  0  0
   -1.4289   -0.8250    0.0000 O   0  0  0  0  0  0  0  0  0  0  0  0
   -1.1270    0.3020    0.0000 O   0  0  0  0  0  0  0  0  0  0  0  0
   -0.3020   -1.1270    0.0000 O   0  0  0  0  0  0  0  0  0  0  0  0
  1  2  1  0  0  0  0
  2  3  1  0  0  0  0
  3  4  1  0  0  0  0
  4  5  1  0  0  0  0
  5  6  1  0  0  0  0
  6  7  1  0  0  0  0
  2  7  1  0  0  0  0
  7  8  2  0  0  0  0
  6  9  1  0  0  0  0
  9 10  1  0  0  0  0
  9 11  1  0  0  0  0
  9 12  2  0  0  0  0
M  END
> <DATABASE_ID>
DB17108

> <DATABASE_NAME>
drugbank

> <SMILES>
ON1CCCC(C1=O)P(O)(O)=O

> <INCHI_IDENTIFIER>
InChI=1S/C5H10NO5P/c7-5-4(12(9,10)11)2-1-3-6(5)8/h4,8H,1-3H2,(H2,9,10,11)

> <INCHI_KEY>
DVZQUMSQEGOYMX-UHFFFAOYSA-N

> <FORMULA>
C5H10NO5P

> <MOLECULAR_WEIGHT>
195.111

> <EXACT_MASS>
195.029659424

> <JCHEM_ACCEPTOR_COUNT>
5

> <JCHEM_ATOM_COUNT>
22

> <JCHEM_AVERAGE_NEUTRAL_MICROSPECIES_CHARGE>
-0.024363508621713003

> <JCHEM_AVERAGE_POLARIZABILITY>
16.01086092443866

> <JCHEM_BIOAVAILABILITY>
1

> <JCHEM_DONOR_COUNT>
3

> <JCHEM_FORMAL_CHARGE>
0

> <JCHEM_GHOSE_FILTER>
0

> <JCHEM_IUPAC>
(1-hydroxy-2-oxopiperidin-3-yl)phosphonic acid

> <ALOGPS_LOGP>
-0.87

> <JCHEM_LOGP>
-1.7360461969999992

> <ALOGPS_LOGS>
-0.70

> <JCHEM_MDDR_LIKE_RULE>
0

> <JCHEM_NEUTRAL_CHARGE>
-1

> <JCHEM_NUMBER_OF_RINGS>
1

> <JCHEM_PHYSIOLOGICAL_CHARGE>
-1

> <JCHEM_PKA>
7.911622791056918

> <JCHEM_PKA_STRONGEST_ACIDIC>
1.6025485503527424

> <JCHEM_PKA_STRONGEST_BASIC>
-5.740925938817119

> <JCHEM_POLAR_SURFACE_AREA>
98.07

> <JCHEM_REFRACTIVITY>
39.4038

> <JCHEM_ROTATABLE_BOND_COUNT>
1

> <JCHEM_RULE_OF_FIVE>
1

> <ALOGPS_SOLUBILITY>
3.88e+01 g/l

> <JCHEM_TRADITIONAL_IUPAC>
1-hydroxy-2-oxopiperidin-3-ylphosphonic acid

> <JCHEM_VEBER_RULE>
0

> <DRUGBANK_ID>
DB17108

> <DRUG_GROUPS>
investigational

> <GENERIC_NAME>
(1-Hydroxy-2-oxopiperidin-3-yl)phosphonic acid

> <SYNONYMS>
Phosphonic acid, p-(1-hydroxy-2-oxo-3-piperidinyl)-

$$$$
