
  Mrv1652310211601312D          

 26 28  0  0  0  0            999 V2000
    0.0000   -4.1250    0.0000 C   0  0  0  0  0  0  0  0  0  0  0  0
    0.0000   -4.9500    0.0000 C   0  0  0  0  0  0  0  0  0  0  0  0
   -0.7145   -5.3625    0.0000 C   0  0  0  0  0  0  0  0  0  0  0  0
   -1.4289   -4.9500    0.0000 C   0  0  0  0  0  0  0  0  0  0  0  0
   -1.4289   -4.1250    0.0000 C   0  0  0  0  0  0  0  0  0  0  0  0
   -0.7145   -3.7125    0.0000 C   0  0  0  0  0  0  0  0  0  0  0  0
   -0.7145   -2.8875    0.0000 C   0  0  0  0  0  0  0  0  0  0  0  0
    0.0000   -2.4750    0.0000 C   0  0  0  0  0  0  0  0  0  0  0  0
    0.7145   -2.0625    0.0000 N   0  0  0  0  0  0  0  0  0  0  0  0
   -1.4289   -2.4750    0.0000 C   0  0  0  0  0  0  0  0  0  0  0  0
   -2.1434   -2.8875    0.0000 C   0  0  0  0  0  0  0  0  0  0  0  0
   -2.8579   -2.4750    0.0000 C   0  0  0  0  0  0  0  0  0  0  0  0
   -2.8579   -1.6500    0.0000 C   0  0  0  0  0  0  0  0  0  0  0  0
   -2.1434   -1.2375    0.0000 C   0  0  0  0  0  0  0  0  0  0  0  0
   -1.4289   -1.6500    0.0000 C   0  0  0  0  0  0  0  0  0  0  0  0
   -0.7145   -1.2375    0.0000 Cl  0  0  0  0  0  0  0  0  0  0  0  0
   -3.5724   -1.2375    0.0000 N   0  0  0  0  0  0  0  0  0  0  0  0
   -4.2868   -1.6500    0.0000 C   0  0  0  0  0  0  0  0  0  0  0  0
   -4.2868   -2.4750    0.0000 O   0  0  0  0  0  0  0  0  0  0  0  0
   -5.0013   -1.2375    0.0000 N   0  0  0  0  0  0  0  0  0  0  0  0
   -5.0013   -0.4125    0.0000 C   0  0  0  0  0  0  0  0  0  0  0  0
   -5.7158   -0.0000    0.0000 O   0  0  0  0  0  0  0  0  0  0  0  0
   -4.2868   -0.0000    0.0000 C   0  0  0  0  0  0  0  0  0  0  0  0
   -3.5724   -0.4125    0.0000 N   0  0  0  0  0  0  0  0  0  0  0  0
   -2.1434   -3.7125    0.0000 Cl  0  0  0  0  0  0  0  0  0  0  0  0
   -0.7145   -6.1875    0.0000 F   0  0  0  0  0  0  0  0  0  0  0  0
  1  2  2  0  0  0  0
  2  3  1  0  0  0  0
  3  4  2  0  0  0  0
  4  5  1  0  0  0  0
  5  6  2  0  0  0  0
  1  6  1  0  0  0  0
  6  7  1  0  0  0  0
  7  8  1  0  0  0  0
  8  9  3  0  0  0  0
  7 10  1  0  0  0  0
 10 11  2  0  0  0  0
 11 12  1  0  0  0  0
 12 13  2  0  0  0  0
 13 14  1  0  0  0  0
 14 15  2  0  0  0  0
 10 15  1  0  0  0  0
 15 16  1  0  0  0  0
 13 17  1  0  0  0  0
 17 18  1  0  0  0  0
 18 19  2  0  0  0  0
 18 20  1  0  0  0  0
 20 21  1  0  0  0  0
 21 22  2  0  0  0  0
 21 23  1  0  0  0  0
 23 24  2  0  0  0  0
 17 24  1  0  0  0  0
 11 25  1  0  0  0  0
  3 26  1  0  0  0  0
M  END
> <DATABASE_ID>
DB12663

> <DATABASE_NAME>
drugbank

> <SMILES>
FC1=CC=C(C=C1)C(C#N)C1=C(Cl)C=C(C=C1Cl)N1N=CC(=O)NC1=O

> <INCHI_IDENTIFIER>
InChI=1S/C17H9Cl2FN4O2/c18-13-5-11(24-17(26)23-15(25)8-22-24)6-14(19)16(13)12(7-21)9-1-3-10(20)4-2-9/h1-6,8,12H,(H,23,25,26)

> <INCHI_KEY>
XQKYUBTUOHHNDV-UHFFFAOYSA-N

> <FORMULA>
C17H9Cl2FN4O2

> <MOLECULAR_WEIGHT>
391.18

> <EXACT_MASS>
390.0086591

> <JCHEM_ACCEPTOR_COUNT>
4

> <JCHEM_ATOM_COUNT>
35

> <JCHEM_AVERAGE_POLARIZABILITY>
34.95726651406531

> <JCHEM_BIOAVAILABILITY>
1

> <JCHEM_DONOR_COUNT>
1

> <JCHEM_FORMAL_CHARGE>
0

> <JCHEM_GHOSE_FILTER>
1

> <JCHEM_IUPAC>
2-[2,6-dichloro-4-(3,5-dioxo-2,3,4,5-tetrahydro-1,2,4-triazin-2-yl)phenyl]-2-(4-fluorophenyl)acetonitrile

> <ALOGPS_LOGP>
3.27

> <JCHEM_LOGP>
3.7728588029999997

> <ALOGPS_LOGS>
-5.15

> <JCHEM_MDDR_LIKE_RULE>
0

> <JCHEM_NUMBER_OF_RINGS>
3

> <JCHEM_PHYSIOLOGICAL_CHARGE>
-1

> <JCHEM_PKA>
10.678269267234965

> <JCHEM_PKA_STRONGEST_ACIDIC>
6.502316370325695

> <JCHEM_PKA_STRONGEST_BASIC>
-9.299760997017557

> <JCHEM_POLAR_SURFACE_AREA>
85.56

> <JCHEM_REFRACTIVITY>
93.4786

> <JCHEM_ROTATABLE_BOND_COUNT>
3

> <JCHEM_RULE_OF_FIVE>
1

> <ALOGPS_SOLUBILITY>
2.76e-03 g/l

> <JCHEM_TRADITIONAL_IUPAC>
2-[2,6-dichloro-4-(3,5-dioxo-4H-1,2,4-triazin-2-yl)phenyl]-2-(4-fluorophenyl)acetonitrile

> <JCHEM_VEBER_RULE>
0

> <DRUGBANK_ID>
DB12663

> <DRUG_GROUPS>
investigational

> <GENERIC_NAME>
Letrazuril

> <SYNONYMS>
Letrazuril

$$$$
