
  Mrv1652306231722422D          

 29 32  0  0  1  0            999 V2000
   -3.5635   -2.4430    0.0000 C   0  0  0  0  0  0  0  0  0  0  0  0
   -3.5635   -1.6180    0.0000 C   0  0  2  0  0  0  0  0  0  0  0  0
   -2.8490   -1.2055    0.0000 C   0  0  0  0  0  0  0  0  0  0  0  0
   -2.1345   -1.6180    0.0000 C   0  0  0  0  0  0  0  0  0  0  0  0
   -1.4201   -1.2055    0.0000 C   0  0  0  0  0  0  0  0  0  0  0  0
   -0.7056   -1.6180    0.0000 C   0  0  0  0  0  0  0  0  0  0  0  0
    0.0089   -1.2055    0.0000 C   0  0  0  0  0  0  0  0  0  0  0  0
   -0.7056   -2.4430    0.0000 C   0  0  0  0  0  0  0  0  0  0  0  0
   -4.2780   -1.2055    0.0000 C   0  0  1  0  0  0  0  0  0  0  0  0
   -4.3642   -0.3850    0.0000 C   0  0  0  0  0  0  0  0  0  0  0  0
   -5.1712   -0.2135    0.0000 C   0  0  0  0  0  0  0  0  0  0  0  0
   -5.5837   -0.9280    0.0000 C   0  0  2  0  0  0  0  0  0  0  0  0
   -5.0316   -1.5411    0.0000 C   0  0  2  0  0  0  0  0  0  0  0  0
   -5.2866   -2.3257    0.0000 C   0  0  0  0  0  0  0  0  0  0  0  0
   -6.0935   -2.4972    0.0000 C   0  0  0  0  0  0  0  0  0  0  0  0
   -6.6456   -1.8841    0.0000 C   0  0  1  0  0  0  0  0  0  0  0  0
   -6.3906   -1.0995    0.0000 C   0  0  1  0  0  0  0  0  0  0  0  0
   -6.9427   -0.4864    0.0000 C   0  0  0  0  0  0  0  0  0  0  0  0
   -7.7496   -0.6579    0.0000 C   0  0  2  0  0  0  0  0  0  0  0  0
   -8.0046   -1.4426    0.0000 C   0  0  0  0  0  0  0  0  0  0  0  0
   -7.4525   -2.0556    0.0000 C   0  0  0  0  0  0  0  0  0  0  0  0
   -7.7075   -2.8403    0.0000 C   0  0  0  0  0  0  0  0  0  0  0  0
   -8.5145   -3.0118    0.0000 C   0  0  0  0  0  0  0  0  0  0  0  0
   -9.0665   -2.3987    0.0000 C   0  0  1  0  0  0  0  0  0  0  0  0
   -8.8115   -1.6141    0.0000 C   0  0  0  0  0  0  0  0  0  0  0  0
   -9.8735   -2.5702    0.0000 O   0  0  0  0  0  0  0  0  0  0  0  0
   -8.3017   -0.0448    0.0000 C   0  0  0  0  0  0  0  0  0  0  0  0
   -9.1086   -0.2164    0.0000 I   0  0  0  0  0  0  0  0  0  0  0  0
   -4.4185   -2.0931    0.0000 C   0  0  0  0  0  0  0  0  0  0  0  0
  2  1  1  1  0  0  0
  2  3  1  0  0  0  0
  3  4  1  0  0  0  0
  4  5  1  0  0  0  0
  5  6  1  0  0  0  0
  6  7  1  0  0  0  0
  6  8  1  0  0  0  0
  9  2  1  6  0  0  0
  9 10  1  0  0  0  0
 10 11  1  0  0  0  0
 12 11  1  6  0  0  0
 12 13  1  0  0  0  0
  9 13  1  0  0  0  0
 13 14  1  0  0  0  0
 14 15  1  0  0  0  0
 16 15  1  6  0  0  0
 16 17  1  0  0  0  0
 12 17  1  0  0  0  0
 17 18  1  1  0  0  0
 18 19  1  0  0  0  0
 19 20  1  0  0  0  0
 20 21  2  0  0  0  0
 16 21  1  0  0  0  0
 21 22  1  0  0  0  0
 22 23  1  0  0  0  0
 23 24  1  0  0  0  0
 24 25  1  0  0  0  0
 20 25  1  0  0  0  0
 24 26  1  6  0  0  0
 19 27  1  6  0  0  0
 27 28  1  0  0  0  0
 13 29  1  6  0  0  0
M  ISO  1  28 131
M  END
> <DATABASE_ID>
DB13487

> <DATABASE_NAME>
drugbank

> <SMILES>
CC(C)CCC[C@@H](C)[C@H]1CC[C@H]2[C@@H]3C[C@@H](C[131I])C4=C(CC[C@H](O)C4)[C@H]3CC[C@]12C

> <INCHI_IDENTIFIER>
InChI=1S/C27H45IO/c1-17(2)6-5-7-18(3)25-10-11-26-24-14-19(16-28)23-15-20(29)8-9-21(23)22(24)12-13-27(25,26)4/h17-20,22,24-26,29H,5-16H2,1-4H3/t18-,19+,20+,22-,24-,25-,26+,27-/m1/s1/i28+4

> <INCHI_KEY>
QJHZPCLORSPENH-DRTKWHMQSA-N

> <FORMULA>
C27H45IO

> <MOLECULAR_WEIGHT>
516.562

> <EXACT_MASS>
516.253165237

> <JCHEM_ACCEPTOR_COUNT>
1

> <JCHEM_ATOM_COUNT>
74

> <JCHEM_AVERAGE_POLARIZABILITY>
55.61035635733032

> <JCHEM_BIOAVAILABILITY>
0

> <JCHEM_DONOR_COUNT>
1

> <JCHEM_FORMAL_CHARGE>
0

> <JCHEM_GHOSE_FILTER>
0

> <JCHEM_IUPAC>
(1S,5S,8R,10S,11S,14R,15R)-8-[(¹³¹I)iodomethyl]-15-methyl-14-[(2R)-6-methylheptan-2-yl]tetracyclo[8.7.0.0^{2,7}.0^{11,15}]heptadec-2(7)-en-5-ol

> <ALOGPS_LOGP>
6.89

> <JCHEM_LOGP>
7.667843138666669

> <ALOGPS_LOGS>
-6.64

> <JCHEM_MDDR_LIKE_RULE>
1

> <JCHEM_NUMBER_OF_RINGS>
4

> <JCHEM_PHYSIOLOGICAL_CHARGE>
0

> <JCHEM_PKA_STRONGEST_ACIDIC>
18.19430885928255

> <JCHEM_PKA_STRONGEST_BASIC>
-1.4016093049498117

> <JCHEM_POLAR_SURFACE_AREA>
20.23

> <JCHEM_REFRACTIVITY>
133.55829999999997

> <JCHEM_ROTATABLE_BOND_COUNT>
6

> <JCHEM_RULE_OF_FIVE>
0

> <ALOGPS_SOLUBILITY>
1.17e-04 g/l

> <JCHEM_TRADITIONAL_IUPAC>
(1S,5S,8R,10S,11S,14R,15R)-8-[(¹³¹I)iodomethyl]-15-methyl-14-[(2R)-6-methylheptan-2-yl]tetracyclo[8.7.0.0^{2,7}.0^{11,15}]heptadec-2(7)-en-5-ol

> <JCHEM_VEBER_RULE>
1

> <DRUGBANK_ID>
DB13487

> <DRUG_GROUPS>
experimental

> <GENERIC_NAME>
Iodine (131I) norcholesterol

> <SYNONYMS>
Norcholestenol iodomethyl i-131

$$$$
