
  Mrv1909 09132215292D          

  9  8  0  0  0  0            999 V2000
   -0.1914    0.7145    0.0000 O   0  0  0  0  0  0  0  0  0  0  0  0
    0.5230    1.1270    0.0000 C   0  0  0  0  0  0  0  0  0  0  0  0
    0.5230    1.9520    0.0000 O   0  0  0  0  0  0  0  0  0  0  0  0
    1.2375    0.7145    0.0000 C   0  0  0  0  0  0  0  0  0  0  0  0
    1.9520    1.1270    0.0000 C   0  0  0  0  0  0  0  0  0  0  0  0
    1.9520    1.9520    0.0000 O   0  0  0  0  0  0  0  0  0  0  0  0
    2.6664    0.7145    0.0000 C   0  0  0  0  0  0  0  0  0  0  0  0
    3.3809    1.1270    0.0000 O   0  0  0  0  0  0  0  0  0  0  0  0
    2.6664   -0.1105    0.0000 O   0  0  0  0  0  0  0  0  0  0  0  0
  1  2  1  0  0  0  0
  2  3  2  0  0  0  0
  2  4  1  0  0  0  0
  4  5  1  0  0  0  0
  5  6  2  0  0  0  0
  5  7  1  0  0  0  0
  7  8  1  0  0  0  0
  7  9  2  0  0  0  0
M  END
> <DATABASE_ID>
DB16921

> <DATABASE_NAME>
drugbank

> <SMILES>
OC(=O)CC(=O)C(O)=O

> <INCHI_IDENTIFIER>
InChI=1S/C4H4O5/c5-2(4(8)9)1-3(6)7/h1H2,(H,6,7)(H,8,9)

> <INCHI_KEY>
KHPXUQMNIQBQEV-UHFFFAOYSA-N

> <FORMULA>
C4H4O5

> <MOLECULAR_WEIGHT>
132.071

> <EXACT_MASS>
132.005873229

> <JCHEM_ACCEPTOR_COUNT>
5

> <JCHEM_ATOM_COUNT>
13

> <JCHEM_AVERAGE_NEUTRAL_MICROSPECIES_CHARGE>
-1.999643387405733

> <JCHEM_AVERAGE_POLARIZABILITY>
10.120662112515525

> <JCHEM_BIOAVAILABILITY>
1

> <JCHEM_DONOR_COUNT>
2

> <JCHEM_FORMAL_CHARGE>
0

> <JCHEM_GHOSE_FILTER>
0

> <JCHEM_IUPAC>
2-oxobutanedioic acid

> <ALOGPS_LOGP>
-0.68

> <JCHEM_LOGP>
-0.0418976006666667

> <ALOGPS_LOGS>
-0.36

> <JCHEM_MDDR_LIKE_RULE>
0

> <JCHEM_NEUTRAL_CHARGE>
-2

> <JCHEM_NUMBER_OF_RINGS>
0

> <JCHEM_PHYSIOLOGICAL_CHARGE>
-2

> <JCHEM_PKA>
3.5760342518737325

> <JCHEM_PKA_STRONGEST_ACIDIC>
2.4098314603350404

> <JCHEM_PKA_STRONGEST_BASIC>
-9.874004724451435

> <JCHEM_POLAR_SURFACE_AREA>
91.66999999999999

> <JCHEM_REFRACTIVITY>
24.3338

> <JCHEM_ROTATABLE_BOND_COUNT>
3

> <JCHEM_RULE_OF_FIVE>
1

> <ALOGPS_SOLUBILITY>
5.71e+01 g/l

> <JCHEM_TRADITIONAL_IUPAC>
6-cyclopropaneamido-N-[hydroxy(2H2)methyl]-4-{[2-methoxy-3-(1-methyl-1,2,4-triazol-3-yl)phenyl]amino}pyridazine-3-carboxamide

> <JCHEM_VEBER_RULE>
0

> <DRUGBANK_ID>
DB16921

> <DRUG_GROUPS>
investigational

> <GENERIC_NAME>
Oxaloacetic acid

> <SYNONYMS>
2-oxobutanedioic acid; Anhydrous enol-oxaloacetate; Bioepg; Ketosuccinic acid; Oxalacetic acid; Oxalacetic acid trans-(z)-enol form; Oxaloacetate; Oxosuccinic acid

$$$$
