
  Mrv1909 11041923322D          

 12 13  0  0  0  0            999 V2000
    1.7861    1.2375    0.0000 O   0  0  0  0  0  0  0  0  0  0  0  0
    1.0717    0.8250    0.0000 Bi  0  0  0  0  0  0  0  0  0  0  0  0
    1.0717    0.0000    0.0000 O   0  0  0  0  0  0  0  0  0  0  0  0
    0.3572   -0.4125    0.0000 C   0  0  0  0  0  0  0  0  0  0  0  0
    0.3572   -1.2375    0.0000 O   0  0  0  0  0  0  0  0  0  0  0  0
   -0.3572    0.0000    0.0000 C   0  0  0  0  0  0  0  0  0  0  0  0
   -1.0717   -0.4125    0.0000 C   0  0  0  0  0  0  0  0  0  0  0  0
   -1.7861    0.0000    0.0000 C   0  0  0  0  0  0  0  0  0  0  0  0
   -1.7861    0.8250    0.0000 C   0  0  0  0  0  0  0  0  0  0  0  0
   -1.0717    1.2375    0.0000 C   0  0  0  0  0  0  0  0  0  0  0  0
   -0.3572    0.8250    0.0000 C   0  0  0  0  0  0  0  0  0  0  0  0
    0.3572    1.2375    0.0000 O   0  0  0  0  0  0  0  0  0  0  0  0
  1  2  1  0  0  0  0
  2  3  1  0  0  0  0
  3  4  1  0  0  0  0
  4  5  2  0  0  0  0
  4  6  1  0  0  0  0
  6  7  2  0  0  0  0
  7  8  1  0  0  0  0
  8  9  2  0  0  0  0
  9 10  1  0  0  0  0
 10 11  2  0  0  0  0
  6 11  1  0  0  0  0
 11 12  1  0  0  0  0
  2 12  1  0  0  0  0
M  END
> <DATABASE_ID>
DB01294

> <DATABASE_NAME>
drugbank

> <SMILES>
O[Bi]1OC(=O)C2=CC=CC=C2O1

> <INCHI_IDENTIFIER>
InChI=1S/C7H6O3.Bi.H2O/c8-6-4-2-1-3-5(6)7(9)10;;/h1-4,8H,(H,9,10);;1H2/q;+3;/p-3

> <INCHI_KEY>
ZREIPSZUJIFJNP-UHFFFAOYSA-K

> <FORMULA>
C7H5BiO4

> <MOLECULAR_WEIGHT>
362.0926

> <EXACT_MASS>
361.999166889

> <JCHEM_ACCEPTOR_COUNT>
3

> <JCHEM_ATOM_COUNT>
17

> <JCHEM_AVERAGE_POLARIZABILITY>
15.658618044773789

> <JCHEM_BIOAVAILABILITY>
1

> <JCHEM_DONOR_COUNT>
1

> <JCHEM_FORMAL_CHARGE>
0

> <JCHEM_GHOSE_FILTER>
0

> <JCHEM_IUPAC>
2-hydroxy-2H,4H-benzo[d]1,3-dioxa-2-bismacyclohexan-4-one

> <ALOGPS_LOGP>
0.37

> <JCHEM_LOGP>
1.1142999999999998

> <ALOGPS_LOGS>
-0.78

> <JCHEM_MDDR_LIKE_RULE>
0

> <JCHEM_NUMBER_OF_RINGS>
2

> <JCHEM_PHYSIOLOGICAL_CHARGE>
0

> <JCHEM_PKA_STRONGEST_ACIDIC>
14.301070756672551

> <JCHEM_PKA_STRONGEST_BASIC>
-3.104511651031427

> <JCHEM_POLAR_SURFACE_AREA>
55.760000000000005

> <JCHEM_REFRACTIVITY>
35.7177

> <JCHEM_ROTATABLE_BOND_COUNT>
0

> <JCHEM_RULE_OF_FIVE>
1

> <ALOGPS_SOLUBILITY>
5.97e+01 g/l

> <JCHEM_TRADITIONAL_IUPAC>
atovaquone

> <JCHEM_VEBER_RULE>
0

> <DRUGBANK_ID>
DB01294

> <SECONDARY_ACCESSION_NUMBERS>
DB01402

> <DRUG_GROUPS>
approved; vet_approved

> <GENERIC_NAME>
Bismuth subsalicylate

> <SYNONYMS>
2-Hydroxy-benzo[1,3,2]dioxabismin-4-one; Basic bismuth salicylate; Bismuth oxide salicylate; Bismuth oxysalicylate; Bismuth subsalicylate; Pink bismuth; Wismutsubsalicylat

> <PRODUCTS>
24 / 7 Life Stomach Relief; 7 Select Pink Bismuth; 7-Select Pepto Bismol; Anti-Diarrheal; Anti-Diarrheal Maximum Strength; Basic Care Stomach Relief; Being Well stomach relief original strength; Bismatrol; Bismed Chewable Tablets; Bismed Liq 17.66mg/ml; Bismol; Bismuth; Bismuth (cherry Flavour); Bismuth (original Formula); Bismuth + Antacid (chewable Tablets); Bismuth Caplets; Bismuth Chewable; Bismuth Chewable Tablets; Bismuth Chewables; Bismuth Liq 17.6mg/ml; Bismuth Liquid; Bismuth Maximum Strength; Bismuth Subsalicylate; Bismuth Subsalicylate 262 mg; Bismuth Subsalicylate Caplets; Bismuth Subsalicylate Liquid Extra Strength; Bismuth Subsalicylate Maximum Strength Stomach Relief; Bismuth Subsalicylate Suspension; Bismuth Subsalicylate Suspension 17.6mg/ml; Bismuth Subsalicylate/Metronidazole/Tetracycline Hydrochloride; Bismuth Tablets With Calcium Carbonate; Bismuth Tabs; Bismuth subsalicylate; Bismutina; Bismylate-bismuth Subsalicylate Sus 17.6gm/ml; CVS Health Anti-Diarrheal Vanilla; CVS Health Stomach relief Cherry Flavor; CVS Stomach Relief; CVS Stomach Relief Ultra Strength; Careone Stomach Relief; Cherry Flavour Pepto-bismol Tab; Chewable; Chewable Bismuth Tablets With Calcium Carbonate; Chewable Stomach Relief; Circle K Stomach; Crane Safety Bismuth; DRx Choice Stomach Relief Regular Strength; Desempacho Cucharadas; Dg Health Stomach Relief Maximum Strength; Digestive Relief; Digestive Relief Regular Strength; Diphen; Equaline Maximum Strength Stomach Relief; Equaline Stomach Relief; Equate Stomach Relief; Equate Stomach Relief Regular Strength; Estomaquil Polvo; Estomax; Extra Strength Bismuth; Extra Strength Bismuth Subsalicylate Suspension; Extra-strength Bismuth; Family Care Stomach Relief; First Aid Direct Peptum Tabs; Flanadol Pronto Bismuth; GNP Pink Bismuth; GNP Stomach Relief; GS Stomach Relief; Gastrobiz; Geri-pectate Peppermint Flavor; Geri-pectate Vanilla Flavor; Good Sense Stomach Relief; Good Sense Stomach Relief original strength; Green Relief; Guardian Pink Bismuth; HEB Diarrhea Relief Vanilla Flavor; HEB Stomach Relief; HEB Stomach Relief Cherry; HEB Stomach Relief Max Strength; HEB Stomach Relief Regular Strength; HELIDAC Therapy; Health Mart Stomach Relief; Health Mart Stomach relief; Healthmart Stomach Relief; Healthy Accents Stomach Relief; Healthy Accents Stomach Relief Original Strength; Ka Pec; Kao-Bis; Kao-tin Peppermint Flavor; Kaopectate; Kaopectate Cherry Flavor Anti Diarrheal; Kaopectate Extra Strength Peppermint Flavor Anti Diarrheal; Kaopectate Max Peppermint Flavor Anti Diarrheal; Kaopectate Peppermint Flavor Anti Diarrheal; Kaopectate Regular Strength Cherry Flavor; Kaopectate Regular Strength Peppermint Flavor Anti Diarrheal; Kaopectate Regular Strength Vanilla Flavor Anti Diarrheal; Kaopectate Vanilla Flavor Anti Diarrheal; Kola-Pectin DS; Kroger Digestive Relief; Kroger Regular Strength Pink Bismuth; Kroger Stomach Relief; L-Oral STOMACH RELIEF Syrup; Leader Maximum Strength Stomach Relief; Leader Stomach Relief; Leader Stomach Relief original strength; Leader stomach relief; Major Bismuth Subsalicylate; Maximum Strength; Maximum Strength Stomach Relief; Maximum strength Stomach Relief; McKesson Bismuth; Mcneil Stomach Relief; Medi-First Pep-T-Med; Medique Diotame; Meijer Stomach Relief; Meijer Stomach Relief Regular Strength; Moore Medical Bismuth; Original Formula Stomach Relief; PUBLIX Regular Strength Pink Bismuth; PUBLIX Stomach Relief Ultra Strength; Pep Tum; Pepbis Regular; Pepsis Relief; Pept-ache; Peptic Relief; Peptic Relief Cherry; Peptic Relief Maximum Strength; Peptic Relief original strength; Pepto Bismol; Pepto Bismol Caplet - 262mg/caplet; Pepto Bismol Chews; Pepto Bismol Diarrhea Liquicaps; Pepto Bismol Liquicaps; Pepto Bismol Ultra; Pepto Diarrhea; Pepto Relief; Pepto-Bismol; Pepto-Bismol Cherry; Pepto-Bismol Diarrhea; Pepto-Bismol InstaCool; Pepto-Bismol Max Strength; Pepto-Bismol To Go; Pepto-Bismol ULTRA; Pepto-Bismol Ultra; Pepto-Bismol Ultra Cherry; Pepto-Bismol and Pepto-Bismol To Go; Pepto-bismol Chewables; Pepto-bismol Chews; Pepto-bismol Extra; Pepto-bismol Extra Caplet; Pepto-bismol Tab; Pepto-bismol Tablets; Pepto-bismol With Instacool; Percy Medicine; Personnel Sous-salicylate Bismuth 17.6mg/ml; Pink Bismuth; Pink Bismuth Maximum Strength; Pink Bismuth Plus Antacid Relief Tablets; Pink Bismuth Regular Strength; Pink Bismuth Rose Liq 17.6mg/ml; Pink Bismuth Subsalicylate Liq 17.6mg/ml; Pink Bismuth-liq 17.6mg/ml; Pink-Bismuth; Pleasant Relief Liq 1.7%; Premier Value; Premier Value Diarrhea Relief Vanilla Flavor; QC Anti Diarrheal Vanilla Regular Flavor; QC Pink Bismuth; QC Pink Bismuth Stomach Relief; QC Quality Choice Pink Bismuth Stomach Relief; QC Stomach Relief Cherry Flavor; QC Stomach Relief Regular Strength; Rapidol Stomach Relief; Regular Strength Bismuth; Regular Strength Pink Bismuth; Rexall Bismuth; Rite Aid Digestive Relief; Rite Aid Stomach Relief; Rite Aid Stomach Relief Original Flavor; Rolaids Upset Stomach Relief; Rx Act Stomach Relief; STOMACH RELIEF Maximum Strength; STOMACH RELIEF Regular Strength; ShopRite Stomach Relief; Signature care Upset Stomach Relief; Soothe; Soothe Maximum Strength; Soothe Ultra Strength; Sound Body Stomach Relief; Stomach Lil Drug Store Products; Stomach Relief; Stomach Relief - Maximum Strength; Stomach Relief - Regular Strength; Stomach Relief Cherry; Stomach Relief Chewable Flavoured Tablets; Stomach Relief Chewable Tablets; Stomach Relief Maximum Strength; Stomach Relief Maximum Strength ReadyInCase; Stomach Relief Multi-Symptom; Stomach Relief Original; Stomach Relief Original Formula; Stomach Relief Original Strength; Stomach Relief Regular Strength; Stomach Relief Regular Strength ReadyInCase; Stomach Relief Ultra; Stomach Relief Ultra Strength; Stomach Relief regular strength; Stomach Relief, Maximum Strength; Stomach Relief, Ultra Strength; Stomach relief; Stomach relief chewables; Stomak-care Multi Action; Sun Mark Stomach Relief; Sunmark Stomach Relief; Sunmark Stomach relief; Sunmark stomach relief; Thompson Chewable Bismuth Tabs; Threda; TopCare Regular Strength; TopCare Stomach Relief Regular Strength; TopCare Stomach Relief Ultra Strength; Topcare Stomach Relief; Topcare Stomach Relief Original Strength; Topcare Stomach Relief cherry; Topcare Ultra Strength Stomach Relief; Topcare stomach relief original strength; Topco Stomach Relief; Ultra Bismuth; Ultra Stomach Relief; Ultra Strenght Pink Bismuth; Ultra Strength digestive relief; Up and Up 5-symptom Digestive Relief; Up and Up Digestive Relief; Up and Up Stomach Relief; Upset Stomach Relief; Upset Stomach Relief to Go; Walgreen; Watkins Settelz; WinCo FOODS Stomach Relief; WinCo FOODS Ultra Strength Stomach Relief; Zee Pept-Eez; equate stomach relief Maximum Strength; stomach relief Maximum Strength; sunmark stomach relief Maximum Strength

> <INTERNATIONAL_BRANDS>
Maalox Multi-Action

$$$$
