
  Mrv1652306031607122D          

 25 27  0  0  0  0            999 V2000
    4.2868    2.4750    0.0000 C   0  0  0  0  0  0  0  0  0  0  0  0
    3.5724    1.2375    0.0000 C   0  0  0  0  0  0  0  0  0  0  0  0
   -3.5724    3.7125    0.0000 C   0  0  0  0  0  0  0  0  0  0  0  0
   -1.4289    0.0000    0.0000 C   0  0  0  0  0  0  0  0  0  0  0  0
   -4.2868    3.3000    0.0000 C   0  0  0  0  0  0  0  0  0  0  0  0
   -2.1434   -0.4125    0.0000 C   0  0  0  0  0  0  0  0  0  0  0  0
   -2.8579    3.3000    0.0000 C   0  0  0  0  0  0  0  0  0  0  0  0
   -1.4289    0.8250    0.0000 C   0  0  0  0  0  0  0  0  0  0  0  0
   -4.2868    2.4750    0.0000 C   0  0  0  0  0  0  0  0  0  0  0  0
   -2.8579   -0.0000    0.0000 C   0  0  0  0  0  0  0  0  0  0  0  0
    2.8579    2.4750    0.0000 C   0  0  0  0  0  0  0  0  0  0  0  0
    2.1434    2.0625    0.0000 C   0  0  0  0  0  0  0  0  0  0  0  0
    0.7145    2.0625    0.0000 C   0  0  0  0  0  0  0  0  0  0  0  0
    0.0000    2.4750    0.0000 C   0  0  0  0  0  0  0  0  0  0  0  0
   -2.8579    2.4750    0.0000 C   0  0  0  0  0  0  0  0  0  0  0  0
   -2.1434    1.2375    0.0000 C   0  0  0  0  0  0  0  0  0  0  0  0
   -3.5724    2.0625    0.0000 C   0  0  0  0  0  0  0  0  0  0  0  0
   -2.8579    0.8250    0.0000 C   0  0  0  0  0  0  0  0  0  0  0  0
   -1.4289    2.4750    0.0000 C   0  0  0  0  0  0  0  0  0  0  0  0
    3.5724    2.0625    0.0000 N   0  0  0  0  0  0  0  0  0  0  0  0
   -2.1434    2.0625    0.0000 N   0  0  0  0  0  0  0  0  0  0  0  0
   -1.4289    3.3000    0.0000 O   0  0  0  0  0  0  0  0  0  0  0  0
    1.4289    2.4750    0.0000 O   0  0  0  0  0  0  0  0  0  0  0  0
   -0.7145    2.0625    0.0000 O   0  0  0  0  0  0  0  0  0  0  0  0
   -3.5724    1.2375    0.0000 S   0  0  0  0  0  0  0  0  0  0  0  0
  5  3  2  0  0  0  0
  6  4  2  0  0  0  0
  7  3  1  0  0  0  0
  8  4  1  0  0  0  0
  9  5  1  0  0  0  0
 10  6  1  0  0  0  0
 12 11  1  0  0  0  0
 14 13  1  0  0  0  0
 15  7  2  0  0  0  0
 16  8  2  0  0  0  0
 17  9  2  0  0  0  0
 17 15  1  0  0  0  0
 18 10  2  0  0  0  0
 18 16  1  0  0  0  0
 20  1  1  0  0  0  0
 20  2  1  0  0  0  0
 20 11  1  0  0  0  0
 21 15  1  0  0  0  0
 21 16  1  0  0  0  0
 21 19  1  0  0  0  0
 22 19  2  0  0  0  0
 23 12  1  0  0  0  0
 23 13  1  0  0  0  0
 24 14  1  0  0  0  0
 24 19  1  0  0  0  0
 25 17  1  0  0  0  0
 25 18  1  0  0  0  0
M  END
> <DATABASE_ID>
DB13794

> <DATABASE_NAME>
drugbank

> <SMILES>
CN(C)CCOCCOC(=O)N1C2=CC=CC=C2SC2=CC=CC=C12

> <INCHI_IDENTIFIER>
InChI=1S/C19H22N2O3S/c1-20(2)11-12-23-13-14-24-19(22)21-15-7-3-5-9-17(15)25-18-10-6-4-8-16(18)21/h3-10H,11-14H2,1-2H3

> <INCHI_KEY>
OOVJCSPCMCAXEX-UHFFFAOYSA-N

> <FORMULA>
C19H22N2O3S

> <MOLECULAR_WEIGHT>
358.46

> <EXACT_MASS>
358.13511375

> <JCHEM_ACCEPTOR_COUNT>
4

> <JCHEM_ATOM_COUNT>
47

> <JCHEM_AVERAGE_POLARIZABILITY>
39.531577933688276

> <JCHEM_BIOAVAILABILITY>
1

> <JCHEM_DONOR_COUNT>
0

> <JCHEM_FORMAL_CHARGE>
0

> <JCHEM_GHOSE_FILTER>
1

> <JCHEM_IUPAC>
2-[2-(dimethylamino)ethoxy]ethyl 10H-phenothiazine-10-carboxylate

> <ALOGPS_LOGP>
3.10

> <JCHEM_LOGP>
3.5394444983333333

> <ALOGPS_LOGS>
-4.22

> <JCHEM_MDDR_LIKE_RULE>
1

> <JCHEM_NUMBER_OF_RINGS>
3

> <JCHEM_PHYSIOLOGICAL_CHARGE>
1

> <JCHEM_PKA_STRONGEST_BASIC>
8.869010107985872

> <JCHEM_POLAR_SURFACE_AREA>
42.010000000000005

> <JCHEM_REFRACTIVITY>
101.1268

> <JCHEM_ROTATABLE_BOND_COUNT>
7

> <JCHEM_RULE_OF_FIVE>
1

> <ALOGPS_SOLUBILITY>
2.18e-02 g/l

> <JCHEM_TRADITIONAL_IUPAC>
dimethoxanate

> <JCHEM_VEBER_RULE>
0

> <DRUGBANK_ID>
DB13794

> <DRUG_GROUPS>
experimental

> <GENERIC_NAME>
Dimethoxanate

> <SYNONYMS>
Dimethoxanate

$$$$
