
  Mrv1902 03111917042D          

  8  6  0  0  0  0            999 V2000
   -1.7861    0.8250    0.0000 Sr  0  2  0  0  0  0  0  0  0  0  0  0
    0.3572    0.4125    0.0000 C   0  0  0  0  0  0  0  0  0  0  0  0
   -0.3572    0.0000    0.0000 C   0  0  0  0  0  0  0  0  0  0  0  0
   -0.3572   -0.8250    0.0000 O   0  0  0  0  0  0  0  0  0  0  0  0
   -1.0717    0.4125    0.0000 O   0  5  0  0  0  0  0  0  0  0  0  0
    1.0717    0.0000    0.0000 C   0  0  0  0  0  0  0  0  0  0  0  0
    1.7861    0.4125    0.0000 O   0  0  0  0  0  0  0  0  0  0  0  0
    1.0717   -0.8250    0.0000 O   0  5  0  0  0  0  0  0  0  0  0  0
  2  3  1  0  0  0  0
  3  4  2  0  0  0  0
  3  5  1  0  0  0  0
  2  6  1  0  0  0  0
  6  7  2  0  0  0  0
  6  8  1  0  0  0  0
M  CHG  3   1   2   5  -1   8  -1
M  END
> <DATABASE_ID>
DB05732

> <DATABASE_NAME>
drugbank

> <SMILES>
[Sr++].[O-]C(=O)CC([O-])=O

> <INCHI_IDENTIFIER>
InChI=1S/C3H4O4.Sr/c4-2(5)1-3(6)7;/h1H2,(H,4,5)(H,6,7);/q;+2/p-2

> <INCHI_KEY>
LVZZABGEQTZXHP-UHFFFAOYSA-L

> <FORMULA>
C3H2O4Sr

> <MOLECULAR_WEIGHT>
189.67

> <EXACT_MASS>
189.900922

> <JCHEM_ACCEPTOR_COUNT>
4

> <JCHEM_ATOM_COUNT>
10

> <JCHEM_AVERAGE_POLARIZABILITY>
7.355063115998016

> <JCHEM_BIOAVAILABILITY>
1

> <JCHEM_DONOR_COUNT>
0

> <JCHEM_FORMAL_CHARGE>
0

> <JCHEM_GHOSE_FILTER>
0

> <JCHEM_IUPAC>
strontium(2+) propanedioate

> <ALOGPS_LOGP>
0.32

> <JCHEM_LOGP>
-0.3311172683333333

> <ALOGPS_LOGS>
-0.77

> <JCHEM_MDDR_LIKE_RULE>
0

> <JCHEM_NUMBER_OF_RINGS>
0

> <JCHEM_PHYSIOLOGICAL_CHARGE>
-2

> <JCHEM_PKA>
5.919487044057661

> <JCHEM_PKA_STRONGEST_ACIDIC>
2.4284239631132736

> <JCHEM_POLAR_SURFACE_AREA>
80.25999999999999

> <JCHEM_REFRACTIVITY>
40.662000000000006

> <JCHEM_ROTATABLE_BOND_COUNT>
2

> <JCHEM_RULE_OF_FIVE>
1

> <ALOGPS_SOLUBILITY>
4.09e+01 g/l

> <JCHEM_TRADITIONAL_IUPAC>
nomifensine maleate

> <JCHEM_VEBER_RULE>
0

> <DRUGBANK_ID>
DB05732

> <DRUG_GROUPS>
investigational

> <GENERIC_NAME>
Strontium malonate

$$$$
