
  Mrv1718008311818452D          

 12 13  0  0  0  0            999 V2000
    3.3523    1.9354    0.0000 C   0  0  0  0  0  0  0  0  0  0  0  0
    3.3523    1.1104    0.0000 C   0  0  0  0  0  0  0  0  0  0  0  0
    2.6378    0.6979    0.0000 C   0  0  0  0  0  0  0  0  0  0  0  0
    1.9233    1.1104    0.0000 C   0  0  0  0  0  0  0  0  0  0  0  0
    1.9233    1.9354    0.0000 C   0  0  0  0  0  0  0  0  0  0  0  0
    2.6378    2.3479    0.0000 C   0  0  0  0  0  0  0  0  0  0  0  0
    1.1387    2.1904    0.0000 C   0  0  0  0  0  0  0  0  0  0  0  0
    0.6538    1.5229    0.0000 N   0  0  0  0  0  0  0  0  0  0  0  0
    1.1387    0.8555    0.0000 S   0  0  0  0  0  0  0  0  0  0  0  0
    0.5314    0.2971    0.0000 O   0  0  0  0  0  0  0  0  0  0  0  0
    1.3018    0.0468    0.0000 O   0  0  0  0  0  0  0  0  0  0  0  0
    0.8838    2.9750    0.0000 Cl  0  0  0  0  0  0  0  0  0  0  0  0
  1  2  2  0  0  0  0
  2  3  1  0  0  0  0
  3  4  2  0  0  0  0
  4  5  1  0  0  0  0
  5  6  2  0  0  0  0
  1  6  1  0  0  0  0
  5  7  1  0  0  0  0
  7  8  2  0  0  0  0
  8  9  1  0  0  0  0
  4  9  1  0  0  0  0
  9 10  2  0  0  0  0
  9 11  2  0  0  0  0
  7 12  1  0  0  0  0
M  END
> <DATABASE_ID>
DB14628

> <DATABASE_NAME>
drugbank

> <SMILES>
ClC1=NS(=O)(=O)C2=CC=CC=C12

> <INCHI_IDENTIFIER>
InChI=1S/C7H4ClNO2S/c8-7-5-3-1-2-4-6(5)12(10,11)9-7/h1-4H

> <INCHI_KEY>
VBEJRJPHNPIURV-UHFFFAOYSA-N

> <FORMULA>
C7H4ClNO2S

> <MOLECULAR_WEIGHT>
201.62

> <EXACT_MASS>
200.9651272

> <JCHEM_ACCEPTOR_COUNT>
3

> <JCHEM_ATOM_COUNT>
16

> <JCHEM_AVERAGE_POLARIZABILITY>
17.355511220132833

> <JCHEM_BIOAVAILABILITY>
1

> <JCHEM_DONOR_COUNT>
0

> <JCHEM_FORMAL_CHARGE>
0

> <JCHEM_GHOSE_FILTER>
0

> <JCHEM_IUPAC>
3-chloro-1lambda6,2-benzothiazole-1,1-dione

> <ALOGPS_LOGP>
1.14

> <JCHEM_LOGP>
1.349643963

> <ALOGPS_LOGS>
-2.85

> <JCHEM_MDDR_LIKE_RULE>
0

> <JCHEM_NUMBER_OF_RINGS>
2

> <JCHEM_PHYSIOLOGICAL_CHARGE>
0

> <JCHEM_PKA_STRONGEST_BASIC>
-3.4925429477355867

> <JCHEM_POLAR_SURFACE_AREA>
46.5

> <JCHEM_REFRACTIVITY>
46.2877

> <JCHEM_ROTATABLE_BOND_COUNT>
0

> <JCHEM_RULE_OF_FIVE>
1

> <ALOGPS_SOLUBILITY>
2.82e-01 g/l

> <JCHEM_TRADITIONAL_IUPAC>
3-chloro-1lambda6,2-benzothiazole-1,1-dione

> <JCHEM_VEBER_RULE>
0

> <DRUGBANK_ID>
DB14628

> <SECONDARY_ACCESSION_NUMBERS>
DBSALT002237

> <DRUG_GROUPS>
experimental

> <GENERIC_NAME>
Pseudosaccharin chloride

> <SYNONYMS>
3-Chloro-psi-saccharin; 3-Chlorobenzo(d)isothiazole 1,1-dioxide

$$$$
