
  Mrv1902 03311917272D          

 45 47  0  0  0  0            999 V2000
   -0.1509   -0.2615    0.0000 O   0  0  0  0  0  0  0  0  0  0  0  0
   -1.2779   -1.3885    0.0000 O   0  0  0  0  0  0  0  0  0  0  0  0
    1.9924    0.9759    0.0000 O   0  0  0  0  0  0  0  0  0  0  0  0
    1.2779    2.2135    0.0000 O   0  0  0  0  0  0  0  0  0  0  0  0
    0.8654   -2.6260    0.0000 O   0  0  0  0  0  0  0  0  0  0  0  0
   -0.1509    1.3885    0.0000 O   0  0  0  0  0  0  0  0  0  0  0  0
    1.2779   -1.0865    0.0000 O   0  0  0  0  0  0  0  0  0  0  0  0
    2.7070    3.8635    0.0000 O   0  0  0  0  0  0  0  0  0  0  0  0
   -1.9924   -3.4510    0.0000 O   0  0  0  0  0  0  0  0  0  0  0  0
    2.7070    1.3885    0.0000 O   0  0  0  0  0  0  0  0  0  0  0  0
   -1.8009   -0.2615    0.0000 O   0  0  0  0  0  0  0  0  0  0  0  0
   -2.7069   -1.3885    0.0000 O   0  0  0  0  0  0  0  0  0  0  0  0
    4.1359    2.2135    0.0000 O   0  0  0  0  0  0  0  0  0  0  0  0
    3.4214    0.1509    0.0000 O   0  0  0  0  0  0  0  0  0  0  0  0
   -0.5634    0.4529    0.0000 O   0  0  0  0  0  0  0  0  0  0  0  0
    4.1359    3.8635    0.0000 O   0  0  0  0  0  0  0  0  0  0  0  0
    1.2779    4.6885    0.0000 O   0  0  0  0  0  0  0  0  0  0  0  0
   -4.1359   -2.2135    0.0000 O   0  0  0  0  0  0  0  0  0  0  0  0
    0.8654   -3.4510    0.0000 O   0  0  0  0  0  0  0  0  0  0  0  0
   -0.5634   -3.4510    0.0000 N   0  0  0  0  0  0  0  0  0  0  0  0
   -0.5634   -0.9759    0.0000 C   0  0  1  0  0  0  0  0  0  0  0  0
    0.5635    0.1509    0.0000 C   0  0  2  0  0  0  0  0  0  0  0  0
   -0.5634   -2.6260    0.0000 C   0  0  1  0  0  0  0  0  0  0  0  0
   -1.2779   -2.2135    0.0000 C   0  0  2  0  0  0  0  0  0  0  0  0
    0.1510   -2.2135    0.0000 C   0  0  2  0  0  0  0  0  0  0  0  0
    0.1510   -1.3885    0.0000 C   0  0  0  0  0  0  0  0  0  0  0  0
    0.5635    0.9759    0.0000 C   0  0  2  0  0  0  0  0  0  0  0  0
    1.2779   -0.2615    0.0000 C   0  0  2  0  0  0  0  0  0  0  0  0
    1.2779    1.3885    0.0000 C   0  0  1  0  0  0  0  0  0  0  0  0
    1.9924    0.1509    0.0000 C   0  0  1  0  0  0  0  0  0  0  0  0
   -1.9924   -2.6260    0.0000 C   0  0  1  0  0  0  0  0  0  0  0  0
    1.9924    2.6260    0.0000 C   0  0  1  0  0  0  0  0  0  0  0  0
    2.7070    2.2135    0.0000 C   0  0  1  0  0  0  0  0  0  0  0  0
    1.9924    3.4510    0.0000 C   0  0  1  0  0  0  0  0  0  0  0  0
   -0.9759   -0.2615    0.0000 C   0  0  0  0  0  0  0  0  0  0  0  0
   -2.7069   -2.2135    0.0000 C   0  0  1  0  0  0  0  0  0  0  0  0
    3.4214    2.6260    0.0000 C   0  0  2  0  0  0  0  0  0  0  0  0
    2.7070   -0.2615    0.0000 C   0  0  0  0  0  0  0  0  0  0  0  0
    3.4214    3.4510    0.0000 C   0  0  2  0  0  0  0  0  0  0  0  0
    1.2779    3.8635    0.0000 C   0  0  0  0  0  0  0  0  0  0  0  0
   -3.4213   -2.6260    0.0000 C   0  0  0  0  0  0  0  0  0  0  0  0
    0.1510   -3.8635    0.0000 C   0  0  0  0  0  0  0  0  0  0  0  0
    0.1510   -4.6885    0.0000 C   0  0  0  0  0  0  0  0  0  0  0  0
   -1.8495   -1.8835    0.0000 H   0  0  0  0  0  0  0  0  0  0  0  0
   -1.0064   -3.7068    0.0000 H   0  0  0  0  0  0  0  0  0  0  0  0
 21  1  1  6  0  0  0
 22  1  1  6  0  0  0
  2 21  1  0  0  0  0
  2 24  1  0  0  0  0
  3 29  1  0  0  0  0
  3 30  1  0  0  0  0
 29  4  1  6  0  0  0
 32  4  1  6  0  0  0
 25  5  1  6  0  0  0
 27  6  1  1  0  0  0
 28  7  1  6  0  0  0
  8 34  1  0  0  0  0
  8 39  1  0  0  0  0
 31  9  1  6  0  0  0
 33 10  1  1  0  0  0
 11 35  1  0  0  0  0
 36 12  1  1  0  0  0
 37 13  1  6  0  0  0
 14 38  1  0  0  0  0
 15 35  2  0  0  0  0
 39 16  1  6  0  0  0
 17 40  1  0  0  0  0
 18 41  1  0  0  0  0
 19 42  2  0  0  0  0
 23 20  1  1  0  0  0
 20 42  1  0  0  0  0
 20 45  1  0  0  0  0
 21 26  1  0  0  0  0
 21 35  1  0  0  0  0
 22 27  1  0  0  0  0
 22 28  1  0  0  0  0
 23 24  1  0  0  0  0
 23 25  1  0  0  0  0
 24 31  1  0  0  0  0
 24 44  1  1  0  0  0
 25 26  1  0  0  0  0
 27 29  1  0  0  0  0
 28 30  1  0  0  0  0
 30 38  1  6  0  0  0
 31 36  1  0  0  0  0
 32 33  1  0  0  0  0
 32 34  1  0  0  0  0
 33 37  1  0  0  0  0
 34 40  1  1  0  0  0
 36 41  1  0  0  0  0
 37 39  1  0  0  0  0
 42 43  1  0  0  0  0
M  END
> <DATABASE_ID>
DB03296

> <DATABASE_NAME>
drugbank

> <SMILES>
[H]N([C@@H]1[C@@H](O)C[C@@](O[C@H]2[C@@H](O)[C@@H](CO)O[C@@H](O[C@@H]3[C@@H](CO)O[C@H](O)[C@H](O)[C@H]3O)[C@@H]2O)(O[C@@]1([H])[C@H](O)[C@H](O)CO)C(O)=O)C(C)=O

> <INCHI_IDENTIFIER>
InChI=1S/C23H39NO19/c1-6(28)24-11-7(29)2-23(22(37)38,42-18(11)12(31)8(30)3-25)43-19-13(32)9(4-26)40-21(16(19)35)41-17-10(5-27)39-20(36)15(34)14(17)33/h7-21,25-27,29-36H,2-5H2,1H3,(H,24,28)(H,37,38)/t7-,8+,9+,10+,11+,12+,13-,14+,15+,16+,17+,18+,19-,20-,21-,23-/m0/s1

> <INCHI_KEY>
CILYIEBUXJIHCO-LPTWSRJFSA-N

> <FORMULA>
C23H39NO19

> <MOLECULAR_WEIGHT>
633.5511

> <EXACT_MASS>
633.211628071

> <JCHEM_ACCEPTOR_COUNT>
19

> <JCHEM_ATOM_COUNT>
82

> <JCHEM_AVERAGE_POLARIZABILITY>
58.74661882942627

> <JCHEM_BIOAVAILABILITY>
0

> <JCHEM_DONOR_COUNT>
13

> <JCHEM_FORMAL_CHARGE>
0

> <JCHEM_GHOSE_FILTER>
0

> <JCHEM_IUPAC>
(2S,4S,5R,6R)-2-{[(2R,3S,4S,5R,6S)-3,5-dihydroxy-2-(hydroxymethyl)-6-{[(2R,3S,4R,5R,6S)-4,5,6-trihydroxy-2-(hydroxymethyl)oxan-3-yl]oxy}oxan-4-yl]oxy}-5-acetamido-4-hydroxy-6-[(1R,2R)-1,2,3-trihydroxypropyl]oxane-2-carboxylic acid

> <ALOGPS_LOGP>
-2.69

> <JCHEM_LOGP>
-7.105608810333331

> <ALOGPS_LOGS>
-0.73

> <JCHEM_MDDR_LIKE_RULE>
1

> <JCHEM_NUMBER_OF_RINGS>
3

> <JCHEM_PHYSIOLOGICAL_CHARGE>
-1

> <JCHEM_PKA>
11.241832521904279

> <JCHEM_PKA_STRONGEST_ACIDIC>
2.837864781337939

> <JCHEM_PKA_STRONGEST_BASIC>
-3.632612950722255

> <JCHEM_POLAR_SURFACE_AREA>
335.08

> <JCHEM_REFRACTIVITY>
128.60799999999992

> <JCHEM_ROTATABLE_BOND_COUNT>
11

> <JCHEM_RULE_OF_FIVE>
0

> <ALOGPS_SOLUBILITY>
1.17e+02 g/l

> <JCHEM_TRADITIONAL_IUPAC>
(2S,4S,5R,6R)-2-{[(2R,3S,4S,5R,6S)-3,5-dihydroxy-2-(hydroxymethyl)-6-{[(2R,3S,4R,5R,6S)-4,5,6-trihydroxy-2-(hydroxymethyl)oxan-3-yl]oxy}oxan-4-yl]oxy}-5-acetamido-4-hydroxy-6-[(1R,2R)-1,2,3-trihydroxypropyl]oxane-2-carboxylic acid

> <JCHEM_VEBER_RULE>
0

> <DRUGBANK_ID>
DB03296

> <SECONDARY_ACCESSION_NUMBERS>
EXPT02917

> <DRUG_GROUPS>
experimental

> <GENERIC_NAME>
3'-beta-Sialyl-beta-lactose

> <SYNONYMS>
O-(N-Acetyl-alpha-neuraminosyl)-(2->3)-o-beta-D-galactopyranosyl-(1->4)-alpha-D-glucopyranose

$$$$
