
  Mrv1718009151813002D          

 15 16  0  0  0  0            999 V2000
    1.4289   -1.8562    0.0000 C   0  0  0  0  0  0  0  0  0  0  0  0
    2.1434   -0.6187    0.0000 C   0  0  0  0  0  0  0  0  0  0  0  0
    0.0000    1.4437    0.0000 C   0  0  0  0  0  0  0  0  0  0  0  0
   -0.7144    0.2062    0.0000 C   0  0  0  0  0  0  0  0  0  0  0  0
   -0.7144    1.8562    0.0000 C   0  0  0  0  0  0  0  0  0  0  0  0
   -1.4289    0.6187    0.0000 C   0  0  0  0  0  0  0  0  0  0  0  0
    2.1434    0.2062    0.0000 C   0  0  0  0  0  0  0  0  0  0  0  0
    0.7144   -0.6187    0.0000 C   0  0  0  0  0  0  0  0  0  0  0  0
    1.4289   -1.0312    0.0000 C   0  0  0  0  0  0  0  0  0  0  0  0
    0.0000    0.6187    0.0000 C   0  0  0  0  0  0  0  0  0  0  0  0
   -1.4289    1.4437    0.0000 C   0  0  0  0  0  0  0  0  0  0  0  0
    1.4289    0.6187    0.0000 C   0  0  0  0  0  0  0  0  0  0  0  0
    0.7144    0.2062    0.0000 N   0  0  0  0  0  0  0  0  0  0  0  0
   -2.1434    1.8562    0.0000 O   0  0  0  0  0  0  0  0  0  0  0  0
    1.4289    1.4437    0.0000 O   0  0  0  0  0  0  0  0  0  0  0  0
  5  3  1  0  0  0  0
  6  4  2  0  0  0  0
  7  2  2  0  0  0  0
  9  1  1  0  0  0  0
  9  2  1  0  0  0  0
  9  8  2  0  0  0  0
 10  3  2  0  0  0  0
 10  4  1  0  0  0  0
 11  5  2  0  0  0  0
 11  6  1  0  0  0  0
 12  7  1  0  0  0  0
 13  8  1  0  0  0  0
 13 10  1  0  0  0  0
 13 12  1  0  0  0  0
 14 11  1  0  0  0  0
 15 12  2  0  0  0  0
M  END
> <DATABASE_ID>
DB06299

> <DATABASE_NAME>
drugbank

> <SMILES>
CC1=CN(C(=O)C=C1)C1=CC=C(O)C=C1

> <INCHI_IDENTIFIER>
InChI=1S/C12H11NO2/c1-9-2-7-12(15)13(8-9)10-3-5-11(14)6-4-10/h2-8,14H,1H3

> <INCHI_KEY>
NETTXQJYJRFTFS-UHFFFAOYSA-N

> <FORMULA>
C12H11NO2

> <MOLECULAR_WEIGHT>
201.225

> <EXACT_MASS>
201.078978598

> <JCHEM_ACCEPTOR_COUNT>
2

> <JCHEM_ATOM_COUNT>
26

> <JCHEM_AVERAGE_POLARIZABILITY>
21.295401419199713

> <JCHEM_BIOAVAILABILITY>
1

> <JCHEM_DONOR_COUNT>
1

> <JCHEM_FORMAL_CHARGE>
0

> <JCHEM_GHOSE_FILTER>
1

> <JCHEM_IUPAC>
1-(4-hydroxyphenyl)-5-methyl-1,2-dihydropyridin-2-one

> <ALOGPS_LOGP>
1.63

> <JCHEM_LOGP>
1.8382923656666663

> <ALOGPS_LOGS>
-1.80

> <JCHEM_MDDR_LIKE_RULE>
0

> <JCHEM_NUMBER_OF_RINGS>
2

> <JCHEM_PHYSIOLOGICAL_CHARGE>
0

> <JCHEM_PKA_STRONGEST_ACIDIC>
9.297588185569012

> <JCHEM_PKA_STRONGEST_BASIC>
-1.2202280149663123

> <JCHEM_POLAR_SURFACE_AREA>
40.54

> <JCHEM_REFRACTIVITY>
58.9825

> <JCHEM_ROTATABLE_BOND_COUNT>
1

> <JCHEM_RULE_OF_FIVE>
1

> <ALOGPS_SOLUBILITY>
3.15e+00 g/l

> <JCHEM_TRADITIONAL_IUPAC>
1-(4-hydroxyphenyl)-5-methylpyridin-2-one

> <JCHEM_VEBER_RULE>
0

> <DRUGBANK_ID>
DB06299

> <DRUG_GROUPS>
investigational

> <GENERIC_NAME>
Hydronidone

> <SYNONYMS>
N-(4-Hydroxyphenyl)-5-methyl-2-pyridone

$$$$
