
  Mrv1652306231722392D          

  6  5  0  0  0  0            999 V2000
    0.8250    0.0000    0.0000 C   0  0  0  0  0  0  0  0  0  0  0  0
    1.2375   -0.7145    0.0000 S   0  0  0  0  0  0  0  0  0  0  0  0
    1.6500   -1.4289    0.0000 O   0  0  0  0  0  0  0  0  0  0  0  0
    1.9520   -0.3020    0.0000 O   0  0  0  0  0  0  0  0  0  0  0  0
    0.5230   -1.1270    0.0000 O   0  0  0  0  0  0  0  0  0  0  0  0
    0.0000    0.0000    0.0000 I   0  0  0  0  0  0  0  0  0  0  0  0
  1  2  1  0  0  0  0
  2  3  2  0  0  0  0
  2  4  2  0  0  0  0
  2  5  1  0  0  0  0
  1  6  1  0  0  0  0
M  END
> <DATABASE_ID>
DB13321

> <DATABASE_NAME>
drugbank

> <SMILES>
OS(=O)(=O)CI

> <INCHI_IDENTIFIER>
InChI=1S/CH3IO3S/c2-1-6(3,4)5/h1H2,(H,3,4,5)

> <INCHI_KEY>
RDFJFVXMRYVOAC-UHFFFAOYSA-N

> <FORMULA>
CH3IO3S

> <MOLECULAR_WEIGHT>
222.0

> <EXACT_MASS>
221.88476

> <JCHEM_ACCEPTOR_COUNT>
3

> <JCHEM_ATOM_COUNT>
9

> <JCHEM_AVERAGE_POLARIZABILITY>
12.50384090350783

> <JCHEM_BIOAVAILABILITY>
1

> <JCHEM_DONOR_COUNT>
1

> <JCHEM_FORMAL_CHARGE>
0

> <JCHEM_GHOSE_FILTER>
0

> <JCHEM_IUPAC>
iodomethanesulfonic acid

> <ALOGPS_LOGP>
-1.46

> <JCHEM_LOGP>
0.2212135673333334

> <ALOGPS_LOGS>
-1.37

> <JCHEM_MDDR_LIKE_RULE>
0

> <JCHEM_NUMBER_OF_RINGS>
0

> <JCHEM_PHYSIOLOGICAL_CHARGE>
-1

> <JCHEM_PKA_STRONGEST_ACIDIC>
-1.8056218899267389

> <JCHEM_POLAR_SURFACE_AREA>
54.370000000000005

> <JCHEM_REFRACTIVITY>
29.325499999999998

> <JCHEM_ROTATABLE_BOND_COUNT>
1

> <JCHEM_RULE_OF_FIVE>
1

> <ALOGPS_SOLUBILITY>
9.39e+00 g/l

> <JCHEM_TRADITIONAL_IUPAC>
iodomethanesulfonic acid

> <JCHEM_VEBER_RULE>
0

> <DRUGBANK_ID>
DB13321

> <DRUG_GROUPS>
experimental

> <GENERIC_NAME>
Methiodal

$$$$
