
  Mrv1652306231722452D          

 28 31  0  0  1  0            999 V2000
    5.8799    1.8877    0.0000 C   0  0  0  0  0  0  0  0  0  0  0  0
    5.5996    1.1118    0.0000 C   0  0  0  0  0  0  0  0  0  0  0  0
    6.1315    0.4811    0.0000 O   0  0  0  0  0  0  0  0  0  0  0  0
    4.7875    0.9666    0.0000 C   0  0  1  0  0  0  0  0  0  0  0  0
    5.0168    0.1741    0.0000 C   0  0  0  0  0  0  0  0  0  0  0  0
    4.3340   -0.2889    0.0000 C   0  0  0  0  0  0  0  0  0  0  0  0
    3.6826    0.2174    0.0000 C   0  0  2  0  0  0  0  0  0  0  0  0
    3.9629    0.9934    0.0000 C   0  0  2  0  0  0  0  0  0  0  0  0
    3.4311    1.6241    0.0000 C   0  0  0  0  0  0  0  0  0  0  0  0
    2.6190    1.4789    0.0000 C   0  0  0  0  0  0  0  0  0  0  0  0
    2.3387    0.7029    0.0000 C   0  0  1  0  0  0  0  0  0  0  0  0
    2.8705    0.0722    0.0000 C   0  0  1  0  0  0  0  0  0  0  0  0
    2.5902   -0.7037    0.0000 C   0  0  0  0  0  0  0  0  0  0  0  0
    1.7781   -0.8489    0.0000 C   0  0  1  0  0  0  0  0  0  0  0  0
    1.2463   -0.2182    0.0000 C   0  0  0  0  0  0  0  0  0  0  0  0
    0.4342   -0.3634    0.0000 C   0  0  0  0  0  0  0  0  0  0  0  0
   -0.0976    0.2673    0.0000 C   0  0  0  0  0  0  0  0  0  0  0  0
   -0.9098    0.1221    0.0000 O   0  0  0  0  0  0  0  0  0  0  0  0
    0.1827    1.0432    0.0000 C   0  0  0  0  0  0  0  0  0  0  0  0
    0.9948    1.1884    0.0000 C   0  0  0  0  0  0  0  0  0  0  0  0
    1.5266    0.5577    0.0000 C   0  0  2  0  0  0  0  0  0  0  0  0
    1.8069    1.3336    0.0000 C   0  0  0  0  0  0  0  0  0  0  0  0
    1.4978   -1.6248    0.0000 C   0  0  0  0  0  0  0  0  0  0  0  0
    1.2175   -2.4008    0.0000 F   0  0  0  0  0  0  0  0  0  0  0  0
    0.7219   -1.3445    0.0000 F   0  0  0  0  0  0  0  0  0  0  0  0
    2.2737   -1.9051    0.0000 F   0  0  0  0  0  0  0  0  0  0  0  0
    4.3228    1.7357    0.0000 C   0  0  0  0  0  0  0  0  0  0  0  0
    4.7280    1.7894    0.0000 O   0  0  0  0  0  0  0  0  0  0  0  0
  1  2  1  0  0  0  0
  2  3  2  0  0  0  0
  4  2  1  1  0  0  0
  4  5  1  0  0  0  0
  5  6  1  0  0  0  0
  7  6  1  1  0  0  0
  7  8  1  0  0  0  0
  4  8  1  0  0  0  0
  8  9  1  0  0  0  0
  9 10  1  0  0  0  0
 11 10  1  1  0  0  0
 11 12  1  0  0  0  0
  7 12  1  0  0  0  0
 12 13  1  6  0  0  0
 13 14  1  0  0  0  0
 14 15  1  0  0  0  0
 15 16  2  0  0  0  0
 16 17  1  0  0  0  0
 17 18  2  0  0  0  0
 17 19  1  0  0  0  0
 19 20  1  0  0  0  0
 20 21  1  0  0  0  0
 11 21  1  0  0  0  0
 15 21  1  0  0  0  0
 21 22  1  1  0  0  0
 14 23  1  6  0  0  0
 23 24  1  0  0  0  0
 23 25  1  0  0  0  0
 23 26  1  0  0  0  0
  8 27  1  1  0  0  0
  4 28  1  6  0  0  0
M  END
> <DATABASE_ID>
DB13610

> <DATABASE_NAME>
drugbank

> <SMILES>
CC(=O)[C@@]1(O)CC[C@H]2[C@@H]3C[C@@H](C4=CC(=O)CC[C@]4(C)[C@H]3CC[C@]12C)C(F)(F)F

> <INCHI_IDENTIFIER>
InChI=1S/C22H29F3O3/c1-12(26)21(28)9-6-16-14-11-18(22(23,24)25)17-10-13(27)4-7-19(17,2)15(14)5-8-20(16,21)3/h10,14-16,18,28H,4-9,11H2,1-3H3/t14-,15+,16+,18+,19-,20+,21+/m1/s1

> <INCHI_KEY>
CDZJOBWKHSYNMO-SCUQKFFVSA-N

> <FORMULA>
C22H29F3O3

> <MOLECULAR_WEIGHT>
398.466

> <EXACT_MASS>
398.206879283

> <JCHEM_ACCEPTOR_COUNT>
3

> <JCHEM_ATOM_COUNT>
57

> <JCHEM_AVERAGE_POLARIZABILITY>
40.23899188759938

> <JCHEM_BIOAVAILABILITY>
1

> <JCHEM_DONOR_COUNT>
1

> <JCHEM_FORMAL_CHARGE>
0

> <JCHEM_GHOSE_FILTER>
1

> <JCHEM_IUPAC>
(1S,2R,8S,10R,11S,14R,15S)-14-acetyl-14-hydroxy-2,15-dimethyl-8-(trifluoromethyl)tetracyclo[8.7.0.0^{2,7}.0^{11,15}]heptadec-6-en-5-one

> <ALOGPS_LOGP>
3.71

> <JCHEM_LOGP>
3.9654926943333333

> <ALOGPS_LOGS>
-4.70

> <JCHEM_MDDR_LIKE_RULE>
0

> <JCHEM_NUMBER_OF_RINGS>
4

> <JCHEM_PHYSIOLOGICAL_CHARGE>
0

> <JCHEM_PKA>
12.98426519833119

> <JCHEM_PKA_STRONGEST_ACIDIC>
12.38144825965787

> <JCHEM_PKA_STRONGEST_BASIC>
-3.804965391165717

> <JCHEM_POLAR_SURFACE_AREA>
54.370000000000005

> <JCHEM_REFRACTIVITY>
99.51180000000001

> <JCHEM_ROTATABLE_BOND_COUNT>
2

> <JCHEM_RULE_OF_FIVE>
1

> <ALOGPS_SOLUBILITY>
7.96e-03 g/l

> <JCHEM_TRADITIONAL_IUPAC>
(1S,2R,8S,10R,11S,14R,15S)-14-acetyl-14-hydroxy-2,15-dimethyl-8-(trifluoromethyl)tetracyclo[8.7.0.0^{2,7}.0^{11,15}]heptadec-6-en-5-one

> <JCHEM_VEBER_RULE>
0

> <DRUGBANK_ID>
DB13610

> <DRUG_GROUPS>
experimental

> <GENERIC_NAME>
Flumedroxone

> <SYNONYMS>
Flumedroxone

$$$$
