
  Mrv1902 02041900022D          

 43 49  0  0  0  0            999 V2000
   -2.2303    1.6566    0.0000 C   0  0  0  0  0  0  0  0  0  0  0  0
   -2.2303    0.8316    0.0000 C   0  0  0  0  0  0  0  0  0  0  0  0
   -1.5158    0.4191    0.0000 C   0  0  0  0  0  0  0  0  0  0  0  0
   -0.8014    0.8316    0.0000 C   0  0  0  0  0  0  0  0  0  0  0  0
   -0.8014    1.6566    0.0000 C   0  0  0  0  0  0  0  0  0  0  0  0
   -1.5158    2.0691    0.0000 C   0  0  0  0  0  0  0  0  0  0  0  0
   -0.0869    0.4191    0.0000 N   0  0  0  0  0  0  0  0  0  0  0  0
    0.6275    0.8316    0.0000 C   0  0  0  0  0  0  0  0  0  0  0  0
    0.6275    1.6566    0.0000 C   0  0  0  0  0  0  0  0  0  0  0  0
   -0.0869    2.0691    0.0000 C   0  0  0  0  0  0  0  0  0  0  0  0
   -2.9447    2.0691    0.0000 O   0  0  0  0  0  0  0  0  0  0  0  0
   -3.6592    1.6566    0.0000 C   0  0  0  0  0  0  0  0  0  0  0  0
   -4.3737    2.0692    0.0000 O   0  0  0  0  0  0  0  0  0  0  0  0
   -3.6591    0.8189    0.0000 N   0  0  0  0  0  0  0  0  0  0  0  0
   -2.9503    0.4098    0.0000 C   0  0  0  0  0  0  0  0  0  0  0  0
   -2.9502   -0.4151    0.0000 C   0  0  0  0  0  0  0  0  0  0  0  0
   -3.6646   -0.8278    0.0000 C   0  0  0  0  0  0  0  0  0  0  0  0
   -4.3735   -0.4186    0.0000 C   0  0  0  0  0  0  0  0  0  0  0  0
   -4.3735    0.4063    0.0000 C   0  0  0  0  0  0  0  0  0  0  0  0
   -3.6643   -1.6574    0.0000 N   0  0  0  0  0  0  0  0  0  0  0  0
   -2.9523   -2.0683    0.0000 C   0  0  0  0  0  0  0  0  0  0  0  0
   -2.9521   -2.8933    0.0000 C   0  0  0  0  0  0  0  0  0  0  0  0
   -3.6664   -3.3059    0.0000 C   0  0  0  0  0  0  0  0  0  0  0  0
   -4.3785   -2.8951    0.0000 C   0  0  0  0  0  0  0  0  0  0  0  0
   -4.3787   -2.0701    0.0000 C   0  0  0  0  0  0  0  0  0  0  0  0
    1.4121    0.5767    0.0000 C   0  0  0  0  0  0  0  0  0  0  0  0
    1.8971    1.2441    0.0000 N   0  0  0  0  0  0  0  0  0  0  0  0
    1.4121    1.9116    0.0000 C   0  0  0  0  0  0  0  0  0  0  0  0
    2.7197    1.2441    0.0000 C   0  0  0  0  0  0  0  0  0  0  0  0
    3.1321    0.5297    0.0000 C   0  0  0  0  0  0  0  0  0  0  0  0
    2.7253   -0.1747    0.0000 C   0  0  0  0  0  0  0  0  0  0  0  0
    1.8947   -0.1747    0.0000 C   0  0  0  0  0  0  0  0  0  0  0  0
    3.1377   -0.8892    0.0000 C   0  0  2  0  0  0  0  0  0  0  0  0
    3.9627   -0.8894    0.0000 C   0  0  0  0  0  0  0  0  0  0  0  0
    4.3696   -0.1848    0.0000 O   0  0  0  0  0  0  0  0  0  0  0  0
    3.9571    0.5296    0.0000 C   0  0  0  0  0  0  0  0  0  0  0  0
    3.1321    1.9586    0.0000 O   0  0  0  0  0  0  0  0  0  0  0  0
    4.3787   -1.6099    0.0000 O   0  0  0  0  0  0  0  0  0  0  0  0
   -0.0869    2.8941    0.0000 C   0  0  0  0  0  0  0  0  0  0  0  0
   -0.8001    3.3059    0.0000 C   0  0  0  0  0  0  0  0  0  0  0  0
    2.3127   -0.8892    0.0000 C   0  0  0  0  0  0  0  0  0  0  0  0
    3.1377   -1.7258    0.0000 O   0  0  0  0  0  0  0  0  0  0  0  0
    1.8959   -1.6159    0.0000 C   0  0  0  0  0  0  0  0  0  0  0  0
  1  2  2  0  0  0  0
  2  3  1  0  0  0  0
  3  4  2  0  0  0  0
  4  5  1  0  0  0  0
  5  6  2  0  0  0  0
  1  6  1  0  0  0  0
  4  7  1  0  0  0  0
  7  8  2  0  0  0  0
  8  9  1  0  0  0  0
  9 10  2  0  0  0  0
  5 10  1  0  0  0  0
  1 11  1  0  0  0  0
 11 12  1  0  0  0  0
 12 13  2  0  0  0  0
 12 14  1  0  0  0  0
 14 15  1  0  0  0  0
 15 16  1  0  0  0  0
 16 17  1  0  0  0  0
 17 18  1  0  0  0  0
 18 19  1  0  0  0  0
 14 19  1  0  0  0  0
 17 20  1  0  0  0  0
 20 21  1  0  0  0  0
 21 22  1  0  0  0  0
 22 23  1  0  0  0  0
 23 24  1  0  0  0  0
 24 25  1  0  0  0  0
 20 25  1  0  0  0  0
  8 26  1  0  0  0  0
 26 27  1  0  0  0  0
 27 28  1  0  0  0  0
  9 28  1  0  0  0  0
 27 29  1  0  0  0  0
 29 30  1  0  0  0  0
 30 31  2  0  0  0  0
 31 32  1  0  0  0  0
 31 33  1  0  0  0  0
 33 34  1  0  0  0  0
 34 35  1  0  0  0  0
 35 36  1  0  0  0  0
 30 36  1  0  0  0  0
 32 26  2  0  0  0  0
 29 37  2  0  0  0  0
 34 38  2  0  0  0  0
 10 39  1  0  0  0  0
 39 40  1  0  0  0  0
 33 41  1  6  0  0  0
 33 42  1  1  0  0  0
 41 43  1  0  0  0  0
M  END
> <DATABASE_ID>
DB00762

> <DATABASE_NAME>
drugbank

> <SMILES>
CCC1=C2CN3C(=CC4=C(COC(=O)[C@]4(O)CC)C3=O)C2=NC2=CC=C(OC(=O)N3CCC(CC3)N3CCCCC3)C=C12

> <INCHI_IDENTIFIER>
InChI=1S/C33H38N4O6/c1-3-22-23-16-21(43-32(40)36-14-10-20(11-15-36)35-12-6-5-7-13-35)8-9-27(23)34-29-24(22)18-37-28(29)17-26-25(30(37)38)19-42-31(39)33(26,41)4-2/h8-9,16-17,20,41H,3-7,10-15,18-19H2,1-2H3/t33-/m0/s1

> <INCHI_KEY>
UWKQSNNFCGGAFS-XIFFEERXSA-N

> <FORMULA>
C33H38N4O6

> <MOLECULAR_WEIGHT>
586.678

> <EXACT_MASS>
586.279134968

> <JCHEM_ACCEPTOR_COUNT>
6

> <JCHEM_ATOM_COUNT>
81

> <JCHEM_AVERAGE_POLARIZABILITY>
65.26615881924718

> <JCHEM_BIOAVAILABILITY>
1

> <JCHEM_DONOR_COUNT>
1

> <JCHEM_FORMAL_CHARGE>
0

> <JCHEM_GHOSE_FILTER>
0

> <JCHEM_IUPAC>
(19S)-10,19-diethyl-19-hydroxy-14,18-dioxo-17-oxa-3,13-diazapentacyclo[11.8.0.0^{2,11}.0^{4,9}.0^{15,20}]henicosa-1(21),2,4(9),5,7,10,15(20)-heptaen-7-yl [1,4'-bipiperidine]-1'-carboxylate

> <ALOGPS_LOGP>
3.94

> <JCHEM_LOGP>
2.776473122999999

> <ALOGPS_LOGS>
-3.74

> <JCHEM_MDDR_LIKE_RULE>
0

> <JCHEM_NUMBER_OF_RINGS>
7

> <JCHEM_PHYSIOLOGICAL_CHARGE>
1

> <JCHEM_PKA_STRONGEST_ACIDIC>
11.713039193992351

> <JCHEM_PKA_STRONGEST_BASIC>
9.470303739304919

> <JCHEM_POLAR_SURFACE_AREA>
112.50999999999999

> <JCHEM_REFRACTIVITY>
161.33029999999997

> <JCHEM_ROTATABLE_BOND_COUNT>
5

> <JCHEM_RULE_OF_FIVE>
0

> <ALOGPS_SOLUBILITY>
1.07e-01 g/l

> <JCHEM_TRADITIONAL_IUPAC>
mifepristone

> <JCHEM_VEBER_RULE>
0

> <DRUGBANK_ID>
DB00762

> <SECONDARY_ACCESSION_NUMBERS>
APRD00579

> <DRUG_GROUPS>
approved; investigational

> <GENERIC_NAME>
Irinotecan

> <SYNONYMS>
(+)-Irinotecan; (S)-4,11-diethyl-4-hydroxy-3,14-dioxo-3,4,12,14-tetrahydro-1H-pyrano[3',4':6,7]indolizino[1,2-b]quinolin-9-yl 4-(2-(5-(3-(2,4-dihydroxy-5-isopropylphenyl)-5-hydroxy-4H-1,2,4-triazol-4-yl)-1H-indol-1-yl)ethyl)piperidine-1-carboxylate; Irinotecan; Irinotecan lactone; Irinotecanum

> <PRODUCTS>
Camptosar; Irinotecan; Irinotecan Hydrochloride; Irinotecan Hydrochloride 100 mg/ 5 mL; Irinotecan Hydrochloride 100 mg/5 mL; Irinotecan Hydrochloride 40 mg/2 mL; Irinotecan Hydrochloride Injection; Irinotecan Hydrochloride Injection USP; Irinotecan Hydrochloride Injection, USP; Irinotecan Hydrochloride Trihydrate Injection; Irinotecan Hydrochloride Trihydrate for Injection; Irinotecan for Injection; Irinotecan hydrochloide; Irinotecan hydrochloride; Onivyde; Onivyde Pegylated Liposomal

> <INTERNATIONAL_BRANDS>
Biotecan; Campto

> <SALTS>
Irinotecan hydrochloride; Irinotecan hydrochloride hydrate; Irinotecan sucrosofate

$$$$
