
  Mrv1652309131709272D          

 15 15  0  0  0  0            999 V2000
    1.4289   -0.0000    0.0000 C   0  0  0  0  0  0  0  0  0  0  0  0
    0.7145   -1.2375    0.0000 C   0  0  0  0  0  0  0  0  0  0  0  0
    1.4289    0.8250    0.0000 C   0  0  0  0  0  0  0  0  0  0  0  0
   -0.0000   -1.6500    0.0000 C   0  0  0  0  0  0  0  0  0  0  0  0
    0.0000    0.8250    0.0000 C   0  0  0  0  0  0  0  0  0  0  0  0
    0.7145   -0.4125    0.0000 C   0  0  0  0  0  0  0  0  0  0  0  0
    0.7145    1.2375    0.0000 C   0  0  0  0  0  0  0  0  0  0  0  0
    0.0000   -0.0000    0.0000 C   0  0  0  0  0  0  0  0  0  0  0  0
   -0.0000   -2.4750    0.0000 C   0  0  0  0  0  0  0  0  0  0  0  0
    0.7145    2.0625    0.0000 O   0  0  0  0  0  0  0  0  0  0  0  0
   -0.7145   -0.4125    0.0000 O   0  0  0  0  0  0  0  0  0  0  0  0
    0.7145   -2.8875    0.0000 O   0  0  0  0  0  0  0  0  0  0  0  0
   -0.7145   -2.8875    0.0000 O   0  0  0  0  0  0  0  0  0  0  0  0
    1.4289   -1.6500    0.0000 H   0  0  0  0  0  0  0  0  0  0  0  0
   -0.7145   -1.2375    0.0000 H   0  0  0  0  0  0  0  0  0  0  0  0
  3  1  2  0  0  0  0
  4  2  2  0  0  0  0
  6  1  1  0  0  0  0
  6  2  1  0  0  0  0
  7  3  1  0  0  0  0
  7  5  2  0  0  0  0
  8  5  1  0  0  0  0
  8  6  2  0  0  0  0
  9  4  1  0  0  0  0
 10  7  1  0  0  0  0
 11  8  1  0  0  0  0
 12  9  2  0  0  0  0
 13  9  1  0  0  0  0
 14  2  1  0  0  0  0
 15  4  1  0  0  0  0
M  END
> <DATABASE_ID>
DB01704

> <DATABASE_NAME>
drugbank

> <SMILES>
[H]\C(=C(\[H])C1=C(O)C=C(O)C=C1)C(O)=O

> <INCHI_IDENTIFIER>
InChI=1S/C9H8O4/c10-7-3-1-6(8(11)5-7)2-4-9(12)13/h1-5,10-11H,(H,12,13)/b4-2+

> <INCHI_KEY>
HGEFWFBFQKWVMY-DUXPYHPUSA-N

> <FORMULA>
C9H8O4

> <MOLECULAR_WEIGHT>
180.1574

> <EXACT_MASS>
180.042258744

> <JCHEM_ACCEPTOR_COUNT>
4

> <JCHEM_ATOM_COUNT>
21

> <JCHEM_AVERAGE_POLARIZABILITY>
17.109905217423602

> <JCHEM_BIOAVAILABILITY>
1

> <JCHEM_DONOR_COUNT>
3

> <JCHEM_FORMAL_CHARGE>
0

> <JCHEM_GHOSE_FILTER>
1

> <JCHEM_IUPAC>
(2E)-3-(2,4-dihydroxyphenyl)prop-2-enoic acid

> <ALOGPS_LOGP>
1.49

> <JCHEM_LOGP>
1.5289556166666665

> <ALOGPS_LOGS>
-2.05

> <JCHEM_MDDR_LIKE_RULE>
0

> <JCHEM_NUMBER_OF_RINGS>
1

> <JCHEM_PHYSIOLOGICAL_CHARGE>
-1

> <JCHEM_PKA>
9.16448721735092

> <JCHEM_PKA_STRONGEST_ACIDIC>
3.642623560024654

> <JCHEM_PKA_STRONGEST_BASIC>
-5.649442592457466

> <JCHEM_POLAR_SURFACE_AREA>
77.76

> <JCHEM_REFRACTIVITY>
47.0217

> <JCHEM_ROTATABLE_BOND_COUNT>
2

> <JCHEM_RULE_OF_FIVE>
1

> <ALOGPS_SOLUBILITY>
1.59e+00 g/l

> <JCHEM_TRADITIONAL_IUPAC>
(2E)-3-(2,4-dihydroxyphenyl)prop-2-enoic acid

> <JCHEM_VEBER_RULE>
0

> <DRUGBANK_ID>
DB01704

> <SECONDARY_ACCESSION_NUMBERS>
EXPT02925

> <DRUG_GROUPS>
experimental

> <GENERIC_NAME>
2,4-Dihydroxy-Trans Cinnamic Acid

$$$$
