
  Mrv1652306031608572D          

 31 33  0  0  1  0            999 V2000
    1.4289    2.4750    0.0000 C   0  0  0  0  0  0  0  0  0  0  0  0
    2.8579    3.3000    0.0000 C   0  0  0  0  0  0  0  0  0  0  0  0
    5.0013    4.5375    0.0000 C   0  0  0  0  0  0  0  0  0  0  0  0
    4.1888    1.3808    0.0000 C   0  0  0  0  0  0  0  0  0  0  0  0
    4.7191    0.4623    0.0000 C   0  0  0  0  0  0  0  0  0  0  0  0
    2.1434    2.0625    0.0000 C   0  0  0  0  0  0  0  0  0  0  0  0
    7.8592    1.2375    0.0000 C   0  0  0  0  0  0  0  0  0  0  0  0
    8.5737    2.4750    0.0000 C   0  0  0  0  0  0  0  0  0  0  0  0
    7.1447    0.8250    0.0000 C   0  0  0  0  0  0  0  0  0  0  0  0
    8.5737    3.3000    0.0000 C   0  0  0  0  0  0  0  0  0  0  0  0
    2.8579    2.4750    0.0000 C   0  0  2  0  0  0  0  0  0  0  0  0
    5.0013    3.7125    0.0000 C   0  0  0  0  0  0  0  0  0  0  0  0
    7.8592    2.0625    0.0000 C   0  0  0  0  0  0  0  0  0  0  0  0
    6.4302    1.2375    0.0000 C   0  0  0  0  0  0  0  0  0  0  0  0
    7.8592    3.7125    0.0000 C   0  0  0  0  0  0  0  0  0  0  0  0
    6.4302    2.0625    0.0000 C   0  0  0  0  0  0  0  0  0  0  0  0
    7.1447    2.4750    0.0000 C   0  0  0  0  0  0  0  0  0  0  0  0
    5.7158    2.4750    0.0000 C   0  0  2  0  0  0  0  0  0  0  0  0
    5.0013    2.0625    0.0000 C   0  0  2  0  0  0  0  0  0  0  0  0
    3.5724    2.0625    0.0000 C   0  0  0  0  0  0  0  0  0  0  0  0
    5.0013    1.2375    0.0000 C   0  0  0  0  0  0  0  0  0  0  0  0
    4.2868    3.3000    0.0000 O   0  0  0  0  0  0  0  0  0  0  0  0
    7.8592    4.5375    0.0000 O   0  0  0  0  0  0  0  0  0  0  0  0
    3.5724    1.2375    0.0000 O   0  0  0  0  0  0  0  0  0  0  0  0
    5.7158    3.3000    0.0000 O   0  0  0  0  0  0  0  0  0  0  0  0
    7.1447    3.3000    0.0000 O   0  0  0  0  0  0  0  0  0  0  0  0
    4.2868    2.4750    0.0000 O   0  0  0  0  0  0  0  0  0  0  0  0
    5.7158    0.8250    0.0000 O   0  0  0  0  0  0  0  0  0  0  0  0
    2.1434    2.8875    0.0000 H   0  0  0  0  0  0  0  0  0  0  0  0
    6.4302    2.8875    0.0000 H   0  0  0  0  0  0  0  0  0  0  0  0
    5.0013    2.8875    0.0000 H   0  0  0  0  0  0  0  0  0  0  0  0
  6  1  1  0  0  0  0
  9  7  2  0  0  0  0
 10  8  2  0  0  0  0
 11  2  1  1  0  0  0
 11  6  1  0  0  0  0
 12  3  1  0  0  0  0
 13  7  1  0  0  0  0
 13  8  1  0  0  0  0
 14  9  1  0  0  0  0
 15 10  1  0  0  0  0
 16 14  2  0  0  0  0
 17 13  2  0  0  0  0
 17 16  1  0  0  0  0
 18 16  1  0  0  0  0
 19 18  1  0  0  0  0
 20 11  1  0  0  0  0
 21  4  1  0  0  0  0
 21  5  1  0  0  0  0
 21 19  1  0  0  0  0
 22 12  2  0  0  0  0
 23 15  2  0  0  0  0
 24 20  2  0  0  0  0
 25 12  1  0  0  0  0
 18 25  1  6  0  0  0
 26 15  1  0  0  0  0
 26 17  1  0  0  0  0
 19 27  1  6  0  0  0
 27 20  1  0  0  0  0
 28 14  1  0  0  0  0
 28 21  1  0  0  0  0
 11 29  1  6  0  0  0
 18 30  1  1  0  0  0
 19 31  1  1  0  0  0
M  END
> <DATABASE_ID>
DB13355

> <DATABASE_NAME>
drugbank

> <SMILES>
[H][C@@](C)(CC)C(=O)O[C@]1([H])[C@]([H])(OC(C)=O)C2=C(OC1(C)C)C=CC1=C2OC(=O)C=C1

> <INCHI_IDENTIFIER>
InChI=1S/C21H24O7/c1-6-11(2)20(24)27-19-18(25-12(3)22)16-14(28-21(19,4)5)9-7-13-8-10-15(23)26-17(13)16/h7-11,18-19H,6H2,1-5H3/t11-,18-,19-/m1/s1

> <INCHI_KEY>
GVBNSPFBYXGREE-CXWAGAITSA-N

> <FORMULA>
C21H24O7

> <MOLECULAR_WEIGHT>
388.416

> <EXACT_MASS>
388.152203113

> <JCHEM_ACCEPTOR_COUNT>
4

> <JCHEM_ATOM_COUNT>
52

> <JCHEM_AVERAGE_POLARIZABILITY>
39.97931317314964

> <JCHEM_BIOAVAILABILITY>
1

> <JCHEM_DONOR_COUNT>
0

> <JCHEM_FORMAL_CHARGE>
0

> <JCHEM_GHOSE_FILTER>
1

> <JCHEM_IUPAC>
(9R,10R)-10-(acetyloxy)-8,8-dimethyl-2-oxo-2H,8H,9H,10H-pyrano[2,3-h]chromen-9-yl (2R)-2-methylbutanoate

> <ALOGPS_LOGP>
3.59

> <JCHEM_LOGP>
3.383739070999999

> <ALOGPS_LOGS>
-4.18

> <JCHEM_MDDR_LIKE_RULE>
1

> <JCHEM_NUMBER_OF_RINGS>
3

> <JCHEM_PHYSIOLOGICAL_CHARGE>
0

> <JCHEM_PKA_STRONGEST_BASIC>
-4.902201746209702

> <JCHEM_POLAR_SURFACE_AREA>
88.13000000000001

> <JCHEM_REFRACTIVITY>
99.65379999999996

> <JCHEM_ROTATABLE_BOND_COUNT>
6

> <JCHEM_RULE_OF_FIVE>
1

> <ALOGPS_SOLUBILITY>
2.57e-02 g/l

> <JCHEM_TRADITIONAL_IUPAC>
(9R,10R)-10-(acetyloxy)-8,8-dimethyl-2-oxo-9H,10H-pyrano[2,3-h]chromen-9-yl (2R)-2-methylbutanoate

> <JCHEM_VEBER_RULE>
0

> <DRUGBANK_ID>
DB13355

> <DRUG_GROUPS>
experimental; investigational

> <GENERIC_NAME>
Visnadine

> <SYNONYMS>
Visnadine

$$$$
