
  Mrv1652306131721592D          

 58 61  0  0  0  0            999 V2000
    0.0000    2.1750    0.0000 C   0  0  0  0  0  0  0  0  0  0  0  0
    0.0000    1.3500    0.0000 C   0  0  0  0  0  0  0  0  0  0  0  0
    0.7145    0.9375    0.0000 C   0  0  0  0  0  0  0  0  0  0  0  0
    0.7145    0.1125    0.0000 C   0  0  0  0  0  0  0  0  0  0  0  0
    0.0000   -0.3000    0.0000 C   0  0  0  0  0  0  0  0  0  0  0  0
   -0.7145    0.1125    0.0000 C   0  0  0  0  0  0  0  0  0  0  0  0
   -0.7145    0.9375    0.0000 C   0  0  0  0  0  0  0  0  0  0  0  0
   -0.0000   -1.1250    0.0000 S   0  0  0  0  0  0  0  0  0  0  0  0
   -0.0000   -1.9500    0.0000 O   0  0  0  0  0  0  0  0  0  0  0  0
   -0.8250   -1.1250    0.0000 O   0  0  0  0  0  0  0  0  0  0  0  0
    0.8250   -1.1250    0.0000 O   0  0  0  0  0  0  0  0  0  0  0  0
    3.4252    2.1750    0.0000 C   0  0  0  0  0  0  0  0  0  0  0  0
    3.4252    1.3500    0.0000 C   0  0  0  0  0  0  0  0  0  0  0  0
    4.1397    0.9375    0.0000 C   0  0  0  0  0  0  0  0  0  0  0  0
    4.1397    0.1125    0.0000 C   0  0  0  0  0  0  0  0  0  0  0  0
    3.4252   -0.3000    0.0000 C   0  0  0  0  0  0  0  0  0  0  0  0
    2.7107    0.1125    0.0000 C   0  0  0  0  0  0  0  0  0  0  0  0
    2.7107    0.9375    0.0000 C   0  0  0  0  0  0  0  0  0  0  0  0
    3.4252   -1.1250    0.0000 S   0  0  0  0  0  0  0  0  0  0  0  0
    3.4252   -1.9500    0.0000 O   0  0  0  0  0  0  0  0  0  0  0  0
    2.6002   -1.1250    0.0000 O   0  0  0  0  0  0  0  0  0  0  0  0
    4.2502   -1.1250    0.0000 O   0  0  0  0  0  0  0  0  0  0  0  0
   -2.6948   -7.8355    0.0000 C   0  0  0  0  0  0  0  0  0  0  0  0
   -2.2823   -8.5500    0.0000 C   0  0  0  0  0  0  0  0  0  0  0  0
   -1.8698   -9.2645    0.0000 C   0  0  0  0  0  0  0  0  0  0  0  0
   -1.5679   -8.1375    0.0000 C   0  0  0  0  0  0  0  0  0  0  0  0
   -0.8534   -7.7250    0.0000 C   0  0  0  0  0  0  0  0  0  0  0  0
   -0.1389   -7.3125    0.0000 C   0  0  0  0  0  0  0  0  0  0  0  0
    0.5755   -7.7250    0.0000 C   0  0  0  0  0  0  0  0  0  0  0  0
    1.2900   -7.3125    0.0000 C   0  0  0  0  0  0  0  0  0  0  0  0
    1.2900   -6.4875    0.0000 C   0  0  0  0  0  0  0  0  0  0  0  0
    0.5755   -6.0750    0.0000 C   0  0  0  0  0  0  0  0  0  0  0  0
   -0.1389   -6.4875    0.0000 C   0  0  0  0  0  0  0  0  0  0  0  0
   -0.8534   -6.0750    0.0000 N   0  0  0  0  0  0  0  0  0  0  0  0
   -1.5679   -6.4875    0.0000 C   0  0  0  0  0  0  0  0  0  0  0  0
   -2.2823   -6.0750    0.0000 O   0  0  0  0  0  0  0  0  0  0  0  0
   -1.5679   -7.3125    0.0000 C   0  0  0  0  0  0  0  0  0  0  0  0
   -2.2823   -7.7250    0.0000 C   0  0  0  0  0  0  0  0  0  0  0  0
    2.0045   -6.0750    0.0000 C   0  0  0  0  0  0  0  0  0  0  0  0
    2.7190   -6.4875    0.0000 N   0  0  0  0  0  0  0  0  0  0  0  0
    2.7190   -7.3125    0.0000 C   0  0  0  0  0  0  0  0  0  0  0  0
    2.0045   -7.7250    0.0000 N   0  0  0  0  0  0  0  0  0  0  0  0
    2.0045   -5.2500    0.0000 N   0  0  0  0  0  0  0  0  0  0  0  0
    2.7190   -4.8375    0.0000 C   0  0  0  0  0  0  0  0  0  0  0  0
    2.7190   -4.0125    0.0000 C   0  0  0  0  0  0  0  0  0  0  0  0
    3.4334   -3.6000    0.0000 C   0  0  0  0  0  0  0  0  0  0  0  0
    4.1479   -4.0125    0.0000 C   0  0  0  0  0  0  0  0  0  0  0  0
    4.1479   -4.8375    0.0000 C   0  0  0  0  0  0  0  0  0  0  0  0
    3.4334   -5.2500    0.0000 C   0  0  0  0  0  0  0  0  0  0  0  0
    4.8624   -5.2500    0.0000 Cl  0  0  0  0  0  0  0  0  0  0  0  0
    4.8624   -3.6000    0.0000 F   0  0  0  0  0  0  0  0  0  0  0  0
   -2.9968   -8.9625    0.0000 N   0  0  0  0  0  0  0  0  0  0  0  0
   -2.9968   -9.7875    0.0000 C   0  0  0  0  0  0  0  0  0  0  0  0
   -3.7113  -10.2000    0.0000 C   0  0  0  0  0  0  0  0  0  0  0  0
   -4.4258   -9.7875    0.0000 N   0  0  0  0  0  0  0  0  0  0  0  0
   -4.4258   -8.9625    0.0000 C   0  0  0  0  0  0  0  0  0  0  0  0
   -3.7113   -8.5500    0.0000 C   0  0  0  0  0  0  0  0  0  0  0  0
   -5.1402  -10.2000    0.0000 C   0  0  0  0  0  0  0  0  0  0  0  0
  1  2  1  0  0  0  0
  2  3  2  0  0  0  0
  3  4  1  0  0  0  0
  4  5  2  0  0  0  0
  5  6  1  0  0  0  0
  6  7  2  0  0  0  0
  2  7  1  0  0  0  0
  5  8  1  0  0  0  0
  8  9  2  0  0  0  0
  8 10  2  0  0  0  0
  8 11  1  0  0  0  0
 12 13  1  0  0  0  0
 13 14  2  0  0  0  0
 14 15  1  0  0  0  0
 15 16  2  0  0  0  0
 16 17  1  0  0  0  0
 17 18  2  0  0  0  0
 13 18  1  0  0  0  0
 16 19  1  0  0  0  0
 19 20  2  0  0  0  0
 19 21  2  0  0  0  0
 19 22  1  0  0  0  0
 23 24  1  0  0  0  0
 24 25  1  0  0  0  0
 24 26  1  0  0  0  0
 26 27  3  0  0  0  0
 27 28  1  0  0  0  0
 28 29  1  0  0  0  0
 29 30  2  0  0  0  0
 30 31  1  0  0  0  0
 31 32  2  0  0  0  0
 32 33  1  0  0  0  0
 28 33  2  0  0  0  0
 33 34  1  0  0  0  0
 34 35  1  0  0  0  0
 35 36  2  0  0  0  0
 35 37  1  0  0  0  0
 37 38  2  0  0  0  0
 31 39  1  0  0  0  0
 39 40  2  0  0  0  0
 40 41  1  0  0  0  0
 41 42  2  0  0  0  0
 30 42  1  0  0  0  0
 39 43  1  0  0  0  0
 43 44  1  0  0  0  0
 44 45  2  0  0  0  0
 45 46  1  0  0  0  0
 46 47  2  0  0  0  0
 47 48  1  0  0  0  0
 48 49  2  0  0  0  0
 44 49  1  0  0  0  0
 48 50  1  0  0  0  0
 47 51  1  0  0  0  0
 24 52  1  0  0  0  0
 52 53  1  0  0  0  0
 53 54  1  0  0  0  0
 54 55  1  0  0  0  0
 55 56  1  0  0  0  0
 56 57  1  0  0  0  0
 52 57  1  0  0  0  0
 55 58  1  0  0  0  0
M  END
> <DATABASE_ID>
DB06021

> <DATABASE_NAME>
drugbank

> <SMILES>
CC1=CC=C(C=C1)S(O)(=O)=O.CC1=CC=C(C=C1)S(O)(=O)=O.CN1CCN(CC1)C(C)(C)C#CC1=C(NC(=O)C=C)C=C2C(NC3=CC=C(F)C(Cl)=C3)=NC=NC2=C1

> <INCHI_IDENTIFIER>
InChI=1S/C27H28ClFN6O.2C7H8O3S/c1-5-25(36)33-23-16-20-24(30-17-31-26(20)32-19-6-7-22(29)21(28)15-19)14-18(23)8-9-27(2,3)35-12-10-34(4)11-13-35;2*1-6-2-4-7(5-3-6)11(8,9)10/h5-7,14-17H,1,10-13H2,2-4H3,(H,33,36)(H,30,31,32);2*2-5H,1H3,(H,8,9,10)

> <INCHI_KEY>
GTWJVFFZCKODEV-UHFFFAOYSA-N

> <FORMULA>
C41H44ClFN6O7S2

> <MOLECULAR_WEIGHT>
851.41

> <EXACT_MASS>
850.238546

> <JCHEM_ACCEPTOR_COUNT>
6

> <JCHEM_ATOM_COUNT>
102

> <JCHEM_AVERAGE_POLARIZABILITY>
54.42361300625757

> <JCHEM_BIOAVAILABILITY>
0

> <JCHEM_DONOR_COUNT>
2

> <JCHEM_FORMAL_CHARGE>
0

> <JCHEM_GHOSE_FILTER>
0

> <JCHEM_IUPAC>
bis(4-methylbenzene-1-sulfonic acid); N-{4-[(3-chloro-4-fluorophenyl)amino]-7-[3-methyl-3-(4-methylpiperazin-1-yl)but-1-yn-1-yl]quinazolin-6-yl}prop-2-enamide

> <ALOGPS_LOGP>
4.29

> <JCHEM_LOGP>
5.159707864333334

> <ALOGPS_LOGS>
-4.92

> <JCHEM_MDDR_LIKE_RULE>
1

> <JCHEM_NUMBER_OF_RINGS>
6

> <JCHEM_PHYSIOLOGICAL_CHARGE>
1

> <JCHEM_PKA>
16.06349855627856

> <JCHEM_PKA_STRONGEST_ACIDIC>
13.24891984335871

> <JCHEM_PKA_STRONGEST_BASIC>
7.653685869747811

> <JCHEM_POLAR_SURFACE_AREA>
73.38999999999999

> <JCHEM_REFRACTIVITY>
141.41379999999998

> <JCHEM_ROTATABLE_BOND_COUNT>
9

> <JCHEM_RULE_OF_FIVE>
0

> <ALOGPS_SOLUBILITY>
6.07e-03 g/l

> <JCHEM_TRADITIONAL_IUPAC>
N-{4-[(3-chloro-4-fluorophenyl)amino]-7-[3-methyl-3-(4-methylpiperazin-1-yl)but-1-yn-1-yl]quinazolin-6-yl}prop-2-enamide; bis(toluenesulfonic acid)

> <JCHEM_VEBER_RULE>
0

> <DRUGBANK_ID>
DB06021

> <DRUG_GROUPS>
investigational

> <GENERIC_NAME>
AV-412

$$$$
