
  Mrv1909 11211903112D          

 42 46  0  0  0  0            999 V2000
   -4.5824    1.7689    0.0000 C   0  0  2  0  0  0  0  0  0  0  0  0
   -4.1766    2.4872    0.0000 N   0  0  0  0  0  0  0  0  0  0  0  0
   -4.5963    3.1990    0.0000 C   0  0  0  0  0  0  0  0  0  0  0  0
   -3.3503    2.4950    0.0000 C   0  0  0  0  0  0  0  0  0  0  0  0
   -4.2739   -0.7361    0.0000 C   0  0  0  0  0  0  0  0  0  0  0  0
   -4.2747   -1.5641    0.0000 C   0  0  0  0  0  0  0  0  0  0  0  0
   -3.5606   -1.9789    0.0000 C   0  0  0  0  0  0  0  0  0  0  0  0
   -2.8425   -1.5637    0.0000 C   0  0  0  0  0  0  0  0  0  0  0  0
   -2.8445   -0.7336    0.0000 C   0  0  0  0  0  0  0  0  0  0  0  0
   -3.5620   -0.3242    0.0000 C   0  0  0  0  0  0  0  0  0  0  0  0
   -4.9912   -0.3215    0.0000 C   0  0  0  0  0  0  0  0  0  0  0  0
   -4.9912    0.5018    0.0000 N   0  0  0  0  0  0  0  0  0  0  0  0
   -4.9912   -1.9741    0.0000 C   0  0  0  0  0  0  0  0  0  0  0  0
   -4.3250    0.9858    0.0000 C   0  0  0  0  0  0  0  0  0  0  0  0
   -5.4029    1.7688    0.0000 C   0  0  0  0  0  0  0  0  0  0  0  0
   -5.6573    0.9858    0.0000 C   0  0  0  0  0  0  0  0  0  0  0  0
   -5.7052   -1.5583    0.0000 F   0  0  0  0  0  0  0  0  0  0  0  0
   -4.9943   -2.8004    0.0000 F   0  0  0  0  0  0  0  0  0  0  0  0
   -5.7095   -2.3858    0.0000 F   0  0  0  0  0  0  0  0  0  0  0  0
   -2.1297   -1.9712    0.0000 C   0  0  0  0  0  0  0  0  0  0  0  0
   -1.4174   -1.5566    0.0000 N   0  0  0  0  0  0  0  0  0  0  0  0
   -0.7020   -1.9653    0.0000 C   0  0  0  0  0  0  0  0  0  0  0  0
   -0.7011   -2.7903    0.0000 C   0  0  0  0  0  0  0  0  0  0  0  0
    0.0133   -3.1990    0.0000 C   0  0  0  0  0  0  0  0  0  0  0  0
    0.7260   -2.7838    0.0000 C   0  0  0  0  0  0  0  0  0  0  0  0
    0.7196   -1.9557    0.0000 C   0  0  0  0  0  0  0  0  0  0  0  0
    0.0046   -1.5507    0.0000 C   0  0  0  0  0  0  0  0  0  0  0  0
    1.4293   -1.5361    0.0000 N   0  0  0  0  0  0  0  0  0  0  0  0
    2.1476   -1.9420    0.0000 C   0  0  0  0  0  0  0  0  0  0  0  0
    2.1525   -2.7681    0.0000 N   0  0  0  0  0  0  0  0  0  0  0  0
    2.8699   -3.1738    0.0000 C   0  0  0  0  0  0  0  0  0  0  0  0
    3.5815   -2.7546    0.0000 C   0  0  0  0  0  0  0  0  0  0  0  0
    3.5712   -1.9254    0.0000 C   0  0  0  0  0  0  0  0  0  0  0  0
    2.8532   -1.5234    0.0000 N   0  0  0  0  0  0  0  0  0  0  0  0
    4.2786   -1.5023    0.0000 C   0  0  0  0  0  0  0  0  0  0  0  0
    4.9997   -1.9079    0.0000 C   0  0  0  0  0  0  0  0  0  0  0  0
    5.7095   -1.4863    0.0000 N   0  0  0  0  0  0  0  0  0  0  0  0
    5.6993   -0.6592    0.0000 C   0  0  0  0  0  0  0  0  0  0  0  0
    4.9735   -0.2555    0.0000 N   0  0  0  0  0  0  0  0  0  0  0  0
    4.2666   -0.6795    0.0000 C   0  0  0  0  0  0  0  0  0  0  0  0
    1.4410   -3.1946    0.0000 C   0  0  0  0  0  0  0  0  0  0  0  0
   -2.1327   -2.7975    0.0000 O   0  0  0  0  0  0  0  0  0  0  0  0
  5  6  2  0  0  0  0
 20 21  1  0  0  0  0
  5 11  1  0  0  0  0
 21 22  1  0  0  0  0
  1  2  1  6  0  0  0
 22 23  2  0  0  0  0
 11 12  1  0  0  0  0
 23 24  1  0  0  0  0
  6  7  1  0  0  0  0
 24 25  2  0  0  0  0
  6 13  1  0  0  0  0
 25 26  1  0  0  0  0
 12 14  1  0  0  0  0
 26 27  2  0  0  0  0
 27 22  1  0  0  0  0
  2  4  1  0  0  0  0
 26 28  1  0  0  0  0
  7  8  2  0  0  0  0
 28 29  1  0  0  0  0
 29 30  2  0  0  0  0
 14  1  1  0  0  0  0
 30 31  1  0  0  0  0
  1 15  1  0  0  0  0
 31 32  2  0  0  0  0
 15 16  1  0  0  0  0
 32 33  1  0  0  0  0
 16 12  1  0  0  0  0
 33 34  2  0  0  0  0
 34 29  1  0  0  0  0
  8  9  1  0  0  0  0
 13 17  1  0  0  0  0
 35 36  2  0  0  0  0
  2  3  1  0  0  0  0
 36 37  1  0  0  0  0
 13 18  1  0  0  0  0
 37 38  2  0  0  0  0
  9 10  2  0  0  0  0
 38 39  1  0  0  0  0
 13 19  1  0  0  0  0
 39 40  2  0  0  0  0
 40 35  1  0  0  0  0
 33 35  1  0  0  0  0
 10  5  1  0  0  0  0
 25 41  1  0  0  0  0
  8 20  1  0  0  0  0
 20 42  2  0  0  0  0
M  END
> <DATABASE_ID>
DB11851

> <DATABASE_NAME>
drugbank

> <SMILES>
CN(C)[C@H]1CCN(CC2=C(C=C(C=C2)C(=O)NC2=CC=C(C)C(NC3=NC=CC(=N3)C3=CN=CN=C3)=C2)C(F)(F)F)C1

> <INCHI_IDENTIFIER>
InChI=1S/C30H31F3N8O/c1-19-4-7-23(13-27(19)39-29-36-10-8-26(38-29)22-14-34-18-35-15-22)37-28(42)20-5-6-21(25(12-20)30(31,32)33)16-41-11-9-24(17-41)40(2)3/h4-8,10,12-15,18,24H,9,11,16-17H2,1-3H3,(H,37,42)(H,36,38,39)/t24-/m0/s1

> <INCHI_KEY>
ZGBAJMQHJDFTQJ-DEOSSOPVSA-N

> <FORMULA>
C30H31F3N8O

> <MOLECULAR_WEIGHT>
576.6153

> <EXACT_MASS>
576.257292269

> <JCHEM_ACCEPTOR_COUNT>
8

> <JCHEM_ATOM_COUNT>
73

> <JCHEM_AVERAGE_POLARIZABILITY>
59.07368234265948

> <JCHEM_BIOAVAILABILITY>
1

> <JCHEM_DONOR_COUNT>
2

> <JCHEM_FORMAL_CHARGE>
0

> <JCHEM_GHOSE_FILTER>
0

> <JCHEM_IUPAC>
N-[3-({[4,5'-bipyrimidin]-2-yl}amino)-4-methylphenyl]-4-{[(3S)-3-(dimethylamino)pyrrolidin-1-yl]methyl}-3-(trifluoromethyl)benzamide

> <ALOGPS_LOGP>
3.52

> <JCHEM_LOGP>
4.669410412666668

> <ALOGPS_LOGS>
-4.85

> <JCHEM_MDDR_LIKE_RULE>
1

> <JCHEM_NUMBER_OF_RINGS>
5

> <JCHEM_PHYSIOLOGICAL_CHARGE>
1

> <JCHEM_PKA>
15.712888343314084

> <JCHEM_PKA_STRONGEST_ACIDIC>
12.65505605863446

> <JCHEM_PKA_STRONGEST_BASIC>
9.06869340434784

> <JCHEM_POLAR_SURFACE_AREA>
99.17000000000002

> <JCHEM_REFRACTIVITY>
158.25980000000007

> <JCHEM_ROTATABLE_BOND_COUNT>
9

> <JCHEM_RULE_OF_FIVE>
0

> <ALOGPS_SOLUBILITY>
8.21e-03 g/l

> <JCHEM_TRADITIONAL_IUPAC>
4-{[2-amino-2-({2-carboxy-1-[(1-carboxy-2-sulfanylethyl)carbamoyl]ethyl}carbamoyl)ethyl]carbamoyl}-2-[(4-{[(4-oxo-1H-pteridin-6-yl)methyl]amino}phenyl)formamido]butanoic acid

> <JCHEM_VEBER_RULE>
0

> <DRUGBANK_ID>
DB11851

> <DRUG_GROUPS>
investigational

> <GENERIC_NAME>
Bafetinib

> <SYNONYMS>
Baf√©tinib; Bafetinib; Bafetinibum

$$$$
