
  Mrv1909 09102114432D          

 46 53  0  0  1  0            999 V2000
    1.7977   -2.4583    0.0000 C   0  0  0  0  0  0  0  0  0  0  0  0
    1.7947   -3.2833    0.0000 C   0  0  0  0  0  0  0  0  0  0  0  0
    2.5121   -3.6975    0.0000 C   0  0  0  0  0  0  0  0  0  0  0  0
    3.2249   -3.2867    0.0000 C   0  0  0  0  0  0  0  0  0  0  0  0
    4.0548   -3.4481    0.0000 N   0  0  0  0  0  0  0  0  0  0  0  0
    4.4911   -2.6890    0.0000 C   0  0  0  0  0  0  0  0  0  0  0  0
    3.9351   -2.0593    0.0000 C   0  0  0  0  0  0  0  0  0  0  0  0
    2.5123   -2.0492    0.0000 C   0  0  0  0  0  0  0  0  0  0  0  0
    3.2250   -2.4653    0.0000 C   0  0  0  0  0  0  0  0  0  0  0  0
    3.9439   -1.2338    0.0000 C   0  0  0  0  0  0  0  0  0  0  0  0
    2.5123   -1.2262    0.0000 C   0  0  2  0  0  0  0  0  0  0  0  0
    3.2270   -0.8149    0.0000 C   0  0  2  0  0  0  0  0  0  0  0  0
    3.2280    0.0051    0.0000 N   0  0  0  0  0  0  0  0  0  0  0  0
    2.5161    0.4201    0.0000 C   0  0  0  0  0  0  0  0  0  0  0  0
    1.8015    0.0087    0.0000 C   0  0  1  0  0  0  0  0  0  0  0  0
    1.7987   -0.8174    0.0000 C   0  0  0  0  0  0  0  0  0  0  0  0
    1.0862    0.4240    0.0000 C   0  0  0  0  0  0  0  0  0  0  0  0
    0.3691    0.0123    0.0000 N   0  0  0  0  0  0  0  0  0  0  0  0
    3.9456    0.4167    0.0000 C   0  0  0  0  0  0  0  0  0  0  0  0
    3.9418   -0.4039    0.0000 H   0  0  0  0  0  0  0  0  0  0  0  0
    1.0883    1.2510    0.0000 O   0  0  0  0  0  0  0  0  0  0  0  0
   -0.3534    0.4167    0.0000 C   0  0  1  0  0  0  0  0  0  0  0  0
   -0.8488    1.0830    0.0000 C   0  0  0  0  0  0  0  0  0  0  0  0
   -0.8362   -0.2550    0.0000 O   0  0  0  0  0  0  0  0  0  0  0  0
   -1.6252   -0.0070    0.0000 C   0  0  2  0  0  0  0  0  0  0  0  0
   -1.6287    0.8157    0.0000 N   0  0  0  0  0  0  0  0  0  0  0  0
   -2.3390    1.2218    0.0000 C   0  0  2  0  0  0  0  0  0  0  0  0
   -3.0504    0.8097    0.0000 C   0  0  0  0  0  0  0  0  0  0  0  0
   -2.3320   -0.4237    0.0000 C   0  0  1  0  0  0  0  0  0  0  0  0
   -3.0484   -0.0147    0.0000 N   0  0  0  0  0  0  0  0  0  0  0  0
   -3.6585   -0.5698    0.0000 C   0  0  0  0  0  0  0  0  0  0  0  0
   -3.3193   -1.3218    0.0000 C   0  0  0  0  0  0  0  0  0  0  0  0
   -2.4994   -1.2313    0.0000 C   0  0  0  0  0  0  0  0  0  0  0  0
   -1.6204   -0.8379    0.0000 O   0  0  0  0  0  0  0  0  0  0  0  0
   -2.3430    0.3997    0.0000 H   0  0  0  0  0  0  0  0  0  0  0  0
   -0.6037    1.8730    0.0000 O   0  0  0  0  0  0  0  0  0  0  0  0
   -3.7674    1.2218    0.0000 O   0  0  0  0  0  0  0  0  0  0  0  0
   -2.3413    2.0489    0.0000 C   0  0  0  0  0  0  0  0  0  0  0  0
   -3.0587    2.4604    0.0000 C   0  0  0  0  0  0  0  0  0  0  0  0
   -3.0584    3.2860    0.0000 C   0  0  0  0  0  0  0  0  0  0  0  0
   -3.7750    3.6975    0.0000 C   0  0  0  0  0  0  0  0  0  0  0  0
   -4.4911    3.2819    0.0000 C   0  0  0  0  0  0  0  0  0  0  0  0
   -4.4861    2.4505    0.0000 C   0  0  0  0  0  0  0  0  0  0  0  0
   -3.7689    2.0427    0.0000 C   0  0  0  0  0  0  0  0  0  0  0  0
    0.1617    0.9270    0.0000 C   0  0  0  0  0  0  0  0  0  0  0  0
    1.7945   -1.6291    0.0000 H   0  0  0  0  0  0  0  0  0  0  0  0
  7 10  1  0  0  0  0
 10 12  1  0  0  0  0
 11 12  1  0  0  0  0
  1  2  2  0  0  0  0
  8  1  1  0  0  0  0
  2  3  1  0  0  0  0
  4  5  1  0  0  0  0
  5  6  1  0  0  0  0
  6  7  2  0  0  0  0
 11 16  1  0  0  0  0
 12 13  1  0  0  0  0
 13 14  1  0  0  0  0
 14 15  1  0  0  0  0
 15 16  1  0  0  0  0
  7  9  1  0  0  0  0
 15 17  1  1  0  0  0
  8  9  2  0  0  0  0
 17 18  1  0  0  0  0
  3  4  2  0  0  0  0
 13 19  1  0  0  0  0
  9  4  1  0  0  0  0
 12 20  1  1  0  0  0
 17 21  2  0  0  0  0
  8 11  1  0  0  0  0
 22 23  1  0  0  0  0
 23 26  1  0  0  0  0
 25 24  1  0  0  0  0
 24 22  1  0  0  0  0
 25 26  1  0  0  0  0
 25 29  1  0  0  0  0
 26 27  1  0  0  0  0
 27 28  1  0  0  0  0
 28 30  1  0  0  0  0
 29 30  1  0  0  0  0
 30 31  1  0  0  0  0
 31 32  1  0  0  0  0
 32 33  1  0  0  0  0
 33 29  1  0  0  0  0
 25 34  1  6  0  0  0
 29 35  1  1  0  0  0
 23 36  2  0  0  0  0
 28 37  2  0  0  0  0
 27 38  1  6  0  0  0
 38 39  1  0  0  0  0
 39 40  2  0  0  0  0
 40 41  1  0  0  0  0
 41 42  2  0  0  0  0
 42 43  1  0  0  0  0
 43 44  2  0  0  0  0
 44 39  1  0  0  0  0
 22 45  1  1  0  0  0
 22 18  1  0  0  0  0
 11 46  1  6  0  0  0
M  END
> <DATABASE_ID>
DB00320

> <DATABASE_NAME>
drugbank

> <SMILES>
[H][C@@]12CCCN1C(=O)[C@H](CC1=CC=CC=C1)N1C(=O)[C@](C)(NC(=O)[C@H]3CN(C)[C@]4([H])CC5=CNC6=CC=CC(=C56)[C@@]4([H])C3)O[C@@]21O

> <INCHI_IDENTIFIER>
InChI=1S/C33H37N5O5/c1-32(35-29(39)21-15-23-22-10-6-11-24-28(22)20(17-34-24)16-25(23)36(2)18-21)31(41)38-26(14-19-8-4-3-5-9-19)30(40)37-13-7-12-27(37)33(38,42)43-32/h3-6,8-11,17,21,23,25-27,34,42H,7,12-16,18H2,1-2H3,(H,35,39)/t21-,23-,25-,26+,27+,32-,33+/m1/s1

> <INCHI_KEY>
LUZRJRNZXALNLM-JGRZULCMSA-N

> <FORMULA>
C33H37N5O5

> <MOLECULAR_WEIGHT>
583.6774

> <EXACT_MASS>
583.279469319

> <JCHEM_ACCEPTOR_COUNT>
6

> <JCHEM_ATOM_COUNT>
80

> <JCHEM_AVERAGE_NEUTRAL_MICROSPECIES_CHARGE>
1.0005236494489322

> <JCHEM_AVERAGE_POLARIZABILITY>
63.545302745925916

> <JCHEM_BIOAVAILABILITY>
1

> <JCHEM_DONOR_COUNT>
3

> <JCHEM_FORMAL_CHARGE>
0

> <JCHEM_GHOSE_FILTER>
0

> <JCHEM_IUPAC>
(2R,4R,7R)-N-[(1S,2S,4R,7S)-7-benzyl-2-hydroxy-4-methyl-5,8-dioxo-3-oxa-6,9-diazatricyclo[7.3.0.0^{2,6}]dodecan-4-yl]-6-methyl-6,11-diazatetracyclo[7.6.1.0^{2,7}.0^{12,16}]hexadeca-1(16),9,12,14-tetraene-4-carboxamide

> <ALOGPS_LOGP>
3.04

> <JCHEM_LOGP>
2.7116222909811363

> <ALOGPS_LOGS>
-3.41

> <JCHEM_MDDR_LIKE_RULE>
0

> <JCHEM_NEUTRAL_CHARGE>
1

> <JCHEM_NUMBER_OF_RINGS>
8

> <JCHEM_PHYSIOLOGICAL_CHARGE>
1

> <JCHEM_PKA>
11.674687752899596

> <JCHEM_PKA_STRONGEST_ACIDIC>
9.712761266905385

> <JCHEM_PKA_STRONGEST_BASIC>
8.394791367163506

> <JCHEM_POLAR_SURFACE_AREA>
118.21000000000001

> <JCHEM_REFRACTIVITY>
159.3947999999999

> <JCHEM_ROTATABLE_BOND_COUNT>
4

> <JCHEM_RULE_OF_FIVE>
0

> <ALOGPS_SOLUBILITY>
2.29e-01 g/l

> <JCHEM_TRADITIONAL_IUPAC>
(2R,4R,7R)-N-[(1S,2S,4R,7S)-7-benzyl-2-hydroxy-4-methyl-5,8-dioxo-3-oxa-6,9-diazatricyclo[7.3.0.0^{2,6}]dodecan-4-yl]-6-methyl-6,11-diazatetracyclo[7.6.1.0^{2,7}.0^{12,16}]hexadeca-1(16),9,12,14-tetraene-4-carboxamide

> <JCHEM_VEBER_RULE>
0

> <DRUGBANK_ID>
DB00320

> <SECONDARY_ACCESSION_NUMBERS>
APRD00476; DB05743

> <DRUG_GROUPS>
approved; investigational

> <GENERIC_NAME>
Dihydroergotamine

> <SYNONYMS>
(2R,4R,7R)-N-[(1S,2S,4R,7S)-7-benzyl-2-hydroxy-4-methyl-5,8-dioxo-3-oxa-6,9-diazatricyclo[7.3.0.02,6]dodecan-4-yl]-6-methyl-6,11-diazatetracyclo[7.6.1.02,7.012,16]hexadeca-1(16),9,12,14-tetraene-4-carboxamide; 5'-benzyl-12'-hydroxy-2'-methyl-3',6',18-trioxo-9,10-dihydroergotaman; 9,10-dihydro-12'-hydroxy-2'-methyl-5'-(phenylmethyl)ergotoman-3',6',18-trione; 9,10-dihydroergotamine; Dihidroergotamina; Dihydroergotamin; Dihydroergotamine; Dihydroergotaminum; Diidroergotamina

> <PRODUCTS>
D.H.E. 45; Dihydroergotamine (dhe), 1mg/ml; Dihydroergotamine Mesylate; Dihydroergotamine Mesylate Injection USP; Dihydroergotamine Mesylate Nasal; Dromelate; Migranal; Migranal Nasal Spray 4mg/ml; PMS-dihydroergotamine; Trudhesa

> <INTERNATIONAL_BRANDS>
Dihydergot; Ergont; Ergotonin; Ikaran; Orstanorm; Trudhesa; Verladyn

> <SALTS>
Dihydroergotamine mesylate; Dihydroergotamine tartrate

$$$$
