
  Mrv1572004221607032D          

 30 33  0  0  0  0            999 V2000
   -1.3222    5.7134    0.0000 C   0  0  0  0  0  0  0  0  0  0  0  0
   -1.3222    4.8884    0.0000 C   0  0  0  0  0  0  0  0  0  0  0  0
   -0.6078    6.1259    0.0000 C   0  0  0  0  0  0  0  0  0  0  0  0
   -0.6078    4.4759    0.0000 C   0  0  0  0  0  0  0  0  0  0  0  0
    0.1067    5.7134    0.0000 C   0  0  0  0  0  0  0  0  0  0  0  0
    1.5356    2.4134    0.0000 C   0  0  0  0  0  0  0  0  0  0  0  0
    0.1067    2.4134    0.0000 C   0  0  0  0  0  0  0  0  0  0  0  0
   -1.3222   -1.7116    0.0000 C   0  0  0  0  0  0  0  0  0  0  0  0
    1.5356    3.2384    0.0000 C   0  0  0  0  0  0  0  0  0  0  0  0
    0.1067    3.2384    0.0000 C   0  0  0  0  0  0  0  0  0  0  0  0
   -0.6078   -1.2991    0.0000 C   0  0  0  0  0  0  0  0  0  0  0  0
    1.2337   -2.5687    0.0000 C   0  0  0  0  0  0  0  0  0  0  0  0
    1.4886   -1.7840    0.0000 C   0  0  0  0  0  0  0  0  0  0  0  0
   -2.0367   -0.4741    0.0000 C   0  0  0  0  0  0  0  0  0  0  0  0
    0.8212   -0.4741    0.0000 C   0  0  0  0  0  0  0  0  0  0  0  0
    0.8212    1.1759    0.0000 C   0  0  0  0  0  0  0  0  0  0  0  0
    0.1537   -1.7840    0.0000 C   0  0  0  0  0  0  0  0  0  0  0  0
    0.8212    2.0009    0.0000 C   0  0  0  0  0  0  0  0  0  0  0  0
   -2.0367   -1.2991    0.0000 C   0  0  0  0  0  0  0  0  0  0  0  0
    0.1067    4.8884    0.0000 C   0  0  0  0  0  0  0  0  0  0  0  0
    0.8212    3.6509    0.0000 C   0  0  0  0  0  0  0  0  0  0  0  0
   -0.6078   -0.4741    0.0000 C   0  0  0  0  0  0  0  0  0  0  0  0
   -1.3222   -0.0616    0.0000 C   0  0  0  0  0  0  0  0  0  0  0  0
    0.1067   -0.0616    0.0000 C   0  0  0  0  0  0  0  0  0  0  0  0
   -2.7512   -1.7116    0.0000 Cl  0  0  0  0  0  0  0  0  0  0  0  0
   -1.3222    0.7634    0.0000 Cl  0  0  0  0  0  0  0  0  0  0  0  0
    0.4087   -2.5687    0.0000 N   0  0  0  0  0  0  0  0  0  0  0  0
    0.8212   -1.2991    0.0000 N   0  0  0  0  0  0  0  0  0  0  0  0
    0.1067    0.7634    0.0000 O   0  0  0  0  0  0  0  0  0  0  0  0
    0.8212    4.4759    0.0000 S   0  0  0  0  0  0  0  0  0  0  0  0
  2  1  2  0  0  0  0
  3  1  1  0  0  0  0
  4  2  1  0  0  0  0
  5  3  2  0  0  0  0
  9  6  1  0  0  0  0
 10  7  2  0  0  0  0
 11  8  2  0  0  0  0
 13 12  2  0  0  0  0
 18  6  2  0  0  0  0
 18  7  1  0  0  0  0
 18 16  1  0  0  0  0
 19  8  1  0  0  0  0
 19 14  2  0  0  0  0
 20  4  2  0  0  0  0
 20  5  1  0  0  0  0
 21  9  2  0  0  0  0
 21 10  1  0  0  0  0
 22 11  1  0  0  0  0
 23 14  1  0  0  0  0
 23 22  2  0  0  0  0
 24 15  1  0  0  0  0
 24 22  1  0  0  0  0
 25 19  1  0  0  0  0
 26 23  1  0  0  0  0
 27 12  1  0  0  0  0
 27 17  2  0  0  0  0
 28 13  1  0  0  0  0
 28 15  1  0  0  0  0
 28 17  1  0  0  0  0
 29 16  1  0  0  0  0
 29 24  1  0  0  0  0
 30 20  1  0  0  0  0
 30 21  1  0  0  0  0
M  END
> <DATABASE_ID>
DB13434

> <DATABASE_NAME>
drugbank

> <SMILES>
ClC1=CC(Cl)=C(C=C1)C(CN1C=CN=C1)OCC1=CC=C(SC2=CC=CC=C2)C=C1

> <INCHI_IDENTIFIER>
InChI=1S/C24H20Cl2N2OS/c25-19-8-11-22(23(26)14-19)24(15-28-13-12-27-17-28)29-16-18-6-9-21(10-7-18)30-20-4-2-1-3-5-20/h1-14,17,24H,15-16H2

> <INCHI_KEY>
ZCJYUTQZBAIHBS-UHFFFAOYSA-N

> <FORMULA>
C24H20Cl2N2OS

> <MOLECULAR_WEIGHT>
455.4

> <EXACT_MASS>
454.0673398

> <JCHEM_ACCEPTOR_COUNT>
2

> <JCHEM_ATOM_COUNT>
50

> <JCHEM_AVERAGE_POLARIZABILITY>
47.63127587177988

> <JCHEM_BIOAVAILABILITY>
1

> <JCHEM_DONOR_COUNT>
0

> <JCHEM_FORMAL_CHARGE>
0

> <JCHEM_GHOSE_FILTER>
0

> <JCHEM_IUPAC>
1-[2-(2,4-dichlorophenyl)-2-{[4-(phenylsulfanyl)phenyl]methoxy}ethyl]-1H-imidazole

> <ALOGPS_LOGP>
6.31

> <JCHEM_LOGP>
6.937028471333333

> <ALOGPS_LOGS>
-6.17

> <JCHEM_MDDR_LIKE_RULE>
1

> <JCHEM_NUMBER_OF_RINGS>
4

> <JCHEM_PHYSIOLOGICAL_CHARGE>
1

> <JCHEM_PKA_STRONGEST_BASIC>
6.767291901775012

> <JCHEM_POLAR_SURFACE_AREA>
27.05

> <JCHEM_REFRACTIVITY>
126.14209999999996

> <JCHEM_ROTATABLE_BOND_COUNT>
8

> <JCHEM_RULE_OF_FIVE>
0

> <ALOGPS_SOLUBILITY>
3.04e-04 g/l

> <JCHEM_TRADITIONAL_IUPAC>
lomexin

> <JCHEM_VEBER_RULE>
1

> <DRUGBANK_ID>
DB13434

> <DRUG_GROUPS>
experimental

> <GENERIC_NAME>
Fenticonazole

> <SYNONYMS>
Fenticonazole

> <SALTS>
Fenticonazole nitrate

$$$$
