
  Mrv1909 03052117082D          

 12 11  0  0  0  0            999 V2000
   -0.7145    0.2062    0.0000 C   0  0  0  0  0  0  0  0  0  0  0  0
    0.0000   -0.2062    0.0000 C   0  0  0  0  0  0  0  0  0  0  0  0
    0.7145    0.2062    0.0000 C   0  0  0  0  0  0  0  0  0  0  0  0
    0.0000   -1.0313    0.0000 O   0  0  0  0  0  0  0  0  0  0  0  0
    1.4289   -0.2062    0.0000 N   0  0  0  0  0  0  0  0  0  0  0  0
    2.1434    0.2062    0.0000 C   0  0  0  0  0  0  0  0  0  0  0  0
    2.1434    1.0313    0.0000 C   0  0  0  0  0  0  0  0  0  0  0  0
    2.8579   -0.2062    0.0000 C   0  0  0  0  0  0  0  0  0  0  0  0
   -1.4289   -0.2062    0.0000 N   0  0  0  0  0  0  0  0  0  0  0  0
   -2.1434    0.2062    0.0000 C   0  0  0  0  0  0  0  0  0  0  0  0
   -2.8579   -0.2062    0.0000 C   0  0  0  0  0  0  0  0  0  0  0  0
   -2.1434    1.0313    0.0000 C   0  0  0  0  0  0  0  0  0  0  0  0
  1  2  1  0  0  0  0
  2  3  1  0  0  0  0
  2  4  1  0  0  0  0
  6  7  1  0  0  0  0
  6  8  1  0  0  0  0
  5  6  1  0  0  0  0
  3  5  1  0  0  0  0
 10 11  1  0  0  0  0
 10 12  1  0  0  0  0
  9 10  1  0  0  0  0
  1  9  1  0  0  0  0
M  END
> <DATABASE_ID>
DB16631

> <DATABASE_NAME>
drugbank

> <SMILES>
CC(C)NCC(O)CNC(C)C

> <INCHI_IDENTIFIER>
InChI=1S/C9H22N2O/c1-7(2)10-5-9(12)6-11-8(3)4/h7-12H,5-6H2,1-4H3

> <INCHI_KEY>
KUKNLWUAKYIWDI-UHFFFAOYSA-N

> <FORMULA>
C9H22N2O

> <MOLECULAR_WEIGHT>
174.288

> <EXACT_MASS>
174.173213336

> <JCHEM_ACCEPTOR_COUNT>
3

> <JCHEM_ATOM_COUNT>
34

> <JCHEM_AVERAGE_NEUTRAL_MICROSPECIES_CHARGE>
1.8640580142916676

> <JCHEM_AVERAGE_POLARIZABILITY>
21.579568758414002

> <JCHEM_BIOAVAILABILITY>
1

> <JCHEM_DONOR_COUNT>
3

> <JCHEM_FORMAL_CHARGE>
0

> <JCHEM_GHOSE_FILTER>
1

> <JCHEM_IUPAC>
{2-hydroxy-3-[(propan-2-yl)amino]propyl}(propan-2-yl)amine

> <JCHEM_LOGP>
0.35914913

> <JCHEM_MDDR_LIKE_RULE>
0

> <JCHEM_NEUTRAL_CHARGE>
2

> <JCHEM_NUMBER_OF_RINGS>
0

> <JCHEM_PHYSIOLOGICAL_CHARGE>
2

> <JCHEM_PKA_STRONGEST_ACIDIC>
14.53374303946292

> <JCHEM_PKA_STRONGEST_BASIC>
10.021753509556564

> <JCHEM_POLAR_SURFACE_AREA>
44.29

> <JCHEM_REFRACTIVITY>
51.7151

> <JCHEM_ROTATABLE_BOND_COUNT>
6

> <JCHEM_RULE_OF_FIVE>
1

> <JCHEM_TRADITIONAL_IUPAC>
disodium dexamethasone phosphate(2-)

> <JCHEM_VEBER_RULE>
0

> <DRUGBANK_ID>
DB16631

> <DRUG_GROUPS>
experimental

> <GENERIC_NAME>
1,3-Bis((1-methylethyl)amino)propan-2-ol

> <PRODUCTS>
Hand Sanitizer

$$$$
