
  Mrv1909 07262215042D          

  8  7  0  0  0  0            999 V2000
    1.0717    0.2062    0.0000 C   0  0  0  0  0  0  0  0  0  0  0  0
    0.3572   -0.2062    0.0000 N   0  0  0  0  0  0  0  0  0  0  0  0
    1.7861   -0.2062    0.0000 N   0  0  0  0  0  0  0  0  0  0  0  0
    1.0717    1.0312    0.0000 O   0  0  0  0  0  0  0  0  0  0  0  0
   -0.3572    0.2062    0.0000 N   0  0  0  0  0  0  0  0  0  0  0  0
   -1.0716   -0.2062    0.0000 C   0  0  0  0  0  0  0  0  0  0  0  0
   -1.0716   -1.0312    0.0000 N   0  0  0  0  0  0  0  0  0  0  0  0
   -1.7861    0.2062    0.0000 O   0  0  0  0  0  0  0  0  0  0  0  0
  1  2  1  0  0  0  0
  1  3  1  0  0  0  0
  1  4  2  0  0  0  0
  2  5  2  0  0  0  0
  5  6  1  0  0  0  0
  6  7  1  0  0  0  0
  6  8  2  0  0  0  0
M  END
> <DATABASE_ID>
DB16861

> <DATABASE_NAME>
drugbank

> <SMILES>
NC(=O)\N=N\C(N)=O

> <INCHI_IDENTIFIER>
InChI=1S/C2H4N4O2/c3-1(7)5-6-2(4)8/h(H2,3,7)(H2,4,8)/b6-5+

> <INCHI_KEY>
XOZUGNYVDXMRKW-AATRIKPKSA-N

> <FORMULA>
C2H4N4O2

> <MOLECULAR_WEIGHT>
116.08

> <EXACT_MASS>
116.033425385

> <JCHEM_ACCEPTOR_COUNT>
4

> <JCHEM_ATOM_COUNT>
12

> <JCHEM_AVERAGE_NEUTRAL_MICROSPECIES_CHARGE>
-3.9697497254423065e-05

> <JCHEM_AVERAGE_POLARIZABILITY>
8.997281422314348

> <JCHEM_BIOAVAILABILITY>
1

> <JCHEM_DONOR_COUNT>
2

> <JCHEM_FORMAL_CHARGE>
0

> <JCHEM_GHOSE_FILTER>
0

> <JCHEM_IUPAC>
(E)-(carbamoylimino)urea

> <ALOGPS_LOGP>
-1.34

> <JCHEM_LOGP>
-1.8459898046666665

> <ALOGPS_LOGS>
-1.47

> <JCHEM_MDDR_LIKE_RULE>
0

> <JCHEM_NEUTRAL_CHARGE>
0

> <JCHEM_NUMBER_OF_RINGS>
0

> <JCHEM_PHYSIOLOGICAL_CHARGE>
0

> <JCHEM_PKA>
12.351592517958421

> <JCHEM_PKA_STRONGEST_ACIDIC>
11.511483801932947

> <JCHEM_PKA_STRONGEST_BASIC>
-7.621222251870062

> <JCHEM_POLAR_SURFACE_AREA>
110.9

> <JCHEM_REFRACTIVITY>
23.0852

> <JCHEM_ROTATABLE_BOND_COUNT>
0

> <JCHEM_RULE_OF_FIVE>
1

> <ALOGPS_SOLUBILITY>
3.93e+00 g/l

> <JCHEM_TRADITIONAL_IUPAC>
pyrrolidine

> <JCHEM_VEBER_RULE>
0

> <DRUGBANK_ID>
DB16861

> <DRUG_GROUPS>
investigational

> <GENERIC_NAME>
Azodicarbonamide

> <SYNONYMS>
1,1'-Azobis(formamide); 1,1'-Azobisformamide; Azobiscarboxamide; Azodicarboxylic acid diamide

$$$$
