
  Mrv1572001071617042D          

 44 45  0  0  0  0            999 V2000
   -5.3581   -0.2016    0.0000 C   0  0  0  0  0  0  0  0  0  0  0  0
   -4.6436    0.2109    0.0000 C   0  0  0  0  0  0  0  0  0  0  0  0
   -3.9292   -0.2016    0.0000 C   0  0  0  0  0  0  0  0  0  0  0  0
   -4.6436    1.0359    0.0000 C   0  0  0  0  0  0  0  0  0  0  0  0
   -3.2147    0.2109    0.0000 C   0  0  0  0  0  0  0  0  0  0  0  0
   -2.5002   -0.2016    0.0000 C   0  0  0  0  0  0  0  0  0  0  0  0
   -1.7857    0.2109    0.0000 C   0  0  0  0  0  0  0  0  0  0  0  0
   -1.0713   -0.2016    0.0000 C   0  0  0  0  0  0  0  0  0  0  0  0
   -1.7857    1.0359    0.0000 C   0  0  0  0  0  0  0  0  0  0  0  0
   -0.3568    0.2109    0.0000 C   0  0  0  0  0  0  0  0  0  0  0  0
    0.3577   -0.2016    0.0000 C   0  0  0  0  0  0  0  0  0  0  0  0
    1.0721    0.2109    0.0000 C   0  0  0  0  0  0  0  0  0  0  0  0
    1.7866   -0.2016    0.0000 C   0  0  0  0  0  0  0  0  0  0  0  0
    2.5011    0.2109    0.0000 C   0  0  0  0  0  0  0  0  0  0  0  0
    1.7866   -1.0266    0.0000 C   0  0  0  0  0  0  0  0  0  0  0  0
    3.2155   -0.2016    0.0000 C   0  0  0  0  0  0  0  0  0  0  0  0
    3.9300    0.2109    0.0000 C   0  0  0  0  0  0  0  0  0  0  0  0
    4.6445   -0.2016    0.0000 C   0  0  0  0  0  0  0  0  0  0  0  0
    5.3590    0.2109    0.0000 C   0  0  0  0  0  0  0  0  0  0  0  0
    4.6445   -1.0266    0.0000 C   0  0  0  0  0  0  0  0  0  0  0  0
    6.7879    0.2109    0.0000 C   0  0  0  0  0  0  0  0  0  0  0  0
    6.7879    1.0359    0.0000 C   0  0  0  0  0  0  0  0  0  0  0  0
    6.0734   -0.2016    0.0000 C   0  0  0  0  0  0  0  0  0  0  0  0
    8.2168    0.2109    0.0000 C   0  0  0  0  0  0  0  0  0  0  0  0
    7.5024    1.4484    0.0000 C   0  0  0  0  0  0  0  0  0  0  0  0
    6.0734    1.4484    0.0000 C   0  0  0  0  0  0  0  0  0  0  0  0
    8.2168    1.0359    0.0000 C   0  0  1  0  0  0  0  0  0  0  0  0
    7.5024    2.2734    0.0000 O   0  0  0  0  0  0  0  0  0  0  0  0
    8.9313    1.4484    0.0000 O   0  0  0  0  0  0  0  0  0  0  0  0
    7.9149   -0.9160    0.0000 C   0  0  0  0  0  0  0  0  0  0  0  0
    7.5024   -0.2016    0.0000 C   0  0  0  0  0  0  0  0  0  0  0  0
    7.0899   -0.9160    0.0000 C   0  0  0  0  0  0  0  0  0  0  0  0
   -7.5015   -1.4391    0.0000 C   0  0  0  0  0  0  0  0  0  0  0  0
   -8.2160   -1.0266    0.0000 C   0  0  2  0  0  0  0  0  0  0  0  0
   -6.7870   -0.2016    0.0000 C   0  0  0  0  0  0  0  0  0  0  0  0
   -6.7870   -1.0266    0.0000 C   0  0  0  0  0  0  0  0  0  0  0  0
   -6.0726    0.2109    0.0000 C   0  0  0  0  0  0  0  0  0  0  0  0
   -8.2160   -0.2016    0.0000 C   0  0  0  0  0  0  0  0  0  0  0  0
   -7.5015    0.2109    0.0000 C   0  0  0  0  0  0  0  0  0  0  0  0
   -6.0726   -1.4391    0.0000 C   0  0  0  0  0  0  0  0  0  0  0  0
   -7.5015   -2.2641    0.0000 O   0  0  0  0  0  0  0  0  0  0  0  0
   -8.9305   -1.4391    0.0000 O   0  0  0  0  0  0  0  0  0  0  0  0
   -7.9140    0.9254    0.0000 C   0  0  0  0  0  0  0  0  0  0  0  0
   -7.0890    0.9254    0.0000 C   0  0  0  0  0  0  0  0  0  0  0  0
 37  1  2  0  0  0  0
  1  2  1  0  0  0  0
  2  3  2  0  0  0  0
  2  4  1  0  0  0  0
  3  5  1  0  0  0  0
  5  6  2  0  0  0  0
  6  7  1  0  0  0  0
  7  8  2  0  0  0  0
  7  9  1  0  0  0  0
  8 10  1  0  0  0  0
 10 11  2  0  0  0  0
 11 12  1  0  0  0  0
 12 13  2  0  0  0  0
 13 14  1  0  0  0  0
 13 15  1  0  0  0  0
 14 16  2  0  0  0  0
 16 17  1  0  0  0  0
 17 18  2  0  0  0  0
 18 19  1  0  0  0  0
 18 20  1  0  0  0  0
 19 23  2  0  0  0  0
 22 26  1  0  0  0  0
 25 28  2  0  0  0  0
 27 29  1  1  0  0  0
 31 30  1  0  0  0  0
 31 32  1  0  0  0  0
 33 41  2  0  0  0  0
 33 34  1  0  0  0  0
 34 42  1  1  0  0  0
 36 33  1  0  0  0  0
 35 36  2  0  0  0  0
 36 40  1  0  0  0  0
 35 37  1  0  0  0  0
 38 34  1  0  0  0  0
 39 38  1  0  0  0  0
 35 39  1  0  0  0  0
 39 43  1  0  0  0  0
 39 44  1  0  0  0  0
 25 27  1  0  0  0  0
 22 25  1  0  0  0  0
 21 22  2  0  0  0  0
 21 23  1  0  0  0  0
 24 27  1  0  0  0  0
 31 24  1  0  0  0  0
 21 31  1  0  0  0  0
M  END
> <DATABASE_ID>
DB06543

> <DATABASE_NAME>
drugbank

> <SMILES>
C\C(\C=C\C=C(/C)\C=C\C1=C(C)C(=O)[C@@H](O)CC1(C)C)=C/C=C/C=C(\C)/C=C/C=C(\C)/C=C/C1=C(C)C(=O)[C@@H](O)CC1(C)C

> <INCHI_IDENTIFIER>
InChI=1S/C40H52O4/c1-27(17-13-19-29(3)21-23-33-31(5)37(43)35(41)25-39(33,7)8)15-11-12-16-28(2)18-14-20-30(4)22-24-34-32(6)38(44)36(42)26-40(34,9)10/h11-24,35-36,41-42H,25-26H2,1-10H3/b12-11+,17-13+,18-14+,23-21+,24-22+,27-15+,28-16+,29-19+,30-20+/t35-,36-/m0/s1

> <INCHI_KEY>
MQZIGYBFDRPAKN-UWFIBFSHSA-N

> <FORMULA>
C40H52O4

> <MOLECULAR_WEIGHT>
596.852

> <EXACT_MASS>
596.386560154

> <JCHEM_ACCEPTOR_COUNT>
4

> <JCHEM_ATOM_COUNT>
96

> <JCHEM_AVERAGE_POLARIZABILITY>
73.76507314865347

> <JCHEM_BIOAVAILABILITY>
0

> <JCHEM_DONOR_COUNT>
2

> <JCHEM_FORMAL_CHARGE>
0

> <JCHEM_GHOSE_FILTER>
0

> <JCHEM_IUPAC>
(6S)-6-hydroxy-3-[(1E,3E,5E,7E,9E,11E,13E,15E,17E)-18-[(4S)-4-hydroxy-2,6,6-trimethyl-3-oxocyclohex-1-en-1-yl]-3,7,12,16-tetramethyloctadeca-1,3,5,7,9,11,13,15,17-nonaen-1-yl]-2,4,4-trimethylcyclohex-2-en-1-one

> <ALOGPS_LOGP>
7.40

> <JCHEM_LOGP>
8.047382536

> <ALOGPS_LOGS>
-5.95

> <JCHEM_MDDR_LIKE_RULE>
0

> <JCHEM_NUMBER_OF_RINGS>
2

> <JCHEM_PHYSIOLOGICAL_CHARGE>
0

> <JCHEM_PKA>
13.673757889095246

> <JCHEM_PKA_STRONGEST_ACIDIC>
13.071697897767283

> <JCHEM_PKA_STRONGEST_BASIC>
-3.510568819413165

> <JCHEM_POLAR_SURFACE_AREA>
74.6

> <JCHEM_REFRACTIVITY>
195.98260000000013

> <JCHEM_ROTATABLE_BOND_COUNT>
10

> <JCHEM_RULE_OF_FIVE>
0

> <ALOGPS_SOLUBILITY>
6.67e-04 g/l

> <JCHEM_TRADITIONAL_IUPAC>
astaxanthin

> <JCHEM_VEBER_RULE>
0

> <DRUGBANK_ID>
DB06543

> <DRUG_GROUPS>
investigational

> <GENERIC_NAME>
Astaxanthin

> <PRODUCTS>
Astaxanthin; Nicadan ZX; Tobakient

$$$$
