
  Mrv1909 05192023102D          

115120  0  0  0  0            999 V2000
    8.2828   -4.1532    0.0000 C   0  0  0  0  0  0  0  0  0  0  0  0
    8.2760   -4.9480    0.0000 C   0  0  0  0  0  0  0  0  0  0  0  0
    8.9598   -5.3494    0.0000 C   0  0  0  0  0  0  0  0  0  0  0  0
    9.6509   -4.9573    0.0000 C   0  0  0  0  0  0  0  0  0  0  0  0
    9.6539   -4.1594    0.0000 C   0  0  0  0  0  0  0  0  0  0  0  0
    8.9695   -3.7615    0.0000 C   0  0  0  0  0  0  0  0  0  0  0  0
    5.4923   -4.1662    0.0000 N   0  0  0  0  0  0  0  0  0  0  0  0
    1.9020   -0.7444    0.0000 N   0  0  0  0  0  0  0  0  0  0  0  0
    1.2330   -1.2295    0.0000 C   0  0  0  0  0  0  0  0  0  0  0  0
    1.4890   -2.0103    0.0000 C   0  0  0  0  0  0  0  0  0  0  0  0
    2.3109   -2.0155    0.0000 N   0  0  0  0  0  0  0  0  0  0  0  0
    2.5659   -1.2286    0.0000 C   0  0  0  0  0  0  0  0  0  0  0  0
   -3.0608    0.4274    0.0000 C   0  0  0  0  0  0  0  0  0  0  0  0
   -3.0541    1.2527    0.0000 C   0  0  0  0  0  0  0  0  0  0  0  0
   -3.7703    1.6687    0.0000 C   0  0  0  0  0  0  0  0  0  0  0  0
   -4.4823    1.2609    0.0000 C   0  0  0  0  0  0  0  0  0  0  0  0
   -4.4837    0.4316    0.0000 C   0  0  0  0  0  0  0  0  0  0  0  0
   -3.7724    0.0205    0.0000 C   0  0  0  0  0  0  0  0  0  0  0  0
   -0.9038    3.1811    0.0000 N   0  0  0  0  0  0  0  0  0  0  0  0
   -0.2403    2.6959    0.0000 C   0  0  1  0  0  0  0  0  0  0  0  0
    0.4238    3.1781    0.0000 C   0  0  0  0  0  0  0  0  0  0  0  0
    0.1779    3.9588    0.0000 C   0  0  0  0  0  0  0  0  0  0  0  0
   -0.6476    3.9640    0.0000 C   0  0  0  0  0  0  0  0  0  0  0  0
  -10.3269    2.0242    0.0000 C   0  0  0  0  0  0  0  0  0  0  0  0
  -10.3285    1.1503    0.0000 C   0  0  0  0  0  0  0  0  0  0  0  0
   -9.5799    0.7174    0.0000 C   0  0  0  0  0  0  0  0  0  0  0  0
   -9.5823    2.4569    0.0000 C   0  0  0  0  0  0  0  0  0  0  0  0
   -8.8331    2.0291    0.0000 C   0  0  0  0  0  0  0  0  0  0  0  0
   -8.8285    1.1537    0.0000 C   0  0  0  0  0  0  0  0  0  0  0  0
   -7.3248    1.1618    0.0000 C   0  0  0  0  0  0  0  0  0  0  0  0
   -7.3294    2.0314    0.0000 C   0  0  0  0  0  0  0  0  0  0  0  0
   -8.0840    2.4685    0.0000 N   0  0  0  0  0  0  0  0  0  0  0  0
   -6.6152    0.7552    0.0000 C   0  0  0  0  0  0  0  0  0  0  0  0
   -5.8983    1.1705    0.0000 C   0  0  2  0  0  0  0  0  0  0  0  0
   -5.1872    0.7552    0.0000 N   0  0  0  0  0  0  0  0  0  0  0  0
   -5.1929   -0.8320    0.0000 C   0  0  0  0  0  0  0  0  0  0  0  0
   -4.4760   -1.2417    0.0000 C   0  0  1  0  0  0  0  0  0  0  0  0
   -3.7647   -0.8264    0.0000 N   0  0  0  0  0  0  0  0  0  0  0  0
   -5.9040    2.7580    0.0000 C   0  0  0  0  0  0  0  0  0  0  0  0
   -6.6209    3.1733    0.0000 O   0  0  0  0  0  0  0  0  0  0  0  0
   -5.1929    3.1733    0.0000 N   0  0  0  0  0  0  0  0  0  0  0  0
   -4.4760    2.7637    0.0000 C   0  0  0  0  0  0  0  0  0  0  0  0
   -3.7647    3.1791    0.0000 C   0  0  0  0  0  0  0  0  0  0  0  0
   -3.0478    2.7637    0.0000 N   0  0  0  0  0  0  0  0  0  0  0  0
   -3.7704    4.0040    0.0000 O   0  0  0  0  0  0  0  0  0  0  0  0
   -2.3366    3.1847    0.0000 C   0  0  2  0  0  0  0  0  0  0  0  0
   -1.6255    2.7694    0.0000 C   0  0  0  0  0  0  0  0  0  0  0  0
   -2.3424    4.0097    0.0000 C   0  0  0  0  0  0  0  0  0  0  0  0
   -3.0206    4.4734    0.0000 C   0  0  0  0  0  0  0  0  0  0  0  0
   -2.9462    5.2956    0.0000 C   0  0  0  0  0  0  0  0  0  0  0  0
   -3.6302    5.7593    0.0000 C   0  0  0  0  0  0  0  0  0  0  0  0
   -3.5570    6.5843    0.0000 N   0  0  0  0  0  0  0  0  0  0  0  0
   -0.2770    1.2844    0.0000 C   0  0  0  0  0  0  0  0  0  0  0  0
   -0.9939    0.8690    0.0000 O   0  0  0  0  0  0  0  0  0  0  0  0
    0.5025    0.8690    0.0000 N   0  0  0  0  0  0  0  0  0  0  0  0
    1.2193    1.2900    0.0000 C   0  0  1  0  0  0  0  0  0  0  0  0
    1.9305    0.8747    0.0000 C   0  0  0  0  0  0  0  0  0  0  0  0
    2.6417    1.2900    0.0000 C   0  0  0  0  0  0  0  0  0  0  0  0
    1.9248    0.0497    0.0000 C   0  0  0  0  0  0  0  0  0  0  0  0
    1.2136    2.1151    0.0000 C   0  0  0  0  0  0  0  0  0  0  0  0
   -4.4816   -2.0667    0.0000 C   0  0  0  0  0  0  0  0  0  0  0  0
   -5.1985   -2.4723    0.0000 C   0  0  0  0  0  0  0  0  0  0  0  0
   -5.2099   -3.2972    0.0000 C   0  0  0  0  0  0  0  0  0  0  0  0
   -5.9268   -3.6971    0.0000 N   0  0  0  0  0  0  0  0  0  0  0  0
   -6.6321   -3.2718    0.0000 C   0  0  0  0  0  0  0  0  0  0  0  0
   -7.3545   -3.6716    0.0000 N   0  0  0  0  0  0  0  0  0  0  0  0
   -6.6207   -2.4469    0.0000 N   0  0  0  0  0  0  0  0  0  0  0  0
    0.5708    2.4848    0.0000 O   0  0  0  0  0  0  0  0  0  0  0  0
    1.9248    2.5305    0.0000 O   0  0  0  0  0  0  0  0  0  0  0  0
   -1.6255    1.9444    0.0000 O   0  0  0  0  0  0  0  0  0  0  0  0
   -3.0478   -1.2361    0.0000 C   0  0  0  0  0  0  0  0  0  0  0  0
   -2.3366   -0.8207    0.0000 C   0  0  1  0  0  0  0  0  0  0  0  0
   -1.6255   -1.2304    0.0000 N   0  0  0  0  0  0  0  0  0  0  0  0
   -3.0535   -2.0667    0.0000 O   0  0  0  0  0  0  0  0  0  0  0  0
   -2.3424    0.0043    0.0000 C   0  0  0  0  0  0  0  0  0  0  0  0
   -0.9086   -0.8149    0.0000 C   0  0  0  0  0  0  0  0  0  0  0  0
   -0.1972   -1.2304    0.0000 C   0  0  2  0  0  0  0  0  0  0  0  0
    0.5196   -0.8149    0.0000 C   0  0  0  0  0  0  0  0  0  0  0  0
   -0.2030   -2.5334    0.0000 N   0  0  0  0  0  0  0  0  0  0  0  0
   -0.9142    0.0099    0.0000 O   0  0  0  0  0  0  0  0  0  0  0  0
    0.5138   -2.9430    0.0000 C   0  0  0  0  0  0  0  0  0  0  0  0
    1.2250   -2.5276    0.0000 O   0  0  0  0  0  0  0  0  0  0  0  0
    0.5081   -3.7736    0.0000 C   0  0  2  0  0  0  0  0  0  0  0  0
   -0.2143   -4.1890    0.0000 C   0  0  0  0  0  0  0  0  0  0  0  0
   -0.9370   -3.7679    0.0000 C   0  0  0  0  0  0  0  0  0  0  0  0
   -1.6652   -4.1833    0.0000 C   0  0  0  0  0  0  0  0  0  0  0  0
   -2.3936   -3.7624    0.0000 O   0  0  0  0  0  0  0  0  0  0  0  0
   -1.6709   -5.0197    0.0000 O   0  0  0  0  0  0  0  0  0  0  0  0
    1.2250   -4.1890    0.0000 N   0  0  0  0  0  0  0  0  0  0  0  0
    1.9418   -3.7736    0.0000 C   0  0  0  0  0  0  0  0  0  0  0  0
    2.6587   -4.1833    0.0000 C   0  0  1  0  0  0  0  0  0  0  0  0
    3.3701   -3.7679    0.0000 N   0  0  0  0  0  0  0  0  0  0  0  0
    1.9362   -2.9430    0.0000 O   0  0  0  0  0  0  0  0  0  0  0  0
    2.6531   -5.0026    0.0000 C   0  0  0  0  0  0  0  0  0  0  0  0
    1.9418   -5.4123    0.0000 C   0  0  0  0  0  0  0  0  0  0  0  0
    1.2307   -4.9968    0.0000 S   0  0  0  0  0  0  0  0  0  0  0  0
    0.5138   -5.4065    0.0000 C   0  0  0  0  0  0  0  0  0  0  0  0
    4.0812   -4.1775    0.0000 C   0  0  0  0  0  0  0  0  0  0  0  0
    4.7868   -3.7624    0.0000 C   0  0  2  0  0  0  0  0  0  0  0  0
    6.1920   -3.7566    0.0000 C   0  0  0  0  0  0  0  0  0  0  0  0
    6.8918   -4.1605    0.0000 C   0  0  2  0  0  0  0  0  0  0  0  0
    7.5861   -3.7509    0.0000 C   0  0  0  0  0  0  0  0  0  0  0  0
   10.3285   -5.3497    0.0000 O   0  0  0  0  0  0  0  0  0  0  0  0
    6.8863   -4.9685    0.0000 N   0  0  0  0  0  0  0  0  0  0  0  0
    6.1864   -2.9430    0.0000 O   0  0  0  0  0  0  0  0  0  0  0  0
    4.7810   -2.9430    0.0000 C   0  0  0  0  0  0  0  0  0  0  0  0
    4.0699   -2.5276    0.0000 O   0  0  0  0  0  0  0  0  0  0  0  0
    4.0755   -4.9968    0.0000 O   0  0  0  0  0  0  0  0  0  0  0  0
    6.1864   -5.3724    0.0000 C   0  0  0  0  0  0  0  0  0  0  0  0
    6.1807   -6.1804    0.0000 C   0  0  1  0  0  0  0  0  0  0  0  0
    6.8748   -6.5843    0.0000 N   0  0  0  0  0  0  0  0  0  0  0  0
    5.4867   -4.9627    0.0000 O   0  0  0  0  0  0  0  0  0  0  0  0
    5.4809   -6.5787    0.0000 C   0  0  0  0  0  0  0  0  0  0  0  0
    4.7810   -6.1746    0.0000 O   0  0  0  0  0  0  0  0  0  0  0  0
   -6.1259   -1.3670    0.0000 O   0  0  0  0  0  0  0  0  0  0  0  0
 56 57  1  0  0  0  0
 14 15  1  0  0  0  0
 57 58  1  0  0  0  0
  3  4  2  0  0  0  0
 57 59  1  0  0  0  0
 15 16  2  0  0  0  0
 56 60  1  6  0  0  0
 37 61  1  1  0  0  0
 30 31  2  0  0  0  0
 61 62  1  0  0  0  0
 31 32  1  0  0  0  0
 62 63  1  0  0  0  0
 32 28  1  0  0  0  0
 63 64  1  0  0  0  0
 29 30  1  0  0  0  0
 64 65  1  0  0  0  0
 16 17  1  0  0  0  0
 65 66  1  0  0  0  0
 30 33  1  0  0  0  0
 65 67  2  0  0  0  0
  4  5  1  0  0  0  0
 60 68  1  0  0  0  0
 33 34  1  0  0  0  0
 60 69  2  0  0  0  0
 17 18  2  0  0  0  0
 47 70  2  0  0  0  0
 34 35  1  0  0  0  0
 38 71  1  0  0  0  0
 18 13  1  0  0  0  0
 71 72  1  0  0  0  0
 35 36  1  0  0  0  0
 72 73  1  0  0  0  0
 19 20  1  0  0  0  0
 71 74  2  0  0  0  0
 36 37  1  0  0  0  0
 72 75  1  6  0  0  0
 75 13  1  0  0  0  0
  2  3  1  0  0  0  0
 73 76  1  0  0  0  0
 37 38  1  0  0  0  0
 76 77  1  0  0  0  0
  5  6  2  0  0  0  0
 77 78  1  0  0  0  0
 78  9  1  0  0  0  0
 34 39  1  1  0  0  0
 77 79  1  6  0  0  0
  8  9  1  0  0  0  0
 76 80  2  0  0  0  0
 39 40  2  0  0  0  0
 79 81  1  0  0  0  0
 10 11  1  0  0  0  0
 81 82  2  0  0  0  0
 39 41  1  0  0  0  0
 83 81  1  1  0  0  0
 11 12  2  0  0  0  0
 83 84  1  0  0  0  0
 41 42  1  0  0  0  0
 84 85  1  0  0  0  0
 20 21  1  0  0  0  0
 85 86  1  0  0  0  0
 42 43  1  0  0  0  0
 86 87  1  0  0  0  0
 21 22  1  0  0  0  0
 86 88  2  0  0  0  0
 43 44  1  0  0  0  0
 83 89  1  0  0  0  0
 22 23  1  0  0  0  0
 89 90  1  0  0  0  0
 43 45  2  0  0  0  0
 90 91  1  0  0  0  0
 23 19  1  0  0  0  0
 91 92  1  0  0  0  0
 44 46  1  0  0  0  0
 90 93  2  0  0  0  0
 12  8  1  0  0  0  0
 91 94  1  1  0  0  0
 46 47  1  0  0  0  0
 94 95  1  0  0  0  0
 47 19  1  0  0  0  0
 95 96  1  0  0  0  0
  6  1  1  0  0  0  0
 96 97  1  0  0  0  0
 46 48  1  1  0  0  0
 92 98  1  0  0  0  0
 24 25  2  0  0  0  0
 98 99  1  0  0  0  0
 99  7  1  0  0  0  0
 48 49  1  0  0  0  0
  7100  1  0  0  0  0
  1  2  2  0  0  0  0
100101  1  0  0  0  0
 49 50  1  0  0  0  0
101102  1  0  0  0  0
102  1  1  0  0  0  0
 25 26  1  0  0  0  0
  4103  1  0  0  0  0
 50 51  1  0  0  0  0
101104  1  6  0  0  0
 51 52  1  0  0  0  0
100105  2  0  0  0  0
 26 29  2  0  0  0  0
 99106  1  6  0  0  0
 13 14  2  0  0  0  0
106107  1  0  0  0  0
 20 53  1  1  0  0  0
 98108  2  0  0  0  0
 28 27  2  0  0  0  0
104109  1  0  0  0  0
 53 54  2  0  0  0  0
110109  1  1  0  0  0
 27 24  1  0  0  0  0
110111  1  0  0  0  0
 53 55  1  0  0  0  0
109112  2  0  0  0  0
 28 29  1  0  0  0  0
110113  1  0  0  0  0
 55 56  1  0  0  0  0
113114  1  0  0  0  0
  9 10  2  0  0  0  0
 36115  2  0  0  0  0
M  END
> <DATABASE_ID>
DB15687

> <DATABASE_NAME>
drugbank

> <SMILES>
CSCC[C@H](NC(=O)[C@H](CO)NC(=O)[C@H](CC1=CC=C(O)C=C1)NC(=O)[C@@H](N)CO)C(=O)N[C@@H](CCC(O)=O)C(=O)N[C@@H](CC1=CN=CN1)C(=O)N[C@@H](CC1=CC=CC=C1)C(=O)N[C@@H](CCCNC(N)=N)C(=O)N[C@@H](CC1=CNC2=CC=CC=C12)C(=O)NCC(=O)N[C@@H](CCCCN)C(=O)N1CCC[C@H]1C(=O)N[C@@H](C(C)C)C(O)=O

> <INCHI_IDENTIFIER>
InChI=1S/C75H106N20O19S/c1-41(2)62(74(113)114)94-72(111)59-19-12-29-95(59)73(112)53(17-9-10-27-76)85-60(99)37-83-64(103)56(33-44-35-82-49-16-8-7-15-47(44)49)91-65(104)50(18-11-28-81-75(78)79)86-68(107)55(31-42-13-5-4-6-14-42)90-70(109)57(34-45-36-80-40-84-45)92-66(105)51(24-25-61(100)101)87-67(106)52(26-30-115-3)88-71(110)58(39-97)93-69(108)54(89-63(102)48(77)38-96)32-43-20-22-46(98)23-21-43/h4-8,13-16,20-23,35-36,40-41,48,50-59,62,82,96-98H,9-12,17-19,24-34,37-39,76-77H2,1-3H3,(H,80,84)(H,83,103)(H,85,99)(H,86,107)(H,87,106)(H,88,110)(H,89,102)(H,90,109)(H,91,104)(H,92,105)(H,93,108)(H,94,111)(H,100,101)(H,113,114)(H4,78,79,81)/t48-,50-,51-,52-,53-,54-,55-,56-,57-,58-,59-,62-/m0/s1

> <INCHI_KEY>
VGBVAARMQYYITG-DESRROFGSA-N

> <FORMULA>
C75H106N20O19S

> <MOLECULAR_WEIGHT>
1623.85

> <EXACT_MASS>
1622.766382447

> <JCHEM_ACCEPTOR_COUNT>
25

> <JCHEM_ATOM_COUNT>
221

> <JCHEM_AVERAGE_NEUTRAL_MICROSPECIES_CHARGE>
4.1082470639829385

> <JCHEM_AVERAGE_POLARIZABILITY>
166.1150342639114

> <JCHEM_BIOAVAILABILITY>
0

> <JCHEM_DONOR_COUNT>
23

> <JCHEM_FORMAL_CHARGE>
0

> <JCHEM_GHOSE_FILTER>
0

> <JCHEM_IUPAC>
(4S)-4-{[(1S)-1-{[(1S)-1-{[(1S)-1-{[(1S)-1-[({[(2S)-6-amino-1-[(2S)-2-{[(1S)-1-carboxy-2-methylpropyl]carbamoyl}pyrrolidin-1-yl]-1-oxohexan-2-yl]carbamoyl}methyl)carbamoyl]-2-(1H-indol-3-yl)ethyl]carbamoyl}-4-carbamimidamidobutyl]carbamoyl}-2-phenylethyl]carbamoyl}-2-(1H-imidazol-5-yl)ethyl]carbamoyl}-4-[(2S)-2-[(2S)-2-[(2S)-2-[(2S)-2-amino-3-hydroxypropanamido]-3-(4-hydroxyphenyl)propanamido]-3-hydroxypropanamido]-4-(methylsulfanyl)butanamido]butanoic acid

> <ALOGPS_LOGP>
-2.42

> <JCHEM_LOGP>
-9.336147012939952

> <ALOGPS_LOGS>
-4.79

> <JCHEM_MDDR_LIKE_RULE>
1

> <JCHEM_NEUTRAL_CHARGE>
1

> <JCHEM_NUMBER_OF_RINGS>
6

> <JCHEM_PHYSIOLOGICAL_CHARGE>
1

> <JCHEM_PKA>
3.7747907700776344

> <JCHEM_PKA_STRONGEST_ACIDIC>
3.1730130054030465

> <JCHEM_PKA_STRONGEST_BASIC>
11.911905206308006

> <JCHEM_POLAR_SURFACE_AREA>
634.1100000000001

> <JCHEM_REFRACTIVITY>
426.4475000000002

> <JCHEM_ROTATABLE_BOND_COUNT>
49

> <JCHEM_RULE_OF_FIVE>
0

> <ALOGPS_SOLUBILITY>
2.66e-02 g/l

> <JCHEM_TRADITIONAL_IUPAC>
(4S)-4-{[(1S)-1-{[(1S)-1-{[(1S)-1-{[(1S)-1-[({[(2S)-6-amino-1-[(2S)-2-{[(1S)-1-carboxy-2-methylpropyl]carbamoyl}pyrrolidin-1-yl]-1-oxohexan-2-yl]carbamoyl}methyl)carbamoyl]-2-(1H-indol-3-yl)ethyl]carbamoyl}-4-carbamimidamidobutyl]carbamoyl}-2-phenylethyl]carbamoyl}-2-(3H-imidazol-4-yl)ethyl]carbamoyl}-4-[(2S)-2-[(2S)-2-[(2S)-2-[(2S)-2-amino-3-hydroxypropanamido]-3-(4-hydroxyphenyl)propanamido]-3-hydroxypropanamido]-4-(methylsulfanyl)butanamido]butanoic acid

> <JCHEM_VEBER_RULE>
0

> <DRUGBANK_ID>
DB15687

> <DRUG_GROUPS>
investigational

> <GENERIC_NAME>
Tridecactide

> <SYNONYMS>
alpha-1-13-corticotropin, human; Tridecactide

$$$$
