
  Mrv1909 12152018042D          

 35 39  0  0  0  0            999 V2000
    3.2789    2.0625    0.0000 C   0  0  0  0  0  0  0  0  0  0  0  0
    3.2789    1.2375    0.0000 C   0  0  0  0  0  0  0  0  0  0  0  0
    3.9934    0.8250    0.0000 C   0  0  0  0  0  0  0  0  0  0  0  0
    3.9934    0.0000    0.0000 C   0  0  0  0  0  0  0  0  0  0  0  0
    3.2789   -0.4125    0.0000 C   0  0  0  0  0  0  0  0  0  0  0  0
    2.5645    0.0000    0.0000 C   0  0  0  0  0  0  0  0  0  0  0  0
    2.5645    0.8250    0.0000 C   0  0  0  0  0  0  0  0  0  0  0  0
    1.7798    1.0799    0.0000 C   0  0  0  0  0  0  0  0  0  0  0  0
    1.5249    1.8646    0.0000 O   0  0  0  0  0  0  0  0  0  0  0  0
    1.2949    0.4125    0.0000 N   0  0  0  0  0  0  0  0  0  0  0  0
    0.4699    0.4125    0.0000 C   0  0  0  0  0  0  0  0  0  0  0  0
    0.0574    1.1270    0.0000 C   0  0  0  0  0  0  0  0  0  0  0  0
   -0.7676    1.1270    0.0000 C   0  0  0  0  0  0  0  0  0  0  0  0
   -1.1801    1.8414    0.0000 C   0  0  0  0  0  0  0  0  0  0  0  0
   -0.7676    2.5559    0.0000 C   0  0  0  0  0  0  0  0  0  0  0  0
   -1.1801    3.2704    0.0000 O   0  0  0  0  0  0  0  0  0  0  0  0
   -0.7676    3.9849    0.0000 C   0  0  0  0  0  0  0  0  0  0  0  0
   -0.3551    4.6993    0.0000 F   0  0  0  0  0  0  0  0  0  0  0  0
   -1.4821    4.3974    0.0000 F   0  0  0  0  0  0  0  0  0  0  0  0
   -0.0531    3.5724    0.0000 F   0  0  0  0  0  0  0  0  0  0  0  0
    0.0574    2.5559    0.0000 C   0  0  0  0  0  0  0  0  0  0  0  0
    0.4699    1.8414    0.0000 C   0  0  0  0  0  0  0  0  0  0  0  0
    1.7798   -0.2549    0.0000 C   0  0  0  0  0  0  0  0  0  0  0  0
    4.7079   -0.4125    0.0000 C   0  0  0  0  0  0  0  0  0  0  0  0
    5.4615   -0.0769    0.0000 N   0  0  0  0  0  0  0  0  0  0  0  0
    6.0136   -0.6900    0.0000 C   0  0  0  0  0  0  0  0  0  0  0  0
    6.8341   -0.6038    0.0000 C   0  0  0  0  0  0  0  0  0  0  0  0
    7.3190   -1.2712    0.0000 N   0  0  0  0  0  0  0  0  0  0  0  0
    8.1395   -1.1850    0.0000 C   0  0  0  0  0  0  0  0  0  0  0  0
    8.6244   -1.8524    0.0000 C   0  0  0  0  0  0  0  0  0  0  0  0
    8.2888   -2.6061    0.0000 N   0  0  0  0  0  0  0  0  0  0  0  0
    7.4683   -2.6924    0.0000 C   0  0  0  0  0  0  0  0  0  0  0  0
    6.9834   -2.0249    0.0000 C   0  0  0  0  0  0  0  0  0  0  0  0
    5.6011   -1.4045    0.0000 N   0  0  0  0  0  0  0  0  0  0  0  0
    4.7941   -1.2330    0.0000 O   0  0  0  0  0  0  0  0  0  0  0  0
  1  2  1  0  0  0  0
  2  3  2  0  0  0  0
  3  4  1  0  0  0  0
  4  5  2  0  0  0  0
  5  6  1  0  0  0  0
  6  7  2  0  0  0  0
  2  7  1  0  0  0  0
  7  8  1  0  0  0  0
  8  9  2  0  0  0  0
  8 10  1  0  0  0  0
 10 11  1  0  0  0  0
 11 12  1  0  0  0  0
 12 13  2  0  0  0  0
 13 14  1  0  0  0  0
 14 15  2  0  0  0  0
 15 16  1  0  0  0  0
 16 17  1  0  0  0  0
 17 18  1  0  0  0  0
 17 19  1  0  0  0  0
 17 20  1  0  0  0  0
 15 21  1  0  0  0  0
 21 22  2  0  0  0  0
 12 22  1  0  0  0  0
 10 23  1  0  0  0  0
  6 23  1  0  0  0  0
  4 24  1  0  0  0  0
 24 25  2  0  0  0  0
 25 26  1  0  0  0  0
 26 27  1  0  0  0  0
 27 28  1  0  0  0  0
 28 29  1  0  0  0  0
 29 30  1  0  0  0  0
 30 31  1  0  0  0  0
 31 32  1  0  0  0  0
 32 33  1  0  0  0  0
 28 33  1  0  0  0  0
 26 34  2  0  0  0  0
 34 35  1  0  0  0  0
 24 35  1  0  0  0  0
M  END
> <DATABASE_ID>
DB16073

> <DATABASE_NAME>
drugbank

> <SMILES>
CC1=CC(=CC2=C1C(=O)N(CC1=CC=C(OC(F)(F)F)C=C1)C2)C1=NC(CN2CCNCC2)=NO1

> <INCHI_IDENTIFIER>
InChI=1S/C24H24F3N5O3/c1-15-10-17(22-29-20(30-35-22)14-31-8-6-28-7-9-31)11-18-13-32(23(33)21(15)18)12-16-2-4-19(5-3-16)34-24(25,26)27/h2-5,10-11,28H,6-9,12-14H2,1H3

> <INCHI_KEY>
IPCYZQQFECEHLI-UHFFFAOYSA-N

> <FORMULA>
C24H24F3N5O3

> <MOLECULAR_WEIGHT>
487.483

> <EXACT_MASS>
487.183124142

> <JCHEM_ACCEPTOR_COUNT>
6

> <JCHEM_ATOM_COUNT>
59

> <JCHEM_AVERAGE_NEUTRAL_MICROSPECIES_CHARGE>
0.9939102520417044

> <JCHEM_AVERAGE_POLARIZABILITY>
48.921709139801706

> <JCHEM_BIOAVAILABILITY>
1

> <JCHEM_DONOR_COUNT>
1

> <JCHEM_FORMAL_CHARGE>
0

> <JCHEM_GHOSE_FILTER>
0

> <JCHEM_IUPAC>
7-methyl-5-{3-[(piperazin-1-yl)methyl]-1,2,4-oxadiazol-5-yl}-2-{[4-(trifluoromethoxy)phenyl]methyl}-2,3-dihydro-1H-isoindol-1-one

> <ALOGPS_LOGP>
3.30

> <JCHEM_LOGP>
4.4770217973333315

> <ALOGPS_LOGS>
-3.66

> <JCHEM_MDDR_LIKE_RULE>
1

> <JCHEM_NEUTRAL_CHARGE>
1

> <JCHEM_NUMBER_OF_RINGS>
5

> <JCHEM_PHYSIOLOGICAL_CHARGE>
1

> <JCHEM_PKA_STRONGEST_ACIDIC>
13.618157868124467

> <JCHEM_PKA_STRONGEST_BASIC>
9.212451130977866

> <JCHEM_POLAR_SURFACE_AREA>
83.73

> <JCHEM_REFRACTIVITY>
130.735

> <JCHEM_ROTATABLE_BOND_COUNT>
7

> <JCHEM_RULE_OF_FIVE>
1

> <ALOGPS_SOLUBILITY>
1.07e-01 g/l

> <JCHEM_TRADITIONAL_IUPAC>
5-({4-[2-(3-methoxyphenyl)-2-oxoethoxy]phenyl}methyl)-1,3-thiazolidine-2,4-dione

> <JCHEM_VEBER_RULE>
0

> <DRUGBANK_ID>
DB16073

> <DRUG_GROUPS>
investigational

> <GENERIC_NAME>
AZD8529

$$$$
