
  Mrv1572010141516492D          

 26 28  0  0  0  0            999 V2000
   -1.7862    2.2687    0.0000 O   0  0  0  0  0  0  0  0  0  0  0  0
   -0.3571   -0.2062    0.0000 N   0  0  0  0  0  0  0  0  0  0  0  0
   -0.3571    2.2687    0.0000 N   0  0  0  0  0  0  0  0  0  0  0  0
   -0.3571    1.4437    0.0000 C   0  0  0  0  0  0  0  0  0  0  0  0
   -1.0717    1.0312    0.0000 C   0  0  0  0  0  0  0  0  0  0  0  0
    0.3572    1.0312    0.0000 C   0  0  0  0  0  0  0  0  0  0  0  0
   -1.0717    0.2062    0.0000 C   0  0  0  0  0  0  0  0  0  0  0  0
    0.3572    0.2062    0.0000 C   0  0  0  0  0  0  0  0  0  0  0  0
   -0.3571   -1.0312    0.0000 C   0  0  0  0  0  0  0  0  0  0  0  0
   -1.0717   -1.4437    0.0000 C   0  0  0  0  0  0  0  0  0  0  0  0
    0.3572    2.6813    0.0000 C   0  0  0  0  0  0  0  0  0  0  0  0
   -1.0717    2.6813    0.0000 C   0  0  0  0  0  0  0  0  0  0  0  0
   -1.0717   -2.2687    0.0000 C   0  0  0  0  0  0  0  0  0  0  0  0
   -1.7862   -1.0312    0.0000 C   0  0  0  0  0  0  0  0  0  0  0  0
   -1.0717    3.5063    0.0000 C   0  0  0  0  0  0  0  0  0  0  0  0
    0.3572    3.5063    0.0000 C   0  0  0  0  0  0  0  0  0  0  0  0
    1.0717    2.2687    0.0000 C   0  0  0  0  0  0  0  0  0  0  0  0
   -0.3571   -2.6813    0.0000 C   0  0  0  0  0  0  0  0  0  0  0  0
   -1.7862   -2.6813    0.0000 C   0  0  0  0  0  0  0  0  0  0  0  0
   -1.7862    3.9188    0.0000 C   0  0  0  0  0  0  0  0  0  0  0  0
    1.0717    3.9188    0.0000 C   0  0  0  0  0  0  0  0  0  0  0  0
    1.7862    2.6813    0.0000 C   0  0  0  0  0  0  0  0  0  0  0  0
   -0.3571   -3.5063    0.0000 C   0  0  0  0  0  0  0  0  0  0  0  0
   -1.7862   -3.5063    0.0000 C   0  0  0  0  0  0  0  0  0  0  0  0
    1.7862    3.5063    0.0000 C   0  0  0  0  0  0  0  0  0  0  0  0
   -1.0717   -3.9188    0.0000 C   0  0  0  0  0  0  0  0  0  0  0  0
  1 12  2  0  0  0  0
  2  7  1  0  0  0  0
  2  8  1  0  0  0  0
  2  9  1  0  0  0  0
  3  4  1  0  0  0  0
  3 11  1  0  0  0  0
  3 12  1  0  0  0  0
  4  5  1  0  0  0  0
  4  6  1  0  0  0  0
  5  7  1  0  0  0  0
  6  8  1  0  0  0  0
  9 10  1  0  0  0  0
 10 13  1  0  0  0  0
 10 14  1  0  0  0  0
 11 16  2  0  0  0  0
 11 17  1  0  0  0  0
 12 15  1  0  0  0  0
 13 18  2  0  0  0  0
 13 19  1  0  0  0  0
 15 20  1  0  0  0  0
 16 21  1  0  0  0  0
 17 22  2  0  0  0  0
 18 23  1  0  0  0  0
 19 24  2  0  0  0  0
 21 25  2  0  0  0  0
 22 25  1  0  0  0  0
 23 26  2  0  0  0  0
 24 26  1  0  0  0  0
M  END
> <DATABASE_ID>
DB09171

> <DATABASE_NAME>
drugbank

> <SMILES>
CCC(=O)N(C1CCN(CC(C)C2=CC=CC=C2)CC1)C1=CC=CC=C1

> <INCHI_IDENTIFIER>
InChI=1S/C23H30N2O/c1-3-23(26)25(21-12-8-5-9-13-21)22-14-16-24(17-15-22)18-19(2)20-10-6-4-7-11-20/h4-13,19,22H,3,14-18H2,1-2H3

> <INCHI_KEY>
UXIGUKSHASXDNI-UHFFFAOYSA-N

> <FORMULA>
C23H30N2O

> <MOLECULAR_WEIGHT>
350.506

> <EXACT_MASS>
350.235813594

> <JCHEM_ACCEPTOR_COUNT>
2

> <JCHEM_ATOM_COUNT>
56

> <JCHEM_AVERAGE_POLARIZABILITY>
40.70474244897021

> <JCHEM_BIOAVAILABILITY>
1

> <JCHEM_DONOR_COUNT>
0

> <JCHEM_FORMAL_CHARGE>
0

> <JCHEM_GHOSE_FILTER>
1

> <JCHEM_IUPAC>
N-phenyl-N-[1-(2-phenylpropyl)piperidin-4-yl]propanamide

> <ALOGPS_LOGP>
4.51

> <JCHEM_LOGP>
4.180471374666666

> <ALOGPS_LOGS>
-4.42

> <JCHEM_MDDR_LIKE_RULE>
1

> <JCHEM_NUMBER_OF_RINGS>
3

> <JCHEM_PHYSIOLOGICAL_CHARGE>
1

> <JCHEM_PKA_STRONGEST_BASIC>
9.072595311091144

> <JCHEM_POLAR_SURFACE_AREA>
23.550000000000004

> <JCHEM_REFRACTIVITY>
107.95410000000004

> <JCHEM_ROTATABLE_BOND_COUNT>
6

> <JCHEM_RULE_OF_FIVE>
1

> <ALOGPS_SOLUBILITY>
1.34e-02 g/l

> <JCHEM_TRADITIONAL_IUPAC>
betamethylfentanyl

> <JCHEM_VEBER_RULE>
1

> <DRUGBANK_ID>
DB09171

> <DRUG_GROUPS>
illicit

> <GENERIC_NAME>
Î²-Methylfentanyl

> <SYNONYMS>
beta-Methylfentanyl; Betamethylfentanyl

$$$$
