
  Mrv1652310211600102D          

 30 34  0  0  0  0            999 V2000
    0.7292    3.9579    0.0000 C   0  0  0  0  0  0  0  0  0  0  0  0
    0.5577    3.1509    0.0000 O   0  0  0  0  0  0  0  0  0  0  0  0
   -0.2269    2.8960    0.0000 C   0  0  0  0  0  0  0  0  0  0  0  0
   -0.3984    2.0890    0.0000 C   0  0  0  0  0  0  0  0  0  0  0  0
    0.0865    1.4216    0.0000 N   0  0  0  0  0  0  0  0  0  0  0  0
   -0.3984    0.7541    0.0000 C   0  0  0  0  0  0  0  0  0  0  0  0
   -1.1831    1.0091    0.0000 C   0  0  0  0  0  0  0  0  0  0  0  0
   -1.1831    1.8341    0.0000 C   0  0  0  0  0  0  0  0  0  0  0  0
   -1.7962    2.3861    0.0000 C   0  0  0  0  0  0  0  0  0  0  0  0
   -1.6246    3.1931    0.0000 C   0  0  0  0  0  0  0  0  0  0  0  0
   -0.8400    3.4480    0.0000 C   0  0  0  0  0  0  0  0  0  0  0  0
   -0.1435   -0.0305    0.0000 C   0  0  0  0  0  0  0  0  0  0  0  0
   -0.6284   -0.6979    0.0000 N   0  0  0  0  0  0  0  0  0  0  0  0
   -0.1435   -1.3654    0.0000 C   0  0  0  0  0  0  0  0  0  0  0  0
    0.6411   -1.1104    0.0000 N   0  0  0  0  0  0  0  0  0  0  0  0
    0.6411   -0.2854    0.0000 C   0  0  0  0  0  0  0  0  0  0  0  0
    1.3556    0.1271    0.0000 C   0  0  0  0  0  0  0  0  0  0  0  0
    2.0701   -0.2854    0.0000 N   0  0  0  0  0  0  0  0  0  0  0  0
    2.0701   -1.1104    0.0000 C   0  0  0  0  0  0  0  0  0  0  0  0
    1.3556   -1.5229    0.0000 N   0  0  0  0  0  0  0  0  0  0  0  0
    1.3556    0.9521    0.0000 N   0  0  0  0  0  0  0  0  0  0  0  0
   -0.3984   -2.1500    0.0000 C   0  0  1  0  0  0  0  0  0  0  0  0
    0.1536   -2.7631    0.0000 C   0  0  0  0  0  0  0  0  0  0  0  0
   -0.1014   -3.5477    0.0000 C   0  0  0  0  0  0  0  0  0  0  0  0
   -0.9083   -3.7192    0.0000 C   0  0  1  0  0  0  0  0  0  0  0  0
   -1.4604   -3.1062    0.0000 C   0  0  0  0  0  0  0  0  0  0  0  0
   -1.2054   -2.3215    0.0000 C   0  0  0  0  0  0  0  0  0  0  0  0
   -1.1633   -4.5039    0.0000 C   0  0  0  0  0  0  0  0  0  0  0  0
   -0.6112   -5.1170    0.0000 O   0  0  0  0  0  0  0  0  0  0  0  0
   -1.9702   -4.6754    0.0000 O   0  0  0  0  0  0  0  0  0  0  0  0
  1  2  1  0  0  0  0
  2  3  1  0  0  0  0
  3  4  2  0  0  0  0
  4  5  1  0  0  0  0
  5  6  1  0  0  0  0
  6  7  2  0  0  0  0
  7  8  1  0  0  0  0
  4  8  1  0  0  0  0
  8  9  2  0  0  0  0
  9 10  1  0  0  0  0
 10 11  2  0  0  0  0
  3 11  1  0  0  0  0
  6 12  1  0  0  0  0
 12 13  1  0  0  0  0
 13 14  2  0  0  0  0
 14 15  1  0  0  0  0
 15 16  1  0  0  0  0
 12 16  2  0  0  0  0
 16 17  1  0  0  0  0
 17 18  2  0  0  0  0
 18 19  1  0  0  0  0
 19 20  2  0  0  0  0
 15 20  1  0  0  0  0
 17 21  1  0  0  0  0
 22 14  1  1  0  0  0
 22 23  1  0  0  0  0
 23 24  1  0  0  0  0
 24 25  1  0  0  0  0
 25 26  1  0  0  0  0
 26 27  1  0  0  0  0
 22 27  1  0  0  0  0
 25 28  1  6  0  0  0
 28 29  2  0  0  0  0
 28 30  1  0  0  0  0
M  END
> <DATABASE_ID>
DB12387

> <DATABASE_NAME>
drugbank

> <SMILES>
COC1=C2NC(=CC2=CC=C1)C1=C2N(N=CN=C2N)C(=N1)[C@H]1CC[C@@H](CC1)C(O)=O

> <INCHI_IDENTIFIER>
InChI=1S/C21H22N6O3/c1-30-15-4-2-3-13-9-14(25-16(13)15)17-18-19(22)23-10-24-27(18)20(26-17)11-5-7-12(8-6-11)21(28)29/h2-4,9-12,25H,5-8H2,1H3,(H,28,29)(H2,22,23,24)/t11-,12-

> <INCHI_KEY>
JROFGZPOBKIAEW-HAQNSBGRSA-N

> <FORMULA>
C21H22N6O3

> <MOLECULAR_WEIGHT>
406.446

> <EXACT_MASS>
406.175338592

> <JCHEM_ACCEPTOR_COUNT>
7

> <JCHEM_ATOM_COUNT>
52

> <JCHEM_AVERAGE_POLARIZABILITY>
43.89401691428675

> <JCHEM_BIOAVAILABILITY>
1

> <JCHEM_DONOR_COUNT>
3

> <JCHEM_FORMAL_CHARGE>
0

> <JCHEM_GHOSE_FILTER>
1

> <JCHEM_IUPAC>
(1r,4r)-4-[4-amino-5-(7-methoxy-1H-indol-2-yl)imidazo[4,3-f][1,2,4]triazin-7-yl]cyclohexane-1-carboxylic acid

> <ALOGPS_LOGP>
2.36

> <JCHEM_LOGP>
2.4811331353681862

> <ALOGPS_LOGS>
-4.10

> <JCHEM_MDDR_LIKE_RULE>
0

> <JCHEM_NUMBER_OF_RINGS>
5

> <JCHEM_PHYSIOLOGICAL_CHARGE>
-1

> <JCHEM_PKA>
12.621892770789618

> <JCHEM_PKA_STRONGEST_ACIDIC>
3.816140973177522

> <JCHEM_PKA_STRONGEST_BASIC>
2.6204043375538255

> <JCHEM_POLAR_SURFACE_AREA>
131.42

> <JCHEM_REFRACTIVITY>
122.0832

> <JCHEM_ROTATABLE_BOND_COUNT>
4

> <JCHEM_RULE_OF_FIVE>
1

> <ALOGPS_SOLUBILITY>
3.26e-02 g/l

> <JCHEM_TRADITIONAL_IUPAC>
(1r,4r)-4-[4-amino-5-(7-methoxy-1H-indol-2-yl)imidazo[4,3-f][1,2,4]triazin-7-yl]cyclohexane-1-carboxylic acid

> <JCHEM_VEBER_RULE>
0

> <DRUGBANK_ID>
DB12387

> <DRUG_GROUPS>
investigational

> <GENERIC_NAME>
OSI-027

$$$$
