
  Mrv1652306031608022D          

 27 30  0  0  1  0            999 V2000
    0.4736    1.8877    0.0000 C   0  0  0  0  0  0  0  0  0  0  0  0
    2.0307    1.7357    0.0000 C   0  0  0  0  0  0  0  0  0  0  0  0
    4.5754   -0.8489    0.0000 C   0  0  0  0  0  0  0  0  0  0  0  0
    6.1708    1.0432    0.0000 C   0  0  0  0  0  0  0  0  0  0  0  0
    3.7633   -0.7037    0.0000 C   0  0  0  0  0  0  0  0  0  0  0  0
    5.3587    1.1884    0.0000 C   0  0  0  0  0  0  0  0  0  0  0  0
    3.7345    1.4789    0.0000 C   0  0  0  0  0  0  0  0  0  0  0  0
    2.0195   -0.2889    0.0000 C   0  0  0  0  0  0  0  0  0  0  0  0
    2.9224    1.6241    0.0000 C   0  0  0  0  0  0  0  0  0  0  0  0
    1.3367    0.1741    0.0000 C   0  0  0  0  0  0  0  0  0  0  0  0
    5.9193   -0.3634    0.0000 C   0  0  0  0  0  0  0  0  0  0  0  0
    0.7538    1.1118    0.0000 C   0  0  0  0  0  0  0  0  0  0  0  0
    5.1072   -0.2182    0.0000 C   0  0  0  0  0  0  0  0  0  0  0  0
    6.4511    0.2673    0.0000 C   0  0  0  0  0  0  0  0  0  0  0  0
    4.8269    0.5577    0.0000 C   0  0  1  0  0  0  0  0  0  0  0  0
    4.0148    0.7029    0.0000 C   0  0  2  0  0  0  0  0  0  0  0  0
    3.4830    0.0722    0.0000 C   0  0  2  0  0  0  0  0  0  0  0  0
    2.6708    0.2174    0.0000 C   0  0  1  0  0  0  0  0  0  0  0  0
    2.3905    0.9934    0.0000 C   0  0  2  0  0  0  0  0  0  0  0  0
    1.5660    0.9666    0.0000 C   0  0  2  0  0  0  0  0  0  0  0  0
    0.2220    0.4811    0.0000 O   0  0  0  0  0  0  0  0  0  0  0  0
    7.2632    0.1221    0.0000 O   0  0  0  0  0  0  0  0  0  0  0  0
    1.6255    1.7894    0.0000 O   0  0  0  0  0  0  0  0  0  0  0  0
    4.5466    1.3336    0.0000 H   0  0  0  0  0  0  0  0  0  0  0  0
    3.2027    0.8481    0.0000 H   0  0  0  0  0  0  0  0  0  0  0  0
    2.9511   -0.5585    0.0000 H   0  0  0  0  0  0  0  0  0  0  0  0
    1.8783    0.4467    0.0000 H   0  0  0  0  0  0  0  0  0  0  0  0
  5  3  1  0  0  0  0
  6  4  1  0  0  0  0
  9  7  1  0  0  0  0
 10  8  1  0  0  0  0
 12  1  1  0  0  0  0
 13  3  1  0  0  0  0
 13 11  2  0  0  0  0
 14  4  1  0  0  0  0
 14 11  1  0  0  0  0
 15  6  1  0  0  0  0
 15 13  1  0  0  0  0
 16  7  1  0  0  0  0
 16 15  1  0  0  0  0
 17  5  1  0  0  0  0
 17 16  1  0  0  0  0
 18  8  1  0  0  0  0
 18 17  1  0  0  0  0
 19  2  1  6  0  0  0
 19  9  1  0  0  0  0
 19 18  1  0  0  0  0
 20 10  1  0  0  0  0
 20 12  1  6  0  0  0
 20 19  1  0  0  0  0
 21 12  2  0  0  0  0
 22 14  2  0  0  0  0
 20 23  1  1  0  0  0
 15 24  1  6  0  0  0
 16 25  1  1  0  0  0
 17 26  1  6  0  0  0
 18 27  1  1  0  0  0
M  END
> <DATABASE_ID>
DB13230

> <DATABASE_NAME>
drugbank

> <SMILES>
[H][C@@]12CC[C@](O)(C(C)=O)[C@@]1(C)CC[C@]1([H])[C@@]3([H])CCC(=O)C=C3CC[C@@]21[H]

> <INCHI_IDENTIFIER>
InChI=1S/C20H28O3/c1-12(21)20(23)10-8-18-17-5-3-13-11-14(22)4-6-15(13)16(17)7-9-19(18,20)2/h11,15-18,23H,3-10H2,1-2H3/t15-,16+,17+,18-,19-,20-/m0/s1

> <INCHI_KEY>
GTFUITFQDGVJSK-XGXHKTLJSA-N

> <FORMULA>
C20H28O3

> <MOLECULAR_WEIGHT>
316.441

> <EXACT_MASS>
316.203844762

> <JCHEM_ACCEPTOR_COUNT>
3

> <JCHEM_ATOM_COUNT>
51

> <JCHEM_AVERAGE_POLARIZABILITY>
36.33567098428589

> <JCHEM_BIOAVAILABILITY>
1

> <JCHEM_DONOR_COUNT>
1

> <JCHEM_FORMAL_CHARGE>
0

> <JCHEM_GHOSE_FILTER>
1

> <JCHEM_IUPAC>
(1S,2R,10R,11S,14R,15S)-14-acetyl-14-hydroxy-15-methyltetracyclo[8.7.0.0^{2,7}.0^{11,15}]heptadec-6-en-5-one

> <ALOGPS_LOGP>
2.77

> <JCHEM_LOGP>
3.101132157666667

> <ALOGPS_LOGS>
-4.17

> <JCHEM_MDDR_LIKE_RULE>
0

> <JCHEM_NUMBER_OF_RINGS>
4

> <JCHEM_PHYSIOLOGICAL_CHARGE>
0

> <JCHEM_PKA>
17.60395002524979

> <JCHEM_PKA_STRONGEST_ACIDIC>
12.699646912940363

> <JCHEM_PKA_STRONGEST_BASIC>
-3.804965105725157

> <JCHEM_POLAR_SURFACE_AREA>
54.370000000000005

> <JCHEM_REFRACTIVITY>
89.63019999999996

> <JCHEM_ROTATABLE_BOND_COUNT>
1

> <JCHEM_RULE_OF_FIVE>
1

> <ALOGPS_SOLUBILITY>
2.13e-02 g/l

> <JCHEM_TRADITIONAL_IUPAC>
(1S,2R,10R,11S,14R,15S)-14-acetyl-14-hydroxy-15-methyltetracyclo[8.7.0.0^{2,7}.0^{11,15}]heptadec-6-en-5-one

> <JCHEM_VEBER_RULE>
0

> <DRUGBANK_ID>
DB13230

> <DRUG_GROUPS>
experimental

> <GENERIC_NAME>
Gestonorone

$$$$
