
  Mrv1909 12031922362D          

 60 60  0  0  0  0            999 V2000
    0.3547    0.0679    0.0000 O   0  0  0  0  0  0  0  0  0  0  0  0
   -0.3596   -0.3445    0.0000 C   0  0  2  0  0  0  0  0  0  0  0  0
   -0.3596   -1.1695    0.0000 C   0  0  1  0  0  0  0  0  0  0  0  0
   -1.0743    0.0679    0.0000 O   0  0  0  0  0  0  0  0  0  0  0  0
   -1.0743   -1.5820    0.0000 C   0  0  2  0  0  0  0  0  0  0  0  0
   -1.7888   -0.3445    0.0000 C   0  0  1  0  0  0  0  0  0  0  0  0
   -1.7888   -1.1695    0.0000 C   0  0  2  0  0  0  0  0  0  0  0  0
    0.3547   -1.5820    0.0000 O   0  0  0  0  0  0  0  0  0  0  0  0
   -1.0743   -2.4069    0.0000 O   0  0  0  0  0  0  0  0  0  0  0  0
   -2.5032   -1.5820    0.0000 O   0  0  0  0  0  0  0  0  0  0  0  0
   -2.5032    0.0679    0.0000 C   0  0  0  0  0  0  0  0  0  0  0  0
   -3.2177   -0.3445    0.0000 O   0  0  0  0  0  0  0  0  0  0  0  0
    8.2381    1.1413    0.0000 C   0  0  0  0  0  0  0  0  0  0  0  0
    8.9440    0.7140    0.0000 C   0  0  0  0  0  0  0  0  0  0  0  0
    6.0865    0.7733    0.0000 C   0  0  0  0  0  0  0  0  0  0  0  0
    3.9178   -0.4190    0.0000 C   0  0  0  0  0  0  0  0  0  0  0  0
    4.6408   -0.0215    0.0000 C   0  0  0  0  0  0  0  0  0  0  0  0
    5.3465   -0.4487    0.0000 C   0  0  0  0  0  0  0  0  0  0  0  0
    6.0693   -0.0513    0.0000 C   0  0  0  0  0  0  0  0  0  0  0  0
    6.7751   -0.4786    0.0000 C   0  0  0  0  0  0  0  0  0  0  0  0
    7.4981   -0.0810    0.0000 C   0  0  0  0  0  0  0  0  0  0  0  0
    8.2038   -0.5084    0.0000 C   0  0  0  0  0  0  0  0  0  0  0  0
    8.9267   -0.1109    0.0000 C   0  0  0  0  0  0  0  0  0  0  0  0
    7.5153    0.7435    0.0000 C   0  0  0  0  0  0  0  0  0  0  0  0
    6.8095    1.1709    0.0000 C   0  0  0  0  0  0  0  0  0  0  0  0
    3.2119    0.0084    0.0000 C   0  0  2  0  0  0  0  0  0  0  0  0
    2.4891   -0.3893    0.0000 C   0  0  2  0  0  0  0  0  0  0  0  0
    1.7833    0.0380    0.0000 C   0  0  2  0  0  0  0  0  0  0  0  0
    1.0604   -0.3594    0.0000 C   0  0  0  0  0  0  0  0  0  0  0  0
    5.3808    1.2003    0.0000 C   0  0  0  0  0  0  0  0  0  0  0  0
    2.4718   -1.2139    0.0000 O   0  0  0  0  0  0  0  0  0  0  0  0
    1.8005    0.8628    0.0000 N   0  0  0  0  0  0  0  0  0  0  0  0
    1.0760    1.2576    0.0000 C   0  0  0  0  0  0  0  0  0  0  0  0
    0.3720    0.8278    0.0000 C   0  0  0  0  0  0  0  0  0  0  0  0
   -7.5155    1.8712    0.0000 C   0  0  0  0  0  0  0  0  0  0  0  0
   -6.8114    2.3012    0.0000 C   0  0  0  0  0  0  0  0  0  0  0  0
   -6.0869    1.9063    0.0000 C   0  0  0  0  0  0  0  0  0  0  0  0
   -5.3828    2.3365    0.0000 C   0  0  0  0  0  0  0  0  0  0  0  0
   -4.6585    1.9416    0.0000 C   0  0  0  0  0  0  0  0  0  0  0  0
   -3.9544    2.3716    0.0000 C   0  0  0  0  0  0  0  0  0  0  0  0
   -3.2299    1.9769    0.0000 C   0  0  0  0  0  0  0  0  0  0  0  0
   -2.5256    2.4069    0.0000 C   0  0  0  0  0  0  0  0  0  0  0  0
   -1.8013    2.0120    0.0000 C   0  0  0  0  0  0  0  0  0  0  0  0
   -7.4951    1.0464    0.0000 C   0  0  0  0  0  0  0  0  0  0  0  0
   -6.7707    0.6517    0.0000 C   0  0  0  0  0  0  0  0  0  0  0  0
   -6.0665    1.0817    0.0000 C   0  0  0  0  0  0  0  0  0  0  0  0
   -5.3420    0.6869    0.0000 C   0  0  0  0  0  0  0  0  0  0  0  0
   -4.6379    1.1168    0.0000 C   0  0  0  0  0  0  0  0  0  0  0  0
   -3.9135    0.7220    0.0000 C   0  0  0  0  0  0  0  0  0  0  0  0
   -3.2093    1.1521    0.0000 C   0  0  0  0  0  0  0  0  0  0  0  0
   -2.4849    0.7573    0.0000 C   0  0  0  0  0  0  0  0  0  0  0  0
   -1.7808    1.1872    0.0000 C   0  0  0  0  0  0  0  0  0  0  0  0
   -1.0564    0.7925    0.0000 C   0  0  0  0  0  0  0  0  0  0  0  0
   -0.3524    1.2225    0.0000 C   0  0  0  0  0  0  0  0  0  0  0  0
    1.0557    2.0826    0.0000 O   0  0  0  0  0  0  0  0  0  0  0  0
    3.2292    0.8332    0.0000 O   0  0  0  0  0  0  0  0  0  0  0  0
   -8.1991    0.6164    0.0000 C   0  0  0  0  0  0  0  0  0  0  0  0
   -8.9236    1.0113    0.0000 C   0  0  0  0  0  0  0  0  0  0  0  0
   -8.9440    1.8361    0.0000 C   0  0  0  0  0  0  0  0  0  0  0  0
   -8.2398    2.2660    0.0000 C   0  0  0  0  0  0  0  0  0  0  0  0
  2  3  1  0  0  0  0
  2  4  1  0  0  0  0
  3  5  1  0  0  0  0
  4  6  1  0  0  0  0
  5  7  1  0  0  0  0
  6  7  1  0  0  0  0
  2  1  1  6  0  0  0
  3  8  1  6  0  0  0
  5  9  1  1  0  0  0
  7 10  1  1  0  0  0
  6 11  1  1  0  0  0
 12 11  1  0  0  0  0
 14 13  1  0  0  0  0
 15 30  1  0  0  0  0
 16 17  1  0  0  0  0
 17 18  1  0  0  0  0
 18 19  1  0  0  0  0
 19 20  1  0  0  0  0
 20 21  1  0  0  0  0
 21 22  1  0  0  0  0
 22 23  1  0  0  0  0
 23 14  1  0  0  0  0
 13 24  1  0  0  0  0
 25 15  1  0  0  0  0
 24 25  1  0  0  0  0
 26 16  1  0  0  0  0
 27 26  1  0  0  0  0
 27 31  1  1  0  0  0
 27 28  1  0  0  0  0
 28 29  1  0  0  0  0
 29  1  1  0  0  0  0
 32 33  1  0  0  0  0
 33 34  1  0  0  0  0
 54 34  1  0  0  0  0
 35 36  1  0  0  0  0
 36 37  1  0  0  0  0
 37 38  1  0  0  0  0
 38 39  1  0  0  0  0
 39 40  1  0  0  0  0
 40 41  1  0  0  0  0
 41 42  1  0  0  0  0
 42 43  1  0  0  0  0
 44 45  1  0  0  0  0
 45 46  1  0  0  0  0
 46 47  1  0  0  0  0
 47 48  1  0  0  0  0
 48 49  1  0  0  0  0
 49 50  1  0  0  0  0
 50 51  1  0  0  0  0
 51 52  1  0  0  0  0
 52 53  1  0  0  0  0
 53 54  1  0  0  0  0
 33 55  2  0  0  0  0
 26 56  1  6  0  0  0
 60 35  1  0  0  0  0
 57 44  1  0  0  0  0
 57 58  1  0  0  0  0
 58 59  1  0  0  0  0
 59 60  1  0  0  0  0
 28 32  1  6  0  0  0
M  END
> <DATABASE_ID>
DB12232

> <DATABASE_NAME>
drugbank

> <SMILES>
CCCCCCCCCCCCCCCCCCCCCCCCCC(=O)N[C@@H](CO[C@H]1O[C@H](CO)[C@H](O)[C@H](O)[C@H]1O)[C@H](O)[C@H](O)CCCCCCCCCCCCCC

> <INCHI_IDENTIFIER>
InChI=1S/C50H99NO9/c1-3-5-7-9-11-13-15-17-18-19-20-21-22-23-24-25-26-27-29-31-33-35-37-39-45(54)51-42(41-59-50-49(58)48(57)47(56)44(40-52)60-50)46(55)43(53)38-36-34-32-30-28-16-14-12-10-8-6-4-2/h42-44,46-50,52-53,55-58H,3-41H2,1-2H3,(H,51,54)/t42-,43+,44+,46-,47-,48-,49+,50-/m0/s1

> <INCHI_KEY>
VQFKFAKEUMHBLV-BYSUZVQFSA-N

> <FORMULA>
C50H99NO9

> <MOLECULAR_WEIGHT>
858.3224

> <EXACT_MASS>
857.731983771

> <JCHEM_ACCEPTOR_COUNT>
9

> <JCHEM_ATOM_COUNT>
159

> <JCHEM_AVERAGE_POLARIZABILITY>
110.19194957174871

> <JCHEM_BIOAVAILABILITY>
0

> <JCHEM_DONOR_COUNT>
7

> <JCHEM_FORMAL_CHARGE>
0

> <JCHEM_GHOSE_FILTER>
0

> <JCHEM_IUPAC>
N-[(2S,3S,4R)-3,4-dihydroxy-1-{[(2S,3R,4S,5R,6R)-3,4,5-trihydroxy-6-(hydroxymethyl)oxan-2-yl]oxy}octadecan-2-yl]hexacosanamide

> <ALOGPS_LOGP>
8.69

> <JCHEM_LOGP>
12.671316737666668

> <ALOGPS_LOGS>
-6.38

> <JCHEM_MDDR_LIKE_RULE>
0

> <JCHEM_NUMBER_OF_RINGS>
1

> <JCHEM_PHYSIOLOGICAL_CHARGE>
0

> <JCHEM_PKA>
12.919754747560857

> <JCHEM_PKA_STRONGEST_ACIDIC>
12.16230394451481

> <JCHEM_PKA_STRONGEST_BASIC>
-1.0451961297953756

> <JCHEM_POLAR_SURFACE_AREA>
168.94

> <JCHEM_REFRACTIVITY>
244.59789999999998

> <JCHEM_ROTATABLE_BOND_COUNT>
44

> <JCHEM_RULE_OF_FIVE>
0

> <ALOGPS_SOLUBILITY>
3.58e-04 g/l

> <JCHEM_TRADITIONAL_IUPAC>
(2S)-2-amino-4-[(2-ethanimidamidoethyl)sulfanyl]butanoic acid

> <JCHEM_VEBER_RULE>
0

> <DRUGBANK_ID>
DB12232

> <DRUG_GROUPS>
investigational

> <GENERIC_NAME>
KRN-7000

> <SYNONYMS>
1-O-(Î±-D-galactopyranosyl)-N-hexacosanoylphytosphingosine

$$$$
