
  Mrv1909 05222103492D          

 29 29  0  0  1  0            999 V2000
    0.0411   -1.9866    0.0000 C   0  0  0  0  0  0  0  0  0  0  0  0
   -0.6600   -2.4215    0.0000 C   0  0  0  0  0  0  0  0  0  0  0  0
   -1.5178   -2.0027    0.0000 C   0  0  0  0  0  0  0  0  0  0  0  0
   -0.7763   -0.8362    0.0000 N   0  0  0  0  0  0  0  0  0  0  0  0
    0.6430   -0.6721    0.0000 C   0  0  0  0  0  0  0  0  0  0  0  0
    0.5485    0.1474    0.0000 N   0  0  0  0  0  0  0  0  0  0  0  0
    1.0941    0.7662    0.0000 C   0  0  2  0  0  0  0  0  0  0  0  0
    0.8310    1.5481    0.0000 C   0  0  2  0  0  0  0  0  0  0  0  0
    1.3767    2.1669    0.0000 C   0  0  0  0  0  0  0  0  0  0  0  0
    2.1854    2.0038    0.0000 C   0  0  0  0  0  0  0  0  0  0  0  0
    2.4485    1.2219    0.0000 C   0  0  0  0  0  0  0  0  0  0  0  0
    1.9028    0.6031    0.0000 C   0  0  0  0  0  0  0  0  0  0  0  0
    0.0221    1.7113    0.0000 N   0  0  0  0  0  0  0  0  0  0  0  0
   -0.3976    2.4215    0.0000 C   0  0  0  0  0  0  0  0  0  0  0  0
   -1.2225    2.4129    0.0000 C   0  0  0  0  0  0  0  0  0  0  0  0
   -1.6274    1.6942    0.0000 N   0  0  0  0  0  0  0  0  0  0  0  0
   -2.4328    1.5143    0.0000 C   0  0  2  0  0  0  0  0  0  0  0  0
   -2.6796    0.7271    0.0000 C   0  0  2  0  0  0  0  0  0  0  0  0
   -3.4846    0.5472    0.0000 C   0  0  0  0  0  0  0  0  0  0  0  0
   -4.0430    1.1545    0.0000 C   0  0  0  0  0  0  0  0  0  0  0  0
   -3.7963    1.9417    0.0000 C   0  0  0  0  0  0  0  0  0  0  0  0
   -2.9910    2.1215    0.0000 C   0  0  0  0  0  0  0  0  0  0  0  0
   -2.1210    0.1198    0.0000 N   0  0  0  0  0  0  0  0  0  0  0  0
   -2.1988   -0.7015    0.0000 C   0  0  0  0  0  0  0  0  0  0  0  0
   -1.5265   -1.1794    0.0000 C   0  0  0  0  0  0  0  0  0  0  0  0
   -0.0191   -1.1637    0.0000 C   0  0  0  0  0  0  0  0  0  0  0  0
    4.0430   -0.4199    0.0000 Cl  0  5  0  0  0  0  0  0  0  0  0  0
   -0.9247    0.6450    0.0000 Mn  0  2  0  0  0  0  0  0  0  0  0  0
    4.0430   -0.4199    0.0000 Cl  0  5  0  0  0  0  0  0  0  0  0  0
  2  1  2  0  0  0  0
  3  2  1  0  0  0  0
  5  6  1  0  0  0  0
  7  6  1  6  0  0  0
  9  8  1  0  0  0  0
 10  9  1  0  0  0  0
 11 10  1  0  0  0  0
 12 11  1  0  0  0  0
  8  7  1  0  0  0  0
  7 12  1  0  0  0  0
  8 13  1  1  0  0  0
 13 14  1  0  0  0  0
 14 15  1  0  0  0  0
 15 16  1  0  0  0  0
 17 16  1  6  0  0  0
 19 18  1  0  0  0  0
 20 19  1  0  0  0  0
 21 20  1  0  0  0  0
 22 21  1  0  0  0  0
 18 17  1  0  0  0  0
 17 22  1  0  0  0  0
 18 23  1  1  0  0  0
 23 24  1  0  0  0  0
 24 25  1  0  0  0  0
  3 25  2  0  0  0  0
  4 25  1  0  0  0  0
  5 26  1  0  0  0  0
  1 26  1  0  0  0  0
 26  4  2  0  0  0  0
M  CHG  3  27  -1  28   2  29  -1
M  STY  1   1 SRU
M  SAL   1  1  27
M  SDI   1  4    3.6305   -0.8324    3.6305   -0.0074
M  SDI   1  4    4.4555   -0.0074    4.4555   -0.8324
M  SMT   1 2
M  END
> <DATABASE_ID>
DB16354

> <DATABASE_NAME>
drugbank

> <SMILES>
[Cl-].[Cl-].[Mn++].C1CC[C@@H]2NCC3=CC=CC(CN[C@H]4CCCC[C@@H]4NCCN[C@H]2C1)=N3

> <INCHI_IDENTIFIER>
InChI=1S/C21H35N5.2ClH.Mn/c1-3-10-20-18(8-1)22-12-13-23-19-9-2-4-11-21(19)25-15-17-7-5-6-16(26-17)14-24-20;;;/h5-7,18-25H,1-4,8-15H2;2*1H;/q;;;+2/p-2/t18-,19-,20-,21-;;;/m0.../s1

> <INCHI_KEY>
WXEMWBBXVXHEPU-NDOCQCNASA-L

> <FORMULA>
C21H35Cl3MnN5

> <MOLECULAR_WEIGHT>
518.83

> <EXACT_MASS>
517.134397

> <JCHEM_ATOM_COUNT>
65

> <JCHEM_FORMAL_CHARGE>
0

> <JCHEM_GHOSE_FILTER>
0

> <ALOGPS_LOGP>
0.90

> <ALOGPS_LOGS>
-4.46

> <JCHEM_RULE_OF_FIVE>
0

> <ALOGPS_SOLUBILITY>
1.24e-02 g/l

> <JCHEM_TRADITIONAL_IUPAC>
aluminium(3+) sodium sorbo hydroxide carbonate

> <DRUGBANK_ID>
DB16354

> <DRUG_GROUPS>
investigational

> <GENERIC_NAME>
Avasopasem manganese

> <SYNONYMS>
Avasopasem manganese

> <SALTS>
Avasopasem manganese

$$$$
