
  Mrv1652310201623152D          

 41 45  0  0  1  0            999 V2000
   -0.3121    0.0446    0.0000 C   0  0  0  0  0  0  0  0  0  0  0  0
   -0.9252   -0.5075    0.0000 C   0  0  1  0  0  0  0  0  0  0  0  0
   -1.7098   -0.2525    0.0000 C   0  0  0  0  0  0  0  0  0  0  0  0
   -2.3229   -0.8046    0.0000 C   0  0  0  0  0  0  0  0  0  0  0  0
   -3.1075   -0.5496    0.0000 C   0  0  0  0  0  0  0  0  0  0  0  0
   -3.2791    0.2573    0.0000 C   0  0  0  0  0  0  0  0  0  0  0  0
   -2.6660    0.8094    0.0000 C   0  0  0  0  0  0  0  0  0  0  0  0
   -1.8814    0.5544    0.0000 C   0  0  0  0  0  0  0  0  0  0  0  0
   -4.0637    0.5123    0.0000 C   0  0  0  0  0  0  0  0  0  0  0  0
   -4.6768   -0.0397    0.0000 O   0  0  0  0  0  0  0  0  0  0  0  0
   -4.2352    1.3193    0.0000 N   0  0  0  0  0  0  0  0  0  0  0  0
   -5.0198    1.5742    0.0000 C   0  0  0  0  0  0  0  0  0  0  0  0
   -5.1914    2.3812    0.0000 C   0  0  0  0  0  0  0  0  0  0  0  0
   -5.9760    2.6361    0.0000 C   0  0  0  0  0  0  0  0  0  0  0  0
   -6.1475    3.4431    0.0000 O   0  0  0  0  0  0  0  0  0  0  0  0
   -6.5891    2.0841    0.0000 O   0  0  0  0  0  0  0  0  0  0  0  0
   -0.7537   -1.3144    0.0000 N   0  0  0  0  0  0  0  0  0  0  0  0
    0.0000   -1.6500    0.0000 C   0  0  0  0  0  0  0  0  0  0  0  0
   -0.0862   -2.4705    0.0000 C   0  0  0  0  0  0  0  0  0  0  0  0
   -0.8932   -2.6420    0.0000 C   0  0  0  0  0  0  0  0  0  0  0  0
   -1.3057   -1.9275    0.0000 N   0  0  0  0  0  0  0  0  0  0  0  0
   -1.2288   -3.3957    0.0000 C   0  0  0  0  0  0  0  0  0  0  0  0
   -0.7438   -4.0631    0.0000 C   0  0  0  0  0  0  0  0  0  0  0  0
   -1.0794   -4.8168    0.0000 C   0  0  0  0  0  0  0  0  0  0  0  0
   -1.8999   -4.9030    0.0000 C   0  0  0  0  0  0  0  0  0  0  0  0
   -2.3848   -4.2356    0.0000 C   0  0  0  0  0  0  0  0  0  0  0  0
   -2.0492   -3.4819    0.0000 C   0  0  0  0  0  0  0  0  0  0  0  0
   -3.2053   -4.3218    0.0000 Cl  0  0  0  0  0  0  0  0  0  0  0  0
   -0.5945   -5.4842    0.0000 Cl  0  0  0  0  0  0  0  0  0  0  0  0
    0.7145   -1.2375    0.0000 C   0  0  0  0  0  0  0  0  0  0  0  0
    0.7145   -0.4125    0.0000 C   0  0  0  0  0  0  0  0  0  0  0  0
    1.4289    0.0000    0.0000 C   0  0  0  0  0  0  0  0  0  0  0  0
    2.1434   -0.4125    0.0000 C   0  0  0  0  0  0  0  0  0  0  0  0
    2.8579    0.0000    0.0000 C   0  0  0  0  0  0  0  0  0  0  0  0
    3.5724   -0.4125    0.0000 C   0  0  0  0  0  0  0  0  0  0  0  0
    3.5724   -1.2375    0.0000 C   0  0  0  0  0  0  0  0  0  0  0  0
    2.8579   -1.6500    0.0000 C   0  0  0  0  0  0  0  0  0  0  0  0
    2.1434   -1.2375    0.0000 C   0  0  0  0  0  0  0  0  0  0  0  0
    1.4289   -1.6500    0.0000 C   0  0  0  0  0  0  0  0  0  0  0  0
    4.2868   -0.0000    0.0000 O   0  0  0  0  0  0  0  0  0  0  0  0
    5.0013   -0.4125    0.0000 C   0  0  0  0  0  0  0  0  0  0  0  0
  2  1  1  6  0  0  0
  2  3  1  0  0  0  0
  3  4  2  0  0  0  0
  4  5  1  0  0  0  0
  5  6  2  0  0  0  0
  6  7  1  0  0  0  0
  7  8  2  0  0  0  0
  3  8  1  0  0  0  0
  6  9  1  0  0  0  0
  9 10  2  0  0  0  0
  9 11  1  0  0  0  0
 11 12  1  0  0  0  0
 12 13  1  0  0  0  0
 13 14  1  0  0  0  0
 14 15  2  0  0  0  0
 14 16  1  0  0  0  0
  2 17  1  0  0  0  0
 17 18  1  0  0  0  0
 18 19  2  0  0  0  0
 19 20  1  0  0  0  0
 20 21  2  0  0  0  0
 17 21  1  0  0  0  0
 20 22  1  0  0  0  0
 22 23  2  0  0  0  0
 23 24  1  0  0  0  0
 24 25  2  0  0  0  0
 25 26  1  0  0  0  0
 26 27  2  0  0  0  0
 22 27  1  0  0  0  0
 26 28  1  0  0  0  0
 24 29  1  0  0  0  0
 18 30  1  0  0  0  0
 30 31  2  0  0  0  0
 31 32  1  0  0  0  0
 32 33  2  0  0  0  0
 33 34  1  0  0  0  0
 34 35  2  0  0  0  0
 35 36  1  0  0  0  0
 36 37  2  0  0  0  0
 37 38  1  0  0  0  0
 33 38  1  0  0  0  0
 38 39  2  0  0  0  0
 30 39  1  0  0  0  0
 35 40  1  0  0  0  0
 40 41  1  0  0  0  0
M  END
> <DATABASE_ID>
DB12044

> <DATABASE_NAME>
drugbank

> <SMILES>
COC1=CC2=CC=C(C=C2C=C1)C1=CC(=NN1[C@@H](C)C1=CC=C(C=C1)C(=O)NCCC(O)=O)C1=CC(Cl)=CC(Cl)=C1

> <INCHI_IDENTIFIER>
InChI=1S/C32H27Cl2N3O4/c1-19(20-3-5-21(6-4-20)32(40)35-12-11-31(38)39)37-30(18-29(36-37)25-14-26(33)17-27(34)15-25)24-8-7-23-16-28(41-2)10-9-22(23)13-24/h3-10,13-19H,11-12H2,1-2H3,(H,35,40)(H,38,39)/t19-/m0/s1

> <INCHI_KEY>
DNTVJEMGHBIUMW-IBGZPJMESA-N

> <FORMULA>
C32H27Cl2N3O4

> <MOLECULAR_WEIGHT>
588.49

> <EXACT_MASS>
587.1378618

> <JCHEM_ACCEPTOR_COUNT>
5

> <JCHEM_ATOM_COUNT>
68

> <JCHEM_AVERAGE_POLARIZABILITY>
62.15018180835358

> <JCHEM_BIOAVAILABILITY>
0

> <JCHEM_DONOR_COUNT>
2

> <JCHEM_FORMAL_CHARGE>
0

> <JCHEM_GHOSE_FILTER>
0

> <JCHEM_IUPAC>
3-({4-[(1S)-1-[3-(3,5-dichlorophenyl)-5-(6-methoxynaphthalen-2-yl)-1H-pyrazol-1-yl]ethyl]phenyl}formamido)propanoic acid

> <ALOGPS_LOGP>
7.23

> <JCHEM_LOGP>
6.854867231667377

> <ALOGPS_LOGS>
-6.46

> <JCHEM_MDDR_LIKE_RULE>
1

> <JCHEM_NUMBER_OF_RINGS>
5

> <JCHEM_PHYSIOLOGICAL_CHARGE>
-1

> <JCHEM_PKA>
15.038567355563476

> <JCHEM_PKA_STRONGEST_ACIDIC>
3.9369269069000588

> <JCHEM_PKA_STRONGEST_BASIC>
2.2199808096691247

> <JCHEM_POLAR_SURFACE_AREA>
93.45000000000002

> <JCHEM_REFRACTIVITY>
171.05279999999993

> <JCHEM_ROTATABLE_BOND_COUNT>
9

> <JCHEM_RULE_OF_FIVE>
0

> <ALOGPS_SOLUBILITY>
2.03e-04 g/l

> <JCHEM_TRADITIONAL_IUPAC>
3-({4-[(1S)-1-[3-(3,5-dichlorophenyl)-5-(6-methoxynaphthalen-2-yl)pyrazol-1-yl]ethyl]phenyl}formamido)propanoic acid

> <JCHEM_VEBER_RULE>
0

> <DRUGBANK_ID>
DB12044

> <DRUG_GROUPS>
investigational

> <GENERIC_NAME>
MK-0893

$$$$
