
  Mrv1652306231722492D          

  6  4  0  0  0  0            999 V2000
    0.8250    0.0000    0.0000 O   0  5  0  0  0  0  0  0  0  0  0  0
    1.6500   -0.0000    0.0000 Mn  0  0  0  0  0  0  0  0  0  0  0  0
    2.4750   -0.0000    0.0000 O   0  0  0  0  0  0  0  0  0  0  0  0
    1.6500    0.8250    0.0000 O   0  0  0  0  0  0  0  0  0  0  0  0
    1.6500   -0.8250    0.0000 O   0  0  0  0  0  0  0  0  0  0  0  0
    0.0000    0.0000    0.0000 K   0  3  0  0  0  0  0  0  0  0  0  0
  1  2  1  0  0  0  0
  2  3  2  0  0  0  0
  2  4  2  0  0  0  0
  2  5  2  0  0  0  0
M  CHG  2   1  -1   6   1
M  END
> <DATABASE_ID>
DB13831

> <DATABASE_NAME>
drugbank

> <SMILES>
[K+].[O-][Mn](=O)(=O)=O

> <INCHI_IDENTIFIER>
InChI=1S/K.Mn.4O/q+1;;;;;-1

> <INCHI_KEY>
VZJVWSHVAAUDKD-UHFFFAOYSA-N

> <FORMULA>
KMnO4

> <MOLECULAR_WEIGHT>
158.032

> <EXACT_MASS>
157.881409

> <JCHEM_ACCEPTOR_COUNT>
4

> <JCHEM_ATOM_COUNT>
6

> <JCHEM_AVERAGE_POLARIZABILITY>
6.0758176594048425

> <JCHEM_BIOAVAILABILITY>
1

> <JCHEM_DONOR_COUNT>
0

> <JCHEM_FORMAL_CHARGE>
0

> <JCHEM_GHOSE_FILTER>
0

> <JCHEM_IUPAC>
potassium manganesoylolate

> <JCHEM_LOGP>
-2.3404

> <JCHEM_MDDR_LIKE_RULE>
0

> <JCHEM_NUMBER_OF_RINGS>
0

> <JCHEM_PHYSIOLOGICAL_CHARGE>
-1

> <JCHEM_PKA_STRONGEST_ACIDIC>
-7.000000000000001

> <JCHEM_POLAR_SURFACE_AREA>
74.27

> <JCHEM_REFRACTIVITY>
5.7716

> <JCHEM_ROTATABLE_BOND_COUNT>
0

> <JCHEM_RULE_OF_FIVE>
1

> <JCHEM_TRADITIONAL_IUPAC>
potassium permanganate

> <JCHEM_VEBER_RULE>
0

> <DRUGBANK_ID>
DB13831

> <DRUG_GROUPS>
experimental; investigational

> <GENERIC_NAME>
Potassium permanganate

> <SYNONYMS>
Potassium permanganate

> <PRODUCTS>
Antiseptic Solution

$$$$
