
  Mrv1909 05092114352D          

138151  0  0  1  0            999 V2000
   -3.5065    1.7375    0.0000 C   0  0  0  0  0  0  0  0  0  0  0  0
   -4.2231    2.1500    0.0000 Cl  0  0  0  0  0  0  0  0  0  0  0  0
   -4.9273   -0.7375    0.0000 O   0  0  0  0  0  0  0  0  0  0  0  0
   -4.9232   -1.5625    0.0000 C   0  0  0  0  0  0  0  0  0  0  0  0
   -3.5023    0.9163    0.0000 C   0  0  0  0  0  0  0  0  0  0  0  0
   -2.7164    0.6653    0.0000 N   0  0  0  0  0  0  0  0  0  0  0  0
   -2.2348    1.3351    0.0000 C   0  0  0  0  0  0  0  0  0  0  0  0
   -2.7231    2.0001    0.0000 S   0  0  0  0  0  0  0  0  0  0  0  0
   -4.9357    0.9125    0.0000 C   0  0  0  0  0  0  0  0  0  0  0  0
   -4.2191    0.5042    0.0000 C   0  0  0  0  0  0  0  0  0  0  0  0
   -4.9315    1.7375    0.0000 O   0  0  0  0  0  0  0  0  0  0  0  0
   -7.9144    2.1583    0.0000 C   0  0  0  0  0  0  0  0  0  0  0  0
   -8.6264    1.7499    0.0000 C   0  0  0  0  0  0  0  0  0  0  0  0
   -8.6264    0.9249    0.0000 C   0  0  0  0  0  0  0  0  0  0  0  0
   -7.9144    0.5082    0.0000 S   0  0  0  0  0  0  0  0  0  0  0  0
   -7.2024    1.7499    0.0000 N   0  0  0  0  0  0  0  0  0  0  0  0
   -7.2024    0.9203    0.0000 C   0  0  1  0  0  0  0  0  0  0  0  0
   -6.3729    0.9203    0.0000 C   0  0  1  0  0  0  0  0  0  0  0  0
   -6.3727    1.7499    0.0000 C   0  0  0  0  0  0  0  0  0  0  0  0
   -9.3357    2.1625    0.0000 C   0  0  0  0  0  0  0  0  0  0  0  0
   -7.9066    2.9833    0.0000 C   0  0  0  0  0  0  0  0  0  0  0  0
   -7.1899    3.3917    0.0000 O   0  0  0  0  0  0  0  0  0  0  0  0
   -8.6191    3.3958    0.0000 O   0  5  0  0  0  0  0  0  0  0  0  0
   -5.7816    2.3292    0.0000 O   0  0  0  0  0  0  0  0  0  0  0  0
   -7.1981    0.0916    0.0000 H   0  0  0  0  0  0  0  0  0  0  0  0
   -5.6523    0.5042    0.0000 N   0  0  0  0  0  0  0  0  0  0  0  0
   -1.4065    1.3292    0.0000 N   0  0  0  0  0  0  0  0  0  0  0  0
   -4.2148   -0.3208    0.0000 N   0  0  0  0  0  0  0  0  0  0  0  0
  -10.0482    1.7458    0.0000 N   0  3  0  0  0  0  0  0  0  0  0  0
  -11.4727    0.9153    0.0000 C   0  0  0  0  0  0  0  0  0  0  0  0
  -10.7506    0.5066    0.0000 C   0  0  0  0  0  0  0  0  0  0  0  0
  -10.0417    0.9250    0.0000 C   0  0  0  0  0  0  0  0  0  0  0  0
  -11.4769    1.7415    0.0000 C   0  0  0  0  0  0  0  0  0  0  0  0
  -10.7668    2.1606    0.0000 C   0  0  0  0  0  0  0  0  0  0  0  0
   -4.2065   -1.9666    0.0000 C   0  0  0  0  0  0  0  0  0  0  0  0
   -4.1898   -3.7375    0.0000 C   0  0  0  0  0  0  0  0  0  0  0  0
   -3.4731   -4.1417    0.0000 N   0  0  0  0  0  0  0  0  0  0  0  0
   -1.3315   -5.3792    0.0000 C   0  0  0  0  0  0  0  0  0  0  0  0
   -2.0397   -4.9584    0.0000 C   0  0  0  0  0  0  0  0  0  0  0  0
   -2.0440   -4.1293    0.0000 C   0  0  2  0  0  0  0  0  0  0  0  0
   -1.3315   -6.2001    0.0000 C   0  0  0  0  0  0  0  0  0  0  0  0
   -2.0440   -6.6084    0.0000 C   0  0  0  0  0  0  0  0  0  0  0  0
   -2.7565   -5.3668    0.0000 C   0  0  0  0  0  0  0  0  0  0  0  0
   -2.7607   -6.1917    0.0000 C   0  0  0  0  0  0  0  0  0  0  0  0
   -0.6189   -6.6126    0.0000 O   0  0  0  0  0  0  0  0  0  0  0  0
   -3.4773   -6.6001    0.0000 O   0  0  0  0  0  0  0  0  0  0  0  0
   -1.3398   -3.7126    0.0000 N   0  0  0  0  0  0  0  0  0  0  0  0
   -1.3481   -2.1208    0.0000 C   0  0  0  0  0  0  0  0  0  0  0  0
   -0.6398   -1.7083    0.0000 C   0  0  1  0  0  0  0  0  0  0  0  0
   -2.0598   -1.7140    0.0000 O   0  0  0  0  0  0  0  0  0  0  0  0
    7.9144   -1.6833    0.0000 C   0  0  2  0  0  0  0  0  0  0  0  0
    0.0767   -2.1208    0.0000 N   0  0  0  0  0  0  0  0  0  0  0  0
    3.6602    3.6209    0.0000 C   0  0  1  0  0  0  0  0  0  0  0  0
    4.0684    2.9000    0.0000 C   0  0  1  0  0  0  0  0  0  0  0  0
    2.2143   -1.7000    0.0000 N   0  0  0  0  0  0  0  0  0  0  0  0
    4.3518   -2.1083    0.0000 N   0  0  0  0  0  0  0  0  0  0  0  0
    7.2019   -2.1000    0.0000 C   0  0  0  0  0  0  0  0  0  0  0  0
    0.7893   -1.7000    0.0000 C   0  0  0  0  0  0  0  0  0  0  0  0
    2.9268   -2.1125    0.0000 C   0  0  0  0  0  0  0  0  0  0  0  0
    3.6518    1.3625    0.0000 C   0  0  0  0  0  0  0  0  0  0  0  0
    4.0809    4.3375    0.0000 C   0  0  2  0  0  0  0  0  0  0  0  0
    6.4894   -1.6875    0.0000 N   0  0  0  0  0  0  0  0  0  0  0  0
    3.6393   -1.6957    0.0000 C   0  0  1  0  0  0  0  0  0  0  0  0
    8.6269   -2.0958    0.0000 N   0  0  0  0  0  0  0  0  0  0  0  0
    2.9394    0.9500    0.0000 C   0  0  0  0  0  0  0  0  0  0  0  0
    4.3602    0.9542    0.0000 C   0  0  0  0  0  0  0  0  0  0  0  0
    5.0644   -1.6875    0.0000 C   0  0  0  0  0  0  0  0  0  0  0  0
    1.5018   -2.1125    0.0000 C   0  0  1  0  0  0  0  0  0  0  0  0
    4.8934    2.8959    0.0000 O   0  0  0  0  0  0  0  0  0  0  0  0
    3.6476    2.1875    0.0000 O   0  0  0  0  0  0  0  0  0  0  0  0
    2.4101    5.7876    0.0000 C   0  0  1  0  0  0  0  0  0  0  0  0
    3.6476   -0.2833    0.0000 C   0  0  0  0  0  0  0  0  0  0  0  0
    4.9101    4.3251    0.0000 C   0  0  1  0  0  0  0  0  0  0  0  0
    2.2268    1.3625    0.0000 O   0  0  0  0  0  0  0  0  0  0  0  0
    5.0726    1.3749    0.0000 O   0  0  0  0  0  0  0  0  0  0  0  0
    5.7768   -2.1000    0.0000 C   0  0  2  0  0  0  0  0  0  0  0  0
    2.4143    4.3500    0.0000 C   0  0  1  0  0  0  0  0  0  0  0  0
    9.3395   -1.6750    0.0000 C   0  0  0  0  0  0  0  0  0  0  0  0
    5.3144    3.6042    0.0000 C   0  0  1  0  0  0  0  0  0  0  0  0
   -0.6274   -0.2875    0.0000 C   0  0  1  0  0  0  0  0  0  0  0  0
    7.9144   -0.2749    0.0000 C   0  0  1  0  0  0  0  0  0  0  0  0
    2.8268    5.0709    0.0000 C   0  0  0  0  0  0  0  0  0  0  0  0
    1.5809    4.3418    0.0000 O   0  0  0  0  0  0  0  0  0  0  0  0
    1.5018   -2.9375    0.0000 C   0  0  0  0  0  0  0  0  0  0  0  0
    1.5768    5.7835    0.0000 C   0  0  1  0  0  0  0  0  0  0  0  0
    5.7768   -3.2833    0.0000 C   0  0  0  0  0  0  0  0  0  0  0  0
    0.0893    0.1166    0.0000 C   0  0  0  0  0  0  0  0  0  0  0  0
    7.2060    0.1333    0.0000 C   0  0  0  0  0  0  0  0  0  0  0  0
    2.8309    3.6292    0.0000 O   0  0  0  0  0  0  0  0  0  0  0  0
    4.3644    0.1250    0.0000 C   0  0  0  0  0  0  0  0  0  0  0  0
    2.9394    0.1291    0.0000 C   0  0  0  0  0  0  0  0  0  0  0  0
    1.5183    0.9459    0.0000 C   0  0  0  0  0  0  0  0  0  0  0  0
    5.7852    0.9625    0.0000 C   0  0  0  0  0  0  0  0  0  0  0  0
    1.1643    5.0626    0.0000 C   0  0  2  0  0  0  0  0  0  0  0  0
    6.4934    1.3708    0.0000 C   0  0  0  0  0  0  0  0  0  0  0  0
    0.8018    1.3584    0.0000 C   0  0  0  0  0  0  0  0  0  0  0  0
    5.0601   -3.6875    0.0000 C   0  0  0  0  0  0  0  0  0  0  0  0
    7.2019    0.9625    0.0000 C   0  0  0  0  0  0  0  0  0  0  0  0
    0.0893    0.9416    0.0000 C   0  0  0  0  0  0  0  0  0  0  0  0
   10.0519   -2.0875    0.0000 C   0  0  1  0  0  0  0  0  0  0  0  0
    7.2019   -2.9250    0.0000 O   0  0  0  0  0  0  0  0  0  0  0  0
    2.9268   -2.9375    0.0000 O   0  0  0  0  0  0  0  0  0  0  0  0
    0.7893   -0.8750    0.0000 O   0  0  0  0  0  0  0  0  0  0  0  0
    5.0644   -0.8625    0.0000 O   0  0  0  0  0  0  0  0  0  0  0  0
    9.3395   -0.8499    0.0000 O   0  0  0  0  0  0  0  0  0  0  0  0
    0.8018   -0.2957    0.0000 C   0  0  0  0  0  0  0  0  0  0  0  0
    6.4894   -0.2749    0.0000 C   0  0  0  0  0  0  0  0  0  0  0  0
    1.5183    0.1166    0.0000 C   0  0  0  0  0  0  0  0  0  0  0  0
    5.7810    0.1375    0.0000 C   0  0  0  0  0  0  0  0  0  0  0  0
    5.0518   -4.5125    0.0000 O   0  0  0  0  0  0  0  0  0  0  0  0
   10.0519   -2.9125    0.0000 C   0  0  0  0  0  0  0  0  0  0  0  0
    2.4018    6.6126    0.0000 N   0  0  0  0  0  0  0  0  0  0  0  0
    3.6726    5.0542    0.0000 O   0  0  0  0  0  0  0  0  0  0  0  0
    5.3268    5.0375    0.0000 O   0  0  0  0  0  0  0  0  0  0  0  0
    4.3393   -3.2750    0.0000 N   0  0  0  0  0  0  0  0  0  0  0  0
   10.7645   -1.6750    0.0000 N   0  0  0  0  0  0  0  0  0  0  0  0
    1.1601    6.5001    0.0000 O   0  0  0  0  0  0  0  0  0  0  0  0
    0.7975    2.1875    0.0000 Cl  0  0  0  0  0  0  0  0  0  0  0  0
   -1.3482    0.1250    0.0000 O   0  0  0  0  0  0  0  0  0  0  0  0
    6.4894    2.2000    0.0000 Cl  0  0  0  0  0  0  0  0  0  0  0  0
    8.6269    0.1375    0.0000 O   0  0  0  0  0  0  0  0  0  0  0  0
    6.1394    3.6000    0.0000 C   0  0  0  0  0  0  0  0  0  0  0  0
    3.2351    5.7876    0.0000 C   0  0  0  0  0  0  0  0  0  0  0  0
    6.4269    4.3750    0.0000 O   0  0  0  0  0  0  0  0  0  0  0  0
    0.3393    5.0668    0.0000 C   0  0  0  0  0  0  0  0  0  0  0  0
   10.7645   -3.3250    0.0000 C   0  0  0  0  0  0  0  0  0  0  0  0
   11.4769   -2.0875    0.0000 C   0  0  0  0  0  0  0  0  0  0  0  0
   11.4769   -2.9125    0.0000 C   0  0  0  0  0  0  0  0  0  0  0  0
   10.7603   -4.1500    0.0000 C   0  0  0  0  0  0  0  0  0  0  0  0
    3.0726    3.0375    0.0000 H   0  0  0  0  0  0  0  0  0  0  0  0
   -2.7648   -3.7250    0.0000 C   0  0  0  0  0  0  0  0  0  0  0  0
   -2.7733   -2.9032    0.0000 O   0  0  0  0  0  0  0  0  0  0  0  0
    0.7851   -3.3482    0.0000 C   0  0  0  0  0  0  0  0  0  0  0  0
    0.7847   -4.1724    0.0000 C   0  0  0  0  0  0  0  0  0  0  0  0
    1.4996   -4.5857    0.0000 C   0  0  0  0  0  0  0  0  0  0  0  0
    2.2166   -4.1688    0.0000 C   0  0  0  0  0  0  0  0  0  0  0  0
    2.2134   -3.3459    0.0000 C   0  0  0  0  0  0  0  0  0  0  0  0
    1.5007   -5.4116    0.0000 O   0  0  0  0  0  0  0  0  0  0  0  0
 19 16  1  0  0  0  0
  9 11  2  0  0  0  0
 13 20  1  0  0  0  0
 38 39  2  0  0  0  0
 39 40  1  0  0  0  0
 41 38  1  0  0  0  0
 42 44  1  0  0  0  0
 43 39  1  0  0  0  0
 44 43  2  0  0  0  0
 45 41  1  0  0  0  0
 46 44  1  0  0  0  0
 41 42  2  0  0  0  0
 17 15  1  0  0  0  0
 40 47  1  0  0  0  0
 16 12  1  0  0  0  0
 47 48  1  0  0  0  0
 12 13  2  0  0  0  0
 48 49  1  0  0  0  0
 13 14  1  0  0  0  0
 48 50  2  0  0  0  0
 14 15  1  0  0  0  0
 16 17  1  0  0  0  0
 28  3  1  0  0  0  0
 29 34  2  0  0  0  0
 33 30  2  0  0  0  0
  3  4  1  0  0  0  0
 30 31  1  0  0  0  0
 12 21  1  0  0  0  0
 31 32  2  0  0  0  0
 32 29  1  0  0  0  0
 33 34  1  0  0  0  0
 10  5  1  0  0  0  0
  5  6  1  0  0  0  0
  6  7  2  0  0  0  0
  7 27  1  0  0  0  0
  7  8  1  0  0  0  0
  8  1  1  0  0  0  0
  1  5  2  0  0  0  0
 21 22  2  0  0  0  0
  9 10  1  0  0  0  0
 21 23  1  0  0  0  0
 19 24  2  0  0  0  0
  4 35  1  0  0  0  0
  1  2  1  0  0  0  0
 35 36  1  0  0  0  0
 51 57  1  0  0  0  0
 49 52  1  6  0  0  0
 53 54  1  0  0  0  0
 54 70  1  1  0  0  0
 55 68  1  0  0  0  0
 63 56  1  1  0  0  0
 57 62  1  0  0  0  0
 58 52  1  0  0  0  0
 59 55  1  0  0  0  0
 60 65  1  0  0  0  0
 61 53  1  0  0  0  0
 76 62  1  1  0  0  0
 63 59  1  0  0  0  0
 51 64  1  1  0  0  0
 65 74  1  0  0  0  0
 66 90  1  0  0  0  0
 67 56  1  0  0  0  0
 68 58  1  6  0  0  0
 69 54  1  0  0  0  0
 70 60  1  0  0  0  0
 71 82  1  0  0  0  0
 72 63  1  0  0  0  0
 73 61  1  0  0  0  0
 74 92  1  0  0  0  0
 75 66  1  0  0  0  0
 76 67  1  0  0  0  0
 77 89  1  6  0  0  0
 78 64  1  0  0  0  0
 79 69  1  0  0  0  0
 80 49  1  0  0  0  0
 81 51  1  0  0  0  0
 82 77  1  0  0  0  0
 83 77  1  0  0  0  0
 84 68  1  0  0  0  0
 85 94  1  0  0  0  0
 86 76  1  0  0  0  0
 87 80  1  0  0  0  0
 88 81  1  0  0  0  0
 89 53  1  0  0  0  0
 90 72  2  0  0  0  0
 91 72  1  0  0  0  0
 92108  1  0  0  0  0
 93 75  1  0  0  0  0
 94 83  1  0  0  0  0
 95 93  1  0  0  0  0
 96 99  1  0  0  0  0
 97 86  1  0  0  0  0
 98 95  2  0  0  0  0
 99 87  2  0  0  0  0
100 78  1  0  0  0  0
101 57  2  0  0  0  0
102 59  2  0  0  0  0
103 58  2  0  0  0  0
104 67  2  0  0  0  0
105 78  2  0  0  0  0
106 87  1  0  0  0  0
107109  1  0  0  0  0
108106  2  0  0  0  0
109 93  2  0  0  0  0
110 97  2  0  0  0  0
111100  1  0  0  0  0
 71112  1  1  0  0  0
 61113  1  1  0  0  0
 73114  1  6  0  0  0
115 97  1  0  0  0  0
100116  1  6  0  0  0
 85117  1  1  0  0  0
118 96  1  0  0  0  0
 80119  1  6  0  0  0
120 95  1  0  0  0  0
 81121  1  1  0  0  0
 79122  1  1  0  0  0
 71123  1  6  0  0  0
124122  1  0  0  0  0
 94125  1  1  0  0  0
126111  1  0  0  0  0
127116  1  0  0  0  0
128126  1  0  0  0  0
129126  1  0  0  0  0
 53130  1  1  0  0  0
 96 92  2  0  0  0  0
 91 65  2  0  0  0  0
 60 66  2  0  0  0  0
 79 73  1  0  0  0  0
 98 88  1  0  0  0  0
 88107  2  0  0  0  0
 85 71  1  0  0  0  0
 17 25  1  6  0  0  0
 40131  1  1  0  0  0
131 37  1  0  0  0  0
 36 37  1  0  0  0  0
131132  2  0  0  0  0
 10 28  2  0  0  0  0
 84133  2  0  0  0  0
 17 18  1  0  0  0  0
133134  1  0  0  0  0
 18 26  1  1  0  0  0
134135  2  0  0  0  0
 26  9  1  0  0  0  0
135136  1  0  0  0  0
 20 29  1  0  0  0  0
136137  2  0  0  0  0
137 84  1  0  0  0  0
 18 19  1  0  0  0  0
135138  1  0  0  0  0
 38134  1  0  0  0  0
M  CHG  2  23  -1  29   1
M  END
> <DATABASE_ID>
DB05735

> <DATABASE_NAME>
drugbank

> <SMILES>
[H][C@]12SCC(C[N+]3=CC=CC=C3)=C(N1C(=O)[C@H]2NC(=O)C(=N/OCCCNC(=O)[C@H]1NC(=O)[C@H]2NC(=O)[C@H](NC(=O)[C@@H]3NC(=O)[C@H](CC(N)=O)NC(=O)[C@H](NC(=O)[C@@H](CC(C)C)NC)[C@H](O)C4=CC=C(OC5=C(O[C@@H]6O[C@H](CO)[C@@H](O)[C@H](O)[C@@]6([H])O[C@H]6C[C@](C)(N)[C@H](O)[C@H](C)O6)C(OC6=C(Cl)C=C(C=C6)[C@H]2O)=CC3=C5)C(Cl)=C4)C2=CC(=C(O)C=C2)C2=C1C=C(O)C=C2O)\C1=C(Cl)SC(N)=N1)C([O-])=O

> <INCHI_IDENTIFIER>
InChI=1S/C87H95Cl3N16O28S2/c1-33(2)20-45(94-5)74(117)100-62-66(112)36-11-14-49(43(88)22-36)130-51-24-38-25-52(70(51)134-85-71(69(115)68(114)53(31-107)132-85)133-55-29-87(4,93)72(116)34(3)129-55)131-50-15-12-37(23-44(50)89)67(113)63-81(124)99-59(42-26-40(108)27-48(110)56(42)41-21-35(10-13-47(41)109)57(77(120)101-63)98-78(121)58(38)97-75(118)46(28-54(91)111)96-80(62)123)76(119)95-16-9-19-128-104-61(60-73(90)136-86(92)103-60)79(122)102-64-82(125)106-65(84(126)127)39(32-135-83(64)106)30-105-17-7-6-8-18-105/h6-8,10-15,17-18,21-27,33-34,45-46,53,55,57-59,62-64,66-69,71-72,83,85,94,107,112-116H,9,16,19-20,28-32,93H2,1-5H3,(H15-,91,92,95,96,97,98,99,100,101,102,103,104,108,109,110,111,117,118,119,120,121,122,123,124,126,127)/t34-,45+,46-,53+,55-,57+,58+,59-,62+,63-,64+,66+,67+,68+,69-,71+,72+,83+,85-,87-/m0/s1

> <INCHI_KEY>
OGUAFUAJSPORAH-KHCCTVBNSA-N

> <FORMULA>
C87H95Cl3N16O28S2

> <MOLECULAR_WEIGHT>
1983.27

> <EXACT_MASS>
1980.5008719

> <JCHEM_ACCEPTOR_COUNT>
31

> <JCHEM_ATOM_COUNT>
231

> <JCHEM_AVERAGE_NEUTRAL_MICROSPECIES_CHARGE>
4.006300434366764

> <JCHEM_AVERAGE_POLARIZABILITY>
191.83242290993738

> <JCHEM_BIOAVAILABILITY>
0

> <JCHEM_DONOR_COUNT>
21

> <JCHEM_FORMAL_CHARGE>
0

> <JCHEM_GHOSE_FILTER>
0

> <JCHEM_IUPAC>
1-{[(6R,7R)-7-[(2Z)-2-(2-amino-5-chloro-1,3-thiazol-4-yl)-2-[(3-{[(1S,2R,18R,19R,22S,25R,28R,40S)-48-{[(2S,3R,4S,5S,6R)-3-{[(2S,4S,5S,6S)-4-amino-5-hydroxy-4,6-dimethyloxan-2-yl]oxy}-4,5-dihydroxy-6-(hydroxymethyl)oxan-2-yl]oxy}-22-(carbamoylmethyl)-5,47-dichloro-2,18,32,35,37-pentahydroxy-19-[(2R)-4-methyl-2-(methylamino)pentanamido]-20,23,26,42,44-pentaoxo-7,13-dioxa-21,24,27,41,43-pentaazaoctacyclo[26.14.2.2^{3,6}.2^{14,17}.1^{8,12}.1^{29,33}.0^{10,25}.0^{34,39}]pentaconta-3,5,8,10,12(48),14,16,29(45),30,32,34(39),35,37,46,49-pentadecaen-40-yl]formamido}propoxy)imino]acetamido]-2-carboxylato-8-oxo-5-thia-1-azabicyclo[4.2.0]oct-2-en-3-yl]methyl}pyridin-1-ium

> <ALOGPS_LOGP>
0.88

> <JCHEM_LOGP>
-7.802874074908357

> <ALOGPS_LOGS>
-4.95

> <JCHEM_MDDR_LIKE_RULE>
1

> <JCHEM_NEUTRAL_CHARGE>
2

> <JCHEM_NUMBER_OF_RINGS>
14

> <JCHEM_PHYSIOLOGICAL_CHARGE>
2

> <JCHEM_PKA>
8.32081389737883

> <JCHEM_PKA_STRONGEST_ACIDIC>
2.3143500302927538

> <JCHEM_PKA_STRONGEST_BASIC>
9.814993671028143

> <JCHEM_POLAR_SURFACE_AREA>
676.21

> <JCHEM_REFRACTIVITY>
488.7776

> <JCHEM_ROTATABLE_BOND_COUNT>
24

> <JCHEM_RULE_OF_FIVE>
0

> <ALOGPS_SOLUBILITY>
2.30e-02 g/l

> <JCHEM_TRADITIONAL_IUPAC>
1-{[(6R,7R)-7-[(2Z)-2-(2-amino-5-chloro-1,3-thiazol-4-yl)-2-[(3-{[(1S,2R,18R,19R,22S,25R,28R,40S)-48-{[(2S,3R,4S,5S,6R)-3-{[(2S,4S,5S,6S)-4-amino-5-hydroxy-4,6-dimethyloxan-2-yl]oxy}-4,5-dihydroxy-6-(hydroxymethyl)oxan-2-yl]oxy}-22-(carbamoylmethyl)-5,47-dichloro-2,18,32,35,37-pentahydroxy-19-[(2R)-4-methyl-2-(methylamino)pentanamido]-20,23,26,42,44-pentaoxo-7,13-dioxa-21,24,27,41,43-pentaazaoctacyclo[26.14.2.2^{3,6}.2^{14,17}.1^{8,12}.1^{29,33}.0^{10,25}.0^{34,39}]pentaconta-3,5,8,10,12(48),14,16,29(45),30,32,34(39),35,37,46,49-pentadecaen-40-yl]formamido}propoxy)imino]acetamido]-2-carboxylato-8-oxo-5-thia-1-azabicyclo[4.2.0]oct-2-en-3-yl]methyl}pyridin-1-ium

> <JCHEM_VEBER_RULE>
0

> <DRUGBANK_ID>
DB05735

> <DRUG_GROUPS>
investigational

> <GENERIC_NAME>
Cefilavancin

> <SYNONYMS>
Cefilavancin

$$$$
