
  Mrv1718007111817532D          

  2  0  0  0  0  0            999 V2000
   -0.4125    0.0000    0.0000 Li  0  3  0  0  0  0  0  0  0  0  0  0
    0.4125    0.0000    0.0000 O   0  5  0  0  0  0  0  0  0  0  0  0
M  CHG  2   1   1   2  -1
M  END
> <DATABASE_ID>
DB14506

> <DATABASE_NAME>
drugbank

> <SMILES>
[Li+].[OH-]

> <INCHI_IDENTIFIER>
InChI=1S/Li.H2O/h;1H2/q+1;/p-1

> <INCHI_KEY>
WMFOQBRAJBCJND-UHFFFAOYSA-M

> <FORMULA>
HLiO

> <MOLECULAR_WEIGHT>
23.95

> <EXACT_MASS>
24.01874309

> <JCHEM_ACCEPTOR_COUNT>
0

> <JCHEM_ATOM_COUNT>
3

> <JCHEM_AVERAGE_POLARIZABILITY>
1.7784

> <JCHEM_BIOAVAILABILITY>
1

> <JCHEM_DONOR_COUNT>
0

> <JCHEM_FORMAL_CHARGE>
0

> <JCHEM_GHOSE_FILTER>
0

> <JCHEM_IUPAC>
lithium(1+) hydroxide

> <JCHEM_LOGP>
0.0

> <JCHEM_MDDR_LIKE_RULE>
0

> <JCHEM_NUMBER_OF_RINGS>
0

> <JCHEM_PHYSIOLOGICAL_CHARGE>
1

> <JCHEM_PKA>
3.55

> <JCHEM_PKA_STRONGEST_ACIDIC>
3.09

> <JCHEM_POLAR_SURFACE_AREA>
0.0

> <JCHEM_REFRACTIVITY>
0.0

> <JCHEM_ROTATABLE_BOND_COUNT>
0

> <JCHEM_RULE_OF_FIVE>
1

> <JCHEM_TRADITIONAL_IUPAC>
lithium hydroxide

> <JCHEM_VEBER_RULE>
1

> <DRUGBANK_ID>
DB14506

> <DRUG_GROUPS>
approved; withdrawn

> <GENERIC_NAME>
Lithium hydroxide

> <SYNONYMS>
Lithium hydrate; Lithium hydroxide anhydrous; Lithiumhydroxid

> <PRODUCTS>
Lithium Hydroxide Monohydrate

> <SALTS>
Lithium hydroxide monohydrate

$$$$
