
  Mrv1909 05201915092D          

 21 22  0  0  0  0            999 V2000
    4.1801   -1.7116    0.0000 C   0  0  0  0  0  0  0  0  0  0  0  0
    3.4656   -1.2991    0.0000 C   0  0  0  0  0  0  0  0  0  0  0  0
    3.4656   -0.4741    0.0000 C   0  0  0  0  0  0  0  0  0  0  0  0
    4.1801   -0.0616    0.0000 C   0  0  0  0  0  0  0  0  0  0  0  0
    4.1801    0.7634    0.0000 C   0  0  0  0  0  0  0  0  0  0  0  0
    4.8946    1.1759    0.0000 C   0  0  0  0  0  0  0  0  0  0  0  0
    5.6091    0.7634    0.0000 C   0  0  0  0  0  0  0  0  0  0  0  0
    5.6091   -0.0616    0.0000 C   0  0  0  0  0  0  0  0  0  0  0  0
    4.8946   -0.4741    0.0000 C   0  0  0  0  0  0  0  0  0  0  0  0
    2.7512   -1.7116    0.0000 C   0  0  0  0  0  0  0  0  0  0  0  0
    2.7512   -2.5366    0.0000 C   0  0  0  0  0  0  0  0  0  0  0  0
    3.4186   -3.0215    0.0000 S   0  0  0  0  0  0  0  0  0  0  0  0
    3.1637   -3.8062    0.0000 C   0  0  0  0  0  0  0  0  0  0  0  0
    3.6486   -4.4736    0.0000 S   0  0  0  0  0  0  0  0  0  0  0  0
    2.3387   -3.8062    0.0000 N   0  0  0  0  0  0  0  0  0  0  0  0
    1.8538   -4.4736    0.0000 C   0  0  0  0  0  0  0  0  0  0  0  0
    1.0333   -4.3874    0.0000 C   0  0  0  0  0  0  0  0  0  0  0  0
    0.5484   -5.0548    0.0000 O   0  0  0  0  0  0  0  0  0  0  0  0
    0.6977   -3.6337    0.0000 O   0  0  0  0  0  0  0  0  0  0  0  0
    2.0837   -3.0215    0.0000 C   0  0  0  0  0  0  0  0  0  0  0  0
    1.2991   -2.7666    0.0000 O   0  0  0  0  0  0  0  0  0  0  0  0
  1  2  1  0  0  0  0
  2  3  2  0  0  0  0
  3  4  1  0  0  0  0
  4  5  2  0  0  0  0
  5  6  1  0  0  0  0
  6  7  2  0  0  0  0
  7  8  1  0  0  0  0
  8  9  2  0  0  0  0
  4  9  1  0  0  0  0
  2 10  1  0  0  0  0
 10 11  2  0  0  0  0
 11 12  1  0  0  0  0
 12 13  1  0  0  0  0
 13 14  2  0  0  0  0
 13 15  1  0  0  0  0
 15 16  1  0  0  0  0
 16 17  1  0  0  0  0
 17 18  1  0  0  0  0
 17 19  2  0  0  0  0
 15 20  1  0  0  0  0
 11 20  1  0  0  0  0
 20 21  2  0  0  0  0
M  END
> <DATABASE_ID>
DB15293

> <DATABASE_NAME>
drugbank

> <SMILES>
C\C(\C=C1/SC(=S)N(CC(O)=O)C1=O)=C/C1=CC=CC=C1

> <INCHI_IDENTIFIER>
InChI=1S/C15H13NO3S2/c1-10(7-11-5-3-2-4-6-11)8-12-14(19)16(9-13(17)18)15(20)21-12/h2-8H,9H2,1H3,(H,17,18)/b10-7+,12-8-

> <INCHI_KEY>
CHNUOJQWGUIOLD-NFZZJPOKSA-N

> <FORMULA>
C15H13NO3S2

> <MOLECULAR_WEIGHT>
319.39

> <EXACT_MASS>
319.033685631

> <JCHEM_ACCEPTOR_COUNT>
3

> <JCHEM_ATOM_COUNT>
34

> <JCHEM_AVERAGE_POLARIZABILITY>
32.37193412751157

> <JCHEM_BIOAVAILABILITY>
1

> <JCHEM_DONOR_COUNT>
1

> <JCHEM_FORMAL_CHARGE>
0

> <JCHEM_GHOSE_FILTER>
1

> <JCHEM_IUPAC>
2-[(5Z)-5-[(2E)-2-methyl-3-phenylprop-2-en-1-ylidene]-4-oxo-2-sulfanylidene-1,3-thiazolidin-3-yl]acetic acid

> <ALOGPS_LOGP>
3.09

> <JCHEM_LOGP>
3.212064878333333

> <ALOGPS_LOGS>
-4.70

> <JCHEM_MDDR_LIKE_RULE>
0

> <JCHEM_NUMBER_OF_RINGS>
2

> <JCHEM_PHYSIOLOGICAL_CHARGE>
-1

> <JCHEM_PKA_STRONGEST_ACIDIC>
3.699616229092004

> <JCHEM_PKA_STRONGEST_BASIC>
-6.842216277944472

> <JCHEM_POLAR_SURFACE_AREA>
57.61

> <JCHEM_REFRACTIVITY>
89.79379999999998

> <JCHEM_ROTATABLE_BOND_COUNT>
4

> <JCHEM_RULE_OF_FIVE>
1

> <ALOGPS_SOLUBILITY>
6.37e-03 g/l

> <JCHEM_TRADITIONAL_IUPAC>
(2R)-14-fluoro-2-methyl-6,9,10,19-tetraazapentacyclo[14.2.1.0^{2,6}.0^{8,18}.0^{12,17}]nonadeca-1(18),8,12(17),13,15-pentaen-11-one

> <JCHEM_VEBER_RULE>
0

> <DRUGBANK_ID>
DB15293

> <DRUG_GROUPS>
investigational

> <GENERIC_NAME>
Epalrestat

> <SYNONYMS>
Epalrestat

$$$$
