
  Mrv1652310211601042D          

 27 30  0  0  0  0            999 V2000
    1.1355    4.9500    0.0000 C   0  0  0  0  0  0  0  0  0  0  0  0
    1.8500    4.5375    0.0000 C   0  0  0  0  0  0  0  0  0  0  0  0
    2.5645    4.9500    0.0000 O   0  0  0  0  0  0  0  0  0  0  0  0
    1.8500    3.7125    0.0000 N   0  0  0  0  0  0  0  0  0  0  0  0
    1.1355    3.3000    0.0000 C   0  0  0  0  0  0  0  0  0  0  0  0
    2.5645    3.3000    0.0000 C   0  0  0  0  0  0  0  0  0  0  0  0
    3.2789    3.7125    0.0000 C   0  0  0  0  0  0  0  0  0  0  0  0
    3.9934    3.3000    0.0000 C   0  0  0  0  0  0  0  0  0  0  0  0
    3.9934    2.4750    0.0000 C   0  0  0  0  0  0  0  0  0  0  0  0
    3.2789    2.0625    0.0000 C   0  0  0  0  0  0  0  0  0  0  0  0
    2.5645    2.4750    0.0000 C   0  0  0  0  0  0  0  0  0  0  0  0
    3.2789    1.2375    0.0000 C   0  0  0  0  0  0  0  0  0  0  0  0
    3.9934    0.8250    0.0000 C   0  0  0  0  0  0  0  0  0  0  0  0
    3.9934    0.0000    0.0000 C   0  0  0  0  0  0  0  0  0  0  0  0
    3.2789   -0.4125    0.0000 N   0  0  0  0  0  0  0  0  0  0  0  0
    2.5645    0.0000    0.0000 C   0  0  0  0  0  0  0  0  0  0  0  0
    2.5645    0.8250    0.0000 N   0  0  0  0  0  0  0  0  0  0  0  0
    1.7798    1.0799    0.0000 N   0  0  0  0  0  0  0  0  0  0  0  0
    1.2949    0.4125    0.0000 C   0  0  0  0  0  0  0  0  0  0  0  0
    1.7798   -0.2549    0.0000 C   0  0  0  0  0  0  0  0  0  0  0  0
    1.5249   -1.0396    0.0000 C   0  0  0  0  0  0  0  0  0  0  0  0
    2.0769   -1.6527    0.0000 O   0  0  0  0  0  0  0  0  0  0  0  0
    0.7179   -1.2111    0.0000 C   0  0  0  0  0  0  0  0  0  0  0  0
    0.3824   -1.9648    0.0000 C   0  0  0  0  0  0  0  0  0  0  0  0
   -0.4381   -1.8785    0.0000 C   0  0  0  0  0  0  0  0  0  0  0  0
   -0.6096   -1.0716    0.0000 C   0  0  0  0  0  0  0  0  0  0  0  0
    0.1048   -0.6591    0.0000 S   0  0  0  0  0  0  0  0  0  0  0  0
  1  2  1  0  0  0  0
  2  3  2  0  0  0  0
  2  4  1  0  0  0  0
  4  5  1  0  0  0  0
  4  6  1  0  0  0  0
  6  7  2  0  0  0  0
  7  8  1  0  0  0  0
  8  9  2  0  0  0  0
  9 10  1  0  0  0  0
 10 11  2  0  0  0  0
  6 11  1  0  0  0  0
 10 12  1  0  0  0  0
 12 13  2  0  0  0  0
 13 14  1  0  0  0  0
 14 15  2  0  0  0  0
 15 16  1  0  0  0  0
 16 17  1  0  0  0  0
 12 17  1  0  0  0  0
 17 18  1  0  0  0  0
 18 19  2  0  0  0  0
 19 20  1  0  0  0  0
 16 20  2  0  0  0  0
 20 21  1  0  0  0  0
 21 22  2  0  0  0  0
 21 23  1  0  0  0  0
 23 24  2  0  0  0  0
 24 25  1  0  0  0  0
 25 26  2  0  0  0  0
 26 27  1  0  0  0  0
 23 27  1  0  0  0  0
M  END
> <DATABASE_ID>
DB12590

> <DATABASE_NAME>
drugbank

> <SMILES>
CN(C(C)=O)C1=CC=CC(=C1)C1=CC=NC2=C(C=NN12)C(=O)C1=CC=CS1

> <INCHI_IDENTIFIER>
InChI=1S/C20H16N4O2S/c1-13(25)23(2)15-6-3-5-14(11-15)17-8-9-21-20-16(12-22-24(17)20)19(26)18-7-4-10-27-18/h3-12H,1-2H3

> <INCHI_KEY>
CBIAWPMZSFFRGN-UHFFFAOYSA-N

> <FORMULA>
C20H16N4O2S

> <MOLECULAR_WEIGHT>
376.43

> <EXACT_MASS>
376.099396945

> <JCHEM_ACCEPTOR_COUNT>
4

> <JCHEM_ATOM_COUNT>
43

> <JCHEM_AVERAGE_POLARIZABILITY>
39.66266879718207

> <JCHEM_BIOAVAILABILITY>
1

> <JCHEM_DONOR_COUNT>
0

> <JCHEM_FORMAL_CHARGE>
0

> <JCHEM_GHOSE_FILTER>
1

> <JCHEM_IUPAC>
N-methyl-N-{3-[3-(thiophene-2-carbonyl)pyrazolo[1,5-a]pyrimidin-7-yl]phenyl}acetamide

> <ALOGPS_LOGP>
3.01

> <JCHEM_LOGP>
2.6942099530000005

> <ALOGPS_LOGS>
-4.92

> <JCHEM_MDDR_LIKE_RULE>
0

> <JCHEM_NUMBER_OF_RINGS>
4

> <JCHEM_PHYSIOLOGICAL_CHARGE>
0

> <JCHEM_PKA_STRONGEST_BASIC>
0.9560000153998804

> <JCHEM_POLAR_SURFACE_AREA>
67.57

> <JCHEM_REFRACTIVITY>
114.23159999999997

> <JCHEM_ROTATABLE_BOND_COUNT>
4

> <JCHEM_RULE_OF_FIVE>
1

> <ALOGPS_SOLUBILITY>
4.49e-03 g/l

> <JCHEM_TRADITIONAL_IUPAC>
indiplon

> <JCHEM_VEBER_RULE>
0

> <DRUGBANK_ID>
DB12590

> <DRUG_GROUPS>
investigational

> <GENERIC_NAME>
Indiplon

> <SYNONYMS>
Indiplon

$$$$
