
  Mrv1652306231722492D          

 22 24  0  0  1  0            999 V2000
   -0.1013    3.6619    0.0000 C   0  0  0  0  0  0  0  0  0  0  0  0
   -0.4542    4.4076    0.0000 N   0  3  0  0  0  0  0  0  0  0  0  0
   -0.1914    5.3262    0.0000 C   0  0  2  0  0  0  0  0  0  0  0  0
   -1.0072    5.2032    0.0000 C   0  0  0  0  0  0  0  0  0  0  0  0
   -1.4197    4.4887    0.0000 C   0  0  0  0  0  0  0  0  0  0  0  0
   -1.1183    3.7208    0.0000 C   0  0  1  0  0  0  0  0  0  0  0  0
   -0.3299    3.4776    0.0000 C   0  0  0  0  0  0  0  0  0  0  0  0
    0.3517    3.9423    0.0000 C   0  0  2  0  0  0  0  0  0  0  0  0
    0.4134    4.7650    0.0000 C   0  0  0  0  0  0  0  0  0  0  0  0
    1.0662    3.5298    0.0000 O   0  0  0  0  0  0  0  0  0  0  0  0
    1.0662    2.7048    0.0000 C   0  0  0  0  0  0  0  0  0  0  0  0
    0.3517    2.2923    0.0000 O   0  0  0  0  0  0  0  0  0  0  0  0
    1.7807    2.2923    0.0000 C   0  0  0  0  0  0  0  0  0  0  0  0
    2.4951    2.7048    0.0000 C   0  0  0  0  0  0  0  0  0  0  0  0
    3.2096    2.2923    0.0000 O   0  0  0  0  0  0  0  0  0  0  0  0
    1.7807    1.4673    0.0000 C   0  0  0  0  0  0  0  0  0  0  0  0
    2.4951    1.0548    0.0000 C   0  0  0  0  0  0  0  0  0  0  0  0
    2.4951    0.2298    0.0000 C   0  0  0  0  0  0  0  0  0  0  0  0
    1.7807   -0.1827    0.0000 C   0  0  0  0  0  0  0  0  0  0  0  0
    1.0662    0.2298    0.0000 C   0  0  0  0  0  0  0  0  0  0  0  0
    1.0662    1.0548    0.0000 C   0  0  0  0  0  0  0  0  0  0  0  0
    0.3681    4.4749    0.0000 C   0  0  0  0  0  0  0  0  0  0  0  0
  1  2  1  0  0  0  0
  2  3  1  0  0  0  0
  3  4  1  6  0  0  0
  4  5  1  0  0  0  0
  6  5  1  6  0  0  0
  2  6  1  0  0  0  0
  6  7  1  0  0  0  0
  7  8  1  0  0  0  0
  8  9  1  0  0  0  0
  3  9  1  0  0  0  0
  8 10  1  6  0  0  0
 10 11  1  0  0  0  0
 11 12  2  0  0  0  0
 11 13  1  0  0  0  0
 13 14  1  0  0  0  0
 14 15  1  0  0  0  0
 13 16  1  0  0  0  0
 16 17  2  0  0  0  0
 17 18  1  0  0  0  0
 18 19  2  0  0  0  0
 19 20  1  0  0  0  0
 20 21  2  0  0  0  0
 16 21  1  0  0  0  0
  2 22  1  0  0  0  0
M  CHG  1   2   1
M  END
> <DATABASE_ID>
DB13833

> <DATABASE_NAME>
drugbank

> <SMILES>
C[N+]1(C)[C@H]2CC[C@@H]1C[C@@H](C2)OC(=O)C(CO)C1=CC=CC=C1

> <INCHI_IDENTIFIER>
InChI=1S/C18H26NO3/c1-19(2)14-8-9-15(19)11-16(10-14)22-18(21)17(12-20)13-6-4-3-5-7-13/h3-7,14-17,20H,8-12H2,1-2H3/q+1/t14-,15+,16+,17?

> <INCHI_KEY>
PIPAJLPNWZMYQA-KNCRFDSUSA-N

> <FORMULA>
C18H26NO3

> <MOLECULAR_WEIGHT>
304.409

> <EXACT_MASS>
304.190720121

> <JCHEM_ACCEPTOR_COUNT>
2

> <JCHEM_ATOM_COUNT>
48

> <JCHEM_AVERAGE_POLARIZABILITY>
33.828275827933595

> <JCHEM_BIOAVAILABILITY>
1

> <JCHEM_DONOR_COUNT>
1

> <JCHEM_FORMAL_CHARGE>
1

> <JCHEM_GHOSE_FILTER>
0

> <JCHEM_IUPAC>
(1R,3S,5S)-3-[(3-hydroxy-2-phenylpropanoyl)oxy]-8,8-dimethyl-8-azabicyclo[3.2.1]octan-8-ium

> <ALOGPS_LOGP>
-1.61

> <JCHEM_LOGP>
-2.5910955998050795

> <ALOGPS_LOGS>
-4.78

> <JCHEM_MDDR_LIKE_RULE>
0

> <JCHEM_NUMBER_OF_RINGS>
3

> <JCHEM_PHYSIOLOGICAL_CHARGE>
1

> <JCHEM_PKA_STRONGEST_ACIDIC>
15.145739794575235

> <JCHEM_PKA_STRONGEST_BASIC>
-2.7350534138527927

> <JCHEM_POLAR_SURFACE_AREA>
46.53

> <JCHEM_REFRACTIVITY>
96.73000000000002

> <JCHEM_ROTATABLE_BOND_COUNT>
5

> <JCHEM_RULE_OF_FIVE>
1

> <ALOGPS_SOLUBILITY>
5.61e-03 g/l

> <JCHEM_TRADITIONAL_IUPAC>
(1R,3S,5S)-3-[(3-hydroxy-2-phenylpropanoyl)oxy]-8,8-dimethyl-8-azabicyclo[3.2.1]octan-8-ium

> <JCHEM_VEBER_RULE>
0

> <DRUGBANK_ID>
DB13833

> <DRUG_GROUPS>
experimental

> <GENERIC_NAME>
Methylatropine

> <SYNONYMS>
Methylatropinium

$$$$
