
  Mrv1909 12152018042D          

 19 18  0  0  0  0            999 V2000
    7.9480    5.4138    0.0000 O   0  0  0  0  0  0  0  0  0  0  0  0
    8.6625    5.0013    0.0000 C   0  0  0  0  0  0  0  0  0  0  0  0
    9.3770    5.4138    0.0000 C   0  0  0  0  0  0  0  0  0  0  0  0
   10.0914    5.0013    0.0000 N   0  0  0  0  0  0  0  0  0  0  0  0
   10.8059    5.4138    0.0000 C   0  0  0  0  0  0  0  0  0  0  0  0
   10.8059    6.2388    0.0000 O   0  0  0  0  0  0  0  0  0  0  0  0
   11.5204    5.0013    0.0000 C   0  0  0  0  0  0  0  0  0  0  0  0
   12.2349    5.4138    0.0000 C   0  0  0  0  0  0  0  0  0  0  0  0
   12.9493    5.0013    0.0000 C   0  0  0  0  0  0  0  0  0  0  0  0
   13.6638    5.4138    0.0000 C   0  0  0  0  0  0  0  0  0  0  0  0
   14.3783    5.0013    0.0000 C   0  0  0  0  0  0  0  0  0  0  0  0
   15.0927    5.4138    0.0000 C   0  0  0  0  0  0  0  0  0  0  0  0
   15.8072    5.0013    0.0000 C   0  0  0  0  0  0  0  0  0  0  0  0
   16.5217    5.4138    0.0000 C   0  0  0  0  0  0  0  0  0  0  0  0
   16.5217    6.2388    0.0000 O   0  0  0  0  0  0  0  0  0  0  0  0
   17.2362    5.0013    0.0000 N   0  0  0  0  0  0  0  0  0  0  0  0
   17.9506    5.4138    0.0000 C   0  0  0  0  0  0  0  0  0  0  0  0
   18.6651    5.0013    0.0000 C   0  0  0  0  0  0  0  0  0  0  0  0
   19.3796    5.4138    0.0000 O   0  0  0  0  0  0  0  0  0  0  0  0
  1  2  1  0  0  0  0
  2  3  1  0  0  0  0
  3  4  1  0  0  0  0
  4  5  1  0  0  0  0
  5  6  2  0  0  0  0
  5  7  1  0  0  0  0
  7  8  1  0  0  0  0
  8  9  1  0  0  0  0
  9 10  1  0  0  0  0
 10 11  1  0  0  0  0
 11 12  1  0  0  0  0
 12 13  1  0  0  0  0
 13 14  1  0  0  0  0
 14 15  2  0  0  0  0
 14 16  1  0  0  0  0
 16 17  1  0  0  0  0
 17 18  1  0  0  0  0
 18 19  1  0  0  0  0
M  END
> <DATABASE_ID>
DB16083

> <DATABASE_NAME>
drugbank

> <SMILES>
OCCNC(=O)CCCCCCCC(=O)NCCO

> <INCHI_IDENTIFIER>
InChI=1S/C13H26N2O4/c16-10-8-14-12(18)6-4-2-1-3-5-7-13(19)15-9-11-17/h16-17H,1-11H2,(H,14,18)(H,15,19)

> <INCHI_KEY>
PAHZPHDAJQIETD-UHFFFAOYSA-N

> <FORMULA>
C13H26N2O4

> <MOLECULAR_WEIGHT>
274.361

> <EXACT_MASS>
274.189257325

> <JCHEM_ACCEPTOR_COUNT>
4

> <JCHEM_ATOM_COUNT>
45

> <JCHEM_AVERAGE_NEUTRAL_MICROSPECIES_CHARGE>
1.022453279424991e-10

> <JCHEM_AVERAGE_POLARIZABILITY>
31.539563375195016

> <JCHEM_BIOAVAILABILITY>
1

> <JCHEM_DONOR_COUNT>
4

> <JCHEM_FORMAL_CHARGE>
0

> <JCHEM_GHOSE_FILTER>
0

> <JCHEM_IUPAC>
N,N'-bis(2-hydroxyethyl)nonanediamide

> <ALOGPS_LOGP>
0.11

> <JCHEM_LOGP>
-0.7223767623333336

> <ALOGPS_LOGS>
-2.42

> <JCHEM_MDDR_LIKE_RULE>
0

> <JCHEM_NEUTRAL_CHARGE>
0

> <JCHEM_NUMBER_OF_RINGS>
0

> <JCHEM_PHYSIOLOGICAL_CHARGE>
0

> <JCHEM_PKA>
15.5550110983487

> <JCHEM_PKA_STRONGEST_ACIDIC>
15.066401416124386

> <JCHEM_PKA_STRONGEST_BASIC>
-1.0075829230674445

> <JCHEM_POLAR_SURFACE_AREA>
98.66000000000001

> <JCHEM_REFRACTIVITY>
72.56439999999999

> <JCHEM_ROTATABLE_BOND_COUNT>
12

> <JCHEM_RULE_OF_FIVE>
1

> <ALOGPS_SOLUBILITY>
1.05e+00 g/l

> <JCHEM_TRADITIONAL_IUPAC>
2-methoxy-4-[(1E)-3-[4-(nitrooxy)butoxy]-3-oxoprop-1-en-1-yl]phenyl (4R)-4-[(1R,3aS,3bR,4S,5aS,7R,9aS,9bS,11aR)-4,7-dihydroxy-9a,11a-dimethyl-tetradecahydro-1H-cyclopenta[a]phenanthren-1-yl]pentanoate

> <JCHEM_VEBER_RULE>
0

> <DRUGBANK_ID>
DB16083

> <DRUG_GROUPS>
investigational

> <GENERIC_NAME>
Adelmidrol

> <SYNONYMS>
Adelmidrol

$$$$
