
  Mrv1909 12122122482D          

 91 99  0  0  1  0            999 V2000
   -7.6951   -2.9368    0.0000 C   0  0  0  0  0  0  0  0  0  0  0  0
   -6.9784   -2.5277    0.0000 N   0  0  0  0  0  0  0  0  0  0  0  0
   -6.2663   -2.9361    0.0000 C   0  0  0  0  0  0  0  0  0  0  0  0
   -6.2663   -3.7601    0.0000 C   0  0  0  0  0  0  0  0  0  0  0  0
   -6.9755   -4.1730    0.0000 N   0  0  0  0  0  0  0  0  0  0  0  0
   -7.6951   -3.7661    0.0000 C   0  0  0  0  0  0  0  0  0  0  0  0
   -8.4085   -4.1756    0.0000 N   0  0  0  0  0  0  0  0  0  0  0  0
   -9.1254   -3.7634    0.0000 C   0  0  0  0  0  0  0  0  0  0  0  0
   -9.1254   -2.9408    0.0000 N   0  0  0  0  0  0  0  0  0  0  0  0
   -8.4120   -2.5221    0.0000 C   0  0  0  0  0  0  0  0  0  0  0  0
   -8.4120   -1.6938    0.0000 O   0  0  0  0  0  0  0  0  0  0  0  0
   -9.8419   -4.1775    0.0000 N   0  0  0  0  0  0  0  0  0  0  0  0
   -5.5500   -2.5268    0.0000 C   0  0  0  0  0  0  0  0  0  0  0  0
   -4.8383   -2.9361    0.0000 N   0  0  0  0  0  0  0  0  0  0  0  0
   -4.1220   -2.5268    0.0000 C   0  0  0  0  0  0  0  0  0  0  0  0
   -4.1220   -1.6984    0.0000 C   0  0  0  0  0  0  0  0  0  0  0  0
   -3.4081   -1.2875    0.0000 C   0  0  0  0  0  0  0  0  0  0  0  0
   -2.6915   -1.6971    0.0000 C   0  0  0  0  0  0  0  0  0  0  0  0
   -2.6915   -2.5233    0.0000 C   0  0  0  0  0  0  0  0  0  0  0  0
   -3.4054   -2.9390    0.0000 C   0  0  0  0  0  0  0  0  0  0  0  0
   -1.9799   -1.2876    0.0000 C   0  0  0  0  0  0  0  0  0  0  0  0
   -1.2682   -1.6971    0.0000 N   0  0  0  0  0  0  0  0  0  0  0  0
   -0.5519   -1.2876    0.0000 C   0  0  1  0  0  0  0  0  0  0  0  0
    0.1595   -1.6971    0.0000 C   0  0  0  0  0  0  0  0  0  0  0  0
    0.8805   -1.2876    0.0000 C   0  0  0  0  0  0  0  0  0  0  0  0
    0.8805   -0.4593    0.0000 C   0  0  0  0  0  0  0  0  0  0  0  0
    1.5898   -0.0529    0.0000 C   0  0  0  0  0  0  0  0  0  0  0  0
    2.3063   -0.4625    0.0000 C   0  0  0  0  0  0  0  0  0  0  0  0
    2.3063   -1.2842    0.0000 C   0  0  0  0  0  0  0  0  0  0  0  0
    1.5926   -1.6999    0.0000 C   0  0  0  0  0  0  0  0  0  0  0  0
    3.0181   -0.0531    0.0000 O   0  0  0  0  0  0  0  0  0  0  0  0
    3.7344   -0.4625    0.0000 C   0  0  0  0  0  0  0  0  0  0  0  0
    4.4507   -0.0531    0.0000 C   0  0  0  0  0  0  0  0  0  0  0  0
    5.1668   -0.4625    0.0000 C   0  0  0  0  0  0  0  0  0  0  0  0
    5.1668   -1.2861    0.0000 C   0  0  0  0  0  0  0  0  0  0  0  0
    4.4507   -1.7002    0.0000 C   0  0  0  0  0  0  0  0  0  0  0  0
    3.7344   -1.2861    0.0000 C   0  0  0  0  0  0  0  0  0  0  0  0
    3.0181   -1.7002    0.0000 C   0  0  0  0  0  0  0  0  0  0  0  0
    3.0181   -2.5285    0.0000 C   0  0  0  0  0  0  0  0  0  0  0  0
    2.3015   -2.9296    0.0000 C   0  0  0  0  0  0  0  0  0  0  0  0
    1.5388   -2.6036    0.0000 C   0  0  0  0  0  0  0  0  0  0  0  0
    1.0029   -3.2138    0.0000 C   0  0  0  0  0  0  0  0  0  0  0  0
    1.4198   -3.9299    0.0000 C   0  0  0  0  0  0  0  0  0  0  0  0
    2.2153   -3.7508    0.0000 N   0  3  0  0  0  0  0  0  0  0  0  0
    2.8007   -4.3316    0.0000 C   0  0  0  0  0  0  0  0  0  0  0  0
    3.5979   -4.1199    0.0000 C   0  0  0  0  0  0  0  0  0  0  0  0
    4.1832   -4.7006    0.0000 C   0  0  0  0  0  0  0  0  0  0  0  0
    4.9757   -4.4890    0.0000 C   0  0  0  0  0  0  0  0  0  0  0  0
    5.9019   -5.4150    0.0000 S   0  0  0  0  0  0  0  0  0  0  0  0
    6.6804   -4.8673    0.0000 O   0  0  0  0  0  0  0  0  0  0  0  0
    5.1138   -5.8831    0.0000 O   0  0  0  0  0  0  0  0  0  0  0  0
    6.4476   -6.0657    0.0000 O   0  0  0  0  0  0  0  0  0  0  0  0
    1.0146   -4.6462    0.0000 C   0  0  0  0  0  0  0  0  0  0  0  0
    0.1907   -4.6462    0.0000 C   0  0  0  0  0  0  0  0  0  0  0  0
   -0.2253   -3.9073    0.0000 C   0  0  0  0  0  0  0  0  0  0  0  0
    0.1737   -3.2138    0.0000 C   0  0  0  0  0  0  0  0  0  0  0  0
   -0.8388   -3.9073    0.0000 S   0  0  0  0  0  0  0  0  0  0  0  0
   -1.4956   -3.7928    0.0000 O   0  5  0  0  0  0  0  0  0  0  0  0
   -0.7699   -3.1512    0.0000 O   0  0  0  0  0  0  0  0  0  0  0  0
   -0.7421   -4.7985    0.0000 O   0  0  0  0  0  0  0  0  0  0  0  0
    1.3271   -1.8064    0.0000 C   0  0  0  0  0  0  0  0  0  0  0  0
    2.1657   -2.0645    0.0000 C   0  0  0  0  0  0  0  0  0  0  0  0
    4.4507    0.7703    0.0000 C   0  0  0  0  0  0  0  0  0  0  0  0
    5.1669    1.1844    0.0000 C   0  0  0  0  0  0  0  0  0  0  0  0
    5.1669    2.0125    0.0000 C   0  0  0  0  0  0  0  0  0  0  0  0
    4.4507    2.4220    0.0000 C   0  0  0  0  0  0  0  0  0  0  0  0
    4.6359    3.2443    0.0000 C   0  0  0  0  0  0  0  0  0  0  0  0
    5.4354    3.3272    0.0000 C   0  0  0  0  0  0  0  0  0  0  0  0
    5.7673    2.5617    0.0000 N   0  0  0  0  0  0  0  0  0  0  0  0
    6.5688    2.3547    0.0000 C   0  0  0  0  0  0  0  0  0  0  0  0
    6.7760    1.5575    0.0000 C   0  0  0  0  0  0  0  0  0  0  0  0
    7.5731    1.3412    0.0000 C   0  0  0  0  0  0  0  0  0  0  0  0
    7.7895    0.5486    0.0000 C   0  0  0  0  0  0  0  0  0  0  0  0
    8.8931    0.4436    0.0000 S   0  0  0  0  0  0  0  0  0  0  0  0
    9.1760   -0.4046    0.0000 O   0  0  0  0  0  0  0  0  0  0  0  0
    8.6557    1.4321    0.0000 O   0  0  0  0  0  0  0  0  0  0  0  0
    9.8419    0.9214    0.0000 O   0  0  0  0  0  0  0  0  0  0  0  0
    5.7669    4.0620    0.0000 C   0  0  0  0  0  0  0  0  0  0  0  0
    5.2908    4.7172    0.0000 C   0  0  0  0  0  0  0  0  0  0  0  0
    4.4982    4.6321    0.0000 C   0  0  0  0  0  0  0  0  0  0  0  0
    4.1688    3.8975    0.0000 C   0  0  0  0  0  0  0  0  0  0  0  0
    4.0838    5.3437    0.0000 S   0  0  0  0  0  0  0  0  0  0  0  0
    4.4968    6.0657    0.0000 O   0  0  0  0  0  0  0  0  0  0  0  0
    3.3674    5.7626    0.0000 O   0  0  0  0  0  0  0  0  0  0  0  0
    3.6699    4.6320    0.0000 O   0  0  0  0  0  0  0  0  0  0  0  0
    3.7344    2.0125    0.0000 C   0  0  0  0  0  0  0  0  0  0  0  0
    3.7867    2.9122    0.0000 C   0  0  0  0  0  0  0  0  0  0  0  0
   -0.5519   -0.4593    0.0000 C   0  0  0  0  0  0  0  0  0  0  0  0
   -1.2682   -0.0500    0.0000 O   0  0  0  0  0  0  0  0  0  0  0  0
    0.1595   -0.0500    0.0000 O   0  0  0  0  0  0  0  0  0  0  0  0
   -1.9799   -0.4593    0.0000 O   0  0  0  0  0  0  0  0  0  0  0  0
  2  1  2  0  0  0  0
  3  2  1  0  0  0  0
  4  3  2  0  0  0  0
  5  4  1  0  0  0  0
  6  5  2  0  0  0  0
  1  6  1  0  0  0  0
  6  7  1  0  0  0  0
  8  7  2  0  0  0  0
  9  8  1  0  0  0  0
 10  9  1  0  0  0  0
  1 10  1  0  0  0  0
 10 11  2  0  0  0  0
  8 12  1  0  0  0  0
  3 13  1  0  0  0  0
 13 14  1  0  0  0  0
 14 15  1  0  0  0  0
 16 15  2  0  0  0  0
 17 16  1  0  0  0  0
 18 17  2  0  0  0  0
 19 18  1  0  0  0  0
 20 19  2  0  0  0  0
 15 20  1  0  0  0  0
 18 21  1  0  0  0  0
 21 22  1  0  0  0  0
 22 23  1  0  0  0  0
 23 24  1  0  0  0  0
 24 25  1  0  0  0  0
 26 25  2  0  0  0  0
 27 26  1  0  0  0  0
 28 27  2  0  0  0  0
 29 28  1  0  0  0  0
 30 29  2  0  0  0  0
 25 30  1  0  0  0  0
 28 31  1  0  0  0  0
 31 32  1  0  0  0  0
 33 32  1  0  0  0  0
 34 33  1  0  0  0  0
 35 34  1  0  0  0  0
 36 35  1  0  0  0  0
 37 36  1  0  0  0  0
 32 37  2  0  0  0  0
 37 38  1  0  0  0  0
 38 39  2  0  0  0  0
 39 40  1  0  0  0  0
 41 40  1  0  0  0  0
 41 42  1  0  0  0  0
 42 43  2  0  0  0  0
 43 44  1  0  0  0  0
 44 40  2  0  0  0  0
 44 45  1  0  0  0  0
 45 46  1  0  0  0  0
 46 47  1  0  0  0  0
 47 48  1  0  0  0  0
 48 49  1  0  0  0  0
 49 50  2  0  0  0  0
 49 51  2  0  0  0  0
 49 52  1  0  0  0  0
 43 53  1  0  0  0  0
 54 53  2  0  0  0  0
 55 54  1  0  0  0  0
 56 55  2  0  0  0  0
 42 56  1  0  0  0  0
 55 57  1  0  0  0  0
 57 58  1  0  0  0  0
 57 59  2  0  0  0  0
 57 60  2  0  0  0  0
 41 61  1  0  0  0  0
 41 62  1  0  0  0  0
 33 63  2  0  0  0  0
 63 64  1  0  0  0  0
 64 65  2  0  0  0  0
 66 65  1  0  0  0  0
 66 67  1  0  0  0  0
 67 68  2  0  0  0  0
 69 68  1  0  0  0  0
 65 69  1  0  0  0  0
 69 70  1  0  0  0  0
 70 71  1  0  0  0  0
 71 72  1  0  0  0  0
 72 73  1  0  0  0  0
 73 74  1  0  0  0  0
 74 75  1  0  0  0  0
 74 76  2  0  0  0  0
 74 77  2  0  0  0  0
 68 78  1  0  0  0  0
 78 79  2  0  0  0  0
 79 80  1  0  0  0  0
 80 81  2  0  0  0  0
 67 81  1  0  0  0  0
 80 82  1  0  0  0  0
 82 83  1  0  0  0  0
 82 84  2  0  0  0  0
 82 85  2  0  0  0  0
 66 86  1  0  0  0  0
 66 87  1  0  0  0  0
 23 88  1  6  0  0  0
 88 89  2  0  0  0  0
 88 90  1  0  0  0  0
 21 91  2  0  0  0  0
M  CHG  2  44   1  58  -1
M  END
> <DATABASE_ID>
DB15413

> <DATABASE_NAME>
drugbank

> <SMILES>
CC1(C)\C(=C/C=C2\CCCC(\C=C\C3=[N+](CCCCS(O)(=O)=O)C4=C(C=C(C=C4)S([O-])(=O)=O)C3(C)C)=C2OC2=CC=C(C[C@H](NC(=O)C3=CC=C(NCC4=CN=C5N=C(N)NC(=O)C5=N4)C=C3)C(O)=O)C=C2)N(CCCCS(O)(=O)=O)C2=C1C=C(C=C2)S(O)(=O)=O

> <INCHI_IDENTIFIER>
InChI=1S/C61H67N9O17S4/c1-60(2)46-33-44(90(81,82)83)22-24-49(46)69(28-5-7-30-88(75,76)77)51(60)26-16-38-10-9-11-39(17-27-52-61(3,4)47-34-45(91(84,85)86)23-25-50(47)70(52)29-6-8-31-89(78,79)80)54(38)87-43-20-12-37(13-21-43)32-48(58(73)74)66-56(71)40-14-18-41(19-15-40)63-35-42-36-64-55-53(65-42)57(72)68-59(62)67-55/h12-27,33-34,36,48H,5-11,28-32,35H2,1-4H3,(H9-,62,63,64,66,67,68,71,72,73,74,75,76,77,78,79,80,81,82,83,84,85,86)/t48-/m0/s1

> <INCHI_KEY>
PDXNSXLPXJFETD-DYVQZXGMSA-N

> <FORMULA>
C61H67N9O17S4

> <MOLECULAR_WEIGHT>
1326.49

> <EXACT_MASS>
1325.353776429

> <JCHEM_ACCEPTOR_COUNT>
23

> <JCHEM_ATOM_COUNT>
158

> <JCHEM_AVERAGE_NEUTRAL_MICROSPECIES_CHARGE>
-0.40120027035010075

> <JCHEM_AVERAGE_POLARIZABILITY>
139.20731542927336

> <JCHEM_BIOAVAILABILITY>
0

> <JCHEM_DONOR_COUNT>
8

> <JCHEM_FORMAL_CHARGE>
0

> <JCHEM_GHOSE_FILTER>
0

> <JCHEM_IUPAC>
2-[(1E)-2-[(3E)-2-{4-[(2S)-2-[(4-{[(2-amino-4-oxo-3,4-dihydropteridin-6-yl)methyl]amino}phenyl)formamido]-2-carboxyethyl]phenoxy}-3-{2-[(2E)-3,3-dimethyl-5-sulfo-1-(4-sulfobutyl)-2,3-dihydro-1H-indol-2-ylidene]ethylidene}cyclohex-1-en-1-yl]ethenyl]-3,3-dimethyl-1-(4-sulfobutyl)-3H-indol-1-ium-5-sulfonate

> <ALOGPS_LOGP>
0.93

> <JCHEM_LOGP>
2.255756991444677

> <ALOGPS_LOGS>
-5.64

> <JCHEM_MDDR_LIKE_RULE>
1

> <JCHEM_NEUTRAL_CHARGE>
-4

> <JCHEM_NUMBER_OF_RINGS>
9

> <JCHEM_PHYSIOLOGICAL_CHARGE>
-4

> <JCHEM_PKA>
-1.6106465518848518

> <JCHEM_PKA_STRONGEST_ACIDIC>
-2.1719320592102505

> <JCHEM_PKA_STRONGEST_BASIC>
2.121695326005549

> <JCHEM_POLAR_SURFACE_AREA>
407.47999999999996

> <JCHEM_REFRACTIVITY>
355.0796000000001

> <JCHEM_ROTATABLE_BOND_COUNT>
25

> <JCHEM_RULE_OF_FIVE>
0

> <ALOGPS_SOLUBILITY>
3.13e-03 g/l

> <JCHEM_TRADITIONAL_IUPAC>
2-[(1E)-2-[(3E)-2-{4-[(2S)-2-[(4-{[(2-amino-4-oxo-3H-pteridin-6-yl)methyl]amino}phenyl)formamido]-2-carboxyethyl]phenoxy}-3-{2-[(2E)-3,3-dimethyl-5-sulfo-1-(4-sulfobutyl)indol-2-ylidene]ethylidene}cyclohex-1-en-1-yl]ethenyl]-3,3-dimethyl-1-(4-sulfobutyl)indol-1-ium-5-sulfonate

> <JCHEM_VEBER_RULE>
0

> <DRUGBANK_ID>
DB15413

> <DRUG_GROUPS>
approved; investigational

> <GENERIC_NAME>
Pafolacianine

> <PRODUCTS>
Cytalux

> <SALTS>
Pafolacianine sodium

$$$$
