
  Mrv1572004221606572D          

 24 25  0  0  0  0            999 V2000
    2.8579   -3.3000    0.0000 C   0  0  0  0  0  0  0  0  0  0  0  0
    3.5724   -2.8875    0.0000 C   0  0  0  0  0  0  0  0  0  0  0  0
    2.1434   -2.8875    0.0000 C   0  0  0  0  0  0  0  0  0  0  0  0
    3.5724   -2.0625    0.0000 C   0  0  0  0  0  0  0  0  0  0  0  0
    2.1434   -2.0625    0.0000 C   0  0  0  0  0  0  0  0  0  0  0  0
    4.2868   -0.8250    0.0000 C   0  0  0  0  0  0  0  0  0  0  0  0
    3.5724   -0.4125    0.0000 C   0  0  0  0  0  0  0  0  0  0  0  0
    1.4289    1.6500    0.0000 C   0  0  0  0  0  0  0  0  0  0  0  0
    2.8579   -1.6500    0.0000 C   0  0  0  0  0  0  0  0  0  0  0  0
    1.4289    0.8250    0.0000 C   0  0  0  0  0  0  0  0  0  0  0  0
    2.1434    2.0625    0.0000 C   0  0  0  0  0  0  0  0  0  0  0  0
    5.0013   -0.4125    0.0000 C   0  0  0  0  0  0  0  0  0  0  0  0
    2.1434    0.4125    0.0000 C   0  0  0  0  0  0  0  0  0  0  0  0
    2.8579    0.8250    0.0000 C   0  0  0  0  0  0  0  0  0  0  0  0
    2.8579    1.6500    0.0000 C   0  0  0  0  0  0  0  0  0  0  0  0
    2.1434   -0.4125    0.0000 C   0  0  0  0  0  0  0  0  0  0  0  0
    0.7145    0.4125    0.0000 I   0  0  0  0  0  0  0  0  0  0  0  0
    2.1434    2.8875    0.0000 I   0  0  0  0  0  0  0  0  0  0  0  0
    3.5724    0.4125    0.0000 I   0  0  0  0  0  0  0  0  0  0  0  0
    3.5724    2.0625    0.0000 N   0  0  0  0  0  0  0  0  0  0  0  0
    2.8579   -0.8250    0.0000 N   0  0  0  0  0  0  0  0  0  0  0  0
    5.0013    0.4125    0.0000 O   0  0  0  0  0  0  0  0  0  0  0  0
    5.7158   -0.8250    0.0000 O   0  0  0  0  0  0  0  0  0  0  0  0
    1.4289   -0.8250    0.0000 O   0  0  0  0  0  0  0  0  0  0  0  0
  2  1  2  0  0  0  0
  3  1  1  0  0  0  0
  4  2  1  0  0  0  0
  5  3  2  0  0  0  0
  7  6  1  0  0  0  0
  9  4  2  0  0  0  0
  9  5  1  0  0  0  0
 10  8  2  0  0  0  0
 11  8  1  0  0  0  0
 12  6  1  0  0  0  0
 13 10  1  0  0  0  0
 14 13  2  0  0  0  0
 15 11  2  0  0  0  0
 15 14  1  0  0  0  0
 16 13  1  0  0  0  0
 17 10  1  0  0  0  0
 18 11  1  0  0  0  0
 19 14  1  0  0  0  0
 20 15  1  0  0  0  0
 21  7  1  0  0  0  0
 21  9  1  0  0  0  0
 21 16  1  0  0  0  0
 22 12  2  0  0  0  0
 23 12  1  0  0  0  0
 24 16  2  0  0  0  0
M  END
> <DATABASE_ID>
DB13428

> <DATABASE_NAME>
drugbank

> <SMILES>
NC1=C(I)C=C(I)C(C(=O)N(CCC(O)=O)C2=CC=CC=C2)=C1I

> <INCHI_IDENTIFIER>
InChI=1S/C16H13I3N2O3/c17-10-8-11(18)15(20)14(19)13(10)16(24)21(7-6-12(22)23)9-4-2-1-3-5-9/h1-5,8H,6-7,20H2,(H,22,23)

> <INCHI_KEY>
FJYJNLIEGUTPIJ-UHFFFAOYSA-N

> <FORMULA>
C16H13I3N2O3

> <MOLECULAR_WEIGHT>
662.004

> <EXACT_MASS>
661.80603

> <JCHEM_ACCEPTOR_COUNT>
4

> <JCHEM_ATOM_COUNT>
37

> <JCHEM_AVERAGE_POLARIZABILITY>
44.6505246275521

> <JCHEM_BIOAVAILABILITY>
1

> <JCHEM_DONOR_COUNT>
2

> <JCHEM_FORMAL_CHARGE>
0

> <JCHEM_GHOSE_FILTER>
0

> <JCHEM_IUPAC>
3-[1-(3-amino-2,4,6-triiodophenyl)-N-phenylformamido]propanoic acid

> <ALOGPS_LOGP>
3.46

> <JCHEM_LOGP>
4.475588233187607

> <ALOGPS_LOGS>
-4.85

> <JCHEM_MDDR_LIKE_RULE>
0

> <JCHEM_NUMBER_OF_RINGS>
2

> <JCHEM_PHYSIOLOGICAL_CHARGE>
-1

> <JCHEM_PKA>
18.069363913696986

> <JCHEM_PKA_STRONGEST_ACIDIC>
2.6955268944292623

> <JCHEM_PKA_STRONGEST_BASIC>
0.9336806779171948

> <JCHEM_POLAR_SURFACE_AREA>
83.63

> <JCHEM_REFRACTIVITY>
120.27930000000002

> <JCHEM_ROTATABLE_BOND_COUNT>
5

> <JCHEM_RULE_OF_FIVE>
0

> <ALOGPS_SOLUBILITY>
9.29e-03 g/l

> <JCHEM_TRADITIONAL_IUPAC>
osbil

> <JCHEM_VEBER_RULE>
0

> <DRUGBANK_ID>
DB13428

> <DRUG_GROUPS>
experimental

> <GENERIC_NAME>
Iobenzamic acid

> <SYNONYMS>
Iobenzamic acid

$$$$
