
  Mrv1909 05201914302D          

 20 21  0  0  0  0            999 V2000
    1.4289   -1.6500    0.0000 O   0  0  0  0  0  0  0  0  0  0  0  0
    1.4289   -2.4750    0.0000 C   0  0  0  0  0  0  0  0  0  0  0  0
    2.1434   -2.8875    0.0000 C   0  0  0  0  0  0  0  0  0  0  0  0
    2.8579   -2.4750    0.0000 O   0  0  0  0  0  0  0  0  0  0  0  0
    2.1434   -3.7125    0.0000 C   0  0  0  0  0  0  0  0  0  0  0  0
    1.4289   -4.1250    0.0000 C   0  0  0  0  0  0  0  0  0  0  0  0
    0.7145   -3.7125    0.0000 C   0  0  0  0  0  0  0  0  0  0  0  0
    0.7145   -2.8875    0.0000 C   0  0  0  0  0  0  0  0  0  0  0  0
    0.0000   -4.1250    0.0000 C   0  0  0  0  0  0  0  0  0  0  0  0
   -0.7145   -3.7125    0.0000 O   0  0  0  0  0  0  0  0  0  0  0  0
    0.0000   -4.9500    0.0000 C   0  0  0  0  0  0  0  0  0  0  0  0
   -0.7145   -5.3625    0.0000 C   0  0  0  0  0  0  0  0  0  0  0  0
   -0.7145   -6.1875    0.0000 C   0  0  0  0  0  0  0  0  0  0  0  0
   -1.4289   -6.6000    0.0000 C   0  0  0  0  0  0  0  0  0  0  0  0
   -2.1434   -6.1875    0.0000 C   0  0  0  0  0  0  0  0  0  0  0  0
   -2.1434   -5.3625    0.0000 C   0  0  0  0  0  0  0  0  0  0  0  0
   -1.4289   -4.9500    0.0000 C   0  0  0  0  0  0  0  0  0  0  0  0
    2.8579   -4.1250    0.0000 N   0  3  0  0  0  0  0  0  0  0  0  0
    2.8579   -4.9500    0.0000 O   0  5  0  0  0  0  0  0  0  0  0  0
    3.5724   -3.7125    0.0000 O   0  0  0  0  0  0  0  0  0  0  0  0
  1  2  1  0  0  0  0
  2  3  2  0  0  0  0
  3  4  1  0  0  0  0
  3  5  1  0  0  0  0
  5  6  2  0  0  0  0
  6  7  1  0  0  0  0
  7  8  2  0  0  0  0
  2  8  1  0  0  0  0
  7  9  1  0  0  0  0
  9 10  2  0  0  0  0
  9 11  1  0  0  0  0
 11 12  1  0  0  0  0
 12 13  2  0  0  0  0
 13 14  1  0  0  0  0
 14 15  2  0  0  0  0
 15 16  1  0  0  0  0
 16 17  2  0  0  0  0
 12 17  1  0  0  0  0
  5 18  1  0  0  0  0
 18 19  1  0  0  0  0
 18 20  2  0  0  0  0
M  CHG  2  18   1  19  -1
M  END
> <DATABASE_ID>
DB14849

> <DATABASE_NAME>
drugbank

> <SMILES>
OC1=C(O)C(=CC(=C1)C(=O)CC1=CC=CC=C1)[N+]([O-])=O

> <INCHI_IDENTIFIER>
InChI=1S/C14H11NO5/c16-12(6-9-4-2-1-3-5-9)10-7-11(15(19)20)14(18)13(17)8-10/h1-5,7-8,17-18H,6H2

> <INCHI_KEY>
MRFOLGFFTUGAEB-UHFFFAOYSA-N

> <FORMULA>
C14H11NO5

> <MOLECULAR_WEIGHT>
273.244

> <EXACT_MASS>
273.063722458

> <JCHEM_ACCEPTOR_COUNT>
5

> <JCHEM_ATOM_COUNT>
31

> <JCHEM_AVERAGE_POLARIZABILITY>
26.51799160634005

> <JCHEM_BIOAVAILABILITY>
1

> <JCHEM_DONOR_COUNT>
2

> <JCHEM_FORMAL_CHARGE>
0

> <JCHEM_GHOSE_FILTER>
1

> <JCHEM_IUPAC>
1-(3,4-dihydroxy-5-nitrophenyl)-2-phenylethan-1-one

> <ALOGPS_LOGP>
2.59

> <JCHEM_LOGP>
2.698086700333333

> <ALOGPS_LOGS>
-3.56

> <JCHEM_MDDR_LIKE_RULE>
0

> <JCHEM_NUMBER_OF_RINGS>
2

> <JCHEM_PHYSIOLOGICAL_CHARGE>
-1

> <JCHEM_PKA>
10.337485622057965

> <JCHEM_PKA_STRONGEST_ACIDIC>
5.500862881396674

> <JCHEM_PKA_STRONGEST_BASIC>
-6.465056503372788

> <JCHEM_POLAR_SURFACE_AREA>
100.66999999999999

> <JCHEM_REFRACTIVITY>
71.465

> <JCHEM_ROTATABLE_BOND_COUNT>
4

> <JCHEM_RULE_OF_FIVE>
1

> <ALOGPS_SOLUBILITY>
7.50e-02 g/l

> <JCHEM_TRADITIONAL_IUPAC>
(2R)-14-fluoro-2-methyl-6,9,10,19-tetraazapentacyclo[14.2.1.0^{2,6}.0^{8,18}.0^{12,17}]nonadeca-1(18),8,12(17),13,15-pentaen-11-one

> <JCHEM_VEBER_RULE>
0

> <DRUGBANK_ID>
DB14849

> <DRUG_GROUPS>
investigational

> <GENERIC_NAME>
Nebicapone

> <SYNONYMS>
Nebicapone

$$$$
