
  Mrv1909 11211903092D          

 77 77  0  0  0  0            999 V2000
   -2.8886   -0.4122    0.0000 C   0  0  0  0  0  0  0  0  0  0  0  0
   -3.6032    0.0000    0.0000 C   0  0  0  0  0  0  0  0  0  0  0  0
   -4.3179   -0.4122    0.0000 C   0  0  0  0  0  0  0  0  0  0  0  0
   -5.0050    0.0000    0.0000 C   0  0  0  0  0  0  0  0  0  0  0  0
   -5.7196   -0.4122    0.0000 C   0  0  0  0  0  0  0  0  0  0  0  0
   -6.4342    0.0000    0.0000 C   0  0  0  0  0  0  0  0  0  0  0  0
   -7.1489   -0.4122    0.0000 C   0  0  0  0  0  0  0  0  0  0  0  0
   -7.8305    0.0000    0.0000 C   0  0  0  0  0  0  0  0  0  0  0  0
   -8.5451   -0.4122    0.0000 C   0  0  0  0  0  0  0  0  0  0  0  0
   -9.2597    0.0000    0.0000 C   0  0  0  0  0  0  0  0  0  0  0  0
   -9.9744   -0.4122    0.0000 C   0  0  0  0  0  0  0  0  0  0  0  0
  -10.6889    0.0000    0.0000 C   0  0  0  0  0  0  0  0  0  0  0  0
  -11.4036   -0.4122    0.0000 C   0  0  0  0  0  0  0  0  0  0  0  0
  -12.1182    0.0000    0.0000 C   0  0  0  0  0  0  0  0  0  0  0  0
  -12.8328   -0.4122    0.0000 C   0  0  0  0  0  0  0  0  0  0  0  0
  -13.5475    0.0000    0.0000 C   0  0  0  0  0  0  0  0  0  0  0  0
   -2.8886   -1.2368    0.0000 O   0  0  0  0  0  0  0  0  0  0  0  0
   -2.1740    0.0000    0.0000 N   0  0  0  0  0  0  0  0  0  0  0  0
   -1.4594   -0.4122    0.0000 C   0  0  2  0  0  0  0  0  0  0  0  0
   -0.7448    0.0000    0.0000 C   0  0  0  0  0  0  0  0  0  0  0  0
   -0.0302   -0.4122    0.0000 N   0  0  0  0  0  0  0  0  0  0  0  0
    0.6843    0.0000    0.0000 C   0  0  2  0  0  0  0  0  0  0  0  0
    1.3990   -0.4122    0.0000 C   0  0  0  0  0  0  0  0  0  0  0  0
    2.1136    0.0000    0.0000 N   0  0  0  0  0  0  0  0  0  0  0  0
    2.8282   -0.4122    0.0000 C   0  0  2  0  0  0  0  0  0  0  0  0
    3.5428    0.0000    0.0000 C   0  0  0  0  0  0  0  0  0  0  0  0
    4.2575   -0.4122    0.0000 N   0  0  0  0  0  0  0  0  0  0  0  0
    4.9720    0.0000    0.0000 C   0  0  2  0  0  0  0  0  0  0  0  0
    5.6867   -0.4122    0.0000 C   0  0  0  0  0  0  0  0  0  0  0  0
    6.4013    0.0000    0.0000 N   0  0  0  0  0  0  0  0  0  0  0  0
    7.1159   -0.4122    0.0000 C   0  0  2  0  0  0  0  0  0  0  0  0
    7.8305    0.0000    0.0000 C   0  0  0  0  0  0  0  0  0  0  0  0
    8.5452   -0.4122    0.0000 N   0  0  0  0  0  0  0  0  0  0  0  0
    9.2597    0.0000    0.0000 C   0  0  2  0  0  0  0  0  0  0  0  0
    9.9744   -0.4122    0.0000 C   0  0  0  0  0  0  0  0  0  0  0  0
   10.6890    0.0000    0.0000 N   0  0  0  0  0  0  0  0  0  0  0  0
   11.4036   -0.4122    0.0000 C   0  0  2  0  0  0  0  0  0  0  0  0
   12.1183    0.0000    0.0000 C   0  0  0  0  0  0  0  0  0  0  0  0
   12.1183    0.8246    0.0000 O   0  0  0  0  0  0  0  0  0  0  0  0
   12.8329   -0.4122    0.0000 N   0  0  0  0  0  0  0  0  0  0  0  0
   11.4036   -1.2368    0.0000 C   0  0  0  0  0  0  0  0  0  0  0  0
   12.1183   -1.6491    0.0000 C   0  0  0  0  0  0  0  0  0  0  0  0
   12.8329   -1.2368    0.0000 C   0  0  0  0  0  0  0  0  0  0  0  0
   13.5475   -1.6491    0.0000 C   0  0  0  0  0  0  0  0  0  0  0  0
   13.5475   -2.4737    0.0000 C   0  0  0  0  0  0  0  0  0  0  0  0
   12.8329   -2.8859    0.0000 C   0  0  0  0  0  0  0  0  0  0  0  0
   12.1183   -2.4737    0.0000 C   0  0  0  0  0  0  0  0  0  0  0  0
    9.9744   -1.2368    0.0000 O   0  0  0  0  0  0  0  0  0  0  0  0
    9.2597    0.8246    0.0000 C   0  0  0  0  0  0  0  0  0  0  0  0
    9.9744    1.2368    0.0000 C   0  0  0  0  0  0  0  0  0  0  0  0
   10.6890    0.8246    0.0000 C   0  0  0  0  0  0  0  0  0  0  0  0
    9.9744    2.0613    0.0000 C   0  0  0  0  0  0  0  0  0  0  0  0
    7.8305    0.8246    0.0000 O   0  0  0  0  0  0  0  0  0  0  0  0
    7.1159   -1.2368    0.0000 C   0  0  0  0  0  0  0  0  0  0  0  0
    5.6867   -1.2368    0.0000 O   0  0  0  0  0  0  0  0  0  0  0  0
    4.9720    0.8246    0.0000 C   0  0  0  0  0  0  0  0  0  0  0  0
    5.6867    1.2368    0.0000 C   0  0  0  0  0  0  0  0  0  0  0  0
    5.6867    2.0613    0.0000 C   0  0  0  0  0  0  0  0  0  0  0  0
    6.4013    2.4737    0.0000 N   0  0  0  0  0  0  0  0  0  0  0  0
    6.4013    3.2982    0.0000 C   0  0  0  0  0  0  0  0  0  0  0  0
    5.6867    3.7105    0.0000 N   0  0  0  0  0  0  0  0  0  0  0  0
    7.1159    3.7105    0.0000 N   0  0  0  0  0  0  0  0  0  0  0  0
    3.5428    0.8246    0.0000 O   0  0  0  0  0  0  0  0  0  0  0  0
    2.8282   -1.2368    0.0000 C   0  0  0  0  0  0  0  0  0  0  0  0
    3.5428   -1.6491    0.0000 O   0  0  0  0  0  0  0  0  0  0  0  0
    1.3990   -1.2368    0.0000 O   0  0  0  0  0  0  0  0  0  0  0  0
    0.6843    0.8246    0.0000 C   0  0  0  0  0  0  0  0  0  0  0  0
    1.3990    1.2368    0.0000 C   0  0  0  0  0  0  0  0  0  0  0  0
    1.3990    2.0613    0.0000 C   0  0  0  0  0  0  0  0  0  0  0  0
    2.1136    2.4737    0.0000 C   0  0  0  0  0  0  0  0  0  0  0  0
    2.1136    3.2982    0.0000 N   0  0  0  0  0  0  0  0  0  0  0  0
   -0.7448    0.8246    0.0000 O   0  0  0  0  0  0  0  0  0  0  0  0
   -1.4594   -1.2368    0.0000 C   0  0  0  0  0  0  0  0  0  0  0  0
   -2.1740   -1.6491    0.0000 C   0  0  0  0  0  0  0  0  0  0  0  0
   -2.1740   -2.4737    0.0000 C   0  0  0  0  0  0  0  0  0  0  0  0
   -2.8886   -2.8859    0.0000 C   0  0  0  0  0  0  0  0  0  0  0  0
   -2.8886   -3.7105    0.0000 N   0  0  0  0  0  0  0  0  0  0  0  0
  1  2  1  0  0  0  0
  2  3  1  0  0  0  0
  3  4  1  0  0  0  0
  4  5  1  0  0  0  0
  5  6  1  0  0  0  0
  6  7  1  0  0  0  0
  7  8  1  0  0  0  0
  8  9  1  0  0  0  0
  9 10  1  0  0  0  0
 10 11  1  0  0  0  0
 11 12  1  0  0  0  0
 12 13  1  0  0  0  0
 13 14  1  0  0  0  0
 14 15  1  0  0  0  0
 15 16  1  0  0  0  0
  1 17  2  0  0  0  0
  1 18  1  0  0  0  0
 18 19  1  0  0  0  0
 20 19  1  0  0  0  0
 21 20  1  0  0  0  0
 22 21  1  0  0  0  0
 23 22  1  0  0  0  0
 24 23  1  0  0  0  0
 25 24  1  0  0  0  0
 26 25  1  0  0  0  0
 27 26  1  0  0  0  0
 28 27  1  0  0  0  0
 29 28  1  0  0  0  0
 30 29  1  0  0  0  0
 31 30  1  0  0  0  0
 32 31  1  0  0  0  0
 33 32  1  0  0  0  0
 34 33  1  0  0  0  0
 35 34  1  0  0  0  0
 36 35  1  0  0  0  0
 37 36  1  0  0  0  0
 38 37  1  0  0  0  0
 38 39  2  0  0  0  0
 38 40  1  0  0  0  0
 37 41  1  6  0  0  0
 41 42  1  0  0  0  0
 42 43  1  0  0  0  0
 43 44  2  0  0  0  0
 44 45  1  0  0  0  0
 45 46  2  0  0  0  0
 46 47  1  0  0  0  0
 42 47  2  0  0  0  0
 35 48  2  0  0  0  0
 34 49  1  1  0  0  0
 49 50  1  0  0  0  0
 50 51  1  0  0  0  0
 50 52  1  0  0  0  0
 32 53  2  0  0  0  0
 31 54  1  6  0  0  0
 29 55  2  0  0  0  0
 28 56  1  1  0  0  0
 56 57  1  0  0  0  0
 57 58  1  0  0  0  0
 58 59  1  0  0  0  0
 59 60  1  0  0  0  0
 60 61  2  0  0  0  0
 60 62  1  0  0  0  0
 26 63  2  0  0  0  0
 25 64  1  6  0  0  0
 64 65  1  0  0  0  0
 23 66  2  0  0  0  0
 22 67  1  1  0  0  0
 67 68  1  0  0  0  0
 68 69  1  0  0  0  0
 69 70  1  0  0  0  0
 70 71  1  0  0  0  0
 20 72  2  0  0  0  0
 19 73  1  6  0  0  0
 73 74  1  0  0  0  0
 74 75  1  0  0  0  0
 75 76  1  0  0  0  0
 76 77  1  0  0  0  0
M  END
> <DATABASE_ID>
DB11839

> <DATABASE_NAME>
drugbank

> <SMILES>
CCCCCCCCCCCCCCCC(=O)N[C@@H](CCCCN)C(=O)N[C@@H](CCCCN)C(=O)N[C@@H](CO)C(=O)N[C@@H](CCCNC(N)=N)C(=O)N[C@@H](C)C(=O)N[C@@H](CC(C)C)C(=O)N[C@@H](CC1=CC=CC=C1)C(N)=O

> <INCHI_IDENTIFIER>
InChI=1S/C55H99N13O9/c1-5-6-7-8-9-10-11-12-13-14-15-16-20-31-47(70)63-41(28-21-23-32-56)51(74)64-42(29-22-24-33-57)52(75)68-46(37-69)54(77)65-43(30-25-34-61-55(59)60)50(73)62-39(4)49(72)67-45(35-38(2)3)53(76)66-44(48(58)71)36-40-26-18-17-19-27-40/h17-19,26-27,38-39,41-46,69H,5-16,20-25,28-37,56-57H2,1-4H3,(H2,58,71)(H,62,73)(H,63,70)(H,64,74)(H,65,77)(H,66,76)(H,67,72)(H,68,75)(H4,59,60,61)/t39-,41-,42-,43-,44-,45-,46-/m0/s1

> <INCHI_KEY>
VZRIKWNVDCTBTF-BKGFHLQYSA-N

> <FORMULA>
C55H99N13O9

> <MOLECULAR_WEIGHT>
1086.479

> <EXACT_MASS>
1085.76887182

> <JCHEM_ACCEPTOR_COUNT>
14

> <JCHEM_ATOM_COUNT>
176

> <JCHEM_AVERAGE_POLARIZABILITY>
124.62625310447152

> <JCHEM_BIOAVAILABILITY>
0

> <JCHEM_DONOR_COUNT>
14

> <JCHEM_FORMAL_CHARGE>
0

> <JCHEM_GHOSE_FILTER>
0

> <JCHEM_IUPAC>
N-[(1S)-5-amino-1-{[(1S)-5-amino-1-{[(1S)-1-{[(1S)-4-carbamimidamido-1-{[(1S)-1-{[(1S)-1-{[(1S)-1-carbamoyl-2-phenylethyl]carbamoyl}-3-methylbutyl]carbamoyl}ethyl]carbamoyl}butyl]carbamoyl}-2-hydroxyethyl]carbamoyl}pentyl]carbamoyl}pentyl]hexadecanamide

> <ALOGPS_LOGP>
2.78

> <JCHEM_LOGP>
1.732062281227299

> <ALOGPS_LOGS>
-5.59

> <JCHEM_MDDR_LIKE_RULE>
0

> <JCHEM_NUMBER_OF_RINGS>
1

> <JCHEM_PHYSIOLOGICAL_CHARGE>
3

> <JCHEM_PKA>
12.200560139580395

> <JCHEM_PKA_STRONGEST_ACIDIC>
11.512558888941468

> <JCHEM_PKA_STRONGEST_BASIC>
11.89994261985931

> <JCHEM_POLAR_SURFACE_AREA>
380.9599999999999

> <JCHEM_REFRACTIVITY>
307.8741

> <JCHEM_ROTATABLE_BOND_COUNT>
45

> <JCHEM_RULE_OF_FIVE>
0

> <ALOGPS_SOLUBILITY>
2.82e-03 g/l

> <JCHEM_TRADITIONAL_IUPAC>
4-{[2-amino-2-({2-carboxy-1-[(1-carboxy-2-sulfanylethyl)carbamoyl]ethyl}carbamoyl)ethyl]carbamoyl}-2-[(4-{[(4-oxo-1H-pteridin-6-yl)methyl]amino}phenyl)formamido]butanoic acid

> <JCHEM_VEBER_RULE>
0

> <DRUGBANK_ID>
DB11839

> <DRUG_GROUPS>
investigational

> <GENERIC_NAME>
PZ-128

$$$$
