
  Mrv1652306031606522D          

 18 19  0  0  1  0            999 V2000
    2.8579   -1.6500    0.0000 C   0  0  0  0  0  0  0  0  0  0  0  0
    3.5724   -1.2375    0.0000 C   0  0  0  0  0  0  0  0  0  0  0  0
    2.1434   -1.2375    0.0000 C   0  0  0  0  0  0  0  0  0  0  0  0
    3.5724   -0.4125    0.0000 C   0  0  0  0  0  0  0  0  0  0  0  0
    2.1434   -0.4125    0.0000 C   0  0  0  0  0  0  0  0  0  0  0  0
    2.1434    2.0625    0.0000 C   0  0  0  0  0  0  0  0  0  0  0  0
    3.5724    2.0625    0.0000 C   0  0  0  0  0  0  0  0  0  0  0  0
    2.1434    1.2375    0.0000 C   0  0  0  0  0  0  0  0  0  0  0  0
    3.5724    1.2375    0.0000 C   0  0  0  0  0  0  0  0  0  0  0  0
    2.8579    3.3000    0.0000 C   0  0  0  0  0  0  0  0  0  0  0  0
    2.1434    4.5375    0.0000 C   0  0  0  0  0  0  0  0  0  0  0  0
    2.8579    0.0000    0.0000 C   0  0  0  0  0  0  0  0  0  0  0  0
    2.1434    3.7125    0.0000 C   0  0  1  0  0  0  0  0  0  0  0  0
    2.8579    2.4750    0.0000 N   0  0  0  0  0  0  0  0  0  0  0  0
    2.8579    0.8250    0.0000 N   0  0  0  0  0  0  0  0  0  0  0  0
    1.4289    4.9500    0.0000 O   0  0  0  0  0  0  0  0  0  0  0  0
    1.4289    3.3000    0.0000 O   0  0  0  0  0  0  0  0  0  0  0  0
    2.8579    4.1250    0.0000 H   0  0  0  0  0  0  0  0  0  0  0  0
  2  1  2  0  0  0  0
  3  1  1  0  0  0  0
  4  2  1  0  0  0  0
  5  3  2  0  0  0  0
  8  6  1  0  0  0  0
  9  7  1  0  0  0  0
 12  4  2  0  0  0  0
 12  5  1  0  0  0  0
 13 10  1  0  0  0  0
 13 11  1  0  0  0  0
 14  6  1  0  0  0  0
 14  7  1  0  0  0  0
 14 10  1  0  0  0  0
 15  8  1  0  0  0  0
 15  9  1  0  0  0  0
 15 12  1  0  0  0  0
 16 11  1  0  0  0  0
 13 17  1  1  0  0  0
 13 18  1  1  0  0  0
M  END
> <DATABASE_ID>
DB12472

> <DATABASE_NAME>
drugbank

> <SMILES>
[H][C@@](O)(CO)CN1CCN(CC1)C1=CC=CC=C1

> <INCHI_IDENTIFIER>
InChI=1S/C13H20N2O2/c16-11-13(17)10-14-6-8-15(9-7-14)12-4-2-1-3-5-12/h1-5,13,16-17H,6-11H2/t13-/m0/s1

> <INCHI_KEY>
PTVWPYVOOKLBCG-ZDUSSCGKSA-N

> <FORMULA>
C13H20N2O2

> <MOLECULAR_WEIGHT>
236.315

> <EXACT_MASS>
236.152477892

> <JCHEM_ACCEPTOR_COUNT>
4

> <JCHEM_ATOM_COUNT>
37

> <JCHEM_AVERAGE_POLARIZABILITY>
26.76974502457376

> <JCHEM_BIOAVAILABILITY>
1

> <JCHEM_DONOR_COUNT>
2

> <JCHEM_FORMAL_CHARGE>
0

> <JCHEM_GHOSE_FILTER>
1

> <JCHEM_IUPAC>
(2S)-3-(4-phenylpiperazin-1-yl)propane-1,2-diol

> <ALOGPS_LOGP>
0.63

> <JCHEM_LOGP>
0.6079722996666661

> <ALOGPS_LOGS>
-0.39

> <JCHEM_MDDR_LIKE_RULE>
0

> <JCHEM_NUMBER_OF_RINGS>
2

> <JCHEM_PHYSIOLOGICAL_CHARGE>
1

> <JCHEM_PKA>
15.659553771120134

> <JCHEM_PKA_STRONGEST_ACIDIC>
13.997467028754752

> <JCHEM_PKA_STRONGEST_BASIC>
7.648219667374609

> <JCHEM_POLAR_SURFACE_AREA>
46.94

> <JCHEM_REFRACTIVITY>
68.79150000000001

> <JCHEM_ROTATABLE_BOND_COUNT>
4

> <JCHEM_RULE_OF_FIVE>
1

> <ALOGPS_SOLUBILITY>
9.71e+01 g/l

> <JCHEM_TRADITIONAL_IUPAC>
levodropropizine

> <JCHEM_VEBER_RULE>
0

> <DRUGBANK_ID>
DB12472

> <DRUG_GROUPS>
investigational

> <GENERIC_NAME>
Levodropropizine

> <SYNONYMS>
levodropropizina; Levodropropizine

$$$$
