
  Mrv1652310201622542D          

 44 48  0  0  0  0            999 V2000
   -4.2868   -2.4750    0.0000 C   0  0  0  0  0  0  0  0  0  0  0  0
   -5.0013   -2.8875    0.0000 N   0  0  0  0  0  0  0  0  0  0  0  0
   -5.0013   -3.7125    0.0000 C   0  0  0  0  0  0  0  0  0  0  0  0
   -4.2868   -4.1250    0.0000 C   0  0  0  0  0  0  0  0  0  0  0  0
   -4.2868   -4.9500    0.0000 N   0  0  0  0  0  0  0  0  0  0  0  0
   -3.5724   -5.3625    0.0000 C   0  0  0  0  0  0  0  0  0  0  0  0
   -3.5724   -6.1875    0.0000 C   0  0  0  0  0  0  0  0  0  0  0  0
   -4.2868   -6.6000    0.0000 C   0  0  0  0  0  0  0  0  0  0  0  0
   -5.0013   -6.1875    0.0000 C   0  0  0  0  0  0  0  0  0  0  0  0
   -5.0013   -5.3625    0.0000 C   0  0  0  0  0  0  0  0  0  0  0  0
   -4.2868   -7.4250    0.0000 O   0  0  0  0  0  0  0  0  0  0  0  0
   -5.0013   -7.8375    0.0000 C   0  0  0  0  0  0  0  0  0  0  0  0
   -5.7158   -7.4250    0.0000 O   0  0  0  0  0  0  0  0  0  0  0  0
   -5.0013   -8.6625    0.0000 N   0  0  0  0  0  0  0  0  0  0  0  0
   -5.7158   -9.0750    0.0000 C   0  0  0  0  0  0  0  0  0  0  0  0
   -6.4302   -8.6625    0.0000 C   0  0  0  0  0  0  0  0  0  0  0  0
   -7.1447   -9.0750    0.0000 C   0  0  0  0  0  0  0  0  0  0  0  0
   -7.1447   -9.9000    0.0000 C   0  0  0  0  0  0  0  0  0  0  0  0
   -6.4302  -10.3125    0.0000 C   0  0  0  0  0  0  0  0  0  0  0  0
   -5.7158   -9.9000    0.0000 C   0  0  0  0  0  0  0  0  0  0  0  0
   -5.0013  -10.3125    0.0000 C   0  0  0  0  0  0  0  0  0  0  0  0
   -4.2868   -9.9000    0.0000 C   0  0  0  0  0  0  0  0  0  0  0  0
   -3.5724  -10.3125    0.0000 C   0  0  0  0  0  0  0  0  0  0  0  0
   -3.5724  -11.1375    0.0000 C   0  0  0  0  0  0  0  0  0  0  0  0
   -4.2868  -11.5500    0.0000 C   0  0  0  0  0  0  0  0  0  0  0  0
   -5.0013  -11.1375    0.0000 C   0  0  0  0  0  0  0  0  0  0  0  0
   -5.7158   -2.4750    0.0000 C   0  0  0  0  0  0  0  0  0  0  0  0
   -6.4302   -2.8875    0.0000 O   0  0  0  0  0  0  0  0  0  0  0  0
   -5.7158   -1.6500    0.0000 C   0  0  0  0  0  0  0  0  0  0  0  0
   -6.4302   -1.2375    0.0000 C   0  0  0  0  0  0  0  0  0  0  0  0
   -6.4302   -0.4125    0.0000 C   0  0  0  0  0  0  0  0  0  0  0  0
   -5.7158   -0.0000    0.0000 C   0  0  0  0  0  0  0  0  0  0  0  0
   -5.0013   -0.4125    0.0000 C   0  0  0  0  0  0  0  0  0  0  0  0
   -5.0013   -1.2375    0.0000 C   0  0  0  0  0  0  0  0  0  0  0  0
   -5.7158    0.8250    0.0000 C   0  0  0  0  0  0  0  0  0  0  0  0
   -6.4302    1.2375    0.0000 N   0  0  0  0  0  0  0  0  0  0  0  0
   -7.1447    0.8250    0.0000 C   0  0  0  0  0  0  0  0  0  0  0  0
   -7.8592    1.2375    0.0000 C   0  0  0  0  0  0  0  0  0  0  0  0
   -7.8592    2.0625    0.0000 C   0  0  0  0  0  0  0  0  0  0  0  0
   -7.1447    2.4750    0.0000 C   0  0  0  0  0  0  0  0  0  0  0  0
   -6.4302    2.0625    0.0000 C   0  0  0  0  0  0  0  0  0  0  0  0
   -8.5737    2.4750    0.0000 C   0  0  0  0  0  0  0  0  0  0  0  0
   -9.2881    2.0625    0.0000 O   0  0  0  0  0  0  0  0  0  0  0  0
   -8.5737    3.3000    0.0000 N   0  0  0  0  0  0  0  0  0  0  0  0
  1  2  1  0  0  0  0
  2  3  1  0  0  0  0
  3  4  1  0  0  0  0
  4  5  1  0  0  0  0
  5  6  1  0  0  0  0
  6  7  1  0  0  0  0
  7  8  1  0  0  0  0
  8  9  1  0  0  0  0
  9 10  1  0  0  0  0
  5 10  1  0  0  0  0
  8 11  1  0  0  0  0
 11 12  1  0  0  0  0
 12 13  2  0  0  0  0
 12 14  1  0  0  0  0
 14 15  1  0  0  0  0
 15 16  2  0  0  0  0
 16 17  1  0  0  0  0
 17 18  2  0  0  0  0
 18 19  1  0  0  0  0
 19 20  2  0  0  0  0
 15 20  1  0  0  0  0
 20 21  1  0  0  0  0
 21 22  2  0  0  0  0
 22 23  1  0  0  0  0
 23 24  2  0  0  0  0
 24 25  1  0  0  0  0
 25 26  2  0  0  0  0
 21 26  1  0  0  0  0
  2 27  1  0  0  0  0
 27 28  2  0  0  0  0
 27 29  1  0  0  0  0
 29 30  2  0  0  0  0
 30 31  1  0  0  0  0
 31 32  2  0  0  0  0
 32 33  1  0  0  0  0
 33 34  2  0  0  0  0
 29 34  1  0  0  0  0
 32 35  1  0  0  0  0
 35 36  1  0  0  0  0
 36 37  1  0  0  0  0
 37 38  1  0  0  0  0
 38 39  1  0  0  0  0
 39 40  1  0  0  0  0
 40 41  1  0  0  0  0
 36 41  1  0  0  0  0
 39 42  1  0  0  0  0
 42 43  2  0  0  0  0
 42 44  1  0  0  0  0
M  END
> <DATABASE_ID>
DB11855

> <DATABASE_NAME>
drugbank

> <SMILES>
CN(CCN1CCC(CC1)OC(=O)NC1=CC=CC=C1C1=CC=CC=C1)C(=O)C1=CC=C(CN2CCC(CC2)C(N)=O)C=C1

> <INCHI_IDENTIFIER>
InChI=1S/C35H43N5O4/c1-38(34(42)29-13-11-26(12-14-29)25-40-19-15-28(16-20-40)33(36)41)23-24-39-21-17-30(18-22-39)44-35(43)37-32-10-6-5-9-31(32)27-7-3-2-4-8-27/h2-14,28,30H,15-25H2,1H3,(H2,36,41)(H,37,43)

> <INCHI_KEY>
FYDWDCIFZSGNBU-UHFFFAOYSA-N

> <FORMULA>
C35H43N5O4

> <MOLECULAR_WEIGHT>
597.76

> <EXACT_MASS>
597.331504885

> <JCHEM_ACCEPTOR_COUNT>
6

> <JCHEM_ATOM_COUNT>
87

> <JCHEM_AVERAGE_POLARIZABILITY>
66.91900796308387

> <JCHEM_BIOAVAILABILITY>
0

> <JCHEM_DONOR_COUNT>
2

> <JCHEM_FORMAL_CHARGE>
0

> <JCHEM_GHOSE_FILTER>
0

> <JCHEM_IUPAC>
1-[2-(1-{4-[(4-carbamoylpiperidin-1-yl)methyl]phenyl}-N-methylformamido)ethyl]piperidin-4-yl N-{[1,1'-biphenyl]-2-yl}carbamate

> <ALOGPS_LOGP>
4.24

> <JCHEM_LOGP>
3.8115569050000015

> <ALOGPS_LOGS>
-4.92

> <JCHEM_MDDR_LIKE_RULE>
1

> <JCHEM_NUMBER_OF_RINGS>
5

> <JCHEM_PHYSIOLOGICAL_CHARGE>
2

> <JCHEM_PKA>
16.23747344410342

> <JCHEM_PKA_STRONGEST_ACIDIC>
12.740820071938426

> <JCHEM_PKA_STRONGEST_BASIC>
8.646514538241089

> <JCHEM_POLAR_SURFACE_AREA>
108.21

> <JCHEM_REFRACTIVITY>
174.8395

> <JCHEM_ROTATABLE_BOND_COUNT>
11

> <JCHEM_RULE_OF_FIVE>
0

> <ALOGPS_SOLUBILITY>
7.21e-03 g/l

> <JCHEM_TRADITIONAL_IUPAC>
1-[2-(1-{4-[(4-carbamoylpiperidin-1-yl)methyl]phenyl}-N-methylformamido)ethyl]piperidin-4-yl N-{[1,1'-biphenyl]-2-yl}carbamate

> <JCHEM_VEBER_RULE>
0

> <DRUGBANK_ID>
DB11855

> <DRUG_GROUPS>
approved; investigational

> <GENERIC_NAME>
Revefenacin

> <SYNONYMS>
Revefenacin

> <PRODUCTS>
Yupelri

$$$$
