
  Mrv1909 12152020022D          

118124  0  0  1  0            999 V2000
    3.5024    6.4676    0.0000 H   0  0  0  0  0  0  0  0  0  0  0  0
    3.7574    7.2522    0.0000 C   0  0  2  0  0  0  0  0  0  0  0  0
    4.5643    7.4237    0.0000 N   0  0  0  0  0  0  0  0  0  0  0  0
    5.1164    6.8106    0.0000 C   0  0  0  0  0  0  0  0  0  0  0  0
    5.9233    6.9821    0.0000 O   0  0  0  0  0  0  0  0  0  0  0  0
    4.8614    6.0260    0.0000 C   0  0  2  0  0  0  0  0  0  0  0  0
    5.4135    5.4129    0.0000 C   0  0  0  0  0  0  0  0  0  0  0  0
    6.2204    5.5844    0.0000 C   0  0  0  0  0  0  0  0  0  0  0  0
    6.7725    4.9713    0.0000 C   0  0  0  0  0  0  0  0  0  0  0  0
    7.5794    5.1429    0.0000 C   0  0  0  0  0  0  0  0  0  0  0  0
    8.1315    4.5298    0.0000 N   0  0  0  0  0  0  0  0  0  0  0  0
    4.0545    5.8545    0.0000 N   0  0  0  0  0  0  0  0  0  0  0  0
    3.7995    5.0698    0.0000 C   0  0  0  0  0  0  0  0  0  0  0  0
    4.3515    4.4567    0.0000 O   0  0  0  0  0  0  0  0  0  0  0  0
    2.9925    4.8983    0.0000 C   0  0  1  0  0  0  0  0  0  0  0  0
    3.7070    4.4858    0.0000 C   0  0  0  0  0  0  0  0  0  0  0  0
    3.7070    3.6608    0.0000 C   0  0  0  0  0  0  0  0  0  0  0  0
    4.4215    3.2483    0.0000 C   0  0  0  0  0  0  0  0  0  0  0  0
    4.4215    2.4233    0.0000 C   0  0  0  0  0  0  0  0  0  0  0  0
    3.7070    2.0108    0.0000 C   0  0  0  0  0  0  0  0  0  0  0  0
    3.7070    1.1858    0.0000 N   0  0  0  0  0  0  0  0  0  0  0  0
    4.4215    0.7733    0.0000 C   0  0  0  0  0  0  0  0  0  0  0  0
    5.1360    1.1858    0.0000 N   0  0  0  0  0  0  0  0  0  0  0  0
    4.4215   -0.0517    0.0000 O   0  0  0  0  0  0  0  0  0  0  0  0
    2.9925    2.4233    0.0000 C   0  0  0  0  0  0  0  0  0  0  0  0
    2.9925    3.2483    0.0000 C   0  0  0  0  0  0  0  0  0  0  0  0
    2.7376    4.1137    0.0000 N   0  0  0  0  0  0  0  0  0  0  0  0
    1.9306    3.9422    0.0000 C   0  0  0  0  0  0  0  0  0  0  0  0
    1.3786    4.5553    0.0000 O   0  0  0  0  0  0  0  0  0  0  0  0
    1.6757    3.1575    0.0000 C   0  0  2  0  0  0  0  0  0  0  0  0
    2.2277    2.5444    0.0000 C   0  0  0  0  0  0  0  0  0  0  0  0
    1.9728    1.7598    0.0000 C   0  0  0  0  0  0  0  0  0  0  0  0
    2.5248    1.1467    0.0000 C   0  0  0  0  0  0  0  0  0  0  0  0
    2.2699    0.3621    0.0000 C   0  0  0  0  0  0  0  0  0  0  0  0
    1.4629    0.1906    0.0000 C   0  0  0  0  0  0  0  0  0  0  0  0
    1.2080   -0.5940    0.0000 N   0  0  0  0  0  0  0  0  0  0  0  0
    1.7600   -1.2071    0.0000 C   0  0  0  0  0  0  0  0  0  0  0  0
    2.5670   -1.0356    0.0000 O   0  0  0  0  0  0  0  0  0  0  0  0
    1.5051   -1.9918    0.0000 C   0  0  2  0  0  0  0  0  0  0  0  0
    2.0571   -2.6049    0.0000 C   0  0  0  0  0  0  0  0  0  0  0  0
    1.8022   -3.3895    0.0000 C   0  0  0  0  0  0  0  0  0  0  0  0
    2.3542   -4.0026    0.0000 O   0  0  0  0  0  0  0  0  0  0  0  0
    0.9952   -3.5610    0.0000 N   0  0  0  0  0  0  0  0  0  0  0  0
    0.4431   -2.9479    0.0000 C   0  0  0  0  0  0  0  0  0  0  0  0
   -0.3638   -3.1194    0.0000 O   0  0  0  0  0  0  0  0  0  0  0  0
    0.6981   -2.1633    0.0000 N   0  0  0  0  0  0  0  0  0  0  0  0
    0.9109    0.8037    0.0000 C   0  0  0  0  0  0  0  0  0  0  0  0
    1.1658    1.5883    0.0000 C   0  0  0  0  0  0  0  0  0  0  0  0
    0.8687    2.9860    0.0000 N   0  0  0  0  0  0  0  0  0  0  0  0
    0.3167    3.5991    0.0000 C   0  0  0  0  0  0  0  0  0  0  0  0
   -0.4903    3.4276    0.0000 O   0  0  0  0  0  0  0  0  0  0  0  0
    0.5716    4.3837    0.0000 C   0  0  1  0  0  0  0  0  0  0  0  0
    0.0196    4.9968    0.0000 C   0  0  0  0  0  0  0  0  0  0  0  0
    0.2745    5.7814    0.0000 S   0  0  0  0  0  0  0  0  0  0  0  0
    1.0815    5.9530    0.0000 S   0  0  0  0  0  0  0  0  0  0  0  0
    1.3364    6.7376    0.0000 C   0  0  0  0  0  0  0  0  0  0  0  0
    2.1434    6.9091    0.0000 C   0  0  2  0  0  0  0  0  0  0  0  0
    2.3984    7.6937    0.0000 N   0  0  0  0  0  0  0  0  0  0  0  0
    3.2053    7.8653    0.0000 C   0  0  0  0  0  0  0  0  0  0  0  0
    3.4603    8.6499    0.0000 O   0  0  0  0  0  0  0  0  0  0  0  0
    1.5914    7.5222    0.0000 C   0  0  0  0  0  0  0  0  0  0  0  0
    1.8463    8.3068    0.0000 O   0  0  0  0  0  0  0  0  0  0  0  0
    0.7844    7.3507    0.0000 N   0  0  0  0  0  0  0  0  0  0  0  0
    0.2324    7.9638    0.0000 C   0  0  2  0  0  0  0  0  0  0  0  0
    0.4873    8.7484    0.0000 C   0  0  0  0  0  0  0  0  0  0  0  0
   -0.0647    9.3615    0.0000 C   0  0  0  0  0  0  0  0  0  0  0  0
   -0.8717    9.1900    0.0000 C   0  0  0  0  0  0  0  0  0  0  0  0
   -1.4237    9.8031    0.0000 C   0  0  0  0  0  0  0  0  0  0  0  0
   -1.1688   10.5877    0.0000 C   0  0  0  0  0  0  0  0  0  0  0  0
   -1.7208   11.2008    0.0000 O   0  0  0  0  0  0  0  0  0  0  0  0
   -0.3618   10.7592    0.0000 C   0  0  0  0  0  0  0  0  0  0  0  0
    0.1902   10.1461    0.0000 C   0  0  0  0  0  0  0  0  0  0  0  0
   -0.5746    7.7923    0.0000 C   0  0  0  0  0  0  0  0  0  0  0  0
   -0.8295    7.0076    0.0000 N   0  0  0  0  0  0  0  0  0  0  0  0
   -1.1266    8.4054    0.0000 O   0  0  0  0  0  0  0  0  0  0  0  0
   -0.2353    4.2122    0.0000 N   0  0  0  0  0  0  0  0  0  0  0  0
   -0.7874    4.8253    0.0000 C   0  0  0  0  0  0  0  0  0  0  0  0
   -0.5324    5.6099    0.0000 O   0  0  0  0  0  0  0  0  0  0  0  0
   -1.5944    4.6538    0.0000 C   0  0  2  0  0  0  0  0  0  0  0  0
   -1.8493    3.8691    0.0000 C   0  0  0  0  0  0  0  0  0  0  0  0
   -2.6563    3.6976    0.0000 C   0  0  0  0  0  0  0  0  0  0  0  0
   -2.9112    2.9130    0.0000 C   0  0  0  0  0  0  0  0  0  0  0  0
   -3.7182    2.7415    0.0000 C   0  0  0  0  0  0  0  0  0  0  0  0
   -4.2702    3.3546    0.0000 C   0  0  0  0  0  0  0  0  0  0  0  0
   -4.8833    3.9066    0.0000 Cl  0  0  0  0  0  0  0  0  0  0  0  0
   -4.0153    4.1392    0.0000 C   0  0  0  0  0  0  0  0  0  0  0  0
   -3.2083    4.3107    0.0000 C   0  0  0  0  0  0  0  0  0  0  0  0
   -2.1464    5.2669    0.0000 N   0  0  0  0  0  0  0  0  0  0  0  0
   -2.9534    5.0953    0.0000 C   0  0  0  0  0  0  0  0  0  0  0  0
   -3.6208    4.6104    0.0000 O   0  0  0  0  0  0  0  0  0  0  0  0
   -3.5054    5.7084    0.0000 C   0  0  0  0  0  0  0  0  0  0  0  0
   -4.3124    5.5369    0.0000 N   0  0  0  0  0  0  0  0  0  0  0  0
   -4.2692    6.3608    0.0000 C   0  0  0  0  0  0  0  0  0  0  0  0
   -4.9611    6.8101    0.0000 C   0  0  0  0  0  0  0  0  0  0  0  0
   -5.6962    6.4356    0.0000 N   0  0  0  0  0  0  0  0  0  0  0  0
   -5.8677    7.2425    0.0000 C   0  0  0  0  0  0  0  0  0  0  0  0
   -6.6523    7.4975    0.0000 C   0  0  0  0  0  0  0  0  0  0  0  0
   -7.2654    6.9454    0.0000 O   0  0  0  0  0  0  0  0  0  0  0  0
   -6.8238    8.3044    0.0000 O   0  0  0  0  0  0  0  0  0  0  0  0
   -6.5200    6.4787    0.0000 C   0  0  0  0  0  0  0  0  0  0  0  0
   -6.9694    5.7868    0.0000 C   0  0  0  0  0  0  0  0  0  0  0  0
   -6.5948    5.0518    0.0000 N   0  0  0  0  0  0  0  0  0  0  0  0
   -7.4018    4.8802    0.0000 C   0  0  0  0  0  0  0  0  0  0  0  0
   -7.9538    5.4933    0.0000 C   0  0  0  0  0  0  0  0  0  0  0  0
   -8.7608    5.3218    0.0000 O   0  0  0  0  0  0  0  0  0  0  0  0
   -7.6989    6.2779    0.0000 O   0  0  0  0  0  0  0  0  0  0  0  0
   -6.6380    4.2279    0.0000 C   0  0  0  0  0  0  0  0  0  0  0  0
   -5.9461    3.7786    0.0000 C   0  0  0  0  0  0  0  0  0  0  0  0
   -5.2110    4.1531    0.0000 N   0  0  0  0  0  0  0  0  0  0  0  0
   -5.0395    3.3461    0.0000 C   0  0  0  0  0  0  0  0  0  0  0  0
   -5.6526    2.7941    0.0000 C   0  0  0  0  0  0  0  0  0  0  0  0
   -5.4811    1.9871    0.0000 O   0  0  0  0  0  0  0  0  0  0  0  0
   -6.4372    3.0490    0.0000 O   0  0  0  0  0  0  0  0  0  0  0  0
   -4.3871    4.1099    0.0000 C   0  0  0  0  0  0  0  0  0  0  0  0
   -3.9378    4.8018    0.0000 C   0  0  0  0  0  0  0  0  0  0  0  0
    4.0123    8.0368    0.0000 C   0  0  1  0  0  0  0  0  0  0  0  0
    3.9261    8.8573    0.0000 C   0  0  0  0  0  0  0  0  0  0  0  0
    4.8193    8.2083    0.0000 O   0  0  0  0  0  0  0  0  0  0  0  0
  2  1  1  1  0  0  0
  2  3  1  6  0  0  0
  3  4  1  0  0  0  0
  4  5  2  0  0  0  0
  6  4  1  0  0  0  0
  6  7  1  6  0  0  0
  7  8  1  0  0  0  0
  8  9  1  0  0  0  0
  9 10  1  0  0  0  0
 10 11  1  0  0  0  0
  6 12  1  0  0  0  0
 12 13  1  0  0  0  0
 13 14  2  0  0  0  0
 15 13  1  0  0  0  0
 15 16  1  6  0  0  0
 16 17  1  0  0  0  0
 17 18  2  0  0  0  0
 18 19  1  0  0  0  0
 19 20  2  0  0  0  0
 20 21  1  0  0  0  0
 21 22  1  0  0  0  0
 22 23  1  0  0  0  0
 22 24  2  0  0  0  0
 20 25  1  0  0  0  0
 25 26  2  0  0  0  0
 17 26  1  0  0  0  0
 15 27  1  1  0  0  0
 27 28  1  0  0  0  0
 28 29  2  0  0  0  0
 30 28  1  0  0  0  0
 30 31  1  6  0  0  0
 31 32  1  0  0  0  0
 32 33  2  0  0  0  0
 33 34  1  0  0  0  0
 34 35  2  0  0  0  0
 35 36  1  0  0  0  0
 36 37  1  0  0  0  0
 37 38  2  0  0  0  0
 39 37  1  6  0  0  0
 39 40  1  0  0  0  0
 40 41  1  0  0  0  0
 41 42  2  0  0  0  0
 41 43  1  0  0  0  0
 43 44  1  0  0  0  0
 44 45  2  0  0  0  0
 44 46  1  0  0  0  0
 39 46  1  0  0  0  0
 35 47  1  0  0  0  0
 47 48  2  0  0  0  0
 32 48  1  0  0  0  0
 30 49  1  0  0  0  0
 49 50  1  0  0  0  0
 50 51  2  0  0  0  0
 52 50  1  6  0  0  0
 52 53  1  0  0  0  0
 53 54  1  0  0  0  0
 54 55  1  0  0  0  0
 55 56  1  0  0  0  0
 57 56  1  0  0  0  0
 57 58  1  1  0  0  0
 58 59  1  0  0  0  0
  2 59  1  0  0  0  0
 59 60  2  0  0  0  0
 57 61  1  6  0  0  0
 61 62  2  0  0  0  0
 61 63  1  0  0  0  0
 64 63  1  1  0  0  0
 64 65  1  0  0  0  0
 65 66  1  0  0  0  0
 66 67  2  0  0  0  0
 67 68  1  0  0  0  0
 68 69  2  0  0  0  0
 69 70  1  0  0  0  0
 69 71  1  0  0  0  0
 71 72  2  0  0  0  0
 66 72  1  0  0  0  0
 64 73  1  0  0  0  0
 73 74  1  0  0  0  0
 73 75  2  0  0  0  0
 52 76  1  1  0  0  0
 76 77  1  0  0  0  0
 77 78  2  0  0  0  0
 79 77  1  0  0  0  0
 79 80  1  0  0  0  0
 80 81  1  0  0  0  0
 81 82  2  0  0  0  0
 82 83  1  0  0  0  0
 83 84  2  0  0  0  0
 84 85  1  0  0  0  0
 84 86  1  0  0  0  0
 86 87  2  0  0  0  0
 81 87  1  0  0  0  0
 79 88  1  6  0  0  0
 88 89  1  0  0  0  0
 89 90  2  0  0  0  0
 89 91  1  0  0  0  0
 91 92  1  0  0  0  0
 92 93  1  0  0  0  0
 93 94  1  0  0  0  0
 94 95  1  0  0  0  0
 95 96  1  0  0  0  0
 96 97  1  0  0  0  0
 97 98  1  0  0  0  0
 97 99  2  0  0  0  0
 95100  1  0  0  0  0
100101  1  0  0  0  0
101102  1  0  0  0  0
102103  1  0  0  0  0
103104  1  0  0  0  0
104105  1  0  0  0  0
104106  2  0  0  0  0
102107  1  0  0  0  0
107108  1  0  0  0  0
108109  1  0  0  0  0
109110  1  0  0  0  0
110111  1  0  0  0  0
111112  1  0  0  0  0
111113  2  0  0  0  0
109114  1  0  0  0  0
114115  1  0  0  0  0
 92115  1  0  0  0  0
  2116  1  0  0  0  0
116117  1  0  0  0  0
116118  1  1  0  0  0
M  END
> <DATABASE_ID>
DB16323

> <DATABASE_NAME>
drugbank

> <SMILES>
[H][C@]1(NC(=O)[C@H](CCCCN)NC(=O)[C@@H](CC2=CC=C(NC(N)=O)C=C2)NC(=O)[C@H](CC2=CC=C(NC(=O)[C@@H]3CC(=O)NC(=O)N3)C=C2)NC(=O)[C@@H](CSSC[C@H](NC1=O)C(=O)N[C@H](CC1=CC=C(O)C=C1)C(N)=O)NC(=O)[C@H](CC1=CC=C(Cl)C=C1)NC(=O)CN1CCN(CC(O)=O)CCN(CC(O)=O)CCN(CC(O)=O)CC1)[C@@H](C)O

> <INCHI_IDENTIFIER>
InChI=1S/C74H98ClN19O21S2/c1-41(95)63-72(113)87-57(70(111)83-51(64(77)105)30-45-11-19-49(96)20-12-45)40-117-116-39-56(86-67(108)52(31-42-5-13-46(75)14-6-42)81-59(98)35-91-22-24-92(36-60(99)100)26-28-94(38-62(103)104)29-27-93(25-23-91)37-61(101)102)71(112)85-54(33-43-7-15-47(16-8-43)79-66(107)55-34-58(97)89-74(115)88-55)69(110)84-53(32-44-9-17-48(18-10-44)80-73(78)114)68(109)82-50(65(106)90-63)4-2-3-21-76/h5-20,41,50-57,63,95-96H,2-4,21-40,76H2,1H3,(H2,77,105)(H,79,107)(H,81,98)(H,82,109)(H,83,111)(H,84,110)(H,85,112)(H,86,108)(H,87,113)(H,90,106)(H,99,100)(H,101,102)(H,103,104)(H3,78,80,114)(H2,88,89,97,115)/t41-,50+,51-,52+,53?,54+,55+,56?,57?,63+/m1/s1

> <INCHI_KEY>
ZJZDXGQUNVNYQP-PBJKGYOGSA-N

> <FORMULA>
C74H98ClN19O21S2

> <MOLECULAR_WEIGHT>
1689.28

> <EXACT_MASS>
1687.6314613

> <JCHEM_ACCEPTOR_COUNT>
26

> <JCHEM_ATOM_COUNT>
215

> <JCHEM_AVERAGE_NEUTRAL_MICROSPECIES_CHARGE>
-1.266442548940815

> <JCHEM_AVERAGE_POLARIZABILITY>
165.1801960046899

> <JCHEM_BIOAVAILABILITY>
0

> <JCHEM_DONOR_COUNT>
20

> <JCHEM_FORMAL_CHARGE>
0

> <JCHEM_GHOSE_FILTER>
0

> <JCHEM_IUPAC>
2-[4-({[(1S)-1-{[(4R,7S,10S,13R,16S,19S)-10-(4-aminobutyl)-4-{[(1R)-1-carbamoyl-2-(4-hydroxyphenyl)ethyl]carbamoyl}-13-{[4-(carbamoylamino)phenyl]methyl}-16-({4-[(4S)-2,6-dioxo-1,3-diazinane-4-amido]phenyl}methyl)-7-[(1R)-1-hydroxyethyl]-6,9,12,15,18-pentaoxo-1,2-dithia-5,8,11,14,17-pentaazacycloicosan-19-yl]carbamoyl}-2-(4-chlorophenyl)ethyl]carbamoyl}methyl)-7,10-bis(carboxymethyl)-1,4,7,10-tetraazacyclododecan-1-yl]acetic acid

> <ALOGPS_LOGP>
-1.16

> <JCHEM_LOGP>
-10.480855286823996

> <ALOGPS_LOGS>
-4.38

> <JCHEM_MDDR_LIKE_RULE>
1

> <JCHEM_NEUTRAL_CHARGE>
-1

> <JCHEM_NUMBER_OF_RINGS>
7

> <JCHEM_PHYSIOLOGICAL_CHARGE>
-1

> <JCHEM_PKA>
2.156773849367095

> <JCHEM_PKA_STRONGEST_ACIDIC>
-0.48448227923741466

> <JCHEM_PKA_STRONGEST_BASIC>
10.284460606942243

> <JCHEM_POLAR_SURFACE_AREA>
609.65

> <JCHEM_REFRACTIVITY>
426.36420000000044

> <JCHEM_ROTATABLE_BOND_COUNT>
30

> <JCHEM_RULE_OF_FIVE>
0

> <ALOGPS_SOLUBILITY>
6.98e-02 g/l

> <JCHEM_TRADITIONAL_IUPAC>
8-[(3R)-3-[1-({1-[(E)-{[(7S,9E,11S,12S,13S,14S,15R,16R,17S,18S,19E)-13-(acetyloxy)-2,15,17,27,29-pentahydroxy-11-methoxy-3,7,12,14,16,18,22-heptamethyl-6,23-dioxo-8,30-dioxa-24-azatetracyclo[23.3.1.1^{4,7}.0^{5,28}]triaconta-1(28),2,4,9,19,21,25(29),26-octaen-26-yl]methylidene}amino]piperidin-4-yl}(methyl)amino)cyclopropyl]pyrrolidin-1-yl]-1-cyclopropyl-7-fluoro-9-methyl-4-oxoquinolizine-3-carboxylic acid

> <JCHEM_VEBER_RULE>
0

> <DRUGBANK_ID>
DB16323

> <DRUG_GROUPS>
investigational

> <GENERIC_NAME>
Satoreotide tetraxetan

> <SYNONYMS>
Dota satoreotide; Satoreotide dota; Satoreotide tetraxetan

$$$$
