
  Mrv1652310201623362D          

 17 18  0  0  0  0            999 V2000
   -1.4604   -3.1062    0.0000 C   0  0  0  0  0  0  0  0  0  0  0  0
   -1.2054   -2.3215    0.0000 C   0  0  0  0  0  0  0  0  0  0  0  0
   -0.3984   -2.1500    0.0000 C   0  0  0  0  0  0  0  0  0  0  0  0
    0.1536   -2.7631    0.0000 C   0  0  0  0  0  0  0  0  0  0  0  0
    0.9606   -2.5916    0.0000 C   0  0  0  0  0  0  0  0  0  0  0  0
   -0.1435   -1.3654    0.0000 N   0  0  0  0  0  0  0  0  0  0  0  0
    0.6411   -1.1104    0.0000 C   0  0  0  0  0  0  0  0  0  0  0  0
    0.6411   -0.2854    0.0000 C   0  0  0  0  0  0  0  0  0  0  0  0
   -0.1435   -0.0305    0.0000 N   0  0  0  0  0  0  0  0  0  0  0  0
   -0.6284   -0.6979    0.0000 C   0  0  0  0  0  0  0  0  0  0  0  0
   -1.4534   -0.6979    0.0000 O   0  0  0  0  0  0  0  0  0  0  0  0
    1.3556    0.1271    0.0000 N   0  0  0  0  0  0  0  0  0  0  0  0
    2.0701   -0.2854    0.0000 C   0  0  0  0  0  0  0  0  0  0  0  0
    2.0701   -1.1104    0.0000 C   0  0  0  0  0  0  0  0  0  0  0  0
    1.3556   -1.5229    0.0000 N   0  0  0  0  0  0  0  0  0  0  0  0
    2.7845   -1.5229    0.0000 C   0  0  0  0  0  0  0  0  0  0  0  0
    3.4990   -1.9354    0.0000 C   0  0  0  0  0  0  0  0  0  0  0  0
  1  2  1  0  0  0  0
  2  3  1  0  0  0  0
  3  4  1  0  0  0  0
  4  5  1  0  0  0  0
  3  6  1  0  0  0  0
  6  7  1  0  0  0  0
  7  8  1  0  0  0  0
  8  9  1  0  0  0  0
  9 10  1  0  0  0  0
  6 10  1  0  0  0  0
 10 11  2  0  0  0  0
  8 12  2  0  0  0  0
 12 13  1  0  0  0  0
 13 14  2  0  0  0  0
 14 15  1  0  0  0  0
  7 15  2  0  0  0  0
 14 16  1  0  0  0  0
 16 17  3  0  0  0  0
M  END
> <DATABASE_ID>
DB12209

> <DATABASE_NAME>
drugbank

> <SMILES>
CCC(CC)N1C(=O)NC2=NC=C(N=C12)C#C

> <INCHI_IDENTIFIER>
InChI=1S/C12H14N4O/c1-4-8-7-13-10-11(14-8)16(12(17)15-10)9(5-2)6-3/h1,7,9H,5-6H2,2-3H3,(H,13,15,17)

> <INCHI_KEY>
RSQGZEAXODVTOL-UHFFFAOYSA-N

> <FORMULA>
C12H14N4O

> <MOLECULAR_WEIGHT>
230.271

> <EXACT_MASS>
230.116761087

> <JCHEM_ACCEPTOR_COUNT>
3

> <JCHEM_ATOM_COUNT>
31

> <JCHEM_AVERAGE_POLARIZABILITY>
24.23344722312166

> <JCHEM_BIOAVAILABILITY>
1

> <JCHEM_DONOR_COUNT>
1

> <JCHEM_FORMAL_CHARGE>
0

> <JCHEM_GHOSE_FILTER>
1

> <JCHEM_IUPAC>
6-ethynyl-1-(pentan-3-yl)-1H,2H,3H-imidazo[4,5-b]pyrazin-2-one

> <ALOGPS_LOGP>
1.30

> <JCHEM_LOGP>
2.299092338666667

> <ALOGPS_LOGS>
-3.21

> <JCHEM_MDDR_LIKE_RULE>
0

> <JCHEM_NUMBER_OF_RINGS>
2

> <JCHEM_PHYSIOLOGICAL_CHARGE>
0

> <JCHEM_PKA_STRONGEST_ACIDIC>
10.423263214646967

> <JCHEM_PKA_STRONGEST_BASIC>
-2.019949073227995

> <JCHEM_POLAR_SURFACE_AREA>
58.120000000000005

> <JCHEM_REFRACTIVITY>
62.439600000000006

> <JCHEM_ROTATABLE_BOND_COUNT>
3

> <JCHEM_RULE_OF_FIVE>
1

> <ALOGPS_SOLUBILITY>
1.42e-01 g/l

> <JCHEM_TRADITIONAL_IUPAC>
6-ethynyl-1-(pentan-3-yl)-3H-imidazo[4,5-b]pyrazin-2-one

> <JCHEM_VEBER_RULE>
0

> <DRUGBANK_ID>
DB12209

> <DRUG_GROUPS>
investigational

> <GENERIC_NAME>
Tirasemtiv

> <SYNONYMS>
Tirasemtiv

$$$$
