
  Mrv1909 11222221052D          

 35 39  0  0  0  0            999 V2000
    4.2868   -4.1250    0.0000 F   0  0  0  0  0  0  0  0  0  0  0  0
    3.5724   -3.7125    0.0000 C   0  0  0  0  0  0  0  0  0  0  0  0
    2.8579   -4.1250    0.0000 C   0  0  0  0  0  0  0  0  0  0  0  0
    2.1434   -3.7125    0.0000 C   0  0  0  0  0  0  0  0  0  0  0  0
    2.1434   -2.8875    0.0000 C   0  0  0  0  0  0  0  0  0  0  0  0
    1.4289   -2.4750    0.0000 C   0  0  0  0  0  0  0  0  0  0  0  0
    1.4289   -1.6500    0.0000 N   0  0  0  0  0  0  0  0  0  0  0  0
    0.7145   -1.2375    0.0000 C   0  0  0  0  0  0  0  0  0  0  0  0
    0.0000   -1.6500    0.0000 O   0  0  0  0  0  0  0  0  0  0  0  0
    0.7145   -0.4125    0.0000 N   0  0  0  0  0  0  0  0  0  0  0  0
    1.4289    0.0000    0.0000 C   0  0  0  0  0  0  0  0  0  0  0  0
    1.4289    0.8250    0.0000 O   0  0  0  0  0  0  0  0  0  0  0  0
    2.1434   -0.4125    0.0000 C   0  0  0  0  0  0  0  0  0  0  0  0
    2.8579    0.0000    0.0000 C   0  0  0  0  0  0  0  0  0  0  0  0
    2.8579    0.8250    0.0000 F   0  0  0  0  0  0  0  0  0  0  0  0
    3.5724   -0.4125    0.0000 C   0  0  0  0  0  0  0  0  0  0  0  0
    3.5724   -1.2375    0.0000 C   0  0  0  0  0  0  0  0  0  0  0  0
    2.8579   -1.6500    0.0000 C   0  0  0  0  0  0  0  0  0  0  0  0
    2.1434   -1.2375    0.0000 C   0  0  0  0  0  0  0  0  0  0  0  0
    2.8579   -2.4750    0.0000 C   0  0  0  0  0  0  0  0  0  0  0  0
    3.5724   -2.8875    0.0000 C   0  0  0  0  0  0  0  0  0  0  0  0
    2.8579   -4.9500    0.0000 C   0  0  0  0  0  0  0  0  0  0  0  0
    3.5724   -5.3625    0.0000 O   0  0  0  0  0  0  0  0  0  0  0  0
    2.1434   -5.3625    0.0000 N   0  0  0  0  0  0  0  0  0  0  0  0
    2.1434   -6.1875    0.0000 C   0  0  0  0  0  0  0  0  0  0  0  0
    1.4289   -6.6000    0.0000 C   0  0  0  0  0  0  0  0  0  0  0  0
    0.7145   -6.1875    0.0000 N   0  0  0  0  0  0  0  0  0  0  0  0
    0.7145   -5.3625    0.0000 C   0  0  0  0  0  0  0  0  0  0  0  0
    1.4289   -4.9500    0.0000 C   0  0  0  0  0  0  0  0  0  0  0  0
    0.0000   -6.6000    0.0000 C   0  0  0  0  0  0  0  0  0  0  0  0
    0.0000   -7.4250    0.0000 N   0  0  0  0  0  0  0  0  0  0  0  0
   -0.7145   -7.8375    0.0000 C   0  0  0  0  0  0  0  0  0  0  0  0
   -1.4289   -7.4250    0.0000 C   0  0  0  0  0  0  0  0  0  0  0  0
   -1.4289   -6.6000    0.0000 C   0  0  0  0  0  0  0  0  0  0  0  0
   -0.7145   -6.1875    0.0000 N   0  0  0  0  0  0  0  0  0  0  0  0
  1  2  1  0  0  0  0
  2  3  2  0  0  0  0
  3  4  1  0  0  0  0
  4  5  2  0  0  0  0
  5  6  1  0  0  0  0
  6  7  1  0  0  0  0
  7  8  1  0  0  0  0
  8  9  2  0  0  0  0
  8 10  1  0  0  0  0
 10 11  1  0  0  0  0
 11 12  2  0  0  0  0
 11 13  1  0  0  0  0
 13 14  2  0  0  0  0
 14 15  1  0  0  0  0
 14 16  1  0  0  0  0
 16 17  2  0  0  0  0
 17 18  1  0  0  0  0
 18 19  2  0  0  0  0
  7 19  1  0  0  0  0
 13 19  1  0  0  0  0
  5 20  1  0  0  0  0
 20 21  2  0  0  0  0
  2 21  1  0  0  0  0
  3 22  1  0  0  0  0
 22 23  2  0  0  0  0
 22 24  1  0  0  0  0
 24 25  1  0  0  0  0
 25 26  1  0  0  0  0
 26 27  1  0  0  0  0
 27 28  1  0  0  0  0
 28 29  1  0  0  0  0
 24 29  1  0  0  0  0
 27 30  1  0  0  0  0
 30 31  2  0  0  0  0
 31 32  1  0  0  0  0
 32 33  2  0  0  0  0
 33 34  1  0  0  0  0
 34 35  2  0  0  0  0
 30 35  1  0  0  0  0
M  END
> <DATABASE_ID>
DB17163

> <DATABASE_NAME>
drugbank

> <SMILES>
FC1=C(C=C(CN2C(=O)NC(=O)C3=C(F)C=CC=C23)C=C1)C(=O)N1CCN(CC1)C1=NC=CC=N1

> <INCHI_IDENTIFIER>
InChI=1S/C24H20F2N6O3/c25-17-6-5-15(14-32-19-4-1-3-18(26)20(19)21(33)29-24(32)35)13-16(17)22(34)30-9-11-31(12-10-30)23-27-7-2-8-28-23/h1-8,13H,9-12,14H2,(H,29,33,35)

> <INCHI_KEY>
VBTUJTGLLREMNW-UHFFFAOYSA-N

> <FORMULA>
C24H20F2N6O3

> <MOLECULAR_WEIGHT>
478.46

> <EXACT_MASS>
478.156494854

> <JCHEM_ACCEPTOR_COUNT>
6

> <JCHEM_ATOM_COUNT>
55

> <JCHEM_AVERAGE_NEUTRAL_MICROSPECIES_CHARGE>
1.0422226797881249

> <JCHEM_AVERAGE_POLARIZABILITY>
45.31876631534165

> <JCHEM_BIOAVAILABILITY>
1

> <JCHEM_DONOR_COUNT>
1

> <JCHEM_FORMAL_CHARGE>
0

> <JCHEM_GHOSE_FILTER>
1

> <JCHEM_IUPAC>
5-fluoro-1-({4-fluoro-3-[4-(pyrimidin-2-yl)piperazine-1-carbonyl]phenyl}methyl)-1,2,3,4-tetrahydroquinazoline-2,4-dione

> <ALOGPS_LOGP>
1.80

> <JCHEM_LOGP>
2.4123985119999998

> <ALOGPS_LOGS>
-3.88

> <JCHEM_MDDR_LIKE_RULE>
0

> <JCHEM_NEUTRAL_CHARGE>
0

> <JCHEM_NUMBER_OF_RINGS>
5

> <JCHEM_PHYSIOLOGICAL_CHARGE>
0

> <JCHEM_PKA_STRONGEST_ACIDIC>
9.101570843641321

> <JCHEM_PKA_STRONGEST_BASIC>
3.2044789055258533

> <JCHEM_POLAR_SURFACE_AREA>
98.74

> <JCHEM_REFRACTIVITY>
123.96809999999998

> <JCHEM_ROTATABLE_BOND_COUNT>
4

> <JCHEM_RULE_OF_FIVE>
1

> <ALOGPS_SOLUBILITY>
6.26e-02 g/l

> <JCHEM_TRADITIONAL_IUPAC>
5-fluoro-1-({4-fluoro-3-[4-(pyrimidin-2-yl)piperazine-1-carbonyl]phenyl}methyl)-3H-quinazoline-2,4-dione

> <JCHEM_VEBER_RULE>
0

> <DRUGBANK_ID>
DB17163

> <DRUG_GROUPS>
investigational

> <GENERIC_NAME>
Senaparib

> <SYNONYMS>
2,4(1h,3h)-quinazolinedione, 5-fluoro-1-((4-fluoro-3-((4-(2-pyrimidinyl)-1-piperazinyl)carbonyl)phenyl)methyl)-; 5-fluoro-1-((4-fluoro-3-((4-(2-pyrimidinyl)-1-piperazinyl)carbonyl)phenyl)methyl)-2,4(1h,3h)-quinazolinedione

$$$$
