
  Mrv1909 09302014562D          

 39 41  0  0  0  0            999 V2000
   -0.7689    0.8884    0.0000 C   0  0  0  0  0  0  0  0  0  0  0  0
   -0.0545    1.3008    0.0000 C   0  0  0  0  0  0  0  0  0  0  0  0
    0.6599    0.8884    0.0000 P   0  0  0  0  0  0  0  0  0  0  0  0
    0.2475    0.1739    0.0000 O   0  0  0  0  0  0  0  0  0  0  0  0
    1.4262   -0.5066    0.0000 C   0  0  2  0  0  0  0  0  0  0  0  0
    1.4262   -1.3317    0.0000 O   0  0  0  0  0  0  0  0  0  0  0  0
    2.2016   -1.6139    0.0000 C   0  0  0  0  0  0  0  0  0  0  0  0
    2.3450   -2.4263    0.0000 C   0  0  0  0  0  0  0  0  0  0  0  0
    3.1202   -2.7085    0.0000 C   0  0  0  0  0  0  0  0  0  0  0  0
    2.8336   -1.0836    0.0000 O   0  0  0  0  0  0  0  0  0  0  0  0
    2.1408   -0.0942    0.0000 C   0  0  0  0  0  0  0  0  0  0  0  0
    2.8553   -0.5066    0.0000 C   0  0  0  0  0  0  0  0  0  0  0  0
    2.1408    0.7307    0.0000 C   0  0  0  0  0  0  0  0  0  0  0  0
    1.0725    1.6028    0.0000 C   0  0  0  0  0  0  0  0  0  0  0  0
    0.6599    2.3174    0.0000 C   0  0  0  0  0  0  0  0  0  0  0  0
   -0.1525    2.1740    0.0000 C   0  0  0  0  0  0  0  0  0  0  0  0
   -0.6827    2.8060    0.0000 C   0  0  0  0  0  0  0  0  0  0  0  0
   -1.4952    2.6627    0.0000 C   0  0  0  0  0  0  0  0  0  0  0  0
   -1.7774    1.8875    0.0000 C   0  0  0  0  0  0  0  0  0  0  0  0
   -2.5898    1.7442    0.0000 C   0  0  0  0  0  0  0  0  0  0  0  0
   -3.1202    2.3762    0.0000 C   0  0  0  0  0  0  0  0  0  0  0  0
   -2.8379    3.1516    0.0000 C   0  0  0  0  0  0  0  0  0  0  0  0
   -2.0255    3.2948    0.0000 C   0  0  0  0  0  0  0  0  0  0  0  0
    1.3744    0.4757    0.0000 O   0  0  0  0  0  0  0  0  0  0  0  0
   -1.4834    1.3008    0.0000 O   0  0  0  0  0  0  0  0  0  0  0  0
   -0.7689    0.0634    0.0000 N   0  0  0  0  0  0  0  0  0  0  0  0
   -0.1015   -0.4216    0.0000 C   0  0  0  0  0  0  0  0  0  0  0  0
   -0.3564   -1.2061    0.0000 C   0  0  2  0  0  0  0  0  0  0  0  0
    0.1285   -1.8736    0.0000 C   0  0  0  0  0  0  0  0  0  0  0  0
   -0.2071   -2.6273    0.0000 C   0  0  0  0  0  0  0  0  0  0  0  0
    0.2779   -3.2948    0.0000 C   0  0  0  0  0  0  0  0  0  0  0  0
    1.0983   -3.2085    0.0000 C   0  0  0  0  0  0  0  0  0  0  0  0
    1.4338   -2.4548    0.0000 C   0  0  0  0  0  0  0  0  0  0  0  0
    0.9490   -1.7874    0.0000 C   0  0  0  0  0  0  0  0  0  0  0  0
   -1.1814   -1.2061    0.0000 C   0  0  0  0  0  0  0  0  0  0  0  0
   -1.4363   -0.4216    0.0000 C   0  0  1  0  0  0  0  0  0  0  0  0
   -2.2211   -0.1666    0.0000 C   0  0  0  0  0  0  0  0  0  0  0  0
   -2.8340   -0.7186    0.0000 O   0  0  0  0  0  0  0  0  0  0  0  0
   -2.3925    0.6402    0.0000 O   0  0  0  0  0  0  0  0  0  0  0  0
  1  2  1  0  0  0  0
  2  3  1  0  0  0  0
  3  4  1  6  0  0  0
  4  5  1  0  0  0  0
  5  6  1  1  0  0  0
  6  7  1  0  0  0  0
  7  8  1  0  0  0  0
  8  9  1  0  0  0  0
  7 10  2  0  0  0  0
  5 11  1  0  0  0  0
 11 12  1  0  0  0  0
 11 13  1  0  0  0  0
  3 14  1  0  0  0  0
 14 15  1  0  0  0  0
 15 16  1  0  0  0  0
 16 17  1  0  0  0  0
 17 18  1  0  0  0  0
 18 19  2  0  0  0  0
 19 20  1  0  0  0  0
 20 21  2  0  0  0  0
 22 21  1  0  0  0  0
 23 22  2  0  0  0  0
 18 23  1  0  0  0  0
  3 24  2  0  0  0  0
  1 25  2  0  0  0  0
  1 26  1  0  0  0  0
 26 27  1  0  0  0  0
 27 28  1  0  0  0  0
 28 29  1  6  0  0  0
 29 30  1  0  0  0  0
 30 31  1  0  0  0  0
 31 32  1  0  0  0  0
 33 32  1  0  0  0  0
 34 33  1  0  0  0  0
 29 34  1  0  0  0  0
 28 35  1  0  0  0  0
 36 35  1  0  0  0  0
 26 36  1  0  0  0  0
 36 37  1  1  0  0  0
 37 38  1  0  0  0  0
 37 39  2  0  0  0  0
M  END
> <DATABASE_ID>
DB00492

> <DATABASE_NAME>
drugbank

> <SMILES>
CCC(=O)O[C@@H](OP(=O)(CCCCC1=CC=CC=C1)CC(=O)N1C[C@@H](C[C@H]1C(O)=O)C1CCCCC1)C(C)C

> <INCHI_IDENTIFIER>
InChI=1S/C30H46NO7P/c1-4-28(33)37-30(22(2)3)38-39(36,18-12-11-15-23-13-7-5-8-14-23)21-27(32)31-20-25(19-26(31)29(34)35)24-16-9-6-10-17-24/h5,7-8,13-14,22,24-26,30H,4,6,9-12,15-21H2,1-3H3,(H,34,35)/t25-,26+,30+,39+/m1/s1

> <INCHI_KEY>
BIDNLKIUORFRQP-FLODCBCLSA-N

> <FORMULA>
C30H46NO7P

> <MOLECULAR_WEIGHT>
563.672

> <EXACT_MASS>
563.301189823

> <JCHEM_ACCEPTOR_COUNT>
5

> <JCHEM_ATOM_COUNT>
85

> <JCHEM_AVERAGE_NEUTRAL_MICROSPECIES_CHARGE>
-0.9996741512377151

> <JCHEM_AVERAGE_POLARIZABILITY>
62.27325978637431

> <JCHEM_BIOAVAILABILITY>
0

> <JCHEM_DONOR_COUNT>
1

> <JCHEM_FORMAL_CHARGE>
0

> <JCHEM_GHOSE_FILTER>
0

> <JCHEM_IUPAC>
(2S,4S)-4-cyclohexyl-1-(2-{[(1S)-2-methyl-1-(propanoyloxy)propoxy](4-phenylbutyl)phosphoryl}acetyl)pyrrolidine-2-carboxylic acid

> <ALOGPS_LOGP>
4.71

> <JCHEM_LOGP>
5.624851468333333

> <ALOGPS_LOGS>
-5.75

> <JCHEM_MDDR_LIKE_RULE>
1

> <JCHEM_NEUTRAL_CHARGE>
-1

> <JCHEM_NUMBER_OF_RINGS>
3

> <JCHEM_PHYSIOLOGICAL_CHARGE>
-1

> <JCHEM_PKA>
10.381608178475936

> <JCHEM_PKA_STRONGEST_ACIDIC>
3.870142961809244

> <JCHEM_PKA_STRONGEST_BASIC>
-4.42899974084534

> <JCHEM_POLAR_SURFACE_AREA>
110.21000000000001

> <JCHEM_REFRACTIVITY>
149.11960000000002

> <JCHEM_ROTATABLE_BOND_COUNT>
15

> <JCHEM_RULE_OF_FIVE>
0

> <ALOGPS_SOLUBILITY>
1.01e-03 g/l

> <JCHEM_TRADITIONAL_IUPAC>
(1R,2R,4S,5S,7S)-7-{[(2S)-3-hydroxy-2-phenylpropanoyl]oxy}-9,9-dimethyl-3-oxa-9-azatricyclo[3.3.1.0^{2,4}]nonan-9-ium bromide

> <JCHEM_VEBER_RULE>
0

> <DRUGBANK_ID>
DB00492

> <SECONDARY_ACCESSION_NUMBERS>
APRD00526

> <DRUG_GROUPS>
approved

> <GENERIC_NAME>
Fosinopril

> <SYNONYMS>
Fosenopril; Fosinopril

> <PRODUCTS>
Apo-fosinopril; Ava-fosinopril; FOSINOPRIL Na; Fosinopril; Fosinopril Sodium; Fosinopril Sodium and Hydrochlorothiazide; Fosinopril Tablets; Fosinopril sodium; Fosinopril-10; Fosinopril-20; Jamp-fosinopril; Lin-fosinopril; Monopril; Monopril Tab 10mg; Monopril Tab 20mg; Monopril-hct; Mylan-fosinopril; Nu-fosinopril; PHL-fosinopril; PMS-fosinopril; Ran-fosinopril; Ratio Fosinopril; Riva-fosinopril; Teva-fosinopril

> <INTERNATIONAL_BRANDS>
Acecor; Monopril; Staril

> <SALTS>
Fosinopril sodium

$$$$
