
  Mrv1909 11242216402D          

 26 28  0  0  0  0            999 V2000
   -3.5724   -1.2375    0.0000 C   0  0  0  0  0  0  0  0  0  0  0  0
   -2.8579   -0.8250    0.0000 C   0  0  0  0  0  0  0  0  0  0  0  0
   -2.8579   -0.0000    0.0000 O   0  0  0  0  0  0  0  0  0  0  0  0
   -2.1434    0.4125    0.0000 C   0  0  0  0  0  0  0  0  0  0  0  0
   -1.4289   -0.0000    0.0000 O   0  0  0  0  0  0  0  0  0  0  0  0
   -2.1434    1.2375    0.0000 N   0  0  0  0  0  0  0  0  0  0  0  0
   -1.4289    1.6500    0.0000 C   0  0  0  0  0  0  0  0  0  0  0  0
   -1.4289    2.4750    0.0000 C   0  0  0  0  0  0  0  0  0  0  0  0
   -2.1434    2.8875    0.0000 N   0  0  0  0  0  0  0  0  0  0  0  0
   -2.9684    2.8875    0.0000 C   0  0  0  0  0  0  0  0  0  0  0  0
   -2.5559    3.6020    0.0000 C   0  0  0  0  0  0  0  0  0  0  0  0
   -0.7145    2.8875    0.0000 C   0  0  0  0  0  0  0  0  0  0  0  0
   -0.7145    3.7125    0.0000 O   0  0  0  0  0  0  0  0  0  0  0  0
    0.0000    2.4750    0.0000 C   0  0  0  0  0  0  0  0  0  0  0  0
    0.7145    2.8875    0.0000 N   0  0  0  0  0  0  0  0  0  0  0  0
    1.4289    2.4750    0.0000 C   0  0  0  0  0  0  0  0  0  0  0  0
    1.4289    1.6500    0.0000 O   0  0  0  0  0  0  0  0  0  0  0  0
    2.1434    2.8875    0.0000 O   0  0  0  0  0  0  0  0  0  0  0  0
    2.8579    2.4750    0.0000 C   0  0  0  0  0  0  0  0  0  0  0  0
    3.5724    2.8875    0.0000 C   0  0  0  0  0  0  0  0  0  0  0  0
    0.0000    1.6500    0.0000 C   0  0  0  0  0  0  0  0  0  0  0  0
    0.7145    1.2375    0.0000 N   0  0  0  0  0  0  0  0  0  0  0  0
    1.5395    1.2375    0.0000 C   0  0  0  0  0  0  0  0  0  0  0  0
    1.1270    0.5230    0.0000 C   0  0  0  0  0  0  0  0  0  0  0  0
   -0.7145    1.2375    0.0000 C   0  0  0  0  0  0  0  0  0  0  0  0
   -0.7145    0.4125    0.0000 O   0  0  0  0  0  0  0  0  0  0  0  0
  1  2  1  0  0  0  0
  2  3  1  0  0  0  0
  3  4  1  0  0  0  0
  4  5  2  0  0  0  0
  4  6  1  0  0  0  0
  6  7  1  0  0  0  0
  7  8  2  0  0  0  0
  8  9  1  0  0  0  0
  9 10  1  0  0  0  0
 10 11  1  0  0  0  0
  9 11  1  0  0  0  0
  8 12  1  0  0  0  0
 12 13  2  0  0  0  0
 12 14  1  0  0  0  0
 14 15  1  0  0  0  0
 15 16  1  0  0  0  0
 16 17  2  0  0  0  0
 16 18  1  0  0  0  0
 18 19  1  0  0  0  0
 19 20  1  0  0  0  0
 14 21  2  0  0  0  0
 21 22  1  0  0  0  0
 22 23  1  0  0  0  0
 23 24  1  0  0  0  0
 22 24  1  0  0  0  0
 21 25  1  0  0  0  0
  7 25  1  0  0  0  0
 25 26  2  0  0  0  0
M  END
> <DATABASE_ID>
DB17174

> <DATABASE_NAME>
drugbank

> <SMILES>
CCOC(=O)NC1=C(N2CC2)C(=O)C(NC(=O)OCC)=C(N2CC2)C1=O

> <INCHI_IDENTIFIER>
InChI=1S/C16H20N4O6/c1-3-25-15(23)17-9-11(19-5-6-19)14(22)10(18-16(24)26-4-2)12(13(9)21)20-7-8-20/h3-8H2,1-2H3,(H,17,23)(H,18,24)

> <INCHI_KEY>
WVYXNIXAMZOZFK-UHFFFAOYSA-N

> <FORMULA>
C16H20N4O6

> <MOLECULAR_WEIGHT>
364.358

> <EXACT_MASS>
364.13828438

> <JCHEM_ACCEPTOR_COUNT>
6

> <JCHEM_ATOM_COUNT>
46

> <JCHEM_AVERAGE_NEUTRAL_MICROSPECIES_CHARGE>
-1.598339886484439e-11

> <JCHEM_AVERAGE_POLARIZABILITY>
36.216995449320294

> <JCHEM_BIOAVAILABILITY>
1

> <JCHEM_DONOR_COUNT>
2

> <JCHEM_FORMAL_CHARGE>
0

> <JCHEM_GHOSE_FILTER>
0

> <JCHEM_IUPAC>
ethyl N-[2,5-bis(aziridin-1-yl)-4-[(ethoxycarbonyl)amino]-3,6-dioxocyclohexa-1,4-dien-1-yl]carbamate

> <ALOGPS_LOGP>
0.41

> <JCHEM_LOGP>
-0.7211423953333348

> <ALOGPS_LOGS>
-2.21

> <JCHEM_MDDR_LIKE_RULE>
1

> <JCHEM_NEUTRAL_CHARGE>
0

> <JCHEM_NUMBER_OF_RINGS>
3

> <JCHEM_PHYSIOLOGICAL_CHARGE>
0

> <JCHEM_PKA>
11.651317903723255

> <JCHEM_PKA_STRONGEST_ACIDIC>
10.938565497222372

> <JCHEM_PKA_STRONGEST_BASIC>
-8.414934152699965

> <JCHEM_POLAR_SURFACE_AREA>
116.82

> <JCHEM_REFRACTIVITY>
93.36099999999998

> <JCHEM_ROTATABLE_BOND_COUNT>
8

> <JCHEM_RULE_OF_FIVE>
1

> <ALOGPS_SOLUBILITY>
2.24e+00 g/l

> <JCHEM_TRADITIONAL_IUPAC>
diaziquone

> <JCHEM_VEBER_RULE>
0

> <DRUGBANK_ID>
DB17174

> <DRUG_GROUPS>
investigational

> <GENERIC_NAME>
Diaziquone

> <SYNONYMS>
Aziridinyl benzoquinone; AZQ; Carbamic acid, (2,5-bis(1-aziridinyl)-3,6-dioxo-1,4-cyclohexadiene-1,4-diyl)bis-, diethyl ester; Diaziquone; Diethyl 2,5-bis-(1-aziridinyl)-3,6-dioxo-1,4-cyclohexadiene-1,4-dicarbamate; NSC-182986

$$$$
