
  Mrv1652306231722482D          

 11 11  0  0  0  0            999 V2000
    0.0059   -1.5764    0.0000 C   0  0  0  0  0  0  0  0  0  0  0  0
   -0.3297   -0.8227    0.0000 C   0  0  0  0  0  0  0  0  0  0  0  0
    0.1553   -0.1553    0.0000 N   0  0  0  0  0  0  0  0  0  0  0  0
   -0.0997    0.6294    0.0000 C   0  0  0  0  0  0  0  0  0  0  0  0
   -0.8843    0.8843    0.0000 O   0  0  0  0  0  0  0  0  0  0  0  0
    0.5678    1.1143    0.0000 C   0  0  0  0  0  0  0  0  0  0  0  0
    1.2352    0.6294    0.0000 O   0  0  0  0  0  0  0  0  0  0  0  0
    0.9803   -0.1553    0.0000 C   0  0  0  0  0  0  0  0  0  0  0  0
    1.4652   -0.8227    0.0000 O   0  0  0  0  0  0  0  0  0  0  0  0
    0.1628    1.8330    0.0000 C   0  0  0  0  0  0  0  0  0  0  0  0
    0.9728    1.8330    0.0000 C   0  0  0  0  0  0  0  0  0  0  0  0
  1  2  1  0  0  0  0
  2  3  1  0  0  0  0
  3  4  1  0  0  0  0
  4  5  2  0  0  0  0
  4  6  1  0  0  0  0
  6  7  1  0  0  0  0
  7  8  1  0  0  0  0
  3  8  1  0  0  0  0
  8  9  2  0  0  0  0
  6 10  1  0  0  0  0
  6 11  1  0  0  0  0
M  END
> <DATABASE_ID>
DB13799

> <DATABASE_NAME>
drugbank

> <SMILES>
CCN1C(=O)OC(C)(C)C1=O

> <INCHI_IDENTIFIER>
InChI=1S/C7H11NO3/c1-4-8-5(9)7(2,3)11-6(8)10/h4H2,1-3H3

> <INCHI_KEY>
SIGSNYAYBSJATD-UHFFFAOYSA-N

> <FORMULA>
C7H11NO3

> <MOLECULAR_WEIGHT>
157.169

> <EXACT_MASS>
157.073893218

> <JCHEM_ACCEPTOR_COUNT>
2

> <JCHEM_ATOM_COUNT>
22

> <JCHEM_AVERAGE_POLARIZABILITY>
15.503870837124547

> <JCHEM_BIOAVAILABILITY>
1

> <JCHEM_DONOR_COUNT>
0

> <JCHEM_FORMAL_CHARGE>
0

> <JCHEM_GHOSE_FILTER>
0

> <JCHEM_IUPAC>
3-ethyl-5,5-dimethyl-1,3-oxazolidine-2,4-dione

> <ALOGPS_LOGP>
0.32

> <JCHEM_LOGP>
0.8609542850000003

> <ALOGPS_LOGS>
0.01

> <JCHEM_MDDR_LIKE_RULE>
0

> <JCHEM_NUMBER_OF_RINGS>
1

> <JCHEM_PHYSIOLOGICAL_CHARGE>
0

> <JCHEM_POLAR_SURFACE_AREA>
46.61

> <JCHEM_REFRACTIVITY>
37.948800000000006

> <JCHEM_ROTATABLE_BOND_COUNT>
1

> <JCHEM_RULE_OF_FIVE>
1

> <ALOGPS_SOLUBILITY>
1.60e+02 g/l

> <JCHEM_TRADITIONAL_IUPAC>
epinal

> <JCHEM_VEBER_RULE>
0

> <DRUGBANK_ID>
DB13799

> <DRUG_GROUPS>
experimental

> <GENERIC_NAME>
Ethadione

$$$$
