
  Mrv1902 04031915272D          

 62 62  0  0  0  0            999 V2000
    3.2769    0.0569    0.0000 C   0  0  2  0  0  0  0  0  0  0  0  0
    2.5433    0.4483    0.0000 C   0  0  1  0  0  0  0  0  0  0  0  0
    3.9780    0.4809    0.0000 C   0  0  0  0  0  0  0  0  0  0  0  0
    1.8423    0.0407    0.0000 C   0  0  0  0  0  0  0  0  0  0  0  0
    2.5433    1.2798    0.0000 O   0  0  0  0  0  0  0  0  0  0  0  0
    4.6954    0.0733    0.0000 O   0  0  0  0  0  0  0  0  0  0  0  0
    1.1249    0.4483    0.0000 C   0  0  0  0  0  0  0  0  0  0  0  0
    0.4076    0.0244    0.0000 C   0  0  0  0  0  0  0  0  0  0  0  0
   -0.3097    0.4321    0.0000 C   0  0  0  0  0  0  0  0  0  0  0  0
   -1.0271    0.0081    0.0000 C   0  0  0  0  0  0  0  0  0  0  0  0
   -1.7444    0.4156    0.0000 C   0  0  0  0  0  0  0  0  0  0  0  0
    6.8311    1.2961    0.0000 C   0  0  1  0  0  0  0  0  0  0  0  0
    6.8311    0.4646    0.0000 C   0  0  2  0  0  0  0  0  0  0  0  0
    6.1301    1.7037    0.0000 C   0  0  1  0  0  0  0  0  0  0  0  0
    6.1301    0.0733    0.0000 O   0  0  0  0  0  0  0  0  0  0  0  0
    7.5322    0.0733    0.0000 C   0  0  0  0  0  0  0  0  0  0  0  0
    5.3965    1.2961    0.0000 C   0  0  2  0  0  0  0  0  0  0  0  0
    6.1138    2.5188    0.0000 O   0  0  0  0  0  0  0  0  0  0  0  0
    5.3965    0.4646    0.0000 C   0  0  2  0  0  0  0  0  0  0  0  0
    8.1518    0.5950    0.0000 O   0  0  0  0  0  0  0  0  0  0  0  0
    4.6954    1.7037    0.0000 O   0  0  0  0  0  0  0  0  0  0  0  0
    7.5322    1.7037    0.0000 O   0  0  0  0  0  0  0  0  0  0  0  0
    5.4128    2.9265    0.0000 S   0  0  0  0  0  0  0  0  0  0  0  0
    5.0052    2.2253    0.0000 O   0  0  0  0  0  0  0  0  0  0  0  0
    5.8204    3.6438    0.0000 O   0  0  0  0  0  0  0  0  0  0  0  0
    4.6954    3.3340    0.0000 O   0  0  0  0  0  0  0  0  0  0  0  0
   -2.4619    0.0081    0.0000 C   0  0  0  0  0  0  0  0  0  0  0  0
   -3.1629    0.4156    0.0000 C   0  0  0  0  0  0  0  0  0  0  0  0
   -3.8802    0.0081    0.0000 C   0  0  0  0  0  0  0  0  0  0  0  0
   -4.5975    0.4156    0.0000 C   0  0  0  0  0  0  0  0  0  0  0  0
   -5.2987    0.0081    0.0000 C   0  0  0  0  0  0  0  0  0  0  0  0
   -6.0160    0.4156    0.0000 C   0  0  0  0  0  0  0  0  0  0  0  0
   -6.7334    0.0081    0.0000 C   0  0  0  0  0  0  0  0  0  0  0  0
   -7.4344    0.4156    0.0000 C   0  0  0  0  0  0  0  0  0  0  0  0
   -8.1518    0.0081    0.0000 C   0  0  0  0  0  0  0  0  0  0  0  0
    3.3096   -2.4047    0.0000 C   0  0  0  0  0  0  0  0  0  0  0  0
    2.5922   -1.9972    0.0000 C   0  0  0  0  0  0  0  0  0  0  0  0
    1.8749   -2.4047    0.0000 C   0  0  0  0  0  0  0  0  0  0  0  0
    1.1737   -1.9972    0.0000 C   0  0  0  0  0  0  0  0  0  0  0  0
    0.4565   -2.4047    0.0000 C   0  0  0  0  0  0  0  0  0  0  0  0
   -0.2608   -1.9972    0.0000 C   0  0  0  0  0  0  0  0  0  0  0  0
   -0.9618   -2.4047    0.0000 C   0  0  0  0  0  0  0  0  0  0  0  0
   -1.6793   -1.9972    0.0000 C   0  0  0  0  0  0  0  0  0  0  0  0
   -2.3966   -2.4047    0.0000 C   0  0  0  0  0  0  0  0  0  0  0  0
   -3.0976   -1.9972    0.0000 C   0  0  0  0  0  0  0  0  0  0  0  0
   -3.8150   -2.4047    0.0000 C   0  0  0  0  0  0  0  0  0  0  0  0
    3.2769   -0.7744    0.0000 N   0  0  0  0  0  0  0  0  0  0  0  0
    3.9943   -1.1657    0.0000 C   0  0  0  0  0  0  0  0  0  0  0  0
    4.0107   -1.9972    0.0000 C   0  0  2  0  0  0  0  0  0  0  0  0
    4.7117   -0.7418    0.0000 O   0  0  0  0  0  0  0  0  0  0  0  0
    4.7281   -2.3885    0.0000 O   0  0  0  0  0  0  0  0  0  0  0  0
   -3.8150   -3.2362    0.0000 C   0  0  0  0  0  0  0  0  0  0  0  0
   -3.0976   -3.6438    0.0000 C   0  0  0  0  0  0  0  0  0  0  0  0
   -2.3966   -3.2362    0.0000 C   0  0  0  0  0  0  0  0  0  0  0  0
   -1.6793   -3.6438    0.0000 C   0  0  0  0  0  0  0  0  0  0  0  0
   -0.9618   -3.2362    0.0000 C   0  0  0  0  0  0  0  0  0  0  0  0
   -0.2608   -3.6438    0.0000 C   0  0  0  0  0  0  0  0  0  0  0  0
    0.4565   -3.2362    0.0000 C   0  0  0  0  0  0  0  0  0  0  0  0
    1.1737   -3.6438    0.0000 C   0  0  0  0  0  0  0  0  0  0  0  0
    1.8749   -3.2362    0.0000 C   0  0  0  0  0  0  0  0  0  0  0  0
    2.5922   -3.6438    0.0000 C   0  0  0  0  0  0  0  0  0  0  0  0
    3.3096   -3.2362    0.0000 C   0  0  0  0  0  0  0  0  0  0  0  0
  1  2  1  0  0  0  0
  1  3  1  0  0  0  0
  1 47  1  6  0  0  0
  2  4  1  0  0  0  0
  2  5  1  1  0  0  0
  3  6  1  0  0  0  0
  4  7  2  0  0  0  0
 19  6  1  1  0  0  0
  7  8  1  0  0  0  0
  8  9  1  0  0  0  0
  9 10  1  0  0  0  0
 10 11  1  0  0  0  0
 11 27  1  0  0  0  0
 12 13  1  0  0  0  0
 12 14  1  0  0  0  0
 12 22  1  1  0  0  0
 13 15  1  0  0  0  0
 13 16  1  1  0  0  0
 14 17  1  0  0  0  0
 14 18  1  1  0  0  0
 15 19  1  0  0  0  0
 16 20  1  0  0  0  0
 17 21  1  6  0  0  0
 17 19  1  0  0  0  0
 18 23  1  0  0  0  0
 23 24  2  0  0  0  0
 23 25  2  0  0  0  0
 23 26  1  0  0  0  0
 27 28  1  0  0  0  0
 28 29  1  0  0  0  0
 29 30  1  0  0  0  0
 30 31  1  0  0  0  0
 31 32  1  0  0  0  0
 32 33  1  0  0  0  0
 33 34  1  0  0  0  0
 34 35  1  0  0  0  0
 36 37  1  0  0  0  0
 36 49  1  0  0  0  0
 37 38  1  0  0  0  0
 38 39  1  0  0  0  0
 39 40  1  0  0  0  0
 40 41  1  0  0  0  0
 41 42  1  0  0  0  0
 42 43  1  0  0  0  0
 43 44  1  0  0  0  0
 44 45  1  0  0  0  0
 45 46  1  0  0  0  0
 46 52  1  0  0  0  0
 47 48  1  0  0  0  0
 48 49  1  0  0  0  0
 48 50  2  0  0  0  0
 49 51  1  6  0  0  0
 52 53  1  0  0  0  0
 53 54  1  0  0  0  0
 54 55  1  0  0  0  0
 55 56  1  0  0  0  0
 56 57  1  0  0  0  0
 57 58  1  0  0  0  0
 58 59  1  0  0  0  0
 59 60  1  0  0  0  0
 60 61  1  0  0  0  0
 61 62  1  0  0  0  0
M  END
> <DATABASE_ID>
DB04780

> <DATABASE_NAME>
drugbank

> <SMILES>
CCCCCCCCCCCCCCCCCCCCCC[C@@H](O)C(=O)N[C@@H](CO[C@@H]1O[C@H](CO)[C@H](O)[C@H](OS(O)(=O)=O)[C@H]1O)[C@H](O)\C=C\CCCCCCCCCCCCC

> <INCHI_IDENTIFIER>
InChI=1S/C48H93NO12S/c1-3-5-7-9-11-13-15-17-18-19-20-21-22-23-25-27-29-31-33-35-37-42(52)47(55)49-40(41(51)36-34-32-30-28-26-24-16-14-12-10-8-6-4-2)39-59-48-45(54)46(61-62(56,57)58)44(53)43(38-50)60-48/h34,36,40-46,48,50-54H,3-33,35,37-39H2,1-2H3,(H,49,55)(H,56,57,58)/b36-34+/t40-,41+,42+,43+,44-,45+,46-,48+/m0/s1

> <INCHI_KEY>
QTTLKKFUOJQIRB-JOLIRYOJSA-N

> <FORMULA>
C48H93NO12S

> <MOLECULAR_WEIGHT>
908.317

> <EXACT_MASS>
907.641848135

> <JCHEM_ACCEPTOR_COUNT>
11

> <JCHEM_ATOM_COUNT>
155

> <JCHEM_AVERAGE_POLARIZABILITY>
111.52754532873018

> <JCHEM_BIOAVAILABILITY>
0

> <JCHEM_DONOR_COUNT>
7

> <JCHEM_FORMAL_CHARGE>
0

> <JCHEM_GHOSE_FILTER>
0

> <JCHEM_IUPAC>
[(2R,3R,4S,5S,6R)-3,5-dihydroxy-2-{[(2S,3R,4E)-3-hydroxy-2-[(2R)-2-hydroxytetracosanamido]octadec-4-en-1-yl]oxy}-6-(hydroxymethyl)oxan-4-yl]oxidanesulfonic acid

> <ALOGPS_LOGP>
5.57

> <JCHEM_LOGP>
10.092886815089553

> <ALOGPS_LOGS>
-6.18

> <JCHEM_MDDR_LIKE_RULE>
0

> <JCHEM_NUMBER_OF_RINGS>
1

> <JCHEM_PHYSIOLOGICAL_CHARGE>
-1

> <JCHEM_PKA>
12.008843427014513

> <JCHEM_PKA_STRONGEST_ACIDIC>
-1.8473977473969367

> <JCHEM_PKA_STRONGEST_BASIC>
-2.981132300553168

> <JCHEM_POLAR_SURFACE_AREA>
212.30999999999997

> <JCHEM_REFRACTIVITY>
246.481

> <JCHEM_ROTATABLE_BOND_COUNT>
43

> <JCHEM_RULE_OF_FIVE>
0

> <ALOGPS_SOLUBILITY>
5.99e-04 g/l

> <JCHEM_TRADITIONAL_IUPAC>
sulfatide

> <JCHEM_VEBER_RULE>
0

> <DRUGBANK_ID>
DB04780

> <DRUG_GROUPS>
experimental

> <GENERIC_NAME>
Sulfatide

> <SYNONYMS>
2-hydroxytetracosanoyl sulfatide; 2-hydroxytetracosanoylgalactosylceramide sulfate

$$$$
