
  Mrv1652310211601382D          

 30 33  0  0  0  0            999 V2000
   -4.2868    0.0000    0.0000 C   0  0  0  0  0  0  0  0  0  0  0  0
   -3.5724   -0.4125    0.0000 C   0  0  0  0  0  0  0  0  0  0  0  0
   -2.8579    0.0000    0.0000 C   0  0  0  0  0  0  0  0  0  0  0  0
   -2.1434   -0.4125    0.0000 C   0  0  0  0  0  0  0  0  0  0  0  0
   -1.4289    0.0000    0.0000 O   0  0  0  0  0  0  0  0  0  0  0  0
   -0.7145   -0.4125    0.0000 C   0  0  0  0  0  0  0  0  0  0  0  0
   -0.7145   -1.2375    0.0000 N   0  0  0  0  0  0  0  0  0  0  0  0
    0.0000   -1.6500    0.0000 C   0  0  0  0  0  0  0  0  0  0  0  0
    0.7145   -1.2375    0.0000 C   0  0  0  0  0  0  0  0  0  0  0  0
    0.7145   -0.4125    0.0000 C   0  0  0  0  0  0  0  0  0  0  0  0
    0.0000   -0.0000    0.0000 N   0  0  0  0  0  0  0  0  0  0  0  0
    1.4289   -0.0000    0.0000 N   0  0  0  0  0  0  0  0  0  0  0  0
    2.1434   -0.4125    0.0000 C   0  0  0  0  0  0  0  0  0  0  0  0
    2.1434   -1.2375    0.0000 C   0  0  0  0  0  0  0  0  0  0  0  0
    2.8579   -1.6500    0.0000 O   0  0  0  0  0  0  0  0  0  0  0  0
    1.4289   -1.6500    0.0000 N   0  0  0  0  0  0  0  0  0  0  0  0
    1.4289    0.8250    0.0000 C   0  0  0  0  0  0  0  0  0  0  0  0
    2.1434    1.2375    0.0000 C   0  0  0  0  0  0  0  0  0  0  0  0
    2.1434    2.0625    0.0000 C   0  0  0  0  0  0  0  0  0  0  0  0
    2.8579    2.4750    0.0000 C   0  0  0  0  0  0  0  0  0  0  0  0
    3.5724    2.0625    0.0000 C   0  0  0  0  0  0  0  0  0  0  0  0
    3.5724    1.2375    0.0000 C   0  0  0  0  0  0  0  0  0  0  0  0
    2.8579    0.8250    0.0000 C   0  0  0  0  0  0  0  0  0  0  0  0
    4.2868    0.8250    0.0000 C   0  0  0  0  0  0  0  0  0  0  0  0
    4.2868    0.0000    0.0000 N   0  0  0  0  0  0  0  0  0  0  0  0
    4.9543   -0.4849    0.0000 C   0  0  0  0  0  0  0  0  0  0  0  0
    4.6993   -1.2695    0.0000 C   0  0  0  0  0  0  0  0  0  0  0  0
    3.8743   -1.2695    0.0000 C   0  0  0  0  0  0  0  0  0  0  0  0
    3.6194   -0.4849    0.0000 C   0  0  0  0  0  0  0  0  0  0  0  0
    0.0000   -2.4750    0.0000 N   0  0  0  0  0  0  0  0  0  0  0  0
  1  2  1  0  0  0  0
  2  3  1  0  0  0  0
  3  4  1  0  0  0  0
  4  5  1  0  0  0  0
  5  6  1  0  0  0  0
  6  7  2  0  0  0  0
  7  8  1  0  0  0  0
  8  9  2  0  0  0  0
  9 10  1  0  0  0  0
 10 11  2  0  0  0  0
  6 11  1  0  0  0  0
 10 12  1  0  0  0  0
 12 13  1  0  0  0  0
 13 14  1  0  0  0  0
 14 15  2  0  0  0  0
 14 16  1  0  0  0  0
  9 16  1  0  0  0  0
 12 17  1  0  0  0  0
 17 18  1  0  0  0  0
 18 19  2  0  0  0  0
 19 20  1  0  0  0  0
 20 21  2  0  0  0  0
 21 22  1  0  0  0  0
 22 23  2  0  0  0  0
 18 23  1  0  0  0  0
 22 24  1  0  0  0  0
 24 25  1  0  0  0  0
 25 26  1  0  0  0  0
 26 27  1  0  0  0  0
 27 28  1  0  0  0  0
 28 29  1  0  0  0  0
 25 29  1  0  0  0  0
  8 30  1  0  0  0  0
M  END
> <DATABASE_ID>
DB12687

> <DATABASE_NAME>
drugbank

> <SMILES>
CCCCOC1=NC(N)=C2NC(=O)CN(CC3=CC=CC(CN4CCCC4)=C3)C2=N1

> <INCHI_IDENTIFIER>
InChI=1S/C22H30N6O2/c1-2-3-11-30-22-25-20(23)19-21(26-22)28(15-18(29)24-19)14-17-8-6-7-16(12-17)13-27-9-4-5-10-27/h6-8,12H,2-5,9-11,13-15H2,1H3,(H,24,29)(H2,23,25,26)

> <INCHI_KEY>
VFOKSTCIRGDTBR-UHFFFAOYSA-N

> <FORMULA>
C22H30N6O2

> <MOLECULAR_WEIGHT>
410.522

> <EXACT_MASS>
410.24302423

> <JCHEM_ACCEPTOR_COUNT>
7

> <JCHEM_ATOM_COUNT>
60

> <JCHEM_AVERAGE_POLARIZABILITY>
45.90087554872284

> <JCHEM_BIOAVAILABILITY>
1

> <JCHEM_DONOR_COUNT>
2

> <JCHEM_FORMAL_CHARGE>
0

> <JCHEM_GHOSE_FILTER>
1

> <JCHEM_IUPAC>
4-amino-2-butoxy-8-({3-[(pyrrolidin-1-yl)methyl]phenyl}methyl)-5,6,7,8-tetrahydropteridin-6-one

> <ALOGPS_LOGP>
2.95

> <JCHEM_LOGP>
3.3734889326666675

> <ALOGPS_LOGS>
-3.81

> <JCHEM_MDDR_LIKE_RULE>
1

> <JCHEM_NUMBER_OF_RINGS>
4

> <JCHEM_PHYSIOLOGICAL_CHARGE>
1

> <JCHEM_PKA_STRONGEST_ACIDIC>
11.323090244763515

> <JCHEM_PKA_STRONGEST_BASIC>
9.185265378065514

> <JCHEM_POLAR_SURFACE_AREA>
96.61

> <JCHEM_REFRACTIVITY>
121.76129999999996

> <JCHEM_ROTATABLE_BOND_COUNT>
8

> <JCHEM_RULE_OF_FIVE>
1

> <ALOGPS_SOLUBILITY>
6.37e-02 g/l

> <JCHEM_TRADITIONAL_IUPAC>
4-amino-2-butoxy-8-{[3-(pyrrolidin-1-ylmethyl)phenyl]methyl}-5,7-dihydropteridin-6-one

> <JCHEM_VEBER_RULE>
0

> <DRUGBANK_ID>
DB12687

> <DRUG_GROUPS>
investigational

> <GENERIC_NAME>
Vesatolimod

> <SYNONYMS>
Vesatolimod

$$$$
