
  Mrv1718006161819322D          

 53 58  0  0  0  0            999 V2000
    0.1502    0.2650    0.0000 C   0  0  0  0  0  0  0  0  0  0  0  0
    0.9349    0.0079    0.0000 C   0  0  0  0  0  0  0  0  0  0  0  0
    1.5470    0.5610    0.0000 C   0  0  0  0  0  0  0  0  0  0  0  0
    2.3317    0.3082    0.0000 C   0  0  0  0  0  0  0  0  0  0  0  0
   -0.4661   -0.2878    0.0000 S   0  0  0  0  0  0  0  0  0  0  0  0
    0.0869   -0.9001    0.0000 O   0  0  0  0  0  0  0  0  0  0  0  0
   -1.0150    0.3243    0.0000 O   0  0  0  0  0  0  0  0  0  0  0  0
   -1.0783   -0.8409    0.0000 O   0  0  0  0  0  0  0  0  0  0  0  0
    2.9439    0.8570    0.0000 N   0  3  0  0  0  0  0  0  0  0  0  0
    2.8590    1.6792    0.0000 C   0  0  0  0  0  0  0  0  0  0  0  0
    3.6135    2.0126    0.0000 C   0  0  0  0  0  0  0  0  0  0  0  0
    4.1623    1.4005    0.0000 C   0  0  0  0  0  0  0  0  0  0  0  0
    4.9873    1.4005    0.0000 C   0  0  0  0  0  0  0  0  0  0  0  0
    5.3998    0.6888    0.0000 C   0  0  0  0  0  0  0  0  0  0  0  0
    4.9873   -0.0269    0.0000 C   0  0  0  0  0  0  0  0  0  0  0  0
    4.1623   -0.0269    0.0000 C   0  0  0  0  0  0  0  0  0  0  0  0
    3.7499    0.6888    0.0000 C   0  0  0  0  0  0  0  0  0  0  0  0
    6.2248    0.6888    0.0000 C   0  0  0  0  0  0  0  0  0  0  0  0
    6.6372    1.4005    0.0000 C   0  0  0  0  0  0  0  0  0  0  0  0
    6.2248    2.1162    0.0000 C   0  0  0  0  0  0  0  0  0  0  0  0
    5.3998    2.1162    0.0000 C   0  0  0  0  0  0  0  0  0  0  0  0
    3.2010    2.7285    0.0000 C   0  0  0  0  0  0  0  0  0  0  0  0
    4.2788    2.5015    0.0000 C   0  0  0  0  0  0  0  0  0  0  0  0
    2.1433    2.0918    0.0000 C   0  0  0  0  0  0  0  0  0  0  0  0
    1.4316    1.6792    0.0000 C   0  0  0  0  0  0  0  0  0  0  0  0
    0.7158    2.0918    0.0000 C   0  0  0  0  0  0  0  0  0  0  0  0
    0.0000    1.6792    0.0000 C   0  0  0  0  0  0  0  0  0  0  0  0
   -0.7158    2.0918    0.0000 C   0  0  0  0  0  0  0  0  0  0  0  0
   -1.4274    1.6792    0.0000 C   0  0  0  0  0  0  0  0  0  0  0  0
   -2.1433    2.0918    0.0000 C   0  0  0  0  0  0  0  0  0  0  0  0
   -2.9439    0.8570    0.0000 N   0  0  0  0  0  0  0  0  0  0  0  0
   -2.8549    1.6792    0.0000 C   0  0  0  0  0  0  0  0  0  0  0  0
   -3.6093    2.0126    0.0000 C   0  0  0  0  0  0  0  0  0  0  0  0
   -4.1623    1.4005    0.0000 C   0  0  0  0  0  0  0  0  0  0  0  0
   -4.9873    1.4005    0.0000 C   0  0  0  0  0  0  0  0  0  0  0  0
   -5.3998    0.6888    0.0000 C   0  0  0  0  0  0  0  0  0  0  0  0
   -4.9873   -0.0269    0.0000 C   0  0  0  0  0  0  0  0  0  0  0  0
   -4.1623   -0.0269    0.0000 C   0  0  0  0  0  0  0  0  0  0  0  0
   -3.7499    0.6888    0.0000 C   0  0  0  0  0  0  0  0  0  0  0  0
   -6.2248    0.6888    0.0000 C   0  0  0  0  0  0  0  0  0  0  0  0
   -6.6372    1.4005    0.0000 C   0  0  0  0  0  0  0  0  0  0  0  0
   -6.2248    2.1162    0.0000 C   0  0  0  0  0  0  0  0  0  0  0  0
   -5.3998    2.1162    0.0000 C   0  0  0  0  0  0  0  0  0  0  0  0
   -2.3317    0.3082    0.0000 C   0  0  0  0  0  0  0  0  0  0  0  0
   -2.5040   -0.5019    0.0000 C   0  0  0  0  0  0  0  0  0  0  0  0
   -3.2845   -0.7548    0.0000 C   0  0  0  0  0  0  0  0  0  0  0  0
   -3.4569   -1.5608    0.0000 C   0  0  0  0  0  0  0  0  0  0  0  0
   -2.8730   -2.1446    0.0000 S   0  0  0  0  0  0  0  0  0  0  0  0
   -3.4569   -2.7285    0.0000 O   0  0  0  0  0  0  0  0  0  0  0  0
   -2.2891   -1.5608    0.0000 O   0  0  0  0  0  0  0  0  0  0  0  0
   -2.2891   -2.7285    0.0000 O   0  0  0  0  0  0  0  0  0  0  0  0
   -3.1968    2.7285    0.0000 C   0  0  0  0  0  0  0  0  0  0  0  0
   -4.2788    2.5015    0.0000 C   0  0  0  0  0  0  0  0  0  0  0  0
  1  2  1  0  0  0  0
  2  3  1  0  0  0  0
  3  4  1  0  0  0  0
  5  6  2  0  0  0  0
  5  7  2  0  0  0  0
  5  8  1  0  0  0  0
  1  5  1  0  0  0  0
  9 10  2  0  0  0  0
 10 11  1  0  0  0  0
 11 12  1  0  0  0  0
 12 13  1  0  0  0  0
 13 14  1  0  0  0  0
 14 15  1  0  0  0  0
 15 16  2  0  0  0  0
 16 17  1  0  0  0  0
  9 17  1  0  0  0  0
 12 17  2  0  0  0  0
 18 19  1  0  0  0  0
 19 20  2  0  0  0  0
 20 21  1  0  0  0  0
 13 21  2  0  0  0  0
 14 18  2  0  0  0  0
 11 22  1  0  0  0  0
 11 23  1  0  0  0  0
 24 25  2  0  0  0  0
 25 26  1  0  0  0  0
 26 27  2  0  0  0  0
 27 28  1  0  0  0  0
 28 29  2  0  0  0  0
 29 30  1  0  0  0  0
 31 32  1  0  0  0  0
 32 33  1  0  0  0  0
 33 34  1  0  0  0  0
 34 35  1  0  0  0  0
 35 36  1  0  0  0  0
 36 37  1  0  0  0  0
 37 38  2  0  0  0  0
 38 39  1  0  0  0  0
 31 39  1  0  0  0  0
 34 39  2  0  0  0  0
 40 41  1  0  0  0  0
 41 42  2  0  0  0  0
 42 43  1  0  0  0  0
 35 43  2  0  0  0  0
 36 40  2  0  0  0  0
 44 45  1  0  0  0  0
 45 46  1  0  0  0  0
 46 47  1  0  0  0  0
 48 49  2  0  0  0  0
 48 50  2  0  0  0  0
 48 51  1  0  0  0  0
 47 48  1  0  0  0  0
 31 44  1  0  0  0  0
 33 52  1  0  0  0  0
 33 53  1  0  0  0  0
 30 32  2  0  0  0  0
 10 24  1  0  0  0  0
  4  9  1  0  0  0  0
M  CHG  1   9   1
M  END
> <DATABASE_ID>
DB09374

> <DATABASE_NAME>
drugbank

> <SMILES>
CC1(C)\C(=C\C=C\C=C\C=C\C2=[N+](CCCCS(O)(=O)=O)C3=C(C4=CC=CC=C4C=C3)C2(C)C)N(CCCCS(O)(=O)=O)C2=C1C1=CC=CC=C1C=C2

> <INCHI_IDENTIFIER>
InChI=1S/C43H48N2O6S2/c1-42(2)38(44(28-14-16-30-52(46,47)48)36-26-24-32-18-10-12-20-34(32)40(36)42)22-8-6-5-7-9-23-39-43(3,4)41-35-21-13-11-19-33(35)25-27-37(41)45(39)29-15-17-31-53(49,50)51/h5-13,18-27H,14-17,28-31H2,1-4H3,(H-,46,47,48,49,50,51)/p+1

> <INCHI_KEY>
BDBMLMBYCXNVMC-UHFFFAOYSA-O

> <FORMULA>
C43H49N2O6S2

> <MOLECULAR_WEIGHT>
753.99

> <EXACT_MASS>
753.302656074

> <JCHEM_ACCEPTOR_COUNT>
7

> <JCHEM_ATOM_COUNT>
102

> <JCHEM_AVERAGE_POLARIZABILITY>
87.20108957942045

> <JCHEM_BIOAVAILABILITY>
0

> <JCHEM_DONOR_COUNT>
2

> <JCHEM_FORMAL_CHARGE>
1

> <JCHEM_GHOSE_FILTER>
0

> <JCHEM_IUPAC>
2-[(1E,3E,5E)-7-[(2Z)-1,1-dimethyl-3-(4-sulfobutyl)-1H,2H,3H-benzo[e]indol-2-ylidene]hepta-1,3,5-trien-1-yl]-1,1-dimethyl-3-(4-sulfobutyl)-1H-benzo[e]indol-3-ium

> <ALOGPS_LOGP>
2.26

> <JCHEM_LOGP>
6.053551064213667

> <ALOGPS_LOGS>
-7.31

> <JCHEM_MDDR_LIKE_RULE>
1

> <JCHEM_NUMBER_OF_RINGS>
6

> <JCHEM_PHYSIOLOGICAL_CHARGE>
-1

> <JCHEM_PKA>
-0.3067711714738657

> <JCHEM_PKA_STRONGEST_ACIDIC>
-0.9356999106150523

> <JCHEM_PKA_STRONGEST_BASIC>
2.655314695548304

> <JCHEM_POLAR_SURFACE_AREA>
114.99

> <JCHEM_REFRACTIVITY>
231.1265

> <JCHEM_ROTATABLE_BOND_COUNT>
14

> <JCHEM_RULE_OF_FIVE>
0

> <ALOGPS_SOLUBILITY>
3.82e-05 g/l

> <JCHEM_TRADITIONAL_IUPAC>
2-[(1E,3E,5E)-7-[(2Z)-1,1-dimethyl-3-(4-sulfobutyl)benzo[e]indol-2-ylidene]hepta-1,3,5-trien-1-yl]-1,1-dimethyl-3-(4-sulfobutyl)benzo[e]indol-3-ium

> <JCHEM_VEBER_RULE>
0

> <DRUGBANK_ID>
DB09374

> <DRUG_GROUPS>
approved; investigational

> <GENERIC_NAME>
Indocyanine green acid form

> <PRODUCTS>
IC-Green; Ic-green; Icg; Indocyanine Green; Indocyanine green; PINPOINT Kit; PINPOINT Lymphatics Kit; SPY Elite Kit; SPY Lymphatics Kit; SPY-MIS Kit; SPY-PHI Kit

> <SALTS>
Indocyanine green

$$$$
