
  Mrv1909 01292018422D          

 28 27  0  0  0  0            999 V2000
   -1.7799    2.2964    0.0000 Cr  0  1  0  0  0  0  0  0  0  0  0  0
    0.3455    3.7159    0.0000 O   0  5  0  0  0  0  0  0  0  0  0  0
    1.0590    3.2998    0.0000 C   0  0  0  0  0  0  0  0  0  0  0  0
    1.7724    3.7159    0.0000 O   0  0  0  0  0  0  0  0  0  0  0  0
    1.0590    2.4748    0.0000 C   0  0  0  0  0  0  0  0  0  0  0  0
    1.7724    2.0661    0.0000 N   0  0  0  0  0  0  0  0  0  0  0  0
    1.7724    1.2411    0.0000 C   0  0  0  0  0  0  0  0  0  0  0  0
    1.0590    0.8249    0.0000 C   0  0  0  0  0  0  0  0  0  0  0  0
    0.3455    1.2411    0.0000 C   0  0  0  0  0  0  0  0  0  0  0  0
    0.3455    2.0661    0.0000 C   0  0  0  0  0  0  0  0  0  0  0  0
   -2.4934   -0.8249    0.0000 O   0  5  0  0  0  0  0  0  0  0  0  0
   -1.7799   -1.2411    0.0000 C   0  0  0  0  0  0  0  0  0  0  0  0
   -1.0665   -0.8249    0.0000 O   0  0  0  0  0  0  0  0  0  0  0  0
   -1.7799   -2.0660    0.0000 C   0  0  0  0  0  0  0  0  0  0  0  0
   -1.0665   -2.4748    0.0000 N   0  0  0  0  0  0  0  0  0  0  0  0
   -1.0665   -3.2997    0.0000 C   0  0  0  0  0  0  0  0  0  0  0  0
   -1.7799   -3.7159    0.0000 C   0  0  0  0  0  0  0  0  0  0  0  0
   -2.4934   -3.2997    0.0000 C   0  0  0  0  0  0  0  0  0  0  0  0
   -2.4934   -2.4748    0.0000 C   0  0  0  0  0  0  0  0  0  0  0  0
    1.0590   -0.8249    0.0000 O   0  5  0  0  0  0  0  0  0  0  0  0
    1.7724   -1.2411    0.0000 C   0  0  0  0  0  0  0  0  0  0  0  0
    2.4934   -0.8249    0.0000 O   0  0  0  0  0  0  0  0  0  0  0  0
    1.7724   -2.0660    0.0000 C   0  0  0  0  0  0  0  0  0  0  0  0
    2.4934   -2.4748    0.0000 N   0  0  0  0  0  0  0  0  0  0  0  0
    2.4934   -3.2997    0.0000 C   0  0  0  0  0  0  0  0  0  0  0  0
    1.7724   -3.7159    0.0000 C   0  0  0  0  0  0  0  0  0  0  0  0
    1.0590   -3.2997    0.0000 C   0  0  0  0  0  0  0  0  0  0  0  0
    1.0590   -2.4748    0.0000 C   0  0  0  0  0  0  0  0  0  0  0  0
  2  3  1  0  0  0  0
  3  4  2  0  0  0  0
  3  5  1  0  0  0  0
  5  6  2  0  0  0  0
  5 10  1  0  0  0  0
  6  7  1  0  0  0  0
  7  8  2  0  0  0  0
  8  9  1  0  0  0  0
  9 10  2  0  0  0  0
 11 12  1  0  0  0  0
 12 13  2  0  0  0  0
 12 14  1  0  0  0  0
 14 15  2  0  0  0  0
 14 19  1  0  0  0  0
 15 16  1  0  0  0  0
 16 17  2  0  0  0  0
 17 18  1  0  0  0  0
 18 19  2  0  0  0  0
 20 21  1  0  0  0  0
 21 22  2  0  0  0  0
 21 23  1  0  0  0  0
 23 24  2  0  0  0  0
 23 28  1  0  0  0  0
 24 25  1  0  0  0  0
 25 26  2  0  0  0  0
 26 27  1  0  0  0  0
 27 28  2  0  0  0  0
M  CHG  4   1   3   2  -1  11  -1  20  -1
M  END
> <DATABASE_ID>
DB11255

> <DATABASE_NAME>
drugbank

> <SMILES>
[Cr+3].[O-]C(=O)C1=NC=CC=C1.[O-]C(=O)C1=NC=CC=C1.[O-]C(=O)C1=NC=CC=C1

> <INCHI_IDENTIFIER>
InChI=1S/3C6H5NO2.Cr/c3*8-6(9)5-3-1-2-4-7-5;/h3*1-4H,(H,8,9);/q;;;+3/p-3

> <INCHI_KEY>
CBDQOLKNTOMMTL-UHFFFAOYSA-K

> <FORMULA>
C18H12CrN3O6

> <MOLECULAR_WEIGHT>
418.3005

> <EXACT_MASS>
418.013122035

> <JCHEM_ACCEPTOR_COUNT>
3

> <JCHEM_ATOM_COUNT>
40

> <JCHEM_AVERAGE_NEUTRAL_MICROSPECIES_CHARGE>
-0.9878411964708829

> <JCHEM_AVERAGE_POLARIZABILITY>
10.940645315760444

> <JCHEM_BIOAVAILABILITY>
1

> <JCHEM_DONOR_COUNT>
0

> <JCHEM_FORMAL_CHARGE>
0

> <JCHEM_GHOSE_FILTER>
0

> <JCHEM_IUPAC>
chromium(3+) tris(pyridine-2-carboxylate)

> <ALOGPS_LOGP>
2.90

> <JCHEM_LOGP>
-0.6513314798278669

> <ALOGPS_LOGS>
-4.13

> <JCHEM_MDDR_LIKE_RULE>
0

> <JCHEM_NEUTRAL_CHARGE>
-1

> <JCHEM_NUMBER_OF_RINGS>
3

> <JCHEM_PHYSIOLOGICAL_CHARGE>
-1

> <JCHEM_PKA_STRONGEST_ACIDIC>
0.9979485822657972

> <JCHEM_PKA_STRONGEST_BASIC>
5.517960982029459

> <JCHEM_POLAR_SURFACE_AREA>
53.019999999999996

> <JCHEM_REFRACTIVITY>
41.6224

> <JCHEM_ROTATABLE_BOND_COUNT>
3

> <JCHEM_RULE_OF_FIVE>
1

> <ALOGPS_SOLUBILITY>
3.12e-02 g/l

> <JCHEM_TRADITIONAL_IUPAC>
fidaxomicin

> <JCHEM_VEBER_RULE>
0

> <DRUGBANK_ID>
DB11255

> <DRUG_GROUPS>
approved

> <GENERIC_NAME>
Chromium picolinate

> <SYNONYMS>
Chromium(III) picolinate

> <PRODUCTS>
Corvita; Corvite; Divista; Medi-10; RE FAC-x; Vita-Rx Diabetic Vitamin

$$$$
