
  Mrv1652306231722482D          

 16 16  0  0  1  0            999 V2000
    0.7145   -3.7125    0.0000 C   0  0  0  0  0  0  0  0  0  0  0  0
    1.4289   -4.1250    0.0000 C   0  0  0  0  0  0  0  0  0  0  0  0
    1.4289   -4.9500    0.0000 C   0  0  0  0  0  0  0  0  0  0  0  0
    2.1434   -3.7125    0.0000 N   0  0  0  0  0  0  0  0  0  0  0  0
    2.8579   -4.1250    0.0000 C   0  0  0  0  0  0  0  0  0  0  0  0
    3.5724   -3.7125    0.0000 C   0  0  1  0  0  0  0  0  0  0  0  0
    4.2868   -4.1250    0.0000 C   0  0  0  0  0  0  0  0  0  0  0  0
    5.0013   -3.7125    0.0000 O   0  0  0  0  0  0  0  0  0  0  0  0
    5.7158   -4.1250    0.0000 C   0  0  0  0  0  0  0  0  0  0  0  0
    6.4302   -3.7125    0.0000 C   0  0  0  0  0  0  0  0  0  0  0  0
    7.1447   -4.1250    0.0000 C   0  0  0  0  0  0  0  0  0  0  0  0
    7.1447   -4.9500    0.0000 C   0  0  0  0  0  0  0  0  0  0  0  0
    6.4302   -5.3625    0.0000 C   0  0  0  0  0  0  0  0  0  0  0  0
    5.7158   -4.9500    0.0000 C   0  0  0  0  0  0  0  0  0  0  0  0
    7.8592   -5.3625    0.0000 O   0  0  0  0  0  0  0  0  0  0  0  0
    3.5724   -2.8875    0.0000 O   0  0  0  0  0  0  0  0  0  0  0  0
  1  2  1  0  0  0  0
  2  3  1  0  0  0  0
  2  4  1  0  0  0  0
  4  5  1  0  0  0  0
  5  6  1  0  0  0  0
  6  7  1  0  0  0  0
  7  8  1  0  0  0  0
  8  9  1  0  0  0  0
  9 10  2  0  0  0  0
 10 11  1  0  0  0  0
 11 12  2  0  0  0  0
 12 13  1  0  0  0  0
 13 14  2  0  0  0  0
  9 14  1  0  0  0  0
 12 15  1  0  0  0  0
  6 16  1  6  0  0  0
M  END
> <DATABASE_ID>
DB13777

> <DATABASE_NAME>
drugbank

> <SMILES>
CC(C)NC[C@H](O)COC1=CC=C(O)C=C1

> <INCHI_IDENTIFIER>
InChI=1S/C12H19NO3/c1-9(2)13-7-11(15)8-16-12-5-3-10(14)4-6-12/h3-6,9,11,13-15H,7-8H2,1-2H3/t11-/m0/s1

> <INCHI_KEY>
ADUKCCWBEDSMEB-NSHDSACASA-N

> <FORMULA>
C12H19NO3

> <MOLECULAR_WEIGHT>
225.288

> <EXACT_MASS>
225.136493476

> <JCHEM_ACCEPTOR_COUNT>
4

> <JCHEM_ATOM_COUNT>
35

> <JCHEM_AVERAGE_POLARIZABILITY>
25.379583888862506

> <JCHEM_BIOAVAILABILITY>
1

> <JCHEM_DONOR_COUNT>
3

> <JCHEM_FORMAL_CHARGE>
0

> <JCHEM_GHOSE_FILTER>
1

> <JCHEM_IUPAC>
4-[(2S)-2-hydroxy-3-[(propan-2-yl)amino]propoxy]phenol

> <ALOGPS_LOGP>
0.43

> <JCHEM_LOGP>
0.799900499728624

> <ALOGPS_LOGS>
-1.94

> <JCHEM_MDDR_LIKE_RULE>
0

> <JCHEM_NUMBER_OF_RINGS>
1

> <JCHEM_PHYSIOLOGICAL_CHARGE>
1

> <JCHEM_PKA>
14.088001752333

> <JCHEM_PKA_STRONGEST_ACIDIC>
10.113282451737817

> <JCHEM_PKA_STRONGEST_BASIC>
9.473834424073393

> <JCHEM_POLAR_SURFACE_AREA>
61.72

> <JCHEM_REFRACTIVITY>
62.35640000000001

> <JCHEM_ROTATABLE_BOND_COUNT>
6

> <JCHEM_RULE_OF_FIVE>
1

> <ALOGPS_SOLUBILITY>
2.61e+00 g/l

> <JCHEM_TRADITIONAL_IUPAC>
prenalterol

> <JCHEM_VEBER_RULE>
0

> <DRUGBANK_ID>
DB13777

> <DRUG_GROUPS>
experimental

> <GENERIC_NAME>
Prenalterol

> <SYNONYMS>
Prenalterol

$$$$
