
  Mrv1909 05201914522D          

 32 35  0  0  1  0            999 V2000
    4.2575   -0.8137    0.0000 C   0  0  0  0  0  0  0  0  0  0  0  0
    3.7054   -0.2006    0.0000 C   0  0  2  0  0  0  0  0  0  0  0  0
    2.8985   -0.3721    0.0000 C   0  0  0  0  0  0  0  0  0  0  0  0
    2.3464    0.2410    0.0000 C   0  0  0  0  0  0  0  0  0  0  0  0
    2.6014    1.0256    0.0000 C   0  0  0  0  0  0  0  0  0  0  0  0
    1.9339    1.5105    0.0000 N   0  0  0  0  0  0  0  0  0  0  0  0
    1.2665    1.0256    0.0000 C   0  0  0  0  0  0  0  0  0  0  0  0
    1.5214    0.2410    0.0000 C   0  0  0  0  0  0  0  0  0  0  0  0
    0.9694   -0.3721    0.0000 C   0  0  0  0  0  0  0  0  0  0  0  0
    0.1624   -0.2006    0.0000 C   0  0  0  0  0  0  0  0  0  0  0  0
   -0.0925    0.5840    0.0000 C   0  0  0  0  0  0  0  0  0  0  0  0
    0.4595    1.1971    0.0000 C   0  0  0  0  0  0  0  0  0  0  0  0
    3.4084    1.1971    0.0000 C   0  0  2  0  0  0  0  0  0  0  0  0
    3.9604    0.5840    0.0000 N   0  0  0  0  0  0  0  0  0  0  0  0
    4.7674    0.7556    0.0000 C   0  0  0  0  0  0  0  0  0  0  0  0
    5.3194    0.1425    0.0000 C   0  0  0  0  0  0  0  0  0  0  0  0
    4.7063   -0.4096    0.0000 C   0  0  0  0  0  0  0  0  0  0  0  0
    5.9325    0.6945    0.0000 C   0  0  0  0  0  0  0  0  0  0  0  0
    5.8714   -0.4706    0.0000 F   0  0  0  0  0  0  0  0  0  0  0  0
    3.6633    1.9817    0.0000 C   0  0  0  0  0  0  0  0  0  0  0  0
    3.1113    2.5948    0.0000 C   0  0  0  0  0  0  0  0  0  0  0  0
    2.3043    2.4233    0.0000 F   0  0  0  0  0  0  0  0  0  0  0  0
    3.3662    3.3795    0.0000 C   0  0  0  0  0  0  0  0  0  0  0  0
    4.1732    3.5510    0.0000 C   0  0  0  0  0  0  0  0  0  0  0  0
    4.4281    4.3356    0.0000 C   0  0  0  0  0  0  0  0  0  0  0  0
    5.2351    4.5071    0.0000 C   0  0  0  0  0  0  0  0  0  0  0  0
    5.4900    5.2918    0.0000 C   0  0  0  0  0  0  0  0  0  0  0  0
    4.9380    5.9049    0.0000 O   0  0  0  0  0  0  0  0  0  0  0  0
    6.2970    5.4633    0.0000 O   0  0  0  0  0  0  0  0  0  0  0  0
    4.7252    2.9379    0.0000 C   0  0  0  0  0  0  0  0  0  0  0  0
    4.4703    2.1533    0.0000 C   0  0  0  0  0  0  0  0  0  0  0  0
    5.0223    1.5402    0.0000 F   0  0  0  0  0  0  0  0  0  0  0  0
  2  1  1  6  0  0  0
  2  3  1  0  0  0  0
  3  4  1  0  0  0  0
  4  5  2  0  0  0  0
  5  6  1  0  0  0  0
  6  7  1  0  0  0  0
  7  8  2  0  0  0  0
  4  8  1  0  0  0  0
  8  9  1  0  0  0  0
  9 10  2  0  0  0  0
 10 11  1  0  0  0  0
 11 12  2  0  0  0  0
  7 12  1  0  0  0  0
 13  5  1  0  0  0  0
 13 14  1  0  0  0  0
  2 14  1  0  0  0  0
 14 15  1  0  0  0  0
 15 16  1  0  0  0  0
 16 17  1  0  0  0  0
 16 18  1  0  0  0  0
 16 19  1  0  0  0  0
 13 20  1  1  0  0  0
 20 21  2  0  0  0  0
 21 22  1  0  0  0  0
 21 23  1  0  0  0  0
 23 24  2  0  0  0  0
 24 25  1  0  0  0  0
 25 26  2  0  0  0  0
 26 27  1  0  0  0  0
 27 28  1  0  0  0  0
 27 29  2  0  0  0  0
 24 30  1  0  0  0  0
 30 31  2  0  0  0  0
 20 31  1  0  0  0  0
 31 32  1  0  0  0  0
M  END
> <DATABASE_ID>
DB15138

> <DATABASE_NAME>
drugbank

> <SMILES>
C[C@@H]1CC2=C(NC3=C2C=CC=C3)[C@H](N1CC(C)(C)F)C1=C(F)C=C(\C=C\C(O)=O)C=C1F

> <INCHI_IDENTIFIER>
InChI=1S/C25H25F3N2O2/c1-14-10-17-16-6-4-5-7-20(16)29-23(17)24(30(14)13-25(2,3)28)22-18(26)11-15(12-19(22)27)8-9-21(31)32/h4-9,11-12,14,24,29H,10,13H2,1-3H3,(H,31,32)/b9-8+/t14-,24-/m1/s1

> <INCHI_KEY>
DFBDRVGWBHBJNR-BBNFHIFMSA-N

> <FORMULA>
C25H25F3N2O2

> <MOLECULAR_WEIGHT>
442.482

> <EXACT_MASS>
442.186812542

> <JCHEM_ACCEPTOR_COUNT>
3

> <JCHEM_ATOM_COUNT>
57

> <JCHEM_AVERAGE_POLARIZABILITY>
45.700929937344554

> <JCHEM_BIOAVAILABILITY>
1

> <JCHEM_DONOR_COUNT>
2

> <JCHEM_FORMAL_CHARGE>
0

> <JCHEM_GHOSE_FILTER>
1

> <JCHEM_IUPAC>
(2E)-3-{3,5-difluoro-4-[(1R,3R)-2-(2-fluoro-2-methylpropyl)-3-methyl-1H,2H,3H,4H,9H-pyrido[3,4-b]indol-1-yl]phenyl}prop-2-enoic acid

> <ALOGPS_LOGP>
4.79

> <JCHEM_LOGP>
3.8196270370053274

> <ALOGPS_LOGS>
-5.18

> <JCHEM_MDDR_LIKE_RULE>
0

> <JCHEM_NUMBER_OF_RINGS>
4

> <JCHEM_PHYSIOLOGICAL_CHARGE>
-1

> <JCHEM_PKA>
16.23509685951039

> <JCHEM_PKA_STRONGEST_ACIDIC>
3.0126303709087274

> <JCHEM_PKA_STRONGEST_BASIC>
4.654455785626079

> <JCHEM_POLAR_SURFACE_AREA>
56.330000000000005

> <JCHEM_REFRACTIVITY>
118.6678

> <JCHEM_ROTATABLE_BOND_COUNT>
5

> <JCHEM_RULE_OF_FIVE>
1

> <ALOGPS_SOLUBILITY>
2.90e-03 g/l

> <JCHEM_TRADITIONAL_IUPAC>
(2R)-14-fluoro-2-methyl-6,9,10,19-tetraazapentacyclo[14.2.1.0^{2,6}.0^{8,18}.0^{12,17}]nonadeca-1(18),8,12(17),13,15-pentaen-11-one

> <JCHEM_VEBER_RULE>
0

> <DRUGBANK_ID>
DB15138

> <DRUG_GROUPS>
investigational

> <GENERIC_NAME>
AZD-9496

$$$$
