
  Mrv1909 11142221392D          

 30 34  0  0  0  0            999 V2000
    4.2868   -4.1250    0.0000 F   0  0  0  0  0  0  0  0  0  0  0  0
    3.5724   -3.7125    0.0000 C   0  0  0  0  0  0  0  0  0  0  0  0
    2.8579   -4.1250    0.0000 C   0  0  0  0  0  0  0  0  0  0  0  0
    2.1434   -3.7125    0.0000 C   0  0  0  0  0  0  0  0  0  0  0  0
    2.1434   -2.8875    0.0000 C   0  0  0  0  0  0  0  0  0  0  0  0
    1.4289   -2.4750    0.0000 C   0  0  0  0  0  0  0  0  0  0  0  0
    1.4289   -1.6500    0.0000 C   0  0  0  0  0  0  0  0  0  0  0  0
    0.7145   -1.2375    0.0000 N   0  0  0  0  0  0  0  0  0  0  0  0
    0.7145   -0.4125    0.0000 N   0  0  0  0  0  0  0  0  0  0  0  0
    1.4289    0.0000    0.0000 C   0  0  0  0  0  0  0  0  0  0  0  0
    1.4289    0.8250    0.0000 O   0  0  0  0  0  0  0  0  0  0  0  0
    2.1434   -0.4125    0.0000 C   0  0  0  0  0  0  0  0  0  0  0  0
    2.8579    0.0000    0.0000 C   0  0  0  0  0  0  0  0  0  0  0  0
    3.5724   -0.4125    0.0000 C   0  0  0  0  0  0  0  0  0  0  0  0
    3.5724   -1.2375    0.0000 C   0  0  0  0  0  0  0  0  0  0  0  0
    2.8579   -1.6500    0.0000 C   0  0  0  0  0  0  0  0  0  0  0  0
    2.1434   -1.2375    0.0000 C   0  0  0  0  0  0  0  0  0  0  0  0
    2.8579   -2.4750    0.0000 C   0  0  0  0  0  0  0  0  0  0  0  0
    3.5724   -2.8875    0.0000 C   0  0  0  0  0  0  0  0  0  0  0  0
    2.8579   -4.9500    0.0000 C   0  0  0  0  0  0  0  0  0  0  0  0
    3.5724   -5.3625    0.0000 O   0  0  0  0  0  0  0  0  0  0  0  0
    2.1434   -5.3625    0.0000 N   0  0  0  0  0  0  0  0  0  0  0  0
    1.9299   -6.1594    0.0000 C   0  0  0  0  0  0  0  0  0  0  0  0
    1.1330   -5.9459    0.0000 C   0  0  0  0  0  0  0  0  0  0  0  0
    0.4185   -6.3584    0.0000 C   0  0  0  0  0  0  0  0  0  0  0  0
    0.4185   -7.1834    0.0000 N   0  0  0  0  0  0  0  0  0  0  0  0
   -0.2959   -7.5959    0.0000 C   0  0  0  0  0  0  0  0  0  0  0  0
   -0.7084   -8.3103    0.0000 C   0  0  0  0  0  0  0  0  0  0  0  0
   -1.1209   -7.5959    0.0000 C   0  0  0  0  0  0  0  0  0  0  0  0
    1.3465   -5.1490    0.0000 C   0  0  0  0  0  0  0  0  0  0  0  0
  1  2  1  0  0  0  0
  2  3  2  0  0  0  0
  3  4  1  0  0  0  0
  4  5  2  0  0  0  0
  5  6  1  0  0  0  0
  6  7  1  0  0  0  0
  7  8  2  0  0  0  0
  8  9  1  0  0  0  0
  9 10  1  0  0  0  0
 10 11  2  0  0  0  0
 10 12  1  0  0  0  0
 12 13  2  0  0  0  0
 13 14  1  0  0  0  0
 14 15  2  0  0  0  0
 15 16  1  0  0  0  0
 16 17  2  0  0  0  0
  7 17  1  0  0  0  0
 12 17  1  0  0  0  0
  5 18  1  0  0  0  0
 18 19  2  0  0  0  0
  2 19  1  0  0  0  0
  3 20  1  0  0  0  0
 20 21  2  0  0  0  0
 20 22  1  0  0  0  0
 22 23  1  0  0  0  0
 23 24  1  0  0  0  0
 24 25  1  0  0  0  0
 25 26  1  0  0  0  0
 26 27  1  0  0  0  0
 27 28  1  0  0  0  0
 28 29  1  0  0  0  0
 27 29  1  0  0  0  0
 24 30  1  0  0  0  0
 22 30  1  0  0  0  0
M  END
> <DATABASE_ID>
DB17105

> <DATABASE_NAME>
drugbank

> <SMILES>
FC1=C(C=C(CC2=NNC(=O)C3=CC=CC=C23)C=C1)C(=O)N1CC(CNC2CC2)C1

> <INCHI_IDENTIFIER>
InChI=1S/C23H23FN4O2/c24-20-8-5-14(10-21-17-3-1-2-4-18(17)22(29)27-26-21)9-19(20)23(30)28-12-15(13-28)11-25-16-6-7-16/h1-5,8-9,15-16,25H,6-7,10-13H2,(H,27,29)

> <INCHI_KEY>
YNBQAYKYNYRCCA-UHFFFAOYSA-N

> <FORMULA>
C23H23FN4O2

> <MOLECULAR_WEIGHT>
406.461

> <EXACT_MASS>
406.18050416

> <JCHEM_ACCEPTOR_COUNT>
4

> <JCHEM_ATOM_COUNT>
53

> <JCHEM_AVERAGE_NEUTRAL_MICROSPECIES_CHARGE>
0.9975331677625915

> <JCHEM_AVERAGE_POLARIZABILITY>
41.95348203036181

> <JCHEM_BIOAVAILABILITY>
1

> <JCHEM_DONOR_COUNT>
2

> <JCHEM_FORMAL_CHARGE>
0

> <JCHEM_GHOSE_FILTER>
1

> <JCHEM_IUPAC>
4-[(3-{3-[(cyclopropylamino)methyl]azetidine-1-carbonyl}-4-fluorophenyl)methyl]-1,2-dihydrophthalazin-1-one

> <ALOGPS_LOGP>
2.23

> <JCHEM_LOGP>
1.5347777396426063

> <ALOGPS_LOGS>
-4.17

> <JCHEM_MDDR_LIKE_RULE>
1

> <JCHEM_NEUTRAL_CHARGE>
1

> <JCHEM_NUMBER_OF_RINGS>
5

> <JCHEM_PHYSIOLOGICAL_CHARGE>
1

> <JCHEM_PKA_STRONGEST_ACIDIC>
9.70315756094677

> <JCHEM_PKA_STRONGEST_BASIC>
10.309641600473654

> <JCHEM_POLAR_SURFACE_AREA>
73.8

> <JCHEM_REFRACTIVITY>
112.33039999999997

> <JCHEM_ROTATABLE_BOND_COUNT>
6

> <JCHEM_RULE_OF_FIVE>
1

> <ALOGPS_SOLUBILITY>
2.77e-02 g/l

> <JCHEM_TRADITIONAL_IUPAC>
ioflubenzamide i-131

> <JCHEM_VEBER_RULE>
0

> <DRUGBANK_ID>
DB17105

> <DRUG_GROUPS>
investigational

> <GENERIC_NAME>
Venadaparib

> <SYNONYMS>
1(2h)-phthalazinone, 4-((3-((3-((cyclopropylamino)methyl)-1-azetidinyl)carbonyl)-4-fluorophenyl)methyl)-; 4-((3-((3-((cyclopropylamino)methyl)-1-azetidinyl)carbonyl)-4-fluorophenyl)methyl)-1(2h)-phthalazinone

$$$$
