
  Mrv1909 05201915092D          

 41 45  0  0  1  0            999 V2000
   -3.8942   -0.2778    0.0000 C   0  0  0  0  0  0  0  0  0  0  0  0
   -3.1190    0.0044    0.0000 N   0  0  0  0  0  0  0  0  0  0  0  0
   -2.8916    0.7974    0.0000 C   0  0  0  0  0  0  0  0  0  0  0  0
   -2.0671    0.8262    0.0000 C   0  0  0  0  0  0  0  0  0  0  0  0
   -1.7849    0.0510    0.0000 C   0  0  0  0  0  0  0  0  0  0  0  0
   -2.4350   -0.4570    0.0000 N   0  0  0  0  0  0  0  0  0  0  0  0
   -1.6057    1.5102    0.0000 C   0  0  0  0  0  0  0  0  0  0  0  0
   -1.9674    2.2517    0.0000 C   0  0  0  0  0  0  0  0  0  0  0  0
   -1.5061    2.9356    0.0000 C   0  0  0  0  0  0  0  0  0  0  0  0
   -0.6831    2.8781    0.0000 C   0  0  0  0  0  0  0  0  0  0  0  0
   -0.3214    2.1366    0.0000 C   0  0  0  0  0  0  0  0  0  0  0  0
   -0.7828    1.4526    0.0000 C   0  0  0  0  0  0  0  0  0  0  0  0
   -0.2217    3.5620    0.0000 S   0  0  0  0  0  0  0  0  0  0  0  0
    0.4622    3.1007    0.0000 O   0  0  0  0  0  0  0  0  0  0  0  0
   -0.9057    4.0234    0.0000 O   0  0  0  0  0  0  0  0  0  0  0  0
    0.2396    4.2460    0.0000 C   0  0  2  0  0  0  0  0  0  0  0  0
   -0.0426    5.0212    0.0000 C   0  0  0  0  0  0  0  0  0  0  0  0
    0.6075    5.5291    0.0000 C   0  0  2  0  0  0  0  0  0  0  0  0
    1.2915    5.0678    0.0000 N   0  0  0  0  0  0  0  0  0  0  0  0
    1.0641    4.2748    0.0000 C   0  0  0  0  0  0  0  0  0  0  0  0
    2.0667    5.3500    0.0000 C   0  0  0  0  0  0  0  0  0  0  0  0
    2.2100    6.1624    0.0000 O   0  0  0  0  0  0  0  0  0  0  0  0
    2.6987    4.8197    0.0000 C   0  0  0  0  0  0  0  0  0  0  0  0
    3.1112    4.1052    0.0000 C   0  0  0  0  0  0  0  0  0  0  0  0
    2.2862    4.1052    0.0000 C   0  0  0  0  0  0  0  0  0  0  0  0
    3.3307    5.3500    0.0000 C   0  0  0  0  0  0  0  0  0  0  0  0
    3.9627    5.8803    0.0000 F   0  0  0  0  0  0  0  0  0  0  0  0
    3.8610    4.7180    0.0000 F   0  0  0  0  0  0  0  0  0  0  0  0
    2.8004    5.9820    0.0000 F   0  0  0  0  0  0  0  0  0  0  0  0
    0.5787    6.3536    0.0000 C   0  0  0  0  0  0  0  0  0  0  0  0
    1.2784    6.7908    0.0000 O   0  0  0  0  0  0  0  0  0  0  0  0
   -0.1497    6.7410    0.0000 N   0  0  0  0  0  0  0  0  0  0  0  0
   -0.8493    6.3038    0.0000 C   0  0  0  0  0  0  0  0  0  0  0  0
   -1.3572    5.6537    0.0000 C   0  0  0  0  0  0  0  0  0  0  0  0
   -0.5403    5.5388    0.0000 C   0  0  0  0  0  0  0  0  0  0  0  0
   -1.4014    6.9169    0.0000 C   0  0  0  0  0  0  0  0  0  0  0  0
   -1.9534    7.5300    0.0000 N   0  0  0  0  0  0  0  0  0  0  0  0
   -1.8677    3.6771    0.0000 C   0  0  0  0  0  0  0  0  0  0  0  0
   -2.2294    4.4186    0.0000 F   0  0  0  0  0  0  0  0  0  0  0  0
   -1.2743    4.2502    0.0000 F   0  0  0  0  0  0  0  0  0  0  0  0
   -2.6092    3.3155    0.0000 F   0  0  0  0  0  0  0  0  0  0  0  0
  1  2  1  0  0  0  0
  2  3  1  0  0  0  0
  3  4  2  0  0  0  0
  4  5  1  0  0  0  0
  5  6  2  0  0  0  0
  2  6  1  0  0  0  0
  4  7  1  0  0  0  0
  7  8  2  0  0  0  0
  8  9  1  0  0  0  0
  9 10  2  0  0  0  0
 10 11  1  0  0  0  0
 11 12  2  0  0  0  0
  7 12  1  0  0  0  0
 10 13  1  0  0  0  0
 13 14  2  0  0  0  0
 13 15  2  0  0  0  0
 16 13  1  6  0  0  0
 16 17  1  0  0  0  0
 18 17  1  0  0  0  0
 18 19  1  0  0  0  0
 19 20  1  0  0  0  0
 16 20  1  0  0  0  0
 19 21  1  0  0  0  0
 21 22  2  0  0  0  0
 21 23  1  0  0  0  0
 23 24  1  0  0  0  0
 24 25  1  0  0  0  0
 23 25  1  0  0  0  0
 23 26  1  0  0  0  0
 26 27  1  0  0  0  0
 26 28  1  0  0  0  0
 26 29  1  0  0  0  0
 18 30  1  1  0  0  0
 30 31  2  0  0  0  0
 30 32  1  0  0  0  0
 32 33  1  0  0  0  0
 33 34  1  0  0  0  0
 34 35  1  0  0  0  0
 33 35  1  0  0  0  0
 33 36  1  0  0  0  0
 36 37  3  0  0  0  0
  9 38  1  0  0  0  0
 38 39  1  0  0  0  0
 38 40  1  0  0  0  0
 38 41  1  0  0  0  0
M  END
> <DATABASE_ID>
DB15297

> <DATABASE_NAME>
drugbank

> <SMILES>
CN1C=C(C=N1)C1=CC(=C(C=C1)S(=O)(=O)[C@@H]1C[C@H](N(C1)C(=O)C1(CC1)C(F)(F)F)C(=O)NC1(CC1)C#N)C(F)(F)F

> <INCHI_IDENTIFIER>
InChI=1S/C25H23F6N5O4S/c1-35-11-15(10-33-35)14-2-3-19(17(8-14)24(26,27)28)41(39,40)16-9-18(20(37)34-22(13-32)4-5-22)36(12-16)21(38)23(6-7-23)25(29,30)31/h2-3,8,10-11,16,18H,4-7,9,12H2,1H3,(H,34,37)/t16-,18+/m1/s1

> <INCHI_KEY>
KXAAIORSMACJSI-AEFFLSMTSA-N

> <FORMULA>
C25H23F6N5O4S

> <MOLECULAR_WEIGHT>
603.54

> <EXACT_MASS>
603.137494393

> <JCHEM_ACCEPTOR_COUNT>
6

> <JCHEM_ATOM_COUNT>
64

> <JCHEM_AVERAGE_POLARIZABILITY>
52.721784629907326

> <JCHEM_BIOAVAILABILITY>
1

> <JCHEM_DONOR_COUNT>
1

> <JCHEM_FORMAL_CHARGE>
0

> <JCHEM_GHOSE_FILTER>
0

> <JCHEM_IUPAC>
(2S,4R)-N-(1-cyanocyclopropyl)-4-[4-(1-methyl-1H-pyrazol-4-yl)-2-(trifluoromethyl)benzenesulfonyl]-1-[1-(trifluoromethyl)cyclopropanecarbonyl]pyrrolidine-2-carboxamide

> <ALOGPS_LOGP>
2.74

> <JCHEM_LOGP>
2.301161946333333

> <ALOGPS_LOGS>
-3.79

> <JCHEM_MDDR_LIKE_RULE>
1

> <JCHEM_NUMBER_OF_RINGS>
5

> <JCHEM_PHYSIOLOGICAL_CHARGE>
0

> <JCHEM_PKA>
15.123922250986062

> <JCHEM_PKA_STRONGEST_ACIDIC>
9.771566020795738

> <JCHEM_PKA_STRONGEST_BASIC>
1.8160928997405692

> <JCHEM_POLAR_SURFACE_AREA>
125.16

> <JCHEM_REFRACTIVITY>
142.25539999999998

> <JCHEM_ROTATABLE_BOND_COUNT>
8

> <JCHEM_RULE_OF_FIVE>
0

> <ALOGPS_SOLUBILITY>
9.79e-02 g/l

> <JCHEM_TRADITIONAL_IUPAC>
(2R)-14-fluoro-2-methyl-6,9,10,19-tetraazapentacyclo[14.2.1.0^{2,6}.0^{8,18}.0^{12,17}]nonadeca-1(18),8,12(17),13,15-pentaen-11-one

> <JCHEM_VEBER_RULE>
0

> <DRUGBANK_ID>
DB15297

> <DRUG_GROUPS>
investigational

> <GENERIC_NAME>
Petesicatib

> <SYNONYMS>
Petesicatib

$$$$
