
  Mrv1909 04202015202D          

  3  2  0  0  0  0            999 V2000
   -0.0021    0.2087    0.0000 O   0  0  0  0  0  0  0  0  0  0  0  0
   -0.7116   -0.2087    0.0000 Ag  0  0  0  0  0  0  0  0  0  0  0  0
    0.7116   -0.2087    0.0000 Ag  0  0  0  0  0  0  0  0  0  0  0  0
  2  1  1  0  0  0  0
  3  1  1  0  0  0  0
M  END
> <DATABASE_ID>
DB15668

> <DATABASE_NAME>
drugbank

> <SMILES>
[Ag]O[Ag]

> <INCHI_IDENTIFIER>
InChI=1S/2Ag.O

> <INCHI_KEY>
KHJDQHIZCZTCAE-UHFFFAOYSA-N

> <FORMULA>
Ag2O

> <MOLECULAR_WEIGHT>
231.7358

> <EXACT_MASS>
229.805100662

> <JCHEM_ACCEPTOR_COUNT>
1

> <JCHEM_ATOM_COUNT>
3

> <JCHEM_AVERAGE_NEUTRAL_MICROSPECIES_CHARGE>
4.163009826143661e-05

> <JCHEM_AVERAGE_POLARIZABILITY>
4.718569756767625

> <JCHEM_BIOAVAILABILITY>
1

> <JCHEM_DONOR_COUNT>
0

> <JCHEM_FORMAL_CHARGE>
0

> <JCHEM_GHOSE_FILTER>
0

> <JCHEM_IUPAC>
(argentiooxy)silver

> <JCHEM_LOGP>
0.031200000000000006

> <JCHEM_MDDR_LIKE_RULE>
0

> <JCHEM_NEUTRAL_CHARGE>
0

> <JCHEM_NUMBER_OF_RINGS>
0

> <JCHEM_PHYSIOLOGICAL_CHARGE>
0

> <JCHEM_PKA_STRONGEST_BASIC>
-4.3805744839284655

> <JCHEM_POLAR_SURFACE_AREA>
9.23

> <JCHEM_REFRACTIVITY>
1.3502

> <JCHEM_ROTATABLE_BOND_COUNT>
0

> <JCHEM_RULE_OF_FIVE>
1

> <JCHEM_TRADITIONAL_IUPAC>
(argentiooxy)silver

> <JCHEM_VEBER_RULE>
1

> <DRUGBANK_ID>
DB15668

> <DRUG_GROUPS>
experimental

> <GENERIC_NAME>
Silver oxide

> <SYNONYMS>
Argentous oxide; Argentum oxydatum; Disilver oxide; Silver rust; Silver(I) oxide

> <PRODUCTS>
Fullerene Silver Ion Bacteriostatic Solution

$$$$
