
  Mrv1909 11061921072D          

 39 40  0  0  0  0            999 V2000
   -4.5535   -0.3432    0.0000 C   0  0  0  0  0  0  0  0  0  0  0  0
   -1.1848   -1.6017    0.0000 C   0  0  0  0  0  0  0  0  0  0  0  0
   -0.7884    0.0000    0.0000 C   0  0  0  0  0  0  0  0  0  0  0  0
    0.5986   -0.3432    0.0000 C   0  0  1  0  0  0  0  0  0  0  0  0
    0.7967    0.4575    0.0000 C   0  0  0  0  0  0  0  0  0  0  0  0
    0.2023    1.0296    0.0000 C   0  0  0  0  0  0  0  0  0  0  0  0
    0.4004    1.8304    0.0000 C   0  0  0  0  0  0  0  0  0  0  0  0
   -4.3553    0.4575    0.0000 C   0  0  0  0  0  0  0  0  0  0  0  0
    1.1930   -0.9152    0.0000 C   0  0  0  0  0  0  0  0  0  0  0  0
    2.1838    0.1143    0.0000 C   0  0  0  0  0  0  0  0  0  0  0  0
    2.5802   -1.2585    0.0000 C   0  0  0  0  0  0  0  0  0  0  0  0
    3.3728   -1.0296    0.0000 C   0  0  0  0  0  0  0  0  0  0  0  0
    3.9673   -1.6017    0.0000 C   0  0  0  0  0  0  0  0  0  0  0  0
    4.7599   -1.3729    0.0000 C   0  0  0  0  0  0  0  0  0  0  0  0
   -3.5628    0.6864    0.0000 C   0  0  0  0  0  0  0  0  0  0  0  0
    4.9581   -0.5720    0.0000 C   0  0  0  0  0  0  0  0  0  0  0  0
    5.7507   -0.3432    0.0000 C   0  0  0  0  0  0  0  0  0  0  0  0
    6.3452   -0.9152    0.0000 C   0  0  0  0  0  0  0  0  0  0  0  0
    6.1470   -1.7161    0.0000 C   0  0  0  0  0  0  0  0  0  0  0  0
    5.3544   -1.9449    0.0000 C   0  0  0  0  0  0  0  0  0  0  0  0
   -2.9682    0.1143    0.0000 C   0  0  0  0  0  0  0  0  0  0  0  0
   -3.1664   -0.6864    0.0000 C   0  0  0  0  0  0  0  0  0  0  0  0
   -3.9591   -0.9152    0.0000 C   0  0  0  0  0  0  0  0  0  0  0  0
   -2.1756    0.3431    0.0000 C   0  0  0  0  0  0  0  0  0  0  0  0
   -1.7792   -1.0296    0.0000 C   0  0  0  0  0  0  0  0  0  0  0  0
   -0.1940   -0.5720    0.0000 N   0  0  0  0  0  0  0  0  0  0  0  0
    1.9857   -0.6864    0.0000 N   0  0  0  0  0  0  0  0  0  0  0  0
   -1.5811   -0.2288    0.0000 N   0  0  0  0  0  0  0  0  0  0  0  0
   -0.3921   -1.3729    0.0000 O   0  0  0  0  0  0  0  0  0  0  0  0
   -1.3829   -2.4025    0.0000 O   0  0  0  0  0  0  0  0  0  0  0  0
   -0.5903    0.8008    0.0000 O   0  0  0  0  0  0  0  0  0  0  0  0
   -5.7425   -2.1737    0.0000 O   0  0  0  0  0  0  0  0  0  0  0  0
   -0.1940    2.4025    0.0000 O   0  0  0  0  0  0  0  0  0  0  0  0
    1.1930    2.0592    0.0000 O   0  0  0  0  0  0  0  0  0  0  0  0
    0.9949   -1.7161    0.0000 O   0  0  0  0  0  0  0  0  0  0  0  0
   -6.3451   -1.1747    0.0000 O   0  0  0  0  0  0  0  0  0  0  0  0
   -4.7434   -1.5710    0.0000 O   0  0  0  0  0  0  0  0  0  0  0  0
   -5.3461   -0.5720    0.0000 O   0  0  0  0  0  0  0  0  0  0  0  0
   -5.5443   -1.3729    0.0000 P   0  0  0  0  0  0  0  0  0  0  0  0
  1  8  2  0  0  0  0
  1 23  1  0  0  0  0
  1 38  1  0  0  0  0
  2 25  1  0  0  0  0
  2 29  1  0  0  0  0
  2 30  2  0  0  0  0
  3 26  1  0  0  0  0
  3 28  1  0  0  0  0
  3 31  2  0  0  0  0
  4  5  1  0  0  0  0
  4  9  1  0  0  0  0
  4 26  1  1  0  0  0
  5  6  1  0  0  0  0
  6  7  1  0  0  0  0
  7 33  2  0  0  0  0
  7 34  1  0  0  0  0
  8 15  1  0  0  0  0
  9 27  1  0  0  0  0
  9 35  2  0  0  0  0
 10 27  1  0  0  0  0
 11 12  1  0  0  0  0
 11 27  1  0  0  0  0
 12 13  1  0  0  0  0
 13 14  1  0  0  0  0
 14 16  1  0  0  0  0
 14 20  1  0  0  0  0
 15 21  2  0  0  0  0
 16 17  1  0  0  0  0
 17 18  1  0  0  0  0
 18 19  1  0  0  0  0
 19 20  1  0  0  0  0
 21 22  1  0  0  0  0
 21 24  1  0  0  0  0
 22 23  2  0  0  0  0
 24 28  1  0  0  0  0
 25 28  1  0  0  0  0
 32 39  2  0  0  0  0
 36 39  1  0  0  0  0
 37 39  1  0  0  0  0
 38 39  1  0  0  0  0
M  END
> <DATABASE_ID>
DB01773

> <DATABASE_NAME>
drugbank

> <SMILES>
CN(CCCC1CCCCC1)C(=O)[C@H](CCC(O)=O)NC(=O)N(CC(O)=O)CC1=CC=C(OP(O)(O)=O)C=C1

> <INCHI_IDENTIFIER>
InChI=1S/C25H38N3O10P/c1-27(15-5-8-18-6-3-2-4-7-18)24(33)21(13-14-22(29)30)26-25(34)28(17-23(31)32)16-19-9-11-20(12-10-19)38-39(35,36)37/h9-12,18,21H,2-8,13-17H2,1H3,(H,26,34)(H,29,30)(H,31,32)(H2,35,36,37)/t21-/m0/s1

> <INCHI_KEY>
JSBQUMXQEBZYPW-NRFANRHFSA-N

> <FORMULA>
C25H38N3O10P

> <MOLECULAR_WEIGHT>
571.5571

> <EXACT_MASS>
571.229480963

> <JCHEM_ACCEPTOR_COUNT>
9

> <JCHEM_ATOM_COUNT>
77

> <JCHEM_AVERAGE_POLARIZABILITY>
57.05625349688948

> <JCHEM_BIOAVAILABILITY>
0

> <JCHEM_DONOR_COUNT>
5

> <JCHEM_FORMAL_CHARGE>
0

> <JCHEM_GHOSE_FILTER>
0

> <JCHEM_IUPAC>
(4S)-4-{[(carboxymethyl)({[4-(phosphonooxy)phenyl]methyl})carbamoyl]amino}-4-[(3-cyclohexylpropyl)(methyl)carbamoyl]butanoic acid

> <ALOGPS_LOGP>
1.86

> <JCHEM_LOGP>
1.8116935253333333

> <ALOGPS_LOGS>
-5.25

> <JCHEM_MDDR_LIKE_RULE>
0

> <JCHEM_NUMBER_OF_RINGS>
2

> <JCHEM_PHYSIOLOGICAL_CHARGE>
-4

> <JCHEM_PKA>
3.4920845890258376

> <JCHEM_PKA_STRONGEST_ACIDIC>
1.7795520596427534

> <JCHEM_PKA_STRONGEST_BASIC>
-2.4921590659778357

> <JCHEM_POLAR_SURFACE_AREA>
194.00999999999996

> <JCHEM_REFRACTIVITY>
139.39219999999997

> <JCHEM_ROTATABLE_BOND_COUNT>
15

> <JCHEM_RULE_OF_FIVE>
0

> <ALOGPS_SOLUBILITY>
3.21e-03 g/l

> <JCHEM_TRADITIONAL_IUPAC>
3-carbamoyl-1-[(2R,3R,4S,5R)-5-[({[(2R,3S,4R,5R)-3,4-dihydroxy-5-{imidazo[2,1-f]purin-3-yl}oxolan-2-yl]methoxy(hydroxy)phosphoryl phosphonato}oxy)methyl]-3,4-dihydroxyoxolan-2-yl]-1lambda5-pyridin-1-ylium

> <JCHEM_VEBER_RULE>
0

> <DRUGBANK_ID>
DB01773

> <SECONDARY_ACCESSION_NUMBERS>
EXPT03200

> <DRUG_GROUPS>
experimental

> <GENERIC_NAME>
4-[3-carboxymethyl-3-(4-phosphonooxy-benzyl)-ureido]-4-[(3-cyclohexyl-propyl)-methyl-carbamoyl]butyric acid

$$$$
