
  Mrv1902 02031922212D          

 51 55  0  0  0  0            999 V2000
    2.8542   -0.4221    0.0000 N   0  0  0  0  0  0  0  0  0  0  0  0
    2.8462   -1.2488    0.0000 C   0  0  1  0  0  0  0  0  0  0  0  0
    3.5693   -0.0112    0.0000 C   0  0  0  0  0  0  0  0  0  0  0  0
    2.1395   -0.0063    0.0000 C   0  0  0  0  0  0  0  0  0  0  0  0
    3.5593   -1.6614    0.0000 C   0  0  0  0  0  0  0  0  0  0  0  0
    2.1295   -1.6566    0.0000 C   0  0  0  0  0  0  0  0  0  0  0  0
    4.2750   -0.4319    0.0000 C   0  0  2  0  0  0  0  0  0  0  0  0
    2.1444    0.8186    0.0000 C   0  0  2  0  0  0  0  0  0  0  0  0
    4.2760   -1.2536    0.0000 C   0  0  1  0  0  0  0  0  0  0  0  0
    2.1275   -2.4798    0.0000 N   0  0  0  0  0  0  0  0  0  0  0  0
    1.4210   -1.2452    0.0000 O   0  0  0  0  0  0  0  0  0  0  0  0
    4.9872   -0.0228    0.0000 C   0  0  0  0  0  0  0  0  0  0  0  0
    1.4296    1.2342    0.0000 C   0  0  2  0  0  0  0  0  0  0  0  0
    2.8594    1.2293    0.0000 O   0  0  0  0  0  0  0  0  0  0  0  0
    4.9844   -1.6648    0.0000 C   0  0  0  0  0  0  0  0  0  0  0  0
    5.7032   -0.4338    0.0000 C   0  0  0  0  0  0  0  0  0  0  0  0
    1.4331    2.0624    0.0000 C   0  0  0  0  0  0  0  0  0  0  0  0
    0.7150    0.8254    0.0000 N   0  0  0  0  0  0  0  0  0  0  0  0
    5.6978   -1.2512    0.0000 C   0  0  0  0  0  0  0  0  0  0  0  0
    2.1478    2.4781    0.0000 C   0  0  0  0  0  0  0  0  0  0  0  0
    0.0071    1.2377    0.0000 C   0  0  0  0  0  0  0  0  0  0  0  0
   -0.7073    0.8323    0.0000 C   0  0  1  0  0  0  0  0  0  0  0  0
    0.0071    2.0658    0.0000 O   0  0  0  0  0  0  0  0  0  0  0  0
   -1.4219    1.2446    0.0000 N   0  0  0  0  0  0  0  0  0  0  0  0
   -0.7108   -0.1985    0.0000 C   0  0  0  0  0  0  0  0  0  0  0  0
   -2.1367    0.8357    0.0000 C   0  0  0  0  0  0  0  0  0  0  0  0
    0.0037   -0.6176    0.0000 C   0  0  0  0  0  0  0  0  0  0  0  0
   -2.8480    1.2446    0.0000 C   0  0  0  0  0  0  0  0  0  0  0  0
   -2.1367    0.0111    0.0000 O   0  0  0  0  0  0  0  0  0  0  0  0
    0.0037   -1.4422    0.0000 N   0  0  0  0  0  0  0  0  0  0  0  0
    0.7184   -0.2086    0.0000 O   0  0  0  0  0  0  0  0  0  0  0  0
   -3.5661    0.8392    0.0000 N   0  0  0  0  0  0  0  0  0  0  0  0
   -2.8445    2.0725    0.0000 C   0  0  0  0  0  0  0  0  0  0  0  0
   -4.2395    1.2516    0.0000 C   0  0  0  0  0  0  0  0  0  0  0  0
   -3.5592    2.4884    0.0000 C   0  0  0  0  0  0  0  0  0  0  0  0
   -4.2739    2.0795    0.0000 C   0  0  0  0  0  0  0  0  0  0  0  0
   -4.9886    0.8392    0.0000 C   0  0  0  0  0  0  0  0  0  0  0  0
   -4.9886    2.4918    0.0000 C   0  0  0  0  0  0  0  0  0  0  0  0
   -5.7032    1.2516    0.0000 C   0  0  0  0  0  0  0  0  0  0  0  0
   -5.7032    2.0795    0.0000 C   0  0  0  0  0  0  0  0  0  0  0  0
    4.2736    0.3974    0.0000 H   0  0  0  0  0  0  0  0  0  0  0  0
    4.2616   -2.0760    0.0000 H   0  0  0  0  0  0  0  0  0  0  0  0
    2.8623    3.7157    0.0000 C   0  0  0  0  0  0  0  0  0  0  0  0
    2.1478    3.3032    0.0000 C   0  0  0  0  0  0  0  0  0  0  0  0
    2.8623    2.0656    0.0000 C   0  0  0  0  0  0  0  0  0  0  0  0
    3.5768    2.4781    0.0000 C   0  0  0  0  0  0  0  0  0  0  0  0
    3.5768    3.3032    0.0000 C   0  0  0  0  0  0  0  0  0  0  0  0
    1.4120   -2.8906    0.0000 C   0  0  0  0  0  0  0  0  0  0  0  0
    1.4100   -3.7157    0.0000 C   0  0  0  0  0  0  0  0  0  0  0  0
    0.6985   -2.4764    0.0000 C   0  0  0  0  0  0  0  0  0  0  0  0
    0.6975   -3.3032    0.0000 C   0  0  0  0  0  0  0  0  0  0  0  0
  1  2  1  0  0  0  0
  1  3  1  0  0  0  0
  1  4  1  0  0  0  0
  2  5  1  0  0  0  0
  2  6  1  1  0  0  0
  3  7  1  0  0  0  0
  4  8  1  0  0  0  0
  5  9  1  0  0  0  0
  6 10  1  0  0  0  0
  6 11  2  0  0  0  0
  7 12  1  0  0  0  0
  8 13  1  0  0  0  0
  8 14  1  6  0  0  0
  9 15  1  0  0  0  0
 12 16  1  0  0  0  0
 13 17  1  1  0  0  0
 13 18  1  0  0  0  0
 15 19  1  0  0  0  0
 17 20  1  0  0  0  0
 18 21  1  0  0  0  0
 21 22  1  0  0  0  0
 21 23  2  0  0  0  0
 22 24  1  0  0  0  0
 22 25  1  6  0  0  0
 24 26  1  0  0  0  0
 25 27  1  0  0  0  0
 26 28  1  0  0  0  0
 26 29  2  0  0  0  0
 27 30  1  0  0  0  0
 27 31  2  0  0  0  0
 28 32  2  0  0  0  0
 28 33  1  0  0  0  0
 32 34  1  0  0  0  0
 33 35  2  0  0  0  0
 34 36  2  0  0  0  0
 34 37  1  0  0  0  0
 36 38  1  0  0  0  0
 37 39  2  0  0  0  0
 38 40  2  0  0  0  0
  7  9  1  0  0  0  0
 16 19  1  0  0  0  0
 35 36  1  0  0  0  0
 39 40  1  0  0  0  0
  7 41  1  6  0  0  0
  9 42  1  6  0  0  0
 44 20  2  0  0  0  0
 20 45  1  0  0  0  0
 43 44  1  0  0  0  0
 45 46  2  0  0  0  0
 46 47  1  0  0  0  0
 43 47  2  0  0  0  0
 10 48  1  0  0  0  0
 48 49  1  0  0  0  0
 48 50  1  0  0  0  0
 48 51  1  0  0  0  0
M  END
> <DATABASE_ID>
DB01232

> <DATABASE_NAME>
drugbank

> <SMILES>
[H][C@@]12CCCC[C@]1([H])CN(C[C@@H](O)[C@H](CC1=CC=CC=C1)NC(=O)[C@H](CC(N)=O)NC(=O)C1=NC3=C(C=CC=C3)C=C1)[C@@H](C2)C(=O)NC(C)(C)C

> <INCHI_IDENTIFIER>
InChI=1S/C38H50N6O5/c1-38(2,3)43-37(49)32-20-26-14-7-8-15-27(26)22-44(32)23-33(45)30(19-24-11-5-4-6-12-24)41-36(48)31(21-34(39)46)42-35(47)29-18-17-25-13-9-10-16-28(25)40-29/h4-6,9-13,16-18,26-27,30-33,45H,7-8,14-15,19-23H2,1-3H3,(H2,39,46)(H,41,48)(H,42,47)(H,43,49)/t26-,27+,30-,31-,32-,33+/m0/s1

> <INCHI_KEY>
QWAXKHKRTORLEM-UGJKXSETSA-N

> <FORMULA>
C38H50N6O5

> <MOLECULAR_WEIGHT>
670.8408

> <EXACT_MASS>
670.38426874

> <JCHEM_ACCEPTOR_COUNT>
7

> <JCHEM_ATOM_COUNT>
99

> <JCHEM_AVERAGE_POLARIZABILITY>
73.76285102155339

> <JCHEM_BIOAVAILABILITY>
0

> <JCHEM_DONOR_COUNT>
5

> <JCHEM_FORMAL_CHARGE>
0

> <JCHEM_GHOSE_FILTER>
0

> <JCHEM_IUPAC>
(2S)-N-[(2S,3R)-4-[(3S,4aS,8aS)-3-(tert-butylcarbamoyl)-decahydroisoquinolin-2-yl]-3-hydroxy-1-phenylbutan-2-yl]-2-[(quinolin-2-yl)formamido]butanediamide

> <ALOGPS_LOGP>
4.04

> <JCHEM_LOGP>
3.1554067860000012

> <ALOGPS_LOGS>
-5.43

> <JCHEM_MDDR_LIKE_RULE>
1

> <JCHEM_NUMBER_OF_RINGS>
5

> <JCHEM_PHYSIOLOGICAL_CHARGE>
1

> <JCHEM_PKA>
14.237090747446972

> <JCHEM_PKA_STRONGEST_ACIDIC>
13.608144981559613

> <JCHEM_PKA_STRONGEST_BASIC>
8.474118686853256

> <JCHEM_POLAR_SURFACE_AREA>
166.75

> <JCHEM_REFRACTIVITY>
186.67319999999987

> <JCHEM_ROTATABLE_BOND_COUNT>
13

> <JCHEM_RULE_OF_FIVE>
0

> <ALOGPS_SOLUBILITY>
2.47e-03 g/l

> <JCHEM_TRADITIONAL_IUPAC>
saquinavir

> <JCHEM_VEBER_RULE>
0

> <DRUGBANK_ID>
DB01232

> <SECONDARY_ACCESSION_NUMBERS>
APRD00623

> <DRUG_GROUPS>
approved; investigational

> <GENERIC_NAME>
Saquinavir

> <SYNONYMS>
Saquinavir

> <PRODUCTS>
Fortovase; Fortovase Roche; Invirase; Invirase - Cap 200mg

> <SALTS>
Saquinavir mesylate

$$$$
