
  Mrv1909 03172203502D          

 24 25  0  0  0  0            999 V2000
   -4.6440   -0.8250    0.0000 O   0  0  0  0  0  0  0  0  0  0  0  0
   -3.9295   -0.4125    0.0000 C   0  0  0  0  0  0  0  0  0  0  0  0
   -3.9295    0.4125    0.0000 C   0  0  0  0  0  0  0  0  0  0  0  0
   -3.2151    0.8250    0.0000 C   0  0  0  0  0  0  0  0  0  0  0  0
   -2.5006    0.4125    0.0000 C   0  0  0  0  0  0  0  0  0  0  0  0
   -1.7861    0.8250    0.0000 C   0  0  0  0  0  0  0  0  0  0  0  0
   -1.0717    0.4125    0.0000 C   0  0  0  0  0  0  0  0  0  0  0  0
   -1.0717   -0.4125    0.0000 C   0  0  0  0  0  0  0  0  0  0  0  0
   -1.0717   -1.2375    0.0000 N   0  0  0  0  0  0  0  0  0  0  0  0
   -0.3572    0.8250    0.0000 C   0  0  0  0  0  0  0  0  0  0  0  0
   -0.3572    1.6500    0.0000 O   0  0  0  0  0  0  0  0  0  0  0  0
    0.3572    0.4125    0.0000 N   0  0  0  0  0  0  0  0  0  0  0  0
    1.0717    0.8250    0.0000 C   0  0  0  0  0  0  0  0  0  0  0  0
    1.7861    0.4125    0.0000 C   0  0  0  0  0  0  0  0  0  0  0  0
    2.5006    0.8250    0.0000 C   0  0  0  0  0  0  0  0  0  0  0  0
    3.2151    0.4125    0.0000 C   0  0  0  0  0  0  0  0  0  0  0  0
    3.9295    0.8250    0.0000 C   0  0  0  0  0  0  0  0  0  0  0  0
    4.6440    0.4125    0.0000 C   0  0  0  0  0  0  0  0  0  0  0  0
    4.6440   -0.4125    0.0000 C   0  0  0  0  0  0  0  0  0  0  0  0
    3.9295   -0.8250    0.0000 C   0  0  0  0  0  0  0  0  0  0  0  0
    3.2151   -0.4125    0.0000 C   0  0  0  0  0  0  0  0  0  0  0  0
   -2.5006   -0.4125    0.0000 C   0  0  0  0  0  0  0  0  0  0  0  0
   -3.2151   -0.8250    0.0000 C   0  0  0  0  0  0  0  0  0  0  0  0
   -3.2151   -1.6500    0.0000 O   0  0  0  0  0  0  0  0  0  0  0  0
  1  2  1  0  0  0  0
  2  3  2  0  0  0  0
  3  4  1  0  0  0  0
  4  5  2  0  0  0  0
  5  6  1  0  0  0  0
  6  7  2  0  0  0  0
  7  8  1  0  0  0  0
  8  9  3  0  0  0  0
  7 10  1  0  0  0  0
 10 11  2  0  0  0  0
 10 12  1  0  0  0  0
 12 13  1  0  0  0  0
 13 14  1  0  0  0  0
 14 15  1  0  0  0  0
 15 16  1  0  0  0  0
 16 17  2  0  0  0  0
 17 18  1  0  0  0  0
 18 19  2  0  0  0  0
 19 20  1  0  0  0  0
 20 21  2  0  0  0  0
 16 21  1  0  0  0  0
  5 22  1  0  0  0  0
 22 23  2  0  0  0  0
  2 23  1  0  0  0  0
 23 24  1  0  0  0  0
M  END
> <DATABASE_ID>
DB16773

> <DATABASE_NAME>
drugbank

> <SMILES>
OC1=CC=C(\C=C(/C#N)C(=O)NCCCC2=CC=CC=C2)C=C1O

> <INCHI_IDENTIFIER>
InChI=1S/C19H18N2O3/c20-13-16(11-15-8-9-17(22)18(23)12-15)19(24)21-10-4-7-14-5-2-1-3-6-14/h1-3,5-6,8-9,11-12,22-23H,4,7,10H2,(H,21,24)/b16-11+

> <INCHI_KEY>
GSQOBTOAOGXIFL-LFIBNONCSA-N

> <FORMULA>
C19H18N2O3

> <MOLECULAR_WEIGHT>
322.364

> <EXACT_MASS>
322.131742448

> <JCHEM_ACCEPTOR_COUNT>
4

> <JCHEM_ATOM_COUNT>
42

> <JCHEM_AVERAGE_NEUTRAL_MICROSPECIES_CHARGE>
0.0553529303910867

> <JCHEM_AVERAGE_POLARIZABILITY>
35.06160167958072

> <JCHEM_BIOAVAILABILITY>
1

> <JCHEM_DONOR_COUNT>
3

> <JCHEM_FORMAL_CHARGE>
0

> <JCHEM_GHOSE_FILTER>
1

> <JCHEM_IUPAC>
(2E)-2-cyano-3-(3,4-dihydroxyphenyl)-N-(3-phenylpropyl)prop-2-enamide

> <ALOGPS_LOGP>
2.95

> <JCHEM_LOGP>
3.215250677666666

> <ALOGPS_LOGS>
-4.42

> <JCHEM_MDDR_LIKE_RULE>
0

> <JCHEM_NEUTRAL_CHARGE>
0

> <JCHEM_NUMBER_OF_RINGS>
2

> <JCHEM_PHYSIOLOGICAL_CHARGE>
0

> <JCHEM_PKA>
11.996558608029966

> <JCHEM_PKA_STRONGEST_ACIDIC>
8.430370984419246

> <JCHEM_PKA_STRONGEST_BASIC>
-1.232128933752028

> <JCHEM_POLAR_SURFACE_AREA>
93.35

> <JCHEM_REFRACTIVITY>
92.76280000000001

> <JCHEM_ROTATABLE_BOND_COUNT>
6

> <JCHEM_RULE_OF_FIVE>
1

> <ALOGPS_SOLUBILITY>
1.21e-02 g/l

> <JCHEM_TRADITIONAL_IUPAC>
bois d,arc

> <JCHEM_VEBER_RULE>
0

> <DRUGBANK_ID>
DB16773

> <DRUG_GROUPS>
experimental

> <GENERIC_NAME>
Tyrphostin AG 555

> <SYNONYMS>
AG 555; AG-555; Tyrphostin AG 555; Tyrphostin AG-555; Tyrphostin B-46; Tyrphostin B46

$$$$
