
  Mrv1652306231722382D          

 13 12  0  0  0  0            999 V2000
    3.9039    3.0789    0.0000 C   0  0  0  0  0  0  0  0  0  0  0  0
    3.1895    2.6664    0.0000 C   0  0  0  0  0  0  0  0  0  0  0  0
    2.4750    3.0789    0.0000 C   0  0  0  0  0  0  0  0  0  0  0  0
    3.1895    1.8414    0.0000 C   0  0  0  0  0  0  0  0  0  0  0  0
    2.4750    1.4289    0.0000 C   0  0  0  0  0  0  0  0  0  0  0  0
    1.7605    1.8414    0.0000 C   0  0  0  0  0  0  0  0  0  0  0  0
    1.0461    1.4289    0.0000 C   0  0  0  0  0  0  0  0  0  0  0  0
    3.9039    1.4289    0.0000 C   0  0  0  0  0  0  0  0  0  0  0  0
    3.9039    0.6039    0.0000 O   0  0  0  0  0  0  0  0  0  0  0  0
    4.6184    1.8414    0.0000 N   0  0  0  0  0  0  0  0  0  0  0  0
    5.3329    1.4289    0.0000 C   0  0  0  0  0  0  0  0  0  0  0  0
    6.0474    1.8414    0.0000 O   0  0  0  0  0  0  0  0  0  0  0  0
    5.3329    0.6039    0.0000 N   0  0  0  0  0  0  0  0  0  0  0  0
  1  2  1  0  0  0  0
  2  3  1  0  0  0  0
  2  4  1  0  0  0  0
  4  5  1  0  0  0  0
  5  6  1  0  0  0  0
  6  7  2  0  0  0  0
  4  8  1  0  0  0  0
  8  9  2  0  0  0  0
  8 10  1  0  0  0  0
 10 11  1  0  0  0  0
 11 12  2  0  0  0  0
 11 13  1  0  0  0  0
M  END
> <DATABASE_ID>
DB13221

> <DATABASE_NAME>
drugbank

> <SMILES>
CC(C)C(CC=C)C(=O)NC(N)=O

> <INCHI_IDENTIFIER>
InChI=1S/C9H16N2O2/c1-4-5-7(6(2)3)8(12)11-9(10)13/h4,6-7H,1,5H2,2-3H3,(H3,10,11,12,13)

> <INCHI_KEY>
KSUUMAWCGDNLFK-UHFFFAOYSA-N

> <FORMULA>
C9H16N2O2

> <MOLECULAR_WEIGHT>
184.239

> <EXACT_MASS>
184.121177763

> <JCHEM_ACCEPTOR_COUNT>
2

> <JCHEM_ATOM_COUNT>
29

> <JCHEM_AVERAGE_POLARIZABILITY>
19.81986764112074

> <JCHEM_BIOAVAILABILITY>
1

> <JCHEM_DONOR_COUNT>
2

> <JCHEM_FORMAL_CHARGE>
0

> <JCHEM_GHOSE_FILTER>
1

> <JCHEM_IUPAC>
[2-(propan-2-yl)pent-4-enoyl]urea

> <ALOGPS_LOGP>
0.83

> <JCHEM_LOGP>
1.185033674333333

> <ALOGPS_LOGS>
-1.39

> <JCHEM_MDDR_LIKE_RULE>
0

> <JCHEM_NUMBER_OF_RINGS>
0

> <JCHEM_PHYSIOLOGICAL_CHARGE>
0

> <JCHEM_PKA_STRONGEST_ACIDIC>
11.7540209913988

> <JCHEM_PKA_STRONGEST_BASIC>
-6.297762317522436

> <JCHEM_POLAR_SURFACE_AREA>
72.19

> <JCHEM_REFRACTIVITY>
50.305600000000005

> <JCHEM_ROTATABLE_BOND_COUNT>
4

> <JCHEM_RULE_OF_FIVE>
1

> <ALOGPS_SOLUBILITY>
7.52e+00 g/l

> <JCHEM_TRADITIONAL_IUPAC>
(2-isopropylpent-4-enoyl)urea

> <JCHEM_VEBER_RULE>
0

> <DRUGBANK_ID>
DB13221

> <DRUG_GROUPS>
approved

> <GENERIC_NAME>
Apronalide

> <SYNONYMS>
Apronal

$$$$
