
  Mrv1902 04041915182D          

100 99  0  0  0  0            999 V2000
   -4.5078   -2.8971    0.0000 C   0  0  1  0  0  0  0  0  0  0  0  0
   -3.7932   -3.3096    0.0000 C   0  0  0  0  0  0  0  0  0  0  0  0
   -4.5078   -2.0721    0.0000 C   0  0  0  0  0  0  0  0  0  0  0  0
   -3.0789   -2.8971    0.0000 O   0  0  0  0  0  0  0  0  0  0  0  0
   -2.2539   -2.8971    0.0000 P   0  0  0  0  0  0  0  0  0  0  0  0
   -1.4290   -2.8971    0.0000 O   0  0  0  0  0  0  0  0  0  0  0  0
   -2.2539   -2.0721    0.0000 O   0  0  0  0  0  0  0  0  0  0  0  0
   -2.2539   -3.7221    0.0000 O   0  0  0  0  0  0  0  0  0  0  0  0
   -0.7145   -3.3096    0.0000 C   0  0  0  0  0  0  0  0  0  0  0  0
    0.0000   -2.8971    0.0000 C   0  0  0  0  0  0  0  0  0  0  0  0
    0.7143   -3.3096    0.0000 C   0  0  0  0  0  0  0  0  0  0  0  0
    0.0000   -2.0721    0.0000 O   0  0  0  0  0  0  0  0  0  0  0  0
    1.4289   -2.8971    0.0000 O   0  0  0  0  0  0  0  0  0  0  0  0
    2.2538   -2.8971    0.0000 P   0  0  0  0  0  0  0  0  0  0  0  0
    3.0787   -2.8971    0.0000 O   0  0  0  0  0  0  0  0  0  0  0  0
    2.2538   -2.0721    0.0000 O   0  0  0  0  0  0  0  0  0  0  0  0
    2.2538   -3.7221    0.0000 O   0  0  0  0  0  0  0  0  0  0  0  0
    3.7932   -3.3096    0.0000 C   0  0  0  0  0  0  0  0  0  0  0  0
    4.5077   -2.8971    0.0000 C   0  0  1  0  0  0  0  0  0  0  0  0
    4.5077   -2.0721    0.0000 C   0  0  0  0  0  0  0  0  0  0  0  0
  -11.6526   -2.8967    0.0000 C   0  0  0  0  0  0  0  0  0  0  0  0
  -12.3671   -3.3091    0.0000 C   0  0  0  0  0  0  0  0  0  0  0  0
   -5.9366   -2.8971    0.0000 C   0  0  0  0  0  0  0  0  0  0  0  0
   -6.6512   -3.2913    0.0000 C   0  0  0  0  0  0  0  0  0  0  0  0
   -5.9366   -2.0720    0.0000 O   0  0  0  0  0  0  0  0  0  0  0  0
   -7.3658   -2.8969    0.0000 C   0  0  0  0  0  0  0  0  0  0  0  0
   -8.0802   -3.3094    0.0000 C   0  0  0  0  0  0  0  0  0  0  0  0
   -8.7946   -2.8969    0.0000 C   0  0  0  0  0  0  0  0  0  0  0  0
   -9.5092   -3.3092    0.0000 C   0  0  0  0  0  0  0  0  0  0  0  0
  -10.2237   -2.8967    0.0000 C   0  0  0  0  0  0  0  0  0  0  0  0
  -10.9382   -3.3092    0.0000 C   0  0  0  0  0  0  0  0  0  0  0  0
   -5.2222   -3.3096    0.0000 O   0  0  0  0  0  0  0  0  0  0  0  0
  -12.3671   -4.1342    0.0000 C   0  0  0  0  0  0  0  0  0  0  0  0
  -11.6527   -4.5467    0.0000 C   0  0  0  0  0  0  0  0  0  0  0  0
  -10.9382   -4.1343    0.0000 C   0  0  0  0  0  0  0  0  0  0  0  0
  -10.2236   -4.5468    0.0000 C   0  0  0  0  0  0  0  0  0  0  0  0
   -9.5091   -4.1343    0.0000 C   0  0  0  0  0  0  0  0  0  0  0  0
   -8.7948   -4.5468    0.0000 C   0  0  0  0  0  0  0  0  0  0  0  0
   -8.0801   -4.1344    0.0000 C   0  0  0  0  0  0  0  0  0  0  0  0
   -7.3656   -4.5468    0.0000 C   0  0  0  0  0  0  0  0  0  0  0  0
   -8.0495    4.1305    0.0000 C   0  0  0  0  0  0  0  0  0  0  0  0
   -8.7615    4.5468    0.0000 C   0  0  0  0  0  0  0  0  0  0  0  0
   -5.2178   -0.8347    0.0000 C   0  0  0  0  0  0  0  0  0  0  0  0
   -5.9301   -0.4183    0.0000 C   0  0  0  0  0  0  0  0  0  0  0  0
   -4.5012   -0.4259    0.0000 O   0  0  0  0  0  0  0  0  0  0  0  0
   -5.9257    0.4067    0.0000 C   0  0  0  0  0  0  0  0  0  0  0  0
   -6.6380    0.8229    0.0000 C   0  0  0  0  0  0  0  0  0  0  0  0
   -6.6337    1.6478    0.0000 C   0  0  0  0  0  0  0  0  0  0  0  0
   -7.3458    2.0642    0.0000 C   0  0  0  0  0  0  0  0  0  0  0  0
   -7.3416    2.8892    0.0000 C   0  0  0  0  0  0  0  0  0  0  0  0
   -8.0537    3.3057    0.0000 C   0  0  0  0  0  0  0  0  0  0  0  0
   -5.2222   -1.6596    0.0000 O   0  0  0  0  0  0  0  0  0  0  0  0
   -9.4783    4.1381    0.0000 C   0  0  0  0  0  0  0  0  0  0  0  0
   -9.4827    3.3132    0.0000 C   0  0  0  0  0  0  0  0  0  0  0  0
   -8.7705    2.8968    0.0000 C   0  0  0  0  0  0  0  0  0  0  0  0
   -8.7748    2.0717    0.0000 C   0  0  0  0  0  0  0  0  0  0  0  0
   -8.0624    1.6555    0.0000 C   0  0  0  0  0  0  0  0  0  0  0  0
   -8.0669    0.8306    0.0000 C   0  0  0  0  0  0  0  0  0  0  0  0
   -7.3546    0.4142    0.0000 C   0  0  0  0  0  0  0  0  0  0  0  0
   -7.3589   -0.4107    0.0000 C   0  0  0  0  0  0  0  0  0  0  0  0
   11.6525   -2.8967    0.0000 C   0  0  0  0  0  0  0  0  0  0  0  0
   12.3669   -3.3091    0.0000 C   0  0  0  0  0  0  0  0  0  0  0  0
    5.9365   -2.8971    0.0000 C   0  0  0  0  0  0  0  0  0  0  0  0
    6.6510   -3.3095    0.0000 C   0  0  0  0  0  0  0  0  0  0  0  0
    5.9365   -2.0720    0.0000 O   0  0  0  0  0  0  0  0  0  0  0  0
    7.3655   -2.8969    0.0000 C   0  0  0  0  0  0  0  0  0  0  0  0
    8.0802   -3.3094    0.0000 C   0  0  0  0  0  0  0  0  0  0  0  0
    8.7945   -2.8969    0.0000 C   0  0  0  0  0  0  0  0  0  0  0  0
    9.5090   -3.3092    0.0000 C   0  0  0  0  0  0  0  0  0  0  0  0
   10.2235   -2.8967    0.0000 C   0  0  0  0  0  0  0  0  0  0  0  0
   10.9381   -3.3092    0.0000 C   0  0  0  0  0  0  0  0  0  0  0  0
    5.2221   -3.3096    0.0000 O   0  0  0  0  0  0  0  0  0  0  0  0
   12.3670   -4.1342    0.0000 C   0  0  0  0  0  0  0  0  0  0  0  0
   11.6525   -4.5467    0.0000 C   0  0  0  0  0  0  0  0  0  0  0  0
   10.9380   -4.1343    0.0000 C   0  0  0  0  0  0  0  0  0  0  0  0
   10.2235   -4.5468    0.0000 C   0  0  0  0  0  0  0  0  0  0  0  0
    9.5090   -4.1343    0.0000 C   0  0  0  0  0  0  0  0  0  0  0  0
    8.7947   -4.5468    0.0000 C   0  0  0  0  0  0  0  0  0  0  0  0
    8.0801   -4.1344    0.0000 C   0  0  0  0  0  0  0  0  0  0  0  0
    7.3655   -4.5468    0.0000 C   0  0  0  0  0  0  0  0  0  0  0  0
    6.6963    4.0928    0.0000 C   0  0  0  0  0  0  0  0  0  0  0  0
    7.4139    4.4997    0.0000 C   0  0  0  0  0  0  0  0  0  0  0  0
    3.7932   -0.8097    0.0000 C   0  0  0  0  0  0  0  0  0  0  0  0
    4.5174   -0.4279    0.0000 C   0  0  0  0  0  0  0  0  0  0  0  0
    3.0885   -0.4165    0.0000 O   0  0  0  0  0  0  0  0  0  0  0  0
    4.5238    0.3972    0.0000 C   0  0  0  0  0  0  0  0  0  0  0  0
    5.2416    0.8040    0.0000 C   0  0  0  0  0  0  0  0  0  0  0  0
    5.2480    1.6290    0.0000 C   0  0  0  0  0  0  0  0  0  0  0  0
    5.9657    2.0360    0.0000 C   0  0  0  0  0  0  0  0  0  0  0  0
    5.9722    2.8610    0.0000 C   0  0  0  0  0  0  0  0  0  0  0  0
    6.6900    3.2679    0.0000 C   0  0  0  0  0  0  0  0  0  0  0  0
    3.7932   -1.6596    0.0000 O   0  0  0  0  0  0  0  0  0  0  0  0
    8.1253    4.0815    0.0000 C   0  0  0  0  0  0  0  0  0  0  0  0
    8.1188    3.2565    0.0000 C   0  0  0  0  0  0  0  0  0  0  0  0
    7.4011    2.8497    0.0000 C   0  0  0  0  0  0  0  0  0  0  0  0
    7.3946    2.0247    0.0000 C   0  0  0  0  0  0  0  0  0  0  0  0
    6.6768    1.6177    0.0000 C   0  0  0  0  0  0  0  0  0  0  0  0
    6.6704    0.7929    0.0000 C   0  0  0  0  0  0  0  0  0  0  0  0
    5.9527    0.3859    0.0000 C   0  0  0  0  0  0  0  0  0  0  0  0
    5.9461   -0.4390    0.0000 C   0  0  0  0  0  0  0  0  0  0  0  0
  1 32  1  6  0  0  0
  1  2  1  0  0  0  0
  1  3  1  0  0  0  0
  3 52  1  0  0  0  0
  2  4  1  0  0  0  0
  4  5  1  0  0  0  0
  5  6  1  0  0  0  0
  5  7  1  0  0  0  0
  5  8  2  0  0  0  0
  6  9  1  0  0  0  0
  9 10  1  0  0  0  0
 10 11  1  0  0  0  0
 10 12  1  0  0  0  0
 11 13  1  0  0  0  0
 13 14  1  0  0  0  0
 14 15  1  0  0  0  0
 14 16  1  0  0  0  0
 14 17  2  0  0  0  0
 15 18  1  0  0  0  0
 18 19  1  0  0  0  0
 19 72  1  1  0  0  0
 19 20  1  0  0  0  0
 20 92  1  0  0  0  0
 31 21  1  0  0  0  0
 21 22  1  0  0  0  0
 33 22  1  0  0  0  0
 23 24  1  0  0  0  0
 23 25  2  0  0  0  0
 23 32  1  0  0  0  0
 24 26  1  0  0  0  0
 26 27  1  0  0  0  0
 27 28  1  0  0  0  0
 28 29  1  0  0  0  0
 29 30  1  0  0  0  0
 30 31  1  0  0  0  0
 34 33  1  0  0  0  0
 35 34  1  0  0  0  0
 36 35  1  0  0  0  0
 37 36  1  0  0  0  0
 38 37  1  0  0  0  0
 39 38  1  0  0  0  0
 40 39  1  0  0  0  0
 51 41  1  0  0  0  0
 41 42  1  0  0  0  0
 53 42  1  0  0  0  0
 43 44  1  0  0  0  0
 43 45  2  0  0  0  0
 43 52  1  0  0  0  0
 44 46  1  0  0  0  0
 46 47  1  0  0  0  0
 47 48  1  0  0  0  0
 48 49  1  0  0  0  0
 49 50  1  0  0  0  0
 50 51  1  0  0  0  0
 54 53  1  0  0  0  0
 55 54  1  0  0  0  0
 56 55  1  0  0  0  0
 57 56  1  0  0  0  0
 58 57  1  0  0  0  0
 59 58  1  0  0  0  0
 60 59  1  0  0  0  0
 71 61  1  0  0  0  0
 61 62  1  0  0  0  0
 73 62  1  0  0  0  0
 63 64  1  0  0  0  0
 63 65  2  0  0  0  0
 63 72  1  0  0  0  0
 64 66  1  0  0  0  0
 66 67  1  0  0  0  0
 67 68  1  0  0  0  0
 68 69  1  0  0  0  0
 69 70  1  0  0  0  0
 70 71  1  0  0  0  0
 74 73  1  0  0  0  0
 75 74  1  0  0  0  0
 76 75  1  0  0  0  0
 77 76  1  0  0  0  0
 78 77  1  0  0  0  0
 79 78  1  0  0  0  0
 80 79  1  0  0  0  0
 91 81  1  0  0  0  0
 81 82  1  0  0  0  0
 93 82  1  0  0  0  0
 83 84  1  0  0  0  0
 83 85  2  0  0  0  0
 83 92  1  0  0  0  0
 84 86  1  0  0  0  0
 86 87  1  0  0  0  0
 87 88  1  0  0  0  0
 88 89  1  0  0  0  0
 89 90  1  0  0  0  0
 90 91  1  0  0  0  0
 94 93  1  0  0  0  0
 95 94  1  0  0  0  0
 96 95  1  0  0  0  0
 97 96  1  0  0  0  0
 98 97  1  0  0  0  0
 99 98  1  0  0  0  0
100 99  1  0  0  0  0
M  END
> <DATABASE_ID>
DB03429

> <DATABASE_NAME>
drugbank

> <SMILES>
CCCCCCCCCCCCCCCCCC(=O)OC[C@H](COP(O)(=O)OCC(O)COP(O)(=O)OC[C@@H](COC(=O)CCCCCCCCCCCCCCCCC)OC(=O)CCCCCCCCCCCCCCCCC)OC(=O)CCCCCCCCCCCCCCCCC

> <INCHI_IDENTIFIER>
InChI=1S/C81H158O17P2/c1-5-9-13-17-21-25-29-33-37-41-45-49-53-57-61-65-78(83)91-71-76(97-80(85)67-63-59-55-51-47-43-39-35-31-27-23-19-15-11-7-3)73-95-99(87,88)93-69-75(82)70-94-100(89,90)96-74-77(98-81(86)68-64-60-56-52-48-44-40-36-32-28-24-20-16-12-8-4)72-92-79(84)66-62-58-54-50-46-42-38-34-30-26-22-18-14-10-6-2/h75-77,82H,5-74H2,1-4H3,(H,87,88)(H,89,90)/t76-,77-/m1/s1

> <INCHI_KEY>
XVTUQDWPJJBEHJ-KZCWQMDCSA-N

> <FORMULA>
C81H158O17P2

> <MOLECULAR_WEIGHT>
1466.0585

> <EXACT_MASS>
1465.097426654

> <JCHEM_ACCEPTOR_COUNT>
9

> <JCHEM_ATOM_COUNT>
258

> <JCHEM_AVERAGE_POLARIZABILITY>
184.50769386245537

> <JCHEM_BIOAVAILABILITY>
0

> <JCHEM_DONOR_COUNT>
3

> <JCHEM_FORMAL_CHARGE>
0

> <JCHEM_GHOSE_FILTER>
0

> <JCHEM_IUPAC>
[(2R)-2,3-bis(octadecanoyloxy)propoxy][3-({[(2R)-2,3-bis(octadecanoyloxy)propoxy](hydroxy)phosphoryl}oxy)-2-hydroxypropoxy]phosphinic acid

> <ALOGPS_LOGP>
8.97

> <JCHEM_LOGP>
27.269666381333337

> <ALOGPS_LOGS>
-7.35

> <JCHEM_MDDR_LIKE_RULE>
0

> <JCHEM_NUMBER_OF_RINGS>
0

> <JCHEM_PHYSIOLOGICAL_CHARGE>
-2

> <JCHEM_PKA>
2.191804358217231

> <JCHEM_PKA_STRONGEST_ACIDIC>
1.5897376143223727

> <JCHEM_PKA_STRONGEST_BASIC>
-3.41050295233858

> <JCHEM_POLAR_SURFACE_AREA>
236.94999999999996

> <JCHEM_REFRACTIVITY>
406.9097

> <JCHEM_ROTATABLE_BOND_COUNT>
86

> <JCHEM_RULE_OF_FIVE>
0

> <ALOGPS_SOLUBILITY>
6.62e-05 g/l

> <JCHEM_TRADITIONAL_IUPAC>
cardiolipin

> <JCHEM_VEBER_RULE>
0

> <DRUGBANK_ID>
DB03429

> <SECONDARY_ACCESSION_NUMBERS>
EXPT00874

> <DRUG_GROUPS>
experimental

> <GENERIC_NAME>
Tetrastearoyl cardiolipin

> <SYNONYMS>
1,1'2,2'-tetra-dodecanoyl cardiolipin; 1,1'2,2'-tetra-dodecanoylcardiolipin; 1,1'2,2'-tetrastearoyl cardiolipin; 1,1'2,2'-tetrastearoylcardiolipin; tetra-dodecanoyl cardiolipin; tetra-dodecanoylcardiolipin; tetrastearoylcardiolipin

$$$$
