
  Mrv1909 01012020562D          

 47 50  0  0  0  0            999 V2000
   -0.7144   -0.2062    0.0000 S   0  0  0  0  0  0  0  0  0  0  0  0
    2.8579   -1.4437    0.0000 O   0  0  0  0  0  0  0  0  0  0  0  0
    5.0014    0.6187    0.0000 O   0  0  0  0  0  0  0  0  0  0  0  0
   -0.3019    0.5082    0.0000 O   0  0  0  0  0  0  0  0  0  0  0  0
   -1.1269   -0.9207    0.0000 O   0  0  0  0  0  0  0  0  0  0  0  0
   -2.1434   -0.2062    0.0000 O   0  0  0  0  0  0  0  0  0  0  0  0
    4.2868    1.8562    0.0000 N   0  0  0  0  0  0  0  0  0  0  0  0
    4.2868    3.5063    0.0000 N   0  0  0  0  0  0  0  0  0  0  0  0
    2.1434   -0.2062    0.0000 N   0  0  0  0  0  0  0  0  0  0  0  0
    3.5724    0.6187    0.0000 N   0  0  0  0  0  0  0  0  0  0  0  0
   -1.4290    0.2062    0.0000 N   0  0  0  0  0  0  0  0  0  0  0  0
    1.4289   -0.6187    0.0000 C   0  0  2  0  0  0  0  0  0  0  0  0
    0.7144   -0.2062    0.0000 C   0  0  0  0  0  0  0  0  0  0  0  0
    1.4289   -1.4437    0.0000 C   0  0  0  0  0  0  0  0  0  0  0  0
    3.5724    2.2687    0.0000 C   0  0  0  0  0  0  0  0  0  0  0  0
    5.0014    2.2687    0.0000 C   0  0  0  0  0  0  0  0  0  0  0  0
    3.5724    3.0938    0.0000 C   0  0  0  0  0  0  0  0  0  0  0  0
    5.0014    3.0938    0.0000 C   0  0  0  0  0  0  0  0  0  0  0  0
    3.5724   -0.2062    0.0000 C   0  0  2  0  0  0  0  0  0  0  0  0
    0.0000   -0.6187    0.0000 C   0  0  0  0  0  0  0  0  0  0  0  0
    0.7144   -1.8562    0.0000 C   0  0  0  0  0  0  0  0  0  0  0  0
    2.8579   -0.6187    0.0000 C   0  0  0  0  0  0  0  0  0  0  0  0
    4.2868    1.0312    0.0000 C   0  0  0  0  0  0  0  0  0  0  0  0
    4.2868   -0.6187    0.0000 C   0  0  0  0  0  0  0  0  0  0  0  0
    4.2868    4.3313    0.0000 C   0  0  0  0  0  0  0  0  0  0  0  0
    0.7144   -2.6813    0.0000 C   0  0  0  0  0  0  0  0  0  0  0  0
    4.2868   -1.4437    0.0000 C   0  0  0  0  0  0  0  0  0  0  0  0
    1.4289   -3.0938    0.0000 C   0  0  0  0  0  0  0  0  0  0  0  0
    0.0000   -3.0938    0.0000 C   0  0  0  0  0  0  0  0  0  0  0  0
    5.0014   -1.8562    0.0000 C   0  0  0  0  0  0  0  0  0  0  0  0
    3.5724   -1.8562    0.0000 C   0  0  0  0  0  0  0  0  0  0  0  0
    1.4289   -3.9188    0.0000 C   0  0  0  0  0  0  0  0  0  0  0  0
    0.0000   -3.9188    0.0000 C   0  0  0  0  0  0  0  0  0  0  0  0
    5.0014   -2.6813    0.0000 C   0  0  0  0  0  0  0  0  0  0  0  0
    3.5724   -2.6813    0.0000 C   0  0  0  0  0  0  0  0  0  0  0  0
    0.7144   -4.3313    0.0000 C   0  0  0  0  0  0  0  0  0  0  0  0
    4.2868   -3.0938    0.0000 C   0  0  0  0  0  0  0  0  0  0  0  0
   -2.8579    0.2062    0.0000 C   0  0  0  0  0  0  0  0  0  0  0  0
   -3.5724   -0.2062    0.0000 C   0  0  0  0  0  0  0  0  0  0  0  0
   -3.5724   -1.0312    0.0000 C   0  0  0  0  0  0  0  0  0  0  0  0
   -4.2869    0.2062    0.0000 C   0  0  0  0  0  0  0  0  0  0  0  0
   -4.2869   -1.4437    0.0000 C   0  0  0  0  0  0  0  0  0  0  0  0
   -5.0014   -0.2062    0.0000 C   0  0  0  0  0  0  0  0  0  0  0  0
   -5.0014   -1.0312    0.0000 C   0  0  0  0  0  0  0  0  0  0  0  0
    2.1434    0.3052    0.0000 H   0  0  0  0  0  0  0  0  0  0  0  0
    3.1294    0.8745    0.0000 H   0  0  0  0  0  0  0  0  0  0  0  0
   -1.4290    0.7177    0.0000 H   0  0  0  0  0  0  0  0  0  0  0  0
  1  4  2  0  0  0  0
  1  5  2  0  0  0  0
  1 11  1  0  0  0  0
  1 20  1  0  0  0  0
  2 22  2  0  0  0  0
  3 23  2  0  0  0  0
  6 11  1  0  0  0  0
  6 38  1  0  0  0  0
  7 15  1  0  0  0  0
  7 16  1  0  0  0  0
  7 23  1  0  0  0  0
  8 17  1  0  0  0  0
  8 18  1  0  0  0  0
  8 25  1  0  0  0  0
 12  9  1  1  0  0  0
  9 22  1  0  0  0  0
  9 45  1  0  0  0  0
 19 10  1  1  0  0  0
 10 23  1  0  0  0  0
 10 46  1  0  0  0  0
 11 47  1  0  0  0  0
 12 13  1  0  0  0  0
 12 14  1  0  0  0  0
 13 20  1  0  0  0  0
 14 21  1  0  0  0  0
 15 17  1  0  0  0  0
 16 18  1  0  0  0  0
 19 22  1  0  0  0  0
 19 24  1  0  0  0  0
 21 26  1  0  0  0  0
 24 27  1  0  0  0  0
 26 28  2  0  0  0  0
 26 29  1  0  0  0  0
 27 30  2  0  0  0  0
 27 31  1  0  0  0  0
 28 32  1  0  0  0  0
 29 33  2  0  0  0  0
 30 34  1  0  0  0  0
 31 35  2  0  0  0  0
 32 36  2  0  0  0  0
 33 36  1  0  0  0  0
 34 37  2  0  0  0  0
 35 37  1  0  0  0  0
 38 39  1  0  0  0  0
 39 40  2  0  0  0  0
 39 41  1  0  0  0  0
 40 42  1  0  0  0  0
 41 43  2  0  0  0  0
 42 44  2  0  0  0  0
 43 44  1  0  0  0  0
M  END
> <DATABASE_ID>
DB04427

> <DATABASE_NAME>
drugbank

> <SMILES>
[H]N(OCC1=CC=CC=C1)S(=O)(=O)CC[C@H](CCC1=CC=CC=C1)N([H])C(=O)[C@H](CC1=CC=CC=C1)N([H])C(=O)N1CCN(C)CC1

> <INCHI_IDENTIFIER>
InChI=1S/C33H43N5O5S/c1-37-20-22-38(23-21-37)33(40)35-31(25-28-13-7-3-8-14-28)32(39)34-30(18-17-27-11-5-2-6-12-27)19-24-44(41,42)36-43-26-29-15-9-4-10-16-29/h2-16,30-31,36H,17-26H2,1H3,(H,34,39)(H,35,40)/t30-,31-/m0/s1

> <INCHI_KEY>
PPIYQXGSPPWVLJ-CONSDPRKSA-N

> <FORMULA>
C33H43N5O5S

> <MOLECULAR_WEIGHT>
621.79

> <EXACT_MASS>
621.298490201

> <JCHEM_ACCEPTOR_COUNT>
6

> <JCHEM_ATOM_COUNT>
87

> <JCHEM_AVERAGE_NEUTRAL_MICROSPECIES_CHARGE>
0.5112645777235777

> <JCHEM_AVERAGE_POLARIZABILITY>
68.2657998925559

> <JCHEM_BIOAVAILABILITY>
0

> <JCHEM_DONOR_COUNT>
3

> <JCHEM_FORMAL_CHARGE>
0

> <JCHEM_GHOSE_FILTER>
0

> <JCHEM_IUPAC>
(2S)-N-[(3S)-1-[(benzyloxy)sulfamoyl]-5-phenylpentan-3-yl]-2-[(4-methylpiperazine-1-carbonyl)amino]-3-phenylpropanamide

> <ALOGPS_LOGP>
3.51

> <JCHEM_LOGP>
3.396217952

> <ALOGPS_LOGS>
-4.89

> <JCHEM_MDDR_LIKE_RULE>
1

> <JCHEM_NEUTRAL_CHARGE>
1

> <JCHEM_NUMBER_OF_RINGS>
4

> <JCHEM_PHYSIOLOGICAL_CHARGE>
0

> <JCHEM_PKA>
14.467225501829793

> <JCHEM_PKA_STRONGEST_ACIDIC>
10.094366812733595

> <JCHEM_PKA_STRONGEST_BASIC>
7.020970659834341

> <JCHEM_POLAR_SURFACE_AREA>
120.08

> <JCHEM_REFRACTIVITY>
171.38459999999992

> <JCHEM_ROTATABLE_BOND_COUNT>
14

> <JCHEM_RULE_OF_FIVE>
0

> <ALOGPS_SOLUBILITY>
8.00e-03 g/l

> <JCHEM_TRADITIONAL_IUPAC>
2-amino-3H,5H-pyrrolo[3,2-d]pyrimidin-4-one

> <JCHEM_VEBER_RULE>
0

> <DRUGBANK_ID>
DB04427

> <SECONDARY_ACCESSION_NUMBERS>
EXPT03234

> <DRUG_GROUPS>
experimental

> <GENERIC_NAME>
4-Methyl-N-[(2S)-1-oxo-3-phenyl-1-[[(3S)-1-phenyl-5-(phenylmethoxysulfamoyl)pentan-3-yl]amino]propan-2-yl]piperazine-1-carboxamide

> <SYNONYMS>
N-{(3S)-1-[(Benzyloxy)sulfamoyl]-5-phenyl-3-pentanyl}-NÎ±-[(4-methyl-1-piperazinyl)carbonyl]-L-phenylalaninamide

$$$$
