
  Mrv1652310201623212D          

 33 35  0  0  1  0            999 V2000
  -11.4315   -1.6500    0.0000 C   0  0  0  0  0  0  0  0  0  0  0  0
  -11.4315   -0.8250    0.0000 C   0  0  0  0  0  0  0  0  0  0  0  0
  -10.7171   -0.4125    0.0000 C   0  0  0  0  0  0  0  0  0  0  0  0
  -10.0026   -0.8250    0.0000 C   0  0  0  0  0  0  0  0  0  0  0  0
  -10.0026   -1.6500    0.0000 C   0  0  0  0  0  0  0  0  0  0  0  0
  -10.7171   -2.0625    0.0000 C   0  0  0  0  0  0  0  0  0  0  0  0
   -9.2881   -0.4125    0.0000 C   0  0  0  0  0  0  0  0  0  0  0  0
   -8.5737   -0.0000    0.0000 C   0  0  0  0  0  0  0  0  0  0  0  0
   -7.8592   -0.4125    0.0000 O   0  0  0  0  0  0  0  0  0  0  0  0
   -7.1447   -0.0000    0.0000 C   0  0  0  0  0  0  0  0  0  0  0  0
   -6.4302   -0.4125    0.0000 C   0  0  0  0  0  0  0  0  0  0  0  0
   -5.7158   -0.0000    0.0000 C   0  0  0  0  0  0  0  0  0  0  0  0
   -5.0013   -0.4125    0.0000 C   0  0  0  0  0  0  0  0  0  0  0  0
   -4.2868   -0.0000    0.0000 C   0  0  0  0  0  0  0  0  0  0  0  0
   -3.5724   -0.4125    0.0000 C   0  0  0  0  0  0  0  0  0  0  0  0
   -2.8579   -0.0000    0.0000 N   0  0  0  0  0  0  0  0  0  0  0  0
   -2.1434   -0.4125    0.0000 C   0  0  0  0  0  0  0  0  0  0  0  0
   -1.4289   -0.0000    0.0000 C   0  0  1  0  0  0  0  0  0  0  0  0
   -0.7145   -0.4125    0.0000 C   0  0  0  0  0  0  0  0  0  0  0  0
   -0.7145   -1.2375    0.0000 C   0  0  0  0  0  0  0  0  0  0  0  0
    0.0000   -1.6500    0.0000 C   0  0  0  0  0  0  0  0  0  0  0  0
    0.7145   -1.2375    0.0000 C   0  0  0  0  0  0  0  0  0  0  0  0
    0.7145   -0.4125    0.0000 C   0  0  0  0  0  0  0  0  0  0  0  0
    0.0000   -0.0000    0.0000 C   0  0  0  0  0  0  0  0  0  0  0  0
    0.0000    0.8250    0.0000 C   0  0  0  0  0  0  0  0  0  0  0  0
    0.7145    1.2375    0.0000 C   0  0  0  0  0  0  0  0  0  0  0  0
    1.4289    0.8250    0.0000 C   0  0  0  0  0  0  0  0  0  0  0  0
    2.1434    1.2375    0.0000 O   0  0  0  0  0  0  0  0  0  0  0  0
    1.4289   -0.0000    0.0000 N   0  0  0  0  0  0  0  0  0  0  0  0
    1.4289   -1.6500    0.0000 O   0  0  0  0  0  0  0  0  0  0  0  0
   -1.4289    0.8250    0.0000 O   0  0  0  0  0  0  0  0  0  0  0  0
   -8.8756   -1.1270    0.0000 F   0  0  0  0  0  0  0  0  0  0  0  0
   -9.7006    0.3020    0.0000 F   0  0  0  0  0  0  0  0  0  0  0  0
  1  2  2  0  0  0  0
  2  3  1  0  0  0  0
  3  4  2  0  0  0  0
  4  5  1  0  0  0  0
  5  6  2  0  0  0  0
  1  6  1  0  0  0  0
  4  7  1  0  0  0  0
  7  8  1  0  0  0  0
  8  9  1  0  0  0  0
  9 10  1  0  0  0  0
 10 11  1  0  0  0  0
 11 12  1  0  0  0  0
 12 13  1  0  0  0  0
 13 14  1  0  0  0  0
 14 15  1  0  0  0  0
 15 16  1  0  0  0  0
 16 17  1  0  0  0  0
 17 18  1  0  0  0  0
 18 19  1  0  0  0  0
 19 20  1  0  0  0  0
 20 21  2  0  0  0  0
 21 22  1  0  0  0  0
 22 23  2  0  0  0  0
 23 24  1  0  0  0  0
 19 24  2  0  0  0  0
 24 25  1  0  0  0  0
 25 26  2  0  0  0  0
 26 27  1  0  0  0  0
 27 28  2  0  0  0  0
 27 29  1  0  0  0  0
 23 29  1  0  0  0  0
 22 30  1  0  0  0  0
 18 31  1  6  0  0  0
  7 32  1  0  0  0  0
  7 33  1  0  0  0  0
M  END
> <DATABASE_ID>
DB12100

> <DATABASE_NAME>
drugbank

> <SMILES>
O[C@@H](CNCCCCCCOCC(F)(F)C1=CC=CC=C1)C1=C2C=CC(=O)NC2=C(O)C=C1

> <INCHI_IDENTIFIER>
InChI=1S/C25H30F2N2O4/c26-25(27,18-8-4-3-5-9-18)17-33-15-7-2-1-6-14-28-16-22(31)19-10-12-21(30)24-20(19)11-13-23(32)29-24/h3-5,8-13,22,28,30-31H,1-2,6-7,14-17H2,(H,29,32)/t22-/m0/s1

> <INCHI_KEY>
SFYAXIFVXBKRPK-QFIPXVFZSA-N

> <FORMULA>
C25H30F2N2O4

> <MOLECULAR_WEIGHT>
460.522

> <EXACT_MASS>
460.21736378

> <JCHEM_ACCEPTOR_COUNT>
5

> <JCHEM_ATOM_COUNT>
63

> <JCHEM_AVERAGE_POLARIZABILITY>
48.293255491305054

> <JCHEM_BIOAVAILABILITY>
1

> <JCHEM_DONOR_COUNT>
4

> <JCHEM_FORMAL_CHARGE>
0

> <JCHEM_GHOSE_FILTER>
1

> <JCHEM_IUPAC>
5-[(1R)-2-{[6-(2,2-difluoro-2-phenylethoxy)hexyl]amino}-1-hydroxyethyl]-8-hydroxy-1,2-dihydroquinolin-2-one

> <ALOGPS_LOGP>
3.14

> <JCHEM_LOGP>
3.0687925976967634

> <ALOGPS_LOGS>
-5.00

> <JCHEM_MDDR_LIKE_RULE>
1

> <JCHEM_NUMBER_OF_RINGS>
3

> <JCHEM_PHYSIOLOGICAL_CHARGE>
1

> <JCHEM_PKA>
14.058097465945792

> <JCHEM_PKA_STRONGEST_ACIDIC>
8.512811342990428

> <JCHEM_PKA_STRONGEST_BASIC>
9.739158614387442

> <JCHEM_POLAR_SURFACE_AREA>
90.82000000000001

> <JCHEM_REFRACTIVITY>
125.5067

> <JCHEM_ROTATABLE_BOND_COUNT>
13

> <JCHEM_RULE_OF_FIVE>
1

> <ALOGPS_SOLUBILITY>
4.58e-03 g/l

> <JCHEM_TRADITIONAL_IUPAC>
abediterol

> <JCHEM_VEBER_RULE>
0

> <DRUGBANK_ID>
DB12100

> <DRUG_GROUPS>
investigational

> <GENERIC_NAME>
Abediterol

> <SYNONYMS>
Abediterol

$$$$
