
  Mrv1909 06181922532D          

 17 19  0  0  0  0            999 V2000
   -1.6500    1.4289    0.0000 C   0  0  0  0  0  0  0  0  0  0  0  0
   -0.8250    1.4289    0.0000 C   0  0  0  0  0  0  0  0  0  0  0  0
   -0.4125    0.7144    0.0000 C   0  0  0  0  0  0  0  0  0  0  0  0
    0.4125    0.7144    0.0000 C   0  0  0  0  0  0  0  0  0  0  0  0
    0.8250    1.4289    0.0000 C   0  0  0  0  0  0  0  0  0  0  0  0
    1.6500    1.4289    0.0000 C   0  0  0  0  0  0  0  0  0  0  0  0
    2.0625    0.7144    0.0000 C   0  0  0  0  0  0  0  0  0  0  0  0
    1.6500    0.0000    0.0000 C   0  0  0  0  0  0  0  0  0  0  0  0
    0.8250    0.0000    0.0000 C   0  0  0  0  0  0  0  0  0  0  0  0
    0.4125   -0.7144    0.0000 O   0  0  0  0  0  0  0  0  0  0  0  0
   -0.4125   -0.7144    0.0000 C   0  0  0  0  0  0  0  0  0  0  0  0
   -0.8250   -1.4289    0.0000 O   0  0  0  0  0  0  0  0  0  0  0  0
   -0.8250    0.0000    0.0000 C   0  0  0  0  0  0  0  0  0  0  0  0
   -1.6500    0.0000    0.0000 C   0  0  0  0  0  0  0  0  0  0  0  0
   -2.0625    0.7144    0.0000 C   0  0  0  0  0  0  0  0  0  0  0  0
   -2.8875    0.7144    0.0000 O   0  0  0  0  0  0  0  0  0  0  0  0
    2.8875    0.7144    0.0000 O   0  0  0  0  0  0  0  0  0  0  0  0
  1  2  2  0  0  0  0
  2  3  1  0  0  0  0
  3  4  1  0  0  0  0
  4  5  1  0  0  0  0
  5  6  2  0  0  0  0
  6  7  1  0  0  0  0
  7  8  2  0  0  0  0
  8  9  1  0  0  0  0
  4  9  2  0  0  0  0
  9 10  1  0  0  0  0
 10 11  1  0  0  0  0
 11 12  2  0  0  0  0
 11 13  1  0  0  0  0
  3 13  2  0  0  0  0
 13 14  1  0  0  0  0
 14 15  2  0  0  0  0
  1 15  1  0  0  0  0
 15 16  1  0  0  0  0
  7 17  1  0  0  0  0
M  END
> <DATABASE_ID>
DB15464

> <DATABASE_NAME>
drugbank

> <SMILES>
OC1=CC2=C(C=C1)C1=C(C=C(O)C=C1)C(=O)O2

> <INCHI_IDENTIFIER>
InChI=1S/C13H8O4/c14-7-1-3-9-10-4-2-8(15)6-12(10)17-13(16)11(9)5-7/h1-6,14-15H

> <INCHI_KEY>
RIUPLDUFZCXCHM-UHFFFAOYSA-N

> <FORMULA>
C13H8O4

> <MOLECULAR_WEIGHT>
228.2002

> <EXACT_MASS>
228.042258744

> <JCHEM_ACCEPTOR_COUNT>
3

> <JCHEM_ATOM_COUNT>
25

> <JCHEM_AVERAGE_POLARIZABILITY>
22.258403045305855

> <JCHEM_BIOAVAILABILITY>
1

> <JCHEM_DONOR_COUNT>
2

> <JCHEM_FORMAL_CHARGE>
0

> <JCHEM_GHOSE_FILTER>
1

> <JCHEM_IUPAC>
3,8-dihydroxy-6H-benzo[c]chromen-6-one

> <ALOGPS_LOGP>
2.16

> <JCHEM_LOGP>
2.318196798

> <ALOGPS_LOGS>
-2.94

> <JCHEM_MDDR_LIKE_RULE>
0

> <JCHEM_NUMBER_OF_RINGS>
3

> <JCHEM_PHYSIOLOGICAL_CHARGE>
0

> <JCHEM_PKA>
7.9637712310585735

> <JCHEM_PKA_STRONGEST_ACIDIC>
7.213762400702427

> <JCHEM_PKA_STRONGEST_BASIC>
-7.061837521358001

> <JCHEM_POLAR_SURFACE_AREA>
66.76

> <JCHEM_REFRACTIVITY>
60.90090000000001

> <JCHEM_ROTATABLE_BOND_COUNT>
0

> <JCHEM_RULE_OF_FIVE>
1

> <ALOGPS_SOLUBILITY>
2.63e-01 g/l

> <JCHEM_TRADITIONAL_IUPAC>
urolithin A

> <JCHEM_VEBER_RULE>
0

> <DRUGBANK_ID>
DB15464

> <DRUG_GROUPS>
investigational

> <GENERIC_NAME>
Urolithin A

> <SYNONYMS>
3,8-Dihydroxyurolithin; 3,8-Hydroxydibenzo-alpha-pyrone

$$$$
