
  Mrv1909 01152019072D          

 58 62  0  0  0  0            999 V2000
   -1.4561    0.4125    0.0000 O   0  0  0  0  0  0  0  0  0  0  0  0
   -0.7417   -0.8250    0.0000 O   0  0  0  0  0  0  0  0  0  0  0  0
   -3.5995    0.8250    0.0000 O   0  0  0  0  0  0  0  0  0  0  0  0
   -4.3140   -0.4125    0.0000 O   0  0  0  0  0  0  0  0  0  0  0  0
    1.4017   -0.4125    0.0000 O   0  0  0  0  0  0  0  0  0  0  0  0
   -3.5995   -0.8250    0.0000 O   0  0  0  0  0  0  0  0  0  0  0  0
   -0.7417    0.8250    0.0000 O   0  0  0  0  0  0  0  0  0  0  0  0
    2.1161    0.8250    0.0000 O   0  0  0  0  0  0  0  0  0  0  0  0
   -6.4574    0.8250    0.0000 O   0  0  0  0  0  0  0  0  0  0  0  0
   -6.4574   -0.8250    0.0000 O   0  0  0  0  0  0  0  0  0  0  0  0
   -2.8850    2.0625    0.0000 O   0  0  0  0  0  0  0  0  0  0  0  0
    1.4017   -2.0625    0.0000 O   0  0  0  0  0  0  0  0  0  0  0  0
   -4.3140   -2.0625    0.0000 O   0  0  0  0  0  0  0  0  0  0  0  0
   -0.7417   -1.6500    0.0000 O   0  0  0  0  0  0  0  0  0  0  0  0
   -4.3140    2.8875    0.0000 O   0  0  0  0  0  0  0  0  0  0  0  0
    2.1161    1.6500    0.0000 O   0  0  0  0  0  0  0  0  0  0  0  0
    4.9971    0.8536    0.0000 O   0  0  0  0  0  0  0  0  0  0  0  0
    6.4574    0.8448    0.0000 O   0  0  0  0  0  0  0  0  0  0  0  0
   -2.1706   -1.6500    0.0000 N   0  0  0  0  0  0  0  0  0  0  0  0
   -5.0284    1.6500    0.0000 N   0  0  0  0  0  0  0  0  0  0  0  0
    0.6872    1.6500    0.0000 N   0  0  0  0  0  0  0  0  0  0  0  0
   -2.8850    0.4125    0.0000 C   0  0  1  0  0  0  0  0  0  0  0  0
   -2.1706   -0.8250    0.0000 C   0  0  2  0  0  0  0  0  0  0  0  0
   -2.8850   -0.4125    0.0000 C   0  0  1  0  0  0  0  0  0  0  0  0
   -1.4561   -0.4125    0.0000 C   0  0  1  0  0  0  0  0  0  0  0  0
   -2.1706    0.8250    0.0000 C   0  0  1  0  0  0  0  0  0  0  0  0
   -0.0271   -0.4125    0.0000 C   0  0  1  0  0  0  0  0  0  0  0  0
   -0.0271    0.4125    0.0000 C   0  0  1  0  0  0  0  0  0  0  0  0
   -4.3140    0.4125    0.0000 C   0  0  2  0  0  0  0  0  0  0  0  0
   -5.0284    0.8250    0.0000 C   0  0  1  0  0  0  0  0  0  0  0  0
    0.6872   -0.8250    0.0000 C   0  0  1  0  0  0  0  0  0  0  0  0
    0.6872    0.8250    0.0000 C   0  0  2  0  0  0  0  0  0  0  0  0
   -5.7429    0.4125    0.0000 C   0  0  2  0  0  0  0  0  0  0  0  0
   -5.7429   -0.4125    0.0000 C   0  0  1  0  0  0  0  0  0  0  0  0
    1.4017    0.4125    0.0000 C   0  0  2  0  0  0  0  0  0  0  0  0
   -5.0284   -0.8250    0.0000 C   0  0  1  0  0  0  0  0  0  0  0  0
   -2.1706    1.6500    0.0000 C   0  0  0  0  0  0  0  0  0  0  0  0
    0.6872   -1.6500    0.0000 C   0  0  0  0  0  0  0  0  0  0  0  0
   -5.0284   -1.6500    0.0000 C   0  0  0  0  0  0  0  0  0  0  0  0
   -1.4561   -2.0625    0.0000 C   0  0  0  0  0  0  0  0  0  0  0  0
   -4.3140    2.0625    0.0000 C   0  0  0  0  0  0  0  0  0  0  0  0
    1.4017    2.0625    0.0000 C   0  0  0  0  0  0  0  0  0  0  0  0
   -1.4561   -2.8875    0.0000 C   0  0  0  0  0  0  0  0  0  0  0  0
    2.8306    0.4125    0.0000 C   0  0  0  0  0  0  0  0  0  0  0  0
   -3.5995    1.6500    0.0000 C   0  0  0  0  0  0  0  0  0  0  0  0
    1.4017    2.8875    0.0000 C   0  0  0  0  0  0  0  0  0  0  0  0
    3.5451    0.8250    0.0000 C   0  0  0  0  0  0  0  0  0  0  0  0
    2.8306   -0.4125    0.0000 C   0  0  0  0  0  0  0  0  0  0  0  0
    4.2595    0.4125    0.0000 C   0  0  0  0  0  0  0  0  0  0  0  0
    3.5451   -0.8250    0.0000 C   0  0  0  0  0  0  0  0  0  0  0  0
    4.2595   -0.4125    0.0000 C   0  0  0  0  0  0  0  0  0  0  0  0
    4.9971   -0.8536    0.0000 C   0  0  0  0  0  0  0  0  0  0  0  0
    5.7445   -0.4296    0.0000 C   0  0  0  0  0  0  0  0  0  0  0  0
    5.7445    0.4296    0.0000 C   0  0  0  0  0  0  0  0  0  0  0  0
    4.9875   -1.6785    0.0000 C   0  0  0  0  0  0  0  0  0  0  0  0
   -2.6135   -1.9057    0.0000 H   0  0  0  0  0  0  0  0  0  0  0  0
   -5.4714    1.9057    0.0000 H   0  0  0  0  0  0  0  0  0  0  0  0
    0.2443    1.9057    0.0000 H   0  0  0  0  0  0  0  0  0  0  0  0
  1 25  1  0  0  0  0
  1 26  1  0  0  0  0
 25  2  1  1  0  0  0
 27  2  1  1  0  0  0
 22  3  1  6  0  0  0
 29  3  1  6  0  0  0
  4 29  1  0  0  0  0
  4 36  1  0  0  0  0
  5 31  1  0  0  0  0
  5 35  1  0  0  0  0
 24  6  1  1  0  0  0
 28  7  1  6  0  0  0
 35  8  1  1  0  0  0
  8 44  1  0  0  0  0
 33  9  1  6  0  0  0
 34 10  1  1  0  0  0
 11 37  1  0  0  0  0
 12 38  1  0  0  0  0
 13 39  1  0  0  0  0
 14 40  2  0  0  0  0
 15 41  2  0  0  0  0
 16 42  2  0  0  0  0
 17 49  1  0  0  0  0
 17 54  1  0  0  0  0
 18 54  2  0  0  0  0
 23 19  1  6  0  0  0
 19 40  1  0  0  0  0
 19 56  1  0  0  0  0
 30 20  1  1  0  0  0
 20 41  1  0  0  0  0
 20 57  1  0  0  0  0
 32 21  1  1  0  0  0
 21 42  1  0  0  0  0
 21 58  1  0  0  0  0
 22 24  1  0  0  0  0
 22 26  1  0  0  0  0
 23 24  1  0  0  0  0
 23 25  1  0  0  0  0
 26 37  1  1  0  0  0
 27 28  1  0  0  0  0
 27 31  1  0  0  0  0
 28 32  1  0  0  0  0
 29 30  1  0  0  0  0
 30 33  1  0  0  0  0
 31 38  1  6  0  0  0
 32 35  1  0  0  0  0
 33 34  1  0  0  0  0
 34 36  1  0  0  0  0
 36 39  1  6  0  0  0
 40 43  1  0  0  0  0
 41 45  1  0  0  0  0
 42 46  1  0  0  0  0
 44 47  2  0  0  0  0
 44 48  1  0  0  0  0
 47 49  1  0  0  0  0
 48 50  2  0  0  0  0
 49 51  2  0  0  0  0
 50 51  1  0  0  0  0
 51 52  1  0  0  0  0
 52 53  2  0  0  0  0
 52 55  1  0  0  0  0
 53 54  1  0  0  0  0
M  END
> <DATABASE_ID>
DB04268

> <DATABASE_NAME>
drugbank

> <SMILES>
[H]N([C@H]1[C@H](O[C@@H]2[C@@H](CO)O[C@@H](O[C@@H]3[C@@H](CO)O[C@H](OC4=CC5=C(C=C4)C(C)=CC(=O)O5)[C@H](N([H])C(C)=O)[C@H]3O)[C@H](N([H])C(C)=O)[C@H]2O)O[C@H](CO)[C@@H](O)[C@@H]1O)C(C)=O

> <INCHI_IDENTIFIER>
InChI=1S/C34H47N3O18/c1-12-7-22(44)50-18-8-16(5-6-17(12)18)49-32-24(36-14(3)42)28(47)30(20(10-39)52-32)55-34-25(37-15(4)43)29(48)31(21(11-40)53-34)54-33-23(35-13(2)41)27(46)26(45)19(9-38)51-33/h5-8,19-21,23-34,38-40,45-48H,9-11H2,1-4H3,(H,35,41)(H,36,42)(H,37,43)/t19-,20-,21-,23-,24-,25-,26-,27-,28-,29-,30-,31-,32+,33+,34+/m1/s1

> <INCHI_KEY>
BNYGKUQXGBVTRE-ITRNKESMSA-N

> <FORMULA>
C34H47N3O18

> <MOLECULAR_WEIGHT>
785.7463

> <EXACT_MASS>
785.285461715

> <JCHEM_ACCEPTOR_COUNT>
17

> <JCHEM_ATOM_COUNT>
102

> <JCHEM_AVERAGE_NEUTRAL_MICROSPECIES_CHARGE>
-4.616781507653533e-05

> <JCHEM_AVERAGE_POLARIZABILITY>
77.71003733057721

> <JCHEM_BIOAVAILABILITY>
0

> <JCHEM_DONOR_COUNT>
10

> <JCHEM_FORMAL_CHARGE>
0

> <JCHEM_GHOSE_FILTER>
0

> <JCHEM_IUPAC>
N-[(2S,3R,4R,5S,6R)-2-{[(2R,3S,4R,5R,6S)-5-acetamido-6-{[(2R,3S,4R,5R,6R)-5-acetamido-4-hydroxy-2-(hydroxymethyl)-6-[(4-methyl-2-oxo-2H-chromen-7-yl)oxy]oxan-3-yl]oxy}-4-hydroxy-2-(hydroxymethyl)oxan-3-yl]oxy}-4,5-dihydroxy-6-(hydroxymethyl)oxan-3-yl]acetamide

> <ALOGPS_LOGP>
-1.02

> <JCHEM_LOGP>
-4.8946560670000006

> <ALOGPS_LOGS>
-1.98

> <JCHEM_MDDR_LIKE_RULE>
1

> <JCHEM_NEUTRAL_CHARGE>
0

> <JCHEM_NUMBER_OF_RINGS>
5

> <JCHEM_PHYSIOLOGICAL_CHARGE>
0

> <JCHEM_PKA>
12.026308361421432

> <JCHEM_PKA_STRONGEST_ACIDIC>
11.607191053665563

> <JCHEM_PKA_STRONGEST_BASIC>
-2.9813346293221326

> <JCHEM_POLAR_SURFACE_AREA>
310.58999999999986

> <JCHEM_REFRACTIVITY>
178.08639999999994

> <JCHEM_ROTATABLE_BOND_COUNT>
12

> <JCHEM_RULE_OF_FIVE>
0

> <ALOGPS_SOLUBILITY>
8.29e+00 g/l

> <JCHEM_TRADITIONAL_IUPAC>
[(2R,3S,4R,5R)-3,4-dihydroxy-5-(4-hydroxy-5-methyl-2-oxopyrimidin-1-yl)oxolan-2-yl]methoxyphosphonic acid

> <JCHEM_VEBER_RULE>
0

> <DRUGBANK_ID>
DB04268

> <SECONDARY_ACCESSION_NUMBERS>
EXPT03186

> <DRUG_GROUPS>
experimental

> <GENERIC_NAME>
Methylumbelliferyl chitotriose

> <SYNONYMS>
Methyl-umbellifertl-N-acetyl-chitotriose

$$$$
