
  Mrv1572004221603012D          

 28 30  0  0  1  0            999 V2000
    1.6940    2.9711    0.0000 C   0  0  0  0  0  0  0  0  0  0  0  0
    3.1250    0.3393    0.0000 C   0  0  0  0  0  0  0  0  0  0  0  0
   -3.5239   -0.0097    0.0000 C   0  0  0  0  0  0  0  0  0  0  0  0
   -1.6402   -1.1125    0.0000 C   0  0  0  0  0  0  0  0  0  0  0  0
   -0.8291   -0.9615    0.0000 C   0  0  0  0  0  0  0  0  0  0  0  0
   -1.1965    2.6583    0.0000 C   0  0  0  0  0  0  0  0  0  0  0  0
    0.2198    0.4522    0.0000 C   0  0  0  0  0  0  0  0  0  0  0  0
   -0.4660    3.0417    0.0000 C   0  0  0  0  0  0  0  0  0  0  0  0
    0.9750    0.1201    0.0000 C   0  0  0  0  0  0  0  0  0  0  0  0
   -2.1633    1.6971    0.0000 C   0  0  0  0  0  0  0  0  0  0  0  0
    1.3249    1.9405    0.0000 C   0  0  0  0  0  0  0  0  0  0  0  0
   -1.3523    1.8481    0.0000 C   0  0  0  0  0  0  0  0  0  0  0  0
    0.0086    1.2497    0.0000 C   0  0  0  0  0  0  0  0  0  0  0  0
    0.5004    1.9121    0.0000 C   0  0  0  0  0  0  0  0  0  0  0  0
    0.2892    2.7096    0.0000 C   0  0  1  0  0  0  0  0  0  0  0  0
    1.8612    1.3136    0.0000 C   0  0  0  0  0  0  0  0  0  0  0  0
    1.7055    0.5035    0.0000 C   0  0  0  0  0  0  0  0  0  0  0  0
   -2.4381    0.9192    0.0000 C   0  0  0  0  0  0  0  0  0  0  0  0
   -0.8159    1.2212    0.0000 C   0  0  0  0  0  0  0  0  0  0  0  0
   -1.9018    0.2923    0.0000 C   0  0  0  0  0  0  0  0  0  0  0  0
   -1.0907    0.4433    0.0000 C   0  0  0  0  0  0  0  0  0  0  0  0
    0.9161    3.2459    0.0000 N   0  0  0  0  0  0  0  0  0  0  0  0
    2.6587    1.5248    0.0000 O   0  0  0  0  0  0  0  0  0  0  0  0
    2.3678    0.0116    0.0000 O   0  0  0  0  0  0  0  0  0  0  0  0
   -3.2491    0.7682    0.0000 O   0  0  0  0  0  0  0  0  0  0  0  0
   -2.1765   -0.4856    0.0000 O   0  0  0  0  0  0  0  0  0  0  0  0
   -0.5544   -0.1835    0.0000 O   0  0  0  0  0  0  0  0  0  0  0  0
    0.1686    3.5257    0.0000 H   0  0  0  0  0  0  0  0  0  0  0  0
  8  6  1  0  0  0  0
  9  7  1  0  0  0  0
 12  6  1  0  0  0  0
 12 10  2  0  0  0  0
 13  7  2  0  0  0  0
 14 11  2  0  0  0  0
 14 13  1  0  0  0  0
 15  8  1  0  0  0  0
 15 14  1  0  0  0  0
 16 11  1  0  0  0  0
 17  9  2  0  0  0  0
 17 16  1  0  0  0  0
 18 10  1  0  0  0  0
 19 12  1  0  0  0  0
 19 13  1  0  0  0  0
 20 18  2  0  0  0  0
 21 19  2  0  0  0  0
 21 20  1  0  0  0  0
 22  1  1  0  0  0  0
 15 22  1  6  0  0  0
 23 16  2  0  0  0  0
 24  2  1  0  0  0  0
 24 17  1  0  0  0  0
 25  3  1  0  0  0  0
 25 18  1  0  0  0  0
 26  4  1  0  0  0  0
 26 20  1  0  0  0  0
 27  5  1  0  0  0  0
 27 21  1  0  0  0  0
 15 28  1  1  0  0  0
M  END
> <DATABASE_ID>
DB13318

> <DATABASE_NAME>
drugbank

> <SMILES>
[H][C@@]1(CCC2=CC(OC)=C(OC)C(OC)=C2C2=CC=C(OC)C(=O)C=C12)NC

> <INCHI_IDENTIFIER>
InChI=1S/C21H25NO5/c1-22-15-8-6-12-10-18(25-3)20(26-4)21(27-5)19(12)13-7-9-17(24-2)16(23)11-14(13)15/h7,9-11,15,22H,6,8H2,1-5H3/t15-/m0/s1

> <INCHI_KEY>
NNJPGOLRFBJNIW-HNNXBMFYSA-N

> <FORMULA>
C21H25NO5

> <MOLECULAR_WEIGHT>
371.433

> <EXACT_MASS>
371.173272909

> <JCHEM_ACCEPTOR_COUNT>
6

> <JCHEM_ATOM_COUNT>
52

> <JCHEM_AVERAGE_POLARIZABILITY>
40.25226100481817

> <JCHEM_BIOAVAILABILITY>
1

> <JCHEM_DONOR_COUNT>
1

> <JCHEM_FORMAL_CHARGE>
0

> <JCHEM_GHOSE_FILTER>
1

> <JCHEM_IUPAC>
(10S)-3,4,5,14-tetramethoxy-10-(methylamino)tricyclo[9.5.0.0²,⁷]hexadeca-1(16),2,4,6,11,14-hexaen-13-one

> <ALOGPS_LOGP>
2.52

> <JCHEM_LOGP>
2.0757223610000013

> <ALOGPS_LOGS>
-4.06

> <JCHEM_MDDR_LIKE_RULE>
0

> <JCHEM_NUMBER_OF_RINGS>
3

> <JCHEM_PHYSIOLOGICAL_CHARGE>
1

> <JCHEM_PKA_STRONGEST_ACIDIC>
16.95792944995127

> <JCHEM_PKA_STRONGEST_BASIC>
9.696083981547261

> <JCHEM_POLAR_SURFACE_AREA>
66.02000000000001

> <JCHEM_REFRACTIVITY>
106.70639999999999

> <JCHEM_ROTATABLE_BOND_COUNT>
5

> <JCHEM_RULE_OF_FIVE>
1

> <ALOGPS_SOLUBILITY>
3.20e-02 g/l

> <JCHEM_TRADITIONAL_IUPAC>
colcemid

> <JCHEM_VEBER_RULE>
0

> <DRUGBANK_ID>
DB13318

> <DRUG_GROUPS>
experimental

> <GENERIC_NAME>
Demecolcine

> <SYNONYMS>
demecolcina; Demecolcine

$$$$
