
  Mrv1572001261617252D          

 30 33  0  0  0  0            999 V2000
    4.2868    0.8250    0.0000 C   0  0  0  0  0  0  0  0  0  0  0  0
    2.8579    3.3000    0.0000 C   0  0  0  0  0  0  0  0  0  0  0  0
   -0.3020    2.7770    0.0000 C   0  0  0  0  0  0  0  0  0  0  0  0
   -1.1270    2.7770    0.0000 C   0  0  0  0  0  0  0  0  0  0  0  0
    2.8579    0.8250    0.0000 C   0  0  0  0  0  0  0  0  0  0  0  0
    2.1434    2.0625    0.0000 C   0  0  0  0  0  0  0  0  0  0  0  0
   -1.4289    0.8250    0.0000 C   0  0  0  0  0  0  0  0  0  0  0  0
    3.5724    1.2375    0.0000 C   0  0  1  0  0  0  0  0  0  0  0  0
    2.8579    2.4750    0.0000 C   0  0  2  0  0  0  0  0  0  0  0  0
   -0.7145    2.0625    0.0000 C   0  0  0  0  0  0  0  0  0  0  0  0
   -1.4289   -0.0000    0.0000 C   0  0  0  0  0  0  0  0  0  0  0  0
   -0.0000   -0.0000    0.0000 C   0  0  0  0  0  0  0  0  0  0  0  0
    0.7145   -0.4125    0.0000 C   0  0  0  0  0  0  0  0  0  0  0  0
    1.4289    0.0000    0.0000 C   0  0  0  0  0  0  0  0  0  0  0  0
    0.7145    1.2375    0.0000 C   0  0  0  0  0  0  0  0  0  0  0  0
    0.0000    0.8250    0.0000 C   0  0  0  0  0  0  0  0  0  0  0  0
    1.4289    0.8250    0.0000 C   0  0  0  0  0  0  0  0  0  0  0  0
   -0.7145   -0.4125    0.0000 C   0  0  0  0  0  0  0  0  0  0  0  0
   -2.1434   -0.4125    0.0000 C   0  0  0  0  0  0  0  0  0  0  0  0
    0.7145   -1.2375    0.0000 F   0  0  0  0  0  0  0  0  0  0  0  0
    2.1434   -0.4125    0.0000 F   0  0  0  0  0  0  0  0  0  0  0  0
    0.7145    2.0625    0.0000 F   0  0  0  0  0  0  0  0  0  0  0  0
    3.5724    2.0625    0.0000 N   0  0  0  0  0  0  0  0  0  0  0  0
    2.1434    1.2375    0.0000 N   0  0  0  0  0  0  0  0  0  0  0  0
   -0.7145    1.2375    0.0000 N   0  0  0  0  0  0  0  0  0  0  0  0
   -0.7145   -1.2375    0.0000 O   0  0  0  0  0  0  0  0  0  0  0  0
   -2.1434   -1.2375    0.0000 O   0  0  0  0  0  0  0  0  0  0  0  0
   -2.8579   -0.0000    0.0000 O   0  0  0  0  0  0  0  0  0  0  0  0
    4.2868    1.6500    0.0000 H   0  0  0  0  0  0  0  0  0  0  0  0
    3.5724    2.8875    0.0000 H   0  0  0  0  0  0  0  0  0  0  0  0
  4  3  1  0  0  0  0
  8  1  1  1  0  0  0
  8  5  1  0  0  0  0
  9  2  1  1  0  0  0
  9  6  1  0  0  0  0
 10  3  1  0  0  0  0
 10  4  1  0  0  0  0
 11  7  2  0  0  0  0
 13 12  2  0  0  0  0
 14 13  1  0  0  0  0
 16 12  1  0  0  0  0
 16 15  2  0  0  0  0
 17 14  2  0  0  0  0
 17 15  1  0  0  0  0
 18 11  1  0  0  0  0
 18 12  1  0  0  0  0
 19 11  1  0  0  0  0
 20 13  1  0  0  0  0
 21 14  1  0  0  0  0
 22 15  1  0  0  0  0
 23  8  1  0  0  0  0
 23  9  1  0  0  0  0
 24  5  1  0  0  0  0
 24  6  1  0  0  0  0
 24 17  1  0  0  0  0
 25  7  1  0  0  0  0
 25 10  1  0  0  0  0
 25 16  1  0  0  0  0
 26 18  2  0  0  0  0
 27 19  2  0  0  0  0
 28 19  1  0  0  0  0
  8 29  1  6  0  0  0
  9 30  1  6  0  0  0
M  END
> <DATABASE_ID>
DB11443

> <DATABASE_NAME>
drugbank

> <SMILES>
[H][C@]1(C)CN(C[C@@]([H])(C)N1)C1=C(F)C(F)=C2C(=O)C(=CN(C3CC3)C2=C1F)C(O)=O

> <INCHI_IDENTIFIER>
InChI=1S/C19H20F3N3O3/c1-8-5-24(6-9(2)23-8)17-14(21)13(20)12-16(15(17)22)25(10-3-4-10)7-11(18(12)26)19(27)28/h7-10,23H,3-6H2,1-2H3,(H,27,28)/t8-,9+

> <INCHI_KEY>
QIPQASLPWJVQMH-DTORHVGOSA-N

> <FORMULA>
C19H20F3N3O3

> <MOLECULAR_WEIGHT>
395.382

> <EXACT_MASS>
395.145676005

> <JCHEM_ACCEPTOR_COUNT>
6

> <JCHEM_ATOM_COUNT>
48

> <JCHEM_AVERAGE_POLARIZABILITY>
37.693263581728566

> <JCHEM_BIOAVAILABILITY>
1

> <JCHEM_DONOR_COUNT>
2

> <JCHEM_FORMAL_CHARGE>
0

> <JCHEM_GHOSE_FILTER>
1

> <JCHEM_IUPAC>
1-cyclopropyl-7-[(3R,5S)-3,5-dimethylpiperazin-1-yl]-5,6,8-trifluoro-4-oxo-1,4-dihydroquinoline-3-carboxylic acid

> <ALOGPS_LOGP>
0.36

> <JCHEM_LOGP>
0.24618605959504222

> <ALOGPS_LOGS>
-4.19

> <JCHEM_MDDR_LIKE_RULE>
0

> <JCHEM_NUMBER_OF_RINGS>
4

> <JCHEM_PHYSIOLOGICAL_CHARGE>
0

> <JCHEM_PKA_STRONGEST_ACIDIC>
5.4919296081157025

> <JCHEM_PKA_STRONGEST_BASIC>
8.768706450428715

> <JCHEM_POLAR_SURFACE_AREA>
72.88

> <JCHEM_REFRACTIVITY>
97.20979999999996

> <JCHEM_ROTATABLE_BOND_COUNT>
3

> <JCHEM_RULE_OF_FIVE>
1

> <ALOGPS_SOLUBILITY>
2.54e-02 g/l

> <JCHEM_TRADITIONAL_IUPAC>
orbifloxacin

> <JCHEM_VEBER_RULE>
0

> <DRUGBANK_ID>
DB11443

> <DRUG_GROUPS>
vet_approved

> <GENERIC_NAME>
Orbifloxacin

> <SYNONYMS>
Orbifloxacin

$$$$
