
  Mrv1909 05201914352D          

 45 49  0  0  0  0            999 V2000
    0.3786   -2.5431    0.0000 C   0  0  0  0  0  0  0  0  0  0  0  0
    0.6659   -1.7697    0.0000 C   0  0  0  0  0  0  0  0  0  0  0  0
    0.1399   -1.1342    0.0000 O   0  0  0  0  0  0  0  0  0  0  0  0
    0.4272   -0.3609    0.0000 C   0  0  0  0  0  0  0  0  0  0  0  0
   -0.0989    0.2746    0.0000 C   0  0  0  0  0  0  0  0  0  0  0  0
    0.1884    1.0480    0.0000 C   0  0  0  0  0  0  0  0  0  0  0  0
    1.0018    1.1859    0.0000 C   0  0  0  0  0  0  0  0  0  0  0  0
    1.4436    1.8826    0.0000 N   0  0  0  0  0  0  0  0  0  0  0  0
    2.2428    1.6777    0.0000 C   0  0  0  0  0  0  0  0  0  0  0  0
    2.8782    2.2038    0.0000 O   0  0  0  0  0  0  0  0  0  0  0  0
    2.2948    0.8543    0.0000 C   0  0  2  0  0  0  0  0  0  0  0  0
    3.0258    1.2368    0.0000 C   0  0  0  0  0  0  0  0  0  0  0  0
    3.7225    0.7950    0.0000 C   0  0  0  0  0  0  0  0  0  0  0  0
    3.6883   -0.0293    0.0000 C   0  0  1  0  0  0  0  0  0  0  0  0
    2.9573   -0.4118    0.0000 C   0  0  0  0  0  0  0  0  0  0  0  0
    2.2606    0.0300    0.0000 C   0  0  0  0  0  0  0  0  0  0  0  0
    4.3850   -0.4711    0.0000 O   0  0  0  0  0  0  0  0  0  0  0  0
    4.3507   -1.2954    0.0000 C   0  0  0  0  0  0  0  0  0  0  0  0
    5.0474   -1.7373    0.0000 C   0  0  0  0  0  0  0  0  0  0  0  0
    5.0132   -2.5615    0.0000 N   0  0  0  0  0  0  0  0  0  0  0  0
    5.7099   -3.0034    0.0000 C   0  0  0  0  0  0  0  0  0  0  0  0
    5.6756   -3.8276    0.0000 C   0  0  0  0  0  0  0  0  0  0  0  0
    4.9446   -4.2101    0.0000 O   0  0  0  0  0  0  0  0  0  0  0  0
    4.2479   -3.7683    0.0000 C   0  0  0  0  0  0  0  0  0  0  0  0
    4.2822   -2.9440    0.0000 C   0  0  0  0  0  0  0  0  0  0  0  0
    1.5279    0.5504    0.0000 C   0  0  0  0  0  0  0  0  0  0  0  0
    1.2406   -0.2230    0.0000 C   0  0  0  0  0  0  0  0  0  0  0  0
    1.1396    2.6495    0.0000 S   0  0  0  0  0  0  0  0  0  0  0  0
    1.9066    2.9535    0.0000 O   0  0  0  0  0  0  0  0  0  0  0  0
    0.3727    2.3456    0.0000 O   0  0  0  0  0  0  0  0  0  0  0  0
    0.8357    3.4165    0.0000 C   0  0  0  0  0  0  0  0  0  0  0  0
    0.0195    3.5367    0.0000 C   0  0  0  0  0  0  0  0  0  0  0  0
   -0.2845    4.3037    0.0000 C   0  0  0  0  0  0  0  0  0  0  0  0
    0.2278    4.9504    0.0000 C   0  0  0  0  0  0  0  0  0  0  0  0
    1.0439    4.8302    0.0000 C   0  0  0  0  0  0  0  0  0  0  0  0
    1.3479    4.0632    0.0000 C   0  0  0  0  0  0  0  0  0  0  0  0
    2.1641    3.9430    0.0000 O   0  0  0  0  0  0  0  0  0  0  0  0
    2.6763    4.5897    0.0000 C   0  0  0  0  0  0  0  0  0  0  0  0
   -0.0762    5.7174    0.0000 C   0  0  0  0  0  0  0  0  0  0  0  0
   -0.8924    5.8376    0.0000 O   0  0  0  0  0  0  0  0  0  0  0  0
    0.4360    6.3641    0.0000 N   0  0  0  0  0  0  0  0  0  0  0  0
    0.1321    7.1311    0.0000 C   0  0  0  0  0  0  0  0  0  0  0  0
   -0.1719    7.8980    0.0000 C   0  0  0  0  0  0  0  0  0  0  0  0
    0.8990    7.4350    0.0000 C   0  0  0  0  0  0  0  0  0  0  0  0
   -0.6349    6.8271    0.0000 C   0  0  0  0  0  0  0  0  0  0  0  0
  1  2  1  0  0  0  0
  2  3  1  0  0  0  0
  3  4  1  0  0  0  0
  4  5  2  0  0  0  0
  5  6  1  0  0  0  0
  6  7  2  0  0  0  0
  7  8  1  0  0  0  0
  8  9  1  0  0  0  0
  9 10  2  0  0  0  0
 11  9  1  6  0  0  0
 11 12  1  0  0  0  0
 12 13  1  0  0  0  0
 14 13  1  0  0  0  0
 14 15  1  0  0  0  0
 15 16  1  0  0  0  0
 11 16  1  0  0  0  0
 14 17  1  6  0  0  0
 17 18  1  0  0  0  0
 18 19  1  0  0  0  0
 19 20  1  0  0  0  0
 20 21  1  0  0  0  0
 21 22  1  0  0  0  0
 22 23  1  0  0  0  0
 23 24  1  0  0  0  0
 24 25  1  0  0  0  0
 20 25  1  0  0  0  0
 11 26  1  0  0  0  0
  7 26  1  0  0  0  0
 26 27  2  0  0  0  0
  4 27  1  0  0  0  0
  8 28  1  0  0  0  0
 28 29  2  0  0  0  0
 28 30  2  0  0  0  0
 28 31  1  0  0  0  0
 31 32  2  0  0  0  0
 32 33  1  0  0  0  0
 33 34  2  0  0  0  0
 34 35  1  0  0  0  0
 35 36  2  0  0  0  0
 31 36  1  0  0  0  0
 36 37  1  0  0  0  0
 37 38  1  0  0  0  0
 34 39  1  0  0  0  0
 39 40  2  0  0  0  0
 39 41  1  0  0  0  0
 41 42  1  0  0  0  0
 42 43  1  0  0  0  0
 42 44  1  0  0  0  0
 42 45  1  0  0  0  0
M  END
> <DATABASE_ID>
DB14923

> <DATABASE_NAME>
drugbank

> <SMILES>
CCOC1=CC=C2N(C(=O)[C@@]3(CC[C@@H](CC3)OCCN3CCOCC3)C2=C1)S(=O)(=O)C1=CC=C(C=C1OC)C(=O)NC(C)(C)C

> <INCHI_IDENTIFIER>
InChI=1S/C33H45N3O8S/c1-6-43-25-8-9-27-26(22-25)33(13-11-24(12-14-33)44-20-17-35-15-18-42-19-16-35)31(38)36(27)45(39,40)29-10-7-23(21-28(29)41-5)30(37)34-32(2,3)4/h7-10,21-22,24H,6,11-20H2,1-5H3,(H,34,37)/t24-,33+

> <INCHI_KEY>
QKXJWFOKVQWEDZ-VCCCEUOBSA-N

> <FORMULA>
C33H45N3O8S

> <MOLECULAR_WEIGHT>
643.8

> <EXACT_MASS>
643.292736595

> <JCHEM_ACCEPTOR_COUNT>
9

> <JCHEM_ATOM_COUNT>
90

> <JCHEM_AVERAGE_POLARIZABILITY>
70.85364527593498

> <JCHEM_BIOAVAILABILITY>
1

> <JCHEM_DONOR_COUNT>
1

> <JCHEM_FORMAL_CHARGE>
0

> <JCHEM_GHOSE_FILTER>
0

> <JCHEM_IUPAC>
N-tert-butyl-3-methoxy-4-{[(1s,4s)-5'-ethoxy-4-[2-(morpholin-4-yl)ethoxy]-2'-oxo-1',2'-dihydrospiro[cyclohexane-1,3'-indol]-1'-yl]sulfonyl}benzamide

> <ALOGPS_LOGP>
3.60

> <JCHEM_LOGP>
3.505887560333334

> <ALOGPS_LOGS>
-5.05

> <JCHEM_MDDR_LIKE_RULE>
1

> <JCHEM_NUMBER_OF_RINGS>
5

> <JCHEM_PHYSIOLOGICAL_CHARGE>
1

> <JCHEM_PKA_STRONGEST_ACIDIC>
13.836953190080473

> <JCHEM_PKA_STRONGEST_BASIC>
6.775912975609836

> <JCHEM_POLAR_SURFACE_AREA>
123.71000000000001

> <JCHEM_REFRACTIVITY>
171.16629999999998

> <JCHEM_ROTATABLE_BOND_COUNT>
10

> <JCHEM_RULE_OF_FIVE>
0

> <ALOGPS_SOLUBILITY>
5.75e-03 g/l

> <JCHEM_TRADITIONAL_IUPAC>
(2R)-14-fluoro-2-methyl-6,9,10,19-tetraazapentacyclo[14.2.1.0^{2,6}.0^{8,18}.0^{12,17}]nonadeca-1(18),8,12(17),13,15-pentaen-11-one

> <JCHEM_VEBER_RULE>
0

> <DRUGBANK_ID>
DB14923

> <DRUG_GROUPS>
investigational

> <GENERIC_NAME>
Satavaptan

> <SYNONYMS>
Satavaptan

$$$$
