
  Mrv1652306231722432D          

 11 11  0  0  0  0            999 V2000
    0.7145    2.0625    0.0000 C   0  0  0  0  0  0  0  0  0  0  0  0
    0.7145    1.2375    0.0000 C   0  0  0  0  0  0  0  0  0  0  0  0
    1.4289    0.8250    0.0000 C   0  0  0  0  0  0  0  0  0  0  0  0
    1.4289   -0.0000    0.0000 C   0  0  0  0  0  0  0  0  0  0  0  0
    0.7145   -0.4125    0.0000 C   0  0  0  0  0  0  0  0  0  0  0  0
    0.0000    0.0000    0.0000 C   0  0  0  0  0  0  0  0  0  0  0  0
    0.0000    0.8250    0.0000 C   0  0  0  0  0  0  0  0  0  0  0  0
   -0.7145    1.2375    0.0000 Br  0  0  0  0  0  0  0  0  0  0  0  0
   -0.7145   -0.4125    0.0000 O   0  0  0  0  0  0  0  0  0  0  0  0
    0.7145   -1.2375    0.0000 Br  0  0  0  0  0  0  0  0  0  0  0  0
    2.1434    1.2375    0.0000 Br  0  0  0  0  0  0  0  0  0  0  0  0
  1  2  1  0  0  0  0
  2  3  2  0  0  0  0
  3  4  1  0  0  0  0
  4  5  2  0  0  0  0
  5  6  1  0  0  0  0
  6  7  2  0  0  0  0
  2  7  1  0  0  0  0
  7  8  1  0  0  0  0
  6  9  1  0  0  0  0
  5 10  1  0  0  0  0
  3 11  1  0  0  0  0
M  END
> <DATABASE_ID>
DB13513

> <DATABASE_NAME>
drugbank

> <SMILES>
CC1=C(Br)C=C(Br)C(O)=C1Br

> <INCHI_IDENTIFIER>
InChI=1S/C7H5Br3O/c1-3-4(8)2-5(9)7(11)6(3)10/h2,11H,1H3

> <INCHI_KEY>
QKHROXOPRBWBDD-UHFFFAOYSA-N

> <FORMULA>
C7H5Br3O

> <MOLECULAR_WEIGHT>
344.828

> <EXACT_MASS>
341.789054

> <JCHEM_ACCEPTOR_COUNT>
1

> <JCHEM_ATOM_COUNT>
16

> <JCHEM_AVERAGE_POLARIZABILITY>
21.830008940522518

> <JCHEM_BIOAVAILABILITY>
1

> <JCHEM_DONOR_COUNT>
1

> <JCHEM_FORMAL_CHARGE>
0

> <JCHEM_GHOSE_FILTER>
0

> <JCHEM_IUPAC>
2,4,6-tribromo-3-methylphenol

> <ALOGPS_LOGP>
4.46

> <JCHEM_LOGP>
4.489359759666666

> <ALOGPS_LOGS>
-4.36

> <JCHEM_MDDR_LIKE_RULE>
0

> <JCHEM_NUMBER_OF_RINGS>
1

> <JCHEM_PHYSIOLOGICAL_CHARGE>
-1

> <JCHEM_PKA_STRONGEST_ACIDIC>
6.511330804395475

> <JCHEM_PKA_STRONGEST_BASIC>
-7.704587987386643

> <JCHEM_POLAR_SURFACE_AREA>
20.23

> <JCHEM_REFRACTIVITY>
55.948499999999996

> <JCHEM_ROTATABLE_BOND_COUNT>
0

> <JCHEM_RULE_OF_FIVE>
1

> <ALOGPS_SOLUBILITY>
1.49e-02 g/l

> <JCHEM_TRADITIONAL_IUPAC>
tribromometacresol

> <JCHEM_VEBER_RULE>
1

> <DRUGBANK_ID>
DB13513

> <DRUG_GROUPS>
experimental

> <GENERIC_NAME>
Tribromometacresol

> <SYNONYMS>
2,4,6-tribromo-m-cresol

$$$$
