
  Mrv1652310201623572D          

 31 34  0  0  1  0            999 V2000
    0.7954   -2.9684    0.0000 C   0  0  0  0  0  0  0  0  0  0  0  0
    1.2079   -2.2539    0.0000 C   0  0  0  0  0  0  0  0  0  0  0  0
    0.7954   -1.5395    0.0000 O   0  0  0  0  0  0  0  0  0  0  0  0
    2.0329   -2.2539    0.0000 O   0  0  0  0  0  0  0  0  0  0  0  0
    2.4454   -1.5395    0.0000 C   0  0  1  0  0  0  0  0  0  0  0  0
    2.0329   -0.8250    0.0000 C   0  0  0  0  0  0  0  0  0  0  0  0
    2.4454   -0.1105    0.0000 C   0  0  2  0  0  0  0  0  0  0  0  0
    3.2704   -0.1105    0.0000 C   0  0  2  0  0  0  0  0  0  0  0  0
    3.6829    0.6039    0.0000 C   0  0  0  0  0  0  0  0  0  0  0  0
    4.5079    0.6039    0.0000 C   0  0  0  0  0  0  0  0  0  0  0  0
    4.9204   -0.1105    0.0000 C   0  0  1  0  0  0  0  0  0  0  0  0
    5.7454   -0.1105    0.0000 C   0  0  0  0  0  0  0  0  0  0  0  0
    6.1579    0.6039    0.0000 O   0  0  0  0  0  0  0  0  0  0  0  0
    6.1579   -0.8250    0.0000 O   0  0  0  0  0  0  0  0  0  0  0  0
    5.7454   -1.5395    0.0000 C   0  0  1  0  0  0  0  0  0  0  0  0
    4.9204   -1.5395    0.0000 C   0  0  0  0  0  0  0  0  0  0  0  0
    4.5079   -0.8250    0.0000 C   0  0  2  0  0  0  0  0  0  0  0  0
    3.6829   -0.8250    0.0000 C   0  0  1  0  0  0  0  0  0  0  0  0
    3.2704   -1.5395    0.0000 C   0  0  0  0  0  0  0  0  0  0  0  0
    3.6829   -2.2539    0.0000 O   0  0  0  0  0  0  0  0  0  0  0  0
    4.0954   -1.5395    0.0000 C   0  0  0  0  0  0  0  0  0  0  0  0
    6.1579   -2.2539    0.0000 C   0  0  0  0  0  0  0  0  0  0  0  0
    6.9784   -2.3402    0.0000 C   0  0  0  0  0  0  0  0  0  0  0  0
    7.1499   -3.1471    0.0000 C   0  0  0  0  0  0  0  0  0  0  0  0
    6.4354   -3.5596    0.0000 O   0  0  0  0  0  0  0  0  0  0  0  0
    5.8223   -3.0076    0.0000 C   0  0  0  0  0  0  0  0  0  0  0  0
    2.8579    0.6039    0.0000 C   0  0  0  0  0  0  0  0  0  0  0  0
    2.0329    0.6039    0.0000 C   0  0  0  0  0  0  0  0  0  0  0  0
    2.4454    1.3184    0.0000 O   0  0  0  0  0  0  0  0  0  0  0  0
    1.2079    0.6039    0.0000 O   0  0  0  0  0  0  0  0  0  0  0  0
    0.7954    1.3184    0.0000 C   0  0  0  0  0  0  0  0  0  0  0  0
  1  2  1  0  0  0  0
  2  3  2  0  0  0  0
  2  4  1  0  0  0  0
  5  4  1  1  0  0  0
  5  6  1  0  0  0  0
  6  7  1  0  0  0  0
  7  8  1  0  0  0  0
  8  9  1  0  0  0  0
  9 10  1  0  0  0  0
 11 10  1  1  0  0  0
 11 12  1  0  0  0  0
 12 13  2  0  0  0  0
 12 14  1  0  0  0  0
 14 15  1  0  0  0  0
 15 16  1  0  0  0  0
 16 17  1  0  0  0  0
 11 17  1  0  0  0  0
 17 18  1  0  0  0  0
  8 18  1  0  0  0  0
 18 19  1  1  0  0  0
  5 19  1  0  0  0  0
 19 20  2  0  0  0  0
 17 21  1  1  0  0  0
 15 22  1  6  0  0  0
 22 23  1  0  0  0  0
 23 24  2  0  0  0  0
 24 25  1  0  0  0  0
 25 26  1  0  0  0  0
 22 26  2  0  0  0  0
  8 27  1  1  0  0  0
  7 28  1  1  0  0  0
 28 29  2  0  0  0  0
 28 30  1  0  0  0  0
 30 31  1  0  0  0  0
M  END
> <DATABASE_ID>
DB12327

> <DATABASE_NAME>
drugbank

> <SMILES>
COC(=O)[C@@H]1C[C@H](OC(C)=O)C(=O)[C@H]2[C@@]1(C)CC[C@H]1C(=O)O[C@@H](C[C@]21C)C1=COC=C1

> <INCHI_IDENTIFIER>
InChI=1S/C23H28O8/c1-12(24)30-16-9-15(20(26)28-4)22(2)7-5-14-21(27)31-17(13-6-8-29-11-13)10-23(14,3)19(22)18(16)25/h6,8,11,14-17,19H,5,7,9-10H2,1-4H3/t14-,15-,16-,17-,19-,22-,23-/m0/s1

> <INCHI_KEY>
OBSYBRPAKCASQB-AGQYDFLVSA-N

> <FORMULA>
C23H28O8

> <MOLECULAR_WEIGHT>
432.469

> <EXACT_MASS>
432.178417862

> <JCHEM_ACCEPTOR_COUNT>
4

> <JCHEM_ATOM_COUNT>
59

> <JCHEM_AVERAGE_POLARIZABILITY>
44.16734545590812

> <JCHEM_BIOAVAILABILITY>
1

> <JCHEM_DONOR_COUNT>
0

> <JCHEM_FORMAL_CHARGE>
0

> <JCHEM_GHOSE_FILTER>
1

> <JCHEM_IUPAC>
methyl (2S,4aR,6aR,7R,9S,10aS,10bR)-9-(acetyloxy)-2-(furan-3-yl)-6a,10b-dimethyl-4,10-dioxo-dodecahydro-1H-naphtho[2,1-c]pyran-7-carboxylate

> <ALOGPS_LOGP>
2.48

> <JCHEM_LOGP>
2.389013855999999

> <ALOGPS_LOGS>
-3.73

> <JCHEM_MDDR_LIKE_RULE>
0

> <JCHEM_NUMBER_OF_RINGS>
4

> <JCHEM_PHYSIOLOGICAL_CHARGE>
0

> <JCHEM_PKA_STRONGEST_ACIDIC>
16.451682896728908

> <JCHEM_PKA_STRONGEST_BASIC>
-2.888544410171351

> <JCHEM_POLAR_SURFACE_AREA>
109.11000000000003

> <JCHEM_REFRACTIVITY>
105.99539999999999

> <JCHEM_ROTATABLE_BOND_COUNT>
5

> <JCHEM_RULE_OF_FIVE>
1

> <ALOGPS_SOLUBILITY>
8.00e-02 g/l

> <JCHEM_TRADITIONAL_IUPAC>
salvinorin A

> <JCHEM_VEBER_RULE>
0

> <DRUGBANK_ID>
DB12327

> <DRUG_GROUPS>
investigational

> <GENERIC_NAME>
Salvinorin A

$$$$
