
  Mrv1909 05201914362D          

 31 32  0  0  1  0            999 V2000
    5.0771   -5.2722    0.0000 C   0  0  0  0  0  0  0  0  0  0  0  0
    4.3626   -4.8597    0.0000 C   0  0  0  0  0  0  0  0  0  0  0  0
    3.6481   -5.2722    0.0000 C   0  0  0  0  0  0  0  0  0  0  0  0
    4.3626   -4.0347    0.0000 C   0  0  1  0  0  0  0  0  0  0  0  0
    3.6481   -3.6222    0.0000 N   0  0  0  0  0  0  0  0  0  0  0  0
    2.9337   -4.0347    0.0000 C   0  0  0  0  0  0  0  0  0  0  0  0
    2.9337   -4.8597    0.0000 O   0  0  0  0  0  0  0  0  0  0  0  0
    2.2192   -3.6222    0.0000 N   0  0  0  0  0  0  0  0  0  0  0  0
    2.2192   -2.7972    0.0000 C   0  0  0  0  0  0  0  0  0  0  0  0
    2.9337   -2.3847    0.0000 C   0  0  0  0  0  0  0  0  0  0  0  0
    3.6481   -1.9722    0.0000 C   0  0  0  0  0  0  0  0  0  0  0  0
    2.5212   -1.6702    0.0000 C   0  0  0  0  0  0  0  0  0  0  0  0
    3.3462   -3.0992    0.0000 O   0  0  0  0  0  0  0  0  0  0  0  0
    5.0771   -3.6222    0.0000 C   0  0  0  0  0  0  0  0  0  0  0  0
    5.0771   -2.7972    0.0000 O   0  0  0  0  0  0  0  0  0  0  0  0
    5.7915   -4.0347    0.0000 N   0  0  0  0  0  0  0  0  0  0  0  0
    6.5060   -3.6222    0.0000 C   0  0  0  0  0  0  0  0  0  0  0  0
    7.2205   -4.0347    0.0000 C   0  0  0  0  0  0  0  0  0  0  0  0
    7.2205   -4.8597    0.0000 C   0  0  2  0  0  0  0  0  0  0  0  0
    8.0330   -4.7164    0.0000 O   0  0  0  0  0  0  0  0  0  0  0  0
    7.5027   -5.6349    0.0000 C   0  0  0  0  0  0  0  0  0  0  0  0
    8.3151   -5.7782    0.0000 C   0  0  0  0  0  0  0  0  0  0  0  0
    8.5973   -6.5534    0.0000 C   0  0  0  0  0  0  0  0  0  0  0  0
    8.0670   -7.1854    0.0000 C   0  0  0  0  0  0  0  0  0  0  0  0
    8.3492   -7.9607    0.0000 Cl  0  0  0  0  0  0  0  0  0  0  0  0
    7.2545   -7.0422    0.0000 C   0  0  0  0  0  0  0  0  0  0  0  0
    6.9724   -6.2669    0.0000 C   0  0  0  0  0  0  0  0  0  0  0  0
    6.5060   -5.2722    0.0000 C   0  0  0  0  0  0  0  0  0  0  0  0
    7.0363   -5.9042    0.0000 C   0  0  0  0  0  0  0  0  0  0  0  0
    5.9757   -5.9042    0.0000 C   0  0  0  0  0  0  0  0  0  0  0  0
    5.7915   -4.8597    0.0000 C   0  0  0  0  0  0  0  0  0  0  0  0
  1  2  1  0  0  0  0
  2  3  1  0  0  0  0
  4  2  1  0  0  0  0
  4  5  1  1  0  0  0
  5  6  1  0  0  0  0
  6  7  2  0  0  0  0
  6  8  1  0  0  0  0
  8  9  1  0  0  0  0
  9 10  1  0  0  0  0
 10 11  1  0  0  0  0
 10 12  1  0  0  0  0
 10 13  1  0  0  0  0
  4 14  1  0  0  0  0
 14 15  2  0  0  0  0
 14 16  1  0  0  0  0
 16 17  1  0  0  0  0
 17 18  1  0  0  0  0
 19 18  1  0  0  0  0
 19 20  1  1  0  0  0
 19 21  1  6  0  0  0
 21 22  2  0  0  0  0
 22 23  1  0  0  0  0
 23 24  2  0  0  0  0
 24 25  1  0  0  0  0
 24 26  1  0  0  0  0
 26 27  2  0  0  0  0
 21 27  1  0  0  0  0
 19 28  1  0  0  0  0
 28 29  1  0  0  0  0
 28 30  1  0  0  0  0
 28 31  1  0  0  0  0
 16 31  1  0  0  0  0
M  END
> <DATABASE_ID>
DB14941

> <DATABASE_NAME>
drugbank

> <SMILES>
CC(C)[C@@H](NC(=O)NCC(C)(C)O)C(=O)N1CC[C@](O)(C2=CC=C(Cl)C=C2)C(C)(C)C1

> <INCHI_IDENTIFIER>
InChI=1S/C23H36ClN3O4/c1-15(2)18(26-20(29)25-13-22(5,6)30)19(28)27-12-11-23(31,21(3,4)14-27)16-7-9-17(24)10-8-16/h7-10,15,18,30-31H,11-14H2,1-6H3,(H2,25,26,29)/t18-,23+/m1/s1

> <INCHI_KEY>
GTDPZONCGOCXOD-JPYJTQIMSA-N

> <FORMULA>
C23H36ClN3O4

> <MOLECULAR_WEIGHT>
454.01

> <EXACT_MASS>
453.2394344

> <JCHEM_ACCEPTOR_COUNT>
4

> <JCHEM_ATOM_COUNT>
67

> <JCHEM_AVERAGE_POLARIZABILITY>
49.508484036969705

> <JCHEM_BIOAVAILABILITY>
1

> <JCHEM_DONOR_COUNT>
4

> <JCHEM_FORMAL_CHARGE>
0

> <JCHEM_GHOSE_FILTER>
1

> <JCHEM_IUPAC>
1-[(2R)-1-[(4S)-4-(4-chlorophenyl)-4-hydroxy-3,3-dimethylpiperidin-1-yl]-3-methyl-1-oxobutan-2-yl]-3-(2-hydroxy-2-methylpropyl)urea

> <ALOGPS_LOGP>
2.56

> <JCHEM_LOGP>
2.2072414826666655

> <ALOGPS_LOGS>
-3.55

> <JCHEM_MDDR_LIKE_RULE>
0

> <JCHEM_NUMBER_OF_RINGS>
2

> <JCHEM_PHYSIOLOGICAL_CHARGE>
0

> <JCHEM_PKA>
14.664813611113646

> <JCHEM_PKA_STRONGEST_ACIDIC>
13.570716949533043

> <JCHEM_PKA_STRONGEST_BASIC>
-1.0926228383316816

> <JCHEM_POLAR_SURFACE_AREA>
101.9

> <JCHEM_REFRACTIVITY>
121.2656

> <JCHEM_ROTATABLE_BOND_COUNT>
6

> <JCHEM_RULE_OF_FIVE>
1

> <ALOGPS_SOLUBILITY>
1.28e-01 g/l

> <JCHEM_TRADITIONAL_IUPAC>
(2R)-14-fluoro-2-methyl-6,9,10,19-tetraazapentacyclo[14.2.1.0^{2,6}.0^{8,18}.0^{12,17}]nonadeca-1(18),8,12(17),13,15-pentaen-11-one

> <JCHEM_VEBER_RULE>
0

> <DRUGBANK_ID>
DB14941

> <DRUG_GROUPS>
investigational

> <GENERIC_NAME>
BMS-817399

$$$$
