
  Mrv1909 09162223172D          

 28 31  0  0  0  0            999 V2000
    4.1027   -0.6055    0.0000 O   0  0  0  0  0  0  0  0  0  0  0  0
    3.5724   -1.2375    0.0000 C   0  0  0  0  0  0  0  0  0  0  0  0
    3.0421   -0.6055    0.0000 C   0  0  0  0  0  0  0  0  0  0  0  0
    3.3242    0.1697    0.0000 C   0  0  0  0  0  0  0  0  0  0  0  0
    2.7939    0.8017    0.0000 C   0  0  0  0  0  0  0  0  0  0  0  0
    3.0761    1.5770    0.0000 C   0  0  0  0  0  0  0  0  0  0  0  0
    3.8886    1.7202    0.0000 C   0  0  0  0  0  0  0  0  0  0  0  0
    4.4189    1.0882    0.0000 C   0  0  0  0  0  0  0  0  0  0  0  0
    4.1367    0.3130    0.0000 C   0  0  0  0  0  0  0  0  0  0  0  0
    4.2868   -1.6500    0.0000 C   0  0  0  0  0  0  0  0  0  0  0  0
    4.2868   -2.4750    0.0000 C   0  0  0  0  0  0  0  0  0  0  0  0
    3.5724   -2.8875    0.0000 N   0  0  0  0  0  0  0  0  0  0  0  0
    2.8579   -2.4750    0.0000 C   0  0  0  0  0  0  0  0  0  0  0  0
    2.8579   -1.6500    0.0000 C   0  0  0  0  0  0  0  0  0  0  0  0
    3.5724   -3.7125    0.0000 C   0  0  0  0  0  0  0  0  0  0  0  0
    2.8579   -4.1250    0.0000 O   0  0  0  0  0  0  0  0  0  0  0  0
    4.2868   -4.1250    0.0000 C   0  0  0  0  0  0  0  0  0  0  0  0
    5.0013   -3.7125    0.0000 C   0  0  0  0  0  0  0  0  0  0  0  0
    5.7158   -4.1250    0.0000 C   0  0  0  0  0  0  0  0  0  0  0  0
    5.7158   -4.9500    0.0000 C   0  0  0  0  0  0  0  0  0  0  0  0
    5.0013   -5.3625    0.0000 N   0  0  0  0  0  0  0  0  0  0  0  0
    4.2868   -4.9500    0.0000 C   0  0  0  0  0  0  0  0  0  0  0  0
    3.5724   -5.3625    0.0000 C   0  0  0  0  0  0  0  0  0  0  0  0
    3.5724   -6.1875    0.0000 C   0  0  0  0  0  0  0  0  0  0  0  0
    2.8579   -6.6000    0.0000 C   0  0  0  0  0  0  0  0  0  0  0  0
    2.1434   -6.1875    0.0000 N   0  0  0  0  0  0  0  0  0  0  0  0
    2.1434   -5.3625    0.0000 C   0  0  0  0  0  0  0  0  0  0  0  0
    2.8579   -4.9500    0.0000 C   0  0  0  0  0  0  0  0  0  0  0  0
  1  2  1  0  0  0  0
  2  3  1  0  0  0  0
  3  4  1  0  0  0  0
  4  5  2  0  0  0  0
  5  6  1  0  0  0  0
  6  7  2  0  0  0  0
  7  8  1  0  0  0  0
  8  9  2  0  0  0  0
  4  9  1  0  0  0  0
  2 10  1  0  0  0  0
 10 11  1  0  0  0  0
 11 12  1  0  0  0  0
 12 13  1  0  0  0  0
 13 14  1  0  0  0  0
  2 14  1  0  0  0  0
 12 15  1  0  0  0  0
 15 16  2  0  0  0  0
 15 17  1  0  0  0  0
 17 18  2  0  0  0  0
 18 19  1  0  0  0  0
 19 20  2  0  0  0  0
 20 21  1  0  0  0  0
 21 22  2  0  0  0  0
 17 22  1  0  0  0  0
 22 23  1  0  0  0  0
 23 24  2  0  0  0  0
 24 25  1  0  0  0  0
 25 26  2  0  0  0  0
 26 27  1  0  0  0  0
 27 28  2  0  0  0  0
 23 28  1  0  0  0  0
M  END
> <DATABASE_ID>
DB16987

> <DATABASE_NAME>
drugbank

> <SMILES>
OC1(CC2=CC=CC=C2)CCN(CC1)C(=O)C1=CC=CN=C1C1=CC=NC=C1

> <INCHI_IDENTIFIER>
InChI=1S/C23H23N3O2/c27-22(20-7-4-12-25-21(20)19-8-13-24-14-9-19)26-15-10-23(28,11-16-26)17-18-5-2-1-3-6-18/h1-9,12-14,28H,10-11,15-17H2

> <INCHI_KEY>
XKUZMIUSBMCVPP-UHFFFAOYSA-N

> <FORMULA>
C23H23N3O2

> <MOLECULAR_WEIGHT>
373.456

> <EXACT_MASS>
373.179026993

> <JCHEM_ACCEPTOR_COUNT>
4

> <JCHEM_ATOM_COUNT>
51

> <JCHEM_AVERAGE_NEUTRAL_MICROSPECIES_CHARGE>
0.0008261691988761433

> <JCHEM_AVERAGE_POLARIZABILITY>
40.61937082611671

> <JCHEM_BIOAVAILABILITY>
1

> <JCHEM_DONOR_COUNT>
1

> <JCHEM_FORMAL_CHARGE>
0

> <JCHEM_GHOSE_FILTER>
1

> <JCHEM_IUPAC>
4-benzyl-1-{[2,4'-bipyridine]-3-carbonyl}piperidin-4-ol

> <ALOGPS_LOGP>
2.11

> <JCHEM_LOGP>
2.123931704000001

> <ALOGPS_LOGS>
-3.72

> <JCHEM_MDDR_LIKE_RULE>
0

> <JCHEM_NEUTRAL_CHARGE>
0

> <JCHEM_NUMBER_OF_RINGS>
4

> <JCHEM_PHYSIOLOGICAL_CHARGE>
0

> <JCHEM_PKA_STRONGEST_ACIDIC>
14.581625809129068

> <JCHEM_PKA_STRONGEST_BASIC>
3.9117576673867624

> <JCHEM_POLAR_SURFACE_AREA>
66.32

> <JCHEM_REFRACTIVITY>
108.3617

> <JCHEM_ROTATABLE_BOND_COUNT>
4

> <JCHEM_RULE_OF_FIVE>
1

> <ALOGPS_SOLUBILITY>
7.10e-02 g/l

> <JCHEM_TRADITIONAL_IUPAC>
6-cyclopropaneamido-N-[hydroxy(2H2)methyl]-4-{[2-methoxy-3-(1-methyl-1,2,4-triazol-3-yl)phenyl]amino}pyridazine-3-carboxamide

> <JCHEM_VEBER_RULE>
0

> <DRUGBANK_ID>
DB16987

> <DRUG_GROUPS>
investigational

> <GENERIC_NAME>
Soticlestat

$$$$
