
  Mrv1718007091813482D          

  9  7  0  0  0  0            999 V2000
    0.0000    0.2062    0.0000 C   0  0  0  0  0  0  0  0  0  0  0  0
   -0.7145   -0.2062    0.0000 C   0  0  0  0  0  0  0  0  0  0  0  0
    0.7145   -0.2062    0.0000 C   0  0  0  0  0  0  0  0  0  0  0  0
   -1.4290    0.2062    0.0000 C   0  0  0  0  0  0  0  0  0  0  0  0
    0.7145   -1.0313    0.0000 O   0  0  0  0  0  0  0  0  0  0  0  0
    1.4290    0.2062    0.0000 O   0  5  0  0  0  0  0  0  0  0  0  0
   -2.1436   -0.2062    0.0000 O   0  0  0  0  0  0  0  0  0  0  0  0
   -1.4290    1.0313    0.0000 O   0  5  0  0  0  0  0  0  0  0  0  0
    2.1436    0.6188    0.0000 Fe  0  2  0  0  0  0  0  0  0  0  0  0
  2  1  1  0  0  0  0
  3  1  1  0  0  0  0
  4  2  1  0  0  0  0
  5  3  2  0  0  0  0
  6  3  1  0  0  0  0
  7  4  2  0  0  0  0
  8  4  1  0  0  0  0
M  CHG  3   6  -1   8  -1   9   2
M  END
> <DATABASE_ID>
DB14489

> <DATABASE_NAME>
drugbank

> <SMILES>
[Fe++].[O-]C(=O)CCC([O-])=O

> <INCHI_IDENTIFIER>
InChI=1S/C4H6O4.Fe/c5-3(6)1-2-4(7)8;/h1-2H2,(H,5,6)(H,7,8);/q;+2/p-2

> <INCHI_KEY>
MDXRFOWKIZPNTA-UHFFFAOYSA-L

> <FORMULA>
C4H4FeO4

> <MOLECULAR_WEIGHT>
171.917

> <EXACT_MASS>
171.945895

> <JCHEM_ACCEPTOR_COUNT>
4

> <JCHEM_ATOM_COUNT>
13

> <JCHEM_AVERAGE_POLARIZABILITY>
9.327695991588044

> <JCHEM_BIOAVAILABILITY>
1

> <JCHEM_DONOR_COUNT>
0

> <JCHEM_FORMAL_CHARGE>
0

> <JCHEM_GHOSE_FILTER>
0

> <JCHEM_IUPAC>
lambda2-iron(2+) butanedioate

> <ALOGPS_LOGP>
0.53

> <JCHEM_LOGP>
-0.3984829673333332

> <ALOGPS_LOGS>
-0.85

> <JCHEM_MDDR_LIKE_RULE>
0

> <JCHEM_NUMBER_OF_RINGS>
0

> <JCHEM_PHYSIOLOGICAL_CHARGE>
-2

> <JCHEM_PKA>
5.6869121792916

> <JCHEM_PKA_STRONGEST_ACIDIC>
3.5541665109763474

> <JCHEM_POLAR_SURFACE_AREA>
80.25999999999999

> <JCHEM_REFRACTIVITY>
45.211200000000005

> <JCHEM_ROTATABLE_BOND_COUNT>
3

> <JCHEM_RULE_OF_FIVE>
1

> <ALOGPS_SOLUBILITY>
3.18e+01 g/l

> <JCHEM_TRADITIONAL_IUPAC>
lambda2-iron(2+) succinate

> <JCHEM_VEBER_RULE>
0

> <DRUGBANK_ID>
DB14489

> <SECONDARY_ACCESSION_NUMBERS>
DBSALT000083

> <DRUG_GROUPS>
approved

> <GENERIC_NAME>
Ferrous succinate

> <SYNONYMS>
Iron succinate

$$$$
