
  Mrv1909 09092015542D          

 21 18  0  0  0  0            999 V2000
   -2.7225   -2.2232    0.0000 Mg  0  2  0  0  0  0  0  0  0  0  0  0
    2.2544    1.0693    0.0000 C   0  0  0  0  0  0  0  0  0  0  0  0
    3.0797    1.0693    0.0000 O   0  0  0  0  0  0  0  0  0  0  0  0
    1.8395    1.7868    0.0000 O   0  5  0  0  0  0  0  0  0  0  0  0
    1.8395    0.3564    0.0000 C   0  0  0  0  0  0  0  0  0  0  0  0
    1.0142    0.3564    0.0000 C   0  0  0  0  0  0  0  0  0  0  0  0
    0.6036   -0.3563    0.0000 C   0  0  0  0  0  0  0  0  0  0  0  0
    1.0142   -1.0739    0.0000 O   0  0  0  0  0  0  0  0  0  0  0  0
   -0.2216   -0.3563    0.0000 O   0  0  0  0  0  0  0  0  0  0  0  0
   -0.6365   -1.0739    0.0000 C   0  0  0  0  0  0  0  0  0  0  0  0
   -0.2216   -1.7868    0.0000 C   0  0  0  0  0  0  0  0  0  0  0  0
    3.5048   -1.8110    0.0000 C   0  0  0  0  0  0  0  0  0  0  0  0
    4.3301   -1.8110    0.0000 O   0  0  0  0  0  0  0  0  0  0  0  0
    3.0899   -1.0935    0.0000 O   0  5  0  0  0  0  0  0  0  0  0  0
    3.0899   -2.5240    0.0000 C   0  0  0  0  0  0  0  0  0  0  0  0
    2.2646   -2.5240    0.0000 C   0  0  0  0  0  0  0  0  0  0  0  0
    1.8541   -3.2367    0.0000 C   0  0  0  0  0  0  0  0  0  0  0  0
    2.2646   -3.9543    0.0000 O   0  0  0  0  0  0  0  0  0  0  0  0
    1.0288   -3.2367    0.0000 O   0  0  0  0  0  0  0  0  0  0  0  0
    0.6138   -3.9543    0.0000 C   0  0  0  0  0  0  0  0  0  0  0  0
    1.0288   -4.6674    0.0000 C   0  0  0  0  0  0  0  0  0  0  0  0
  2  3  2  0  0  0  0
  2  4  1  0  0  0  0
  2  5  1  0  0  0  0
  5  6  2  0  0  0  0
  6  7  1  0  0  0  0
  7  8  2  0  0  0  0
  7  9  1  0  0  0  0
  9 10  1  0  0  0  0
 10 11  1  0  0  0  0
 12 13  2  0  0  0  0
 12 14  1  0  0  0  0
 12 15  1  0  0  0  0
 15 16  2  0  0  0  0
 16 17  1  0  0  0  0
 17 18  2  0  0  0  0
 17 19  1  0  0  0  0
 19 20  1  0  0  0  0
 20 21  1  0  0  0  0
M  CHG  3   1   2   4  -1  14  -1
M  END
> <DATABASE_ID>
DB15817

> <DATABASE_NAME>
drugbank

> <SMILES>
[Mg++].CCOC(=O)\C=C\C([O-])=O.CCOC(=O)\C=C\C([O-])=O

> <INCHI_IDENTIFIER>
InChI=1S/2C6H8O4.Mg/c2*1-2-10-6(9)4-3-5(7)8;/h2*3-4H,2H2,1H3,(H,7,8);/q;;+2/p-2/b2*4-3+;

> <INCHI_KEY>
ZHLRSUSHKGQBNV-SYWGCQIGSA-L

> <FORMULA>
C12H14MgO8

> <MOLECULAR_WEIGHT>
310.541

> <EXACT_MASS>
310.05390911

> <JCHEM_ACCEPTOR_COUNT>
3

> <JCHEM_ATOM_COUNT>
35

> <JCHEM_AVERAGE_NEUTRAL_MICROSPECIES_CHARGE>
-0.9998065306857876

> <JCHEM_AVERAGE_POLARIZABILITY>
13.127453659601215

> <JCHEM_BIOAVAILABILITY>
1

> <JCHEM_DONOR_COUNT>
0

> <JCHEM_FORMAL_CHARGE>
0

> <JCHEM_GHOSE_FILTER>
1

> <JCHEM_IUPAC>
magnesium(2+) bis((2E)-4-ethoxy-4-oxobut-2-enoate)

> <ALOGPS_LOGP>
1.94

> <JCHEM_LOGP>
0.6951210126666666

> <ALOGPS_LOGS>
-3.56

> <JCHEM_MDDR_LIKE_RULE>
0

> <JCHEM_NEUTRAL_CHARGE>
-1

> <JCHEM_NUMBER_OF_RINGS>
0

> <JCHEM_PHYSIOLOGICAL_CHARGE>
-1

> <JCHEM_PKA_STRONGEST_ACIDIC>
3.2866961231324323

> <JCHEM_PKA_STRONGEST_BASIC>
-6.834751266518598

> <JCHEM_POLAR_SURFACE_AREA>
66.42999999999999

> <JCHEM_REFRACTIVITY>
44.961800000000004

> <JCHEM_ROTATABLE_BOND_COUNT>
8

> <JCHEM_RULE_OF_FIVE>
1

> <ALOGPS_SOLUBILITY>
8.48e-02 g/l

> <JCHEM_TRADITIONAL_IUPAC>
unii-71TH42O2CQ

> <JCHEM_VEBER_RULE>
0

> <DRUGBANK_ID>
DB15817

> <DRUG_GROUPS>
experimental

> <GENERIC_NAME>
Magnesium monoethylfumarate

> <SYNONYMS>
Magnesium diethyl difumarate; Magnesium monoethyl fumarate

$$$$
