
  Mrv1909 04122120092D          

 21 23  0  0  0  0            999 V2000
   -2.8578    0.0000    0.0000 C   0  0  0  0  0  0  0  0  0  0  0  0
   -2.1434   -0.4125    0.0000 C   0  0  0  0  0  0  0  0  0  0  0  0
   -2.8578    0.8250    0.0000 C   0  0  0  0  0  0  0  0  0  0  0  0
   -2.8578    3.3000    0.0000 C   0  0  0  0  0  0  0  0  0  0  0  0
   -3.5722    2.0625    0.0000 C   0  0  0  0  0  0  0  0  0  0  0  0
   -0.7144    2.0625    0.0000 C   0  0  0  0  0  0  0  0  0  0  0  0
   -1.4289    3.3000    0.0000 C   0  0  0  0  0  0  0  0  0  0  0  0
   -3.5722    3.7125    0.0000 C   0  0  0  0  0  0  0  0  0  0  0  0
   -4.2868    2.4749    0.0000 C   0  0  0  0  0  0  0  0  0  0  0  0
    0.0000    2.4749    0.0000 C   0  0  0  0  0  0  0  0  0  0  0  0
   -0.7144    3.7125    0.0000 C   0  0  0  0  0  0  0  0  0  0  0  0
   -1.4289    0.0000    0.0000 C   0  0  0  0  0  0  0  0  0  0  0  0
   -2.8578    2.4749    0.0000 C   0  0  0  0  0  0  0  0  0  0  0  0
   -1.4289    2.4749    0.0000 C   0  0  0  0  0  0  0  0  0  0  0  0
   -4.2868    3.3000    0.0000 C   0  0  0  0  0  0  0  0  0  0  0  0
    0.0000    3.3000    0.0000 C   0  0  0  0  0  0  0  0  0  0  0  0
   -2.1434    1.2374    0.0000 C   0  0  0  0  0  0  0  0  0  0  0  0
   -2.1434    2.0625    0.0000 C   0  0  0  0  0  0  0  0  0  0  0  0
   -1.4289    0.8250    0.0000 N   0  0  0  0  0  0  0  0  0  0  0  0
   -5.0012    3.7125    0.0000 O   0  0  0  0  0  0  0  0  0  0  0  0
    0.7144    3.7125    0.0000 O   0  0  0  0  0  0  0  0  0  0  0  0
  2  1  2  0  0  0  0
  3  1  1  0  0  0  0
  8  4  1  0  0  0  0
  9  5  2  0  0  0  0
 10  6  1  0  0  0  0
 11  7  2  0  0  0  0
 12  2  1  0  0  0  0
 13  4  2  0  0  0  0
 13  5  1  0  0  0  0
 14  6  2  0  0  0  0
 14  7  1  0  0  0  0
 15  8  2  0  0  0  0
 15  9  1  0  0  0  0
 16 10  2  0  0  0  0
 16 11  1  0  0  0  0
 17  3  2  0  0  0  0
 18 13  1  0  0  0  0
 18 14  1  0  0  0  0
 18 17  1  0  0  0  0
 19 12  2  0  0  0  0
 19 17  1  0  0  0  0
 20 15  1  0  0  0  0
 21 16  1  0  0  0  0
M  END
> <DATABASE_ID>
DB14232

> <DATABASE_NAME>
drugbank

> <SMILES>
OC1=CC=C(C=C1)C(C1=CC=C(O)C=C1)C1=CC=CC=N1

> <INCHI_IDENTIFIER>
InChI=1S/C18H15NO2/c20-15-8-4-13(5-9-15)18(17-3-1-2-12-19-17)14-6-10-16(21)11-7-14/h1-12,18,20-21H

> <INCHI_KEY>
LJROKJGQSPMTKB-UHFFFAOYSA-N

> <FORMULA>
C18H15NO2

> <MOLECULAR_WEIGHT>
277.323

> <EXACT_MASS>
277.110278727

> <JCHEM_ACCEPTOR_COUNT>
3

> <JCHEM_ATOM_COUNT>
36

> <JCHEM_AVERAGE_NEUTRAL_MICROSPECIES_CHARGE>
0.9999183570648688

> <JCHEM_AVERAGE_POLARIZABILITY>
29.86484863416162

> <JCHEM_BIOAVAILABILITY>
1

> <JCHEM_DONOR_COUNT>
2

> <JCHEM_FORMAL_CHARGE>
0

> <JCHEM_GHOSE_FILTER>
1

> <JCHEM_IUPAC>
4-[(4-hydroxyphenyl)(pyridin-2-yl)methyl]phenol

> <ALOGPS_LOGP>
3.36

> <JCHEM_LOGP>
3.790942985333333

> <ALOGPS_LOGS>
-3.63

> <JCHEM_MDDR_LIKE_RULE>
0

> <JCHEM_NEUTRAL_CHARGE>
0

> <JCHEM_NUMBER_OF_RINGS>
3

> <JCHEM_PHYSIOLOGICAL_CHARGE>
0

> <JCHEM_PKA>
10.175956553848788

> <JCHEM_PKA_STRONGEST_ACIDIC>
9.565868294779017

> <JCHEM_PKA_STRONGEST_BASIC>
4.088048087001041

> <JCHEM_POLAR_SURFACE_AREA>
53.35000000000001

> <JCHEM_REFRACTIVITY>
81.84580000000001

> <JCHEM_ROTATABLE_BOND_COUNT>
3

> <JCHEM_RULE_OF_FIVE>
1

> <ALOGPS_SOLUBILITY>
6.57e-02 g/l

> <JCHEM_TRADITIONAL_IUPAC>
deacetylbisacodyl

> <JCHEM_VEBER_RULE>
0

> <DRUGBANK_ID>
DB14232

> <DRUG_GROUPS>
experimental

> <GENERIC_NAME>
Deacetylbisacodyl

> <SYNONYMS>
BHPM; DDPM; Dihydroxydiphenyl-pyridyl methane

$$$$
