
  Mrv1533004241521192D          

 16 16  0  0  0  0            999 V2000
    2.1434    3.7125    0.0000 C   0  0  0  0  0  0  0  0  0  0  0  0
    1.4289    3.3000    0.0000 N   0  0  0  0  0  0  0  0  0  0  0  0
    1.4289    2.4750    0.0000 C   0  0  0  0  0  0  0  0  0  0  0  0
    0.7145    2.0625    0.0000 C   0  0  0  0  0  0  0  0  0  0  0  0
    0.7145    1.2375    0.0000 C   0  0  0  0  0  0  0  0  0  0  0  0
    1.4289    0.8250    0.0000 C   0  0  0  0  0  0  0  0  0  0  0  0
    1.4289   -0.0000    0.0000 C   0  0  0  0  0  0  0  0  0  0  0  0
    0.7145   -0.4125    0.0000 C   0  0  0  0  0  0  0  0  0  0  0  0
    0.0000    0.0000    0.0000 C   0  0  0  0  0  0  0  0  0  0  0  0
    0.0000    0.8250    0.0000 C   0  0  0  0  0  0  0  0  0  0  0  0
   -0.7145   -0.4125    0.0000 O   0  0  0  0  0  0  0  0  0  0  0  0
   -0.7145   -1.2375    0.0000 C   0  0  0  0  0  0  0  0  0  0  0  0
    0.7145   -1.2375    0.0000 O   0  0  0  0  0  0  0  0  0  0  0  0
    2.1434   -0.4125    0.0000 O   0  0  0  0  0  0  0  0  0  0  0  0
    2.1434   -1.2375    0.0000 C   0  0  0  0  0  0  0  0  0  0  0  0
    0.0000    2.4750    0.0000 O   0  0  0  0  0  0  0  0  0  0  0  0
  1  2  1  0  0  0  0
  2  3  1  0  0  0  0
  3  4  1  0  0  0  0
  4  5  1  0  0  0  0
  5  6  2  0  0  0  0
  6  7  1  0  0  0  0
  7  8  2  0  0  0  0
  8  9  1  0  0  0  0
  9 10  2  0  0  0  0
  5 10  1  0  0  0  0
  9 11  1  0  0  0  0
 11 12  1  0  0  0  0
  8 13  1  0  0  0  0
  7 14  1  0  0  0  0
 14 15  1  0  0  0  0
  4 16  1  0  0  0  0
M  END
> <DATABASE_ID>
DB13494

> <DATABASE_NAME>
drugbank

> <SMILES>
CNCC(O)C1=CC(OC)=C(O)C(OC)=C1

> <INCHI_IDENTIFIER>
InChI=1S/C11H17NO4/c1-12-6-8(13)7-4-9(15-2)11(14)10(5-7)16-3/h4-5,8,12-14H,6H2,1-3H3

> <INCHI_KEY>
ZKGDBJAHIIXDDW-UHFFFAOYSA-N

> <FORMULA>
C11H17NO4

> <MOLECULAR_WEIGHT>
227.26

> <EXACT_MASS>
227.115758031

> <JCHEM_ACCEPTOR_COUNT>
5

> <JCHEM_ATOM_COUNT>
33

> <JCHEM_AVERAGE_POLARIZABILITY>
23.84127240625148

> <JCHEM_BIOAVAILABILITY>
1

> <JCHEM_DONOR_COUNT>
3

> <JCHEM_FORMAL_CHARGE>
0

> <JCHEM_GHOSE_FILTER>
1

> <JCHEM_IUPAC>
4-[1-hydroxy-2-(methylamino)ethyl]-2,6-dimethoxyphenol

> <ALOGPS_LOGP>
-0.38

> <JCHEM_LOGP>
-0.3787974977205842

> <ALOGPS_LOGS>
-1.33

> <JCHEM_MDDR_LIKE_RULE>
0

> <JCHEM_NUMBER_OF_RINGS>
1

> <JCHEM_PHYSIOLOGICAL_CHARGE>
1

> <JCHEM_PKA>
14.152817313370662

> <JCHEM_PKA_STRONGEST_ACIDIC>
8.97024569246025

> <JCHEM_PKA_STRONGEST_BASIC>
9.682179366600565

> <JCHEM_POLAR_SURFACE_AREA>
70.95

> <JCHEM_REFRACTIVITY>
60.17580000000001

> <JCHEM_ROTATABLE_BOND_COUNT>
5

> <JCHEM_RULE_OF_FIVE>
1

> <ALOGPS_SOLUBILITY>
1.07e+01 g/l

> <JCHEM_TRADITIONAL_IUPAC>
dimetofrine

> <JCHEM_VEBER_RULE>
0

> <DRUGBANK_ID>
DB13494

> <DRUG_GROUPS>
experimental

> <GENERIC_NAME>
Dimetofrine

> <SYNONYMS>
Dimetofrine

$$$$
