
  Mrv1718009011814382D          

 33 36  0  0  1  0            999 V2000
    4.1374   -1.1429    0.0000 C   0  0  0  0  0  0  0  0  0  0  0  0
    3.5243   -1.6949    0.0000 C   0  0  2  0  0  0  0  0  0  0  0  0
    3.2693   -0.9103    0.0000 C   0  0  0  0  0  0  0  0  0  0  0  0
    2.4624   -0.7388    0.0000 C   0  0  0  0  0  0  0  0  0  0  0  0
    1.9103   -1.3519    0.0000 C   0  0  1  0  0  0  0  0  0  0  0  0
    2.1653   -2.1365    0.0000 C   0  0  2  0  0  0  0  0  0  0  0  0
    2.9722   -2.3080    0.0000 C   0  0  2  0  0  0  0  0  0  0  0  0
    3.3847   -3.0225    0.0000 C   0  0  0  0  0  0  0  0  0  0  0  0
    4.1917   -2.8510    0.0000 C   0  0  0  0  0  0  0  0  0  0  0  0
    4.2780   -2.0305    0.0000 C   0  0  2  0  0  0  0  0  0  0  0  0
    4.9924   -1.6180    0.0000 O   0  0  0  0  0  0  0  0  0  0  0  0
    5.7069   -2.0305    0.0000 C   0  0  0  0  0  0  0  0  0  0  0  0
    5.7069   -2.8555    0.0000 O   0  0  0  0  0  0  0  0  0  0  0  0
    6.4214   -1.6180    0.0000 C   0  0  0  0  0  0  0  0  0  0  0  0
    7.1358   -2.0305    0.0000 C   0  0  0  0  0  0  0  0  0  0  0  0
    7.8503   -1.6180    0.0000 C   0  0  0  0  0  0  0  0  0  0  0  0
    8.5648   -2.0305    0.0000 C   0  0  0  0  0  0  0  0  0  0  0  0
    9.2792   -1.6180    0.0000 C   0  0  0  0  0  0  0  0  0  0  0  0
    9.9937   -2.0305    0.0000 C   0  0  0  0  0  0  0  0  0  0  0  0
   10.7082   -1.6180    0.0000 C   0  0  0  0  0  0  0  0  0  0  0  0
   11.4227   -2.0305    0.0000 C   0  0  0  0  0  0  0  0  0  0  0  0
   12.1371   -1.6180    0.0000 C   0  0  0  0  0  0  0  0  0  0  0  0
   12.8516   -2.0305    0.0000 C   0  0  0  0  0  0  0  0  0  0  0  0
    1.6132   -2.7496    0.0000 C   0  0  0  0  0  0  0  0  0  0  0  0
    0.8063   -2.5781    0.0000 C   0  0  0  0  0  0  0  0  0  0  0  0
    0.5513   -1.7935    0.0000 C   0  0  0  0  0  0  0  0  0  0  0  0
   -0.2556   -1.6219    0.0000 C   0  0  0  0  0  0  0  0  0  0  0  0
   -0.5106   -0.8373    0.0000 C   0  0  0  0  0  0  0  0  0  0  0  0
   -1.3176   -0.6658    0.0000 O   0  0  0  0  0  0  0  0  0  0  0  0
    0.0414   -0.2242    0.0000 C   0  0  0  0  0  0  0  0  0  0  0  0
    0.8484   -0.3957    0.0000 C   0  0  0  0  0  0  0  0  0  0  0  0
    1.1034   -1.1804    0.0000 C   0  0  2  0  0  0  0  0  0  0  0  0
    1.6554   -0.5673    0.0000 C   0  0  0  0  0  0  0  0  0  0  0  0
  2  1  1  1  0  0  0
  2  3  1  0  0  0  0
  3  4  1  0  0  0  0
  5  4  1  1  0  0  0
  5  6  1  0  0  0  0
  6  7  1  0  0  0  0
  2  7  1  0  0  0  0
  7  8  1  1  0  0  0
  8  9  1  0  0  0  0
  9 10  1  0  0  0  0
  2 10  1  0  0  0  0
 10 11  1  1  0  0  0
 11 12  1  0  0  0  0
 12 13  2  0  0  0  0
 12 14  1  0  0  0  0
 14 15  1  0  0  0  0
 15 16  1  0  0  0  0
 16 17  1  0  0  0  0
 17 18  1  0  0  0  0
 18 19  1  0  0  0  0
 19 20  1  0  0  0  0
 20 21  1  0  0  0  0
 21 22  1  0  0  0  0
 22 23  2  0  0  0  0
  6 24  1  6  0  0  0
 24 25  1  0  0  0  0
 25 26  1  0  0  0  0
 26 27  2  0  0  0  0
 27 28  1  0  0  0  0
 28 29  2  0  0  0  0
 28 30  1  0  0  0  0
 30 31  2  0  0  0  0
 31 32  1  0  0  0  0
  5 32  1  0  0  0  0
 26 32  1  0  0  0  0
 32 33  1  1  0  0  0
M  END
> <DATABASE_ID>
DB14639

> <DATABASE_NAME>
drugbank

> <SMILES>
C[C@]12CC[C@H]3[C@@H](CCC4=CC(=O)C=C[C@]34C)[C@@H]1CC[C@@H]2OC(=O)CCCCCCCCC=C

> <INCHI_IDENTIFIER>
InChI=1S/C30H44O3/c1-4-5-6-7-8-9-10-11-12-28(32)33-27-16-15-25-24-14-13-22-21-23(31)17-19-29(22,2)26(24)18-20-30(25,27)3/h4,17,19,21,24-27H,1,5-16,18,20H2,2-3H3/t24-,25-,26-,27-,29-,30-/m0/s1

> <INCHI_KEY>
AHMMSNQYOPMLSX-CNQKSJKFSA-N

> <FORMULA>
C30H44O3

> <MOLECULAR_WEIGHT>
452.679

> <EXACT_MASS>
452.329045277

> <JCHEM_ACCEPTOR_COUNT>
2

> <JCHEM_ATOM_COUNT>
77

> <JCHEM_AVERAGE_POLARIZABILITY>
56.18390771496334

> <JCHEM_BIOAVAILABILITY>
0

> <JCHEM_DONOR_COUNT>
0

> <JCHEM_FORMAL_CHARGE>
0

> <JCHEM_GHOSE_FILTER>
0

> <JCHEM_IUPAC>
(1S,3aS,3bR,9aR,9bS,11aS)-9a,11a-dimethyl-7-oxo-1H,2H,3H,3aH,3bH,4H,5H,7H,9aH,9bH,10H,11H,11aH-cyclopenta[a]phenanthren-1-yl undec-10-enoate

> <ALOGPS_LOGP>
6.27

> <JCHEM_LOGP>
7.757469378333335

> <ALOGPS_LOGS>
-6.91

> <JCHEM_MDDR_LIKE_RULE>
1

> <JCHEM_NUMBER_OF_RINGS>
4

> <JCHEM_PHYSIOLOGICAL_CHARGE>
0

> <JCHEM_PKA_STRONGEST_ACIDIC>
18.388155727462305

> <JCHEM_PKA_STRONGEST_BASIC>
-4.998216197053543

> <JCHEM_POLAR_SURFACE_AREA>
43.370000000000005

> <JCHEM_REFRACTIVITY>
136.15359999999998

> <JCHEM_ROTATABLE_BOND_COUNT>
11

> <JCHEM_RULE_OF_FIVE>
0

> <ALOGPS_SOLUBILITY>
5.54e-05 g/l

> <JCHEM_TRADITIONAL_IUPAC>
boldenone undecylenate

> <JCHEM_VEBER_RULE>
0

> <DRUGBANK_ID>
DB14639

> <SECONDARY_ACCESSION_NUMBERS>
DBSALT001616

> <DRUG_GROUPS>
illicit; vet_approved

> <GENERIC_NAME>
Boldenone undecylenate

> <SYNONYMS>
17beta-Hydroxyandrosta-1,4-dien-3-one 10-undecenoate; Boldenone 10-undecenoate; Boldenone undecylenate

$$$$
