
  Mrv1909 03072017262D          

 45 52  0  0  0  0            999 V2000
    1.7977   -2.4582    0.0000 C   0  0  0  0  0  0  0  0  0  0  0  0
    1.7946   -3.2832    0.0000 C   0  0  0  0  0  0  0  0  0  0  0  0
    2.5120   -3.6974    0.0000 C   0  0  0  0  0  0  0  0  0  0  0  0
    3.2248   -3.2866    0.0000 C   0  0  0  0  0  0  0  0  0  0  0  0
    4.0548   -3.4480    0.0000 N   0  0  0  0  0  0  0  0  0  0  0  0
    4.4910   -2.6890    0.0000 C   0  0  0  0  0  0  0  0  0  0  0  0
    3.9351   -2.0593    0.0000 C   0  0  0  0  0  0  0  0  0  0  0  0
    2.5122   -2.0491    0.0000 C   0  0  0  0  0  0  0  0  0  0  0  0
    3.2249   -2.4652    0.0000 C   0  0  0  0  0  0  0  0  0  0  0  0
    3.9439   -1.2338    0.0000 C   0  0  0  0  0  0  0  0  0  0  0  0
    2.5122   -1.2262    0.0000 C   0  0  0  0  0  0  0  0  0  0  0  0
    3.2271   -0.8148    0.0000 C   0  0  2  0  0  0  0  0  0  0  0  0
    3.2281    0.0051    0.0000 N   0  0  0  0  0  0  0  0  0  0  0  0
    2.5160    0.4200    0.0000 C   0  0  0  0  0  0  0  0  0  0  0  0
    1.8015    0.0086    0.0000 C   0  0  1  0  0  0  0  0  0  0  0  0
    1.7987   -0.8174    0.0000 C   0  0  0  0  0  0  0  0  0  0  0  0
    1.0862    0.4239    0.0000 C   0  0  0  0  0  0  0  0  0  0  0  0
    0.3691    0.0122    0.0000 N   0  0  0  0  0  0  0  0  0  0  0  0
    3.9455    0.4166    0.0000 C   0  0  0  0  0  0  0  0  0  0  0  0
    3.9417   -0.4039    0.0000 H   0  0  0  0  0  0  0  0  0  0  0  0
    1.0883    1.2510    0.0000 O   0  0  0  0  0  0  0  0  0  0  0  0
   -0.3534    0.4166    0.0000 C   0  0  1  0  0  0  0  0  0  0  0  0
   -0.8487    1.0829    0.0000 C   0  0  0  0  0  0  0  0  0  0  0  0
   -0.8361   -0.2551    0.0000 O   0  0  0  0  0  0  0  0  0  0  0  0
   -1.6251   -0.0070    0.0000 C   0  0  2  0  0  0  0  0  0  0  0  0
   -1.6286    0.8156    0.0000 N   0  0  0  0  0  0  0  0  0  0  0  0
   -2.3389    1.2217    0.0000 C   0  0  2  0  0  0  0  0  0  0  0  0
   -3.0502    0.8096    0.0000 C   0  0  0  0  0  0  0  0  0  0  0  0
   -2.3319   -0.4237    0.0000 C   0  0  1  0  0  0  0  0  0  0  0  0
   -3.0483   -0.0147    0.0000 N   0  0  0  0  0  0  0  0  0  0  0  0
   -3.6584   -0.5698    0.0000 C   0  0  0  0  0  0  0  0  0  0  0  0
   -3.3191   -1.3218    0.0000 C   0  0  0  0  0  0  0  0  0  0  0  0
   -2.4992   -1.2313    0.0000 C   0  0  0  0  0  0  0  0  0  0  0  0
   -1.6203   -0.8379    0.0000 O   0  0  0  0  0  0  0  0  0  0  0  0
   -2.3429    0.3996    0.0000 H   0  0  0  0  0  0  0  0  0  0  0  0
   -0.6036    1.8730    0.0000 O   0  0  0  0  0  0  0  0  0  0  0  0
   -3.7672    1.2217    0.0000 O   0  0  0  0  0  0  0  0  0  0  0  0
   -2.3412    2.0487    0.0000 C   0  0  0  0  0  0  0  0  0  0  0  0
   -3.0586    2.4602    0.0000 C   0  0  0  0  0  0  0  0  0  0  0  0
   -3.0582    3.2859    0.0000 C   0  0  0  0  0  0  0  0  0  0  0  0
   -3.7749    3.6974    0.0000 C   0  0  0  0  0  0  0  0  0  0  0  0
   -4.4910    3.2817    0.0000 C   0  0  0  0  0  0  0  0  0  0  0  0
   -4.4860    2.4503    0.0000 C   0  0  0  0  0  0  0  0  0  0  0  0
   -3.7687    2.0426    0.0000 C   0  0  0  0  0  0  0  0  0  0  0  0
    0.1618    0.9269    0.0000 C   0  0  0  0  0  0  0  0  0  0  0  0
  7 10  1  0  0  0  0
 10 12  1  0  0  0  0
 11 12  1  0  0  0  0
  1  2  2  0  0  0  0
  8  1  1  0  0  0  0
  2  3  1  0  0  0  0
  4  5  1  0  0  0  0
  5  6  1  0  0  0  0
  6  7  2  0  0  0  0
 11 16  2  0  0  0  0
 12 13  1  0  0  0  0
 13 14  1  0  0  0  0
 14 15  1  0  0  0  0
 15 16  1  0  0  0  0
  7  9  1  0  0  0  0
 15 17  1  1  0  0  0
  8  9  2  0  0  0  0
 17 18  1  0  0  0  0
  3  4  2  0  0  0  0
 13 19  1  0  0  0  0
  9  4  1  0  0  0  0
 12 20  1  1  0  0  0
 17 21  2  0  0  0  0
  8 11  1  0  0  0  0
 22 23  1  0  0  0  0
 23 26  1  0  0  0  0
 25 24  1  0  0  0  0
 24 22  1  0  0  0  0
 25 26  1  0  0  0  0
 25 29  1  0  0  0  0
 26 27  1  0  0  0  0
 27 28  1  0  0  0  0
 28 30  1  0  0  0  0
 29 30  1  0  0  0  0
 30 31  1  0  0  0  0
 31 32  1  0  0  0  0
 32 33  1  0  0  0  0
 33 29  1  0  0  0  0
 25 34  1  6  0  0  0
 29 35  1  1  0  0  0
 23 36  2  0  0  0  0
 28 37  2  0  0  0  0
 27 38  1  6  0  0  0
 38 39  1  0  0  0  0
 39 40  2  0  0  0  0
 40 41  1  0  0  0  0
 41 42  2  0  0  0  0
 42 43  1  0  0  0  0
 43 44  2  0  0  0  0
 44 39  1  0  0  0  0
 22 45  1  1  0  0  0
 22 18  1  0  0  0  0
M  END
> <DATABASE_ID>
DB00696

> <DATABASE_NAME>
drugbank

> <SMILES>
[H][C@@]12CCCN1C(=O)[C@H](CC1=CC=CC=C1)N1C(=O)[C@](C)(NC(=O)[C@H]3CN(C)[C@]4([H])CC5=CNC6=CC=CC(=C56)C4=C3)O[C@@]21O

> <INCHI_IDENTIFIER>
InChI=1S/C33H35N5O5/c1-32(35-29(39)21-15-23-22-10-6-11-24-28(22)20(17-34-24)16-25(23)36(2)18-21)31(41)38-26(14-19-8-4-3-5-9-19)30(40)37-13-7-12-27(37)33(38,42)43-32/h3-6,8-11,15,17,21,25-27,34,42H,7,12-14,16,18H2,1-2H3,(H,35,39)/t21-,25-,26+,27+,32-,33+/m1/s1

> <INCHI_KEY>
XCGSFFUVFURLIX-VFGNJEKYSA-N

> <FORMULA>
C33H35N5O5

> <MOLECULAR_WEIGHT>
581.6615

> <EXACT_MASS>
581.263819255

> <JCHEM_ACCEPTOR_COUNT>
6

> <JCHEM_ATOM_COUNT>
78

> <JCHEM_AVERAGE_NEUTRAL_MICROSPECIES_CHARGE>
0.8557379920206556

> <JCHEM_AVERAGE_POLARIZABILITY>
62.22885740515149

> <JCHEM_BIOAVAILABILITY>
1

> <JCHEM_DONOR_COUNT>
3

> <JCHEM_FORMAL_CHARGE>
0

> <JCHEM_GHOSE_FILTER>
0

> <JCHEM_IUPAC>
(4R,7R)-N-[(1S,2S,4R,7S)-7-benzyl-2-hydroxy-4-methyl-5,8-dioxo-3-oxa-6,9-diazatricyclo[7.3.0.0^{2,6}]dodecan-4-yl]-6-methyl-6,11-diazatetracyclo[7.6.1.0^{2,7}.0^{12,16}]hexadeca-1(16),2,9,12,14-pentaene-4-carboxamide

> <ALOGPS_LOGP>
2.95

> <JCHEM_LOGP>
2.597697310346601

> <ALOGPS_LOGS>
-3.42

> <JCHEM_MDDR_LIKE_RULE>
0

> <JCHEM_NEUTRAL_CHARGE>
1

> <JCHEM_NUMBER_OF_RINGS>
8

> <JCHEM_PHYSIOLOGICAL_CHARGE>
1

> <JCHEM_PKA>
11.635502175693672

> <JCHEM_PKA_STRONGEST_ACIDIC>
9.695263245586666

> <JCHEM_PKA_STRONGEST_BASIC>
7.780484014775068

> <JCHEM_POLAR_SURFACE_AREA>
118.20999999999998

> <JCHEM_REFRACTIVITY>
160.16779999999994

> <JCHEM_ROTATABLE_BOND_COUNT>
4

> <JCHEM_RULE_OF_FIVE>
0

> <ALOGPS_SOLUBILITY>
2.23e-01 g/l

> <JCHEM_TRADITIONAL_IUPAC>
lugol's iodine

> <JCHEM_VEBER_RULE>
0

> <DRUGBANK_ID>
DB00696

> <SECONDARY_ACCESSION_NUMBERS>
APRD00677

> <DRUG_GROUPS>
approved

> <GENERIC_NAME>
Ergotamine

> <SYNONYMS>
(5'α)-12'-hydroxy-2'-methyl-5'-(phenylmethyl)ergotoman-3',6',18-trione; 12'-Hydroxy-2'-methyl-5'alpha-(phenylmethyl)ergotaman-3',6',18-trione; 12'-hydroxy-2'-methyl-5'α-(phenylmethyl)ergotaman-3',6',18-trione; Ergotamin; Ergotamina; Ergotamine; Ergotaminum

> <PRODUCTS>
Bellergal Spacetabs; Bellergal Tab; Cafergot; Cafergot Pb Sup; Cafergot Pb Tab; Cafergot Sup; Cafergot Tab; Ercaf; Ergodryl Cap; Ergomar; Ergomar Slt 2mg; Ergomar Sublingual; Ergotamine; Ergotamine Tartrate and Caffeine; Ergotamine Tartrate, Caffeine; Gravergol Capsules; Medihaler-Ergotamine; Megral Tabs; Migergot; Truemed Group LLC; Wigraine Suppositories; Wigraine Tab

> <INTERNATIONAL_BRANDS>
Anervan; Antimigraine; Enxak; Ergam; Ergo-Kranit; Gynaemine; Gynergen; Wigrettes

> <SALTS>
Ergotamine tartrate

$$$$
