
  Mrv1718001051815262D          

 26 28  0  0  0  0            999 V2000
   -0.1712   -0.6979    0.0000 C   0  0  0  0  0  0  0  0  0  0  0  0
    0.6538   -0.6979    0.0000 C   0  0  0  0  0  0  0  0  0  0  0  0
    1.1387   -0.0305    0.0000 C   0  0  0  0  0  0  0  0  0  0  0  0
    1.9233   -0.2854    0.0000 C   0  0  0  0  0  0  0  0  0  0  0  0
    2.6378    0.1271    0.0000 C   0  0  0  0  0  0  0  0  0  0  0  0
    3.3523   -0.2854    0.0000 C   0  0  0  0  0  0  0  0  0  0  0  0
    3.3523   -1.1104    0.0000 C   0  0  0  0  0  0  0  0  0  0  0  0
    2.6378   -1.5229    0.0000 C   0  0  0  0  0  0  0  0  0  0  0  0
    1.9233   -1.1104    0.0000 C   0  0  0  0  0  0  0  0  0  0  0  0
    1.1387   -1.3654    0.0000 C   0  0  0  0  0  0  0  0  0  0  0  0
    0.8838   -2.1500    0.0000 C   0  0  0  0  0  0  0  0  0  0  0  0
    1.4358   -2.7631    0.0000 C   0  0  0  0  0  0  0  0  0  0  0  0
    2.2428   -2.5916    0.0000 C   0  0  0  0  0  0  0  0  0  0  0  0
    2.7948   -3.2047    0.0000 C   0  0  0  0  0  0  0  0  0  0  0  0
    2.5399   -3.9893    0.0000 C   0  0  0  0  0  0  0  0  0  0  0  0
    1.7329   -4.1608    0.0000 C   0  0  0  0  0  0  0  0  0  0  0  0
    1.1809   -3.5477    0.0000 C   0  0  0  0  0  0  0  0  0  0  0  0
    3.0919   -4.6024    0.0000 S   0  0  0  0  0  0  0  0  0  0  0  0
    3.6439   -5.2155    0.0000 O   0  0  0  0  0  0  0  0  0  0  0  0
    3.7050   -4.0503    0.0000 O   0  0  0  0  0  0  0  0  0  0  0  0
    2.4788   -5.1544    0.0000 C   0  0  0  0  0  0  0  0  0  0  0  0
    4.0668    0.1271    0.0000 F   0  0  0  0  0  0  0  0  0  0  0  0
    0.8838    0.7541    0.0000 C   0  0  0  0  0  0  0  0  0  0  0  0
    0.0768    0.9256    0.0000 C   0  0  0  0  0  0  0  0  0  0  0  0
   -0.4752    0.3126    0.0000 O   0  0  0  0  0  0  0  0  0  0  0  0
   -0.1781    1.7103    0.0000 O   0  0  0  0  0  0  0  0  0  0  0  0
  1  2  1  0  0  0  0
  2  3  2  0  0  0  0
  3  4  1  0  0  0  0
  4  5  2  0  0  0  0
  5  6  1  0  0  0  0
  6  7  2  0  0  0  0
  7  8  1  0  0  0  0
  8  9  2  0  0  0  0
  4  9  1  0  0  0  0
  9 10  1  0  0  0  0
  2 10  1  0  0  0  0
 10 11  2  0  0  0  0
 11 12  1  0  0  0  0
 12 13  2  0  0  0  0
 13 14  1  0  0  0  0
 14 15  2  0  0  0  0
 15 16  1  0  0  0  0
 16 17  2  0  0  0  0
 12 17  1  0  0  0  0
 15 18  1  0  0  0  0
 18 19  2  0  0  0  0
 18 20  2  0  0  0  0
 18 21  1  0  0  0  0
  6 22  1  0  0  0  0
  3 23  1  0  0  0  0
 23 24  1  0  0  0  0
 24 25  2  0  0  0  0
 24 26  1  0  0  0  0
M  END
> <DATABASE_ID>
DB06246

> <DATABASE_NAME>
drugbank

> <SMILES>
CC1=C(CC(O)=O)C2=CC(F)=CC=C2\C1=C/C1=CC=C(C=C1)S(C)(=O)=O

> <INCHI_IDENTIFIER>
InChI=1S/C20H17FO4S/c1-12-17(9-13-3-6-15(7-4-13)26(2,24)25)16-8-5-14(21)10-19(16)18(12)11-20(22)23/h3-10H,11H2,1-2H3,(H,22,23)/b17-9-

> <INCHI_KEY>
MVGSNCBCUWPVDA-MFOYZWKCSA-N

> <FORMULA>
C20H17FO4S

> <MOLECULAR_WEIGHT>
372.41

> <EXACT_MASS>
372.083158364

> <JCHEM_ACCEPTOR_COUNT>
4

> <JCHEM_ATOM_COUNT>
43

> <JCHEM_AVERAGE_POLARIZABILITY>
38.03002054788496

> <JCHEM_BIOAVAILABILITY>
1

> <JCHEM_DONOR_COUNT>
1

> <JCHEM_FORMAL_CHARGE>
0

> <JCHEM_GHOSE_FILTER>
1

> <JCHEM_IUPAC>
2-[(1Z)-5-fluoro-1-[(4-methanesulfonylphenyl)methylidene]-2-methyl-1H-inden-3-yl]acetic acid

> <ALOGPS_LOGP>
2.94

> <JCHEM_LOGP>
3.033048541666667

> <ALOGPS_LOGS>
-5.38

> <JCHEM_MDDR_LIKE_RULE>
0

> <JCHEM_NUMBER_OF_RINGS>
3

> <JCHEM_PHYSIOLOGICAL_CHARGE>
-1

> <JCHEM_PKA>
16.20167889309

> <JCHEM_PKA_STRONGEST_ACIDIC>
3.9373762460487653

> <JCHEM_POLAR_SURFACE_AREA>
71.44

> <JCHEM_REFRACTIVITY>
99.20079999999999

> <JCHEM_ROTATABLE_BOND_COUNT>
4

> <JCHEM_RULE_OF_FIVE>
1

> <ALOGPS_SOLUBILITY>
1.55e-03 g/l

> <JCHEM_TRADITIONAL_IUPAC>
sulindac sulfone

> <JCHEM_VEBER_RULE>
0

> <DRUGBANK_ID>
DB06246

> <DRUG_GROUPS>
investigational

> <GENERIC_NAME>
Exisulind

> <SYNONYMS>
5-Fluoro-2-methyl-1-((Z)-p-(methylsulfonyl)benzylidene)indene-3-acetic acid; cis-5-Fluoro-2-methyl-1-(p-methylsulfonylbenzylidenyl)indene-3-acetic acid; Exisulind; Sulindac sulfone

> <INTERNATIONAL_BRANDS>
Aptosyn; Prevatec

$$$$
