
  Mrv1533004261507472D          

 20 21  0  0  0  0            999 V2000
    1.4289    0.0000    0.0000 C   0  0  0  0  0  0  0  0  0  0  0  0
    2.1434   -0.4125    0.0000 O   0  0  0  0  0  0  0  0  0  0  0  0
    2.1434   -1.2375    0.0000 C   0  0  0  0  0  0  0  0  0  0  0  0
    2.8579   -1.6500    0.0000 C   0  0  0  0  0  0  0  0  0  0  0  0
    2.8579   -2.4750    0.0000 C   0  0  0  0  0  0  0  0  0  0  0  0
    2.1434   -2.8875    0.0000 C   0  0  0  0  0  0  0  0  0  0  0  0
    1.4289   -2.4750    0.0000 C   0  0  0  0  0  0  0  0  0  0  0  0
    1.4289   -1.6500    0.0000 C   0  0  0  0  0  0  0  0  0  0  0  0
    0.7145   -1.2375    0.0000 Br  0  0  0  0  0  0  0  0  0  0  0  0
    0.7145   -2.8875    0.0000 O   0  0  0  0  0  0  0  0  0  0  0  0
    0.0000   -2.4750    0.0000 C   0  0  0  0  0  0  0  0  0  0  0  0
    3.5724   -2.8875    0.0000 C   0  0  0  0  0  0  0  0  0  0  0  0
    3.5724   -3.7125    0.0000 C   0  0  0  0  0  0  0  0  0  0  0  0
    4.2868   -4.1250    0.0000 C   0  0  0  0  0  0  0  0  0  0  0  0
    4.2868   -4.9500    0.0000 N   0  0  0  0  0  0  0  0  0  0  0  0
    3.5724   -5.3625    0.0000 C   0  0  0  0  0  0  0  0  0  0  0  0
    2.8579   -4.9500    0.0000 N   0  0  0  0  0  0  0  0  0  0  0  0
    2.8579   -4.1250    0.0000 C   0  0  0  0  0  0  0  0  0  0  0  0
    2.1434   -3.7125    0.0000 N   0  0  0  0  0  0  0  0  0  0  0  0
    3.5724   -6.1875    0.0000 N   0  0  0  0  0  0  0  0  0  0  0  0
  1  2  1  0  0  0  0
  2  3  1  0  0  0  0
  3  4  2  0  0  0  0
  4  5  1  0  0  0  0
  5  6  2  0  0  0  0
  6  7  1  0  0  0  0
  7  8  2  0  0  0  0
  3  8  1  0  0  0  0
  8  9  1  0  0  0  0
  7 10  1  0  0  0  0
 10 11  1  0  0  0  0
  5 12  1  0  0  0  0
 12 13  1  0  0  0  0
 13 14  2  0  0  0  0
 14 15  1  0  0  0  0
 15 16  2  0  0  0  0
 16 17  1  0  0  0  0
 17 18  2  0  0  0  0
 13 18  1  0  0  0  0
 18 19  1  0  0  0  0
 16 20  1  0  0  0  0
M  END
> <DATABASE_ID>
DB13795

> <DATABASE_NAME>
drugbank

> <SMILES>
COC1=CC(CC2=CN=C(N)N=C2N)=CC(OC)=C1Br

> <INCHI_IDENTIFIER>
InChI=1S/C13H15BrN4O2/c1-19-9-4-7(5-10(20-2)11(9)14)3-8-6-17-13(16)18-12(8)15/h4-6H,3H2,1-2H3,(H4,15,16,17,18)

> <INCHI_KEY>
BFCRRLMMHNLSCP-UHFFFAOYSA-N

> <FORMULA>
C13H15BrN4O2

> <MOLECULAR_WEIGHT>
339.193

> <EXACT_MASS>
338.037839

> <JCHEM_ACCEPTOR_COUNT>
6

> <JCHEM_ATOM_COUNT>
35

> <JCHEM_AVERAGE_POLARIZABILITY>
29.9661508678726

> <JCHEM_BIOAVAILABILITY>
1

> <JCHEM_DONOR_COUNT>
2

> <JCHEM_FORMAL_CHARGE>
0

> <JCHEM_GHOSE_FILTER>
1

> <JCHEM_IUPAC>
5-[(4-bromo-3,5-dimethoxyphenyl)methyl]pyrimidine-2,4-diamine

> <ALOGPS_LOGP>
2.06

> <JCHEM_LOGP>
2.2103312209999997

> <ALOGPS_LOGS>
-3.00

> <JCHEM_MDDR_LIKE_RULE>
0

> <JCHEM_NUMBER_OF_RINGS>
2

> <JCHEM_PHYSIOLOGICAL_CHARGE>
1

> <JCHEM_PKA_STRONGEST_ACIDIC>
17.330223356480726

> <JCHEM_PKA_STRONGEST_BASIC>
7.155994151291053

> <JCHEM_POLAR_SURFACE_AREA>
96.28

> <JCHEM_REFRACTIVITY>
82.669

> <JCHEM_ROTATABLE_BOND_COUNT>
4

> <JCHEM_RULE_OF_FIVE>
1

> <ALOGPS_SOLUBILITY>
3.38e-01 g/l

> <JCHEM_TRADITIONAL_IUPAC>
brodimoprim

> <JCHEM_VEBER_RULE>
0

> <DRUGBANK_ID>
DB13795

> <DRUG_GROUPS>
experimental

> <GENERIC_NAME>
Brodimoprim

> <SYNONYMS>
2,4-diamino-5-(4-bromo-3,5-dimethoxybenzyl)pyrimidine; Brodimoprim; Brodimoprima; Brodimoprime; Brodimoprimum

$$$$
