
  Mrv1718001121814472D          

 50 55  0  0  0  0            999 V2000
    5.8447    5.3814    0.0000 C   0  0  0  0  0  0  0  0  0  0  0  0
    5.1339    4.9626    0.0000 C   0  0  0  0  0  0  0  0  0  0  0  0
    5.1339    4.1503    0.0000 C   0  0  0  0  0  0  0  0  0  0  0  0
    4.4105    3.7315    0.0000 C   0  0  0  0  0  0  0  0  0  0  0  0
    4.4105    2.9065    0.0000 C   0  0  0  0  0  0  0  0  0  0  0  0
    3.6997    2.4876    0.0000 C   0  0  0  0  0  0  0  0  0  0  0  0
    3.6997    1.6626    0.0000 C   0  0  0  0  0  0  0  0  0  0  0  0
    4.4105    1.2565    0.0000 O   0  0  0  0  0  0  0  0  0  0  0  0
    2.9889    1.2565    0.0000 O   0  0  0  0  0  0  0  0  0  0  0  0
    2.9889    0.4314    0.0000 C   0  0  2  0  0  0  0  0  0  0  0  0
    2.2782    0.0126    0.0000 C   0  0  2  0  0  0  0  0  0  0  0  0
    2.2782   -0.8249    0.0000 C   0  0  1  0  0  0  0  0  0  0  0  0
    3.7124   -0.8249    0.0000 C   0  0  0  0  0  0  0  0  0  0  0  0
    3.7124    0.0000    0.0000 C   0  0  0  0  0  0  0  0  0  0  0  0
    1.5547   -1.2438    0.0000 C   0  0  2  0  0  0  0  0  0  0  0  0
    1.5547   -2.0688    0.0000 C   0  0  0  0  0  0  0  0  0  0  0  0
    0.8313   -2.4877    0.0000 C   0  0  0  0  0  0  0  0  0  0  0  0
    0.1078   -2.0688    0.0000 C   0  0  0  0  0  0  0  0  0  0  0  0
    0.1078   -1.2438    0.0000 C   0  0  2  0  0  0  0  0  0  0  0  0
    0.8313   -0.8249    0.0000 C   0  0  1  0  0  0  0  0  0  0  0  0
    0.8313    0.0126    0.0000 C   0  0  0  0  0  0  0  0  0  0  0  0
    1.5420    0.4188    0.0000 C   0  0  0  0  0  0  0  0  0  0  0  0
    0.8313   -1.7768    0.0000 H   0  0  0  0  0  0  0  0  0  0  0  0
    0.1078   -0.4188    0.0000 C   0  0  0  0  0  0  0  0  0  0  0  0
   -0.6028   -0.8249    0.0000 C   0  0  0  0  0  0  0  0  0  0  0  0
   -1.3136   -1.2438    0.0000 C   0  0  0  0  0  0  0  0  0  0  0  0
   -1.3136   -2.0688    0.0000 C   0  0  0  0  0  0  0  0  0  0  0  0
   -2.0244   -2.4877    0.0000 N   0  0  0  0  0  0  0  0  0  0  0  0
   -2.0244   -3.3126    0.0000 N   0  0  0  0  0  0  0  0  0  0  0  0
   -2.7478   -3.7315    0.0000 C   0  0  0  0  0  0  0  0  0  0  0  0
   -3.4586   -3.3126    0.0000 O   0  0  0  0  0  0  0  0  0  0  0  0
   -2.7478   -4.5438    0.0000 C   0  0  0  0  0  0  0  0  0  0  0  0
   -1.3009   -4.5438    0.0000 C   0  0  0  0  0  0  0  0  0  0  0  0
   -0.8821   -5.2545    0.0000 C   0  0  0  0  0  0  0  0  0  0  0  0
   -0.0571   -5.2545    0.0000 C   0  0  0  0  0  0  0  0  0  0  0  0
    0.3490   -4.5311    0.0000 C   0  0  0  0  0  0  0  0  0  0  0  0
   -0.0571   -3.8330    0.0000 C   0  0  0  0  0  0  0  0  0  0  0  0
   -0.8948   -3.8330    0.0000 C   0  0  0  0  0  0  0  0  0  0  0  0
   -4.1947   -4.5438    0.0000 C   0  0  0  0  0  0  0  0  0  0  0  0
   -4.6009   -3.8457    0.0000 C   0  0  0  0  0  0  0  0  0  0  0  0
   -5.4259   -3.8457    0.0000 C   0  0  0  0  0  0  0  0  0  0  0  0
   -5.8447   -4.5564    0.0000 C   0  0  0  0  0  0  0  0  0  0  0  0
   -5.4259   -5.2672    0.0000 C   0  0  0  0  0  0  0  0  0  0  0  0
   -4.6009   -5.2672    0.0000 C   0  0  0  0  0  0  0  0  0  0  0  0
   -2.7478   -5.3814    0.0000 O   0  0  0  0  0  0  0  0  0  0  0  0
   -0.6028   -2.4877    0.0000 C   0  0  0  0  0  0  0  0  0  0  0  0
    1.5547   -0.2792    0.0000 H   0  0  0  0  0  0  0  0  0  0  0  0
    2.2782   -1.7896    0.0000 H   0  0  0  0  0  0  0  0  0  0  0  0
    2.2021    0.9392    0.0000 C   0  0  0  0  0  0  0  0  0  0  0  0
   -1.5675   -3.5792    0.0000 H   0  0  0  0  0  0  0  0  0  0  0  0
  1  2  1  0  0  0  0
  2  3  1  0  0  0  0
  3  4  1  0  0  0  0
  4  5  1  0  0  0  0
  5  6  1  0  0  0  0
  6  7  1  0  0  0  0
  7  8  2  0  0  0  0
  7  9  1  0  0  0  0
 10  9  1  1  0  0  0
 10 11  1  0  0  0  0
 10 14  1  0  0  0  0
 11 12  1  0  0  0  0
 11 22  1  0  0  0  0
 11 49  1  1  0  0  0
 12 13  1  0  0  0  0
 12 15  1  0  0  0  0
 12 48  1  6  0  0  0
 13 14  1  0  0  0  0
 15 16  1  0  0  0  0
 15 20  1  0  0  0  0
 15 47  1  1  0  0  0
 16 17  1  0  0  0  0
 17 18  1  0  0  0  0
 18 19  1  0  0  0  0
 18 46  2  0  0  0  0
 19 20  1  0  0  0  0
 19 24  1  1  0  0  0
 19 25  1  0  0  0  0
 20 21  1  0  0  0  0
 20 23  1  6  0  0  0
 21 22  1  0  0  0  0
 25 26  1  0  0  0  0
 26 27  1  0  0  0  0
 27 28  2  3  0  0  0
 27 46  1  0  0  0  0
 28 29  1  0  0  0  0
 29 30  1  0  0  0  0
 29 50  1  0  0  0  0
 30 31  2  0  0  0  0
 30 32  1  0  0  0  0
 32 33  1  0  0  0  0
 32 39  1  0  0  0  0
 32 45  1  0  0  0  0
 33 34  1  0  0  0  0
 33 38  2  0  0  0  0
 34 35  2  0  0  0  0
 35 36  1  0  0  0  0
 36 37  2  0  0  0  0
 37 38  1  0  0  0  0
 39 40  1  0  0  0  0
 39 44  2  0  0  0  0
 40 41  2  0  0  0  0
 41 42  1  0  0  0  0
 42 43  2  0  0  0  0
 43 44  1  0  0  0  0
M  END
> <DATABASE_ID>
DB13947

> <DATABASE_NAME>
drugbank

> <SMILES>
[H]N(N=C1CC[C@@]2(C)C(CC[C@@]3([H])[C@]4([H])CC[C@H](OC(=O)CCCCCC)[C@@]4(C)CC[C@]23[H])=C1)C(=O)C(O)(C1=CC=CC=C1)C1=CC=CC=C1

> <INCHI_IDENTIFIER>
InChI=1S/C40H52N2O4/c1-4-5-6-13-18-36(43)46-35-22-21-33-32-20-19-30-27-31(23-25-38(30,2)34(32)24-26-39(33,35)3)41-42-37(44)40(45,28-14-9-7-10-15-28)29-16-11-8-12-17-29/h7-12,14-17,27,32-35,45H,4-6,13,18-26H2,1-3H3,(H,42,44)/t32-,33-,34-,35-,38-,39-/m0/s1

> <INCHI_KEY>
PTVXYACXDYZNID-JKXGKYMWSA-N

> <FORMULA>
C40H52N2O4

> <MOLECULAR_WEIGHT>
624.866

> <EXACT_MASS>
624.392708162

> <JCHEM_ACCEPTOR_COUNT>
4

> <JCHEM_ATOM_COUNT>
98

> <JCHEM_AVERAGE_POLARIZABILITY>
74.50902003122606

> <JCHEM_BIOAVAILABILITY>
0

> <JCHEM_DONOR_COUNT>
2

> <JCHEM_FORMAL_CHARGE>
0

> <JCHEM_GHOSE_FILTER>
0

> <JCHEM_IUPAC>
(1S,3aS,3bR,9aR,9bS,11aS)-7-[(2-hydroxy-2,2-diphenylacetamido)imino]-9a,11a-dimethyl-1H,2H,3H,3aH,3bH,4H,5H,7H,8H,9H,9aH,9bH,10H,11H,11aH-cyclopenta[a]phenanthren-1-yl heptanoate

> <ALOGPS_LOGP>
6.54

> <JCHEM_LOGP>
8.489464162000004

> <ALOGPS_LOGS>
-6.71

> <JCHEM_MDDR_LIKE_RULE>
1

> <JCHEM_NUMBER_OF_RINGS>
6

> <JCHEM_PHYSIOLOGICAL_CHARGE>
0

> <JCHEM_PKA>
12.060026821141935

> <JCHEM_PKA_STRONGEST_ACIDIC>
11.090460243735711

> <JCHEM_PKA_STRONGEST_BASIC>
2.1362851090158324

> <JCHEM_POLAR_SURFACE_AREA>
87.99

> <JCHEM_REFRACTIVITY>
182.37359999999993

> <JCHEM_ROTATABLE_BOND_COUNT>
11

> <JCHEM_RULE_OF_FIVE>
0

> <ALOGPS_SOLUBILITY>
1.22e-04 g/l

> <JCHEM_TRADITIONAL_IUPAC>
(1S,3aS,3bR,9aR,9bS,11aS)-7-[(2-hydroxy-2,2-diphenylacetamido)imino]-9a,11a-dimethyl-1H,2H,3H,3aH,3bH,4H,5H,8H,9H,9bH,10H,11H-cyclopenta[a]phenanthren-1-yl heptanoate

> <JCHEM_VEBER_RULE>
0

> <DRUGBANK_ID>
DB13947

> <SECONDARY_ACCESSION_NUMBERS>
DBSALT002571

> <DRUG_GROUPS>
approved; experimental

> <GENERIC_NAME>
Testosterone enantate benzilic acid hydrazone

> <SYNONYMS>
Testosterone 17-enanthate 3-benzilic acid hydrazone; Testosterone enanthate benzilic acid hydrazone

> <PRODUCTS>
Climacteron Injection

$$$$
