
  Mrv1909 09272219562D          

 35 39  0  0  1  0            999 V2000
    0.0768   -2.3215    0.0000 C   0  0  0  0  0  0  0  0  0  0  0  0
    0.8838   -2.1500    0.0000 O   0  0  0  0  0  0  0  0  0  0  0  0
    1.1387   -1.3654    0.0000 C   0  0  0  0  0  0  0  0  0  0  0  0
    0.6538   -0.6979    0.0000 N   0  0  0  0  0  0  0  0  0  0  0  0
    1.1387   -0.0305    0.0000 N   0  0  0  0  0  0  0  0  0  0  0  0
    1.9233   -0.2854    0.0000 C   0  0  0  0  0  0  0  0  0  0  0  0
    2.6378    0.1271    0.0000 C   0  0  0  0  0  0  0  0  0  0  0  0
    3.3523   -0.2854    0.0000 C   0  0  0  0  0  0  0  0  0  0  0  0
    3.3523   -1.1104    0.0000 C   0  0  0  0  0  0  0  0  0  0  0  0
    2.6378   -1.5229    0.0000 N   0  0  0  0  0  0  0  0  0  0  0  0
    1.9233   -1.1104    0.0000 N   0  0  0  0  0  0  0  0  0  0  0  0
    4.0668   -1.5229    0.0000 N   0  0  0  0  0  0  0  0  0  0  0  0
    4.7812   -1.1104    0.0000 C   0  0  0  0  0  0  0  0  0  0  0  0
    5.4957   -1.5229    0.0000 C   0  0  0  0  0  0  0  0  0  0  0  0
    5.4957   -2.3479    0.0000 C   0  0  0  0  0  0  0  0  0  0  0  0
    4.7812   -2.7604    0.0000 C   0  0  0  0  0  0  0  0  0  0  0  0
    4.0668   -2.3479    0.0000 C   0  0  0  0  0  0  0  0  0  0  0  0
    6.2102   -2.7604    0.0000 C   0  0  0  0  0  0  0  0  0  0  0  0
    6.9246   -2.3479    0.0000 C   0  0  0  0  0  0  0  0  0  0  0  0
    7.6391   -2.7604    0.0000 C   0  0  0  0  0  0  0  0  0  0  0  0
    7.6391   -3.5854    0.0000 C   0  0  0  0  0  0  0  0  0  0  0  0
    8.3536   -3.9979    0.0000 O   0  0  0  0  0  0  0  0  0  0  0  0
    8.3536   -4.8229    0.0000 C   0  0  0  0  0  0  0  0  0  0  0  0
    9.0681   -5.2354    0.0000 C   0  0  0  0  0  0  0  0  0  0  0  0
    9.0681   -6.0604    0.0000 N   0  0  0  0  0  0  0  0  0  0  0  0
    9.7825   -6.4729    0.0000 C   0  0  0  0  0  0  0  0  0  0  0  0
    9.7825   -7.2979    0.0000 C   0  0  0  0  0  0  0  0  0  0  0  0
    9.0681   -7.7104    0.0000 N   0  0  0  0  0  0  0  0  0  0  0  0
    9.0681   -8.5354    0.0000 C   0  0  0  0  0  0  0  0  0  0  0  0
    8.3536   -7.2979    0.0000 C   0  0  0  0  0  0  0  0  0  0  0  0
    7.6391   -7.7104    0.0000 O   0  0  0  0  0  0  0  0  0  0  0  0
    8.3536   -6.4729    0.0000 C   0  0  1  0  0  0  0  0  0  0  0  0
    7.6391   -6.0604    0.0000 C   0  0  0  0  0  0  0  0  0  0  0  0
    6.9246   -3.9979    0.0000 C   0  0  0  0  0  0  0  0  0  0  0  0
    6.2102   -3.5854    0.0000 C   0  0  0  0  0  0  0  0  0  0  0  0
  1  2  1  0  0  0  0
  2  3  1  0  0  0  0
  3  4  2  0  0  0  0
  4  5  1  0  0  0  0
  5  6  2  0  0  0  0
  6  7  1  0  0  0  0
  7  8  2  0  0  0  0
  8  9  1  0  0  0  0
  9 10  2  0  0  0  0
 10 11  1  0  0  0  0
  3 11  1  0  0  0  0
  6 11  1  0  0  0  0
  9 12  1  0  0  0  0
 12 13  1  0  0  0  0
 13 14  1  0  0  0  0
 14 15  1  0  0  0  0
 15 16  1  0  0  0  0
 16 17  1  0  0  0  0
 12 17  1  0  0  0  0
 15 18  1  0  0  0  0
 18 19  2  0  0  0  0
 19 20  1  0  0  0  0
 20 21  2  0  0  0  0
 21 22  1  0  0  0  0
 22 23  1  0  0  0  0
 23 24  1  0  0  0  0
 24 25  1  0  0  0  0
 25 26  1  0  0  0  0
 26 27  1  0  0  0  0
 27 28  1  0  0  0  0
 28 29  1  0  0  0  0
 28 30  1  0  0  0  0
 30 31  2  0  0  0  0
 32 30  1  0  0  0  0
 32 25  1  0  0  0  0
 32 33  1  1  0  0  0
 21 34  1  0  0  0  0
 34 35  2  0  0  0  0
 18 35  1  0  0  0  0
M  END
> <DATABASE_ID>
DB17018

> <DATABASE_NAME>
drugbank

> <SMILES>
COC1=NN=C2C=CC(=NN12)N1CCC(CC1)C1=CC=C(OCCN2CCN(C)C(=O)[C@H]2C)C=C1

> <INCHI_IDENTIFIER>
InChI=1S/C25H33N7O3/c1-18-24(33)29(2)14-15-30(18)16-17-35-21-6-4-19(5-7-21)20-10-12-31(13-11-20)23-9-8-22-26-27-25(34-3)32(22)28-23/h4-9,18,20H,10-17H2,1-3H3/t18-/m1/s1

> <INCHI_KEY>
RSMYFSPOTCDHHJ-GOSISDBHSA-N

> <FORMULA>
C25H33N7O3

> <MOLECULAR_WEIGHT>
479.585

> <EXACT_MASS>
479.264487951

> <JCHEM_ACCEPTOR_COUNT>
8

> <JCHEM_ATOM_COUNT>
68

> <JCHEM_AVERAGE_NEUTRAL_MICROSPECIES_CHARGE>
0.21520429114490527

> <JCHEM_AVERAGE_POLARIZABILITY>
53.04936458682397

> <JCHEM_BIOAVAILABILITY>
1

> <JCHEM_DONOR_COUNT>
0

> <JCHEM_FORMAL_CHARGE>
0

> <JCHEM_GHOSE_FILTER>
0

> <JCHEM_IUPAC>
(3R)-4-{2-[4-(1-{3-methoxy-[1,2,4]triazolo[4,3-b]pyridazin-6-yl}piperidin-4-yl)phenoxy]ethyl}-1,3-dimethylpiperazin-2-one

> <ALOGPS_LOGP>
2.82

> <JCHEM_LOGP>
2.5693956709999988

> <ALOGPS_LOGS>
-3.56

> <JCHEM_MDDR_LIKE_RULE>
1

> <JCHEM_NEUTRAL_CHARGE>
0

> <JCHEM_NUMBER_OF_RINGS>
5

> <JCHEM_PHYSIOLOGICAL_CHARGE>
0

> <JCHEM_PKA_STRONGEST_BASIC>
6.438093307721297

> <JCHEM_POLAR_SURFACE_AREA>
88.32999999999998

> <JCHEM_REFRACTIVITY>
146.16139999999993

> <JCHEM_ROTATABLE_BOND_COUNT>
7

> <JCHEM_RULE_OF_FIVE>
1

> <ALOGPS_SOLUBILITY>
1.31e-01 g/l

> <JCHEM_TRADITIONAL_IUPAC>
6-cyclopropaneamido-N-[hydroxy(2H2)methyl]-4-{[2-methoxy-3-(1-methyl-1,2,4-triazol-3-yl)phenyl]amino}pyridazine-3-carboxamide

> <JCHEM_VEBER_RULE>
0

> <DRUGBANK_ID>
DB17018

> <DRUG_GROUPS>
investigational

> <GENERIC_NAME>
AZD-5153

> <SYNONYMS>
2-piperazinone, 4-(2-(4-(1-(3-methoxy-1,2,4-triazolo(4,3-b)pyridazin-6-yl)-4-piperidinyl)phenoxy)ethyl)-1,3-dimethyl-, (3r)-

$$$$
