
  Mrv1718007091811182D          

  9  6  0  0  0  0            999 V2000
    0.0682   -0.6725    0.0000 Zn  0  2  0  0  0  0  0  0  0  0  0  0
   -1.2032   -0.6830    0.0000 O   0  5  0  0  0  0  0  0  0  0  0  0
    1.2033   -0.5622    0.0000 O   0  5  0  0  0  0  0  0  0  0  0  0
   -1.9126    0.5569    0.0000 O   0  0  0  0  0  0  0  0  0  0  0  0
    1.9126    0.6830    0.0000 O   0  0  0  0  0  0  0  0  0  0  0  0
   -1.9126   -0.2732    0.0000 C   0  0  0  0  0  0  0  0  0  0  0  0
    1.9126   -0.1471    0.0000 C   0  0  0  0  0  0  0  0  0  0  0  0
   -2.6271   -0.6830    0.0000 C   0  0  0  0  0  0  0  0  0  0  0  0
    2.6271   -0.5622    0.0000 C   0  0  0  0  0  0  0  0  0  0  0  0
  2  6  1  0  0  0  0
  3  7  1  0  0  0  0
  4  6  2  0  0  0  0
  5  7  2  0  0  0  0
  6  8  1  0  0  0  0
  7  9  1  0  0  0  0
M  CHG  3   1   2   2  -1   3  -1
M  END
> <DATABASE_ID>
DB14487

> <DATABASE_NAME>
drugbank

> <SMILES>
[Zn++].CC([O-])=O.CC([O-])=O

> <INCHI_IDENTIFIER>
InChI=1S/2C2H4O2.Zn/c2*1-2(3)4;/h2*1H3,(H,3,4);/q;;+2/p-2

> <INCHI_KEY>
DJWUNCQRNNEAKC-UHFFFAOYSA-L

> <FORMULA>
C4H6O4Zn

> <MOLECULAR_WEIGHT>
183.497

> <EXACT_MASS>
181.955755258

> <JCHEM_ACCEPTOR_COUNT>
2

> <JCHEM_ATOM_COUNT>
15

> <JCHEM_AVERAGE_POLARIZABILITY>
4.95598679393429

> <JCHEM_BIOAVAILABILITY>
1

> <JCHEM_DONOR_COUNT>
0

> <JCHEM_FORMAL_CHARGE>
0

> <JCHEM_GHOSE_FILTER>
0

> <JCHEM_IUPAC>
zinc(2+) diacetate

> <ALOGPS_LOGP>
0.20

> <JCHEM_LOGP>
-0.2233457143333334

> <ALOGPS_LOGS>
-0.57

> <JCHEM_MDDR_LIKE_RULE>
0

> <JCHEM_NUMBER_OF_RINGS>
0

> <JCHEM_PHYSIOLOGICAL_CHARGE>
-1

> <JCHEM_PKA_STRONGEST_ACIDIC>
4.543439679000835

> <JCHEM_POLAR_SURFACE_AREA>
40.129999999999995

> <JCHEM_REFRACTIVITY>
23.480800000000002

> <JCHEM_ROTATABLE_BOND_COUNT>
0

> <JCHEM_RULE_OF_FIVE>
1

> <ALOGPS_SOLUBILITY>
4.99e+01 g/l

> <JCHEM_TRADITIONAL_IUPAC>
zinc acetate

> <JCHEM_VEBER_RULE>
0

> <DRUGBANK_ID>
DB14487

> <SECONDARY_ACCESSION_NUMBERS>
DBSALT001308

> <DRUG_GROUPS>
approved; investigational

> <GENERIC_NAME>
Zinc acetate

> <SYNONYMS>
Acetic acid, zinc salt; Dicarbomethoxyzinc; Zinc acetate anhydrous; Zinc acetato; Zinc diacetate; Zinc(II) acetate

> <PRODUCTS>
Action Cream; Advanced Jellyfish Sting Kit; Allergic Itch Relief; Allergy Cream; Anti Itch; Anti Itch Cream; Anti Itch Spray; Anti Itch and Skin Protectant; Anti itch Topical Analgesic; Anti-Itch; Anti-Itch Cream; Anti-Itch Extra Strength; Anti-Itch Maximum Strength; Anti-Itch Wal-Dryl; Anti-itch; Anti-itch Plus Cream; Armand Regular Strength Itch Stopping; Atopalm Itch Relief; BENADRYL Extra Strength Itch Cooling; Banophen; Benadryl Bug Bite Relief; Benadryl Extra Strength Itch Cooling; Benadryl Extra Strength Itch Relief; Benadryl Extra Strength Itch Stopping; Benadryl Itch Stopping Cream; Benadryl Original Strength Itch Stopping; Benadryl ReadyMist Itch Stopping; Benadryl Spray; Best Choice Itch Relief; Blistex Ivarest Poison Ivy Itch; CAREALL Anti-Itch; CVS Extra Strength Itch Relief; CVS Extra Strength Itch Stopping; CVS Itch Relief; CVS Regular Strength Itch Stopping; Calaclear; Caladryl Clear; Calamine Clear; Caldyphen Clear; Careone Allergy; Children's Benadryl Bug Bite Relief; Clear Anti Itch; Clear Anti-Itch; Clear Anti-itch Lotion; Clear Itch Relief; Clear Itch Relief Evora Labs; CoreTex Anti-Itch Gel; CoreTex Professional Outdoor Skin Protection Wallet; DG Anti-Itch; Derma Gran; Dermadrox; Dermagran Moisturizing Spray; Dermamine Extra Strength Itch Stopping; Dg Health Anti Itch; Diabetic Skin Care Formula; Diphenhydramine; Diphenhydramine D; Diphenhydramine HCI and Zinc Acetate; Diphenhydramine HCl and Zinc Acetate; Diphenhydramine HCl, Zinc Acetate; Diphenhydramine Hydrochloride and Zinc Acetate; Discount Drug Mart Extra Strength Itch Stopping; Discount Drug Mart Regular Strength Itch Stopping; Dr. Sheffield Anti Itch Cream; Duane Reade anti-itch; Effective Itch Relief; Equaline Anti Itch; Equaline Anti-itch; Equate Anti Itch; Extra Strength First Aid Anti-itch Rite Aid; Extra Strength Itch Stopping; Extra Strength Wal-dryl Itch Relief; Family Care Anti-Itch; Family Care Anti-itch; Family Wellness; First Aid Clear Anti-Itch medicated pads Rite Aid; Galzin; Good Neighbor Pharmacy Itch Relief Extra Strength; Good Sense Itch Relief; Good neighbor Pharmacy Itch Relief; Halls Zinc Defense; Harris Teeter Anti-Itch; Healthy Accents Anti Itch; Humco Calaclear; I.C. Ivy Block; IC Ivy Relief; Industrial Itch and Pain Relief; Instant Itch Relief CVS; Itch Rel Spr Cvs; Itch Relief; Itch Relief Clear Skin Protectant CVS; Itch Relief Cream; Itch Relief Extra Strength; Itch Relief Lotion; Itch Relief Medicated Pads CVS; Itch Relief Spray; Itch Relief Stick; Itch Relief extra strength; Itch Stopping; Ivy-Dry Super; IvyMed; Johnson and Johnson All Purpose First Aid Kit; LEADER Caldyphen Clear; Leader Anti Itch; Leader Anti Itch Maximum Strength; Live Better Anti-Itch; Lucky Itch Stopping; Maximum Strength First Aid Anti-Itch Rite Aid; Meijer Anti-itch; Neat 3B Baby B; Neat 3B Baby B Diaper; Neat 3B Bodysaver; Neat 3B Senior B; Olp Anti-itch Allergy Relief; Otozin; Polysporin Itch Relief; Premier Value Allergy; Publix allergy; Quality Choice Extra Strength Anti Itch; Quality Choice Itch Relief; Rite Aid Cala Itch Relief; Rite Aid Itch Relief; Rite Aid Maximum Strength Itch Relief; Rugby Caldyphen Clear; Rugid Itch and Pain Relief; Select Brand Calaclear; Select Brand Itch Relief; Senior B; ShopRite Anti Itch; Shopko Anti-Itch; Signature Care Itch Relief; Skin Restorative; Smart Sense Anti Itch Extra Strength; Smart Sense Itch Stopping; Smart Sense Topical Analgesic Skin Protectant; StaphWash Plus; StingMed; Sunmark Anti-itch; Tecnu Calagel; TheraCare Extra Strength Anti-Itch Cream Itch Stopping; TopCare Anti-Itch; TopCare Calaclear; Topcare Anti Itch; Up and Up itch relief; VenomX; Wal- Dryl Itch Relief; Wal-dryl; Wal-dryl Itch Relief; Walgreens Anti Itch; Walgreens Anti Itch Cream; Walgreens Original Strength Anti Itch; Warrior First Aid Anti Itch; Weeks and Leo Extra Strength Itch Stopping; Welly Calm Balm; Western Family Itch Relief; Wilzin; WinCo Original Strength Anti-Itch

> <SALTS>
Zinc acetate dihydrate

$$$$
