
  Mrv1909 05201914522D          

 38 40  0  0  0  0            999 V2000
   -4.5888    3.6020    0.0000 H   0  0  0  0  0  0  0  0  0  0  0  0
   -5.0013    2.8875    0.0000 C   0  0  0  0  0  0  0  0  0  0  0  0
   -5.7158    3.3000    0.0000 H   0  0  0  0  0  0  0  0  0  0  0  0
   -5.4138    2.1730    0.0000 H   0  0  0  0  0  0  0  0  0  0  0  0
   -4.2868    2.4750    0.0000 C   0  0  0  0  0  0  0  0  0  0  0  0
   -3.5724    2.0625    0.0000 C   0  0  0  0  0  0  0  0  0  0  0  0
   -2.8579    2.4750    0.0000 C   0  0  0  0  0  0  0  0  0  0  0  0
   -2.1434    2.0625    0.0000 C   0  0  0  0  0  0  0  0  0  0  0  0
   -2.1434    1.2375    0.0000 C   0  0  0  0  0  0  0  0  0  0  0  0
   -1.4289    0.8250    0.0000 N   0  0  0  0  0  0  0  0  0  0  0  0
   -1.4289    0.0000    0.0000 C   0  0  0  0  0  0  0  0  0  0  0  0
   -2.1434   -0.4125    0.0000 O   0  0  0  0  0  0  0  0  0  0  0  0
   -0.7145   -0.4125    0.0000 C   0  0  0  0  0  0  0  0  0  0  0  0
   -0.7145   -1.2375    0.0000 C   0  0  0  0  0  0  0  0  0  0  0  0
    0.0000   -1.6500    0.0000 N   0  0  0  0  0  0  0  0  0  0  0  0
    0.7145   -1.2375    0.0000 C   0  0  0  0  0  0  0  0  0  0  0  0
    0.7145   -0.4125    0.0000 C   0  0  0  0  0  0  0  0  0  0  0  0
    1.4289   -0.0000    0.0000 C   0  0  0  0  0  0  0  0  0  0  0  0
    2.1434   -0.4125    0.0000 C   0  0  0  0  0  0  0  0  0  0  0  0
    2.1434   -1.2375    0.0000 C   0  0  0  0  0  0  0  0  0  0  0  0
    1.4289   -1.6500    0.0000 C   0  0  0  0  0  0  0  0  0  0  0  0
    0.0000   -0.0000    0.0000 C   0  0  0  0  0  0  0  0  0  0  0  0
    0.0000    0.8250    0.0000 O   0  0  0  0  0  0  0  0  0  0  0  0
   -2.8579    0.8250    0.0000 C   0  0  0  0  0  0  0  0  0  0  0  0
   -3.5724    1.2375    0.0000 C   0  0  0  0  0  0  0  0  0  0  0  0
   -4.2868    0.8250    0.0000 O   0  0  0  0  0  0  0  0  0  0  0  0
   -1.4289    2.4750    0.0000 C   0  0  0  0  0  0  0  0  0  0  0  0
   -0.7145    2.8875    0.0000 C   0  0  0  0  0  0  0  0  0  0  0  0
   -1.0164    1.7605    0.0000 C   0  0  0  0  0  0  0  0  0  0  0  0
   -1.8414    3.1895    0.0000 C   0  0  0  0  0  0  0  0  0  0  0  0
   -4.6993    1.7605    0.0000 C   0  0  0  0  0  0  0  0  0  0  0  0
   -5.3538    1.2583    0.0000 H   0  0  0  0  0  0  0  0  0  0  0  0
   -4.4858    0.9636    0.0000 H   0  0  0  0  0  0  0  0  0  0  0  0
   -3.8814    1.6528    0.0000 H   0  0  0  0  0  0  0  0  0  0  0  0
   -3.8743    3.1895    0.0000 C   0  0  0  0  0  0  0  0  0  0  0  0
   -3.3721    2.5350    0.0000 H   0  0  0  0  0  0  0  0  0  0  0  0
   -3.0774    3.4030    0.0000 H   0  0  0  0  0  0  0  0  0  0  0  0
   -3.7666    4.0074    0.0000 H   0  0  0  0  0  0  0  0  0  0  0  0
  1  2  1  0  0  0  0
  2  3  1  0  0  0  0
  2  4  1  0  0  0  0
  2  5  1  0  0  0  0
  5  6  1  0  0  0  0
  6  7  2  0  0  0  0
  7  8  1  0  0  0  0
  8  9  2  0  0  0  0
  9 10  1  0  0  0  0
 10 11  1  0  0  0  0
 11 12  2  0  0  0  0
 11 13  1  0  0  0  0
 13 14  2  0  0  0  0
 14 15  1  0  0  0  0
 15 16  1  0  0  0  0
 16 17  2  0  0  0  0
 17 18  1  0  0  0  0
 18 19  2  0  0  0  0
 19 20  1  0  0  0  0
 20 21  2  0  0  0  0
 16 21  1  0  0  0  0
 17 22  1  0  0  0  0
 13 22  1  0  0  0  0
 22 23  2  0  0  0  0
  9 24  1  0  0  0  0
 24 25  2  0  0  0  0
  6 25  1  0  0  0  0
 25 26  1  0  0  0  0
  8 27  1  0  0  0  0
 27 28  1  0  0  0  0
 27 29  1  0  0  0  0
 27 30  1  0  0  0  0
  5 31  1  0  0  0  0
 31 32  1  0  0  0  0
 31 33  1  0  0  0  0
 31 34  1  0  0  0  0
  5 35  1  0  0  0  0
 35 36  1  0  0  0  0
 35 37  1  0  0  0  0
 35 38  1  0  0  0  0
M  ISO  8   1   2   3   2   4   2  32   2  33   2  34   2  36   2  37   2
M  ISO  1  38   2
M  END
> <DATABASE_ID>
DB15141

> <DATABASE_NAME>
drugbank

> <SMILES>
[2H]C([2H])([2H])C(C1=CC(=C(NC(=O)C2=CNC3=C(C=CC=C3)C2=O)C=C1O)C(C)(C)C)(C([2H])([2H])[2H])C([2H])([2H])[2H]

> <INCHI_IDENTIFIER>
InChI=1S/C24H28N2O3/c1-23(2,3)16-11-17(24(4,5)6)20(27)12-19(16)26-22(29)15-13-25-18-10-8-7-9-14(18)21(15)28/h7-13,27H,1-6H3,(H,25,28)(H,26,29)/i4D3,5D3,6D3

> <INCHI_KEY>
PURKAOJPTOLRMP-ASMGOKTBSA-N

> <FORMULA>
C24H28N2O3

> <MOLECULAR_WEIGHT>
401.554

> <EXACT_MASS>
401.266483483

> <JCHEM_ACCEPTOR_COUNT>
4

> <JCHEM_ATOM_COUNT>
57

> <JCHEM_AVERAGE_POLARIZABILITY>
44.68482736586738

> <JCHEM_BIOAVAILABILITY>
1

> <JCHEM_DONOR_COUNT>
3

> <JCHEM_FORMAL_CHARGE>
0

> <JCHEM_GHOSE_FILTER>
0

> <JCHEM_IUPAC>
N-{2-tert-butyl-5-hydroxy-4-[2-(2H3)methyl(1,1,1,3,3,3-2H6)propan-2-yl]phenyl}-4-oxo-1,4-dihydroquinoline-3-carboxamide

> <ALOGPS_LOGP>
5.00

> <JCHEM_LOGP>
5.758022158000001

> <ALOGPS_LOGS>
-5.29

> <JCHEM_MDDR_LIKE_RULE>
0

> <JCHEM_NUMBER_OF_RINGS>
3

> <JCHEM_PHYSIOLOGICAL_CHARGE>
0

> <JCHEM_PKA>
10.637604691572907

> <JCHEM_PKA_STRONGEST_ACIDIC>
9.660313927140793

> <JCHEM_PKA_STRONGEST_BASIC>
-0.9527882638549875

> <JCHEM_POLAR_SURFACE_AREA>
78.43

> <JCHEM_REFRACTIVITY>
118.683

> <JCHEM_ROTATABLE_BOND_COUNT>
4

> <JCHEM_RULE_OF_FIVE>
0

> <ALOGPS_SOLUBILITY>
2.00e-03 g/l

> <JCHEM_TRADITIONAL_IUPAC>
(2R)-14-fluoro-2-methyl-6,9,10,19-tetraazapentacyclo[14.2.1.0^{2,6}.0^{8,18}.0^{12,17}]nonadeca-1(18),8,12(17),13,15-pentaen-11-one

> <JCHEM_VEBER_RULE>
0

> <DRUGBANK_ID>
DB15141

> <DRUG_GROUPS>
investigational

> <GENERIC_NAME>
Deutivacaftor

> <SYNONYMS>
Deutivacaftor

$$$$
