
  Mrv1652308301620112D          

  1  0  0  0  0  0            999 V2000
    0.0000    0.0000    0.0000 I   0  5  0  0  0  0  0  0  0  0  0  0
M  CHG  1   1  -1
M  ISO  1   1 123
M  END
> <DATABASE_ID>
DB09420

> <DATABASE_NAME>
drugbank

> <SMILES>
[123I-]

> <INCHI_IDENTIFIER>
InChI=1S/HI/h1H/p-1/i1-4

> <INCHI_KEY>
XMBWDFGMSWQBCA-AHCXROLUSA-M

> <FORMULA>
I

> <MOLECULAR_WEIGHT>
122.9061

> <EXACT_MASS>
122.906146524

> <JCHEM_ACCEPTOR_COUNT>
0

> <JCHEM_ATOM_COUNT>
1

> <JCHEM_AVERAGE_POLARIZABILITY>
5.07487188

> <JCHEM_BIOAVAILABILITY>
1

> <JCHEM_DONOR_COUNT>
0

> <JCHEM_FORMAL_CHARGE>
-1

> <JCHEM_GHOSE_FILTER>
0

> <JCHEM_IUPAC>
(123I)iodide

> <JCHEM_LOGP>
1.02055578

> <JCHEM_MDDR_LIKE_RULE>
0

> <JCHEM_NUMBER_OF_RINGS>
0

> <JCHEM_PHYSIOLOGICAL_CHARGE>
-1

> <JCHEM_PKA_STRONGEST_ACIDIC>
-8.999999999999996

> <JCHEM_POLAR_SURFACE_AREA>
0.0

> <JCHEM_REFRACTIVITY>
13.9462

> <JCHEM_ROTATABLE_BOND_COUNT>
0

> <JCHEM_RULE_OF_FIVE>
1

> <JCHEM_TRADITIONAL_IUPAC>
(123I)iodide

> <JCHEM_VEBER_RULE>
1

> <DRUGBANK_ID>
DB09420

> <SECONDARY_ACCESSION_NUMBERS>
DB11240

> <DRUG_GROUPS>
approved

> <GENERIC_NAME>
Iodide I-123

> <SYNONYMS>
123Iâˆ’; I 123; I-123; Iodide ion i-123; Iodine 123; Iodine-123

> <PRODUCTS>
I 123 Mini; Sodium Iodide; Sodium Iodide I 123

> <SALTS>
Sodium iodide I-123

$$$$
