
  Mrv1652306031606212D          

 26 27  0  0  0  0            999 V2000
   13.2730    0.1105    0.0000 C   0  0  0  0  0  0  0  0  0  0  0  0
   12.4480    1.5395    0.0000 C   0  0  0  0  0  0  0  0  0  0  0  0
    5.7158    0.8250    0.0000 C   0  0  0  0  0  0  0  0  0  0  0  0
   10.0026    0.8250    0.0000 C   0  0  0  0  0  0  0  0  0  0  0  0
    6.4302    0.4125    0.0000 C   0  0  0  0  0  0  0  0  0  0  0  0
   15.7184    0.8250    0.0000 C   0  0  0  0  0  0  0  0  0  0  0  0
   15.0039   -0.4125    0.0000 C   0  0  0  0  0  0  0  0  0  0  0  0
   15.0039    1.2375    0.0000 C   0  0  0  0  0  0  0  0  0  0  0  0
   14.2894    0.0000    0.0000 C   0  0  0  0  0  0  0  0  0  0  0  0
    5.7158    1.6500    0.0000 C   0  0  0  0  0  0  0  0  0  0  0  0
    9.2881    0.4125    0.0000 C   0  0  0  0  0  0  0  0  0  0  0  0
   10.7171    0.4125    0.0000 C   0  0  0  0  0  0  0  0  0  0  0  0
    7.1447    1.6500    0.0000 C   0  0  0  0  0  0  0  0  0  0  0  0
    7.1447    0.8250    0.0000 C   0  0  0  0  0  0  0  0  0  0  0  0
   15.7184    0.0000    0.0000 C   0  0  0  0  0  0  0  0  0  0  0  0
   14.2894    0.8250    0.0000 C   0  0  0  0  0  0  0  0  0  0  0  0
    7.8592    0.4125    0.0000 C   0  0  0  0  0  0  0  0  0  0  0  0
   12.1460    0.4125    0.0000 C   0  0  0  0  0  0  0  0  0  0  0  0
   12.8605    0.8250    0.0000 C   0  0  0  0  0  0  0  0  0  0  0  0
   16.4328   -0.4125    0.0000 Cl  0  0  0  0  0  0  0  0  0  0  0  0
    6.4302    2.0625    0.0000 N   0  0  0  0  0  0  0  0  0  0  0  0
    7.8592   -0.4125    0.0000 O   0  0  0  0  0  0  0  0  0  0  0  0
   12.1460   -0.4125    0.0000 O   0  0  0  0  0  0  0  0  0  0  0  0
    8.5737    0.8250    0.0000 O   0  0  0  0  0  0  0  0  0  0  0  0
   11.4315    0.8250    0.0000 O   0  0  0  0  0  0  0  0  0  0  0  0
   13.5749    1.2375    0.0000 O   0  0  0  0  0  0  0  0  0  0  0  0
  5  3  2  0  0  0  0
  8  6  1  0  0  0  0
  9  7  2  0  0  0  0
 10  3  1  0  0  0  0
 11  4  1  0  0  0  0
 12  4  1  0  0  0  0
 14  5  1  0  0  0  0
 14 13  2  0  0  0  0
 15  6  2  0  0  0  0
 15  7  1  0  0  0  0
 16  8  2  0  0  0  0
 16  9  1  0  0  0  0
 17 14  1  0  0  0  0
 19  1  1  0  0  0  0
 19  2  1  0  0  0  0
 19 18  1  0  0  0  0
 20 15  1  0  0  0  0
 21 10  2  0  0  0  0
 21 13  1  0  0  0  0
 22 17  2  0  0  0  0
 23 18  2  0  0  0  0
 24 11  1  0  0  0  0
 24 17  1  0  0  0  0
 25 12  1  0  0  0  0
 25 18  1  0  0  0  0
 26 16  1  0  0  0  0
 26 19  1  0  0  0  0
M  END
> <DATABASE_ID>
DB13460

> <DATABASE_NAME>
drugbank

> <SMILES>
CC(C)(OC1=CC=C(Cl)C=C1)C(=O)OCCCOC(=O)C1=CN=CC=C1

> <INCHI_IDENTIFIER>
InChI=1S/C19H20ClNO5/c1-19(2,26-16-8-6-15(20)7-9-16)18(23)25-12-4-11-24-17(22)14-5-3-10-21-13-14/h3,5-10,13H,4,11-12H2,1-2H3

> <INCHI_KEY>
AYJVGKWCGIYEAK-UHFFFAOYSA-N

> <FORMULA>
C19H20ClNO5

> <MOLECULAR_WEIGHT>
377.82

> <EXACT_MASS>
377.1030004

> <JCHEM_ACCEPTOR_COUNT>
4

> <JCHEM_ATOM_COUNT>
46

> <JCHEM_AVERAGE_POLARIZABILITY>
39.04278978771858

> <JCHEM_BIOAVAILABILITY>
1

> <JCHEM_DONOR_COUNT>
0

> <JCHEM_FORMAL_CHARGE>
0

> <JCHEM_GHOSE_FILTER>
1

> <JCHEM_IUPAC>
3-(pyridine-3-carbonyloxy)propyl 2-(4-chlorophenoxy)-2-methylpropanoate

> <ALOGPS_LOGP>
3.20

> <JCHEM_LOGP>
3.692511868

> <ALOGPS_LOGS>
-4.39

> <JCHEM_MDDR_LIKE_RULE>
0

> <JCHEM_NUMBER_OF_RINGS>
2

> <JCHEM_PHYSIOLOGICAL_CHARGE>
0

> <JCHEM_PKA_STRONGEST_BASIC>
3.2430305278872993

> <JCHEM_POLAR_SURFACE_AREA>
74.72000000000001

> <JCHEM_REFRACTIVITY>
96.20969999999998

> <JCHEM_ROTATABLE_BOND_COUNT>
10

> <JCHEM_RULE_OF_FIVE>
1

> <ALOGPS_SOLUBILITY>
1.53e-02 g/l

> <JCHEM_TRADITIONAL_IUPAC>
ronifibrate

> <JCHEM_VEBER_RULE>
0

> <DRUGBANK_ID>
DB13460

> <DRUG_GROUPS>
experimental

> <GENERIC_NAME>
Ronifibrate

> <SYNONYMS>
Ronifibrate

$$$$
