
  Mrv1909 09142219092D          

 42 43  0  0  1  0            999 V2000
    0.0000   -0.8250    0.0000 O   0  0  0  0  0  0  0  0  0  0  0  0
    0.0000    0.0000    0.0000 S   0  0  0  0  0  0  0  0  0  0  0  0
    0.0000    0.8250    0.0000 O   0  0  0  0  0  0  0  0  0  0  0  0
    0.8250   -0.0000    0.0000 O   0  0  0  0  0  0  0  0  0  0  0  0
   -0.8250    0.0000    0.0000 O   0  0  0  0  0  0  0  0  0  0  0  0
    3.4277    2.8365    0.0000 H   0  0  0  0  0  0  0  0  0  0  0  0
    4.1628    2.4620    0.0000 C   0  0  1  0  0  0  0  0  0  0  0  0
    4.8302    1.9771    0.0000 O   0  0  0  0  0  0  0  0  0  0  0  0
    4.5753    1.1924    0.0000 C   0  0  1  0  0  0  0  0  0  0  0  0
    5.0602    0.5250    0.0000 O   0  0  0  0  0  0  0  0  0  0  0  0
    5.8807    0.6112    0.0000 C   0  0  2  0  0  0  0  0  0  0  0  0
    5.5451   -0.1424    0.0000 H   0  0  0  0  0  0  0  0  0  0  0  0
    6.2162    1.3649    0.0000 C   0  0  1  0  0  0  0  0  0  0  0  0
    5.7313    2.0323    0.0000 O   0  0  0  0  0  0  0  0  0  0  0  0
    7.0367    1.4511    0.0000 C   0  0  2  0  0  0  0  0  0  0  0  0
    7.3723    2.2048    0.0000 N   0  0  0  0  0  0  0  0  0  0  0  0
    7.5216    0.7837    0.0000 C   0  0  0  0  0  0  0  0  0  0  0  0
    7.1861    0.0300    0.0000 C   0  0  2  0  0  0  0  0  0  0  0  0
    7.6710   -0.6374    0.0000 N   0  0  0  0  0  0  0  0  0  0  0  0
    6.3656   -0.0562    0.0000 C   0  0  1  0  0  0  0  0  0  0  0  0
    6.0300   -0.8099    0.0000 O   0  0  0  0  0  0  0  0  0  0  0  0
    6.5150   -1.4773    0.0000 C   0  0  1  0  0  0  0  0  0  0  0  0
    5.6945   -1.5636    0.0000 H   0  0  0  0  0  0  0  0  0  0  0  0
    7.3354   -1.3911    0.0000 O   0  0  0  0  0  0  0  0  0  0  0  0
    7.8204   -2.0585    0.0000 C   0  0  2  0  0  0  0  0  0  0  0  0
    8.3053   -2.7260    0.0000 H   0  0  0  0  0  0  0  0  0  0  0  0
    8.6409   -1.9723    0.0000 C   0  0  1  0  0  0  0  0  0  0  0  0
    9.1258   -2.6397    0.0000 C   0  0  0  0  0  0  0  0  0  0  0  0
    8.9764   -1.2186    0.0000 O   0  0  0  0  0  0  0  0  0  0  0  0
    7.4848   -2.8122    0.0000 C   0  0  1  0  0  0  0  0  0  0  0  0
    7.9697   -3.4796    0.0000 O   0  0  0  0  0  0  0  0  0  0  0  0
    6.6643   -2.8984    0.0000 C   0  0  2  0  0  0  0  0  0  0  0  0
    6.3288   -3.6521    0.0000 O   0  0  0  0  0  0  0  0  0  0  0  0
    6.1794   -2.2310    0.0000 C   0  0  1  0  0  0  0  0  0  0  0  0
    5.3589   -2.3172    0.0000 N   0  0  0  0  0  0  0  0  0  0  0  0
    3.7503    1.1924    0.0000 C   0  0  2  0  0  0  0  0  0  0  0  0
    3.2654    0.5250    0.0000 O   0  0  0  0  0  0  0  0  0  0  0  0
    3.4953    1.9771    0.0000 C   0  0  2  0  0  0  0  0  0  0  0  0
    2.7107    2.2320    0.0000 O   0  0  0  0  0  0  0  0  0  0  0  0
    4.1628    3.2870    0.0000 C   0  0  2  0  0  0  0  0  0  0  0  0
    4.8772    3.6995    0.0000 C   0  0  0  0  0  0  0  0  0  0  0  0
    3.4483    3.6995    0.0000 N   0  0  0  0  0  0  0  0  0  0  0  0
  1  2  1  0  0  0  0
  2  3  1  0  0  0  0
  2  4  2  0  0  0  0
  2  5  2  0  0  0  0
  7  6  1  6  0  0  0
  7  8  1  0  0  0  0
  9  8  1  0  0  0  0
  9 10  1  1  0  0  0
 11 10  1  0  0  0  0
 11 12  1  1  0  0  0
 11 13  1  0  0  0  0
 13 14  1  1  0  0  0
 13 15  1  0  0  0  0
 15 16  1  6  0  0  0
 15 17  1  0  0  0  0
 18 17  1  0  0  0  0
 18 19  1  6  0  0  0
 20 18  1  0  0  0  0
 11 20  1  0  0  0  0
 20 21  1  1  0  0  0
 22 21  1  0  0  0  0
 22 23  1  6  0  0  0
 22 24  1  0  0  0  0
 25 24  1  0  0  0  0
 25 26  1  1  0  0  0
 25 27  1  0  0  0  0
 27 28  1  0  0  0  0
 27 29  1  6  0  0  0
 25 30  1  0  0  0  0
 30 31  1  1  0  0  0
 30 32  1  0  0  0  0
 32 33  1  6  0  0  0
 32 34  1  0  0  0  0
 34 22  1  0  0  0  0
 34 35  1  1  0  0  0
 36  9  1  0  0  0  0
 36 37  1  6  0  0  0
 38 36  1  0  0  0  0
  7 38  1  0  0  0  0
 38 39  1  6  0  0  0
  7 40  1  1  0  0  0
 40 41  1  0  0  0  0
 40 42  1  1  0  0  0
M  END
> <DATABASE_ID>
DB16951

> <DATABASE_NAME>
drugbank

> <SMILES>
OS(O)(=O)=O.[H][C@@]1(O[C@@H](O[C@]2([H])[C@@H](O)[C@H](N)C[C@H](N)[C@H]2O[C@@]2([H])O[C@]([H])([C@@H](C)O)[C@@H](O)[C@H](O)[C@H]2N)[C@H](O)[C@@H]1O)[C@H](C)N

> <INCHI_IDENTIFIER>
InChI=1S/C19H38N4O10.H2O4S/c1-4(20)14-12(28)13(29)19(30-14)33-17-9(25)6(21)3-7(22)16(17)32-18-8(23)10(26)11(27)15(31-18)5(2)24;1-5(2,3)4/h4-19,24-29H,3,20-23H2,1-2H3;(H2,1,2,3,4)/t4-,5+,6+,7-,8+,9-,10+,11-,12-,13+,14+,15+,16+,17+,18+,19-;/m0./s1

> <INCHI_KEY>
BOIAUNVCOPGNOT-STOTURBNSA-N

> <FORMULA>
C19H40N4O14S

> <MOLECULAR_WEIGHT>
580.6

> <EXACT_MASS>
580.226173158

> <JCHEM_ACCEPTOR_COUNT>
14

> <JCHEM_ATOM_COUNT>
78

> <JCHEM_AVERAGE_NEUTRAL_MICROSPECIES_CHARGE>
3.7725420279257804

> <JCHEM_AVERAGE_POLARIZABILITY>
48.33595552930336

> <JCHEM_BIOAVAILABILITY>
0

> <JCHEM_DONOR_COUNT>
10

> <JCHEM_FORMAL_CHARGE>
0

> <JCHEM_GHOSE_FILTER>
0

> <JCHEM_IUPAC>
(2R,3S,4R,5R,6S)-5-amino-6-{[(1R,2R,3S,4R,6S)-4,6-diamino-2-{[(2S,3R,4S,5R)-5-[(1S)-1-aminoethyl]-3,4-dihydroxyoxolan-2-yl]oxy}-3-hydroxycyclohexyl]oxy}-2-[(1R)-1-hydroxyethyl]oxane-3,4-diol; sulfuric acid

> <ALOGPS_LOGP>
-2.49

> <JCHEM_LOGP>
-5.597428457666666

> <ALOGPS_LOGS>
-1.10

> <JCHEM_MDDR_LIKE_RULE>
1

> <JCHEM_NEUTRAL_CHARGE>
4

> <JCHEM_NUMBER_OF_RINGS>
3

> <JCHEM_PHYSIOLOGICAL_CHARGE>
4

> <JCHEM_PKA>
12.955715941843314

> <JCHEM_PKA_STRONGEST_ACIDIC>
12.192570228391949

> <JCHEM_PKA_STRONGEST_BASIC>
9.710182876937566

> <JCHEM_POLAR_SURFACE_AREA>
262.37999999999994

> <JCHEM_REFRACTIVITY>
109.00960000000005

> <JCHEM_ROTATABLE_BOND_COUNT>
6

> <JCHEM_RULE_OF_FIVE>
0

> <ALOGPS_SOLUBILITY>
3.84e+01 g/l

> <JCHEM_TRADITIONAL_IUPAC>
6-cyclopropaneamido-N-[hydroxy(2H2)methyl]-4-{[2-methoxy-3-(1-methyl-1,2,4-triazol-3-yl)phenyl]amino}pyridazine-3-carboxamide

> <JCHEM_VEBER_RULE>
0

> <DRUGBANK_ID>
DB16951

> <DRUG_GROUPS>
investigational

> <GENERIC_NAME>
NB-124 sulfate

> <SYNONYMS>
6'-(r)-methyl-5-o-(5-amino-5,6-dideoxy-a-l-talofuranosyl)- paromamine sulfate; 6'-(r)-methyl-5-o-(5-amino-5,6-dideoxy-alpha-l-talofuranosyl)-paromamine sulfate; D-streptamine, o-5-amino-5,6-dideoxy-.beta.-d-allofuranosyl-(1->5)-o-(2-amino-2,7-dideoxy-d-glycero-.alpha.-d-gluco-heptopyranosyl-(1->4))-2-deoxy-, sulfate; Elx-02 sulfate; Exaluren disulfate; Exaluren sulfate

$$$$
