
  Mrv1718001021812432D          

222224  0  0  0  0            999 V2000
   -9.8631   -6.4218    0.0000 C   0  0  0  0  0  0  0  0  0  0  0  0
   -8.5041   -5.9802    0.0000 C   0  0  0  0  0  0  0  0  0  0  0  0
  -16.0218   -3.6518    0.0000 C   0  0  0  0  0  0  0  0  0  0  0  0
  -16.3189   -5.0496    0.0000 C   0  0  0  0  0  0  0  0  0  0  0  0
   -9.8210   -4.2394    0.0000 C   0  0  0  0  0  0  0  0  0  0  0  0
   -9.5661   -5.0241    0.0000 C   0  0  0  0  0  0  0  0  0  0  0  0
   -9.2690   -3.6263    0.0000 C   0  0  0  0  0  0  0  0  0  0  0  0
    5.1280    0.6177    0.0000 C   0  0  0  0  0  0  0  0  0  0  0  0
    7.3361    3.0701    0.0000 C   0  0  0  0  0  0  0  0  0  0  0  0
    5.3829   -0.1668    0.0000 C   0  0  0  0  0  0  0  0  0  0  0  0
    8.1431    2.8986    0.0000 C   0  0  0  0  0  0  0  0  0  0  0  0
    2.1972    2.7015    0.0000 C   0  0  0  0  0  0  0  0  0  0  0  0
    7.3782    5.2524    0.0000 C   0  0  0  0  0  0  0  0  0  0  0  0
    9.8887    9.0961    0.0000 C   0  0  0  0  0  0  0  0  0  0  0  0
    5.8065    7.7778    0.0000 C   0  0  0  0  0  0  0  0  0  0  0  0
   12.7466    7.4461    0.0000 C   0  0  0  0  0  0  0  0  0  0  0  0
   13.4610    5.3836    0.0000 C   0  0  0  0  0  0  0  0  0  0  0  0
   -8.7591   -5.1956    0.0000 C   0  0  0  0  0  0  0  0  0  0  0  0
   -8.4620   -3.7979    0.0000 C   0  0  0  0  0  0  0  0  0  0  0  0
    4.3210    0.7892    0.0000 C   0  0  0  0  0  0  0  0  0  0  0  0
    6.7841    2.4570    0.0000 C   0  0  0  0  0  0  0  0  0  0  0  0
    1.6451    2.0884    0.0000 C   0  0  0  0  0  0  0  0  0  0  0  0
    6.5713    5.4239    0.0000 C   0  0  0  0  0  0  0  0  0  0  0  0
    9.1742    8.6836    0.0000 C   0  0  0  0  0  0  0  0  0  0  0  0
    5.2544    7.1647    0.0000 C   0  0  0  0  0  0  0  0  0  0  0  0
   12.0321    7.8586    0.0000 C   0  0  0  0  0  0  0  0  0  0  0  0
   12.7466    4.9711    0.0000 C   0  0  0  0  0  0  0  0  0  0  0  0
   -0.4786    4.0007    0.0000 C   0  0  0  0  0  0  0  0  0  0  0  0
   -1.5405    4.9569    0.0000 C   0  0  0  0  0  0  0  0  0  0  0  0
   -4.5536  -11.2025    0.0000 C   0  0  0  0  0  0  0  0  0  0  0  0
   -4.2565   -9.8048    0.0000 C   0  0  0  0  0  0  0  0  0  0  0  0
    0.0733    4.6138    0.0000 C   0  0  0  0  0  0  0  0  0  0  0  0
   -0.9885    5.5700    0.0000 C   0  0  0  0  0  0  0  0  0  0  0  0
   -3.7466  -11.3740    0.0000 C   0  0  0  0  0  0  0  0  0  0  0  0
   -3.4495   -9.9763    0.0000 C   0  0  0  0  0  0  0  0  0  0  0  0
    6.3163    7.8586    0.0000 C   0  0  0  0  0  0  0  0  0  0  0  0
   -8.5885  -10.3449    0.0000 C   0  0  0  0  0  0  0  0  0  0  0  0
    6.3163    8.6836    0.0000 C   0  0  0  0  0  0  0  0  0  0  0  0
   -9.3954  -10.1734    0.0000 C   0  0  0  0  0  0  0  0  0  0  0  0
    6.1899   -0.3383    0.0000 C   0  0  0  0  0  0  0  0  0  0  0  0
    8.6951    3.5117    0.0000 C   0  0  0  0  0  0  0  0  0  0  0  0
    1.9422    3.4862    0.0000 C   0  0  0  0  0  0  0  0  0  0  0  0
    7.9303    5.8655    0.0000 C   0  0  0  0  0  0  0  0  0  0  0  0
    9.8887    9.9211    0.0000 C   0  0  0  0  0  0  0  0  0  0  0  0
    5.5515    8.5624    0.0000 C   0  0  0  0  0  0  0  0  0  0  0  0
   13.4610    7.8586    0.0000 C   0  0  0  0  0  0  0  0  0  0  0  0
   14.1755    4.9711    0.0000 C   0  0  0  0  0  0  0  0  0  0  0  0
   -8.8012   -7.3779    0.0000 C   0  0  0  0  0  0  0  0  0  0  0  0
  -14.9599   -4.6080    0.0000 C   0  0  0  0  0  0  0  0  0  0  0  0
   -7.4001   -4.7540    0.0000 C   0  0  0  0  0  0  0  0  0  0  0  0
   -1.8376    3.5592    0.0000 C   0  0  0  0  0  0  0  0  0  0  0  0
   -5.6155  -10.2464    0.0000 C   0  0  0  0  0  0  0  0  0  0  0  0
   -4.4271   -4.6555    0.0000 C   0  0  0  0  0  0  0  0  0  0  0  0
    0.2861    1.6469    0.0000 C   0  0  0  0  0  0  0  0  0  0  0  0
  -11.2222   -6.8633    0.0000 C   0  0  0  0  0  0  0  0  0  0  0  0
  -11.9870   -4.5095    0.0000 C   0  0  0  0  0  0  0  0  0  0  0  0
   -7.6129   -1.7871    0.0000 C   0  0  0  0  0  0  0  0  0  0  0  0
   -4.2143   -7.6225    0.0000 C   0  0  0  0  0  0  0  0  0  0  0  0
   -4.3007    1.8914    0.0000 C   0  0  0  0  0  0  0  0  0  0  0  0
   -6.2117    0.8367    0.0000 C   0  0  0  0  0  0  0  0  0  0  0  0
   -9.0562   -6.5933    0.0000 C   0  0  0  0  0  0  0  0  0  0  0  0
  -15.7669   -4.4365    0.0000 C   0  0  0  0  0  0  0  0  0  0  0  0
   -8.2071   -4.5825    0.0000 C   0  0  0  0  0  0  0  0  0  0  0  0
   -1.2856    4.1723    0.0000 C   0  0  0  0  0  0  0  0  0  0  0  0
   -4.8085  -10.4179    0.0000 C   0  0  0  0  0  0  0  0  0  0  0  0
   -0.1815    5.3984    0.0000 C   0  0  0  0  0  0  0  0  0  0  0  0
   -3.1946  -10.7609    0.0000 C   0  0  0  0  0  0  0  0  0  0  0  0
   -3.4937    1.7199    0.0000 C   0  0  1  0  0  0  0  0  0  0  0  0
   -5.9568    0.0521    0.0000 C   0  0  1  0  0  0  0  0  0  0  0  0
    1.9001    1.3038    0.0000 C   0  0  1  0  0  0  0  0  0  0  0  0
    4.0660    1.5739    0.0000 C   0  0  1  0  0  0  0  0  0  0  0  0
    5.9771    2.6285    0.0000 C   0  0  1  0  0  0  0  0  0  0  0  0
    6.0192    4.8109    0.0000 C   0  0  1  0  0  0  0  0  0  0  0  0
    9.1742    7.8586    0.0000 C   0  0  1  0  0  0  0  0  0  0  0  0
    5.5094    6.3801    0.0000 C   0  0  1  0  0  0  0  0  0  0  0  0
   11.3176    7.4461    0.0000 C   0  0  1  0  0  0  0  0  0  0  0  0
    7.0308    7.4461    0.0000 C   0  0  1  0  0  0  0  0  0  0  0  0
   -8.0364   -9.7318    0.0000 C   0  0  1  0  0  0  0  0  0  0  0  0
   12.0321    5.3836    0.0000 C   0  0  1  0  0  0  0  0  0  0  0  0
   -9.3533   -7.9910    0.0000 C   0  0  1  0  0  0  0  0  0  0  0  0
   -1.5827    2.7745    0.0000 C   0  0  1  0  0  0  0  0  0  0  0  0
   -6.8480   -4.1409    0.0000 C   0  0  1  0  0  0  0  0  0  0  0  0
   -5.8704   -9.4617    0.0000 C   0  0  1  0  0  0  0  0  0  0  0  0
   -4.9792   -5.2686    0.0000 C   0  0  1  0  0  0  0  0  0  0  0  0
  -14.7050   -5.3926    0.0000 C   0  0  1  0  0  0  0  0  0  0  0  0
  -12.5390   -5.1226    0.0000 C   0  0  1  0  0  0  0  0  0  0  0  0
   -6.8059   -1.9586    0.0000 C   0  0  1  0  0  0  0  0  0  0  0  0
   -5.0213   -7.4509    0.0000 C   0  0  1  0  0  0  0  0  0  0  0  0
    6.2301    9.5041    0.0000 C   0  0  0  0  0  0  0  0  0  0  0  0
   -4.6821   -3.8709    0.0000 C   0  0  0  0  0  0  0  0  0  0  0  0
    0.5411    0.8622    0.0000 C   0  0  0  0  0  0  0  0  0  0  0  0
  -11.4771   -6.0787    0.0000 C   0  0  0  0  0  0  0  0  0  0  0  0
   -9.9475  -10.7864    0.0000 C   0  0  0  0  0  0  0  0  0  0  0  0
   -2.9417    2.3330    0.0000 C   0  0  0  0  0  0  0  0  0  0  0  0
   -6.5088   -0.5609    0.0000 C   0  0  0  0  0  0  0  0  0  0  0  0
  -10.1602   -7.8195    0.0000 C   0  0  0  0  0  0  0  0  0  0  0  0
   -0.7757    2.6030    0.0000 C   0  0  0  0  0  0  0  0  0  0  0  0
    2.7070    1.1323    0.0000 C   0  0  0  0  0  0  0  0  0  0  0  0
    4.6181    2.1869    0.0000 C   0  0  0  0  0  0  0  0  0  0  0  0
    5.7221    3.4131    0.0000 C   0  0  0  0  0  0  0  0  0  0  0  0
    5.2123    4.9824    0.0000 C   0  0  0  0  0  0  0  0  0  0  0  0
    9.8887    7.4461    0.0000 C   0  0  0  0  0  0  0  0  0  0  0  0
    6.3163    6.2086    0.0000 C   0  0  0  0  0  0  0  0  0  0  0  0
   11.3176    6.6211    0.0000 C   0  0  0  0  0  0  0  0  0  0  0  0
    7.7453    7.8586    0.0000 C   0  0  0  0  0  0  0  0  0  0  0  0
   -8.2914   -8.9472    0.0000 C   0  0  0  0  0  0  0  0  0  0  0  0
   -6.6774   -9.2902    0.0000 C   0  0  0  0  0  0  0  0  0  0  0  0
   -6.0411   -4.3124    0.0000 C   0  0  0  0  0  0  0  0  0  0  0  0
   -4.7242   -6.0532    0.0000 C   0  0  0  0  0  0  0  0  0  0  0  0
  -13.3460   -4.9510    0.0000 C   0  0  0  0  0  0  0  0  0  0  0  0
   -6.5510   -2.7432    0.0000 C   0  0  0  0  0  0  0  0  0  0  0  0
   -5.5734   -8.0640    0.0000 C   0  0  0  0  0  0  0  0  0  0  0  0
   11.3176    4.9711    0.0000 C   0  0  0  0  0  0  0  0  0  0  0  0
  -15.2570   -6.0057    0.0000 C   0  0  0  0  0  0  0  0  0  0  0  0
    2.2393    4.8839    0.0000 C   0  0  0  0  0  0  0  0  0  0  0  0
    9.2893    6.3071    0.0000 C   0  0  0  0  0  0  0  0  0  0  0  0
   10.6032   11.1586    0.0000 C   0  0  0  0  0  0  0  0  0  0  0  0
    5.8486    9.9602    0.0000 C   0  0  0  0  0  0  0  0  0  0  0  0
   14.8900    7.8586    0.0000 C   0  0  0  0  0  0  0  0  0  0  0  0
   15.6045    4.9711    0.0000 C   0  0  0  0  0  0  0  0  0  0  0  0
    6.4448   -1.1230    0.0000 N   0  0  0  0  0  0  0  0  0  0  0  0
    9.5021    3.3401    0.0000 N   0  0  0  0  0  0  0  0  0  0  0  0
   -3.2388    0.9353    0.0000 N   0  0  0  0  0  0  0  0  0  0  0  0
   -5.1498   -0.1193    0.0000 N   0  0  0  0  0  0  0  0  0  0  0  0
    6.8975    9.9890    0.0000 N   0  0  0  0  0  0  0  0  0  0  0  0
   -5.4890   -3.6994    0.0000 N   0  0  0  0  0  0  0  0  0  0  0  0
    2.7913    5.4970    0.0000 N   0  0  0  0  0  0  0  0  0  0  0  0
    1.4323    5.0554    0.0000 N   0  0  0  0  0  0  0  0  0  0  0  0
    9.0343    7.0917    0.0000 N   0  0  0  0  0  0  0  0  0  0  0  0
   10.0962    6.1356    0.0000 N   0  0  0  0  0  0  0  0  0  0  0  0
    9.8887   11.5711    0.0000 N   0  0  0  0  0  0  0  0  0  0  0  0
   11.3176   11.5711    0.0000 N   0  0  0  0  0  0  0  0  0  0  0  0
    5.0416   10.1317    0.0000 N   0  0  0  0  0  0  0  0  0  0  0  0
    6.4006   10.5732    0.0000 N   0  0  0  0  0  0  0  0  0  0  0  0
   15.6045    7.4461    0.0000 N   0  0  0  0  0  0  0  0  0  0  0  0
   14.8900    8.6836    0.0000 N   0  0  0  0  0  0  0  0  0  0  0  0
   16.3189    5.3836    0.0000 N   0  0  0  0  0  0  0  0  0  0  0  0
   15.6045    4.1461    0.0000 N   0  0  0  0  0  0  0  0  0  0  0  0
    2.4943    4.0992    0.0000 N   0  0  0  0  0  0  0  0  0  0  0  0
    8.7372    5.6940    0.0000 N   0  0  0  0  0  0  0  0  0  0  0  0
   10.6032   10.3336    0.0000 N   0  0  0  0  0  0  0  0  0  0  0  0
    6.1035    9.1755    0.0000 N   0  0  0  0  0  0  0  0  0  0  0  0
   14.1755    7.4461    0.0000 N   0  0  0  0  0  0  0  0  0  0  0  0
   14.8900    5.3836    0.0000 N   0  0  0  0  0  0  0  0  0  0  0  0
  -10.4152   -7.0349    0.0000 N   0  0  0  0  0  0  0  0  0  0  0  0
   -0.5207    1.8184    0.0000 N   0  0  0  0  0  0  0  0  0  0  0  0
    1.3480    0.6907    0.0000 N   0  0  0  0  0  0  0  0  0  0  0  0
  -12.2841   -5.9072    0.0000 N   0  0  0  0  0  0  0  0  0  0  0  0
    3.2591    1.7454    0.0000 N   0  0  0  0  0  0  0  0  0  0  0  0
    5.4250    2.0154    0.0000 N   0  0  0  0  0  0  0  0  0  0  0  0
    6.2742    4.0262    0.0000 N   0  0  0  0  0  0  0  0  0  0  0  0
    4.9573    5.7670    0.0000 N   0  0  0  0  0  0  0  0  0  0  0  0
   10.6032    7.8586    0.0000 N   0  0  0  0  0  0  0  0  0  0  0  0
    8.4597    7.4461    0.0000 N   0  0  0  0  0  0  0  0  0  0  0  0
    7.0308    6.6211    0.0000 N   0  0  0  0  0  0  0  0  0  0  0  0
   -7.2294   -9.9033    0.0000 N   0  0  0  0  0  0  0  0  0  0  0  0
   12.0321    6.2086    0.0000 N   0  0  0  0  0  0  0  0  0  0  0  0
   -2.1347    2.1614    0.0000 N   0  0  0  0  0  0  0  0  0  0  0  0
   -9.0983   -8.7756    0.0000 N   0  0  0  0  0  0  0  0  0  0  0  0
   -7.1030   -3.3563    0.0000 N   0  0  0  0  0  0  0  0  0  0  0  0
   -5.3184   -8.8487    0.0000 N   0  0  0  0  0  0  0  0  0  0  0  0
   -5.7861   -5.0971    0.0000 N   0  0  0  0  0  0  0  0  0  0  0  0
  -13.8980   -5.5641    0.0000 N   0  0  0  0  0  0  0  0  0  0  0  0
   -6.2539   -1.3455    0.0000 N   0  0  0  0  0  0  0  0  0  0  0  0
   -5.2763   -6.6663    0.0000 N   0  0  0  0  0  0  0  0  0  0  0  0
  -12.2419   -3.7249    0.0000 O   0  0  0  0  0  0  0  0  0  0  0  0
   -7.8678   -1.0024    0.0000 O   0  0  0  0  0  0  0  0  0  0  0  0
   -3.6623   -7.0094    0.0000 O   0  0  0  0  0  0  0  0  0  0  0  0
    0.3704    6.0115    0.0000 O   0  0  0  0  0  0  0  0  0  0  0  0
   -2.3876  -10.9325    0.0000 O   0  0  0  0  0  0  0  0  0  0  0  0
    5.4764    9.8396    0.0000 O   0  0  0  0  0  0  0  0  0  0  0  0
   -4.1300   -3.2578    0.0000 O   0  0  0  0  0  0  0  0  0  0  0  0
   -0.0109    0.2492    0.0000 O   0  0  0  0  0  0  0  0  0  0  0  0
  -10.9251   -5.4656    0.0000 O   0  0  0  0  0  0  0  0  0  0  0  0
   -9.6925  -11.5711    0.0000 O   0  0  0  0  0  0  0  0  0  0  0  0
  -10.7544  -10.6149    0.0000 O   0  0  0  0  0  0  0  0  0  0  0  0
   -3.1966    3.1176    0.0000 O   0  0  0  0  0  0  0  0  0  0  0  0
   -7.3158   -0.3893    0.0000 O   0  0  0  0  0  0  0  0  0  0  0  0
  -10.7123   -8.4326    0.0000 O   0  0  0  0  0  0  0  0  0  0  0  0
   -0.2237    3.2161    0.0000 O   0  0  0  0  0  0  0  0  0  0  0  0
    2.9620    0.3477    0.0000 O   0  0  0  0  0  0  0  0  0  0  0  0
    4.3631    2.9716    0.0000 O   0  0  0  0  0  0  0  0  0  0  0  0
    4.9152    3.5847    0.0000 O   0  0  0  0  0  0  0  0  0  0  0  0
    4.6602    4.3693    0.0000 O   0  0  0  0  0  0  0  0  0  0  0  0
    9.8887    6.6211    0.0000 O   0  0  0  0  0  0  0  0  0  0  0  0
    6.9838    5.7236    0.0000 O   0  0  0  0  0  0  0  0  0  0  0  0
   10.6032    6.2086    0.0000 O   0  0  0  0  0  0  0  0  0  0  0  0
    7.7453    8.6836    0.0000 O   0  0  0  0  0  0  0  0  0  0  0  0
   -7.7393   -8.3341    0.0000 O   0  0  0  0  0  0  0  0  0  0  0  0
   -6.9324   -8.5056    0.0000 O   0  0  0  0  0  0  0  0  0  0  0  0
   -5.9548   -3.4920    0.0000 O   0  0  0  0  0  0  0  0  0  0  0  0
   -3.9173   -6.2247    0.0000 O   0  0  0  0  0  0  0  0  0  0  0  0
  -13.6009   -4.1664    0.0000 O   0  0  0  0  0  0  0  0  0  0  0  0
   -5.7440   -2.9147    0.0000 O   0  0  0  0  0  0  0  0  0  0  0  0
   -6.3803   -7.8925    0.0000 O   0  0  0  0  0  0  0  0  0  0  0  0
   11.3176    4.1461    0.0000 O   0  0  0  0  0  0  0  0  0  0  0  0
   10.6032    5.3836    0.0000 O   0  0  0  0  0  0  0  0  0  0  0  0
  -16.0640   -5.8342    0.0000 O   0  0  0  0  0  0  0  0  0  0  0  0
  -15.0021   -6.7903    0.0000 O   0  0  0  0  0  0  0  0  0  0  0  0
   -4.8527    1.2783    0.0000 S   0  0  0  0  0  0  0  0  0  0  0  0
   -5.6597    1.4498    0.0000 S   0  0  0  0  0  0  0  0  0  0  0  0
   -3.7486    2.5045    0.0000 H   0  0  0  0  0  0  0  0  0  0  0  0
   -6.7637    0.2237    0.0000 H   0  0  0  0  0  0  0  0  0  0  0  0
    2.4521    1.9169    0.0000 H   0  0  0  0  0  0  0  0  0  0  0  0
    4.8730    1.4023    0.0000 H   0  0  0  0  0  0  0  0  0  0  0  0
    6.5291    3.2416    0.0000 H   0  0  0  0  0  0  0  0  0  0  0  0
    5.7643    5.5955    0.0000 H   0  0  0  0  0  0  0  0  0  0  0  0
    9.8887    8.2711    0.0000 H   0  0  0  0  0  0  0  0  0  0  0  0
    6.0614    6.9932    0.0000 H   0  0  0  0  0  0  0  0  0  0  0  0
   12.0321    7.0336    0.0000 H   0  0  0  0  0  0  0  0  0  0  0  0
    7.0308    8.2711    0.0000 H   0  0  0  0  0  0  0  0  0  0  0  0
   -8.8434   -9.5603    0.0000 H   0  0  0  0  0  0  0  0  0  0  0  0
   12.0321    4.5586    0.0000 H   0  0  0  0  0  0  0  0  0  0  0  0
   -9.6082   -7.2064    0.0000 H   0  0  0  0  0  0  0  0  0  0  0  0
   -1.0306    3.3876    0.0000 H   0  0  0  0  0  0  0  0  0  0  0  0
   -6.5931   -4.9255    0.0000 H   0  0  0  0  0  0  0  0  0  0  0  0
   -6.4225  -10.0748    0.0000 H   0  0  0  0  0  0  0  0  0  0  0  0
   -4.1722   -5.4401    0.0000 H   0  0  0  0  0  0  0  0  0  0  0  0
  -15.5120   -5.2211    0.0000 H   0  0  0  0  0  0  0  0  0  0  0  0
  -12.7939   -4.3379    0.0000 H   0  0  0  0  0  0  0  0  0  0  0  0
   -7.3579   -2.5717    0.0000 H   0  0  0  0  0  0  0  0  0  0  0  0
   -4.7664   -8.2356    0.0000 H   0  0  0  0  0  0  0  0  0  0  0  0
  6  5  2  0  0  0  0
  7  5  1  0  0  0  0
 10  8  1  0  0  0  0
 11  9  1  0  0  0  0
 18  6  1  0  0  0  0
 19  7  2  0  0  0  0
 20  8  1  0  0  0  0
 21  9  1  0  0  0  0
 22 12  1  0  0  0  0
 23 13  1  0  0  0  0
 24 14  1  0  0  0  0
 25 15  1  0  0  0  0
 26 16  1  0  0  0  0
 27 17  1  0  0  0  0
 32 28  1  0  0  0  0
 33 29  2  0  0  0  0
 34 30  1  0  0  0  0
 35 31  2  0  0  0  0
 38 36  1  0  0  0  0
 39 37  1  0  0  0  0
 40 10  1  0  0  0  0
 41 11  1  0  0  0  0
 42 12  1  0  0  0  0
 43 13  1  0  0  0  0
 44 14  1  0  0  0  0
 45 15  1  0  0  0  0
 46 16  1  0  0  0  0
 47 17  1  0  0  0  0
 61  1  1  0  0  0  0
 61  2  1  0  0  0  0
 61 48  1  0  0  0  0
 62  3  1  0  0  0  0
 62  4  1  0  0  0  0
 62 49  1  0  0  0  0
 63 18  2  0  0  0  0
 63 19  1  0  0  0  0
 63 50  1  0  0  0  0
 64 28  2  0  0  0  0
 64 29  1  0  0  0  0
 64 51  1  0  0  0  0
 65 30  2  0  0  0  0
 65 31  1  0  0  0  0
 65 52  1  0  0  0  0
 66 32  2  0  0  0  0
 66 33  1  0  0  0  0
 67 34  2  0  0  0  0
 67 35  1  0  0  0  0
 68 59  1  0  0  0  0
 69 60  1  0  0  0  0
 70 22  1  0  0  0  0
 71 20  1  0  0  0  0
 72 21  1  0  0  0  0
 73 23  1  0  0  0  0
 74 24  1  0  0  0  0
 75 25  1  0  0  0  0
 76 26  1  0  0  0  0
 77 36  1  0  0  0  0
 78 37  1  0  0  0  0
 79 27  1  0  0  0  0
 80 48  1  0  0  0  0
 81 51  1  0  0  0  0
 82 50  1  0  0  0  0
 83 52  1  0  0  0  0
 84 53  1  0  0  0  0
 85 49  1  0  0  0  0
 86 56  1  0  0  0  0
 87 57  1  0  0  0  0
 88 58  1  0  0  0  0
 89 38  1  0  0  0  0
 90 53  1  0  0  0  0
 91 54  1  0  0  0  0
 92 55  1  0  0  0  0
 93 39  1  0  0  0  0
 68 94  1  0  0  0  0
 69 95  1  0  0  0  0
 80 96  1  0  0  0  0
 81 97  1  0  0  0  0
 70 98  1  0  0  0  0
 71 99  1  0  0  0  0
 72100  1  0  0  0  0
 73101  1  0  0  0  0
 74102  1  0  0  0  0
 75103  1  0  0  0  0
 76104  1  0  0  0  0
 77105  1  0  0  0  0
 78106  1  0  0  0  0
 83107  1  0  0  0  0
 82108  1  0  0  0  0
 84109  1  0  0  0  0
 86110  1  0  0  0  0
 87111  1  0  0  0  0
 88112  1  0  0  0  0
 79113  1  0  0  0  0
 85114  1  0  0  0  0
121 40  1  0  0  0  0
122 41  1  0  0  0  0
 68123  1  0  0  0  0
 69124  1  0  0  0  0
125 89  2  0  0  0  0
126 90  2  0  0  0  0
127115  2  0  0  0  0
128115  1  0  0  0  0
129116  2  0  0  0  0
130116  1  0  0  0  0
131117  2  0  0  0  0
132117  1  0  0  0  0
133118  2  0  0  0  0
134118  1  0  0  0  0
135119  2  0  0  0  0
136119  1  0  0  0  0
137120  2  0  0  0  0
138120  1  0  0  0  0
139 42  1  0  0  0  0
139115  1  0  0  0  0
140 43  1  0  0  0  0
140116  1  0  0  0  0
141 44  1  0  0  0  0
141117  1  0  0  0  0
142 45  1  0  0  0  0
142118  1  0  0  0  0
143 46  1  0  0  0  0
143119  1  0  0  0  0
144 47  1  0  0  0  0
144120  1  0  0  0  0
145 55  1  4  0  0  0
145 96  2  0  0  0  0
146 54  1  4  0  0  0
146 97  2  0  0  0  0
 70147  1  0  0  0  0
147 91  2  0  0  0  0
 86148  1  0  0  0  0
148 92  2  0  0  0  0
 71149  1  0  0  0  0
149 98  2  0  0  0  0
 72150  1  0  0  0  0
150 99  2  0  0  0  0
 73151  1  0  0  0  0
151100  2  0  0  0  0
 75152  1  0  0  0  0
152101  2  0  0  0  0
 76153  1  0  0  0  0
153102  2  0  0  0  0
 74154  1  0  0  0  0
154105  2  0  0  0  0
 77155  1  0  0  0  0
155103  2  0  0  0  0
 78156  1  0  0  0  0
156107  2  0  0  0  0
 79157  1  0  0  0  0
157104  2  0  0  0  0
 81158  1  0  0  0  0
158 94  2  0  0  0  0
 80159  1  0  0  0  0
159106  2  0  0  0  0
 82160  1  0  0  0  0
160111  2  0  0  0  0
 83161  1  0  0  0  0
161112  2  0  0  0  0
 84162  1  0  0  0  0
162108  2  0  0  0  0
 85163  1  0  0  0  0
163110  2  0  0  0  0
 87164  1  0  0  0  0
164 95  2  0  0  0  0
 88165  1  0  0  0  0
165109  2  0  0  0  0
166 56  1  0  0  0  0
167 57  1  0  0  0  0
168 58  1  0  0  0  0
169 66  1  0  0  0  0
170 67  1  0  0  0  0
171 89  1  0  0  0  0
172 90  1  0  0  0  0
 91173  1  4  0  0  0
 92174  1  4  0  0  0
175 93  2  0  0  0  0
176 93  1  0  0  0  0
 94177  1  4  0  0  0
 95178  1  4  0  0  0
179 96  1  0  0  0  0
180 97  1  0  0  0  0
 98181  1  4  0  0  0
 99182  1  4  0  0  0
100183  1  4  0  0  0
101184  1  4  0  0  0
102185  1  4  0  0  0
103186  1  4  0  0  0
104187  1  4  0  0  0
105188  1  4  0  0  0
106189  1  4  0  0  0
107190  1  4  0  0  0
108191  1  4  0  0  0
109192  1  4  0  0  0
110193  1  4  0  0  0
111194  1  4  0  0  0
112195  1  4  0  0  0
196113  2  0  0  0  0
197113  1  0  0  0  0
198114  2  0  0  0  0
199114  1  0  0  0  0
200 59  1  0  0  0  0
201 60  1  0  0  0  0
201200  1  0  0  0  0
 68202  1  6  0  0  0
 69203  1  1  0  0  0
 70204  1  6  0  0  0
 71205  1  1  0  0  0
 72206  1  1  0  0  0
 73207  1  1  0  0  0
 74208  1  6  0  0  0
 75209  1  6  0  0  0
 76210  1  6  0  0  0
 77211  1  6  0  0  0
 78212  1  6  0  0  0
 79213  1  6  0  0  0
 80214  1  1  0  0  0
 81215  1  6  0  0  0
 82216  1  1  0  0  0
 83217  1  6  0  0  0
 84218  1  6  0  0  0
 85219  1  1  0  0  0
 86220  1  1  0  0  0
 87221  1  1  0  0  0
 88222  1  6  0  0  0
M  END
> <DATABASE_ID>
DB05560

> <DATABASE_NAME>
drugbank

> <SMILES>
[H][C@](N)(CSSC[C@]([H])(N)C(O)=N[C@@]([H])(CC1=CC=C(O)C=C1)C(O)=NCC(O)=N[C@@]([H])(CCCNC(N)=N)C(O)=N[C@@]([H])(CCCCN)C(O)=N[C@@]([H])(CCCCN)C(O)=N[C@@]([H])(CCCNC(N)=N)C(O)=N[C@@]([H])(CCCNC(N)=N)C(O)=N[C@@]([H])(CCC(O)=N)C(O)=N[C@@]([H])(CCCNC(N)=N)C(O)=N[C@@]([H])(CCCNC(N)=N)C(O)=N[C@@]([H])(CCCNC(N)=N)C(O)=O)C(O)=N[C@@]([H])(CO)C(O)=N[C@@]([H])(CC1=CC=CC=C1)C(O)=N[C@@]([H])(CC(O)=N)C(O)=N[C@@]([H])(CO)C(O)=N[C@@]([H])(CC1=CC=C(O)C=C1)C(O)=N[C@@]([H])(CCC(O)=O)C(O)=N[C@@]([H])(CC(C)C)C(O)=NCC(O)=N[C@@]([H])(CO)C(O)=N[C@@]([H])(CC(C)C)C(O)=O

> <INCHI_IDENTIFIER>
InChI=1S/C120H199N45O34S2/c1-61(2)48-80(96(179)145-55-92(174)148-86(56-166)110(193)163-85(114(198)199)49-62(3)4)159-106(189)78(37-39-93(175)176)156-107(190)83(52-65-30-34-67(170)35-31-65)161-112(195)88(58-168)165-109(192)84(53-90(126)172)162-108(191)82(50-63-18-6-5-7-19-63)160-111(194)87(57-167)164-95(178)69(124)60-201-200-59-68(123)94(177)158-81(51-64-28-32-66(169)33-29-64)97(180)146-54-91(173)147-70(22-12-42-139-115(127)128)98(181)149-71(20-8-10-40-121)99(182)150-72(21-9-11-41-122)100(183)151-73(23-13-43-140-116(129)130)101(184)152-75(25-15-45-142-118(133)134)103(186)155-77(36-38-89(125)171)105(188)154-74(24-14-44-141-117(131)132)102(185)153-76(26-16-46-143-119(135)136)104(187)157-79(113(196)197)27-17-47-144-120(137)138/h5-7,18-19,28-35,61-62,68-88,166-170H,8-17,20-27,36-60,121-124H2,1-4H3,(H2,125,171)(H2,126,172)(H,145,179)(H,146,180)(H,147,173)(H,148,174)(H,149,181)(H,150,182)(H,151,183)(H,152,184)(H,153,185)(H,154,188)(H,155,186)(H,156,190)(H,157,187)(H,158,177)(H,159,189)(H,160,194)(H,161,195)(H,162,191)(H,163,193)(H,164,178)(H,165,192)(H,175,176)(H,196,197)(H,198,199)(H4,127,128,139)(H4,129,130,140)(H4,131,132,141)(H4,133,134,142)(H4,135,136,143)(H4,137,138,144)/t68-,69-,70-,71-,72-,73-,74-,75-,76-,77-,78-,79-,80-,81-,82-,83-,84-,85-,86-,87-,88-/m0/s1

> <INCHI_KEY>
XPXZTVWPRKJTAA-PJKOMPQUSA-N

> <FORMULA>
C120H199N45O34S2

> <MOLECULAR_WEIGHT>
2880.31

> <EXACT_MASS>
2878.466751016

> <JCHEM_ACCEPTOR_COUNT>
79

> <JCHEM_ATOM_COUNT>
400

> <JCHEM_AVERAGE_POLARIZABILITY>
298.14836030179987

> <JCHEM_BIOAVAILABILITY>
0

> <JCHEM_DONOR_COUNT>
55

> <JCHEM_FORMAL_CHARGE>
0

> <JCHEM_GHOSE_FILTER>
0

> <JCHEM_IUPAC>
(2S)-2-{[(2S)-2-[(2-{[(2S)-2-{[(2S)-2-{[(2S)-2-{[(2S)-2-{[(2S)-2-{[(2S)-2-{[(2S)-2-{[(2R)-2-amino-3-{[(2R)-2-amino-2-{[(1S)-1-[({[(1S)-1-{[(1S)-5-amino-1-{[(1S)-5-amino-1-{[(1S)-4-carbamimidamido-1-{[(1S)-4-carbamimidamido-1-{[(1S)-1-{[(1S)-4-carbamimidamido-1-{[(1S)-4-carbamimidamido-1-{[(1S)-4-carbamimidamido-1-carboxybutyl]-C-hydroxycarbonimidoyl}butyl]-C-hydroxycarbonimidoyl}butyl]-C-hydroxycarbonimidoyl}-3-(C-hydroxycarbonimidoyl)propyl]-C-hydroxycarbonimidoyl}butyl]-C-hydroxycarbonimidoyl}butyl]-C-hydroxycarbonimidoyl}pentyl]-C-hydroxycarbonimidoyl}pentyl]-C-hydroxycarbonimidoyl}-4-carbamimidamidobutyl]-C-hydroxycarbonimidoyl}methyl)-C-hydroxycarbonimidoyl]-2-(4-hydroxyphenyl)ethyl]-C-hydroxycarbonimidoyl}ethyl]disulfanyl}-1-hydroxypropylidene]amino}-1,3-dihydroxypropylidene]amino}-1-hydroxy-3-phenylpropylidene]amino}-1-hydroxy-3-(C-hydroxycarbonimidoyl)propylidene]amino}-1,3-dihydroxypropylidene]amino}-1-hydroxy-3-(4-hydroxyphenyl)propylidene]amino}-4-carboxy-1-hydroxybutylidene]amino}-1-hydroxy-4-methylpentylidene]amino}-1-hydroxyethylidene)amino]-1,3-dihydroxypropylidene]amino}-4-methylpentanoic acid

> <ALOGPS_LOGP>
-0.42

> <JCHEM_LOGP>
-3.725012454601804

> <ALOGPS_LOGS>
-4.39

> <JCHEM_MDDR_LIKE_RULE>
1

> <JCHEM_NUMBER_OF_RINGS>
3

> <JCHEM_PHYSIOLOGICAL_CHARGE>
1

> <JCHEM_PKA>
3.532714121112598

> <JCHEM_PKA_STRONGEST_ACIDIC>
2.915099407988439

> <JCHEM_PKA_STRONGEST_BASIC>
12.69462426424944

> <JCHEM_POLAR_SURFACE_AREA>
1461.0800000000006

> <JCHEM_REFRACTIVITY>
818.195200000001

> <JCHEM_ROTATABLE_BOND_COUNT>
102

> <JCHEM_RULE_OF_FIVE>
0

> <ALOGPS_SOLUBILITY>
1.17e-01 g/l

> <JCHEM_TRADITIONAL_IUPAC>
(2S)-2-{[(2S)-2-[(2-{[(2S)-2-{[(2S)-2-{[(2S)-2-{[(2S)-2-{[(2S)-2-{[(2S)-2-{[(2S)-2-{[(2R)-2-amino-3-{[(2R)-2-amino-2-{[(1S)-1-[({[(1S)-1-{[(1S)-5-amino-1-{[(1S)-5-amino-1-{[(1S)-4-carbamimidamido-1-{[(1S)-4-carbamimidamido-1-{[(1S)-1-{[(1S)-4-carbamimidamido-1-{[(1S)-4-carbamimidamido-1-{[(1S)-4-carbamimidamido-1-carboxybutyl]-C-hydroxycarbonimidoyl}butyl]-C-hydroxycarbonimidoyl}butyl]-C-hydroxycarbonimidoyl}-3-(C-hydroxycarbonimidoyl)propyl]-C-hydroxycarbonimidoyl}butyl]-C-hydroxycarbonimidoyl}butyl]-C-hydroxycarbonimidoyl}pentyl]-C-hydroxycarbonimidoyl}pentyl]-C-hydroxycarbonimidoyl}-4-carbamimidamidobutyl]-C-hydroxycarbonimidoyl}methyl)-C-hydroxycarbonimidoyl]-2-(4-hydroxyphenyl)ethyl]-C-hydroxycarbonimidoyl}ethyl]disulfanyl}-1-hydroxypropylidene]amino}-1,3-dihydroxypropylidene]amino}-1-hydroxy-3-phenylpropylidene]amino}-1-hydroxy-3-(C-hydroxycarbonimidoyl)propylidene]amino}-1,3-dihydroxypropylidene]amino}-1-hydroxy-3-(4-hydroxyphenyl)propylidene]amino}-4-carboxy-1-hydroxybutylidene]amino}-1-hydroxy-4-methylpentylidene]amino}-1-hydroxyethylidene)amino]-1,3-dihydroxypropylidene]amino}-4-methylpentanoic acid

> <JCHEM_VEBER_RULE>
0

> <DRUGBANK_ID>
DB05560

> <DRUG_GROUPS>
investigational

> <GENERIC_NAME>
Delcasertib

> <SYNONYMS>
Delcasertib

$$$$
