
  Mrv1909 09142222082D          

  6  5  0  0  0  0            999 V2000
    1.6500   -1.4289    0.0000 C   0  0  0  0  0  0  0  0  0  0  0  0
    1.2375   -0.7145    0.0000 C   0  0  0  0  0  0  0  0  0  0  0  0
    1.9520   -0.3020    0.0000 C   0  0  0  0  0  0  0  0  0  0  0  0
    0.5230   -1.1270    0.0000 C   0  0  0  0  0  0  0  0  0  0  0  0
    0.8250    0.0000    0.0000 N   0  0  0  0  0  0  0  0  0  0  0  0
    0.0000    0.0000    0.0000 O   0  0  0  0  0  0  0  0  0  0  0  0
  1  2  1  0  0  0  0
  2  3  1  0  0  0  0
  2  4  1  0  0  0  0
  2  5  1  0  0  0  0
  5  6  1  0  0  0  0
M  END
> <DATABASE_ID>
DB16957

> <DATABASE_NAME>
drugbank

> <SMILES>
CC(C)(C)NO

> <INCHI_IDENTIFIER>
InChI=1S/C4H11NO/c1-4(2,3)5-6/h5-6H,1-3H3

> <INCHI_KEY>
XWESXZZECGOXDQ-UHFFFAOYSA-N

> <FORMULA>
C4H11NO

> <MOLECULAR_WEIGHT>
89.138

> <EXACT_MASS>
89.084063978

> <JCHEM_ACCEPTOR_COUNT>
2

> <JCHEM_ATOM_COUNT>
17

> <JCHEM_AVERAGE_NEUTRAL_MICROSPECIES_CHARGE>
0.01563478456373239

> <JCHEM_AVERAGE_POLARIZABILITY>
10.287466999517573

> <JCHEM_BIOAVAILABILITY>
1

> <JCHEM_DONOR_COUNT>
2

> <JCHEM_FORMAL_CHARGE>
0

> <JCHEM_GHOSE_FILTER>
0

> <JCHEM_IUPAC>
N-tert-butylhydroxylamine

> <ALOGPS_LOGP>
0.38

> <JCHEM_LOGP>
0.5371393336666668

> <ALOGPS_LOGS>
0.64

> <JCHEM_MDDR_LIKE_RULE>
0

> <JCHEM_NEUTRAL_CHARGE>
0

> <JCHEM_NUMBER_OF_RINGS>
0

> <JCHEM_PHYSIOLOGICAL_CHARGE>
0

> <JCHEM_PKA_STRONGEST_ACIDIC>
15.316015376530654

> <JCHEM_PKA_STRONGEST_BASIC>
5.200935775551759

> <JCHEM_POLAR_SURFACE_AREA>
32.26

> <JCHEM_REFRACTIVITY>
35.9818

> <JCHEM_ROTATABLE_BOND_COUNT>
1

> <JCHEM_RULE_OF_FIVE>
1

> <ALOGPS_SOLUBILITY>
3.90e+02 g/l

> <JCHEM_TRADITIONAL_IUPAC>
6-cyclopropaneamido-N-[hydroxy(2H2)methyl]-4-{[2-methoxy-3-(1-methyl-1,2,4-triazol-3-yl)phenyl]amino}pyridazine-3-carboxamide

> <JCHEM_VEBER_RULE>
1

> <DRUGBANK_ID>
DB16957

> <DRUG_GROUPS>
investigational

> <GENERIC_NAME>
N-T-Butylhydroxylamine

> <SYNONYMS>
2-hydroxylamino-2-methylpropane; N-hydroxy-2-methyl-2-propanamine; N-hydroxy-tert-butylamine; N-tert-Butylhydroxylamine

$$$$
