
  Mrv1909 10112218212D          

 35 39  0  0  1  0            999 V2000
    6.2388   -1.3480    0.0000 H   0  0  0  0  0  0  0  0  0  0  0  0
    5.8263   -2.0625    0.0000 C   0  0  2  0  0  0  0  0  0  0  0  0
    5.4138   -2.7770    0.0000 C   0  0  0  0  0  0  0  0  0  0  0  0
    4.5888   -2.7770    0.0000 C   0  0  1  0  0  0  0  0  0  0  0  0
    4.7321   -3.5894    0.0000 C   0  0  0  0  0  0  0  0  0  0  0  0
    4.1763   -2.0625    0.0000 C   0  0  0  0  0  0  0  0  0  0  0  0
    4.5888   -1.3480    0.0000 C   0  0  0  0  0  0  0  0  0  0  0  0
    5.4138   -1.3480    0.0000 C   0  0  1  0  0  0  0  0  0  0  0  0
    5.0013   -0.6336    0.0000 C   0  0  0  0  0  0  0  0  0  0  0  0
    5.8263   -0.6336    0.0000 C   0  0  0  0  0  0  0  0  0  0  0  0
    6.6513   -0.6336    0.0000 C   0  0  0  0  0  0  0  0  0  0  0  0
    7.0638   -1.3480    0.0000 C   0  0  2  0  0  0  0  0  0  0  0  0
    7.4763   -0.6336    0.0000 C   0  0  0  0  0  0  0  0  0  0  0  0
    7.8888   -1.3480    0.0000 C   0  0  0  0  0  0  0  0  0  0  0  0
    8.3013   -0.6336    0.0000 C   0  0  0  0  0  0  0  0  0  0  0  0
    9.1263   -0.6336    0.0000 C   0  0  0  0  0  0  0  0  0  0  0  0
    9.5388   -1.3480    0.0000 C   0  0  0  0  0  0  0  0  0  0  0  0
   10.3638   -1.3480    0.0000 C   0  0  0  0  0  0  0  0  0  0  0  0
   10.7763   -0.6336    0.0000 C   0  0  0  0  0  0  0  0  0  0  0  0
   10.7763   -2.0625    0.0000 C   0  0  0  0  0  0  0  0  0  0  0  0
   11.6013   -2.0625    0.0000 O   0  0  0  0  0  0  0  0  0  0  0  0
   10.3638   -2.7770    0.0000 C   0  0  0  0  0  0  0  0  0  0  0  0
   10.7763   -3.4914    0.0000 O   0  0  0  0  0  0  0  0  0  0  0  0
    9.5388   -2.7770    0.0000 C   0  0  0  0  0  0  0  0  0  0  0  0
    9.1263   -2.0625    0.0000 C   0  0  0  0  0  0  0  0  0  0  0  0
    8.3013   -2.0625    0.0000 C   0  0  1  0  0  0  0  0  0  0  0  0
    8.7138   -2.7770    0.0000 C   0  0  0  0  0  0  0  0  0  0  0  0
    7.8888   -2.7770    0.0000 C   0  0  0  0  0  0  0  0  0  0  0  0
    7.0638   -2.7770    0.0000 C   0  0  0  0  0  0  0  0  0  0  0  0
    6.6513   -2.0625    0.0000 C   0  0  1  0  0  0  0  0  0  0  0  0
    6.2388   -2.7770    0.0000 C   0  0  0  0  0  0  0  0  0  0  0  0
    3.8136   -3.0591    0.0000 C   0  0  0  0  0  0  0  0  0  0  0  0
    3.6703   -3.8716    0.0000 O   0  0  0  0  0  0  0  0  0  0  0  0
    3.1816   -2.5288    0.0000 O   0  0  0  0  0  0  0  0  0  0  0  0
    2.4063   -2.8110    0.0000 C   0  0  0  0  0  0  0  0  0  0  0  0
  2  1  1  1  0  0  0
  2  3  1  0  0  0  0
  4  3  1  0  0  0  0
  4  5  1  1  0  0  0
  4  6  1  0  0  0  0
  6  7  1  0  0  0  0
  8  7  1  0  0  0  0
  2  8  1  0  0  0  0
  8  9  1  1  0  0  0
  8 10  1  0  0  0  0
 10 11  1  0  0  0  0
 12 11  1  0  0  0  0
 12 13  1  1  0  0  0
 12 14  1  0  0  0  0
 14 15  2  0  0  0  0
 15 16  1  0  0  0  0
 16 17  2  0  0  0  0
 17 18  1  0  0  0  0
 18 19  1  0  0  0  0
 18 20  2  0  0  0  0
 20 21  1  0  0  0  0
 20 22  1  0  0  0  0
 22 23  2  0  0  0  0
 22 24  1  0  0  0  0
 24 25  2  0  0  0  0
 17 25  1  0  0  0  0
 26 25  1  0  0  0  0
 26 14  1  0  0  0  0
 26 27  1  1  0  0  0
 26 28  1  0  0  0  0
 28 29  1  0  0  0  0
 30 29  1  0  0  0  0
  2 30  1  0  0  0  0
 30 12  1  0  0  0  0
 30 31  1  6  0  0  0
  4 32  1  6  0  0  0
 32 33  2  0  0  0  0
 32 34  1  0  0  0  0
 34 35  1  0  0  0  0
M  END
> <DATABASE_ID>
DB17049

> <DATABASE_NAME>
drugbank

> <SMILES>
[H][C@@]12C[C@@](C)(CC[C@]1(C)CC[C@]1(C)C3=CC=C4C(C)=C(O)C(=O)C=C4[C@]3(C)CC[C@@]21C)C(=O)OC

> <INCHI_IDENTIFIER>
InChI=1S/C30H40O4/c1-18-19-8-9-22-28(4,20(19)16-21(31)24(18)32)13-15-30(6)23-17-27(3,25(33)34-7)11-10-26(23,2)12-14-29(22,30)5/h8-9,16,23,32H,10-15,17H2,1-7H3/t23-,26-,27-,28+,29-,30+/m1/s1

> <INCHI_KEY>
JFACETXYABVHFD-WXPPGMDDSA-N

> <FORMULA>
C30H40O4

> <MOLECULAR_WEIGHT>
464.646

> <EXACT_MASS>
464.292659768

> <JCHEM_ACCEPTOR_COUNT>
3

> <JCHEM_ATOM_COUNT>
74

> <JCHEM_AVERAGE_NEUTRAL_MICROSPECIES_CHARGE>
-0.0017646049386010113

> <JCHEM_AVERAGE_POLARIZABILITY>
53.356226191773125

> <JCHEM_BIOAVAILABILITY>
1

> <JCHEM_DONOR_COUNT>
1

> <JCHEM_FORMAL_CHARGE>
0

> <JCHEM_GHOSE_FILTER>
0

> <JCHEM_IUPAC>
methyl (2R,4aS,6aS,12bR,14aS,14bR)-10-hydroxy-2,4a,6a,9,12b,14a-hexamethyl-11-oxo-1,2,3,4,4a,5,6,6a,11,12b,13,14,14a,14b-tetradecahydropicene-2-carboxylate

> <ALOGPS_LOGP>
6.60

> <JCHEM_LOGP>
5.476367878333336

> <ALOGPS_LOGS>
-5.63

> <JCHEM_MDDR_LIKE_RULE>
0

> <JCHEM_NEUTRAL_CHARGE>
0

> <JCHEM_NUMBER_OF_RINGS>
5

> <JCHEM_PHYSIOLOGICAL_CHARGE>
0

> <JCHEM_PKA_STRONGEST_ACIDIC>
9.752585316784335

> <JCHEM_PKA_STRONGEST_BASIC>
-3.4624791824385315

> <JCHEM_POLAR_SURFACE_AREA>
63.599999999999994

> <JCHEM_REFRACTIVITY>
137.51519999999996

> <JCHEM_ROTATABLE_BOND_COUNT>
2

> <JCHEM_RULE_OF_FIVE>
0

> <ALOGPS_SOLUBILITY>
1.09e-03 g/l

> <JCHEM_TRADITIONAL_IUPAC>
6-cyclopropaneamido-N-[hydroxy(2H2)methyl]-4-{[2-methoxy-3-(1-methyl-1,2,4-triazol-3-yl)phenyl]amino}pyridazine-3-carboxamide

> <JCHEM_VEBER_RULE>
0

> <DRUGBANK_ID>
DB17049

> <DRUG_GROUPS>
investigational

> <GENERIC_NAME>
Pristimerin

> <SYNONYMS>
(9.beta.,13.alpha.,14.beta.,20.alpha.)-3-hydroxy-9,13-dimethyl-2-oxo-24,25,26-trinoroleana-1(10),3,5,7-tetraen-29-oic acid; 24,25,26-trinoroleana-1(10),3,5,7-tetraen-29-oic acid, 3-hydroxy-9,13-dimethyl-2-oxo-, methyl ester, (9.beta.,13.alpha.,14.beta.,20.alpha.)-; Celastrol methyl ester

$$$$
