       
  Mrv1652309201718072D          

 35 38  0  0  0  0            999 V2000
   28.9897  -19.5151    0.0000 C   0  0  0  0  0  0  0  0  0  0  0  0
   28.9897  -20.3516    0.0000 C   0  0  0  0  0  0  0  0  0  0  0  0
   29.7007  -20.7698    0.0000 C   0  0  0  0  0  0  0  0  0  0  0  0
   30.4535  -20.3516    0.0000 C   0  0  0  0  0  0  0  0  0  0  0  0
   30.4535  -19.5151    0.0000 C   0  0  0  0  0  0  0  0  0  0  0  0
   29.7007  -19.0969    0.0000 C   0  0  0  0  0  0  0  0  0  0  0  0
   31.8755  -20.3516    0.0000 C   0  0  0  0  0  0  0  0  0  0  0  0
   31.8755  -19.5151    0.0000 C   0  0  0  0  0  0  0  0  0  0  0  0
   31.1646  -19.0969    0.0000 C   0  0  0  0  0  0  0  0  0  0  0  0
   32.6284  -20.7698    0.0000 C   0  0  0  0  0  0  0  0  0  0  0  0
   33.3394  -20.3516    0.0000 C   0  0  0  0  0  0  0  0  0  0  0  0
   33.3394  -19.5151    0.0000 C   0  0  0  0  0  0  0  0  0  0  0  0
   32.6284  -19.0969    0.0000 C   0  0  0  0  0  0  0  0  0  0  0  0
   31.1646  -18.2604    0.0000 C   0  0  0  0  0  0  0  0  0  0  0  0
   31.8755  -17.8421    0.0000 C   0  0  0  0  0  0  0  0  0  0  0  0
   31.8755  -17.0056    0.0000 C   0  0  0  0  0  0  0  0  0  0  0  0
   31.1646  -16.5873    0.0000 N   0  0  0  0  0  0  0  0  0  0  0  0
   30.4535  -17.0056    0.0000 C   0  0  0  0  0  0  0  0  0  0  0  0
   30.4535  -17.8421    0.0000 C   0  0  0  0  0  0  0  0  0  0  0  0
   30.4535  -18.6786    0.0000 O   0  0  0  0  0  0  0  0  0  0  0  0
   31.1646  -15.7509    0.0000 C   0  0  0  0  0  0  0  0  0  0  0  0
   31.9174  -15.3326    0.0000 C   0  0  0  0  0  0  0  0  0  0  0  0
   32.6284  -15.7509    0.0000 C   0  0  0  0  0  0  0  0  0  0  0  0
   33.3394  -15.3326    0.0000 C   0  0  0  0  0  0  0  0  0  0  0  0
   34.0505  -15.7509    0.0000 C   0  0  0  0  0  0  0  0  0  0  0  0
   33.3394  -14.4962    0.0000 O   0  0  0  0  0  0  0  0  0  0  0  0
   34.0505  -16.5873    0.0000 C   0  0  0  0  0  0  0  0  0  0  0  0
   34.7614  -17.0056    0.0000 C   0  0  0  0  0  0  0  0  0  0  0  0
   35.4725  -16.5873    0.0000 C   0  0  0  0  0  0  0  0  0  0  0  0
   35.4725  -15.7509    0.0000 C   0  0  0  0  0  0  0  0  0  0  0  0
   34.7614  -15.3326    0.0000 C   0  0  0  0  0  0  0  0  0  0  0  0
   36.2253  -17.0056    0.0000 C   0  0  0  0  0  0  0  0  0  0  0  0
   36.9363  -17.4238    0.0000 C   0  0  0  0  0  0  0  0  0  0  0  0
   35.8070  -17.7585    0.0000 C   0  0  0  0  0  0  0  0  0  0  0  0
   36.6435  -16.2946    0.0000 C   0  0  0  0  0  0  0  0  0  0  0  0
  1  2  2  0  0  0  0
  2  3  1  0  0  0  0
  3  4  2  0  0  0  0
  4  5  1  0  0  0  0
  5  6  2  0  0  0  0
  1  6  1  0  0  0  0
  7  8  1  0  0  0  0
  8  9  1  0  0  0  0
  5  9  1  0  0  0  0
  7 10  2  0  0  0  0
 10 11  1  0  0  0  0
 11 12  2  0  0  0  0
 12 13  1  0  0  0  0
  8 13  2  0  0  0  0
  9 14  1  0  0  0  0
 14 15  1  0  0  0  0
 15 16  1  0  0  0  0
 16 17  1  0  0  0  0
 17 18  1  0  0  0  0
 18 19  1  0  0  0  0
 14 19  1  0  0  0  0
  9 20  1  0  0  0  0
 17 21  1  0  0  0  0
 21 22  1  0  0  0  0
 22 23  1  0  0  0  0
 23 24  1  0  0  0  0
 24 25  1  0  0  0  0
 24 26  1  0  0  0  0
 25 27  2  0  0  0  0
 27 28  1  0  0  0  0
 28 29  2  0  0  0  0
 29 30  1  0  0  0  0
 30 31  2  0  0  0  0
 25 31  1  0  0  0  0
 29 32  1  0  0  0  0
 32 33  1  0  0  0  0
 32 34  1  0  0  0  0
 32 35  1  0  0  0  0
M  END
> <DATABASE_ID>
DB00342

> <DATABASE_NAME>
drugbank

> <SMILES>
CC(C)(C)C1=CC=C(C=C1)C(O)CCCN1CCC(CC1)C(O)(C1=CC=CC=C1)C1=CC=CC=C1

> <INCHI_IDENTIFIER>
InChI=1S/C32H41NO2/c1-31(2,3)26-18-16-25(17-19-26)30(34)15-10-22-33-23-20-29(21-24-33)32(35,27-11-6-4-7-12-27)28-13-8-5-9-14-28/h4-9,11-14,16-19,29-30,34-35H,10,15,20-24H2,1-3H3

> <INCHI_KEY>
GUGOEEXESWIERI-UHFFFAOYSA-N

> <FORMULA>
C32H41NO2

> <MOLECULAR_WEIGHT>
471.6734

> <EXACT_MASS>
471.313729561

> <JCHEM_ACCEPTOR_COUNT>
3

> <JCHEM_ATOM_COUNT>
76

> <JCHEM_AVERAGE_POLARIZABILITY>
56.45178022243013

> <JCHEM_BIOAVAILABILITY>
1

> <JCHEM_DONOR_COUNT>
2

> <JCHEM_FORMAL_CHARGE>
0

> <JCHEM_GHOSE_FILTER>
0

> <JCHEM_IUPAC>
1-(4-tert-butylphenyl)-4-[4-(hydroxydiphenylmethyl)piperidin-1-yl]butan-1-ol

> <ALOGPS_LOGP>
5.89

> <JCHEM_LOGP>
6.4791090759999985

> <ALOGPS_LOGS>
-6.01

> <JCHEM_MDDR_LIKE_RULE>
1

> <JCHEM_NUMBER_OF_RINGS>
4

> <JCHEM_PHYSIOLOGICAL_CHARGE>
1

> <JCHEM_PKA>
14.524962934427215

> <JCHEM_PKA_STRONGEST_ACIDIC>
13.197068104137273

> <JCHEM_PKA_STRONGEST_BASIC>
9.02298591531735

> <JCHEM_POLAR_SURFACE_AREA>
43.7

> <JCHEM_REFRACTIVITY>
146.26740000000007

> <JCHEM_ROTATABLE_BOND_COUNT>
9

> <JCHEM_RULE_OF_FIVE>
0

> <ALOGPS_SOLUBILITY>
4.58e-04 g/l

> <JCHEM_TRADITIONAL_IUPAC>
terfenadine

> <JCHEM_VEBER_RULE>
0

> <DRUGBANK_ID>
DB00342

> <SECONDARY_ACCESSION_NUMBERS>
APRD00606

> <DRUG_GROUPS>
approved; withdrawn

> <GENERIC_NAME>
Terfenadine

> <SYNONYMS>
(RS)-1-(4-tert-butylphenyl)-4-{4-[hydroxy(diphenyl)methyl]piperidin-1-yl}-butan-1-ol; Terfenadin; Terfenadina; TerfÃ©nadine; Terfenadine; Terfenadinum

> <PRODUCTS>
Allergy Relief; Allergy Relief Once A Day Allergy Caplet 120mg; Apo-terfenadine Tab 120mg; Apo-terfenadine Tablets 60mg; Novo-terfenadine Tab 60mg; Seldane - Sus 30mg/5ml; Seldane - Tab 60mg; Seldane 120mg Once-A-day Caplets; Seldane Sus 6mg/ml; Seldane Tab 120mg; Seldane Tab 60mg

> <INTERNATIONAL_BRANDS>
Bronal; Daylert; Seldane; Servinin; Teldane; Terfed; Terfenadin AL; Terfenadine FLX; Terfin; Ternadin; Trexyl; Triludan

$$$$
