
  Mrv1909 09051916272D          

  2  0  0  0  0  0            999 V2000
    0.4125    0.0000    0.0000 F   0  5  0  0  0  0  0  0  0  0  0  0
   -0.4125    0.0000    0.0000 Na  0  3  0  0  0  0  0  0  0  0  0  0
M  CHG  2   1  -1   2   1
M  END
> <DATABASE_ID>
DB09325

> <DATABASE_NAME>
drugbank

> <SMILES>
[F-].[Na+]

> <INCHI_IDENTIFIER>
InChI=1S/FH.Na/h1H;/q;+1/p-1

> <INCHI_KEY>
PUZPDOWCWNUUKD-UHFFFAOYSA-M

> <FORMULA>
FNa

> <MOLECULAR_WEIGHT>
41.9882

> <EXACT_MASS>
41.98817288

> <JCHEM_ACCEPTOR_COUNT>
0

> <JCHEM_ATOM_COUNT>
2

> <JCHEM_AVERAGE_POLARIZABILITY>
0.43590066

> <JCHEM_BIOAVAILABILITY>
1

> <JCHEM_DONOR_COUNT>
0

> <JCHEM_FORMAL_CHARGE>
0

> <JCHEM_GHOSE_FILTER>
0

> <JCHEM_IUPAC>
sodium fluoride

> <JCHEM_LOGP>
0.14883863966666666

> <JCHEM_MDDR_LIKE_RULE>
0

> <JCHEM_NUMBER_OF_RINGS>
0

> <JCHEM_PHYSIOLOGICAL_CHARGE>
-1

> <JCHEM_PKA_STRONGEST_ACIDIC>
3.1699999999999995

> <JCHEM_POLAR_SURFACE_AREA>
0.0

> <JCHEM_REFRACTIVITY>
0.8725

> <JCHEM_ROTATABLE_BOND_COUNT>
0

> <JCHEM_RULE_OF_FIVE>
1

> <JCHEM_TRADITIONAL_IUPAC>
sodium fluoride

> <JCHEM_VEBER_RULE>
1

> <DRUGBANK_ID>
DB09325

> <DRUG_GROUPS>
approved

> <GENERIC_NAME>
Sodium fluoride

> <SYNONYMS>
Sodium fluoride

> <PRODUCTS>
0.2% Sodium Fluoride Weekly Oral Rinse; 1.1% Neutral Sodium Fluoride Topical Gel; 2080 K Ginger Mint; 2080 K Herbal Mint; 2080 K Original; 365 Whole Foods Market Anticavity/Antigingivitis Mouthwash; 3seconds Magic Gargle Lemon; 3seconds Magic Gargle Peach; 4 Pack; 60 Second Fluoride Gel; 60 Second Gel Bubblegum; 60 Second Gel Grape; 60 Second Gel Mint; 60 Second Gel Orange Cream; 60 Second Gel Strawberry; 60 Second Taste Bubblegum; 60 Second Taste Chocolate Vanilla; 60 Second Taste Groovy Grape; 60 Second Taste Marshmallow; 60 Second Taste Mint; 60 Second Taste Orange Twist; 60 Second Taste Strawberry; 60-Second Fluoride Bubble Gum; 60-Second Fluoride Cherry; 60-Second Fluoride Grape; 60-Second Fluoride Marshmallow; 60-Second Fluoride Mint; 60-Second Fluoride Orange Cream; 60-Second Fluoride Pina Colada; 60-Second Fluoride Strawberry; ACT Anticavity Fluoride Arctic Blast; ACT Anticavity Fluoride Cinnamon; ACT Anticavity Fluoride Iced Berry; ACT Anticavity Fluoride Iced Sweet Mint; ACT Anticavity Fluoride Kids Bubblegum; ACT Anticavity Fluoride Kids Groovy Grape; ACT Anticavity Fluoride Kids Spongebob; ACT Anticavity Fluoride Kids Wild Watermelon; ACT Anticavity Fluoride Mint; ACT Anticavity Fluoride Rinse Kids Scooby Doo; ACT Anticavity Kids iCarly Fluoride; ACT Braces Care Anticavity; ACT Dry Mouth Anticavity Fluoride; ACT Kids Anticavity Fluoride Bubble Gum Blowout; ACT Kids Anticavity Fluoride Groovy Grape; ACT Kids Anticavity Fluoride Pineapple Punch; ACT Kids Anticavity Fluoride Wild Watermelon; ACT Restoring Anticavity Fluoride Cool Mint; ACT Restoring Anticavity Fluoride Cool Splash Spearmint 2X; ACT Restoring Anticavity Fluoride Cool Splash Vanilla Mint; ACT Restoring Anticavity Fluoride Mint Burst; ACT Restoring Anticavity Fluoride Spearmint; ACT Total Care Anticavity Fluoride Fresh Mint; ACT Total Care Anticavity Fluoride Icy Clean Mint; ACT Total Care Dry Mouth Anticavity Mouth; ACT Total Care Sensitive Anticavity Mint Mouth; ACT Total Care Sensitive Anticavity Tropical Mouth; ACT Whitening Anticavity Gentle Mint; AIM Bubble Berry; AIM CAVITY PROTECTION Multi Benefit; AIM Cavity Protection Multi Benefit; AIM Cavity Protection with Whitening; AIM TARTAR CONTROL Plus Mouthwash and Whitening; AIM Whitening with Baking Soda; AMERFRESH FLUORIDE gel; AQUAFRESH WHITE and SHINE; AQUAFRESH Whitening Multi Action; AQUAFRESH iso-active; AQUAFRESH ultimate white; AQUAFRESH whitening intense white; AQUAFRESH whitening white and shine; ARC After Whitening Rinse; ARC Whitening; ATOMY PROPOLIS 200g; ATOMY PROPOLIS 50g; ATOMY PROPOLIS TOOTHPAS TE 200g; ATOMY PROPOLIS TOOTHPAS TE 50g; AVON Whitening Essentials 10X Charcoal Black Clean Mint; AVON Whitening Essentials Blanc Charcoal Fresh Mint; AVON Whitening Essentials Original Cool Mint; Acclean; Acclean 60 Second Fluoride Treatment; Acclean 60 Second Fluoride Treatment 1.23% APF; Acclean Dual Fluoride Rinse 1.24% APF Bubblegum; Acclean Dual Fluoride Rinse Part B 1.24% Mint; Acclean Foam Fluoride 60 Second Application; Acclean Plus; Acclean plus; Acidulated Phosphate Fluoride Oral Solution; Act Fluoride; Act Total Care Anticavity Fluoride Fresh Mint; Addamel N; Addnutriv; AdoptaPlatoon; Advance White Baking Soda and Peroxide Tartar Control; Advance White Breath Freshening Tartar Control; Advance White Brilliant Sparkle Tartar Control; Advance White Extreme Whitening Tartar Control; Advance White Tartar Control Breath Freshening; Advance White Tartar Control Brilliant Sparkle; Advanced Whitening Anti Cavity Fluoride; Advancew White Sensitive Maximum Strength Sensitivity Relief with Whitening; Age Defying Fluoride and Liquid Calcium; Aim - Tpt Gel 0.23%; Aim Sensitive Cavity Protection; Airline Dental Products with Crest and Manual Toothbrush; Airocare; Alcohol Free Refreshing Mint; Alcohol-Free Anticavity; All Solutions Acidulated Phosphate Fluoride Foam; Allday 5000; Alora Sensitivity; Alora Sensitivity Whitening; Alora Whitening; Alpha-Pro; Amar Advanced Whitening; AmerFresh; Amerfresh; Amerfresh Clear; Amerfresh Fluoride; Amerfresh Tooth; American Sales Company CareOne; Amhealer; Amino Acid Fragrancemouthwash Blossom; Amino Acid Fragrancemouthwash Dawn; Anti Cavity Rinse; Anticavity; Anticavity Fluoride; Anticavity Fluoride Rinse; Anticavity Juicy mint; Anticavity Rinse; Anticavity Rinse Fluoride Rinse; Ap-24; Aquafresh Advanced 2x Enamel; Aquafresh Advanced 2x Whitening; Aquafresh Advanced Freshmint Toothpaste; Aquafresh Advanced Whitening Toothpaste; Aquafresh Big Kids; Aquafresh Cavity Protection; Aquafresh Extra Fresh Plus Whitening; Aquafresh Extreme Clean Deep Action; Aquafresh Extreme Clean Freshening Action; Aquafresh Extreme Clean Polishing Action; Aquafresh Extreme Clean Pure Breath Action; Aquafresh Extreme Clean Revitalizing Action; Aquafresh Extreme Clean Whitening Action; Aquafresh Freshmint; Aquafresh Freshmint Pump Tpt 0.22%; Aquafresh Freshmint Toothpaste - 0.221%; Aquafresh Freshmint Tpt 0.22%; Aquafresh Multi Action Whitening; Aquafresh Pure Breath Action; Aquafresh Sensitive Maximum Strength; Aquafresh Tartar Control Whitening; Aquafresh Ultimate White; Aquafresh Whitening Striped Gel Toothpaste; Aquapick Whitening Bubblepick; Aquapick Whitening Tooth Foam; Arc Whitening; Arm & Hammer Dental Care Freshmint Gel 0.243%; Arm & Hammer Dental Care Freshmint Tpt .243%; Arm & Hammer Dental Care Gel 0.243%; Arm & Hammer Dental Care Paste 0.243%; Arm & Hammer Dental Care Smooth Spearmint; Arm and Hammer Orajel Sensitive Freshening with Flavor Burst; Assured Anticavity Fluoride Kids Bubblegum; Astonea -sodium Fluoride; Atomy Propolis Toothpas Te 200g; Atomy Propolis Toothpas Te 50g; Atomy Toothpaste; Auraglow Daily; Auraglow Whitening; AutoBrush Bubblegum; AutoBrush Mint; AutoBrush Watermelon; AutoBrush strawberry; Avant; BAMBOO SALT Eunganggo Jook Yeom; BAMBOO SALT Eunganggo Jook Yeom Toothpaste; BIOTENE Fresh Mint Original; BIOTENE Gentle Mint; BON SCENT Sparkling Tooth Wash; BURST Wonderfully Whitening Anti Cavity; Baird Good Night; Barbie Anticavity Fluoride; Barbie Striped Fluoride; Beam; BeanGuard Sensitivetoothpaste; Beanguard Gargle Plus; Beyond Activated Coconut Charcoal and Sea Salt; Beyond Antiseptic Mouthwash; Big Lots Sound Body; Binaca Fluoride Anticavity Mouthwash; Bio Spectra Attitude; Biomin Restore Plus; Biotene PBF; BlanX Advanced Whitening; BlanX Intensive Stain Removal; BlancTis Clinic (10%); BlancTis Clinic (15%); Blingday Bubble Candy Solid Mouthwash; Bob The Builder Toothpaste; BreathRx with Zytex; Bright Smiles; Brisa Awaken Refreshed; Brisa Luminous Whitening; Brisa Tropical Fresh; BriteSmile Whitening; Brush Buddies; Brushbuddies Shopkins Anticavity Fluoride; Bubble Cheee Gold Plus Tooth; Budget Dental Foam Fluoride-1.23%; Budget Dental Prophy Paste-coarse Grit; Burkhart; Burkhart Neutral; Burkhart Neutral pH; Burts Bees Charcoal Mint Medley; Burts Bees Charcoal Peppermint; Burts Bees Clean and Fresh; Burts Bees Deep Clean plus Whitening; Burts Bees Enamel care; Burts Bees Extra White; Burts Bees Extra White Zen Peppermint; Burts Bees Kids Strawberry Splash; Burts Bees for Kids; Business Elite Amenity; Butler Protect One Minute Apf Fluoride Gel; CLBIO Dental clear; CLOSE UP Cinnamon Red; CLOSE UP Claiente; CLOSE UP Freshening with Mouthwash; CLOSE UP Whitening with Mouthwash; CLOSE UP freshening XPERIENCE; CLOSE UP with Mouthwash; COLGATE MAX WHITE WITH MINI BRIGHT STRIPS Crystal MINT; COLGATE PROCLINICAL - Sparkling Mint; CTx3 Rinse Citrus; CTx3 Rinse Grape; CTx3 Rinse Mint; CTx4 Gel 1100 Citrus; CTx4 Gel 1100 Grape; CTx4 Gel 1100 Mint; CTx4 Gel 5000 Citrus; CTx4 Gel 5000 Mint; CTx4 Rinse Apple; CTx4 Rinse Mint; CVS Complete Care Anticavity Mouthwash; CVS Complete Health Premium; CVS Enamel Guard; CVS Extra Whitening; CVS Maximum Strength; CVS Pharmacy Always White; CVS Pharmacy Brilliant White; CVS Pharmacy Dry Mouth; CVS Pharmacy Enamel Guard; CVS Pharmacy Strong White; CVS Repairing Anticavity Mouthwash; Cardinal Health; Cardinal Health Fluoride Anticavity; Care One Maximum Strength; CaviRinse; Cavity Protection Fresh Mint; Cavity Protection Fresh Mint Anticavity Mouthwash; Cepacol Mouthwash With Fluoride; Cepacol Peppermint Mouthwash With Fluoride; Charm Tex; Charm-Tex FLUORIDE Gel; Chewpaste with Fluoride; Cinna Fresh Anticavity; CinnaFresh; CinnaFresh Anti-cavity; Cinnafresh; Cinnafresh AntiCavity; Clarben; CleanAFNaturalAnticavityToothpaste; Clear QQ; Clinpro 5000; Clinpro Tooth Creme; CloSYS; CloSYS Fluoride Rinse; CloSYS Sulfate Free Fluoride; Close Up Anticavity Toothpaste; Close Up Cinnamon Red; Close Up Fluoride Gel-0.23%; Close Up Fluoride Paste - Tpt 0.23%; Close Up Travel; Closeup Travel; Colgate; Colgate 2in1 Icy Blast; Colgate 2in1 Whitening Stain Lifters; Colgate Advanced Sensitive Plus Whitening; Colgate Advanced Whitening Fluoride; Colgate Bakugan Fluoride Mild Bubblefruit Flavor; Colgate Cavity Protection; Colgate Cavity Protection Fresh Clean; Colgate Cavity Protection Fresh Mint; Colgate Deep Clean Fluoride; Colgate Dora the Explorer Mild Bubblefruit Flavor; Colgate Double Fresh; Colgate Dry Mouth Relief; Colgate Enamel Health Mineral Repair; Colgate Enamel Health Mouthwash; Colgate Enamel Health Sensitivity MultiProtect; Colgate Enamel Health Sensitivity Relief; Colgate Enamel Health Whitening; Colgate Enamel Renewal Deep Clean; Colgate Enamel Renewal Sensitivity; Colgate Enamel Renewal Whitening; Colgate Enamel Strength Mouthwash; Colgate Essentials with Coconut Oil; Colgate Fluoride - Blaze - Mild Bubble Fruit; Colgate Fluoride - Trolls - Mild Bubble Fruit; Colgate Fluoride Gel Toothpaste - Mint 0.243%; Colgate Fluoride Gel Toothpaste 0.243%; Colgate Fluoride Toothpaste 0.243%; Colgate Fluoride Toothpaste-Peppa Pig-Mild Bubble Fruit; Colgate Fluoride Toothpaste-mint 0.243%; Colgate Fluoride Whitening - Reviving Mint; Colgate Fresh Confidence With Whitening Fluoride Toothpaste; Colgate Fresh Mint; Colgate Fresh N Protect Mild Mint; Colgate Hemp Seed Oil; Colgate Hydris Dry Mouth; Colgate Jr Littlest Pet Shop; Colgate Junior - Pink Sparkle; Colgate Junior Bubble Fruit; Colgate Junior Bubblefruit; Colgate Junior Dora; Colgate Junior Fresh Protect; Colgate Junior Kids Batman Mild Bubble Fruit Fluoride; Colgate Junior Kids PJ Masks Mild Bubble Fruit Fluoride; Colgate Junior KidsWonder Woman Mild Bubble Fruit Fluoride; Colgate Junior Mixed Kids Bubble Fruit Fluoride; Colgate Junior Sponge Bob; Colgate Junior Transformers; Colgate Kids - Bubblefruit; Colgate Kids 2in1 Strawberry; Colgate Kids Batman Alcohol Free Anticavity Mouthwash Bat-Signal Bubble Fruit; Colgate Kids Bubblefruit; Colgate Kids Bubblegum Swirl; Colgate Kids Halloween Wicked Watermelon; Colgate Kids Hum Mild Bubble Fruit Flavor; Colgate Kids Llama Mild Bubble Fruit Flavor; Colgate Kids Maximum Cavity Protection; Colgate Kids Maximum Cavity Protection Batman; Colgate Kids Mild Bubble Fruit Flavor; Colgate Kids Minions; Colgate Kids Minions Mouthwash; Colgate Kids Ryans Toy World Alcohol Free Anticavity Ryans Bubble Fruit; Colgate Kids Ryans World; Colgate Kids Sloth Mild Bubble Fruit Flavor; Colgate Kids Space Jam Mild Bubble Fruit Flavor; Colgate Kids Trolls; Colgate Kids Trolls Alcohol Free Anti-Cavity Sparkle Time Bubble Fruit; Colgate Kids Unicorn Alcohol Free; Colgate Kids Watermelon Flavor; Colgate Kids Wonder Woman Alcohol Free Anticavity Bubble Fruit; Colgate Liquid Gel Toothpaste - Fresh Mint; Colgate Liquid Gel Toothpaste - Winterfresh; Colgate Liquid Gel Toothpaste Kids 2 In 1; Colgate Luminous Crystal Fluoride; Colgate Max Clean Effervescent Mint; Colgate Max Clean Effervescent Mint Fluoride; Colgate Max Clean Spearmint Blast; Colgate Max Fresh Advanced Whitening; Colgate Max Fresh Clean Mint; Colgate Max Fresh Cool Mint; Colgate Max Fresh Intense; Colgate Max White Crystal Mint; Colgate Max White Polar Rush; Colgate MaxClean with Whitening Smartfoam; Colgate MaxFresh Anticavity Fluoride Electric Mint; Colgate MaxFresh Charcoal; Colgate MaxFresh CoolScrub Mintblast with Whitening; Colgate MaxFresh Fresh Mint; Colgate MaxFresh Intense Mint; Colgate MaxFresh Knockout; Colgate MaxFresh with Mini Breath Clean Mint; Colgate MaxFresh with Mini Breath Cool Mint; Colgate MaxFresh with Whitening KnockOut Fluoride; Colgate Maximum Cavity Protection Bubble Fruit Flavor; Colgate Maximum Cavity Protection Wonder Woman; Colgate Minions Mild Bubble Fruit Fluoride; Colgate Monster High Mild Bubble Fruit; Colgate Optic White Charcoal; Colgate Optic White Stain Fighter Clean Mint; Colgate Optic White Stain Fighter Fresh Mint; Colgate Optic White Stain Fighter With Baking Soda; Colgate Phos-Flur Ortho Defense Alcohol Free Anticavity Gushing Grape Fluoride; Colgate Phos-Flur Ortho Defense Alcohol Free Anticavity Mint Fluoride; Colgate Proclinical - Clean Mint; Colgate RE reenergize; Colgate RE refresh; Colgate RE renew; Colgate RE repair; Colgate RE revive; Colgate Re Variety Pack; Colgate Sensitive Complete Protection; Colgate Sensitive Enamel Protect; Colgate Sensitive Lasting Fresh Mint Burst; Colgate Sensitive Maximum Strength Mint Clean; Colgate Sensitive Maximum Strength Whitening; Colgate Sensitive Multiprotection; Colgate Sensitive Prevent and Repair; Colgate Sensitive Pro Relief; Colgate Sensitive Pro Relief Whitening; Colgate Sensitive Smart White Fresh Mint; Colgate Sensitive Smartfoam With Whitening; Colgate Sensitive Whitening Fresh Mint; Colgate Sensitive Whitening for Sensitive Teeth and Cavity Protection; Colgate Sensitive multiprotection for Sensitive Teeth and Cavity Protection; Colgate Sensitive plus Whitening; Colgate Sparkling White CinnaMint Fluoride; Colgate Sparkling White Cinnamint; Colgate SpongeBob SquarePants; Colgate Superstar Toothpaste-tpt 3.281 mg/ml; Colgate Tartar Control Whitening Crisp Mint; Colgate Tartar Protection Whitening Fluoride Cool Mint; Colgate Total - Advanced Health; Colgate Total 12h Pro-shield; Colgate Total Advance Whitening; Colgate Total Advanced Clean; Colgate Total Advanced Deep Clean; Colgate Total Advanced Fresh plus Whitening; Colgate Total Advanced Health Daily Repair; Colgate Total Advanced Health Gum Defense; Colgate Total Advanced Health Sensitive; Colgate Total Advanced Whitening; Colgate Total Clean Mint; Colgate Total Clean Mint ANTIGINGIVITIS; Colgate Total Clean in Between; Colgate Total Daily Repair; Colgate Total Fresh Mint Stripe; Colgate Total Gum Defense; Colgate Total Lasting White Polar Freshmint; Colgate Total Tpt; Colgate Total Whitening; Colgate Total Whitening Gel; Colgate Transformers Mild Bubblefruit Flavor; Colgate Trilple Accion; Colgate Triple Action; Colgate Triple Action Original Mint Fluoride; Colgate Turtles Mild Bubble Fruit; Colgate Ultra Brite Advanced Whitening All In One Clean Mint; Colgate Ultra Fresh; Colgate Ultra Protect; Colgate Ultra Relief; Colgate Ultra White Charcoal; Colgate UltraBrite Advanced Whitening Anticavity Fluoride Clean Mint; Colgate Winter Watermelon Flavor; Colgate You Blue Coconut; Colgate You Blue Fresh Mint; Colgate You Blue Vanilla; Colgate You Red Coconut; Colgate You Red Fresh Mint; Colgate You Red Vanilla; Colgate You White Coconut; Colgate You White Fresh Mint; Colgate You White Vanilla; Colgate Zero Clear; Colgate Zero Clear Spearmint; Colgate Zero Strong Teeth; Colgate Zero for Kids; Complete Care Enamel Strengthening; Complete Care Plus Enamel Strengthening; Complete Care Tartar Control Extra Whitening with Baking Soda and Peroxide; Complete Care Tartar Control Plus Whitening Baking Soda and Peroxide; Complete Care Whole Mouth Protection; Complete Health Anticavity Fluoride Clean Mint; Complete Health Anticavity Fluoride Fresh Mint; ControlRx; ControlRx Multi; Cool Sense Care Plus Mouthwash; Coral; Country Gent; Crayola Anticavity Fluoride FRUIT EXPLOSION; Crayola SQUEEZE-A-COLOR; Crest; Crest 24g and Toothbrush Dental kit; Crest 3D White; Crest 3D White Advanced Triple Whitening; Crest 3D White Advanced Vivid Enamel Renewal; Crest 3D White Advanced Vivid Invigorating Mint; Crest 3D White Advanced Vivid Refreshing Mint; Crest 3D White Advanced Whitening; Crest 3D White Arctic Fresh; Crest 3D White Brilliance; Crest 3D White Brilliance Blast; Crest 3D White Brilliance Charcoal; Crest 3D White Brilliance Ultra; Crest 3D White Charcoal; Crest 3D White Deep Clean; Crest 3D White Enamel Protect; Crest 3D White Enamel Renewal; Crest 3D White Glamorous White; Crest 3D White High Speed White; Crest 3D White LUXE LUSTROUS SHINE; Crest 3D White Luminous Mint; Crest 3D White Luxe; Crest 3D White Luxe Diamond Strong; Crest 3D White Radiant Mint; Crest 3D White Stain Eraser Icy Clean Mint; Crest 3D White Stain Eraser Polishing Mint; Crest 3D White Stain Shield; Crest 3D White Ultra; Crest 3D White Ultra Vivid Mint; Crest 3D White Vivid Radiant Mint; Crest 3D White Whitening Therapy; Crest 3D White Whitening Therapy Charcoal with Coconut Oil; Crest 3D White Whitening Therapy Charcoal with Ginger Oil; Crest 3D White Whitening Therapy Charcoal with Tea Tree Oil; Crest 3D White Whitening Therapy Deep Clean Charcoal; Crest 3D White Whitening Therapy Enamel Care; Crest 3D White Whitening Therapy Gentle Care Coconut Oil; Crest 3D White Whitening Therapy Gentle Clean Charcoal with Hemp Seed Oil; Crest 3D White Whitening plus Therapy; Crest 3DWhite Whitening Therapy Sensitivity Care; Crest 4in1; Crest Aligner Care Cavity Defense Rinse; Crest Anti-Cavity Regular; Crest Anti-cavity; Crest Anticavity Fluoride; Crest Anticavity Kit; Crest Baking Soda and Peroxide Whitening with Tartar Protection; Crest Be Adventurous; Crest Be Dynamic; Crest Be Inspired; Crest Blue Bubble Gum; Crest Braces Care Anticavity Fluoride Rinse; Crest Bubblegum; Crest Cavity Protection Cool Mint Gel; Crest Cavity Protection Regular; Crest Clean Mint Dentifrice 0.243%; Crest Complete Deep Clean; Crest Complete Multi Benefit Whitening plus Scope Minty Fresh Gel; Crest Complete Multi Benefit Whitening plus Scope Outlast; Crest Complete Multi-Benefit Extra White plus Scope dual blast fresh mint blast; Crest Complete Multi-Benefit Extra Whitening plus Scope Advanced Freshness; Crest Complete Multi-Benefit Extra Whitening with Tartar Protection; Crest Complete Multi-Benefit Plus Scope; Crest Complete Multi-Benefit Tartar Control Whitening Plus Scope; Crest Complete Multi-Benefit Whitening Plus Cinnamon Expressions; Crest Complete Multi-Benefit Whitening Plus Herbal Mint Expressions; Crest Complete Multi-Benefit Whitening Plus Scope; Crest Complete Multi-Benefit Whitening Scope Outlast; Crest Complete Multi-Benefit Whitening plus Baking Soda and Peroxide with Tartar Protection; Crest Complete Multi-Benefit Whitening plus Cinnamon Expressions; Crest Complete Multi-Benefit Whitening plus Deep Clean; Crest Complete Multi-Benefit Whitening plus Scope; Crest Complete Multi-benefit Tartar Control Whitening Plus Scope; Crest Complete Multi-benefit Whitening plus Scope; Crest Complete Plus 3 in 1; Crest Complete Plus Active Fresh plus Whitening Scope; Crest Complete Plus Scope Outlast; Crest Complete Plus Scope Outlast Ultra; Crest Complete plus Extra Whitening with Tartar Protection; Crest Complete plus Scope Advanced Active Foam; Crest Complete plus Whitening; Crest Complete plus Whitening Baking Soda and Peroxide with scope Outlast Freshness; Crest Complete plus Whitening Cinnamon Expressions; Crest Complete plus Whitening Deep Clean; Crest Complete plus Whitening Herbal Mint Expressions; Crest Complete plus Whitening Intense Freshness; Crest Complete plus Whitening Scope Candy Cane; Crest Complete plus Whitening plus Scope; Crest Complete plus Whitening plus Scope Outlast; Crest Expressions Scope; Crest Extra White plus Scope Outlast Long Lasting Mint; Crest Fresh and White; Crest Kids Cavity Protection; Crest Minty Breeze; Crest Moisturizing; Crest Mystic Enchanted Strawberry; Crest Mystic Magical Bubblegum; Crest Premium Plus Active Foam Whitening scope; Crest Premium Plus Advanced Whitening Active Foam; Crest Premium Plus Deep Clean Active Foam; Crest Premium Plus Scope Dual Blast Active Foam; Crest Premium Plus Scope Outlast Active Foam; Crest Premium Plus Sensitivity Active Foam; Crest Pro Health Densify Rinse; Crest Pro Health Sensitivity Whitening plus Scope; Crest Pro-Health Advanced Active Strengthening; Crest Pro-Health Advanced w/Extra Deep Clean; Crest Pro-Health Advanced w/Extra Whitening; Crest Pro-Health Advanced with Extra Tartar Protection; Crest Pro-Health Anticavity Fluoride Rinse; Crest Pro-Health Complete (Clean Mint); Crest Pro-Health Complete (Fresh Mint); Crest Pro-Health For Me; Crest Pro-Health For Me Anticavity Fluoride; Crest Pro-Health Jr; Crest Pro-Health Pro Active Defense Whole Mouth Protection; Crest Pro-Health Restore Enamel; Crest Pro-Health Stages; Crest Pure; Crest Pure All Around Clean; Crest Pure Gentle Whitening; Crest Scope Advanced; Crest Sensi-Care; Crest Sensi-Namel; Crest Sensi-Relief; Crest Sensitivity Clinical Sensitivity Relief; Crest Sensitivity Whitening plus Scope; Crest Simply Clean; Crest Splash; Crest Strawberry; Crest Tartar Protection; Crest Tartar Protection Fresh Mint Gel; Crest Tartar Protection Whitening; Crest Ultra Dentifrice Tpt 0.243%; Crest Wild Expressions Burstin Bubblegum; Crest complete plus Whitening Deep Clean; Crest plus Scope and extra whitening Mint Splash; DELTA COMFORT Amenity; DELTA ONE 2019 TUMI COLLINS AMENITY With Crest Complete Whitening Scope; DELTA ONE 2019 TUMI COLLINS And TUMI COLLINS BOMBAS AMENITY With Crest 3D White Brilliance; DG health Sensitive Maximum Strength; DOCTRUST DOUBLEX Tooth; DOCTRUST ONE S Tooth; DOWN Toothpaste,Gingersnap; DR. Fresh Dailies Travel; DR.Fresh Kids Pediatric; Darby Apf Bubble Gum; Darby Apf Mint; Darby Apf Strawberry; Darby Topical Sodium Fluoride; Darby Topical Sodium Fluoride Bubble Gum; Darby Topical Sodium Fluoride Cherry; Darby Topical Sodium Fluoride Grape; Darby Topical Sodium Fluoride Mint; Darby Topical Sodium Fluoride Orange; Darby Topical Sodium Fluoride Strawberry; Darby Topical Sodium Fluoride Watermelon; DawnMist Fluoride; Dawnmist; Dawnmist Fluoride; Dedicated Brand Premium Top. Foam Fluoride; Delta Sky Club; DenTek Looney Tunes Kids Bubblegum Blast; Denpo cavity prevention; Denta 5000 Plus; DentaGel; Dental Care Advance Cleaning Maximun Baking Soda; Dental Care Advance Cleaning Maximun Strength Cleaning; Dental Clear Natural; Dental Clear Premium; Dental Clinic 2080 K Citrus Cool Mint; Dental Clinic 2080 K Strong Winter Green; Dental Floss With Fluoride 0.15mg/45cm; Dental Gel for Kids - Tasty Fruit Flavour 0.221%; Dental Kit; Dental Kits 1; Dental Kits 2; Dental Pro; Dental Tape W Sodium Fluoride 0.15mg/45cm; Dentalux Anticavity Activated Charcoal; Dentalux Anticavity Coconut; Dentalux Charcoal; Dentalux Coconut Minerals; Dentalux Complex 5; Dentalux Kids Anticavity Fluoride Tooth Bubble Gum; Dentalux Kids Anticavity Fluoride Tooth Mixed Berry; Dentalux Kids Bubble Gum; Dentalux Kids Mixed Berry; Dentalux Sensitive; Dentalux Total Care; Dentalux sensitive; Dentalux total care; Denti Whoo Blue Tabletgargle; Denti Whoo CTS Gum CareToothpaste; Denti Whoo Cts Germ Free; Denti Whoo Cts Germ Free-F; Denti-Care Denti-Foam Topical Sodium Fluoride Bubble Gum; Denti-Care Denti-Foam Topical Sodium Fluoride Grape; Denti-Care Denti-Foam Topical Sodium Fluoride Mint; Denti-Care Denti-Foam Topical Sodium Fluoride Orange; Denti-Care Denti-Foam Topical Sodium Fluoride Raspberry; Denti-Care Denti-Foam Topical Sodium Fluoride Strawberry; Denti-Care Denti-Pro Topical Sodium Fluoride 60 Second; Denti-Care Denti-Rinse Neutral Sodium Fluoride Oral Rinse; Denti-Care Denti-Rinse Neutral Sodium Fluoride Oral Rinse Berry; Denti-Care Topical Fluoride Foam Bubble Gum; Denti-Care Topical Fluoride Foam Grape; Denti-Care Topical Fluoride Foam Orange; Denti-Care Topical Fluoride Foam Raspberry; Denti-Care Topical Sodium Fluoride Strawberry; Denti-care Acidulated Phosphate Fluoride; Denti-care Anti-cavity Sodium Fluoride Oral Rinse; DentiCare Denti-Pro; DentiCare Pro-Foam; DentiCare Pro-Gel; DentiCare Pro-Gel Neutral Sodium Fluoride; DentiCare Pro-Rinse; Dentisse; Dentree; Detox Dr. Oral Clean Care; Dinosaur; Dinosaur Gel; Dio Pororo Kids Foaming; Discount Drug Mart Anticavity Fluoride Rinse Mint Flavor; Do Clear; Doctor 9020 Dental Clinic; Doctor EL 28 Care Gargle; Doctor Will; Doctor-Clean; DoctorTibletKereale; Doctrust 2x Tooth; Doctrust K; Dollar General Maximum Strength; Dollar General Radiant White; Dollar Shave Club; Dr Dental Care 250ml; Dr Dental Care 750ml; Dr Dental Care 80ml; Dr Plus Dental Daily Care; Dr Tichenors With Extra Whitening and Tartar Control; Dr. 9020 Dental Clinic; Dr. Dental Care; Dr. Fresh Brush and Cover; Dr. Sheffield Fluoride Anticavity; Dr.NOAH SOLIDTOOTHPASTE; Dr.NOAH Toothpaste Tablets; Dr.Whitiss 15%; Dr.chois Toothpaste Step Two Kids; Dr.pik Oral Care Gargle; Dry Mouth; Duraphat; E-Z Cups; Early Bird Wintergreen and Peppermint; Electrifying Blue Polish; Emmi-dent Fresh; Emmi-dent Kids; Emmi-dent Whitening; Enamel Defense; Enamel Health Multi-Protection; Epiflur; Equate Anticavity Oral Rinse; Escavite; Escavite D; Escavite Lq; Essentials Healthy Teeth and Gums; Essentials Whiten and Strengthen; Eurofresh Whitening; EverSmile AlignerFresh Enamel Guard; Exceed Total Care Sensitive Peppermint Tooth Polish; Exceed Total Care Sensitive Spearmint Tooth Polish; Exoden All In One; FIREFLY Barbie Fluoride Foam Bubblegum Flavor; FIREFLY MARVEL Ultimate SPIDER-MAN Fluoride Foam Bubblegum Flavor; Family Wellness Anticavity Fresh Mint; Family Wellness Kids Anticavity; Family Wellness Maximum Strength; Family Wellness Sensitive Extra Whitening; Farmasi Whitening; Fidelis Apf; Firefly Angry Birds Fluoride; Firefly Anticavity Fluoride; Firefly Bubble Blast; Firefly Mouth Swoosh Anti-Cavity Fluoride Rinse; Firefly Strawberry Smoothie; Floam Aer 1.23%; Floam Topical Floam Fluoride; Flor-Opal Sustained-Release Fluoride; Floriva; Floriva Plus; Flouride A Day; Flouride Mouthwash Strong Mint; Fluor-a-day; Fluorbon Drops; FluoriMax 5000; FluoriMax 5000 Sensitive; FluoriSHIELD; Fluoride; Fluoride Dental Treatment Rinse; Fluoride Drops; Fluoride Gel; Fluoride Gel 1.23%; Fluoride Mouth Rinse Anticavity; Fluoride Mouthwash; Fluoride Mouthwash Soft Mint; Fluoride Rinse for Kids; Fluoride Treatment; Fluoridex; Fluoridex Daily Defense Clean Mint 5000ppm; Fluoridex Daily Defense Enhanced Whitening; Fluoridex Daily Defense Fresh Fruit 5000ppm; Fluoridex Daily Defense Sensitivity Relief; Fluoridex Daily Defense Sensitivity Relief SLS Free; Fluoridrops; Fluorishield; Fluoritab Chewable Cherry; Fluoritabs Chewable 2.21mg; Fluorosol Drops; Fluorzoin 0.05% Sodium Fluoride Oral Rinse; Fluorzoin 1.23% Topical Fluoride Ion Foam; Fluotic; Flura Drops 2.21mg/0.2ml; Flura-drops; FreshDent Kids Strawberry Anticavity Tooth; FreshMax Fluoride Kids; Freshmint; Freshmint Anticavity Fluoride; Freshmint Anticavity Fluoride Gel Toothpaste; Freshmint Premium Anticavity; Freshmint Premium Anticavity Gel; Freshmint Sensitive; Freshmint Sensitive Toothpaste; Freshmist Sensitive; G.U.m; GLEEM Whitening; GUM Cavity Prevention Fluoride Mint; GUM Crayola Anticavity Fluoride Tropical Twist; Gargle Dam; Gel 7 Neutral Topical Fluoride Gel Mint; Gel 7 Neutral Topical Fluoride Gel Strawberry; Gel-kam Fluorocare Part A - Mint Flav Liq; Gel-kam Fluorocare Part A-bubblegum; Gel-kam Fluorocare Part A-mint Flavour; Gelato APF; Gelato Homecare Vivid Neutral; Gelato Neutral PH; Gelato Neutral pH; Gelato X; Gelato X APF; Genesis Sensitive Fresh Mint; Gerigentle-Good morning; Giant Eagle Wintermint With Fluoride; Giant Eagle Wintermint Zero Alcohol; Glister Fluoride Toothpaste 0.22%; Glister Multi-Action Fluoride; Glister Multi-action Fluoride Toothpaste; Glitter; Glowing White; GoGlama NaF RNS Mint; Goby Peppermint; Goodsense Sensitive Extra Whitening; Gray Salt; Greenco; Gum; HEB Dry Mouth; HEB Enamel Protection Multi Action; HEB Extra Whitening; HEB Gleaming White Arctic Mint; HEB Gleaming White Fresh Mint; HEB HEBuddy; HEB Radiant White; Handy Solutions Crest Cavity Protection FLUORIDE ANTICAVITY; Handy Solutions Crest Complete MULTI-BENEFIT WHITENING plus Scope; Handy Solutions Kidz Crest Sparkle Fun; Handy Solutions Mint Fluoride Tooth; Hanip Gargle apple fragrance; Hanip Gargle pine fragrance; Haring B Detox Mouthwash; Health-dent; Hello; Hello Blue Raspberry; Hello Blue Raspberry - SLS Free; Hello Bubble Gum; Hello Bubble Gum - SLS Free; Hello Dragon Dazzle Fluoride; Hello Hemp Seed Oil Plus Coconut Oil Extra Freshening Fluoride; Hello Juicy Grape Fluoride; Hello Kitty; Hello Magical Mermaid; Hello Mojito Mint; Hello Unicorn; Hello Wild Strawberry; Hello unicorn splash anticavity fluoride rinse; Hellotis Mouthwash; Henry Schein 2% Neutral Topical Foam Fluoride; Henry Schein Minute Topical Fluoride Gel; Henry Schein Minute Topical Foam Fluoride; Henry Schein Prophy Paste With Fluoride - Coarse Grit; Henry Schein Prophy Paste With Fluoride - Fine Grit; Henry Schein Prophy Paste With Fluoride - Medium Grit; Henry Schein Topical Fluoride Cream; Henry Schein Topical Foam Fluoride; Hey Humans Whitening Clean Mint Rush; Hey Humans Whitening Wintermint Chill; Himalayan Pink Salt Fresh Soothing Mint; Himalayan Pink Salt Sweet Herbal Mint; Hoo gargle (Jasmine Flavor)(Mouthwash); Hoo gargle (Mouthwash); Hoo gargle (Rooibos Tea Flavor)(Mouthwash); Hoo gargle (apple spearmint flavor); Hoo gargle (apple spearmint flavoring); House Living; Humble Brush Bamboo with FRESH MINT FLOURIDE; HyVee Brilliant White; HyVee Inc Maximum Strength; HyVee Maximum Strength; Hyvee Anticavity Mint; Hyvee Complete Care Fresh Mint; Innoble ONECHEWTOOTHPASTE; International Business Amenity Kit; International Business Class 1 Kit; International Business Class 2 Kit; International First Amenity Kit; International First Class Kit; Interplak Den Gel W Fluoride 0.24%; Iodent Animal Kingdom Bubble Gum; Iodent Animal Kingdom Fruity; Iodent Sensitive; Iodent Sensitive Extra Whitening; Iodent Sensitive Fresh Mint; Ionite APF; Ionite APF Foam; Ionite APF Neutral; Ionite H; Ionite R; Iris 60 Second APF; Johnson & Johnson Reach Dental Floss W.naf; Johnson and John.dental Floss Fluoride Mint; Juni Essentials SolidToothpaste; Just Right; Just Right 5000; KIRKLAND SIGNATURE PRO-COMPLETE plus WHITENING; KMart Corporation Radiant White; KangarooOralCareToothpaste; Karidium Apf Gel Cherry Flav; Karidium Liquid; Karidium Tab 1mg; Karigel; Kaylaan; Kids Anticavity; Kids Anticavity Post-Brush Fluoride Rinse; Kids Anticavity fluoride; Kids Crest Bubblegum Flavor; Kids Crest Bubblegum Rush; Kids Crest Cavity Protection; Kids Crest Cavity Protection Sparkle Fun; Kids Crest Grape Flavor; Kids Crest Pure Strawberry; Kids Crest Sesame Street; Kids Crest Spiderman; Kids Crest Strawberry Rush; Kids Flouride Rinse; Kids Healthy Teeth; Kids Kare; Kids Toothpaste; Kill fireToothpaste; Killfire Mouthwash; Kindfill; Kiss My Face Enamel Extra; Kit 2; Kit1; Kmart Corporation Maximum Strength; Koala Pals Berrylicious; Koala Pals Fluoride Tooth Gel; Kolorz; Kolorz Neutral Fluoride Foam Triple Mint; Kolorz Sixty Second Fluoride Blue Raspberry; Kolorz Sixty Second Fluoride Cherry Cheesecake; Kolorz Sixty Second Fluoride Cotton Candy; Kolorz Sixty Second Fluoride Foam Blue Raspberry; Kolorz Sixty Second Fluoride Foam Cherry Cheesecake; Kolorz Sixty Second Fluoride Foam Cotton Candy; Kolorz Sixty Second Fluoride Foam Triple Mint; Kolorz Sixty Second Fluoride Pina Colada; Kolorz Sixty Second Fluoride Triple Mint; Kroger Enamel Protection Sensitive Gentle Whitening; Kroger Extra Whitening; Kroger Kids Anticavity Fluoride Mixed Berry; Kroger Sensitive; LISTERINE NATURALS Enamel Repair Anticavity Fluoride, Herbal Mint; LISTERINE TOTAL CARE Anticavity - Fresh Mint; Lab 52 Essential Oil Sensitive; Laura Lynn Anticavity; Laura Lynn Anticavity Toothpaste; Laura Lynn Anticavity Whitening plus Mouthwash; Laura Lynn Extra Whitening Sensitive; Linhart; Listerine Fluoride Defense Anticavity mint Shield; Listerine Healthy White Anticavity Fluoride Gentle Clean Mint; Listerine Healthy White Restoring Anticavity Fluoride Clean Mint; Listerine HealthyWhite Anticavity Mouthrinse Vibrant - Clean Mint; Listerine HealthyWhite Restoring Clean Mint; Listerine Healthywhite Vibrant Clean Mint; Listerine Naturals Anticavity - Herbal Mint; Listerine Nightly Reset Anticavity Fluoride Twilight Mint; Listerine Smart Anticavity - Frozen Bubble Blast; Listerine Smart Rinse Anticavity Fluoride Rinse - Berry Splash; Listerine Smart Rinse Anticavity Fluoride Rinse - Bubble Blast; Listerine Smart Rinse Anticavity Fluoride Rinse - Mint Shield; Listerine Smart Rinse Anticavity Fluoride Rinse - Pink Lemonade Flavor; Listerine Smart Rinse Anticavity Rinse - Frozen Bubble Blast; Listerine Smart Rinse Anticavity Rinse Bubble Blast Incredibles; Listerine Smart Rinse Barbie; Listerine Smart Rinse Berry Shield; Listerine Smart Rinse Berry Splash; Listerine Smart Rinse Bubble Gum Shield; Listerine Smart Rinse Mint Shield; Listerine Smart Rinse Phineas and Ferb Bubble Blast; Listerine SmartRinse Anticavity Fluoride Rinse Avengers; Listerine SmartRinse Anticavity Rinse Disney Princess Fab BubbleGum; Listerine Strong Teeth Anticavity Fluoride Mint Shield; Listerine Total Care Anticavity Cinnamint; Listerine Total Care Fresh Mint Anticavity; Listerine Total Care Plus Whitening; Listerine Total Care Stain Remover Anti cavity Freshmint; Listerine Total Care Stain Remover Anticavity Fluoride Fresh Mint; Listerine Total Care Zero Alcohol Anticavity Fresh Mint; Listerine Total Care Zero Anticavity Fresh Mint; Listerine Total Care Zero FreshMint; Listerine Whitening Anticavity Vibrant - Clean Mint; Listerine Whitening Restoring; Live Better Extra Whitening; Lornamead Natural White; Lorvic Desensitizer; Lucky Super Soft Sensitive; Ludent; Luminous White with Activated Charcoal CWLT; Luster Now Instant Whitening; Luster Premium White; Luster Premium White AM/PM; Luster Premium White Now; MEDIAN New Forest; MEDIAN New Marine fluoride; MIPaste ONE; MIPaste One; MIPaste One Kids Blue Raspberry; MIPaste One Kids Bubble Gum; MIPaste One Kids Cotton Candy; MIPaste Plus; MIPaste Plus Melon; MIPaste Plus Mint; MIPaste Plus Strawberry; MIPaste Plus Tutti Frutti; MIPaste Plus Vanilla; MIPasteOne Kids Blue Raspberry; MS Neutral pH; MVC-Fluoride; Macleans Mint Toothpaste (tube) 0.243%; Made By Dentists Total Care; Made By Dentists Whitening; Maesa - Hey Human; Maesa - Hey Humans; Mastic Dent; Mastic Dent Oulo Action; Mastic Dent Whitening; Maximum Security; Maximum Security Anticavity; Maximum Strength Sensitive Soothing Mint; Maximum Strength Sensitive True Mint; Maxixum Security Gel Toothpaste; MediChoice Premium Anticavity Fluoride; Medichoice; Medichoice Anticavity Fluoride; MegaFresh; Meijer Brilliant White; Meijer Dry Mouth; Meijer Enamel Guard; Meijer Maximum Strength; Mentadent; Mentadent Advanced Breath Freshening; Mentadent Advanced Care; Mentadent Advanced Cleaning; Mentadent Advanced Whitening; Mentadent Specialty Whitening Toothpaste and Polishing; Mini Duo; Mint Dentistry; Mint Fluoride Tooth; MintBlast Anti Cavity Fluoride; MintBlast Cool Mint Flavor Anti Cavity Fluoride Tooth; Mintblast; Moon Platinum Advanced Whitening Anticavity; Morning Fresh; Mouth Rinse; Mouthwash for Gum Health; Mouthwash for Total Care; Ms Apf; Multi Vitamin Drops with Fluoride; Multi Vitamin Drops with Fluoride and Iron; Multi Vitamin Drops with Fluoride with Iron; Multi Vitamin and Fluoride; Multi Vitamin with Fluoride; Multi Vitamin, Iron and Fluoride; Multi-Vit with Fluoride; Multi-Vit with Fluoride and Iron; Multi-Vitamin Drops with Fluoride and Iron; Multi-Vitamin Fluoride; Multi-Vitamin With Fluoride; Multi-Vitamin with Fluoride; MultiVitamin Drops with Fluoride and Iron; MultiVitamin with Fluoride; MultiVitamin with Fluoride Chewable; MultiVitamin with Fluoride Drops; MultiVitamin, Iron and Fluoride Drops; Multivit with Fluoride; Multivitamin Drops with Fluoride; Multivitamin with Fluoride; Multivitamin with fluoride; Mvc; NAFRINSE PACKETSKIT Bubble Gum; NAFRINSE PACKETSKIT Grape; NATEAN Clean and Whiten; NATEAN Clean plus Sensitivity Relief; NEUTRAMAXX 5000 Tri-Calcium Phosphate; NUPRO 60 Second Fluoride Foam; Nafrinse Packets Bubble Gum; Nafrinse Packets Grape; Nafrinse Packets Mint; Nafrinse Packets Very Berry; Nafrinse Packetskit Mint; Nafrinse Packetskit Very Berry; Nafrinse Unit Dose Bubble Gum; Nafrinse Unit Dose Fluoride; Nafrinse Unit Dose Mint Flavor; Nafrinse Unit Dose Verry Berry; Native Charcoal; Native Sensitivity; Native Whitening; Native Whitening Candy Cane; Natural Fluoride Fresh Mint cavity protection whitening fresh breath; Natural Prebiotic Peppermint PPBT4; Natural Prebiotic Spearmint SPBT4; Natural White; Natural White Extreme Whitening Gel Toothpaste; Natural White Pro Daily Clean & Polish Gel Toothpaste; Natural White Pro Daily Clean & Polish Toothpaste; Natural White Pro Daily Clean and Polish Gel Toothpaste; Natural White Pro Daily Clean and Polish Toothpaste; Natural White Pro Sensitive Clean and Polish Toothtpaste; Natural White Radiant White; Natural White Whitening Toothpaste Extreme Whitening; Natures Smile; Neutra Maxx 5000; NeutraGard Gel Mint; NeutraGard Gel Strawberry; Neutragel; Neutral 2% Sodium Fluoride In-office Rinse; Neutral Rinse; Neutral Sodium Fluoride; Neutral Topical; Neutramaxx 5000 Plus Turbo; Neutramaxx 5000 Tcp; Neutrarinse 2% Neutral Sodium Floride Oral Rinse Raspberry Splash; Neutrarinse 2% Neutral Sodium Floride Oral Rinse RefreshMint; Neutrarinse 2% Neutral Sodium Floride Oral Rinse White Grape; Nicorette and Aquafresh Fruit Chill and Extreme Clean Whitening; Nrg Apf; Nupro Apf Topical Gel; Nupro Fluorides Berry Cherry; Nupro Fluorides Bubble Gum; Nupro Fluorides Mint; Nupro Fluorides NaF Oral Solution Apple Cinnamon; Nupro Fluorides NaF Oral Solution Mandarin Orange; Nupro Fluorides NaF Oral Solution Mint; Nupro Fluorides Peach; Nupro Fluorides Tropical; Nupro Fluorides Wild Cherry; Nupro Topical Sodium Fluoride Neutral - Gel; O Bits Xylitol Toothpaste Fresh Mint Flavor; O Bits Xylitol Toothpaste Yuja Mint Flavor; O-Cal FA multivitamin; Olidental Check Gargle; Olidental Gargle; Opalescence PF; Opalescence Plus; Opalescence Sensitivity Relief Whitening; Opalescence Whitening; OptiRinse Plus; Ora 2 stain clear; OraBrite; Orajel; Orajel Anticavity; Orajel Anticavity Fluoride Rinse Alcohol and Sugar Free; Orajel Fluoride; Orajel JoJo Siwa; Orajel Kids My Way Anticavity; Orajel Kids My Way Anticavity Toothpaste; Orajel KidsToothpaste; Orajel Paw Patrol; Oral Antivavity; Oral B Anti-bacterial With Fluoride; Oral B Cavity Protection Special Care Rinse; Oral B Minute-Foam Bubble Gum; Oral B Minute-Foam Grape; Oral B Minute-Foam Mellow Mint; Oral B Minute-Foam Orange-A-Tangy; Oral B Minute-Foam Strawberry; Oral B Neutra Foam Mint Menthe; Oral B NeutraCare Mint Menthe; Oral Care Travel Kit; Oral Defense; Oral Defense Fluoride Rinse; Oral Fusion Anticavity; Oral Plan Antibacterial Dental Floss; Oral Plan Antibacterial Mouthrinse With Fluoride; Oral Projeqt O1 Toothpastetablets; Oral-B Anti-bacterial With Fluoride; Oral-B Anti-cavity Dental Rinse .05%; Oral-B Antibacterial With Fluoride Alc.free; Oral-B Anticavity; Oral-B Fluorinse Mint; Oral-B Minute Gel; Oral-B Minute-Foam Banana Splitz; Oral-B Minute-Foam Bubble Gum; Oral-B Minute-Foam Grape Punch; Oral-B Minute-Foam Mellow Mint; Oral-B Minute-Foam Orang-A-Tangy; Oral-B Minute-Foam Strawberry; Oral-B Neutra-Foam Mint; Oral-B NeutraCare Mint; Oral-B Sensitive With Fluoride Toothpaste; OralLine; OralLine Kids; OralLine Secure; Orbitol Whitening; OroMin; Ortho Guard; OrthoWash; Orthocare; Orthocheck; Oxykids Bubblegum Toothpaste With Fluoride; PCXX Home Treatment 1.1; PCxx; PCxx NaF RNS Mint; PERIOE Microbiome Total Care Strong Mint; PERIOE Microbiome Whitening Cool Mint; PERIOE Whitening Essentials 10X Charcoal Black Clean Mint; PERIOE Whitening Essentials Fresh Aloe Green Mint; PERIOSCIENCES White Care AO Pro; PINE SALT 140g; PINE SALT 170g; PLAK SMACKER Anti-cavity Fluoride Gel; PLAQUE HD ANTICAVITY BERRY BUBBLE GUM FLAVOR Professional Plaque-Identifying; PLAQUE HD ANTICAVITY FRESH MINT FLAVOR Professional Plaque-Identifying; PROPOLIS 200g; PROPOLIS 50g; Pascal Puff; Pcxx Anticaries No Flavor Ne G; Pcxx Apf Rns Bubblegum; Pcxx Apf Rns Grape; Pcxx Apf Rns Mint; Pcxx Apf Rns Strawberry; Pcxx Banana Berry Apf G; Pcxx Bubblegum Apf F; Pcxx Bubblegum Apf G; Pcxx Bubblegum Neutral F; Pcxx Bugglegum Neutral Gl; Pcxx Cappuccino Apf F; Pcxx Cherry Apf F; Pcxx Cherry Apf G; Pcxx Cool Peppermint Apf G; Pcxx Creme De Menthe Apf G; Pcxx Creme De Menthe Neutral Gl; Pcxx Grape Apf F; Pcxx Grape Apf G; Pcxx Homegel Nf G; Pcxx Lime Apf F; Pcxx Marshmallow Apf G; Pcxx Minute Fm Lime; Pcxx Mocha Cappuccino Apf G; Pcxx Mocha Cappuccino Neutral Gl; Pcxx Neutral Foam Bazooka Bubblegum; Pcxx Neutral Gel Cool Peppermint; Pcxx Neutral Gel Creme De Menthe; Pcxx Neutral Gel Mocha Capuccino; Pcxx Neutral Gel Pina Colada; Pcxx Neutral Gel Raspberry Blast; Pcxx Neutral Gel Vanilla Orange; Pcxx Neutral Gel Watermelon Splash; Pcxx Neutral Rms Bubblegum; Pcxx Neutral Rns Grape; Pcxx Neutral Rns Peppermint; Pcxx Neutral Rns Strawberry; Pcxx Neutral Rns Watermelon; Pcxx No Flavor Neutral F; Pcxx One Minte Bazooka Bubblegum; Pcxx One Minte Gel Banana Berry; Pcxx One Minte Gel Cool Peppermint; Pcxx One Minte Gel Creme De Menthe; Pcxx One Minte Gel Grape Explosion; Pcxx One Minte Gel Luscious Lime; Pcxx One Minte Gel Marshmallow Float; Pcxx One Minte Gel Mocha Cappuccino; Pcxx One Minte Gel Raspberry Blast; Pcxx One Minte Gel Rootbeer; Pcxx One Minte Gel Strawberry Blast; Pcxx One Minte Gel Vanilla Orange; Pcxx One Minte Gel Watermelon Splash; Pcxx One Minute Cool Peppermint; Pcxx Peppermint Apf F; Pcxx Peppermint Neutral F; Pcxx Peppermint Neutral Gl; Pcxx Pina Colada Apf G; Pcxx Raspberry Apf F; Pcxx Raspberry Apf G; Pcxx Raspberry Neutral Gl; Pcxx Remin 0.4; Pcxx Rootbeer Apf F; Pcxx Rootbeer Apf G; Pcxx Strawberry Apf F; Pcxx Strawberry Apf G; Pcxx Strawberry Neutral F; Pcxx Vanilla Orange Apf G; Pcxx Vanilla Orange Neutral F; Pcxx Vanilla Orange Neutral Gl; Pcxx Vanilla Orange One Minute Fm; Pcxx Watermelon Apf G; Pcxx Watermelon Neutral Gl; Pcxx Wild Cherry Apf G; Pdf 0.2% Rince Dent Hebdo; Pdf Gel 1.24%; Pdf Rince Dents 0.05%; Peanuts Anti-cavity Fluoride Toothpaste; Pearl Drops Stainfighting Baking Soda Tooth.; Pearl Drops Stainfighting Baking Soda Tpt; Pearl Drops Stainfighting Whitening Tpt; Pearl Drops Whitening Gel Toothpaste; Pearl White; Pearlie White; Peditrace; Peppermint Charcoal Anticavity PCFT6 gently whitens teeth / fights cavities / safe for enamel / safe for everyday use; Peppermint Twist; Pepsodent Complete Care Enamel-Safe WHITENING; Pepsodent Complete Care Original; PerCara Kids Bubble Gum; Perfect Choice; Perfect Choice 0.717% Root and Dentin Desens; Perfect Choice Brush-ON; Perfect Choice In-office Rinse Acidulated Phosphate Fluoride; Perfect Choice Neutral Sodium Fluoride Gel; Perfect Choice Prophy Paste; PerioTherapy Healthy Gums; Perioselect Sodium Fluoride Solution 2%; Peroxi Care Baking Soda and Peroxide; Peroxie Care Tartar Control Baking Soda and Peroxide; Peroxie Care Tartar Control Healthy Gums Baking Soda and Peroxide; Phocal Apf; Phocal pHn; Phos-Flur; Phos-Flur Ortho Defense; Pine Salt; Plak Smacker; Plak Smacker Anti Cavity Fluoride; Plak Smacker GREAT WHITE SHARK; Plak Smacker Mint Blast; Plaque Refresh Remineralizing Rinse Fresh Mint; Polident ProPartial; Poly Vi Flor Chewable Tab; Poly-VI-flor; Poly-Vi-Flor; Poly-Vi-Flor Gummies; Poly-Vitamin with Fluoride; Povi Dental Care; Power White 7 Everyday Whitening; Power White 7 Sensitive; Power-Rangers DINO CHARGE; PreviDent; PreviDent 5000 Booster; PreviDent 5000 Booster Plus Fruitastic; PreviDent 5000 Dry Mouth; PreviDent 5000 Enamel Protect; PreviDent 5000 Plus Fruitastic; PreviDent 5000 Plus Spearmint; PreviDent 5000 Sensitive; PreviDent Alcohol Free; PreviDent Fresh Mint; PreviDent OrthoDefense; PreviDent Very Berry; PrevidDent 5000 Booster Plus Spearmint; Primo APF; Pro Care Flouride; Pro-Den Rx; Pro-dent 1.1% Plus Neutral Sodium Fluoride Dentifrice; Pro-dentx 2% Neutral Sodium Fluoride Oral Rinse; Pro-dentx Comfort Dentin Desensitizer; Professional Whitening System Whitening; Professional Whitening System Whitening Mouth Wash; Pure Mouth Liquid; Pure Snow whitening; PureLife APF; Quality Choice Natural White; Quflora FE; Quflora FE Pediatric Drops; Quflora Gummies; Quflora Pediatric; Quflora Pediatric Drops; Quip; Quip Anticavity; Quip Anticavity Fluoride Concentrate; Rael Himalayan Pink Salt Fresh soothing mint; Rafluor New Age Gel 1.23%; Rain Breeze Toothpaste; Rapid White Whitening Gel Toothpaste With Soft Polish; Rapid White Whitening Toothpaste With Soft Polish; ReNaf Fluoride; Reach Act Fluoride, Cinnamon; Reach Act Fluoride, Mint; Reach Act for Kids, Bubblegum; Reach Anti cavity Fluoride; Reach Gentle Gum Care Fluoride Mint; Rembrandt Canker Sore Mint; Rembrandt Deeply White Plus Peroxide Whitening Fresh Mint; Rembrandt Gentle White Mint; Rembrandt Intense Stain; Rembrandt Intense Stain Brilliant Mint; Rembrandt Whitening Mint Intense; Restoring Anticavity; Rexall Sensitive Extra Whitening; Rexall Sensitive Freshmint; Rite Aid Enamel Guard; Rite Aid Extra Whitening; Rite Aid Radiant White Arctic Mint; Rite Aid Sensitive Mint; Rite Aid Sensitive Toothpaste Extra Whitening; SALARIUM ANDES SALT PremiumToothpaste; SALARIUM GUERANDE SALT PremiumToothpaste; SALARIUM MALDON SALT PremiumToothpaste; SALARIUM PREMIUM SaltTOOTHPASTE GIFT SET; SENSODYNE Advanced Whitening; SENSODYNE PRONAMEL 6 to 12 years; SENSODYNE PRONAMEL Daily Protection; SENSODYNE PRONAMEL Fresh Breath; SENSODYNE PRONAMEL Gentle Whitening; SENSODYNE PRONAMEL Intensive Enamel Repair Clean Mint; SENSODYNE PRONAMEL Intensive Enamel Repair Extra Fresh; SENSODYNE PRONAMEL Intensive Enamel Repair Whitening; SENSODYNE PRONAMEL Multi Action; SENSODYNE PRONAMEL mineral BOOST refreshing peppermint; SENSODYNE PRONAMEL mineral BOOST whitening action; SENSODYNE Pronamel iso-active; SENSODYNE iso-active; SF 5000 Plus; SMILEBAR Whitening; SONGYUM New Pinesalt; SafetyMAXX Mint Flavor; Saltrain Clean Breath; Saltrain Tooth; Scope Stay Strong; Scotts Neutral pH; Scotts Select APF; Scotts Select APF Foam Fluoride; Scotts Select Homecare; Scotts Select Neutral APF Fluoride; Sea Salt Anticavity SALT47 gently scrubs away surface stains / fights bad breath germs / strengthens enamel; Selahatin All Variants; Sensitive Anti-cavity; Sensitive Mint Tooth-paste; Sensitive MultiProtection with Tartar Control; Sensitive Teeth and Gums; Sensitive Tooth Paste Multi Action; Sensitive Tooth Paste Whitening; Sensitive Tooth Polish; Sensitive Whitening Enamel Guard; Sensitive Whitening Tooth-paste; Sensitive Whitening with Baking Soda; Sensitive With Fluoride Tpt; Sensodyne; Sensodyne CoolGel; Sensodyne Extra Whitening; Sensodyne Fresh Impact; Sensodyne Fresh Mint; Sensodyne Full Protection; Sensodyne Natural white; Sensodyne Nourish Gently Soothing; Sensodyne Nourish Healthy White; Sensodyne Original Flavor; Sensodyne Pronamel; Sensodyne Pronamel Fluoride Rinse; Sensodyne Pronamel Gentle Whitening Advanced; Sensodyne Pronamel Strong and Bright Enamel Extra Fresh; Sensodyne Pronamel Strong and Bright Enamel Mint; Sensodyne Tartar Control; Sensodyne True white; Sensodyne-F Mint Toothpaste; Sf; Shark; Sheer FluorX PEDO Fluoride Treatment; SheerFluorX Fluoride Treatment; Sherbet; Shopkins Brush Buddies; Shopkins Bubble gum Mouth wash; Shopkins Mouth wash; Signal Triple Protection Complete; Signature Care Enamel Guard Sensitive Gentle Whitening; Signature Care Sensitive Maximum Strength; Simply White Clean Mint; Simply White Sweet Mint; Simply White clean mint; Smart Sense Alcohol Free; Smart Sense Anticavity; Smart Sense Enamel Guard; Smart Sense Maximum Strength; Smile Direct Club; SmileActives Pro Whitening; SmileGuard Just 4 Me; SmileGuard Orthodontic Brace Relief; SmileGuard Spider Sense Spider-Man Bubblegum; SmileGuard Strawberry Shortcake Bubblegum; Smiley Gripper; Sodium Flouride; Sodium Fluoride; Sodium Fluoride 1.1%; Sodium Fluoride 1.1% Gel; Sodium Fluoride 5000 PPM; Sodium Fluoride 5000 Plus; Sodium Fluoride 5000 ppm; Sodium Fluoride 5000 ppm Dry Mouth; Sodium Fluoride 5000 ppm Enamel Protect; Sodium Fluoride 5000 ppm Fruit; Sodium Fluoride 5000 ppm Sensitive; Sodium Fluoride 5000 ppm Spearmint; Sodium Fluoride Cherry; Sodium Fluoride Chewable; Sodium Fluoride Dps 6.9mg; Sodium Fluoride Drops; Sodium Fluoride Gel; Sodium Fluoride Tab 2.21mg Chewable; Sodium Fluoride and Potassium Nitrate; Sodium Fluoride and Vitamin D Drops; Sodium fluoride; Solu Flur Liq; Soom Green Mouthwash; Soom Mouthwash; SoonSoo gargle; Sorbet APF; Sorbet Neutral; Sorbet Rinse; Sound Body Sensitive Maximum Strength; Sparkle Fresh Anticavity; Spearmint Eucalyptus; Spearmint and Peppermint PLAQUE A WAY Fluoride AnticavityGentle Formula Gentle Formula; Spider Sense Spider-Man Pediatric; Spotlight Mouthwash for Whitening Teeth; Spotlight Oral Care Kit for Bad Breath; Spotlight Oral Care Kit for Sensitive Teeth; Spotlight Oral Care for Gum Health; Spotlight Oral Care for Rebuilding Teeth; Spotlight Oral Care for Sensitive Teeth; Spotlight Oral Care for Total Care; Spotlight Oral Care for Whitening Teeth; Spotlight Pregnancy; SprinJene Fresh Boost; SprinJene White Boost; Spry Xylitol Cinnamon; Sunstar G.U.m Hydral Dry Mouth Relief; Superba; Synedent FLX; T-series; TL-Fluorivite; TM-C7 Oral Care; Take Home Fluoride Cool Mint; Tanda pearl professional whitening; Tanners Tasty Cha Cha Chocolate; Tanners Tasty Ooh La La Orange; Tanners Tasty Vanilla Bling; Target Sensitive Whitening TP; Teeth Desensitizing and Remineralizing Gel; Teledyne Water Pik Prophylaxis Paste- 1.23%; The Blue Toothbrush; The Cat In The Hat Toothpaste; The Duo; The Gargle; The Humble Co Anticavity Mouthwash Charcoal; The Humble Co Anticavity Mouthwash Fresh Mint; The Humble Co Natural Charcoal; The Humble Co. Anticavity CHARCOAL; The Humble Co. Anticavity FRESH MINT; The Humble Co. Anticavity Kids Strawberry Flavor; The Humble Co. Anticavity Mouthwash Coconut; The Humble Co. Anticavity Mouthwash Strawberry Kids; The Humble Co. Charcoal Powder; The Humble Co. For Kids Strawberry Flavour; The Humble Co. Fresh Mint; The Humble Co. Fresh Mint Strawberry Flavour; The Humble Co. Kit; The Humble co. Anticavity Mouthwash Strawberry; The HumbleCo Natural Fresh Mint; The Natural Dentist Berry Blast; The Natural Dentist Charcoal Whitening Fluoride; The Natural Dentist Groovy Grape; The Natural Dentist Orange Zest; The Natural Dentist Peppermint Twist; The Natural Dentist Sensitivity; The Natural Dentist Whitening; The Natural Dentist Whitening Fluoride; The White Toothbrush; Theory Enamel Care Wild Peppermint; Theory Freshness Care Essential Mint; TheraBreath Fresh Breath; TheraBreath Healthy Smile Oral Rinse; TheraBreath Plus Fresh Breath; TheraBreath for Kids Anti Cavity Oral Rinse; Therabreath Toothpaste; Thixotropic Acidulated Phos. Fluor. Top. Gel; Thixotropic Neutral Sodium Fluoride Top. Gel; Thomas and Friends; Tidalove Smile More Oral Care; Tiger Supply Inc APF; Toms Childrens Anticavity Mouthwash Juicy Mint; Toms Childrens Anticavity Mouthwash Silly Strawberry; Toms Childrens anticavity fluoride; Toms Kids Grape Save the Animals; Toms Luminous White - Spearmint fights cavities whitening; Toms Luminous White Fluoride Clean Mint cavity protection / whitening; Toms Natural Anticavity Peppermint fights cavities freshens breath strengthens enamel; Toms Natural Enamel Strength Peppermint strengthens enamel / whitening / fights cavities / freshens breath / no artificial dyes or sweeteners; Toms Natural Maximum Strength Sensitive Soothing Mint clinically proven to reduce painful sensitivity / no artificial dyes or sweeteners; Toms Simply White Fluoride Clean Mint whitening / cavity protection; Toms Teeth and Gum Health; Toms Whole Care Mouthwash Fresh Mint; Tooth Polish Whitening; Toothpowder; Top Care Brilliant White; Top Care Enamel Guard; Top Quality Mfg APF; TopCare Sensitive Extra Whitening; Topco Associates LLC Maximum Strength; Topex 60 Second Fluoride Foam Bubble Fun; Topex 60 Second Fluoride Foam Grape; Topex 60 Second Fluoride Foam Orange Cream; Topex 60 Second Fluoride Foam Spearmint; Topex 60 Second Fluoride Foam Strawberry; Topex 60 Second Fluoride Gel; Topex Neutral Fluoride Foam; Topical 60 Sec Sodium Fluoride Bubble Gum; Topical 60 Sec Sodium Fluoride Grape; Topical 60 Sec Sodium Fluoride Mint; Topical 60 Sec Sodium Fluoride Orange Cream; Topical 60 Sec Sodium Fluoride Strawberry; Topical Fluoride Foam Apple Cinnamon Flavour; Topical Fluoride Foam Bubble Gum Flavour; Topical Fluoride Foam Bumble Bee Bubble Gum; Topical Fluoride Foam Koala Berry Flavour; Topical Fluoride Foam Tyranna Grape Flavour; Topical Fluoride Foam Witchy Candy Mint; Toppan Gargle; Total Daily Repair; Total Whitening; Tradition Salt CareToothpaste; Transcon First Amenity Kit; Transcon First Class Kit; Tri Vi Flor Tab; Tri-Vi-Flor; Tri-Vit With Fluoride And Iron Drops; Tri-Vit with Fluoride Drops; Tri-Vitamin with Fluoride; Tri-Vitamin with iron and fluoride; Tri-Vite Drops with Fluoride; Triple Vitamin Drops with Fluoride; Triple-Vitamin Drops with Fluoride; Tropical MINT dentistry; Truly Radiant Bright and Strong; Truly Radiant Clean and Fresh Fluoride Rinse; Truly Radiant Rejuvenating Whitening; Truly Radiant Whitening and Enamel Strengthening; Truly Radiant Whitening and Strengthening Rinse; Truly Radiant Whitening and Strengthening Rinse CLEAN AND FRESH; Tween Crest Cavity Protection; Twice Science Wellness Cooling Spearmint Eucalyptus; Twice Science and Wellness Calming Vanilla Lavender Mint; Twice Science and Wellness Invigorating Wintergreen and Peppermint; Twilight Peppermint with Vanilla and Lavender; UP Toothpaste,Lemon Citron; UPC 801803 00211 MegaFresh Gel Fluoride Tooth; Ultra Control Bubblegum; Ultra Control Melon; Ultra Control Mint; Ultra Control Strawberry; UltraCare Alcohol Free; UltraCare Alcohol Free Fresh Mint; Ultrabrite; United Airlines Polaris Kit with Colgate; United Airlines Transcon Kit with Colgate; United Airlines UPP Kit with Colgate; Universal Charcoal With Aloe Vera Anti-cavity Fluoride; Universal Sensitive Anti-cavity Fluoride; Unpaste; Unpaste Tooth Tabs; Up and UP Anticavity Toothpaste Whitening Plus Mouthwash; Up and UP Sensitive Toothpaste Enamel Strengthening formula; Up and UP Sensitive Toothpaste Enamel Strengthening formula plus whitening; Up and Up Anticavity Toothpaste Whitening; Up and Up Anticavity Toothpaste Whitening Plus Mouthwash; Up and Up Sensitive Maximum Strength Mint; Up and Up Sensitive Maximum Strength Whitening; Up and Up Sensitive Toothpaste; Up and Up Sensitive Toothpaste Whitening; VITAMINS A, C, D and FLUORIDE; Vanilla Lavender Mint; Venus White Clean Mint Whitening; Vitamins A, C, D and Fluoride Drops; VividSensiGuard; Vontee; Vortex; Vvardis Set Soft Mint; Vvardis Set Strong Mint; Wakefern Enamel Guard; Wakefern Maximum Strength; Wal-Mart Stores Inc. Equate; Walgreen Anticavity Whitening; Walgreen Sensitive Extra Whitening; Walgreens Anticavity and Antigingivitis Whitening; Walgreens Anticavity and Antigingivits Whitening Fluoride Toothpaste; Walgreens Maximum Strength Sensitive Fluoride; Walgreens Radiant White; Walgreens Scooby Doo Fluoride Gel Toothpaste; Walgreens Sensitive Dura-namel; Walgreens Sensitive Extra Whitening; Walgreens Stain Care; Walgreens Sulfate Free; Wentworth Alcohol Free; Western Family Cavity Control; Western Family Complete Whitening; Western Family Sensitive Whitening Fluoride; Western Family Tartar Control; Western Family Whitening; Western Family Whitening Plus Minty Fresh Mouthwash Anticavity; Whitening All Variants; Whitening Anticavity Radiant Mint; Whitening Foaming; Whitening Foaming-Toothpaste; Whitening Plus; Whitening Tooth Polish; Whitening Toothpaste Fresh Mint - P; Whitening Toothpaste Fresh Mint - T; Whole Care Orange Mango; Whole Care Peppermint; Whole Care Spearmint; Wintergreen Peppermint; X-Pur Opti-Rinse Plus; Xerolube Liq 0.0002%; Xerostom; Xylishield; ZOOBY Chocolate Chow; ZOOBY Gator Gum; ZOOBY Growlin Grrrape; ZOOBY Happy Hippo Cake; ZOOBY Spearmint Safari; ZOOBY Turtle Melon; Zap APF; Zap Neutral; Ziroxide Coarse Grit 1.23% Fluoride; Ziroxide Coarse Paste 1.23% Fluoride; Ziroxide Medium Fine Grit 1.23% Fluoride; Ziroxide Medium Fine Paste 1.23% Fluoride; Zohar finest Anticavity; Zoom Whitening Toothpaste; arpha Stain Clear; charcoal MINT dentistry; emmi dent Sodium Fluoride Anticavity Mild; equate Sensitive; equate beauty Enamel Protection Gentle Whitening For Sensitive Teeth; equate beauty Radiant White; fluorodine OXYGEN white Fluoride Anticavity; fluorodine ULTRA active Fluoride Anticavity; fluorodine ULTRA sensitive Fluoride Anticavity; gelo-X; hismile COCONUT WHIP FLAVOR anticavity; hismile MANGO SORBET FLAVOR anticavity; hismile PEACH ICED TEA FLAVOR anticavity; hismile SMOOTH MINT FLAVOR anticavity; hismile WATERMELON FLAVOR anticavity; iBrite; mojito MINT dentistry; pH7 Gel Mint

$$$$
