
  Mrv1718008271815552D          

  2  0  0  0  0  0            999 V2000
    0.4125    0.0000    0.0000 Mg  0  2  0  0  0  0  0  0  0  0  0  0
   -0.4125    0.0000    0.0000 O   0  6  0  0  0  0  0  0  0  0  0  0
M  CHG  2   1   2   2  -2
M  END
> <DATABASE_ID>
DB01377

> <DATABASE_NAME>
drugbank

> <SMILES>
[O--].[Mg++]

> <INCHI_IDENTIFIER>
InChI=1S/Mg.O/q+2;-2

> <INCHI_KEY>
AXZKOIWUVFPNLO-UHFFFAOYSA-N

> <FORMULA>
MgO

> <MOLECULAR_WEIGHT>
40.304

> <EXACT_MASS>
39.97995652

> <JCHEM_ACCEPTOR_COUNT>
0

> <JCHEM_ATOM_COUNT>
2

> <JCHEM_AVERAGE_POLARIZABILITY>
1.7784

> <JCHEM_BIOAVAILABILITY>
1

> <JCHEM_DONOR_COUNT>
0

> <JCHEM_FORMAL_CHARGE>
0

> <JCHEM_GHOSE_FILTER>
0

> <JCHEM_IUPAC>
magnesium(2+) oxidandiide

> <JCHEM_LOGP>
-0.57

> <JCHEM_MDDR_LIKE_RULE>
0

> <JCHEM_NUMBER_OF_RINGS>
0

> <JCHEM_PHYSIOLOGICAL_CHARGE>
2

> <JCHEM_PKA>
3.55

> <JCHEM_PKA_STRONGEST_ACIDIC>
3.09

> <JCHEM_POLAR_SURFACE_AREA>
0.0

> <JCHEM_REFRACTIVITY>
0.0

> <JCHEM_ROTATABLE_BOND_COUNT>
0

> <JCHEM_RULE_OF_FIVE>
1

> <JCHEM_TRADITIONAL_IUPAC>
magnesium(2+) oxidandiide

> <JCHEM_VEBER_RULE>
1

> <DRUGBANK_ID>
DB01377

> <DRUG_GROUPS>
approved

> <GENERIC_NAME>
Magnesium oxide

> <SYNONYMS>
Magnesia; Magnesium oxide

> <PRODUCTS>
Abavite; Active FE; Anaplex Tab; Antacid; Armax; Aspirin Plus Stomach Guard Ext.stgth.caplet; Aspirin Plus Stomach Guard Extra Strength; Aspirin Plus Stomach Guard Tab; Aspirin With Stomach Guard; Aspirin With Stomach Guard Extra Strength - Tab; B 6 Plus; B6 Plus Tab; Bacmin; Baisix; Bal-Care DHA; Bal-Care DHA Essential; Buffered Vitamin C Pwr W Cal-mag-potassium; BumP DHA; C-apnto-B6 Vitamins W Magnesium Tab; C.R.T. X Multivitamin & Mineral Powder Mix; Cal M Tab; Cal-mag (one To One) With Potass & Zinc; Cal-mag Complete With Zinc, C and D; Cal-mag Plus K, Mn and Zn Caplets; Cal-mag Vitamin C and Zinc Tab; Cal-mag With Vitamin D; Calcemin Advance; Calcemin Silver; Calci-yum Plus Magnesium + D3; Calcium & Magnesium Tab; Calcium & Magnesium With Vitamin D; Calcium - Magnesium - Zinc Tab; Calcium Caps Plus Magnesium; Calcium Et Magnesium Plus Vitamin D; Calcium Magnesium 2:1 Tablets With Vitamin D; Calcium Magnesium Avec Vitamine C; Calcium Magnesium Avec Vitamine D Et Zinc; Calcium Magnesium Tab; Calcium Magnesium Tablets Nu Life; Calcium Magnesium With Potassium Tab; Calcium Mg and Zn Capsules With Vitamin D; Calcium Plus; Calcium Supplement Tab; Calcium Vitamin D Iron Mag; Calcium With Magnesium and Vitamin D; Calcium and Mag-potass and Zinc Cap; Calcium and Magnesium Tablets; Calcium and Magnesium W Zinc Tab; Calcium and Magnesium With Vitamin D; Calcium and Magnesium With Zinc; Calcium, Magnesium, Zinc and D; Calcium-magnesium Cap 1:1 W Vitamin D; Calcium-magnesium With K & Zn and Vitamin D3; Calcium/magnesium Supplement Tablets; Calcium/magnesium/vitamin D - Capsule; Calma-D; Cavan Alpha; Cavan Folate DHA; Cavan Folate OB; Cavan-EC SOD DHA; Children's Chew Multi & Min Tab; Choice OB DHA; Chromease Tab; Citracleen; Clenpiq; Complete Natal DHA; Complete-RF Prenatal; Corvita; Corvite; Corvite 150; Corvite Free; Cyclo/Mag; Cyclo/Mag 10mg/200mg; Dayavite; Diphen; Duet DHA; Duet DHA 400; Duet DHA 400 ec; DuetDHA Balanced; DuetDHA Complete; E.S.T. Complex; Earthpals Children's Chewables Multi-vitamin & Mineral Tablets; Edge OB; Efferlife Multivitamins and Minerals; Effervescent Vitamin C Powder With Ca and mg; Elite OB Prenatal Multivitamin; Escavite D; Feminex 300 Tab; Femitab Tab; FolaGent DHA; FolaMax; FolaMed DHA; Folet DHA; Foliflex; Folika-MG; Folitin-Z; Formula EC; Formula Osg; G.A.S. Complex; Good Night/pm Formula Tab; High Potency Multivitamins & Minerals Caplets; Inatal Advance; Iron Polysaccharides Folic Acid DHA; Kidmag Vitamins W Magnesium Tab; L-Methyl PNV DHA; Leritone Magnesium & Vitamine E; Liquical; Liquid Cal-mag; Liquid Cal/mag Plus D; Magnacal; Magnelis; Magnesium 250 mg; Magnesium 250mg Tab; Magnesium Cap; Magnesium Comprime Tab; Magnesium Oxide; Magnesium Oxide 400mg; Magnesium Oxide 420 - Caplet; Magnesium Oxide HA; Magnesium Oxide Powder Heavy; Magnesium Oxide Tab 252mg; Magnesium Oxide Tab 420mg; Magnesium Oxide Tab 70mg; Magnesium Tab 250mg; Magnesium and Zinc; Magnesium-tab; Marnatal F; Materna; Materna - Tab; Materna-tab; Mega Min Capsules; Mega Vitaminerals; Megavite Rx; Menocal Tab; Mgk; Mid-life Magnacal 2; Migralex Dr. Mauskop; Multi-Nate 30; Multi-force for Adults Tab; Multi-force for Women Tab; Multinate DHA; Multinate DHA Extra; Multiple Vitamins & Minerals Tablets; Multiple Vitamins and Minerals; Multitam; Multivitamins W Minerals Extra Strength; Multivitamins and Minerals for Young Men; Multivitamins and Minerals for Young Women; NEONATAL Complete; Natal-V RX Multi-vitamin/Multi-mineral; Neo-vites & Minerals Tab; Neonatal DHA; Nestabs ONE; Neutral C + Coenzyme Q10 Plus Vitamins & Minerals; Nutravite Calcium Magnesium and Zinc Caps; OB Complete Prenatal; Omega-3 Rx Complete; One Tablet Daily Mens Formula; Onyx; Oral Purgative; Organic Minerals Tablet; Osteo Formula; Osteomineral; PNV Tabs 20-1; PNV Tabs 29-1; PNV-First; PNV-Omega; PNV-Select; PR Natal 400; PR Natal 400 ec; PR Natal 430; PR Natal 430 ec; PRENATE Enhance; PRENATE Restore; Paramettes Adults; Phytopure; Pico-salax; Picodan; Picoflo; Pnv-OB-dha; Pour Ma SantÃ©; PreGen DHA; PreGenna; PreQue 10; Pregvit; Pregvit Folic 4; Pregvit Folic 5; Prenatal Supplement - Tab; Prenatal Vitamin and Mineral Supplement -tab; Prenatal Vitamins and Minerals Tablets; Prenatal and Post Partum Supplement; Prenate Chewable; Prenate DHA; Prenate Elite; Prenate Essential; Prenate Mini; Prenate Star; Prenatrix; Prenatryl; Prenatvite Complete; Prepopik; Pretrate; Prevencal 600 + D Et Magnesium; PrimaCare; ProFola; Prometa; Provida OB; Purg-odan; Quflora Pediatric; Quflora Pediatric Drops; R.E.S. Complex; RE Nata OB; RayaVit; Recal D; Remedient; Renate; Renate DHA; Ribotin-E; Rogenic; Rulavite DHA; Se-Care Chewable; Se-Care Conceive; Se-Natal One; Select OB; Select-OB Plus DHA Prenatal Supplement Plus DHA; SetonET; SetonET-EC; Sodium Picosulfate, Magnesium Oxide and Anhydrous Citric Acid; Spd Tab; Strovite One Caplets; Super C-M-K; Super Charged Energy; Super Daily No 2; Supplement De Vitamines Et Mineraux; TL-Folate; Tendera-OB; Thrivite Rx; Totalvit Plus; Tri-buffered Asa Tab; TriAdvance; TriStart DHA; TriStart FREE; TriStart ONE; Trinatal GT; Trinatal Rx 1; Triveen-Duo DHA; UltimateCare ONE NF; Urologic G for Irrigation; Urologic Solution G; Usana Active Calcium; Vena-Bal DHA; Venexa; Venexa FE; Ventrixyl; Ventrixyl Fe; Vinate AZ; Vinate Care; Virt Nate; Virt Vite GT; Virt-Advance; Virt-Bal DHA Plus; Virt-Nate; Virt-Nate DHA; Virt-PN; Virt-PN DHA; Virt-PN Plus; Virt-Pn; Virt-Pn DHA; Vit C W Calc-mag and Potass Powder; Vita Vim With Beta Carotene-caplet; Vita-vim With Beta-carotene - Tab; VitaPhil Aide; Vitafol Fe Plus; Vitafol Ultra; Vitamines Et Mineraux; Vitamines Et Mineraux Comprimes; Vitamines Et Mineraux Enfants 970; Vitaphil 90 DHA; Vitaphil DHA; Vitramyn; Vitranol; Vitranol Fe; Vitrexate; Vitrexate FE; Vitrexyl; Vitrexyl plus Iron; Vol-Nate; Vol-Tab Rx; Vp-pnv-dha; Wellness Formula; WesCap-PN DHA; WesNate DHA; WestGel DHA; Women's Formula; Women's Support Tablets; Zantanol Tab.; Zatean-Pn DHA; Zatean-Pn Plus; Zintrexyl-C; healthy mamaBE WELL ROUNDED BE WELL ROUNDED

> <INTERNATIONAL_BRANDS>
Magmitt

$$$$
