
  Mrv1909 01212120302D          

 31 34  0  0  0  0            999 V2000
    0.4609    0.9193    0.0000 N   0  0  0  0  0  0  0  0  0  0  0  0
   -0.3260    1.1678    0.0000 C   0  0  0  0  0  0  0  0  0  0  0  0
   -0.5080    1.9608    0.0000 N   0  0  0  0  0  0  0  0  0  0  0  0
    0.1089    2.5447    0.0000 C   0  0  0  0  0  0  0  0  0  0  0  0
    0.8957    2.2963    0.0000 C   0  0  0  0  0  0  0  0  0  0  0  0
    1.0654    1.4639    0.0000 C   0  0  0  0  0  0  0  0  0  0  0  0
    1.8523    1.2153    0.0000 N   0  0  0  0  0  0  0  0  0  0  0  0
    1.5003    2.8407    0.0000 N   0  0  0  0  0  0  0  0  0  0  0  0
   -0.0731    3.3376    0.0000 N   0  0  0  0  0  0  0  0  0  0  0  0
   -0.9305    0.6233    0.0000 C   0  0  0  0  0  0  0  0  0  0  0  0
   -1.3673   -0.6231    0.0000 N   0  0  0  0  0  0  0  0  0  0  0  0
   -2.0010   -0.1634    0.0000 C   0  0  0  0  0  0  0  0  0  0  0  0
   -1.7526    0.6233    0.0000 C   0  0  0  0  0  0  0  0  0  0  0  0
   -0.6574   -0.1552    0.0000 N   0  0  0  0  0  0  0  0  0  0  0  0
   -2.8209   -0.2939    0.0000 N   0  0  0  0  0  0  0  0  0  0  0  0
   -3.3655    0.3107    0.0000 C   0  0  0  0  0  0  0  0  0  0  0  0
   -3.1171    1.0974    0.0000 C   0  0  0  0  0  0  0  0  0  0  0  0
   -2.2847    1.2673    0.0000 C   0  0  0  0  0  0  0  0  0  0  0  0
   -1.1853   -1.4162    0.0000 C   0  0  0  0  0  0  0  0  0  0  0  0
   -1.7898   -1.9607    0.0000 C   0  0  0  0  0  0  0  0  0  0  0  0
   -1.6078   -2.7538    0.0000 C   0  0  0  0  0  0  0  0  0  0  0  0
   -2.2248   -3.3376    0.0000 C   0  0  0  0  0  0  0  0  0  0  0  0
   -3.0116   -3.0891    0.0000 C   0  0  0  0  0  0  0  0  0  0  0  0
   -3.1937   -2.2961    0.0000 C   0  0  0  0  0  0  0  0  0  0  0  0
   -2.5767   -1.7121    0.0000 C   0  0  0  0  0  0  0  0  0  0  0  0
   -3.6526    1.6921    0.0000 F   0  0  0  0  0  0  0  0  0  0  0  0
   -0.8289   -2.9892    0.0000 F   0  0  0  0  0  0  0  0  0  0  0  0
    2.2741    2.5894    0.0000 C   0  0  0  0  0  0  0  0  0  0  0  0
    2.4435    1.7935    0.0000 O   0  0  0  0  0  0  0  0  0  0  0  0
    2.8788    3.1339    0.0000 O   0  0  0  0  0  0  0  0  0  0  0  0
    3.6526    2.8826    0.0000 C   0  0  0  0  0  0  0  0  0  0  0  0
  1  2  1  0  0  0  0
  2  3  2  0  0  0  0
  3  4  1  0  0  0  0
  4  5  2  0  0  0  0
  5  6  1  0  0  0  0
  1  6  2  0  0  0  0
  6  7  1  0  0  0  0
  5  8  1  0  0  0  0
  4  9  1  0  0  0  0
  2 10  1  0  0  0  0
 11 12  1  0  0  0  0
 12 13  2  0  0  0  0
 13 10  1  0  0  0  0
 10 14  2  0  0  0  0
 11 14  1  0  0  0  0
 12 15  1  0  0  0  0
 15 16  2  0  0  0  0
 16 17  1  0  0  0  0
 17 18  2  0  0  0  0
 13 18  1  0  0  0  0
 19 11  1  0  0  0  0
 19 20  1  0  0  0  0
 20 21  1  0  0  0  0
 21 22  2  0  0  0  0
 22 23  1  0  0  0  0
 23 24  2  0  0  0  0
 24 25  1  0  0  0  0
 20 25  2  0  0  0  0
 17 26  1  0  0  0  0
 21 27  1  0  0  0  0
  8 28  1  0  0  0  0
 28 29  2  0  0  0  0
 28 30  1  0  0  0  0
 30 31  1  0  0  0  0
M  END
> <DATABASE_ID>
DB15456

> <DATABASE_NAME>
drugbank

> <SMILES>
COC(=O)NC1=C(N)N=C(N=C1N)C1=NN(CC2=CC=CC=C2F)C2=C1C=C(F)C=N2

> <INCHI_IDENTIFIER>
InChI=1S/C19H16F2N8O2/c1-31-19(30)25-14-15(22)26-17(27-16(14)23)13-11-6-10(20)7-24-18(11)29(28-13)8-9-4-2-3-5-12(9)21/h2-7H,8H2,1H3,(H,25,30)(H4,22,23,26,27)

> <INCHI_KEY>
QZFHIXARHDBPBY-UHFFFAOYSA-N

> <FORMULA>
C19H16F2N8O2

> <MOLECULAR_WEIGHT>
426.388

> <EXACT_MASS>
426.136428113

> <JCHEM_ACCEPTOR_COUNT>
8

> <JCHEM_ATOM_COUNT>
47

> <JCHEM_AVERAGE_NEUTRAL_MICROSPECIES_CHARGE>
0.003327468151204638

> <JCHEM_AVERAGE_POLARIZABILITY>
40.68765677320816

> <JCHEM_BIOAVAILABILITY>
1

> <JCHEM_DONOR_COUNT>
3

> <JCHEM_FORMAL_CHARGE>
0

> <JCHEM_GHOSE_FILTER>
0

> <JCHEM_IUPAC>
methyl N-(4,6-diamino-2-{5-fluoro-1-[(2-fluorophenyl)methyl]-1H-pyrazolo[3,4-b]pyridin-3-yl}pyrimidin-5-yl)carbamate

> <JCHEM_LOGP>
2.9918569329999993

> <JCHEM_MDDR_LIKE_RULE>
0

> <JCHEM_NEUTRAL_CHARGE>
0

> <JCHEM_NUMBER_OF_RINGS>
4

> <JCHEM_PHYSIOLOGICAL_CHARGE>
0

> <JCHEM_PKA_STRONGEST_ACIDIC>
11.841771420446504

> <JCHEM_PKA_STRONGEST_BASIC>
3.5254815885437205

> <JCHEM_POLAR_SURFACE_AREA>
146.85999999999999

> <JCHEM_REFRACTIVITY>
132.34799999999998

> <JCHEM_ROTATABLE_BOND_COUNT>
5

> <JCHEM_RULE_OF_FIVE>
1

> <JCHEM_TRADITIONAL_IUPAC>
disodium dexamethasone phosphate(2-)

> <JCHEM_VEBER_RULE>
0

> <DRUGBANK_ID>
DB15456

> <DRUG_GROUPS>
approved; investigational

> <GENERIC_NAME>
Vericiguat

> <SYNONYMS>
Vericiguat; VÃ©riciguat; Vericiguatum

> <PRODUCTS>
Verquvo

> <INTERNATIONAL_BRANDS>
Verquvo

$$$$
