
  Mrv1909 12142014142D          

 18 19  0  0  0  0            999 V2000
    0.0160    0.7380    0.0000 N   0  0  0  0  0  0  0  0  0  0  0  0
    0.8410    0.7380    0.0000 C   0  0  0  0  0  0  0  0  0  0  0  0
   -0.3964    1.4524    0.0000 C   0  0  0  0  0  0  0  0  0  0  0  0
   -0.3964    0.0234    0.0000 C   0  0  0  0  0  0  0  0  0  0  0  0
    1.2535    0.0234    0.0000 C   0  0  0  0  0  0  0  0  0  0  0  0
    1.2535    1.4524    0.0000 N   0  0  0  0  0  0  0  0  0  0  0  0
   -1.2214    1.4524    0.0000 C   0  0  0  0  0  0  0  0  0  0  0  0
    0.0160   -0.6909    0.0000 C   0  0  0  0  0  0  0  0  0  0  0  0
    2.0785    0.0234    0.0000 C   0  0  0  0  0  0  0  0  0  0  0  0
    2.0785    1.4524    0.0000 C   0  0  0  0  0  0  0  0  0  0  0  0
   -1.7064    0.7849    0.0000 C   0  0  0  0  0  0  0  0  0  0  0  0
   -1.7064    2.1199    0.0000 C   0  0  0  0  0  0  0  0  0  0  0  0
   -0.3964   -1.4054    0.0000 N   0  0  0  0  0  0  0  0  0  0  0  0
    2.4910    0.7380    0.0000 C   0  0  0  0  0  0  0  0  0  0  0  0
   -2.4910    1.0399    0.0000 C   0  0  0  0  0  0  0  0  0  0  0  0
   -2.4910    1.8649    0.0000 S   0  0  0  0  0  0  0  0  0  0  0  0
   -1.2214   -1.4054    0.0000 C   0  0  0  0  0  0  0  0  0  0  0  0
    0.0160   -2.1199    0.0000 C   0  0  0  0  0  0  0  0  0  0  0  0
  1  2  1  0  0  0  0
  1  3  1  0  0  0  0
  1  4  1  0  0  0  0
  2  5  2  0  0  0  0
  2  6  1  0  0  0  0
  3  7  1  0  0  0  0
  4  8  1  0  0  0  0
  5  9  1  0  0  0  0
  6 10  2  0  0  0  0
  7 11  1  0  0  0  0
  7 12  2  0  0  0  0
  8 13  1  0  0  0  0
  9 14  2  0  0  0  0
 11 15  2  0  0  0  0
 12 16  1  0  0  0  0
 13 17  1  0  0  0  0
 13 18  1  0  0  0  0
 10 14  1  0  0  0  0
 15 16  1  0  0  0  0
M  END
> <DATABASE_ID>
DB16022

> <DATABASE_NAME>
drugbank

> <SMILES>
CN(C)CCN(CC1=CSC=C1)C1=CC=CC=N1

> <INCHI_IDENTIFIER>
InChI=1S/C14H19N3S/c1-16(2)8-9-17(11-13-6-10-18-12-13)14-5-3-4-7-15-14/h3-7,10,12H,8-9,11H2,1-2H3

> <INCHI_KEY>
RCGYDFVCAAKKNG-UHFFFAOYSA-N

> <FORMULA>
C14H19N3S

> <MOLECULAR_WEIGHT>
261.39

> <EXACT_MASS>
261.129968798

> <JCHEM_ACCEPTOR_COUNT>
3

> <JCHEM_ATOM_COUNT>
37

> <JCHEM_AVERAGE_NEUTRAL_MICROSPECIES_CHARGE>
1.0033026711542594

> <JCHEM_AVERAGE_POLARIZABILITY>
29.63953754568565

> <JCHEM_BIOAVAILABILITY>
1

> <JCHEM_DONOR_COUNT>
0

> <JCHEM_FORMAL_CHARGE>
0

> <JCHEM_GHOSE_FILTER>
1

> <JCHEM_IUPAC>
N-[2-(dimethylamino)ethyl]-N-[(thiophen-3-yl)methyl]pyridin-2-amine

> <ALOGPS_LOGP>
2.80

> <JCHEM_LOGP>
2.9816343703333326

> <ALOGPS_LOGS>
-2.84

> <JCHEM_MDDR_LIKE_RULE>
0

> <JCHEM_NEUTRAL_CHARGE>
1

> <JCHEM_NUMBER_OF_RINGS>
2

> <JCHEM_PHYSIOLOGICAL_CHARGE>
1

> <JCHEM_PKA_STRONGEST_BASIC>
8.76397188761556

> <JCHEM_POLAR_SURFACE_AREA>
19.370000000000005

> <JCHEM_REFRACTIVITY>
78.38069999999999

> <JCHEM_ROTATABLE_BOND_COUNT>
6

> <JCHEM_RULE_OF_FIVE>
1

> <ALOGPS_SOLUBILITY>
3.82e-01 g/l

> <JCHEM_TRADITIONAL_IUPAC>
ketocaine

> <JCHEM_VEBER_RULE>
1

> <DRUGBANK_ID>
DB16022

> <DRUG_GROUPS>
approved; experimental

> <GENERIC_NAME>
Thenyldiamine

> <SYNONYMS>
Tenildiamina; Thenyldiamine; Thenyldiaminum

> <PRODUCTS>
Neo Synephrine Nasal Spray; Neo-synephrine Nasal Spray

> <SALTS>
Thenyldiamine hydrochloride

$$$$
