
  Mrv1652306131722002D          

 28 30  0  0  1  0            999 V2000
    8.5520    2.5559    0.0000 C   0  0  0  0  0  0  0  0  0  0  0  0
    8.1395    1.8414    0.0000 C   0  0  0  0  0  0  0  0  0  0  0  0
    7.3145    1.8414    0.0000 C   0  0  0  0  0  0  0  0  0  0  0  0
    6.9020    1.1270    0.0000 C   0  0  0  0  0  0  0  0  0  0  0  0
    6.0770    1.1270    0.0000 C   0  0  0  0  0  0  0  0  0  0  0  0
    5.6645    0.4125    0.0000 C   0  0  0  0  0  0  0  0  0  0  0  0
    4.8395    0.4125    0.0000 C   0  0  0  0  0  0  0  0  0  0  0  0
    4.8395    1.2375    0.0000 C   0  0  0  0  0  0  0  0  0  0  0  0
    4.8395   -0.4125    0.0000 C   0  0  0  0  0  0  0  0  0  0  0  0
    4.0145    0.4125    0.0000 C   0  0  0  0  0  0  0  0  0  0  0  0
    3.6020   -0.3020    0.0000 C   0  0  0  0  0  0  0  0  0  0  0  0
    2.7770   -0.3020    0.0000 C   0  0  0  0  0  0  0  0  0  0  0  0
    2.3645    0.4125    0.0000 C   0  0  0  0  0  0  0  0  0  0  0  0
    2.7770    1.1270    0.0000 C   0  0  0  0  0  0  0  0  0  0  0  0
    3.6020    1.1270    0.0000 C   0  0  0  0  0  0  0  0  0  0  0  0
    2.3645    1.8414    0.0000 O   0  0  0  0  0  0  0  0  0  0  0  0
    1.5395    1.8414    0.0000 C   0  0  0  0  0  0  0  0  0  0  0  0
    1.1270    1.1270    0.0000 C   0  0  2  0  0  0  0  0  0  0  0  0
    1.5395    0.4125    0.0000 C   0  0  2  0  0  0  0  0  0  0  0  0
    1.1270   -0.3020    0.0000 C   0  0  0  0  0  0  0  0  0  0  0  0
    0.3020   -0.3020    0.0000 C   0  0  0  0  0  0  0  0  0  0  0  0
   -0.1105    0.4125    0.0000 C   0  0  0  0  0  0  0  0  0  0  0  0
    0.3020    1.1270    0.0000 C   0  0  0  0  0  0  0  0  0  0  0  0
   -0.1105   -1.0164    0.0000 C   0  0  0  0  0  0  0  0  0  0  0  0
    0.3020   -1.7309    0.0000 O   0  0  0  0  0  0  0  0  0  0  0  0
    1.5107    2.6659    0.0000 C   0  0  0  0  0  0  0  0  0  0  0  0
    0.8398    2.2786    0.0000 C   0  0  0  0  0  0  0  0  0  0  0  0
    2.3645   -1.0164    0.0000 O   0  0  0  0  0  0  0  0  0  0  0  0
  1  2  1  0  0  0  0
  2  3  1  0  0  0  0
  3  4  1  0  0  0  0
  4  5  1  0  0  0  0
  5  6  1  0  0  0  0
  6  7  1  0  0  0  0
  7  8  1  0  0  0  0
  7  9  1  0  0  0  0
  7 10  1  0  0  0  0
 10 11  2  0  0  0  0
 11 12  1  0  0  0  0
 12 13  2  0  0  0  0
 13 14  1  0  0  0  0
 14 15  2  0  0  0  0
 10 15  1  0  0  0  0
 14 16  1  0  0  0  0
 16 17  1  0  0  0  0
 17 18  1  0  0  0  0
 18 19  1  0  0  0  0
 19 13  1  1  0  0  0
 19 20  1  0  0  0  0
 20 21  1  0  0  0  0
 21 22  2  0  0  0  0
 22 23  1  0  0  0  0
 18 23  1  6  0  0  0
 21 24  1  0  0  0  0
 24 25  1  0  0  0  0
 17 26  1  0  0  0  0
 17 27  1  0  0  0  0
 12 28  1  0  0  0  0
M  END
> <DATABASE_ID>
DB06444

> <DATABASE_NAME>
drugbank

> <SMILES>
CCCCCCC(C)(C)C1=CC(O)=C2[C@H]3CC(CO)=CC[C@@H]3C(C)(C)OC2=C1

> <INCHI_IDENTIFIER>
InChI=1S/C25H38O3/c1-6-7-8-9-12-24(2,3)18-14-21(27)23-19-13-17(16-26)10-11-20(19)25(4,5)28-22(23)15-18/h10,14-15,19-20,26-27H,6-9,11-13,16H2,1-5H3/t19-,20-/m0/s1

> <INCHI_KEY>
SSQJFGMEZBFMNV-PMACEKPBSA-N

> <FORMULA>
C25H38O3

> <MOLECULAR_WEIGHT>
386.576

> <EXACT_MASS>
386.282095084

> <JCHEM_ACCEPTOR_COUNT>
3

> <JCHEM_ATOM_COUNT>
66

> <JCHEM_AVERAGE_POLARIZABILITY>
47.40116837854981

> <JCHEM_BIOAVAILABILITY>
1

> <JCHEM_DONOR_COUNT>
2

> <JCHEM_FORMAL_CHARGE>
0

> <JCHEM_GHOSE_FILTER>
0

> <JCHEM_IUPAC>
(6aS,10aS)-9-(hydroxymethyl)-6,6-dimethyl-3-(2-methyloctan-2-yl)-6H,6aH,7H,10H,10aH-benzo[c]isochromen-1-ol

> <ALOGPS_LOGP>
8.03

> <JCHEM_LOGP>
6.139589497

> <ALOGPS_LOGS>
-5.42

> <JCHEM_MDDR_LIKE_RULE>
1

> <JCHEM_NUMBER_OF_RINGS>
3

> <JCHEM_PHYSIOLOGICAL_CHARGE>
0

> <JCHEM_PKA>
15.16010658038596

> <JCHEM_PKA_STRONGEST_ACIDIC>
9.98389607485186

> <JCHEM_PKA_STRONGEST_BASIC>
-2.7287714683784516

> <JCHEM_POLAR_SURFACE_AREA>
49.69

> <JCHEM_REFRACTIVITY>
116.73389999999999

> <JCHEM_ROTATABLE_BOND_COUNT>
7

> <JCHEM_RULE_OF_FIVE>
0

> <ALOGPS_SOLUBILITY>
1.48e-03 g/l

> <JCHEM_TRADITIONAL_IUPAC>
dexanabinol

> <JCHEM_VEBER_RULE>
0

> <DRUGBANK_ID>
DB06444

> <DRUG_GROUPS>
investigational

> <GENERIC_NAME>
Dexanabinol

> <SYNONYMS>
Sinnabidol

$$$$
