
  Mrv1652310201623412D          

 29 32  0  0  0  0            999 V2000
   -7.0522   -3.1636    0.0000 C   0  0  0  0  0  0  0  0  0  0  0  0
   -6.3378   -3.5761    0.0000 N   0  0  0  0  0  0  0  0  0  0  0  0
   -6.3378   -4.4011    0.0000 C   0  0  0  0  0  0  0  0  0  0  0  0
   -5.6233   -3.1636    0.0000 C   0  0  0  0  0  0  0  0  0  0  0  0
   -4.9088   -3.5761    0.0000 C   0  0  0  0  0  0  0  0  0  0  0  0
   -4.1943   -3.1636    0.0000 C   0  0  0  0  0  0  0  0  0  0  0  0
   -3.4799   -3.5761    0.0000 O   0  0  0  0  0  0  0  0  0  0  0  0
   -2.7654   -3.1636    0.0000 C   0  0  0  0  0  0  0  0  0  0  0  0
   -2.7654   -2.3386    0.0000 C   0  0  0  0  0  0  0  0  0  0  0  0
   -2.0509   -1.9261    0.0000 C   0  0  0  0  0  0  0  0  0  0  0  0
   -1.3365   -2.3386    0.0000 C   0  0  0  0  0  0  0  0  0  0  0  0
   -1.3365   -3.1636    0.0000 C   0  0  0  0  0  0  0  0  0  0  0  0
   -2.0509   -3.5761    0.0000 C   0  0  0  0  0  0  0  0  0  0  0  0
   -0.5518   -3.4186    0.0000 C   0  0  0  0  0  0  0  0  0  0  0  0
   -0.0669   -2.7511    0.0000 N   0  0  0  0  0  0  0  0  0  0  0  0
   -0.5518   -2.0837    0.0000 N   0  0  0  0  0  0  0  0  0  0  0  0
   -0.2969   -4.2032    0.0000 S   0  0  0  0  0  0  0  0  0  0  0  0
   -1.0815   -4.4581    0.0000 O   0  0  0  0  0  0  0  0  0  0  0  0
    0.4877   -3.9482    0.0000 O   0  0  0  0  0  0  0  0  0  0  0  0
   -0.0420   -4.9878    0.0000 C   0  0  0  0  0  0  0  0  0  0  0  0
   -0.5940   -5.6009    0.0000 C   0  0  0  0  0  0  0  0  0  0  0  0
   -0.3391   -6.3855    0.0000 C   0  0  0  0  0  0  0  0  0  0  0  0
    0.4679   -6.5571    0.0000 C   0  0  0  0  0  0  0  0  0  0  0  0
    1.0199   -5.9440    0.0000 C   0  0  0  0  0  0  0  0  0  0  0  0
    0.7650   -5.1593    0.0000 C   0  0  0  0  0  0  0  0  0  0  0  0
    1.3170   -4.5462    0.0000 C   0  0  0  0  0  0  0  0  0  0  0  0
    2.1240   -4.7178    0.0000 C   0  0  0  0  0  0  0  0  0  0  0  0
    2.3790   -5.5024    0.0000 C   0  0  0  0  0  0  0  0  0  0  0  0
    1.8269   -6.1155    0.0000 C   0  0  0  0  0  0  0  0  0  0  0  0
  1  2  1  0  0  0  0
  2  3  1  0  0  0  0
  2  4  1  0  0  0  0
  4  5  1  0  0  0  0
  5  6  1  0  0  0  0
  6  7  1  0  0  0  0
  7  8  1  0  0  0  0
  8  9  2  0  0  0  0
  9 10  1  0  0  0  0
 10 11  2  0  0  0  0
 11 12  1  0  0  0  0
 12 13  2  0  0  0  0
  8 13  1  0  0  0  0
 12 14  1  0  0  0  0
 14 15  2  0  0  0  0
 15 16  1  0  0  0  0
 11 16  1  0  0  0  0
 14 17  1  0  0  0  0
 17 18  2  0  0  0  0
 17 19  2  0  0  0  0
 17 20  1  0  0  0  0
 20 21  1  0  0  0  0
 21 22  2  0  0  0  0
 22 23  1  0  0  0  0
 23 24  2  0  0  0  0
 24 25  1  0  0  0  0
 20 25  2  0  0  0  0
 25 26  1  0  0  0  0
 26 27  2  0  0  0  0
 27 28  1  0  0  0  0
 28 29  2  0  0  0  0
 24 29  1  0  0  0  0
M  END
> <DATABASE_ID>
DB12229

> <DATABASE_NAME>
drugbank

> <SMILES>
CN(C)CCCOC1=CC=C2NN=C(C2=C1)S(=O)(=O)C1=C2C=CC=CC2=CC=C1

> <INCHI_IDENTIFIER>
InChI=1S/C22H23N3O3S/c1-25(2)13-6-14-28-17-11-12-20-19(15-17)22(24-23-20)29(26,27)21-10-5-8-16-7-3-4-9-18(16)21/h3-5,7-12,15H,6,13-14H2,1-2H3,(H,23,24)

> <INCHI_KEY>
NXQGEDVQXVTCDA-UHFFFAOYSA-N

> <FORMULA>
C22H23N3O3S

> <MOLECULAR_WEIGHT>
409.5

> <EXACT_MASS>
409.146012787

> <JCHEM_ACCEPTOR_COUNT>
5

> <JCHEM_ATOM_COUNT>
52

> <JCHEM_AVERAGE_POLARIZABILITY>
43.35584746418101

> <JCHEM_BIOAVAILABILITY>
1

> <JCHEM_DONOR_COUNT>
1

> <JCHEM_FORMAL_CHARGE>
0

> <JCHEM_GHOSE_FILTER>
1

> <JCHEM_IUPAC>
dimethyl(3-{[3-(naphthalene-1-sulfonyl)-1H-indazol-5-yl]oxy}propyl)amine

> <ALOGPS_LOGP>
3.40

> <JCHEM_LOGP>
3.489289771861758

> <ALOGPS_LOGS>
-4.93

> <JCHEM_MDDR_LIKE_RULE>
1

> <JCHEM_NUMBER_OF_RINGS>
4

> <JCHEM_PHYSIOLOGICAL_CHARGE>
1

> <JCHEM_PKA_STRONGEST_ACIDIC>
9.131654454348807

> <JCHEM_PKA_STRONGEST_BASIC>
7.833012583150331

> <JCHEM_POLAR_SURFACE_AREA>
75.28999999999999

> <JCHEM_REFRACTIVITY>
115.71669999999999

> <JCHEM_ROTATABLE_BOND_COUNT>
7

> <JCHEM_RULE_OF_FIVE>
1

> <ALOGPS_SOLUBILITY>
4.76e-03 g/l

> <JCHEM_TRADITIONAL_IUPAC>
cerlapirdine

> <JCHEM_VEBER_RULE>
0

> <DRUGBANK_ID>
DB12229

> <DRUG_GROUPS>
investigational

> <GENERIC_NAME>
Cerlapirdine

> <SYNONYMS>
Cerlapirdine

> <SALTS>
Cerlapirdine Hydrochloride

$$$$
