
  Mrv1652310211601202D          

 12 11  0  0  0  0            999 V2000
    2.9980   -2.5559    0.0000 C   0  0  0  0  0  0  0  0  0  0  0  0
    3.7125   -2.1434    0.0000 C   0  0  0  0  0  0  0  0  0  0  0  0
    3.7125   -1.3184    0.0000 C   0  0  0  0  0  0  0  0  0  0  0  0
    4.4270   -2.5559    0.0000 C   0  0  0  0  0  0  0  0  0  0  0  0
    5.1414   -2.1434    0.0000 C   0  0  0  0  0  0  0  0  0  0  0  0
    5.8559   -2.5559    0.0000 O   0  0  0  0  0  0  0  0  0  0  0  0
    6.5704   -2.1434    0.0000 C   0  0  0  0  0  0  0  0  0  0  0  0
    6.5704   -1.3184    0.0000 O   0  0  0  0  0  0  0  0  0  0  0  0
    7.2849   -2.5559    0.0000 C   0  0  0  0  0  0  0  0  0  0  0  0
    7.2849   -3.3809    0.0000 C   0  0  0  0  0  0  0  0  0  0  0  0
    7.9993   -2.1434    0.0000 C   0  0  0  0  0  0  0  0  0  0  0  0
    8.7138   -1.7309    0.0000 N   0  0  0  0  0  0  0  0  0  0  0  0
  1  2  1  0  0  0  0
  2  3  1  0  0  0  0
  2  4  1  0  0  0  0
  4  5  1  0  0  0  0
  5  6  1  0  0  0  0
  6  7  1  0  0  0  0
  7  8  2  0  0  0  0
  7  9  1  0  0  0  0
  9 10  2  0  0  0  0
  9 11  1  0  0  0  0
 11 12  3  0  0  0  0
M  END
> <DATABASE_ID>
DB12630

> <DATABASE_NAME>
drugbank

> <SMILES>
CC(C)CCOC(=O)C(=C)C#N

> <INCHI_IDENTIFIER>
InChI=1S/C9H13NO2/c1-7(2)4-5-12-9(11)8(3)6-10/h7H,3-5H2,1-2H3

> <INCHI_KEY>
GASDVTHQNCFANM-UHFFFAOYSA-N

> <FORMULA>
C9H13NO2

> <MOLECULAR_WEIGHT>
167.208

> <EXACT_MASS>
167.094628663

> <JCHEM_ACCEPTOR_COUNT>
2

> <JCHEM_ATOM_COUNT>
25

> <JCHEM_AVERAGE_POLARIZABILITY>
18.328889366517092

> <JCHEM_BIOAVAILABILITY>
1

> <JCHEM_DONOR_COUNT>
0

> <JCHEM_FORMAL_CHARGE>
0

> <JCHEM_GHOSE_FILTER>
1

> <JCHEM_IUPAC>
3-methylbutyl 2-cyanoprop-2-enoate

> <ALOGPS_LOGP>
2.14

> <JCHEM_LOGP>
2.3349514146666666

> <ALOGPS_LOGS>
-2.69

> <JCHEM_MDDR_LIKE_RULE>
0

> <JCHEM_NUMBER_OF_RINGS>
0

> <JCHEM_PHYSIOLOGICAL_CHARGE>
0

> <JCHEM_PKA_STRONGEST_BASIC>
-7.1890765368036895

> <JCHEM_POLAR_SURFACE_AREA>
50.09

> <JCHEM_REFRACTIVITY>
45.536300000000004

> <JCHEM_ROTATABLE_BOND_COUNT>
5

> <JCHEM_RULE_OF_FIVE>
1

> <ALOGPS_SOLUBILITY>
3.39e-01 g/l

> <JCHEM_TRADITIONAL_IUPAC>
3-methylbutyl 2-cyanoprop-2-enoate

> <JCHEM_VEBER_RULE>
0

> <DRUGBANK_ID>
DB12630

> <DRUG_GROUPS>
investigational

> <GENERIC_NAME>
Isopentyl 2-cyanoacrylate

$$$$
