
  Mrv1909 05201914592D          

 28 27  0  0  0  0            999 V2000
    7.4250    2.8579    0.0000 C   0  0  0  0  0  0  0  0  0  0  0  0
    7.0125    3.5724    0.0000 C   0  0  0  0  0  0  0  0  0  0  0  0
    7.4250    4.2868    0.0000 C   0  0  0  0  0  0  0  0  0  0  0  0
    8.2500    4.2868    0.0000 C   0  0  0  0  0  0  0  0  0  0  0  0
    8.6625    5.0013    0.0000 C   0  0  0  0  0  0  0  0  0  0  0  0
    9.4875    5.0013    0.0000 C   0  0  0  0  0  0  0  0  0  0  0  0
    9.9000    4.2868    0.0000 C   0  0  0  0  0  0  0  0  0  0  0  0
    9.9000    5.7158    0.0000 C   0  0  0  0  0  0  0  0  0  0  0  0
   10.7250    5.7158    0.0000 C   0  0  0  0  0  0  0  0  0  0  0  0
   11.1375    6.4302    0.0000 C   0  0  0  0  0  0  0  0  0  0  0  0
   11.9625    6.4302    0.0000 O   0  0  0  0  0  0  0  0  0  0  0  0
   10.7250    7.1447    0.0000 O   0  0  0  0  0  0  0  0  0  0  0  0
    6.1875    3.5724    0.0000 C   0  0  0  0  0  0  0  0  0  0  0  0
    5.7750    2.8579    0.0000 C   0  0  0  0  0  0  0  0  0  0  0  0
    4.9500    2.8579    0.0000 C   0  0  0  0  0  0  0  0  0  0  0  0
    4.5375    2.1434    0.0000 C   0  0  0  0  0  0  0  0  0  0  0  0
    3.7125    2.1434    0.0000 C   0  0  0  0  0  0  0  0  0  0  0  0
    3.3000    2.8579    0.0000 C   0  0  0  0  0  0  0  0  0  0  0  0
    3.3000    1.4289    0.0000 C   0  0  0  0  0  0  0  0  0  0  0  0
    2.4750    1.4289    0.0000 C   0  0  0  0  0  0  0  0  0  0  0  0
    2.0625    0.7145    0.0000 C   0  0  0  0  0  0  0  0  0  0  0  0
    1.2375    0.7145    0.0000 C   0  0  0  0  0  0  0  0  0  0  0  0
    0.8250    1.4289    0.0000 C   0  0  0  0  0  0  0  0  0  0  0  0
    0.8250    0.0000    0.0000 C   0  0  0  0  0  0  0  0  0  0  0  0
    0.0000    0.0000    0.0000 C   0  0  0  0  0  0  0  0  0  0  0  0
   -0.4125   -0.7145    0.0000 C   0  0  0  0  0  0  0  0  0  0  0  0
    0.0000   -1.4289    0.0000 O   0  0  0  0  0  0  0  0  0  0  0  0
   -1.2375   -0.7145    0.0000 O   0  0  0  0  0  0  0  0  0  0  0  0
  1  2  1  0  0  0  0
  2  3  1  0  0  0  0
  3  4  2  0  0  0  0
  4  5  1  0  0  0  0
  5  6  2  0  0  0  0
  6  7  1  0  0  0  0
  6  8  1  0  0  0  0
  8  9  2  0  0  0  0
  9 10  1  0  0  0  0
 10 11  1  0  0  0  0
 10 12  2  0  0  0  0
  2 13  2  0  0  0  0
 13 14  1  0  0  0  0
 14 15  2  0  0  0  0
 15 16  1  0  0  0  0
 16 17  2  0  0  0  0
 17 18  1  0  0  0  0
 17 19  1  0  0  0  0
 19 20  2  0  0  0  0
 20 21  1  0  0  0  0
 21 22  2  0  0  0  0
 22 23  1  0  0  0  0
 22 24  1  0  0  0  0
 24 25  2  0  0  0  0
 25 26  1  0  0  0  0
 26 27  1  0  0  0  0
 26 28  2  0  0  0  0
M  END
> <DATABASE_ID>
DB15201

> <DATABASE_NAME>
drugbank

> <SMILES>
C\C(\C=C\C=C(/C)\C=C\C(O)=O)=C/C=C/C=C(\C)/C=C/C=C(\C)/C=C/C(O)=O

> <INCHI_IDENTIFIER>
InChI=1S/C24H28O4/c1-19(11-7-13-21(3)15-17-23(25)26)9-5-6-10-20(2)12-8-14-22(4)16-18-24(27)28/h5-18H,1-4H3,(H,25,26)(H,27,28)/b6-5+,11-7+,12-8+,17-15+,18-16+,19-9+,20-10+,21-13+,22-14+

> <INCHI_KEY>
ZVKOASAVGLETCT-UOGKPENDSA-N

> <FORMULA>
C24H28O4

> <MOLECULAR_WEIGHT>
380.484

> <EXACT_MASS>
380.198759382

> <JCHEM_ACCEPTOR_COUNT>
4

> <JCHEM_ATOM_COUNT>
56

> <JCHEM_AVERAGE_POLARIZABILITY>
45.91567365821665

> <JCHEM_BIOAVAILABILITY>
1

> <JCHEM_DONOR_COUNT>
2

> <JCHEM_FORMAL_CHARGE>
0

> <JCHEM_GHOSE_FILTER>
1

> <JCHEM_IUPAC>
(2E,4E,6E,8E,10E,12E,14E,16E,18E)-4,8,13,17-tetramethylicosa-2,4,6,8,10,12,14,16,18-nonaenedioic acid

> <ALOGPS_LOGP>
5.52

> <JCHEM_LOGP>
5.150256142

> <ALOGPS_LOGS>
-5.26

> <JCHEM_MDDR_LIKE_RULE>
0

> <JCHEM_NUMBER_OF_RINGS>
0

> <JCHEM_PHYSIOLOGICAL_CHARGE>
-2

> <JCHEM_PKA>
5.067596938406401

> <JCHEM_PKA_STRONGEST_ACIDIC>
4.465536947078439

> <JCHEM_POLAR_SURFACE_AREA>
74.6

> <JCHEM_REFRACTIVITY>
124.28379999999999

> <JCHEM_ROTATABLE_BOND_COUNT>
10

> <JCHEM_RULE_OF_FIVE>
0

> <ALOGPS_SOLUBILITY>
2.09e-03 g/l

> <JCHEM_TRADITIONAL_IUPAC>
(2R)-14-fluoro-2-methyl-6,9,10,19-tetraazapentacyclo[14.2.1.0^{2,6}.0^{8,18}.0^{12,17}]nonadeca-1(18),8,12(17),13,15-pentaen-11-one

> <JCHEM_VEBER_RULE>
0

> <DRUGBANK_ID>
DB15201

> <DRUG_GROUPS>
investigational

> <GENERIC_NAME>
Norbixin

$$$$
