
  Mrv1652306031606002D          

 19 21  0  0  0  0            999 V2000
    5.7158    0.0000    0.0000 C   0  0  0  0  0  0  0  0  0  0  0  0
    5.0013   -0.4125    0.0000 C   0  0  0  0  0  0  0  0  0  0  0  0
   -0.7145   -0.4125    0.0000 C   0  0  0  0  0  0  0  0  0  0  0  0
    3.5724   -1.2375    0.0000 C   0  0  0  0  0  0  0  0  0  0  0  0
    0.0000    0.0000    0.0000 C   0  0  0  0  0  0  0  0  0  0  0  0
    2.8579   -1.6500    0.0000 C   0  0  0  0  0  0  0  0  0  0  0  0
    0.0000   -1.6500    0.0000 C   0  0  0  0  0  0  0  0  0  0  0  0
    2.8579   -0.0000    0.0000 C   0  0  0  0  0  0  0  0  0  0  0  0
   -0.7145   -1.2375    0.0000 C   0  0  0  0  0  0  0  0  0  0  0  0
    3.5724   -0.4125    0.0000 C   0  0  0  0  0  0  0  0  0  0  0  0
    0.7145   -0.4125    0.0000 C   0  0  0  0  0  0  0  0  0  0  0  0
    2.1434   -0.4125    0.0000 C   0  0  0  0  0  0  0  0  0  0  0  0
    2.1434   -1.2375    0.0000 C   0  0  0  0  0  0  0  0  0  0  0  0
    0.7145   -1.2375    0.0000 C   0  0  0  0  0  0  0  0  0  0  0  0
    1.4289   -0.0000    0.0000 C   0  0  0  0  0  0  0  0  0  0  0  0
   -1.4289   -1.6500    0.0000 N   0  0  0  0  0  0  0  0  0  0  0  0
    1.4289    0.8250    0.0000 N   0  0  0  0  0  0  0  0  0  0  0  0
    1.4289   -1.6500    0.0000 N   0  0  0  0  0  0  0  0  0  0  0  0
    4.2868    0.0000    0.0000 O   0  0  0  0  0  0  0  0  0  0  0  0
  2  1  1  0  0  0  0
  5  3  2  0  0  0  0
  6  4  2  0  0  0  0
  9  3  1  0  0  0  0
  9  7  2  0  0  0  0
 10  4  1  0  0  0  0
 10  8  2  0  0  0  0
 11  5  1  0  0  0  0
 12  8  1  0  0  0  0
 13  6  1  0  0  0  0
 13 12  2  0  0  0  0
 14  7  1  0  0  0  0
 14 11  2  0  0  0  0
 15 11  1  0  0  0  0
 15 12  1  0  0  0  0
 16  9  1  0  0  0  0
 17 15  2  0  0  0  0
 18 13  1  0  0  0  0
 18 14  1  0  0  0  0
 19  2  1  0  0  0  0
 19 10  1  0  0  0  0
M  END
> <DATABASE_ID>
DB13190

> <DATABASE_NAME>
drugbank

> <SMILES>
CCOC1=CC2=C(NC3=C(C=CC(N)=C3)C2=N)C=C1

> <INCHI_IDENTIFIER>
InChI=1S/C15H15N3O/c1-2-19-10-4-6-13-12(8-10)15(17)11-5-3-9(16)7-14(11)18-13/h3-8H,2,16H2,1H3,(H2,17,18)

> <INCHI_KEY>
CIKWKGFPFXJVGW-UHFFFAOYSA-N

> <FORMULA>
C15H15N3O

> <MOLECULAR_WEIGHT>
253.305

> <EXACT_MASS>
253.121512115

> <JCHEM_ACCEPTOR_COUNT>
4

> <JCHEM_ATOM_COUNT>
34

> <JCHEM_AVERAGE_POLARIZABILITY>
28.24681338901329

> <JCHEM_BIOAVAILABILITY>
1

> <JCHEM_DONOR_COUNT>
3

> <JCHEM_FORMAL_CHARGE>
0

> <JCHEM_GHOSE_FILTER>
1

> <JCHEM_IUPAC>
7-ethoxy-9-imino-9,10-dihydroacridin-3-amine

> <ALOGPS_LOGP>
2.59

> <JCHEM_LOGP>
2.2821510609999995

> <ALOGPS_LOGS>
-3.12

> <JCHEM_MDDR_LIKE_RULE>
0

> <JCHEM_NUMBER_OF_RINGS>
3

> <JCHEM_PHYSIOLOGICAL_CHARGE>
1

> <JCHEM_PKA_STRONGEST_ACIDIC>
18.093012863675245

> <JCHEM_PKA_STRONGEST_BASIC>
12.120839472321792

> <JCHEM_POLAR_SURFACE_AREA>
71.13000000000001

> <JCHEM_REFRACTIVITY>
87.44590000000002

> <JCHEM_ROTATABLE_BOND_COUNT>
2

> <JCHEM_RULE_OF_FIVE>
1

> <ALOGPS_SOLUBILITY>
1.92e-01 g/l

> <JCHEM_TRADITIONAL_IUPAC>
rivanol

> <JCHEM_VEBER_RULE>
0

> <DRUGBANK_ID>
DB13190

> <DRUG_GROUPS>
experimental

> <GENERIC_NAME>
Ethacridine

> <SYNONYMS>
Etacridina; Ethacridine; Ethacridinum

> <INTERNATIONAL_BRANDS>
Rivanol

> <SALTS>
Ethacridine lactate; Ethacridine lactate monohydrate

$$$$
