
  Mrv1652306131722012D          

 42 48  0  0  0  0            999 V2000
   -3.3064   -3.5793    0.0000 C   0  0  0  0  0  0  0  0  0  0  0  0
   -3.2378   -2.7572    0.0000 O   0  0  0  0  0  0  0  0  0  0  0  0
   -3.9155   -2.2867    0.0000 C   0  0  0  0  0  0  0  0  0  0  0  0
   -4.6618   -2.6383    0.0000 C   0  0  0  0  0  0  0  0  0  0  0  0
   -5.3395   -2.1678    0.0000 C   0  0  0  0  0  0  0  0  0  0  0  0
   -5.2709   -1.3457    0.0000 C   0  0  0  0  0  0  0  0  0  0  0  0
   -4.5246   -0.9940    0.0000 C   0  0  0  0  0  0  0  0  0  0  0  0
   -3.8469   -1.4645    0.0000 C   0  0  0  0  0  0  0  0  0  0  0  0
   -3.1006   -1.1129    0.0000 C   0  0  0  0  0  0  0  0  0  0  0  0
   -2.3775   -1.5099    0.0000 C   0  0  0  0  0  0  0  0  0  0  0  0
   -1.7764   -0.9449    0.0000 C   0  0  0  0  0  0  0  0  0  0  0  0
   -2.1280   -0.1986    0.0000 N   0  0  0  0  0  0  0  0  0  0  0  0
   -2.9464   -0.3024    0.0000 N   0  0  0  0  0  0  0  0  0  0  0  0
   -3.5115    0.2987    0.0000 C   0  0  0  0  0  0  0  0  0  0  0  0
   -4.3146    0.1099    0.0000 C   0  0  0  0  0  0  0  0  0  0  0  0
   -4.8797    0.7110    0.0000 C   0  0  0  0  0  0  0  0  0  0  0  0
   -4.6416    1.5009    0.0000 N   0  0  0  0  0  0  0  0  0  0  0  0
   -3.8385    1.6897    0.0000 C   0  0  0  0  0  0  0  0  0  0  0  0
   -3.2735    1.0886    0.0000 C   0  0  0  0  0  0  0  0  0  0  0  0
   -2.4704    1.2774    0.0000 C   0  0  0  0  0  0  0  0  0  0  0  0
   -2.2323    2.0673    0.0000 C   0  0  0  0  0  0  0  0  0  0  0  0
   -2.7974    2.6684    0.0000 C   0  0  0  0  0  0  0  0  0  0  0  0
   -3.6005    2.4796    0.0000 C   0  0  0  0  0  0  0  0  0  0  0  0
   -2.5593    3.4583    0.0000 Cl  0  0  0  0  0  0  0  0  0  0  0  0
   -0.9659   -1.0991    0.0000 C   0  0  0  0  0  0  0  0  0  0  0  0
   -0.4271   -0.4743    0.0000 O   0  0  0  0  0  0  0  0  0  0  0  0
   -0.6942   -1.8780    0.0000 N   0  0  0  0  0  0  0  0  0  0  0  0
    0.1163   -2.0322    0.0000 C   0  0  0  0  0  0  0  0  0  0  0  0
    0.8517   -1.6585    0.0000 C   0  0  0  0  0  0  0  0  0  0  0  0
    0.8517   -0.9111    0.0000 C   0  0  0  0  0  0  0  0  0  0  0  0
    1.3012   -0.1208    0.0000 C   0  0  0  0  0  0  0  0  0  0  0  0
    2.0368   -0.4945    0.0000 C   0  0  0  0  0  0  0  0  0  0  0  0
    2.0368   -1.2419    0.0000 C   0  0  0  0  0  0  0  0  0  0  0  0
    1.5873   -2.0322    0.0000 C   0  0  0  0  0  0  0  0  0  0  0  0
    1.3012   -1.6156    0.0000 C   0  0  0  0  0  0  0  0  0  0  0  0
    0.5657   -1.2419    0.0000 C   0  0  0  0  0  0  0  0  0  0  0  0
    0.5657   -0.4945    0.0000 C   0  0  0  0  0  0  0  0  0  0  0  0
    0.2323   -2.8490    0.0000 C   0  0  0  0  0  0  0  0  0  0  0  0
    0.9977   -3.1569    0.0000 O   0  0  0  0  0  0  0  0  0  0  0  0
   -0.4171   -3.3579    0.0000 O   0  0  0  0  0  0  0  0  0  0  0  0
   -4.4560   -0.1719    0.0000 O   0  0  0  0  0  0  0  0  0  0  0  0
   -5.1337    0.2986    0.0000 C   0  0  0  0  0  0  0  0  0  0  0  0
  1  2  1  0  0  0  0
  2  3  1  0  0  0  0
  3  4  2  0  0  0  0
  4  5  1  0  0  0  0
  5  6  2  0  0  0  0
  6  7  1  0  0  0  0
  7  8  2  0  0  0  0
  3  8  1  0  0  0  0
  8  9  1  0  0  0  0
  9 10  2  0  0  0  0
 10 11  1  0  0  0  0
 11 12  2  0  0  0  0
 12 13  1  0  0  0  0
  9 13  1  0  0  0  0
 13 14  1  0  0  0  0
 14 15  1  0  0  0  0
 15 16  2  0  0  0  0
 16 17  1  0  0  0  0
 17 18  2  0  0  0  0
 18 19  1  0  0  0  0
 14 19  2  0  0  0  0
 19 20  1  0  0  0  0
 20 21  2  0  0  0  0
 21 22  1  0  0  0  0
 22 23  2  0  0  0  0
 18 23  1  0  0  0  0
 22 24  1  0  0  0  0
 11 25  1  0  0  0  0
 25 26  2  0  0  0  0
 25 27  1  0  0  0  0
 27 28  1  0  0  0  0
 28 29  1  0  0  0  0
 31 37  1  0  0  0  0
 30 31  1  0  0  0  0
 31 32  1  0  0  0  0
 28 36  1  0  0  0  0
 33 34  1  0  0  0  0
 29 34  1  0  0  0  0
 33 35  1  0  0  0  0
 35 36  1  0  0  0  0
 32 33  1  0  0  0  0
 36 37  1  0  0  0  0
 29 30  1  0  0  0  0
 28 38  1  0  0  0  0
 38 39  2  0  0  0  0
 38 40  1  0  0  0  0
  7 41  1  0  0  0  0
 41 42  1  0  0  0  0
M  END
> <DATABASE_ID>
DB06455

> <DATABASE_NAME>
drugbank

> <SMILES>
COC1=CC=CC(OC)=C1C1=CC(=NN1C1=C2C=CC(Cl)=CC2=NC=C1)C(=O)NC1(C2CC3CC(C2)CC1C3)C(O)=O

> <INCHI_IDENTIFIER>
InChI=1S/C32H31ClN4O5/c1-41-27-4-3-5-28(42-2)29(27)26-16-24(36-37(26)25-8-9-34-23-15-21(33)6-7-22(23)25)30(38)35-32(31(39)40)19-11-17-10-18(13-19)14-20(32)12-17/h3-9,15-20H,10-14H2,1-2H3,(H,35,38)(H,39,40)

> <INCHI_KEY>
DYLJVOXRWLXDIG-UHFFFAOYSA-N

> <FORMULA>
C32H31ClN4O5

> <MOLECULAR_WEIGHT>
587.07

> <EXACT_MASS>
586.1982978

> <JCHEM_ACCEPTOR_COUNT>
7

> <JCHEM_ATOM_COUNT>
73

> <JCHEM_AVERAGE_POLARIZABILITY>
60.772287934280214

> <JCHEM_BIOAVAILABILITY>
1

> <JCHEM_DONOR_COUNT>
2

> <JCHEM_FORMAL_CHARGE>
0

> <JCHEM_GHOSE_FILTER>
0

> <JCHEM_IUPAC>
2-[1-(7-chloroquinolin-4-yl)-5-(2,6-dimethoxyphenyl)-1H-pyrazole-3-amido]adamantane-2-carboxylic acid

> <ALOGPS_LOGP>
5.30

> <JCHEM_LOGP>
3.8450254375536996

> <ALOGPS_LOGS>
-5.55

> <JCHEM_MDDR_LIKE_RULE>
1

> <JCHEM_NUMBER_OF_RINGS>
7

> <JCHEM_PHYSIOLOGICAL_CHARGE>
-1

> <JCHEM_PKA>
14.382008919599382

> <JCHEM_PKA_STRONGEST_ACIDIC>
3.3965600387702093

> <JCHEM_PKA_STRONGEST_BASIC>
5.7717742142974435

> <JCHEM_POLAR_SURFACE_AREA>
115.57

> <JCHEM_REFRACTIVITY>
156.26360000000003

> <JCHEM_ROTATABLE_BOND_COUNT>
6

> <JCHEM_RULE_OF_FIVE>
0

> <ALOGPS_SOLUBILITY>
1.64e-03 g/l

> <JCHEM_TRADITIONAL_IUPAC>
2-[1-(7-chloroquinolin-4-yl)-5-(2,6-dimethoxyphenyl)pyrazole-3-amido]adamantane-2-carboxylic acid

> <JCHEM_VEBER_RULE>
0

> <DRUGBANK_ID>
DB06455

> <DRUG_GROUPS>
investigational

> <GENERIC_NAME>
Meclinertant

> <SYNONYMS>
Meclinertant; Reminertant

$$$$
