
  Mrv1909 01172018472D          

 22 25  0  0  0  0            999 V2000
    2.4702    1.8057    0.0000 N   0  0  0  0  0  0  0  0  0  0  0  0
    1.6649    1.6328    0.0000 C   0  0  0  0  0  0  0  0  0  0  0  0
    1.4080    0.8473    0.0000 C   0  0  0  0  0  0  0  0  0  0  0  0
    1.8922    0.1803    0.0000 C   0  0  0  0  0  0  0  0  0  0  0  0
    1.4080   -0.4866    0.0000 N   0  0  0  0  0  0  0  0  0  0  0  0
    0.6225   -0.2296    0.0000 C   0  0  0  0  0  0  0  0  0  0  0  0
    0.6225    0.5953    0.0000 N   0  0  0  0  0  0  0  0  0  0  0  0
   -0.0197    1.1091    0.0000 C   0  0  0  0  0  0  0  0  0  0  0  0
   -0.8250    0.9263    0.0000 C   0  0  0  0  0  0  0  0  0  0  0  0
   -1.1807    0.1803    0.0000 C   0  0  0  0  0  0  0  0  0  0  0  0
   -0.8250   -0.5607    0.0000 C   0  0  0  0  0  0  0  0  0  0  0  0
   -1.2894   -1.2425    0.0000 C   0  0  0  0  0  0  0  0  0  0  0  0
   -2.1145   -1.1832    0.0000 C   0  0  0  0  0  0  0  0  0  0  0  0
   -2.4702   -0.4372    0.0000 C   0  0  0  0  0  0  0  0  0  0  0  0
   -2.0058    0.2445    0.0000 C   0  0  0  0  0  0  0  0  0  0  0  0
   -0.0197   -0.7435    0.0000 C   0  0  0  0  0  0  0  0  0  0  0  0
   -0.6521   -1.1980    0.0000 C   0  0  0  0  0  0  0  0  0  0  0  0
   -0.4643   -2.0034    0.0000 C   0  0  0  0  0  0  0  0  0  0  0  0
    0.3211   -2.2455    0.0000 N   0  0  0  0  0  0  0  0  0  0  0  0
    0.9239   -1.6822    0.0000 C   0  0  0  0  0  0  0  0  0  0  0  0
    0.7411   -0.8818    0.0000 C   0  0  0  0  0  0  0  0  0  0  0  0
    1.1115    2.2455    0.0000 O   0  0  0  0  0  0  0  0  0  0  0  0
  1  2  1  0  0  0  0
  2  3  1  0  0  0  0
  2 22  2  0  0  0  0
  3  4  2  0  0  0  0
  3  7  1  0  0  0  0
  4  5  1  0  0  0  0
  5  6  2  0  0  0  0
  6  7  1  0  0  0  0
  6 16  1  0  0  0  0
  7  8  1  0  0  0  0
  8  9  1  0  0  0  0
  9 10  1  0  0  0  0
 10 11  2  0  0  0  0
 10 15  1  0  0  0  0
 11 12  1  0  0  0  0
 11 16  1  0  0  0  0
 12 13  2  0  0  0  0
 13 14  1  0  0  0  0
 14 15  2  0  0  0  0
 16 17  1  0  0  0  0
 16 21  1  0  0  0  0
 17 18  1  0  0  0  0
 18 19  1  0  0  0  0
 19 20  1  0  0  0  0
 20 21  1  0  0  0  0
M  END
> <DATABASE_ID>
DB05738

> <DATABASE_NAME>
drugbank

> <SMILES>
NC(=O)C1=CN=C2N1CCC1=C(C=CC=C1)C21CCNCC1

> <INCHI_IDENTIFIER>
InChI=1S/C17H20N4O/c18-15(22)14-11-20-16-17(6-8-19-9-7-17)13-4-2-1-3-12(13)5-10-21(14)16/h1-4,11,19H,5-10H2,(H2,18,22)

> <INCHI_KEY>
VQWGYPVNVICKFC-UHFFFAOYSA-N

> <FORMULA>
C17H20N4O

> <MOLECULAR_WEIGHT>
296.374

> <EXACT_MASS>
296.16371128

> <JCHEM_ACCEPTOR_COUNT>
3

> <JCHEM_ATOM_COUNT>
42

> <JCHEM_AVERAGE_NEUTRAL_MICROSPECIES_CHARGE>
1.0032403772449956

> <JCHEM_AVERAGE_POLARIZABILITY>
32.28275379362293

> <JCHEM_BIOAVAILABILITY>
1

> <JCHEM_DONOR_COUNT>
2

> <JCHEM_FORMAL_CHARGE>
0

> <JCHEM_GHOSE_FILTER>
1

> <JCHEM_IUPAC>
4',7'-diazaspiro[piperidine-4,2'-tricyclo[8.4.0.0^{3,7}]tetradecane]-1'(10'),3',5',11',13'-pentaene-6'-carboxamide

> <ALOGPS_LOGP>
1.00

> <JCHEM_LOGP>
0.8054426760000002

> <ALOGPS_LOGS>
-3.22

> <JCHEM_MDDR_LIKE_RULE>
0

> <JCHEM_NEUTRAL_CHARGE>
1

> <JCHEM_NUMBER_OF_RINGS>
4

> <JCHEM_PHYSIOLOGICAL_CHARGE>
1

> <JCHEM_PKA_STRONGEST_ACIDIC>
13.892449564203867

> <JCHEM_PKA_STRONGEST_BASIC>
9.960890070924862

> <JCHEM_POLAR_SURFACE_AREA>
72.94

> <JCHEM_REFRACTIVITY>
96.1377

> <JCHEM_ROTATABLE_BOND_COUNT>
1

> <JCHEM_RULE_OF_FIVE>
1

> <ALOGPS_SOLUBILITY>
1.78e-01 g/l

> <JCHEM_TRADITIONAL_IUPAC>
motesanib

> <JCHEM_VEBER_RULE>
0

> <DRUGBANK_ID>
DB05738

> <DRUG_GROUPS>
investigational

> <GENERIC_NAME>
Vapitadine

> <SYNONYMS>
Vapitadina; Vapitadine; Vapitadinum

> <INTERNATIONAL_BRANDS>
Hivenyl

> <SALTS>
Vapitadine dihydrochloride

$$$$
