
  Mrv1718007121813002D          

  1  0  0  0  0  0            999 V2000
    0.0000    0.0000    0.0000 Ca  0  0  0  0  0 15  0  0  0  0  0  0
M  END
> <DATABASE_ID>
DB01373

> <DATABASE_NAME>
drugbank

> <SMILES>
[Ca]

> <INCHI_IDENTIFIER>
InChI=1S/Ca

> <INCHI_KEY>
OYPRJOBELJOOCE-UHFFFAOYSA-N

> <FORMULA>
Ca

> <MOLECULAR_WEIGHT>
40.078

> <EXACT_MASS>
39.9625909

> <JCHEM_ACCEPTOR_COUNT>
0

> <JCHEM_ATOM_COUNT>
1

> <JCHEM_AVERAGE_POLARIZABILITY>
1.7784

> <JCHEM_BIOAVAILABILITY>
1

> <JCHEM_DONOR_COUNT>
0

> <JCHEM_FORMAL_CHARGE>
0

> <JCHEM_GHOSE_FILTER>
0

> <JCHEM_IUPAC>
calcium

> <ALOGPS_LOGP>
-1.31

> <JCHEM_LOGP>
-0.57

> <ALOGPS_LOGS>
1.08

> <JCHEM_MDDR_LIKE_RULE>
0

> <JCHEM_NUMBER_OF_RINGS>
0

> <JCHEM_PHYSIOLOGICAL_CHARGE>
0

> <JCHEM_POLAR_SURFACE_AREA>
0.0

> <JCHEM_REFRACTIVITY>
0.0

> <JCHEM_ROTATABLE_BOND_COUNT>
0

> <JCHEM_RULE_OF_FIVE>
1

> <ALOGPS_SOLUBILITY>
0.00e+00 g/l

> <JCHEM_TRADITIONAL_IUPAC>
calcium

> <JCHEM_VEBER_RULE>
1

> <DRUGBANK_ID>
DB01373

> <DRUG_GROUPS>
nutraceutical

> <GENERIC_NAME>
Calcium

> <SYNONYMS>
Calcio; Calcium, elemental; Elemental calcium; Kalzium

> <PRODUCTS>
24 Multivitamins + Minerals; 50 Plus Multiple Vitamins & Minerals; 7030 Calcium Gold; 7030 Calcium Premium; A D Calcium Tab; A-D Calcium Cap; A.R.T.H. Away Formula; A/o-26 - Caplet; Acti-cal/mag 2:1 + Zinc and D Caplet; Actical Plus Calcium-magnesium-vitamin D3-silicon Chewable; Active Calcium Plus Magnesium, Vitamin D and Silicon; Ad & Calcium Cap; Ad Calcium Cap; Adult Formula 50+; Advanced B & T Formula; Ag-X; Alkadrenergy Tablets; Anaplex Tab; Astral C Tab; Avon Vitadvance Multi-kids Complete; B & J Formula Dietary Supplement; B-Nexa; Biocalth Calcium Powder; Biocalth Calcium Supplement; Body Rox; Bseltzer; C P Re; C. Vit-min Formula; C.H.V. Formula; Cal & Mag Hvp Chel Plus C Potass & Zinc Tab; Cal Gel Cap 45mg; Cal Mag Drink With Vitamin C; Cal Mag Plus - Tab; Cal-mag Citrate Zinc & Vitamin D Tablets; Cal-mag With Zinc & Vitamin D; Cal/mag 1:1 With Zinc and Vitamin D - Tablet; Cal/mag 2:1 With D; Cal/mag+d; Calci A and D Tab; Calcimag Tab; Calcitol; Calcium; Calcium & Magnesium Citrate Plus D With Manganese, Potassium & Zinc; Calcium & Magnesium Plus Potassium & Zinc; Calcium & Magnesium Plus Potassium, Zinc, & Manganese; Calcium & Magnesium With Potassium & Zinc; Calcium & Magnesium With Potassium, Zinc, Manganese & Vitamin D; Calcium 400 With Magnesium - Pwr; Calcium 650mg Tab; Calcium A D; Calcium Capsules With Magnesium and Vitamin D; Calcium Chelate Plus Vit D; Calcium Citramate; Calcium Complex High Grade; Calcium Et Magnesium Plus Vitamine D/fe/zn; Calcium Et Magnesium Tab; Calcium Liquid; Calcium Liquid Syrup; Calcium Magnesium 1000/500 - Tab; Calcium Magnesium Avec Vitamine D Et Zinc; Calcium Magnesium Sulfur Silicon - Tab; Calcium Phosphorus & Vitamin D; Calcium Sandoz Syr 110mg/5ml; Calcium Syrup 110mg/5ml; Calcium With Mg Zn Mn Cu CR Si and Vit. C & D; Calcium With Vitamin D 200 Mg/160 Iu; Calcium and Magnesium 1:1 Plus Tablets; Calcium/magnesium Drink; Calcor; Calplus; Card-floe II Tab; Cavan One; Cavan-EC SOD DHA; Cell-wise; Cell-wise Natural Source; Central-vite 18 Essential; Century Complete; Chela Calmag-100 Plus Zinc D3; Chela Calmag-300 Plus Zinc D3; Chelamins Plus Tab; Chelated Cal-mag(2:1)with Zn Vit.c and D; Chelated Cal/mag/zn With Vitamins; Chelated Calcium Supplement - 150mg Tab; Chelated Calcium and Magnesium Tab; Chelazome Calcium 125mg; Chewable Adult Multivitamins With Minerals; Chewable Cal-mag Chocolate Flavour; Chewable Calcium & Magnesium 2:1 Tablet; Chewable Calcium Plus Magnesium and Minerals; Chewable Children's Complete Multivitamins With Essential Minerals; Children's Chewable Multi-vitamin Complete With Minerals; Children's Chewable Multivitamin Complete With Minerals; Children's Chewable Multivitamins With Minerals; Children's Chewable Multivitamins and Minerals; Classic Swiss One 10 Multivitamin and Mineral Tab; Complete Multivitamins and Minerals Tablets Timed Release; Complete One A Day Tab; Complete One-A-day - Tab; D T B T; Doctor's Choice Brand for Men; ENA Actimineral A; Envirocomplex; Enviroflex - Tab; Essential Vitamins and Minerals; Extra Once A Day; Fem Time Tab; Ferrous Sulfate; Focalgin B; Folcaps Omega-3; Folgard; For-2; Formula A.R.-th Dietary Supplement; Formula Inf; Formula Int; Formula O-care Vitamin and Mineral Supplement; Formula Osg; Fusion Activator Formula Tab; Fusion PM Formula Tab; Gellucal Cap 45mg; Global Vigen Recare Calcium; Grand Master Formula Tab; Great Calcium; H.W. Children's Chewable Multi Vit & Mineral; HANTAI 8030 Ca-D3 GOLD; HANTAI 8030 Ca-D3 Premium; Hemarexin Tab; Hi Potency Multi Tab; Hsn Formula; Hvp Chelated Cal/mag With Zinc and Vitamins C and D; Hypo Vites Tab; Innersource Tab; Isotonix Calcium Plus Formula; K.L. Vitamin-mineral; Kanga-V Multivitamins & Minerals; Korea Calcium King; L.G.I.T.; Leonas Calcium Plus Vitamin D3; Liquid Calcium Mg Phosphorus and Vit.d-3; Liquid Calcium With Vitamin D; Liquid Calcium and Magnesium With Vit.d; Liquid Opti-minplex +d; Luna Vitamin and Mineral Bar for Women; M-Natal Plus; Mag/cal 1:1 Capsules W Vitamin D; Magnacal; Magnesium Chloride; Maintain Multiple Vitamin & Minerals; Maximum Once A Day; Maxine Vitamin and Mineral Supplement; Maxum Multi-vite; Mega Capsules; Mega Multiple Minerals; Mega Plex III - Pck; Mega Plex IV - Pck; Mega-vim 75 With Beta-carotene - Tablets; Men's; Men's 50+; Men's Biomultiple Vitamin and Mineral Supplement; Milltrium Senior Vitamin and Mineral Supplement; Mineral Support; Mnps Formula Supplement; Mor-vites Tab; Multi #2; Multi Cal Mag Liquid; Multi Flow Tablets; Multi II IV Vi Tab; Multi Mega Minerals With Vitamin D; Multi Plex I - Tab; Multi Plex II - Tab; Multi Rol; Multi Spectrum - Tablet; Multi Tabs; Multi Vitamin & Minerals; Multi Vitamins & Minerals; Multi-actin; Multi-mins Minerals; Multi-vitamins With Minerals; Multicaps; Multimineral Chelates; Multimineral Tablets; Multiminerals; Multipack II; Multiple Mineral Liquid; Multiple Minerals; Multiple Vitamin Plus Minerals Tab; Multiple Vitamins W Minerals Tab; Multiple Vitamins With Minerals Tablets; Multiple Vitamins and Minerals Tab; Multitabs; Multivitamin & Minerals (iron Free); Multivitamin & Multimineral; Multivitamines Et Mineraux Reguliers / Regular Multivitamins and Minerals; Multivitamins and Minerals - Complete; Multivitamins and Minerals Tablets; Multivitamins and Minerals With Betacarotene Tablets; Multivitamins and Minerals for Men; Multivitamins and Minerals for Women; Multivitamins and Multiminerals Formula Regular Tablet; Multra Plex; Multra With Iron; NESTABS ABC Prenatal Multi-vitamin/Mineral Supplement with DHA/EPA; Nata Komplete; Natelle One; Natural Liquid Mineral Supplement; Natural Source Spectrum With Beta Carotene; Neonatal Plus Vitamin; Neonatal Vitamin; Nexa Plus; Nexa Select Rx Prenatal Vitamin with Plant-Based DHA; Nitro Vites - Tab; Nutra Boost; Nutra-clear; Nutri-chem Cal Mag; Nutri-chem Calcium Magnesium With D and Zinc; Nutrifer Plus Tablets; Nutrilite Double X; O-Cal FA multivitamin; O-Cal Prenatal Vitamin; Olympian Multi Vit Plus Minerals Tab; Omega-3 Rx Complete; One A Day Advance Adults; One A Day Advance Adults 50+; One A Day Multiple Vit W Minerals; One A Day Tab; One Daily Vitamin and Mineral Dietary Supplement; Only One - Tablet; OnlyCal; Opti-cal Chewable +d Caplet; Osteo Factors; Osteo Formula; Osteo Formula Tab; Osteo Regime; Osteo Tablets; Osteo-force; Osteo-life; Osteoligo; Osteoshield; Oyster Shell Calcium with Vitamin D; P D All; P D All M; P D M; Paramettes Adults; Phytofortis + Calcium A-D; Pnv-dha; Port A Mins Super Cal-mag 300/150 With Vitamin D3; Port A Mins Super Cal-mag 600/300; Port A Mins Super Calcium 375 With Vitamin D3; Port A Mins Super Calcium 750 With Vitamin D3; PreFol-DHA; PreNatal Vitamins Plus; Premel; Premium Prenatal; Premium Prenatal - Tablets; Prenara; Prenatal; Prenatal Formula Tab; Prenatal Vi-min; Prenatal Vitamin No 53 Iron Fum Folic Acid Docusate CA DHA; Prenatal Vitamin and Mineral Supplement; Prenatvite; Prenatvite Complete; Prenatvite Plus; Preplus; Prevencal 300 + D A Croquer; Protect Plus SO 60; Pure Calcium calcium; Resto L; Restoration Treatment; Revitex Ampoules Et Comprimes; Revival 1 Tab; Right Choice P.M. Multi Formula - Caplet; Rocky Mountain Multiple Vit and Min Mega Tab; Senior Multi One; Spd Tab; Spectrum 2 Cap; Spectrum Performa Multivitamins and Minerals Tablets; Sub small molecule disinfectant; Super Cal Mag Plus; Super Kids Chewable Multivitamin Multimineral (chewable Tablets); Super Multi; Super Vita Vim Multivitamins and Minerals; Super Vita-vim With Beta-carotene - Tab; Supplements De Vitamines Et Mineraux; Swical D-M - Tab; Swical Extra-fort; Swical-energy 3e Age; Swical-multi; Swiss One; Swiss One Multi Vit & Chel Min Tab; Swiss One Multivitamin and Mineral Caplet; Swiss Total One; T-PA Cap; Tall G U; Tianshi Calcium With Natural Source Vitamin D Tablets; Tianshi Vital Powder I; Tianshi Vital Powder II; Tianshi Vital Powder III; Timed Release Vita-vim Srt; Timed Release and Esterified Vitamin C-500; Total Living Concepts Formula One - Tab; Tri-mins - Cap; Tropicana Calcium & Vitamin C Supplement; Tropicana Calcium Supplement 344 mg; Tropicana Calcium Supplement 393 mg; Tropicana Calcium Supplement 604 mg; Tropicana Calcium and Vitamin C Supplement; Twin G.F. Powder; Twin G.F. Powder Vanilla Flavor; Twin Opti Pwr; Ultimate Tab; UltimateCare ONE NF; Usana Calmag Plus Tablets - Tab; Usana Multimineral Tablets; Usana Multimineral Tablets - Tab; Usana Optimizer Actical Plus Calcium-magnesium-vitamin D3-silicon Tablets; V & M Vitamin and Mineral Supplement; VIL-Rx; Vc II; Vege 1 Daily Tab; Vege Swiss One Multivitamin W Chel Mins Tab; Vimeral Tab; Vita Balance 2000; Vita Plex Tab; Vita Vim Multivitamins and Minerals Tab; Vita-vim - Tab; Vitaflex Dietary Suplement; Vitafol Caplet; Vitafol OB Caplet; Vitafol-OB Plus DHA Prenatal Supplement Plus DHA; Vitalife - Capsule; Vitality Brand Calcium Plus Tab; Vitamin & Mineral Formula 1 Dietary Supplement; Vitamin C W Chelates Tab; Vitaplex; Vyo Cylate - Pwr; Women's Biomultiple Vitamin and Mineral Supplement; Women's Change Formula; Zingiber

$$$$
