
  Mrv1572004061620022D          

 30 33  0  0  0  0            999 V2000
    2.5006   -3.0937    0.0000 C   0  0  0  0  0  0  0  0  0  0  0  0
    2.5006   -2.2687    0.0000 C   0  0  0  0  0  0  0  0  0  0  0  0
    2.5006    2.6812    0.0000 C   0  0  0  0  0  0  0  0  0  0  0  0
   -2.5006   -1.0312    0.0000 C   0  0  0  0  0  0  0  0  0  0  0  0
    1.7861    3.0937    0.0000 C   0  0  0  0  0  0  0  0  0  0  0  0
   -2.5006   -1.8562    0.0000 C   0  0  0  0  0  0  0  0  0  0  0  0
    2.5006    1.8562    0.0000 C   0  0  0  0  0  0  0  0  0  0  0  0
   -1.7861   -0.6187    0.0000 C   0  0  0  0  0  0  0  0  0  0  0  0
    1.0717    2.6812    0.0000 C   0  0  0  0  0  0  0  0  0  0  0  0
   -1.7861   -2.2687    0.0000 C   0  0  0  0  0  0  0  0  0  0  0  0
    1.7861    1.4437    0.0000 C   0  0  0  0  0  0  0  0  0  0  0  0
   -1.0717   -1.0312    0.0000 C   0  0  0  0  0  0  0  0  0  0  0  0
    1.0717    1.8562    0.0000 C   0  0  0  0  0  0  0  0  0  0  0  0
   -1.0717   -1.8562    0.0000 C   0  0  0  0  0  0  0  0  0  0  0  0
    1.0717   -0.6187    0.0000 C   0  0  0  0  0  0  0  0  0  0  0  0
    1.0717    0.2062    0.0000 C   0  0  0  0  0  0  0  0  0  0  0  0
    0.3572   -1.0312    0.0000 C   0  0  0  0  0  0  0  0  0  0  0  0
    1.7861    0.6187    0.0000 C   0  0  0  0  0  0  0  0  0  0  0  0
   -0.3572   -0.6187    0.0000 C   0  0  0  0  0  0  0  0  0  0  0  0
    1.7861   -1.0312    0.0000 C   0  0  0  0  0  0  0  0  0  0  0  0
    0.3572    0.6187    0.0000 C   0  0  0  0  0  0  0  0  0  0  0  0
    0.3572   -1.8562    0.0000 C   0  0  0  0  0  0  0  0  0  0  0  0
    2.5006    0.2062    0.0000 O   0  0  0  0  0  0  0  0  0  0  0  0
   -0.3572    0.2062    0.0000 O   0  0  0  0  0  0  0  0  0  0  0  0
    2.5006   -0.6187    0.0000 O   0  0  0  0  0  0  0  0  0  0  0  0
   -0.4632    0.7049    0.0000 O   0  0  0  0  0  0  0  0  0  0  0  0
    1.0717   -2.2687    0.0000 O   0  0  0  0  0  0  0  0  0  0  0  0
    1.7861   -1.8562    0.0000 O   0  0  0  0  0  0  0  0  0  0  0  0
    0.3572    1.4437    0.0000 O   0  0  0  0  0  0  0  0  0  0  0  0
   -0.3572   -2.2687    0.0000 O   0  0  0  0  0  0  0  0  0  0  0  0
  2  1  1  0  0  0  0
  5  3  2  0  0  0  0
  6  4  2  0  0  0  0
  7  3  1  0  0  0  0
  8  4  1  0  0  0  0
  9  5  1  0  0  0  0
 10  6  1  0  0  0  0
 11  7  2  0  0  0  0
 12  8  2  0  0  0  0
 13  9  2  0  0  0  0
 13 11  1  0  0  0  0
 14 10  2  0  0  0  0
 14 12  1  0  0  0  0
 16 15  1  0  0  0  0
 17 15  1  0  0  0  0
 18 11  1  0  0  0  0
 18 16  2  0  0  0  0
 19 12  1  0  0  0  0
 19 17  2  0  0  0  0
 20 15  1  0  0  0  0
 21 16  1  0  0  0  0
 22 17  1  0  0  0  0
 23 18  1  0  0  0  0
 24 19  1  0  0  0  0
 25 20  2  0  0  0  0
 26 21  2  0  0  0  0
 27 22  2  0  0  0  0
 28  2  1  0  0  0  0
 28 20  1  0  0  0  0
 29 13  1  0  0  0  0
 29 21  1  0  0  0  0
 30 14  1  0  0  0  0
 30 22  1  0  0  0  0
M  END
> <DATABASE_ID>
DB08794

> <DATABASE_NAME>
drugbank

> <SMILES>
CCOC(=O)C(C1=C(O)C2=CC=CC=C2OC1=O)C1=C(O)C2=CC=CC=C2OC1=O

> <INCHI_IDENTIFIER>
InChI=1S/C22H16O8/c1-2-28-20(25)15(16-18(23)11-7-3-5-9-13(11)29-21(16)26)17-19(24)12-8-4-6-10-14(12)30-22(17)27/h3-10,15,23-24H,2H2,1H3

> <INCHI_KEY>
JCLHQFUTFHUXNN-UHFFFAOYSA-N

> <FORMULA>
C22H16O8

> <MOLECULAR_WEIGHT>
408.362

> <EXACT_MASS>
408.084517475

> <JCHEM_ACCEPTOR_COUNT>
5

> <JCHEM_ATOM_COUNT>
46

> <JCHEM_AVERAGE_POLARIZABILITY>
39.97888629716445

> <JCHEM_BIOAVAILABILITY>
1

> <JCHEM_DONOR_COUNT>
2

> <JCHEM_FORMAL_CHARGE>
0

> <JCHEM_GHOSE_FILTER>
1

> <JCHEM_IUPAC>
ethyl 2,2-bis(4-hydroxy-2-oxo-2H-chromen-3-yl)acetate

> <ALOGPS_LOGP>
2.18

> <JCHEM_LOGP>
1.6678783676666664

> <ALOGPS_LOGS>
-3.78

> <JCHEM_MDDR_LIKE_RULE>
0

> <JCHEM_NUMBER_OF_RINGS>
4

> <JCHEM_PHYSIOLOGICAL_CHARGE>
-2

> <JCHEM_PKA>
5.55610554044304

> <JCHEM_PKA_STRONGEST_ACIDIC>
4.822884030553499

> <JCHEM_PKA_STRONGEST_BASIC>
-6.689605904098842

> <JCHEM_POLAR_SURFACE_AREA>
119.36

> <JCHEM_REFRACTIVITY>
104.95039999999997

> <JCHEM_ROTATABLE_BOND_COUNT>
5

> <JCHEM_RULE_OF_FIVE>
1

> <ALOGPS_SOLUBILITY>
6.77e-02 g/l

> <JCHEM_TRADITIONAL_IUPAC>
ethyl biscoumacetate

> <JCHEM_VEBER_RULE>
0

> <DRUGBANK_ID>
DB08794

> <DRUG_GROUPS>
withdrawn

> <GENERIC_NAME>
Ethyl biscoumacetate

> <SYNONYMS>
Ethyl bis(4-hydroxy-2-oxo-2h-1-benzopyran-3-yl)acetate; Ethyl biscoumacetate; Ethyldicoumarol

$$$$
