
  Mrv1718008311818362D          

 30 33  0  0  1  0            999 V2000
    2.0630   -1.4167    0.0000 C   0  0  0  0  0  0  0  0  0  0  0  0
    2.8390   -1.6970    0.0000 C   0  0  1  0  0  0  0  0  0  0  0  0
    3.5218   -1.2340    0.0000 C   0  0  0  0  0  0  0  0  0  0  0  0
    4.1731   -1.7404    0.0000 C   0  0  1  0  0  0  0  0  0  0  0  0
    4.9853   -1.5952    0.0000 C   0  0  2  0  0  0  0  0  0  0  0  0
    5.2655   -0.8192    0.0000 C   0  0  0  0  0  0  0  0  0  0  0  0
    6.0777   -0.6740    0.0000 C   0  0  0  0  0  0  0  0  0  0  0  0
    6.6095   -1.3047    0.0000 C   0  0  0  0  0  0  0  0  0  0  0  0
    7.4216   -1.1595    0.0000 C   0  0  0  0  0  0  0  0  0  0  0  0
    7.9534   -1.7902    0.0000 C   0  0  0  0  0  0  0  0  0  0  0  0
    8.7655   -1.6450    0.0000 O   0  0  0  0  0  0  0  0  0  0  0  0
    7.6731   -2.5662    0.0000 C   0  0  0  0  0  0  0  0  0  0  0  0
    6.8610   -2.7114    0.0000 C   0  0  0  0  0  0  0  0  0  0  0  0
    6.3292   -2.0807    0.0000 C   0  0  2  0  0  0  0  0  0  0  0  0
    5.5171   -2.2259    0.0000 C   0  0  1  0  0  0  0  0  0  0  0  0
    5.2368   -3.0018    0.0000 C   0  0  0  0  0  0  0  0  0  0  0  0
    5.7686   -3.6325    0.0000 O   0  0  0  0  0  0  0  0  0  0  0  0
    4.4247   -3.1470    0.0000 C   0  0  0  0  0  0  0  0  0  0  0  0
    3.8928   -2.5163    0.0000 C   0  0  2  0  0  0  0  0  0  0  0  0
    3.0683   -2.4895    0.0000 C   0  0  1  0  0  0  0  0  0  0  0  0
    2.9469   -3.3055    0.0000 C   0  0  0  0  0  0  0  0  0  0  0  0
    3.5929   -3.8187    0.0000 O   0  0  0  0  0  0  0  0  0  0  0  0
    2.1795   -3.6084    0.0000 C   0  0  0  0  0  0  0  0  0  0  0  0
    2.0581   -4.4244    0.0000 O   0  0  0  0  0  0  0  0  0  0  0  0
    1.2907   -4.7273    0.0000 C   0  0  0  0  0  0  0  0  0  0  0  0
    1.1693   -5.5433    0.0000 O   0  0  0  0  0  0  0  0  0  0  0  0
    0.6447   -4.2141    0.0000 C   0  0  0  0  0  0  0  0  0  0  0  0
    2.3074   -2.8084    0.0000 O   0  0  0  0  0  0  0  0  0  0  0  0
    3.5330   -3.2587    0.0000 C   0  0  0  0  0  0  0  0  0  0  0  0
    6.0489   -2.8566    0.0000 C   0  0  0  0  0  0  0  0  0  0  0  0
  2  1  1  1  0  0  0
  2  3  1  0  0  0  0
  4  3  1  1  0  0  0
  4  5  1  0  0  0  0
  5  6  1  6  0  0  0
  6  7  1  0  0  0  0
  7  8  1  0  0  0  0
  8  9  2  0  0  0  0
  9 10  1  0  0  0  0
 10 11  2  0  0  0  0
 10 12  1  0  0  0  0
 12 13  2  0  0  0  0
 13 14  1  0  0  0  0
  8 14  1  0  0  0  0
 14 15  1  0  0  0  0
  5 15  1  0  0  0  0
 15 16  1  1  0  0  0
 16 17  2  0  0  0  0
 16 18  1  0  0  0  0
 18 19  1  0  0  0  0
  4 19  1  0  0  0  0
 19 20  1  0  0  0  0
  2 20  1  0  0  0  0
 20 21  1  1  0  0  0
 21 22  2  0  0  0  0
 21 23  1  0  0  0  0
 23 24  1  0  0  0  0
 24 25  1  0  0  0  0
 25 26  2  0  0  0  0
 25 27  1  0  0  0  0
 20 28  1  6  0  0  0
 19 29  1  1  0  0  0
 14 30  1  1  0  0  0
M  END
> <DATABASE_ID>
DB14625

> <DATABASE_NAME>
drugbank

> <SMILES>
C[C@H]1C[C@H]2[C@@H]3CCC4=CC(=O)C=C[C@]4(C)[C@H]3C(=O)C[C@]2(C)[C@@]1(O)C(=O)COC(C)=O

> <INCHI_IDENTIFIER>
InChI=1S/C24H30O6/c1-13-9-18-17-6-5-15-10-16(26)7-8-22(15,3)21(17)19(27)11-23(18,4)24(13,29)20(28)12-30-14(2)25/h7-8,10,13,17-18,21,29H,5-6,9,11-12H2,1-4H3/t13-,17-,18-,21+,22-,23-,24-/m0/s1

> <INCHI_KEY>
RZAMUHXEOMZXET-ABQXZQTJSA-N

> <FORMULA>
C24H30O6

> <MOLECULAR_WEIGHT>
414.498

> <EXACT_MASS>
414.204238686

> <JCHEM_ACCEPTOR_COUNT>
5

> <JCHEM_ATOM_COUNT>
60

> <JCHEM_AVERAGE_POLARIZABILITY>
44.171868125311484

> <JCHEM_BIOAVAILABILITY>
1

> <JCHEM_DONOR_COUNT>
1

> <JCHEM_FORMAL_CHARGE>
0

> <JCHEM_GHOSE_FILTER>
1

> <JCHEM_IUPAC>
2-[(1R,2S,3aS,3bS,9aR,9bS,11aS)-1-hydroxy-2,9a,11a-trimethyl-7,10-dioxo-1H,2H,3H,3aH,3bH,4H,5H,7H,9aH,9bH,10H,11H,11aH-cyclopenta[a]phenanthren-1-yl]-2-oxoethyl acetate

> <ALOGPS_LOGP>
2.48

> <JCHEM_LOGP>
2.4646024146666656

> <ALOGPS_LOGS>
-4.39

> <JCHEM_MDDR_LIKE_RULE>
0

> <JCHEM_NUMBER_OF_RINGS>
4

> <JCHEM_PHYSIOLOGICAL_CHARGE>
0

> <JCHEM_PKA>
16.208784320721612

> <JCHEM_PKA_STRONGEST_ACIDIC>
12.45987989666456

> <JCHEM_PKA_STRONGEST_BASIC>
-3.909707324028205

> <JCHEM_POLAR_SURFACE_AREA>
97.74

> <JCHEM_REFRACTIVITY>
111.19119999999998

> <JCHEM_ROTATABLE_BOND_COUNT>
4

> <JCHEM_RULE_OF_FIVE>
1

> <ALOGPS_SOLUBILITY>
1.68e-02 g/l

> <JCHEM_TRADITIONAL_IUPAC>
2-[(1R,2S,3aS,3bS,9aR,9bS,11aS)-1-hydroxy-2,9a,11a-trimethyl-7,10-dioxo-2H,3H,3aH,3bH,4H,5H,9bH,11H-cyclopenta[a]phenanthren-1-yl]-2-oxoethyl acetate

> <JCHEM_VEBER_RULE>
0

> <DRUGBANK_ID>
DB14625

> <SECONDARY_ACCESSION_NUMBERS>
DBSALT002263

> <DRUG_GROUPS>
experimental

> <GENERIC_NAME>
Meprednisone acetate

> <SYNONYMS>
Meprednisone 21-acetate

$$$$
