
  Mrv1652310211603482D          

 16 16  0  0  0  0            999 V2000
    1.4289    2.4750    0.0000 C   0  0  0  0  0  0  0  0  0  0  0  0
    0.7145    2.0625    0.0000 O   0  0  0  0  0  0  0  0  0  0  0  0
    0.7145    1.2375    0.0000 C   0  0  0  0  0  0  0  0  0  0  0  0
    1.4289    0.8250    0.0000 C   0  0  0  0  0  0  0  0  0  0  0  0
    1.4289   -0.0000    0.0000 C   0  0  0  0  0  0  0  0  0  0  0  0
    0.7145   -0.4125    0.0000 N   0  0  0  0  0  0  0  0  0  0  0  0
    0.0000    0.0000    0.0000 C   0  0  0  0  0  0  0  0  0  0  0  0
    0.0000    0.8250    0.0000 C   0  0  0  0  0  0  0  0  0  0  0  0
   -0.7145    1.2375    0.0000 Cl  0  0  0  0  0  0  0  0  0  0  0  0
   -0.7145   -0.4125    0.0000 O   0  0  0  0  0  0  0  0  0  0  0  0
   -0.7145   -1.2375    0.0000 C   0  0  0  0  0  0  0  0  0  0  0  0
    2.1434   -0.4125    0.0000 C   0  0  0  0  0  0  0  0  0  0  0  0
    2.8579   -0.8250    0.0000 Cl  0  0  0  0  0  0  0  0  0  0  0  0
    1.7309   -1.1270    0.0000 Cl  0  0  0  0  0  0  0  0  0  0  0  0
    2.5559    0.3020    0.0000 Cl  0  0  0  0  0  0  0  0  0  0  0  0
    2.1434    1.2375    0.0000 Cl  0  0  0  0  0  0  0  0  0  0  0  0
  1  2  1  0  0  0  0
  2  3  1  0  0  0  0
  3  4  2  0  0  0  0
  4  5  1  0  0  0  0
  5  6  2  0  0  0  0
  6  7  1  0  0  0  0
  7  8  2  0  0  0  0
  3  8  1  0  0  0  0
  8  9  1  0  0  0  0
  7 10  1  0  0  0  0
 10 11  1  0  0  0  0
  5 12  1  0  0  0  0
 12 13  1  0  0  0  0
 12 14  1  0  0  0  0
 12 15  1  0  0  0  0
  4 16  1  0  0  0  0
M  END
> <DATABASE_ID>
DB12987

> <DATABASE_NAME>
drugbank

> <SMILES>
COC1=C(Cl)C(OC)=C(Cl)C(=N1)C(Cl)(Cl)Cl

> <INCHI_IDENTIFIER>
InChI=1S/C8H6Cl5NO2/c1-15-5-3(9)6(8(11,12)13)14-7(16-2)4(5)10/h1-2H3

> <INCHI_KEY>
DZVPGIORVGSQMC-UHFFFAOYSA-N

> <FORMULA>
C8H6Cl5NO2

> <MOLECULAR_WEIGHT>
325.39

> <EXACT_MASS>
322.8841169

> <JCHEM_ACCEPTOR_COUNT>
3

> <JCHEM_ATOM_COUNT>
22

> <JCHEM_AVERAGE_POLARIZABILITY>
26.524500254242298

> <JCHEM_BIOAVAILABILITY>
1

> <JCHEM_DONOR_COUNT>
0

> <JCHEM_FORMAL_CHARGE>
0

> <JCHEM_GHOSE_FILTER>
1

> <JCHEM_IUPAC>
3,5-dichloro-2,4-dimethoxy-6-(trichloromethyl)pyridine

> <ALOGPS_LOGP>
4.75

> <JCHEM_LOGP>
4.126536334666666

> <ALOGPS_LOGS>
-4.18

> <JCHEM_MDDR_LIKE_RULE>
0

> <JCHEM_NUMBER_OF_RINGS>
1

> <JCHEM_PHYSIOLOGICAL_CHARGE>
0

> <JCHEM_PKA_STRONGEST_BASIC>
-0.9204505207085422

> <JCHEM_POLAR_SURFACE_AREA>
31.35

> <JCHEM_REFRACTIVITY>
66.85669999999999

> <JCHEM_ROTATABLE_BOND_COUNT>
3

> <JCHEM_RULE_OF_FIVE>
1

> <ALOGPS_SOLUBILITY>
2.17e-02 g/l

> <JCHEM_TRADITIONAL_IUPAC>
penclomedine

> <JCHEM_VEBER_RULE>
1

> <DRUGBANK_ID>
DB12987

> <DRUG_GROUPS>
investigational

> <GENERIC_NAME>
Penclomedine

$$$$
