
  Mrv1718004201811502D          

 45 44  0  0  0  0            999 V2000
   15.8961   10.0026    0.0000 C   0  0  0  0  0  0  0  0  0  0  0  0
   16.6105   10.4151    0.0000 C   0  0  0  0  0  0  0  0  0  0  0  0
   17.3250   10.0026    0.0000 C   0  0  0  0  0  0  0  0  0  0  0  0
   18.0395   10.4151    0.0000 C   0  0  0  0  0  0  0  0  0  0  0  0
   18.7539   10.0026    0.0000 C   0  0  0  0  0  0  0  0  0  0  0  0
   19.4684   10.4151    0.0000 C   0  0  0  0  0  0  0  0  0  0  0  0
   20.1829   10.0026    0.0000 C   0  0  0  0  0  0  0  0  0  0  0  0
   20.8974   10.4151    0.0000 C   0  0  0  0  0  0  0  0  0  0  0  0
   21.6118   10.0026    0.0000 C   0  0  0  0  0  0  0  0  0  0  0  0
   22.3263   10.4151    0.0000 C   0  0  0  0  0  0  0  0  0  0  0  0
   23.0408   10.0026    0.0000 C   0  0  0  0  0  0  0  0  0  0  0  0
   23.7552   10.4151    0.0000 C   0  0  0  0  0  0  0  0  0  0  0  0
   24.4697   10.0026    0.0000 C   0  0  0  0  0  0  0  0  0  0  0  0
   25.1842   10.4151    0.0000 C   0  0  0  0  0  0  0  0  0  0  0  0
   25.1842   11.2401    0.0000 O   0  0  0  0  0  0  0  0  0  0  0  0
   25.8987   10.0026    0.0000 O   0  0  0  0  0  0  0  0  0  0  0  0
   26.6131   10.4151    0.0000 C   0  0  0  0  0  0  0  0  0  0  0  0
   27.3276   10.0026    0.0000 C   0  0  0  0  0  0  0  0  0  0  0  0
   27.3276    9.1776    0.0000 C   0  0  0  0  0  0  0  0  0  0  0  0
   28.0421    8.7651    0.0000 O   0  0  0  0  0  0  0  0  0  0  0  0
   28.0421    7.9401    0.0000 P   0  0  0  0  0  0  0  0  0  0  0  0
   28.8671    7.9401    0.0000 O   0  0  0  0  0  0  0  0  0  0  0  0
   27.2171    7.9401    0.0000 O   0  0  0  0  0  0  0  0  0  0  0  0
   28.0421    7.1151    0.0000 O   0  0  0  0  0  0  0  0  0  0  0  0
   27.3276    6.7026    0.0000 C   0  0  0  0  0  0  0  0  0  0  0  0
   27.3276    5.8776    0.0000 C   0  0  0  0  0  0  0  0  0  0  0  0
   28.0421    5.4651    0.0000 C   0  0  0  0  0  0  0  0  0  0  0  0
   28.0421    4.6401    0.0000 O   0  0  0  0  0  0  0  0  0  0  0  0
   26.6131    5.4651    0.0000 O   0  0  0  0  0  0  0  0  0  0  0  0
   28.0421   10.4151    0.0000 O   0  0  0  0  0  0  0  0  0  0  0  0
   28.7565   10.0026    0.0000 C   0  0  0  0  0  0  0  0  0  0  0  0
   28.7565    9.1776    0.0000 O   0  0  0  0  0  0  0  0  0  0  0  0
   29.4710   10.4151    0.0000 C   0  0  0  0  0  0  0  0  0  0  0  0
   30.1855   10.0026    0.0000 C   0  0  0  0  0  0  0  0  0  0  0  0
   30.8999   10.4151    0.0000 C   0  0  0  0  0  0  0  0  0  0  0  0
   31.6144   10.0026    0.0000 C   0  0  0  0  0  0  0  0  0  0  0  0
   32.3289   10.4151    0.0000 C   0  0  0  0  0  0  0  0  0  0  0  0
   33.0434   10.0026    0.0000 C   0  0  0  0  0  0  0  0  0  0  0  0
   33.7578   10.4151    0.0000 C   0  0  0  0  0  0  0  0  0  0  0  0
   34.4723   10.0026    0.0000 C   0  0  0  0  0  0  0  0  0  0  0  0
   35.1868   10.4151    0.0000 C   0  0  0  0  0  0  0  0  0  0  0  0
   35.9012   10.0026    0.0000 C   0  0  0  0  0  0  0  0  0  0  0  0
   36.6157   10.4151    0.0000 C   0  0  0  0  0  0  0  0  0  0  0  0
   37.3302   10.0026    0.0000 C   0  0  0  0  0  0  0  0  0  0  0  0
   38.0447   10.4151    0.0000 C   0  0  0  0  0  0  0  0  0  0  0  0
  1  2  1  0  0  0  0
  2  3  1  0  0  0  0
  3  4  1  0  0  0  0
  4  5  1  0  0  0  0
  5  6  1  0  0  0  0
  6  7  1  0  0  0  0
  7  8  1  0  0  0  0
  8  9  1  0  0  0  0
  9 10  1  0  0  0  0
 10 11  1  0  0  0  0
 11 12  1  0  0  0  0
 12 13  1  0  0  0  0
 13 14  1  0  0  0  0
 14 15  2  0  0  0  0
 14 16  1  0  0  0  0
 16 17  1  0  0  0  0
 17 18  1  0  0  0  0
 18 19  1  0  0  0  0
 19 20  1  0  0  0  0
 20 21  1  0  0  0  0
 21 22  2  0  0  0  0
 21 23  1  0  0  0  0
 21 24  1  0  0  0  0
 24 25  1  0  0  0  0
 25 26  1  0  0  0  0
 26 27  1  0  0  0  0
 27 28  1  0  0  0  0
 26 29  1  0  0  0  0
 18 30  1  0  0  0  0
 30 31  1  0  0  0  0
 31 32  2  0  0  0  0
 31 33  1  0  0  0  0
 33 34  1  0  0  0  0
 34 35  1  0  0  0  0
 35 36  1  0  0  0  0
 36 37  1  0  0  0  0
 37 38  1  0  0  0  0
 38 39  1  0  0  0  0
 39 40  1  0  0  0  0
 40 41  1  0  0  0  0
 41 42  1  0  0  0  0
 42 43  1  0  0  0  0
 43 44  1  0  0  0  0
 44 45  1  0  0  0  0
M  END
> <DATABASE_ID>
DB11284

> <DATABASE_NAME>
drugbank

> <SMILES>
CCCCCCCCCCCCCC(=O)OCC(COP(O)(=O)OCC(O)CO)OC(=O)CCCCCCCCCCCCC

> <INCHI_IDENTIFIER>
InChI=1S/C34H67O10P/c1-3-5-7-9-11-13-15-17-19-21-23-25-33(37)41-29-32(30-43-45(39,40)42-28-31(36)27-35)44-34(38)26-24-22-20-18-16-14-12-10-8-6-4-2/h31-32,35-36H,3-30H2,1-2H3,(H,39,40)

> <INCHI_KEY>
BPHQZTVXXXJVHI-UHFFFAOYSA-N

> <FORMULA>
C34H67O10P

> <MOLECULAR_WEIGHT>
666.874

> <EXACT_MASS>
666.447185355

> <JCHEM_ACCEPTOR_COUNT>
6

> <JCHEM_ATOM_COUNT>
112

> <JCHEM_AVERAGE_POLARIZABILITY>
80.15848818895962

> <JCHEM_BIOAVAILABILITY>
0

> <JCHEM_DONOR_COUNT>
3

> <JCHEM_FORMAL_CHARGE>
0

> <JCHEM_GHOSE_FILTER>
0

> <JCHEM_IUPAC>
[2,3-bis(tetradecanoyloxy)propoxy](2,3-dihydroxypropoxy)phosphinic acid

> <ALOGPS_LOGP>
6.79

> <JCHEM_LOGP>
9.158776859333333

> <ALOGPS_LOGS>
-6.38

> <JCHEM_MDDR_LIKE_RULE>
0

> <JCHEM_NUMBER_OF_RINGS>
0

> <JCHEM_PHYSIOLOGICAL_CHARGE>
-1

> <JCHEM_PKA>
13.641245576372423

> <JCHEM_PKA_STRONGEST_ACIDIC>
1.8907737771908404

> <JCHEM_PKA_STRONGEST_BASIC>
-2.9689647678483633

> <JCHEM_POLAR_SURFACE_AREA>
148.82

> <JCHEM_REFRACTIVITY>
176.90489999999997

> <JCHEM_ROTATABLE_BOND_COUNT>
36

> <JCHEM_RULE_OF_FIVE>
0

> <ALOGPS_SOLUBILITY>
2.81e-04 g/l

> <JCHEM_TRADITIONAL_IUPAC>
C14:0 phosphatidylglycerol

> <JCHEM_VEBER_RULE>
0

> <DRUGBANK_ID>
DB11284

> <SECONDARY_ACCESSION_NUMBERS>
DBSALT001575

> <DRUG_GROUPS>
approved

> <GENERIC_NAME>
DL-dimyristoylphosphatidylglycerol

> <SYNONYMS>
Dimyristoylphosphatidylglycerol; DMPG

> <PRODUCTS>
Abelcet

$$$$
