
  Mrv1652310211600432D          

 53 58  0  0  1  0            999 V2000
   -2.8579    2.4750    0.0000 C   0  0  0  0  0  0  0  0  0  0  0  0
   -2.8579    3.3000    0.0000 O   0  0  0  0  0  0  0  0  0  0  0  0
   -2.1434    3.7125    0.0000 C   0  0  0  0  0  0  0  0  0  0  0  0
   -2.1434    4.5375    0.0000 C   0  0  0  0  0  0  0  0  0  0  0  0
   -1.4289    4.9500    0.0000 C   0  0  0  0  0  0  0  0  0  0  0  0
   -0.7145    4.5375    0.0000 C   0  0  0  0  0  0  0  0  0  0  0  0
   -0.7145    3.7125    0.0000 C   0  0  0  0  0  0  0  0  0  0  0  0
   -1.4289    3.3000    0.0000 C   0  0  0  0  0  0  0  0  0  0  0  0
   -1.4289    2.4750    0.0000 C   0  0  0  0  0  0  0  0  0  0  0  0
   -0.7145    2.0625    0.0000 N   0  0  0  0  0  0  0  0  0  0  0  0
   -0.7145    1.2375    0.0000 C   0  0  0  0  0  0  0  0  0  0  0  0
    0.0000    0.8250    0.0000 C   0  0  1  0  0  0  0  0  0  0  0  0
    0.0000   -0.0000    0.0000 C   0  0  0  0  0  0  0  0  0  0  0  0
   -0.7145   -0.4125    0.0000 C   0  0  0  0  0  0  0  0  0  0  0  0
   -0.7145   -1.2375    0.0000 C   0  0  0  0  0  0  0  0  0  0  0  0
    0.0000   -1.6500    0.0000 C   0  0  0  0  0  0  0  0  0  0  0  0
    0.7145   -1.2375    0.0000 C   0  0  0  0  0  0  0  0  0  0  0  0
    0.7145   -0.4125    0.0000 C   0  0  0  0  0  0  0  0  0  0  0  0
    1.4289   -0.0000    0.0000 C   0  0  0  0  0  0  0  0  0  0  0  0
    2.1434   -0.4125    0.0000 C   0  0  0  0  0  0  0  0  0  0  0  0
    2.1434   -1.2375    0.0000 C   0  0  0  0  0  0  0  0  0  0  0  0
    2.8579   -1.6500    0.0000 O   0  0  0  0  0  0  0  0  0  0  0  0
    1.4289   -1.6500    0.0000 N   0  0  0  0  0  0  0  0  0  0  0  0
    0.0000   -2.4750    0.0000 O   0  0  0  0  0  0  0  0  0  0  0  0
    0.7145    1.2375    0.0000 O   0  0  0  0  0  0  0  0  0  0  0  0
    0.0000    4.9500    0.0000 Cl  0  0  0  0  0  0  0  0  0  0  0  0
   -1.4289    5.7750    0.0000 N   0  0  0  0  0  0  0  0  0  0  0  0
   -2.1434    6.1875    0.0000 C   0  0  0  0  0  0  0  0  0  0  0  0
   -2.8579    5.7750    0.0000 O   0  0  0  0  0  0  0  0  0  0  0  0
   -2.1434    7.0125    0.0000 C   0  0  0  0  0  0  0  0  0  0  0  0
   -2.8579    7.4250    0.0000 C   0  0  0  0  0  0  0  0  0  0  0  0
   -2.8579    8.2500    0.0000 N   0  0  0  0  0  0  0  0  0  0  0  0
   -3.5724    8.6625    0.0000 C   0  0  0  0  0  0  0  0  0  0  0  0
   -3.5724    9.4875    0.0000 C   0  0  0  0  0  0  0  0  0  0  0  0
   -2.8579    9.9000    0.0000 C   0  0  0  0  0  0  0  0  0  0  0  0
   -2.1434    9.4875    0.0000 C   0  0  0  0  0  0  0  0  0  0  0  0
   -2.1434    8.6625    0.0000 C   0  0  0  0  0  0  0  0  0  0  0  0
   -2.8579   10.7250    0.0000 O   0  0  0  0  0  0  0  0  0  0  0  0
   -3.5724   11.1375    0.0000 C   0  0  0  0  0  0  0  0  0  0  0  0
   -4.2868   10.7250    0.0000 O   0  0  0  0  0  0  0  0  0  0  0  0
   -3.5724   11.9625    0.0000 N   0  0  0  0  0  0  0  0  0  0  0  0
   -4.2868   12.3750    0.0000 C   0  0  0  0  0  0  0  0  0  0  0  0
   -5.0013   11.9625    0.0000 C   0  0  0  0  0  0  0  0  0  0  0  0
   -5.7158   12.3750    0.0000 C   0  0  0  0  0  0  0  0  0  0  0  0
   -5.7158   13.2000    0.0000 C   0  0  0  0  0  0  0  0  0  0  0  0
   -5.0013   13.6125    0.0000 C   0  0  0  0  0  0  0  0  0  0  0  0
   -4.2868   13.2000    0.0000 C   0  0  0  0  0  0  0  0  0  0  0  0
   -3.5724   13.6125    0.0000 C   0  0  0  0  0  0  0  0  0  0  0  0
   -3.5724   14.4375    0.0000 C   0  0  0  0  0  0  0  0  0  0  0  0
   -2.8579   14.8500    0.0000 C   0  0  0  0  0  0  0  0  0  0  0  0
   -2.1434   14.4375    0.0000 C   0  0  0  0  0  0  0  0  0  0  0  0
   -2.1434   13.6125    0.0000 C   0  0  0  0  0  0  0  0  0  0  0  0
   -2.8579   13.2000    0.0000 C   0  0  0  0  0  0  0  0  0  0  0  0
  1  2  1  0  0  0  0
  2  3  1  0  0  0  0
  3  4  2  0  0  0  0
  4  5  1  0  0  0  0
  5  6  2  0  0  0  0
  6  7  1  0  0  0  0
  7  8  2  0  0  0  0
  3  8  1  0  0  0  0
  8  9  1  0  0  0  0
  9 10  1  0  0  0  0
 10 11  1  0  0  0  0
 11 12  1  0  0  0  0
 12 13  1  0  0  0  0
 13 14  1  0  0  0  0
 14 15  2  0  0  0  0
 15 16  1  0  0  0  0
 16 17  2  0  0  0  0
 17 18  1  0  0  0  0
 13 18  2  0  0  0  0
 18 19  1  0  0  0  0
 19 20  2  0  0  0  0
 20 21  1  0  0  0  0
 21 22  2  0  0  0  0
 21 23  1  0  0  0  0
 17 23  1  0  0  0  0
 16 24  1  0  0  0  0
 12 25  1  6  0  0  0
  6 26  1  0  0  0  0
  5 27  1  0  0  0  0
 27 28  1  0  0  0  0
 28 29  2  0  0  0  0
 28 30  1  0  0  0  0
 30 31  1  0  0  0  0
 31 32  1  0  0  0  0
 32 33  1  0  0  0  0
 33 34  1  0  0  0  0
 34 35  1  0  0  0  0
 35 36  1  0  0  0  0
 36 37  1  0  0  0  0
 32 37  1  0  0  0  0
 35 38  1  0  0  0  0
 38 39  1  0  0  0  0
 39 40  2  0  0  0  0
 39 41  1  0  0  0  0
 41 42  1  0  0  0  0
 42 43  2  0  0  0  0
 43 44  1  0  0  0  0
 44 45  2  0  0  0  0
 45 46  1  0  0  0  0
 46 47  2  0  0  0  0
 42 47  1  0  0  0  0
 47 48  1  0  0  0  0
 48 49  2  0  0  0  0
 49 50  1  0  0  0  0
 50 51  2  0  0  0  0
 51 52  1  0  0  0  0
 52 53  2  0  0  0  0
 48 53  1  0  0  0  0
M  END
> <DATABASE_ID>
DB12526

> <DATABASE_NAME>
drugbank

> <SMILES>
COC1=CC(NC(=O)CCN2CCC(CC2)OC(=O)NC2=CC=CC=C2C2=CC=CC=C2)=C(Cl)C=C1CNC[C@H](O)C1=C2C=CC(=O)NC2=C(O)C=C1

> <INCHI_IDENTIFIER>
InChI=1S/C40H42ClN5O7/c1-52-36-22-33(31(41)21-26(36)23-42-24-35(48)29-11-13-34(47)39-30(29)12-14-37(49)45-39)43-38(50)17-20-46-18-15-27(16-19-46)53-40(51)44-32-10-6-5-9-28(32)25-7-3-2-4-8-25/h2-14,21-22,27,35,42,47-48H,15-20,23-24H2,1H3,(H,43,50)(H,44,51)(H,45,49)/t35-/m0/s1

> <INCHI_KEY>
URWYQGVSPQJGGB-DHUJRADRSA-N

> <FORMULA>
C40H42ClN5O7

> <MOLECULAR_WEIGHT>
740.25

> <EXACT_MASS>
739.2772764

> <JCHEM_ACCEPTOR_COUNT>
9

> <JCHEM_ATOM_COUNT>
95

> <JCHEM_AVERAGE_POLARIZABILITY>
76.51708210879889

> <JCHEM_BIOAVAILABILITY>
0

> <JCHEM_DONOR_COUNT>
6

> <JCHEM_FORMAL_CHARGE>
0

> <JCHEM_GHOSE_FILTER>
0

> <JCHEM_IUPAC>
1-(2-{[2-chloro-4-({[(2R)-2-hydroxy-2-(8-hydroxy-2-oxo-1,2-dihydroquinolin-5-yl)ethyl]amino}methyl)-5-methoxyphenyl]carbamoyl}ethyl)piperidin-4-yl N-{[1,1'-biphenyl]-2-yl}carbamate

> <ALOGPS_LOGP>
4.34

> <JCHEM_LOGP>
4.370892095061599

> <ALOGPS_LOGS>
-5.31

> <JCHEM_MDDR_LIKE_RULE>
1

> <JCHEM_NUMBER_OF_RINGS>
6

> <JCHEM_PHYSIOLOGICAL_CHARGE>
2

> <JCHEM_PKA>
12.254271438199883

> <JCHEM_PKA_STRONGEST_ACIDIC>
8.492162347011496

> <JCHEM_PKA_STRONGEST_BASIC>
9.021047712132194

> <JCHEM_POLAR_SURFACE_AREA>
161.49

> <JCHEM_REFRACTIVITY>
208.48639999999986

> <JCHEM_ROTATABLE_BOND_COUNT>
14

> <JCHEM_RULE_OF_FIVE>
0

> <ALOGPS_SOLUBILITY>
3.63e-03 g/l

> <JCHEM_TRADITIONAL_IUPAC>
1-(2-{[2-chloro-4-({[(2R)-2-hydroxy-2-(8-hydroxy-2-oxo-1H-quinolin-5-yl)ethyl]amino}methyl)-5-methoxyphenyl]carbamoyl}ethyl)piperidin-4-yl N-{[1,1'-biphenyl]-2-yl}carbamate

> <JCHEM_VEBER_RULE>
0

> <DRUGBANK_ID>
DB12526

> <DRUG_GROUPS>
investigational

> <GENERIC_NAME>
Batefenterol

> <SYNONYMS>
Batefenterol

> <SALTS>
Batefenterol succinate

$$$$
