
  Mrv1652310201623302D          

 31 32  0  0  0  0            999 V2000
    3.5724   -0.4125    0.0000 C   0  0  0  0  0  0  0  0  0  0  0  0
    3.5724   -1.2375    0.0000 N   0  0  0  0  0  0  0  0  0  0  0  0
    2.8579   -1.6500    0.0000 C   0  0  0  0  0  0  0  0  0  0  0  0
    4.2868   -1.6500    0.0000 C   0  0  0  0  0  0  0  0  0  0  0  0
    4.2868   -2.4750    0.0000 C   0  0  0  0  0  0  0  0  0  0  0  0
    3.5724   -2.8875    0.0000 C   0  0  0  0  0  0  0  0  0  0  0  0
    2.8579   -2.4750    0.0000 O   0  0  0  0  0  0  0  0  0  0  0  0
    2.1434   -2.8875    0.0000 C   0  0  0  0  0  0  0  0  0  0  0  0
    2.1434   -3.7125    0.0000 C   0  0  0  0  0  0  0  0  0  0  0  0
    1.4289   -4.1250    0.0000 C   0  0  0  0  0  0  0  0  0  0  0  0
    0.7145   -3.7125    0.0000 C   0  0  0  0  0  0  0  0  0  0  0  0
    0.7145   -2.8875    0.0000 C   0  0  0  0  0  0  0  0  0  0  0  0
    1.4289   -2.4750    0.0000 C   0  0  0  0  0  0  0  0  0  0  0  0
    1.4289   -1.6500    0.0000 C   0  0  0  0  0  0  0  0  0  0  0  0
    0.7145   -1.2375    0.0000 C   0  0  0  0  0  0  0  0  0  0  0  0
    0.7145   -0.4125    0.0000 C   0  0  0  0  0  0  0  0  0  0  0  0
    0.0000    0.0000    0.0000 C   0  0  0  0  0  0  0  0  0  0  0  0
    0.0000    0.8250    0.0000 C   0  0  0  0  0  0  0  0  0  0  0  0
    0.7145    1.2375    0.0000 C   0  0  0  0  0  0  0  0  0  0  0  0
    1.4289    0.8250    0.0000 C   0  0  0  0  0  0  0  0  0  0  0  0
    1.4289    0.0000    0.0000 C   0  0  0  0  0  0  0  0  0  0  0  0
    2.1434    1.2375    0.0000 O   0  0  0  0  0  0  0  0  0  0  0  0
    2.1434    2.0625    0.0000 C   0  0  0  0  0  0  0  0  0  0  0  0
    5.0013   -2.8875    0.0000 O   0  0  0  0  0  0  0  0  0  0  0  0
    5.7158   -2.4750    0.0000 C   0  0  0  0  0  0  0  0  0  0  0  0
    5.7158   -1.6500    0.0000 O   0  0  0  0  0  0  0  0  0  0  0  0
    6.4302   -2.8875    0.0000 C   0  0  0  0  0  0  0  0  0  0  0  0
    7.1447   -2.4750    0.0000 C   0  0  0  0  0  0  0  0  0  0  0  0
    7.8592   -2.8875    0.0000 C   0  0  0  0  0  0  0  0  0  0  0  0
    8.5737   -2.4750    0.0000 O   0  0  0  0  0  0  0  0  0  0  0  0
    7.8592   -3.7125    0.0000 O   0  0  0  0  0  0  0  0  0  0  0  0
  1  2  1  0  0  0  0
  2  3  1  0  0  0  0
  2  4  1  0  0  0  0
  4  5  1  0  0  0  0
  5  6  1  0  0  0  0
  6  7  1  0  0  0  0
  7  8  1  0  0  0  0
  8  9  2  0  0  0  0
  9 10  1  0  0  0  0
 10 11  2  0  0  0  0
 11 12  1  0  0  0  0
 12 13  2  0  0  0  0
  8 13  1  0  0  0  0
 13 14  1  0  0  0  0
 14 15  1  0  0  0  0
 15 16  1  0  0  0  0
 16 17  2  0  0  0  0
 17 18  1  0  0  0  0
 18 19  2  0  0  0  0
 19 20  1  0  0  0  0
 20 21  2  0  0  0  0
 16 21  1  0  0  0  0
 20 22  1  0  0  0  0
 22 23  1  0  0  0  0
  5 24  1  0  0  0  0
 24 25  1  0  0  0  0
 25 26  2  0  0  0  0
 25 27  1  0  0  0  0
 27 28  1  0  0  0  0
 28 29  1  0  0  0  0
 29 30  2  0  0  0  0
 29 31  1  0  0  0  0
M  END
> <DATABASE_ID>
DB12163

> <DATABASE_NAME>
drugbank

> <SMILES>
COC1=CC(CCC2=CC=CC=C2OCC(CN(C)C)OC(=O)CCC(O)=O)=CC=C1

> <INCHI_IDENTIFIER>
InChI=1S/C24H31NO6/c1-25(2)16-21(31-24(28)14-13-23(26)27)17-30-22-10-5-4-8-19(22)12-11-18-7-6-9-20(15-18)29-3/h4-10,15,21H,11-14,16-17H2,1-3H3,(H,26,27)

> <INCHI_KEY>
FFYNAVGJSYHHFO-UHFFFAOYSA-N

> <FORMULA>
C24H31NO6

> <MOLECULAR_WEIGHT>
429.513

> <EXACT_MASS>
429.215137722

> <JCHEM_ACCEPTOR_COUNT>
6

> <JCHEM_ATOM_COUNT>
62

> <JCHEM_AVERAGE_POLARIZABILITY>
46.89105974020944

> <JCHEM_BIOAVAILABILITY>
1

> <JCHEM_DONOR_COUNT>
1

> <JCHEM_FORMAL_CHARGE>
0

> <JCHEM_GHOSE_FILTER>
1

> <JCHEM_IUPAC>
4-{[1-(dimethylamino)-3-{2-[2-(3-methoxyphenyl)ethyl]phenoxy}propan-2-yl]oxy}-4-oxobutanoic acid

> <ALOGPS_LOGP>
3.57

> <JCHEM_LOGP>
1.122808987977464

> <ALOGPS_LOGS>
-4.60

> <JCHEM_MDDR_LIKE_RULE>
0

> <JCHEM_NUMBER_OF_RINGS>
2

> <JCHEM_PHYSIOLOGICAL_CHARGE>
0

> <JCHEM_PKA_STRONGEST_ACIDIC>
3.7819445190183636

> <JCHEM_PKA_STRONGEST_BASIC>
8.151361581500653

> <JCHEM_POLAR_SURFACE_AREA>
85.3

> <JCHEM_REFRACTIVITY>
117.349

> <JCHEM_ROTATABLE_BOND_COUNT>
14

> <JCHEM_RULE_OF_FIVE>
1

> <ALOGPS_SOLUBILITY>
1.09e-02 g/l

> <JCHEM_TRADITIONAL_IUPAC>
sarpogrelate

> <JCHEM_VEBER_RULE>
0

> <DRUGBANK_ID>
DB12163

> <DRUG_GROUPS>
investigational

> <GENERIC_NAME>
Sarpogrelate

> <SYNONYMS>
Sarpogrelate

> <SALTS>
Sarpogrelate Hydrochloride

$$$$
