
  Mrv1718004051812252D          

  1  0  0  0  0  0            999 V2000
    0.0000    0.0000    0.0000 F   0  5  0  0  0  0  0  0  0  0  0  0
M  CHG  1   1  -1
M  ISO  1   1  18
M  END
> <DATABASE_ID>
DB09398

> <DATABASE_NAME>
drugbank

> <SMILES>
[18F-]

> <INCHI_IDENTIFIER>
InChI=1S/FH/h1H/p-1/i1-1

> <INCHI_KEY>
KRHYYFGTRYWZRS-BJUDXGSMSA-M

> <FORMULA>
F

> <MOLECULAR_WEIGHT>
18.0015

> <EXACT_MASS>
18.001486247

> <JCHEM_ACCEPTOR_COUNT>
0

> <JCHEM_ATOM_COUNT>
1

> <JCHEM_AVERAGE_POLARIZABILITY>
0.43590066

> <JCHEM_BIOAVAILABILITY>
1

> <JCHEM_DONOR_COUNT>
0

> <JCHEM_FORMAL_CHARGE>
-1

> <JCHEM_GHOSE_FILTER>
0

> <JCHEM_IUPAC>
(18F)fluoride

> <JCHEM_LOGP>
0.14883863966666666

> <JCHEM_MDDR_LIKE_RULE>
0

> <JCHEM_NUMBER_OF_RINGS>
0

> <JCHEM_PHYSIOLOGICAL_CHARGE>
-1

> <JCHEM_PKA_STRONGEST_ACIDIC>
3.1699999999999995

> <JCHEM_POLAR_SURFACE_AREA>
0.0

> <JCHEM_REFRACTIVITY>
0.8725

> <JCHEM_ROTATABLE_BOND_COUNT>
0

> <JCHEM_RULE_OF_FIVE>
1

> <JCHEM_TRADITIONAL_IUPAC>
(18F)fluoride

> <JCHEM_VEBER_RULE>
1

> <DRUGBANK_ID>
DB09398

> <DRUG_GROUPS>
approved

> <GENERIC_NAME>
Fluoride ion F-18

> <SYNONYMS>
(18F)-Fluoride; 18F-Fluoride; Fluoride-18 anion

> <PRODUCTS>
Sodium Fluoride F 18; Sodium Fluoride F-18; Sodium Fluoride F18; Sodium FluorideF 18 F 18

> <SALTS>
Sodium fluoride F-18

$$$$
