
  Mrv1909 12111919122D          

 16 16  0  0  0  0            999 V2000
   -0.3572    0.6972    0.0000 O   0  0  0  0  0  0  0  0  0  0  0  0
   -0.3572   -1.7780    0.0000 O   0  0  0  0  0  0  0  0  0  0  0  0
   -1.7863   -0.9529    0.0000 O   0  0  0  0  0  0  0  0  0  0  0  0
    1.0717   -0.9529    0.0000 O   0  0  0  0  0  0  0  0  0  0  0  0
   -1.7863    1.5222    0.0000 O   0  0  0  0  0  0  0  0  0  0  0  0
    1.7863    0.2846    0.0000 O   0  0  0  0  0  0  0  0  0  0  0  0
    1.0717    1.5222    0.0000 N   0  0  0  0  0  0  0  0  0  0  0  0
   -0.3572   -0.9529    0.0000 C   0  0  1  0  0  0  0  0  0  0  0  0
   -1.0717   -0.5403    0.0000 C   0  0  1  0  0  0  0  0  0  0  0  0
    0.3572   -0.5403    0.0000 C   0  0  2  0  0  0  0  0  0  0  0  0
   -1.0717    0.2846    0.0000 C   0  0  1  0  0  0  0  0  0  0  0  0
    0.3572    0.2846    0.0000 C   0  0  1  0  0  0  0  0  0  0  0  0
   -1.7863    0.6972    0.0000 C   0  0  0  0  0  0  0  0  0  0  0  0
    1.0717    0.6972    0.0000 C   0  0  0  0  0  0  0  0  0  0  0  0
    1.5148    1.7780    0.0000 H   0  0  0  0  0  0  0  0  0  0  0  0
    0.6287    1.7780    0.0000 H   0  0  0  0  0  0  0  0  0  0  0  0
  1 11  1  0  0  0  0
  1 12  1  0  0  0  0
  8  2  1  1  0  0  0
  9  3  1  6  0  0  0
 10  4  1  6  0  0  0
  5 13  1  0  0  0  0
  6 14  2  0  0  0  0
  7 14  1  0  0  0  0
  7 15  1  0  0  0  0
  7 16  1  0  0  0  0
  8  9  1  0  0  0  0
  8 10  1  0  0  0  0
  9 11  1  0  0  0  0
 10 12  1  0  0  0  0
 11 13  1  1  0  0  0
 12 14  1  6  0  0  0
M  END
> <DATABASE_ID>
DB02720

> <DATABASE_NAME>
drugbank

> <SMILES>
[H]N([H])C(=O)[C@H]1O[C@H](CO)[C@@H](O)[C@H](O)[C@H]1O

> <INCHI_IDENTIFIER>
InChI=1S/C7H13NO6/c8-7(13)6-5(12)4(11)3(10)2(1-9)14-6/h2-6,9-12H,1H2,(H2,8,13)/t2-,3-,4+,5-,6+/m1/s1

> <INCHI_KEY>
UKWLGCFJAVEFPE-DVKNGEFBSA-N

> <FORMULA>
C7H13NO6

> <MOLECULAR_WEIGHT>
207.1812

> <EXACT_MASS>
207.074287153

> <JCHEM_ACCEPTOR_COUNT>
6

> <JCHEM_ATOM_COUNT>
27

> <JCHEM_AVERAGE_POLARIZABILITY>
18.583990000019128

> <JCHEM_BIOAVAILABILITY>
1

> <JCHEM_DONOR_COUNT>
5

> <JCHEM_FORMAL_CHARGE>
0

> <JCHEM_GHOSE_FILTER>
0

> <JCHEM_IUPAC>
(2S,3R,4S,5S,6R)-3,4,5-trihydroxy-6-(hydroxymethyl)oxane-2-carboxamide

> <ALOGPS_LOGP>
-2.96

> <JCHEM_LOGP>
-3.685318294

> <ALOGPS_LOGS>
0.27

> <JCHEM_MDDR_LIKE_RULE>
0

> <JCHEM_NUMBER_OF_RINGS>
1

> <JCHEM_PHYSIOLOGICAL_CHARGE>
0

> <JCHEM_PKA>
13.39787893280295

> <JCHEM_PKA_STRONGEST_ACIDIC>
12.520904744297825

> <JCHEM_PKA_STRONGEST_BASIC>
-2.979323434325474

> <JCHEM_POLAR_SURFACE_AREA>
133.24

> <JCHEM_REFRACTIVITY>
42.54560000000001

> <JCHEM_ROTATABLE_BOND_COUNT>
2

> <JCHEM_RULE_OF_FIVE>
1

> <ALOGPS_SOLUBILITY>
3.86e+02 g/l

> <JCHEM_TRADITIONAL_IUPAC>
(2S,3R,4S,5S,6R)-3,4,5-trihydroxy-6-(hydroxymethyl)oxane-2-carboxamide

> <JCHEM_VEBER_RULE>
0

> <DRUGBANK_ID>
DB02720

> <SECONDARY_ACCESSION_NUMBERS>
EXPT01605

> <DRUG_GROUPS>
experimental

> <GENERIC_NAME>
alpha-D-glucopyranosyl-2-carboxylic acid amide

$$$$
