
  Mrv1909 01012020542D          

 50 54  0  0  0  0            999 V2000
   -0.0882    1.9805    0.0000 P   0  0  0  0  0  0  0  0  0  0  0  0
   -1.5094    1.8336    0.0000 P   0  0  0  0  0  0  0  0  0  0  0  0
    2.2564    0.9833    0.0000 O   0  0  0  0  0  0  0  0  0  0  0  0
   -3.6006    0.3779    0.0000 O   0  0  0  0  0  0  0  0  0  0  0  0
    4.2209    1.8188    0.0000 O   0  0  0  0  0  0  0  0  0  0  0  0
    2.8890    3.0222    0.0000 O   0  0  0  0  0  0  0  0  0  0  0  0
   -4.6370    2.2442    0.0000 O   0  0  0  0  0  0  0  0  0  0  0  0
   -5.6945    0.7942    0.0000 O   0  0  0  0  0  0  0  0  0  0  0  0
    0.6647    1.6437    0.0000 O   0  0  0  0  0  0  0  0  0  0  0  0
   -2.1777    1.3498    0.0000 O   0  0  0  0  0  0  0  0  0  0  0  0
   -0.8413    2.3175    0.0000 O   0  0  0  0  0  0  0  0  0  0  0  0
    0.2486    2.7337    0.0000 O   0  0  0  0  0  0  0  0  0  0  0  0
   -0.4249    1.2273    0.0000 O   0  0  0  0  0  0  0  0  0  0  0  0
   -1.0258    1.1654    0.0000 O   0  5  0  0  0  0  0  0  0  0  0  0
   -1.9933    2.5019    0.0000 O   0  0  0  0  0  0  0  0  0  0  0  0
    3.4830   -2.6774    0.0000 O   0  0  0  0  0  0  0  0  0  0  0  0
    5.9607   -1.2527    0.0000 O   0  0  0  0  0  0  0  0  0  0  0  0
    3.4880    0.1805    0.0000 N   0  3  0  0  0  0  0  0  0  0  0  0
   -4.6420   -0.6596    0.0000 N   0  0  0  0  0  0  0  0  0  0  0  0
   -4.6420   -1.9875    0.0000 N   0  0  0  0  0  0  0  0  0  0  0  0
   -6.1372   -0.4985    0.0000 N   0  0  0  0  0  0  0  0  0  0  0  0
   -6.8517   -1.7362    0.0000 N   0  0  0  0  0  0  0  0  0  0  0  0
   -6.1372   -2.9737    0.0000 N   0  0  0  0  0  0  0  0  0  0  0  0
    2.2467   -1.9607    0.0000 N   0  0  0  0  0  0  0  0  0  0  0  0
    3.4135    1.6487    0.0000 C   0  0  2  0  0  0  0  0  0  0  0  0
    2.8014    2.2017    0.0000 C   0  0  1  0  0  0  0  0  0  0  0  0
    3.0767    0.8957    0.0000 C   0  0  1  0  0  0  0  0  0  0  0  0
    2.0861    1.7905    0.0000 C   0  0  1  0  0  0  0  0  0  0  0  0
   -4.3835    1.4591    0.0000 C   0  0  1  0  0  0  0  0  0  0  0  0
   -4.8695    0.7927    0.0000 C   0  0  2  0  0  0  0  0  0  0  0  0
   -3.5992    1.2030    0.0000 C   0  0  1  0  0  0  0  0  0  0  0  0
   -4.3858    0.1244    0.0000 C   0  0  1  0  0  0  0  0  0  0  0  0
    1.3330    2.1273    0.0000 C   0  0  0  0  0  0  0  0  0  0  0  0
   -2.9308    1.6867    0.0000 C   0  0  0  0  0  0  0  0  0  0  0  0
    3.0742   -0.5331    0.0000 C   0  0  0  0  0  0  0  0  0  0  0  0
    4.3130    0.1790    0.0000 C   0  0  0  0  0  0  0  0  0  0  0  0
   -5.4228   -0.9112    0.0000 C   0  0  0  0  0  0  0  0  0  0  0  0
   -4.1606   -1.3236    0.0000 C   0  0  0  0  0  0  0  0  0  0  0  0
    3.4855   -1.2484    0.0000 C   0  0  0  0  0  0  0  0  0  0  0  0
    4.3105   -1.2498    0.0000 C   0  0  0  0  0  0  0  0  0  0  0  0
    4.7243   -0.5359    0.0000 C   0  0  0  0  0  0  0  0  0  0  0  0
   -5.4228   -1.7362    0.0000 C   0  0  0  0  0  0  0  0  0  0  0  0
    4.7218   -1.9650    0.0000 C   0  0  2  0  0  0  0  0  0  0  0  0
   -6.1372   -2.1486    0.0000 C   0  0  0  0  0  0  0  0  0  0  0  0
    3.0718   -1.9621    0.0000 C   0  0  0  0  0  0  0  0  0  0  0  0
    4.3081   -2.6788    0.0000 C   0  0  0  0  0  0  0  0  0  0  0  0
    5.5468   -1.9664    0.0000 C   0  0  0  0  0  0  0  0  0  0  0  0
   -6.8517   -0.9112    0.0000 C   0  0  0  0  0  0  0  0  0  0  0  0
    5.9582   -2.6817    0.0000 C   0  0  0  0  0  0  0  0  0  0  0  0
    6.7832   -2.6831    0.0000 C   0  0  0  0  0  0  0  0  0  0  0  0
  1  9  1  0  0  0  0
  1 11  1  0  0  0  0
  1 12  1  0  0  0  0
  1 13  2  0  0  0  0
  2 10  1  0  0  0  0
  2 11  1  0  0  0  0
  2 14  1  0  0  0  0
  2 15  2  0  0  0  0
  3 27  1  0  0  0  0
  3 28  1  0  0  0  0
  4 31  1  0  0  0  0
  4 32  1  0  0  0  0
 25  5  1  1  0  0  0
 26  6  1  1  0  0  0
 29  7  1  6  0  0  0
 30  8  1  6  0  0  0
  9 33  1  0  0  0  0
 10 34  1  0  0  0  0
 16 45  2  0  0  0  0
 17 47  2  0  0  0  0
 27 18  1  6  0  0  0
 18 35  2  0  0  0  0
 18 36  1  0  0  0  0
 32 19  1  1  0  0  0
 19 37  1  0  0  0  0
 19 38  1  0  0  0  0
 20 38  2  0  0  0  0
 20 42  1  0  0  0  0
 21 37  2  0  0  0  0
 21 48  1  0  0  0  0
 22 44  1  0  0  0  0
 22 48  2  0  0  0  0
 23 44  1  0  0  0  0
 24 45  1  0  0  0  0
 25 26  1  0  0  0  0
 25 27  1  0  0  0  0
 26 28  1  0  0  0  0
 28 33  1  6  0  0  0
 29 30  1  0  0  0  0
 29 31  1  0  0  0  0
 30 32  1  0  0  0  0
 31 34  1  1  0  0  0
 35 39  1  0  0  0  0
 36 41  2  0  0  0  0
 37 42  1  0  0  0  0
 39 40  2  0  0  0  0
 39 45  1  0  0  0  0
 40 41  1  0  0  0  0
 40 43  1  0  0  0  0
 42 44  2  0  0  0  0
 43 46  1  1  0  0  0
 43 47  1  0  0  0  0
 47 49  1  0  0  0  0
 49 50  1  0  0  0  0
M  CHG  2  14  -1  18   1
M  END
> <DATABASE_ID>
DB04421

> <DATABASE_NAME>
drugbank

> <SMILES>
CCC(=O)[C@@H](C)C1=C(C=[N+](C=C1)[C@@H]1O[C@H](COP(O)(=O)OP([O-])(=O)OC[C@H]2O[C@H]([C@H](O)[C@@H]2O)N2C=NC3=C(N)N=CN=C23)[C@@H](O)[C@H]1O)C(N)=O

> <INCHI_IDENTIFIER>
InChI=1S/C26H35N7O15P2/c1-3-14(34)11(2)12-4-5-32(6-13(12)23(28)39)25-20(37)18(35)15(46-25)7-44-49(40,41)48-50(42,43)45-8-16-19(36)21(38)26(47-16)33-10-31-17-22(27)29-9-30-24(17)33/h4-6,9-11,15-16,18-21,25-26,35-38H,3,7-8H2,1-2H3,(H5-,27,28,29,30,39,40,41,42,43)/t11-,15+,16+,18+,19+,20+,21+,25+,26+/m0/s1

> <INCHI_KEY>
BZJFKYRGSZWSLT-YLIVDTKOSA-N

> <FORMULA>
C26H35N7O15P2

> <MOLECULAR_WEIGHT>
747.5415

> <EXACT_MASS>
747.166636509

> <JCHEM_ACCEPTOR_COUNT>
16

> <JCHEM_ATOM_COUNT>
85

> <JCHEM_AVERAGE_NEUTRAL_MICROSPECIES_CHARGE>
-0.9917325554402372

> <JCHEM_AVERAGE_POLARIZABILITY>
66.7217246979679

> <JCHEM_BIOAVAILABILITY>
0

> <JCHEM_DONOR_COUNT>
7

> <JCHEM_FORMAL_CHARGE>
0

> <JCHEM_GHOSE_FILTER>
0

> <JCHEM_IUPAC>
1-[(2R,3R,4S,5R)-5-({[({[(2R,3S,4R,5R)-5-(6-amino-9H-purin-9-yl)-3,4-dihydroxyoxolan-2-yl]methyl phosphonato}oxy)(hydroxy)phosphoryl]oxy}methyl)-3,4-dihydroxyoxolan-2-yl]-3-carbamoyl-4-[(2S)-3-oxopentan-2-yl]-1lambda5-pyridin-1-ylium

> <ALOGPS_LOGP>
-0.51

> <JCHEM_LOGP>
-8.75084136170088

> <ALOGPS_LOGS>
-2.66

> <JCHEM_MDDR_LIKE_RULE>
1

> <JCHEM_NEUTRAL_CHARGE>
-1

> <JCHEM_NUMBER_OF_RINGS>
5

> <JCHEM_PHYSIOLOGICAL_CHARGE>
-1

> <JCHEM_PKA>
2.2830185411597332

> <JCHEM_PKA_STRONGEST_ACIDIC>
1.8542391602668498

> <JCHEM_PKA_STRONGEST_BASIC>
4.930731095047049

> <JCHEM_POLAR_SURFACE_AREA>
338.1599999999999

> <JCHEM_REFRACTIVITY>
164.9353

> <JCHEM_ROTATABLE_BOND_COUNT>
14

> <JCHEM_RULE_OF_FIVE>
0

> <ALOGPS_SOLUBILITY>
1.75e+00 g/l

> <JCHEM_TRADITIONAL_IUPAC>
2-amino-3H,5H-pyrrolo[3,2-d]pyrimidin-4-one

> <JCHEM_VEBER_RULE>
0

> <DRUGBANK_ID>
DB04421

> <SECONDARY_ACCESSION_NUMBERS>
EXPT02294

> <DRUG_GROUPS>
experimental

> <GENERIC_NAME>
Nicotinamide adenine dinucleotide 3-pentanone adduct

$$$$
